
 OpenBabel03252508333D

 25 26  0  0  1  0  0  0  0  0999 V2000
   38.3530   30.7730   41.1040 N   0  0  0  0  0  0  0  0  0  0  0  0
   37.0690   31.0650   40.5380 C   0  0  1  0  0  0  0  0  0  0  0  0
   37.0000   32.3470   39.7870 C   0  0  0  0  0  0  0  0  0  0  0  0
   37.7400   33.4180   40.2950 N   0  0  0  0  0  0  0  0  0  0  0  0
   38.9090   33.1400   41.0190 C   0  0  0  0  0  0  0  0  0  0  0  0
   39.3840   31.7150   40.7870 C   0  0  0  0  0  0  0  0  0  0  0  0
   36.3070   31.0660   41.3360 H   0  0  0  0  0  0  0  0  0  0  0  0
   37.2700   32.1750   38.7200 H   0  0  0  0  0  0  0  0  0  0  0  0
   35.9120   32.6440   39.7750 H   0  0  0  0  0  0  0  0  0  0  0  0
   37.9170   34.1340   39.5580 H   0  0  0  0  0  0  0  0  0  0  0  0
   39.7630   33.8180   40.8000 H   0  0  0  0  0  0  0  0  0  0  0  0
   38.7070   33.2070   42.1140 H   0  0  0  0  0  0  0  0  0  0  0  0
   40.3420   31.5890   41.2760 H   0  0  0  0  0  0  0  0  0  0  0  0
   39.4970   31.6490   39.6610 H   0  0  0  0  0  0  0  0  0  0  0  0
   39.5200   28.7510   41.5650 C   0  0  0  0  0  0  0  0  0  0  0  0
   38.4800   29.6160   41.8880 C   0  0  0  0  0  0  0  0  0  0  0  0
   37.6360   29.2560   42.9520 C   0  0  0  0  0  0  0  0  0  0  0  0
   37.8540   28.0960   43.6240 N   0  0  0  0  0  0  0  0  0  0  0  0
   38.8740   27.2830   43.2800 C   0  0  0  0  0  0  0  0  0  0  0  0
   39.6960   27.5980   42.2710 N   0  0  0  0  0  0  0  0  0  0  0  0
   40.2660   28.8470   40.7920 H   0  0  0  0  0  0  0  0  0  0  0  0
   36.8460   29.9200   43.1940 H   0  0  0  0  0  0  0  0  0  0  0  0
   39.0170   26.3580   43.8450 H   0  0  0  0  0  0  0  0  0  0  0  0
   36.7220   29.9510   39.5610 C   0  0  0  0  0  2  0  0  0  0  0  0
   35.6530   29.6930   39.6930 H   0  0  0  0  0  0  0  0  0  0  0  0
  1 16  1  0  0  0  0
  2  1  1  0  0  0  0
  2  7  1  1  0  0  0
  3  4  1  0  0  0  0
  3  2  1  0  0  0  0
  4  5  1  0  0  0  0
  5 12  1  0  0  0  0
  6  5  1  0  0  0  0
  6  1  1  0  0  0  0
  6 13  1  0  0  0  0
  8  3  1  0  0  0  0
  9  3  1  0  0  0  0
 10  4  1  0  0  0  0
 11  5  1  0  0  0  0
 14  6  1  0  0  0  0
 15 16  2  0  0  0  0
 15 20  1  0  0  0  0
 16 17  1  0  0  0  0
 17 22  1  0  0  0  0
 17 18  2  0  0  0  0
 19 18  1  0  0  0  0
 19 23  1  0  0  0  0
 20 19  2  0  0  0  0
 21 15  1  0  0  0  0
 24 25  1  0  0  0  0
 24  2  1  0  0  0  0
M  END
>  <minimizedAffinity>
-3.80655622

$$$$

 OpenBabel03252508333D

 25 26  0  0  1  0  0  0  0  0999 V2000
   38.0000   30.8770   40.3630 N   0  0  0  0  0  0  0  0  0  0  0  0
   38.2800   30.4210   39.0330 C   0  0  1  0  0  0  0  0  0  0  0  0
   38.4600   31.5050   38.0320 C   0  0  0  0  0  0  0  0  0  0  0  0
   37.6470   32.6340   38.1700 N   0  0  0  0  0  0  0  0  0  0  0  0
   37.2060   32.9880   39.4530 C   0  0  0  0  0  0  0  0  0  0  0  0
   38.0220   32.2980   40.5340 C   0  0  0  0  0  0  0  0  0  0  0  0
   37.4760   29.7430   38.7000 H   0  0  0  0  0  0  0  0  0  0  0  0
   39.5300   31.8130   37.9950 H   0  0  0  0  0  0  0  0  0  0  0  0
   38.2500   31.0390   37.0260 H   0  0  0  0  0  0  0  0  0  0  0  0
   38.0590   33.4550   37.6750 H   0  0  0  0  0  0  0  0  0  0  0  0
   37.2240   34.0790   39.6650 H   0  0  0  0  0  0  0  0  0  0  0  0
   36.1580   32.6390   39.6080 H   0  0  0  0  0  0  0  0  0  0  0  0
   37.7160   32.6890   41.4970 H   0  0  0  0  0  0  0  0  0  0  0  0
   39.0890   32.5990   40.3000 H   0  0  0  0  0  0  0  0  0  0  0  0
   36.6810   29.0480   41.1250 C   0  0  0  0  0  0  0  0  0  0  0  0
   37.7480   29.9120   41.3500 C   0  0  0  0  0  0  0  0  0  0  0  0
   38.4710   29.7610   42.5450 C   0  0  0  0  0  0  0  0  0  0  0  0
   38.1160   28.7950   43.4320 N   0  0  0  0  0  0  0  0  0  0  0  0
   37.0740   27.9760   43.1770 C   0  0  0  0  0  0  0  0  0  0  0  0
   36.3660   28.0940   42.0470 N   0  0  0  0  0  0  0  0  0  0  0  0
   36.0130   29.0030   40.2800 H   0  0  0  0  0  0  0  0  0  0  0  0
   39.2830   30.4200   42.7110 H   0  0  0  0  0  0  0  0  0  0  0  0
   36.8200   27.2120   43.9150 H   0  0  0  0  0  0  0  0  0  0  0  0
   39.5760   29.6240   39.0730 C   0  0  0  0  0  2  0  0  0  0  0  0
   39.4540   28.7270   38.4350 H   0  0  0  0  0  0  0  0  0  0  0  0
  1  6  1  0  0  0  0
  1 16  1  0  0  0  0
  2  7  1  6  0  0  0
  2 24  1  0  0  0  0
  2  1  1  0  0  0  0
  3  4  1  0  0  0  0
  3  2  1  0  0  0  0
  4  5  1  0  0  0  0
  5 12  1  0  0  0  0
  5 11  1  0  0  0  0
  5  6  1  0  0  0  0
  6 13  1  0  0  0  0
  8  3  1  0  0  0  0
  9  3  1  0  0  0  0
 10  4  1  0  0  0  0
 14  6  1  0  0  0  0
 15 16  2  0  0  0  0
 15 20  1  0  0  0  0
 16 17  1  0  0  0  0
 17 22  1  0  0  0  0
 17 18  2  0  0  0  0
 19 18  1  0  0  0  0
 19 23  1  0  0  0  0
 20 19  2  0  0  0  0
 21 15  1  0  0  0  0
 25 24  1  0  0  0  0
M  END
>  <minimizedAffinity>
-3.78953362

$$$$

 OpenBabel03252508333D

 25 26  0  0  1  0  0  0  0  0999 V2000
   37.9750   29.5170   41.0520 N   0  0  0  0  0  0  0  0  0  0  0  0
   36.6070   29.8580   41.3130 C   0  0  1  0  0  0  0  0  0  0  0  0
   36.1650   31.1450   40.7140 C   0  0  0  0  0  0  0  0  0  0  0  0
   37.0970   32.1860   40.6930 N   0  0  0  0  0  0  0  0  0  0  0  0
   38.4600   31.8620   40.6280 C   0  0  0  0  0  0  0  0  0  0  0  0
   38.6720   30.4220   40.1900 C   0  0  0  0  0  0  0  0  0  0  0  0
   36.4350   29.8830   42.4020 H   0  0  0  0  0  0  0  0  0  0  0  0
   35.7740   30.9690   39.6850 H   0  0  0  0  0  0  0  0  0  0  0  0
   35.2740   31.4810   41.3180 H   0  0  0  0  0  0  0  0  0  0  0  0
   36.8460   32.8990   39.9740 H   0  0  0  0  0  0  0  0  0  0  0  0
   39.0590   32.5100   39.9510 H   0  0  0  0  0  0  0  0  0  0  0  0
   38.9200   31.9310   41.6420 H   0  0  0  0  0  0  0  0  0  0  0  0
   39.7340   30.2590   40.0490 H   0  0  0  0  0  0  0  0  0  0  0  0
   38.1220   30.3580   39.2010 H   0  0  0  0  0  0  0  0  0  0  0  0
   38.4950   28.3060   43.0340 C   0  0  0  0  0  0  0  0  0  0  0  0
   38.4870   28.3520   41.6440 C   0  0  0  0  0  0  0  0  0  0  0  0
   39.0020   27.2450   40.9490 C   0  0  0  0  0  0  0  0  0  0  0  0
   39.4860   26.1800   41.6400 N   0  0  0  0  0  0  0  0  0  0  0  0
   39.4770   26.1730   42.9890 C   0  0  0  0  0  0  0  0  0  0  0  0
   38.9910   27.2120   43.6800 N   0  0  0  0  0  0  0  0  0  0  0  0
   38.1480   29.0450   43.7380 H   0  0  0  0  0  0  0  0  0  0  0  0
   38.9920   27.2850   39.8910 H   0  0  0  0  0  0  0  0  0  0  0  0
   39.8750   25.2970   43.5080 H   0  0  0  0  0  0  0  0  0  0  0  0
   35.7300   28.7620   40.7260 C   0  0  0  0  0  2  0  0  0  0  0  0
   34.9180   28.5420   41.4460 H   0  0  0  0  0  0  0  0  0  0  0  0
  1  2  1  0  0  0  0
  1 16  1  0  0  0  0
  2  7  1  1  0  0  0
  3  2  1  0  0  0  0
  3  9  1  0  0  0  0
  4  3  1  0  0  0  0
  5  4  1  0  0  0  0
  5 12  1  0  0  0  0
  6  5  1  0  0  0  0
  6  1  1  0  0  0  0
  8  3  1  0  0  0  0
 10  4  1  0  0  0  0
 11  5  1  0  0  0  0
 13  6  1  0  0  0  0
 14  6  1  0  0  0  0
 15 20  1  0  0  0  0
 15 21  1  0  0  0  0
 16 15  2  0  0  0  0
 17 18  2  0  0  0  0
 17 16  1  0  0  0  0
 18 19  1  0  0  0  0
 19 23  1  0  0  0  0
 19 20  2  0  0  0  0
 22 17  1  0  0  0  0
 24  2  1  0  0  0  0
 24 25  1  0  0  0  0
M  END
>  <minimizedAffinity>
-3.77976465

$$$$

 OpenBabel03252508333D

 25 26  0  0  1  0  0  0  0  0999 V2000
   38.9040   26.7260   42.5410 N   0  0  0  0  0  0  0  0  0  0  0  0
   38.5970   25.4390   41.9870 C   0  0  1  0  0  0  0  0  0  0  0  0
   39.3040   24.3020   42.6330 C   0  0  0  0  0  0  0  0  0  0  0  0
   40.6180   24.5290   43.0500 N   0  0  0  0  0  0  0  0  0  0  0  0
   40.9880   25.8300   43.4200 C   0  0  0  0  0  0  0  0  0  0  0  0
   39.7720   26.7040   43.6800 C   0  0  0  0  0  0  0  0  0  0  0  0
   38.8200   25.4430   40.9060 H   0  0  0  0  0  0  0  0  0  0  0  0
   38.6990   23.9170   43.4860 H   0  0  0  0  0  0  0  0  0  0  0  0
   39.3130   23.4680   41.8740 H   0  0  0  0  0  0  0  0  0  0  0  0
   40.9060   23.8370   43.7760 H   0  0  0  0  0  0  0  0  0  0  0  0
   41.6410   25.8900   44.3170 H   0  0  0  0  0  0  0  0  0  0  0  0
   41.5320   26.3270   42.5820 H   0  0  0  0  0  0  0  0  0  0  0  0
   40.1100   27.6570   44.0670 H   0  0  0  0  0  0  0  0  0  0  0  0
   39.1940   26.1330   44.4700 H   0  0  0  0  0  0  0  0  0  0  0  0
   38.6160   28.0620   40.5930 C   0  0  0  0  0  0  0  0  0  0  0  0
   38.3310   27.8560   41.9380 C   0  0  0  0  0  0  0  0  0  0  0  0
   37.5120   28.7970   42.5850 C   0  0  0  0  0  0  0  0  0  0  0  0
   37.0300   29.8620   41.8930 N   0  0  0  0  0  0  0  0  0  0  0  0
   37.3310   30.0270   40.5870 C   0  0  0  0  0  0  0  0  0  0  0  0
   38.1080   29.1470   39.9430 N   0  0  0  0  0  0  0  0  0  0  0  0
   39.2170   27.4610   39.9290 H   0  0  0  0  0  0  0  0  0  0  0  0
   37.2960   28.6340   43.6090 H   0  0  0  0  0  0  0  0  0  0  0  0
   36.9240   30.8970   40.0650 H   0  0  0  0  0  0  0  0  0  0  0  0
   37.1050   25.1990   42.1560 C   0  0  0  0  0  2  0  0  0  0  0  0
   36.7170   24.7420   41.2240 H   0  0  0  0  0  0  0  0  0  0  0  0
  1  6  1  0  0  0  0
  2  7  1  6  0  0  0
  2 24  1  0  0  0  0
  2  1  1  0  0  0  0
  2  3  1  0  0  0  0
  3  4  1  0  0  0  0
  3  8  1  0  0  0  0
  4  5  1  0  0  0  0
  4 10  1  0  0  0  0
  5  6  1  0  0  0  0
  5 11  1  0  0  0  0
  6 13  1  0  0  0  0
  6 14  1  0  0  0  0
  9  3  1  0  0  0  0
 12  5  1  0  0  0  0
 15 16  1  0  0  0  0
 16  1  1  0  0  0  0
 16 17  2  0  0  0  0
 17 22  1  0  0  0  0
 18 17  1  0  0  0  0
 19 18  2  0  0  0  0
 20 19  1  0  0  0  0
 20 15  2  0  0  0  0
 21 15  1  0  0  0  0
 23 19  1  0  0  0  0
 25 24  1  0  0  0  0
M  END
>  <minimizedAffinity>
-3.70724392

$$$$

 OpenBabel03252508333D

 25 26  0  0  1  0  0  0  0  0999 V2000
   38.1670   31.5070   39.8600 N   0  0  0  0  0  0  0  0  0  0  0  0
   37.9520   32.7930   40.4580 C   0  0  1  0  0  0  0  0  0  0  0  0
   39.1950   33.5430   40.7760 C   0  0  0  0  0  0  0  0  0  0  0  0
   40.2870   32.7960   41.2260 N   0  0  0  0  0  0  0  0  0  0  0  0
   40.4110   31.4670   40.7960 C   0  0  0  0  0  0  0  0  0  0  0  0
   39.5350   31.1870   39.5870 C   0  0  0  0  0  0  0  0  0  0  0  0
   37.3500   32.6760   41.3750 H   0  0  0  0  0  0  0  0  0  0  0  0
   39.4980   34.1630   39.9000 H   0  0  0  0  0  0  0  0  0  0  0  0
   38.9170   34.2820   41.5810 H   0  0  0  0  0  0  0  0  0  0  0  0
   41.1800   33.3190   41.0910 H   0  0  0  0  0  0  0  0  0  0  0  0
   41.4480   31.1570   40.5380 H   0  0  0  0  0  0  0  0  0  0  0  0
   40.0480   30.7720   41.5890 H   0  0  0  0  0  0  0  0  0  0  0  0
   39.7510   30.1870   39.2300 H   0  0  0  0  0  0  0  0  0  0  0  0
   39.8650   31.9620   38.8290 H   0  0  0  0  0  0  0  0  0  0  0  0
   36.2950   30.2970   40.6940 C   0  0  0  0  0  0  0  0  0  0  0  0
   37.0430   30.7080   39.5960 C   0  0  0  0  0  0  0  0  0  0  0  0
   36.6280   30.2810   38.3240 C   0  0  0  0  0  0  0  0  0  0  0  0
   35.5290   29.4930   38.2010 N   0  0  0  0  0  0  0  0  0  0  0  0
   34.8290   29.1140   39.2910 C   0  0  0  0  0  0  0  0  0  0  0  0
   35.1990   29.5060   40.5170 N   0  0  0  0  0  0  0  0  0  0  0  0
   36.4480   30.5160   41.7380 H   0  0  0  0  0  0  0  0  0  0  0  0
   37.2020   30.5990   37.4920 H   0  0  0  0  0  0  0  0  0  0  0  0
   33.9500   28.4800   39.1510 H   0  0  0  0  0  0  0  0  0  0  0  0
   37.1520   33.6390   39.4780 C   0  0  0  0  0  2  0  0  0  0  0  0
   36.3830   34.1970   40.0470 H   0  0  0  0  0  0  0  0  0  0  0  0
  1  2  1  0  0  0  0
  2  3  1  0  0  0  0
  2  7  1  1  0  0  0
  3  4  1  0  0  0  0
  3  9  1  0  0  0  0
  5  4  1  0  0  0  0
  5 12  1  0  0  0  0
  6  1  1  0  0  0  0
  6  5  1  0  0  0  0
  8  3  1  0  0  0  0
 10  4  1  0  0  0  0
 11  5  1  0  0  0  0
 13  6  1  0  0  0  0
 14  6  1  0  0  0  0
 15 21  1  0  0  0  0
 16  1  1  0  0  0  0
 16 15  2  0  0  0  0
 17 16  1  0  0  0  0
 18 17  2  0  0  0  0
 18 19  1  0  0  0  0
 19 20  2  0  0  0  0
 20 15  1  0  0  0  0
 22 17  1  0  0  0  0
 23 19  1  0  0  0  0
 24 25  1  0  0  0  0
 24  2  1  0  0  0  0
M  END
>  <minimizedAffinity>
-3.70174122

$$$$

 OpenBabel03252508333D

 25 26  0  0  1  0  0  0  0  0999 V2000
   37.8880   27.2240   41.4490 N   0  0  0  0  0  0  0  0  0  0  0  0
   36.6580   27.8070   41.0000 C   0  0  1  0  0  0  0  0  0  0  0  0
   36.4440   29.2130   41.4340 C   0  0  0  0  0  0  0  0  0  0  0  0
   36.8920   29.5550   42.7120 N   0  0  0  0  0  0  0  0  0  0  0  0
   37.9870   28.8600   43.2460 C   0  0  0  0  0  0  0  0  0  0  0  0
   38.7520   28.1100   42.1680 C   0  0  0  0  0  0  0  0  0  0  0  0
   35.8110   27.1860   41.3400 H   0  0  0  0  0  0  0  0  0  0  0  0
   36.8800   29.9110   40.6830 H   0  0  0  0  0  0  0  0  0  0  0  0
   35.3300   29.3870   41.3910 H   0  0  0  0  0  0  0  0  0  0  0  0
   37.0240   30.5860   42.8000 H   0  0  0  0  0  0  0  0  0  0  0  0
   38.7160   29.4940   43.7960 H   0  0  0  0  0  0  0  0  0  0  0  0
   37.6340   28.0740   43.9550 H   0  0  0  0  0  0  0  0  0  0  0  0
   39.6440   27.6860   42.6130 H   0  0  0  0  0  0  0  0  0  0  0  0
   39.0230   28.9180   41.4200 H   0  0  0  0  0  0  0  0  0  0  0  0
   37.2340   24.9450   41.6540 C   0  0  0  0  0  0  0  0  0  0  0  0
   38.1300   25.8760   41.1390 C   0  0  0  0  0  0  0  0  0  0  0  0
   39.2040   25.3970   40.3720 C   0  0  0  0  0  0  0  0  0  0  0  0
   39.3380   24.0620   40.1570 N   0  0  0  0  0  0  0  0  0  0  0  0
   38.4480   23.1900   40.6740 C   0  0  0  0  0  0  0  0  0  0  0  0
   37.4130   23.6160   41.4090 N   0  0  0  0  0  0  0  0  0  0  0  0
   36.3570   25.1110   42.2580 H   0  0  0  0  0  0  0  0  0  0  0  0
   39.8820   26.1110   39.9820 H   0  0  0  0  0  0  0  0  0  0  0  0
   38.5900   22.1240   40.4790 H   0  0  0  0  0  0  0  0  0  0  0  0
   36.6620   27.8000   39.4780 C   0  0  0  0  0  2  0  0  0  0  0  0
   35.6550   27.5010   39.1280 H   0  0  0  0  0  0  0  0  0  0  0  0
  1  6  1  0  0  0  0
  2  7  1  1  0  0  0
  2  3  1  0  0  0  0
  2  1  1  0  0  0  0
  3  4  1  0  0  0  0
  4 10  1  0  0  0  0
  4  5  1  0  0  0  0
  5 11  1  0  0  0  0
  5 12  1  0  0  0  0
  6 13  1  0  0  0  0
  6  5  1  0  0  0  0
  8  3  1  0  0  0  0
  9  3  1  0  0  0  0
 14  6  1  0  0  0  0
 15 21  1  0  0  0  0
 16  1  1  0  0  0  0
 16 15  2  0  0  0  0
 17 16  1  0  0  0  0
 18 17  2  0  0  0  0
 18 19  1  0  0  0  0
 19 20  2  0  0  0  0
 20 15  1  0  0  0  0
 22 17  1  0  0  0  0
 23 19  1  0  0  0  0
 24  2  1  0  0  0  0
 25 24  1  0  0  0  0
M  END
>  <minimizedAffinity>
-3.66708899

$$$$

 OpenBabel03252508333D

 25 26  0  0  1  0  0  0  0  0999 V2000
   39.1340   32.0940   40.1790 N   0  0  0  0  0  0  0  0  0  0  0  0
   37.7650   32.0660   39.7520 C   0  0  1  0  0  0  0  0  0  0  0  0
   36.8290   31.4280   40.7150 C   0  0  0  0  0  0  0  0  0  0  0  0
   37.3070   30.3220   41.4230 N   0  0  0  0  0  0  0  0  0  0  0  0
   38.6820   30.2400   41.6870 C   0  0  0  0  0  0  0  0  0  0  0  0
   39.3690   31.5820   41.4950 C   0  0  0  0  0  0  0  0  0  0  0  0
   37.6940   31.5540   38.7770 H   0  0  0  0  0  0  0  0  0  0  0  0
   36.4400   32.1920   41.4270 H   0  0  0  0  0  0  0  0  0  0  0  0
   35.9350   31.1010   40.1110 H   0  0  0  0  0  0  0  0  0  0  0  0
   36.7490   30.1620   42.2890 H   0  0  0  0  0  0  0  0  0  0  0  0
   38.9380   29.8760   42.7060 H   0  0  0  0  0  0  0  0  0  0  0  0
   39.1730   29.5520   40.9580 H   0  0  0  0  0  0  0  0  0  0  0  0
   40.3990   31.4900   41.8170 H   0  0  0  0  0  0  0  0  0  0  0  0
   38.7960   32.2790   42.1810 H   0  0  0  0  0  0  0  0  0  0  0  0
   40.2860   31.9230   38.1030 C   0  0  0  0  0  0  0  0  0  0  0  0
   40.0890   32.6170   39.2930 C   0  0  0  0  0  0  0  0  0  0  0  0
   40.8660   33.7650   39.5180 C   0  0  0  0  0  0  0  0  0  0  0  0
   41.7730   34.1600   38.5870 N   0  0  0  0  0  0  0  0  0  0  0  0
   41.9360   33.4600   37.4440 C   0  0  0  0  0  0  0  0  0  0  0  0
   41.2090   32.3620   37.2010 N   0  0  0  0  0  0  0  0  0  0  0  0
   39.7950   31.0310   37.7500 H   0  0  0  0  0  0  0  0  0  0  0  0
   40.7100   34.2900   40.4250 H   0  0  0  0  0  0  0  0  0  0  0  0
   42.6750   33.8100   36.7200 H   0  0  0  0  0  0  0  0  0  0  0  0
   37.3040   33.5030   39.5590 C   0  0  0  0  0  2  0  0  0  0  0  0
   36.6980   33.5540   38.6340 H   0  0  0  0  0  0  0  0  0  0  0  0
  1  6  1  0  0  0  0
  2  7  1  6  0  0  0
  2  1  1  0  0  0  0
  2  3  1  0  0  0  0
  3  4  1  0  0  0  0
  3  8  1  0  0  0  0
  4  5  1  0  0  0  0
  4 10  1  0  0  0  0
  5 11  1  0  0  0  0
  6  5  1  0  0  0  0
  6 13  1  0  0  0  0
  6 14  1  0  0  0  0
  9  3  1  0  0  0  0
 12  5  1  0  0  0  0
 15 16  1  0  0  0  0
 16 17  2  0  0  0  0
 16  1  1  0  0  0  0
 17 22  1  0  0  0  0
 18 17  1  0  0  0  0
 19 18  2  0  0  0  0
 20 19  1  0  0  0  0
 20 15  2  0  0  0  0
 21 15  1  0  0  0  0
 23 19  1  0  0  0  0
 24  2  1  0  0  0  0
 25 24  1  0  0  0  0
M  END
>  <minimizedAffinity>
-3.66084814

$$$$

 OpenBabel03252508333D

 25 26  0  0  1  0  0  0  0  0999 V2000
   37.7400   28.6040   41.2450 N   0  0  0  0  0  0  0  0  0  0  0  0
   36.4500   28.0140   41.0340 C   0  0  1  0  0  0  0  0  0  0  0  0
   35.4140   28.9550   40.5330 C   0  0  0  0  0  0  0  0  0  0  0  0
   35.4540   30.2610   41.0280 N   0  0  0  0  0  0  0  0  0  0  0  0
   36.6920   30.7910   41.4190 C   0  0  0  0  0  0  0  0  0  0  0  0
   37.8490   29.9790   40.8610 C   0  0  0  0  0  0  0  0  0  0  0  0
   36.1010   27.5490   41.9710 H   0  0  0  0  0  0  0  0  0  0  0  0
   35.4270   28.9740   39.4190 H   0  0  0  0  0  0  0  0  0  0  0  0
   34.4190   28.5020   40.8120 H   0  0  0  0  0  0  0  0  0  0  0  0
   34.9480   30.9180   40.3940 H   0  0  0  0  0  0  0  0  0  0  0  0
   36.8560   31.8520   41.1270 H   0  0  0  0  0  0  0  0  0  0  0  0
   36.8010   30.7350   42.5280 H   0  0  0  0  0  0  0  0  0  0  0  0
   38.7740   30.4910   41.0970 H   0  0  0  0  0  0  0  0  0  0  0  0
   37.6640   29.9800   39.7430 H   0  0  0  0  0  0  0  0  0  0  0  0
   38.5640   27.3370   43.0830 C   0  0  0  0  0  0  0  0  0  0  0  0
   38.7530   27.7950   41.7840 C   0  0  0  0  0  0  0  0  0  0  0  0
   39.9390   27.4290   41.1270 C   0  0  0  0  0  0  0  0  0  0  0  0
   40.8530   26.6530   41.7650 N   0  0  0  0  0  0  0  0  0  0  0  0
   40.6330   26.2290   43.0280 C   0  0  0  0  0  0  0  0  0  0  0  0
   39.5120   26.5600   43.6800 N   0  0  0  0  0  0  0  0  0  0  0  0
   37.7310   27.5060   43.7470 H   0  0  0  0  0  0  0  0  0  0  0  0
   40.0770   27.7800   40.1370 H   0  0  0  0  0  0  0  0  0  0  0  0
   41.3930   25.6060   43.5070 H   0  0  0  0  0  0  0  0  0  0  0  0
   36.6010   26.9140   39.9930 C   0  0  0  0  0  2  0  0  0  0  0  0
   35.9980   26.0430   40.3170 H   0  0  0  0  0  0  0  0  0  0  0  0
  1 16  1  0  0  0  0
  2  1  1  0  0  0  0
  2  7  1  1  0  0  0
  3  9  1  0  0  0  0
  3  4  1  0  0  0  0
  3  2  1  0  0  0  0
  4  5  1  0  0  0  0
  5 12  1  0  0  0  0
  6 13  1  0  0  0  0
  6  1  1  0  0  0  0
  6  5  1  0  0  0  0
  8  3  1  0  0  0  0
 10  4  1  0  0  0  0
 11  5  1  0  0  0  0
 14  6  1  0  0  0  0
 15 20  1  0  0  0  0
 15 21  1  0  0  0  0
 16 15  2  0  0  0  0
 17 18  2  0  0  0  0
 17 16  1  0  0  0  0
 18 19  1  0  0  0  0
 19 23  1  0  0  0  0
 19 20  2  0  0  0  0
 22 17  1  0  0  0  0
 24 25  1  0  0  0  0
 24  2  1  0  0  0  0
M  END
>  <minimizedAffinity>
-3.64654183

$$$$

 OpenBabel03252508333D

 25 26  0  0  1  0  0  0  0  0999 V2000
   38.5040   30.9900   39.2230 N   0  0  0  0  0  0  0  0  0  0  0  0
   39.8810   31.1390   38.8530 C   0  0  1  0  0  0  0  0  0  0  0  0
   40.1230   32.0960   37.7410 C   0  0  0  0  0  0  0  0  0  0  0  0
   39.1720   32.1300   36.7180 N   0  0  0  0  0  0  0  0  0  0  0  0
   37.8440   31.8020   37.0270 C   0  0  0  0  0  0  0  0  0  0  0  0
   37.5920   31.8450   38.5250 C   0  0  0  0  0  0  0  0  0  0  0  0
   40.2980   30.1530   38.5860 H   0  0  0  0  0  0  0  0  0  0  0  0
   40.2730   33.1210   38.1510 H   0  0  0  0  0  0  0  0  0  0  0  0
   41.1160   31.8070   37.2910 H   0  0  0  0  0  0  0  0  0  0  0  0
   39.2230   33.0280   36.1890 H   0  0  0  0  0  0  0  0  0  0  0  0
   37.0800   32.4470   36.5400 H   0  0  0  0  0  0  0  0  0  0  0  0
   37.6280   30.7500   36.7240 H   0  0  0  0  0  0  0  0  0  0  0  0
   36.5330   31.6940   38.7000 H   0  0  0  0  0  0  0  0  0  0  0  0
   37.9010   32.8950   38.8200 H   0  0  0  0  0  0  0  0  0  0  0  0
   38.5370   28.7280   39.9640 C   0  0  0  0  0  0  0  0  0  0  0  0
   38.1870   30.0510   40.2170 C   0  0  0  0  0  0  0  0  0  0  0  0
   37.5370   30.3350   41.4290 C   0  0  0  0  0  0  0  0  0  0  0  0
   37.2700   29.3320   42.3050 N   0  0  0  0  0  0  0  0  0  0  0  0
   37.6250   28.0600   42.0220 C   0  0  0  0  0  0  0  0  0  0  0  0
   38.2470   27.7570   40.8760 N   0  0  0  0  0  0  0  0  0  0  0  0
   39.0350   28.3120   39.1040 H   0  0  0  0  0  0  0  0  0  0  0  0
   37.2740   31.3440   41.6170 H   0  0  0  0  0  0  0  0  0  0  0  0
   37.3930   27.2810   42.7530 H   0  0  0  0  0  0  0  0  0  0  0  0
   40.6400   31.6550   40.0660 C   0  0  0  0  0  2  0  0  0  0  0  0
   41.6040   31.1130   40.1310 H   0  0  0  0  0  0  0  0  0  0  0  0
  1 16  1  0  0  0  0
  2  7  1  6  0  0  0
  2  1  1  0  0  0  0
  2 24  1  0  0  0  0
  3  8  1  0  0  0  0
  3  2  1  0  0  0  0
  4  5  1  0  0  0  0
  4  3  1  0  0  0  0
  5  6  1  0  0  0  0
  6 13  1  0  0  0  0
  6 14  1  0  0  0  0
  6  1  1  0  0  0  0
  9  3  1  0  0  0  0
 10  4  1  0  0  0  0
 11  5  1  0  0  0  0
 12  5  1  0  0  0  0
 15 16  2  0  0  0  0
 15 20  1  0  0  0  0
 16 17  1  0  0  0  0
 17 22  1  0  0  0  0
 17 18  2  0  0  0  0
 19 18  1  0  0  0  0
 19 23  1  0  0  0  0
 20 19  2  0  0  0  0
 21 15  1  0  0  0  0
 24 25  1  0  0  0  0
M  END
>  <minimizedAffinity>
-3.63589621

$$$$
