REMARK  Name = 
REMARK  9 active torsions:
REMARK  status: ('A' for Active; 'I' for Inactive)
REMARK    1  A    between atoms: O_1  and  C_2
REMARK    2  A    between atoms: O_1  and  P_10
REMARK    3  A    between atoms: C_6  and  C_7
REMARK    4  A    between atoms: C_7  and  O_8
REMARK    5  A    between atoms: P_10  and  O_11
REMARK    6  A    between atoms: P_10  and  O_12
REMARK    7  A    between atoms: O_12  and  C_13
REMARK    8  A    between atoms: C_13  and  C_16
REMARK    9  A    between atoms: C_18  and  C_36
REMARK                            x       y       z     vdW  Elec       q    Type
REMARK                         _______ _______ _______ _____ _____    ______ ____
ROOT
ATOM      1  O   UNL     1      46.575  34.909  43.248  0.00  0.00    +0.000 OA
ENDROOT
BRANCH   1   2
ATOM      2  C   UNL     1      46.804  33.974  42.230  0.00  0.00    +0.000 C 
ATOM      3  C   UNL     1      46.075  34.411  40.956  0.00  0.00    +0.000 C 
ATOM      4  C   UNL     1      46.693  33.478  39.947  0.00  0.00    +0.000 C 
ATOM      5  C   UNL     1      48.068  33.137  40.472  0.00  0.00    +0.000 C 
ATOM      6  C   UNL     1      48.219  33.957  41.745  0.00  0.00    +0.000 C 
ATOM      7  H   UNL     1      46.449  32.972  42.461  0.00  0.00    +0.000 HD
ATOM      8  H   UNL     1      46.165  35.469  40.737  0.00  0.00    +0.000 HD
ATOM      9  H   UNL     1      44.983  34.163  41.035  0.00  0.00    +0.000 HD
ATOM     10  H   UNL     1      46.059  32.564  39.803  0.00  0.00    +0.000 HD
ATOM     11  H   UNL     1      46.804  33.942  38.950  0.00  0.00    +0.000 HD
ATOM     12  H   UNL     1      48.885  33.330  39.767  0.00  0.00    +0.000 HD
ATOM     13  H   UNL     1      48.041  32.050  40.756  0.00  0.00    +0.000 HD
ATOM     14  H   UNL     1      48.830  33.385  42.472  0.00  0.00    +0.000 HD
BRANCH   6  15
ATOM     15  C   UNL     1      48.762  35.330  41.460  0.00  0.00    +0.000 C 
ATOM     16  H   UNL     1      49.351  35.231  40.512  0.00  0.00    +0.000 HD
ATOM     17  H   UNL     1      48.013  36.110  41.323  0.00  0.00    +0.000 HD
BRANCH  15  18
ATOM     18  O   UNL     1      49.653  35.758  42.418  0.00  0.00    +0.000 OA
ATOM     19  H   UNL     1      50.277  34.996  42.614  0.00  0.00    +0.000 HD
ENDBRANCH  15  18
ENDBRANCH   6  15
ENDBRANCH   1   2
BRANCH   1  21
ATOM     20  O   UNL     1      44.728  35.354  44.993  0.00  0.00    +0.000 OA
ATOM     21  P   UNL     1      45.578  34.242  44.412  0.00  0.00    +0.000 P 
BRANCH  21  22
ATOM     22  O   UNL     1      44.605  33.042  43.718  0.00  0.00    +0.000 OA
ATOM     23  H   UNL     1      43.879  33.488  43.194  0.00  0.00    +0.000 HD
ENDBRANCH  21  22
BRANCH  21  24
ATOM     24  O   UNL     1      46.472  33.497  45.606  0.00  0.00    +0.000 OA
BRANCH  24  25
ATOM     25  C   UNL     1      46.232  32.159  45.573  0.00  0.00    +0.000 C 
ATOM     26  H   UNL     1      47.206  31.664  45.287  0.00  0.00    +0.000 HD
ATOM     27  H   UNL     1      45.504  31.782  44.860  0.00  0.00    +0.000 HD
BRANCH  25  30
ATOM     28  C   UNL     1      45.645  31.901  49.237  0.00  0.00    +0.000 A 
ATOM     29  C   UNL     1      45.981  32.455  47.991  0.00  0.00    +0.000 A 
ATOM     30  C   UNL     1      45.885  31.613  46.896  0.00  0.00    +0.000 A 
ATOM     31  N   UNL     1      45.477  30.314  47.076  0.00  0.00    +0.000 NA
ATOM     32  C   UNL     1      45.163  29.814  48.287  0.00  0.00    +0.000 A 
ATOM     33  N   UNL     1      45.247  30.601  49.350  0.00  0.00    +0.000 NA
ATOM     34  H   UNL     1      45.707  32.531  50.133  0.00  0.00    +0.000 HD
ATOM     35  H   UNL     1      46.294  33.494  47.942  0.00  0.00    +0.000 HD
BRANCH  32  36
ATOM     36  C   UNL     1      44.727  28.398  48.421  0.00  0.00    +0.000 C 
ATOM     37  H   UNL     1      44.530  28.144  49.503  0.00  0.00    +0.000 HD
ENDBRANCH  32  36
ENDBRANCH  25  30
ENDBRANCH  24  25
ENDBRANCH  21  24
ENDBRANCH   1  21
TORSDOF 9
