
 OpenBabel03252506283D

 40 43  0  0  0  0  0  0  0  0999 V2000
   45.8260   30.0540   48.4320 C   0  0  0  0  0  0  0  0  0  0  0  0
   45.8090   29.8080   49.5200 H   0  0  0  0  0  0  0  0  0  0  0  0
   45.3100   31.0410   48.3630 H   0  0  0  0  0  0  0  0  0  0  0  0
   45.0000   27.6590   48.0140 C   0  0  0  0  0  0  0  0  0  0  0  0
   45.0750   29.0150   47.7440 C   0  0  0  0  0  0  0  0  0  0  0  0
   44.3300   29.4560   46.6630 C   0  0  0  0  0  0  0  0  0  0  0  0
   43.5680   28.6070   45.9110 C   0  0  0  0  0  0  0  0  0  0  0  0
   42.7650   28.7530   44.8350 N   0  0  0  0  0  0  0  0  0  0  0  0
   42.2300   27.5840   44.4600 C   0  0  0  0  0  0  0  0  0  0  0  0
   42.6890   26.5970   45.3180 C   0  0  0  0  0  0  0  0  0  0  0  0
   43.5050   27.2710   46.1900 C   0  0  0  0  0  0  0  0  0  0  0  0
   44.2370   26.8160   47.2580 C   0  0  0  0  0  0  0  0  0  0  0  0
   45.6060   27.3530   48.8780 H   0  0  0  0  0  0  0  0  0  0  0  0
   44.2980   30.4960   46.3410 H   0  0  0  0  0  0  0  0  0  0  0  0
   42.5920   29.6770   44.3610 H   0  0  0  0  0  0  0  0  0  0  0  0
   41.5520   27.4890   43.6120 H   0  0  0  0  0  0  0  0  0  0  0  0
   42.4140   25.5520   45.2460 H   0  0  0  0  0  0  0  0  0  0  0  0
   44.2110   25.4020   47.6050 C   0  0  0  0  0  0  0  0  0  0  0  0
   44.9040   24.9440   48.5460 O   0  0  0  0  0  0  0  0  0  0  0  0
   43.6240   24.6550   47.1130 H   0  0  0  0  0  0  0  0  0  0  0  0
   47.2450   30.2410   48.0240 C   0  0  0  0  0  0  0  0  0  0  0  0
   47.8170   29.3140   48.0800 H   0  0  0  0  0  0  0  0  0  0  0  0
   47.6900   30.9770   48.7350 H   0  0  0  0  0  0  0  0  0  0  0  0
   47.0630   32.2260   45.0520 C   0  0  0  0  0  0  0  0  0  0  0  0
   47.7100   31.0550   44.5840 C   0  0  0  0  0  0  0  0  0  0  0  0
   47.8500   30.1960   45.6180 C   0  0  0  0  0  0  0  0  0  0  0  0
   47.3140   30.8030   46.6870 N   0  0  0  0  0  0  0  0  0  0  0  0
   46.8470   32.0070   46.3490 N   0  0  0  0  0  0  0  0  0  0  0  0
   48.0350   30.8870   43.5640 H   0  0  0  0  0  0  0  0  0  0  0  0
   48.2960   29.2200   45.6170 H   0  0  0  0  0  0  0  0  0  0  0  0
   45.2180   35.0070   43.5910 C   0  0  0  0  0  0  0  0  0  0  0  0
   46.1060   35.5250   42.6400 C   0  0  0  0  0  0  0  0  0  0  0  0
   47.3450   34.8940   42.5230 C   0  0  0  0  0  0  0  0  0  0  0  0
   47.5940   33.8420   43.3220 N   0  0  0  0  0  0  0  0  0  0  0  0
   46.7500   33.3570   44.2180 C   0  0  0  0  0  0  0  0  0  0  0  0
   45.5490   33.9550   44.3450 N   0  0  0  0  0  0  0  0  0  0  0  0
   44.2400   35.4910   43.6970 H   0  0  0  0  0  0  0  0  0  0  0  0
   45.8830   36.3730   42.0090 H   0  0  0  0  0  0  0  0  0  0  0  0
   48.3680   35.3390   41.5630 C   0  0  0  0  0  0  0  0  0  0  0  0
   47.9970   36.2530   41.0550 H   0  0  0  0  0  0  0  0  0  0  0  0
  1  2  1  0  0  0  0
  3  1  1  0  0  0  0
  4 13  1  0  0  0  0
  5  4  1  0  0  0  0
  5  1  1  0  0  0  0
  6  5  2  0  0  0  0
  7 11  2  0  0  0  0
  7  6  1  0  0  0  0
  8  7  1  0  0  0  0
  9  8  1  0  0  0  0
  9 10  2  0  0  0  0
 10 11  1  0  0  0  0
 11 12  1  0  0  0  0
 12 18  1  0  0  0  0
 12  4  2  0  0  0  0
 14  6  1  0  0  0  0
 15  8  1  0  0  0  0
 16  9  1  0  0  0  0
 17 10  1  0  0  0  0
 18 19  2  0  0  0  0
 20 18  1  0  0  0  0
 21 22  1  0  0  0  0
 21  1  1  0  0  0  0
 21 23  1  0  0  0  0
 24 28  2  0  0  0  0
 25 24  1  0  0  0  0
 25 26  2  0  0  0  0
 26 27  1  0  0  0  0
 27 21  1  0  0  0  0
 28 27  1  0  0  0  0
 29 25  1  0  0  0  0
 30 26  1  0  0  0  0
 31 37  1  0  0  0  0
 31 36  1  0  0  0  0
 32 31  2  0  0  0  0
 33 32  1  0  0  0  0
 33 34  2  0  0  0  0
 34 35  1  0  0  0  0
 35 36  2  0  0  0  0
 35 24  1  0  0  0  0
 38 32  1  0  0  0  0
 39 33  1  0  0  0  0
 40 39  1  0  0  0  0
M  END
>  <minimizedAffinity>
-5.22352457

>  <minimizedRMSD>
0.831656635

$$$$
