
 OpenBabel03252507533D

 31 33  0  0  1  0  0  0  0  0999 V2000
   36.8480   29.8090   41.8080 C   0  0  2  0  0  0  0  0  0  0  0  0
   38.1790   29.5760   42.4810 C   0  0  0  0  0  0  0  0  0  0  0  0
   37.6980   28.5900   43.5660 C   0  0  0  0  0  0  0  0  0  0  0  0
   36.6290   27.7730   42.9030 C   0  0  1  0  0  0  0  0  0  0  0  0
   36.4420   28.3650   41.5410 C   0  0  0  0  0  0  0  0  0  0  0  0
   36.1820   30.2990   42.5200 H   0  0  0  0  0  0  0  0  0  0  0  0
   38.8670   29.0240   41.8050 H   0  0  0  0  0  0  0  0  0  0  0  0
   38.6180   30.4680   42.9380 H   0  0  0  0  0  0  0  0  0  0  0  0
   38.5320   28.0100   43.9650 H   0  0  0  0  0  0  0  0  0  0  0  0
   37.2100   29.2470   44.3210 H   0  0  0  0  0  0  0  0  0  0  0  0
   35.6660   27.8380   43.4320 H   0  0  0  0  0  0  0  0  0  0  0  0
   37.2350   28.1280   40.8030 H   0  0  0  0  0  0  0  0  0  0  0  0
   35.4180   28.2740   41.1380 H   0  0  0  0  0  0  0  0  0  0  0  0
   37.0610   30.7600   38.1620 C   0  0  0  0  0  0  0  0  0  0  0  0
   36.9130   29.9460   39.2930 C   0  0  0  0  0  0  0  0  0  0  0  0
   36.9730   30.5760   40.5400 C   0  0  0  0  0  0  0  0  0  0  0  0
   37.1720   31.9420   40.6170 N   0  0  0  0  0  0  0  0  0  0  0  0
   37.3090   32.6760   39.4860 C   0  0  0  0  0  0  0  0  0  0  0  0
   37.2540   32.0940   38.2740 N   0  0  0  0  0  0  0  0  0  0  0  0
   37.0110   30.2570   37.1850 H   0  0  0  0  0  0  0  0  0  0  0  0
   36.7570   28.8780   39.2300 H   0  0  0  0  0  0  0  0  0  0  0  0
   37.4620   33.7430   39.5940 H   0  0  0  0  0  0  0  0  0  0  0  0
   36.9850   26.3320   42.6960 C   0  0  2  0  0  0  0  0  0  0  0  0
   38.3320   26.0010   42.3010 C   0  0  0  0  0  0  0  0  0  0  0  0
   37.1380   25.7050   41.3990 C   0  0  1  0  0  0  0  0  0  0  0  0
   36.5100   25.7000   43.4730 H   0  0  0  0  0  0  0  0  0  0  0  0
   38.7880   25.0760   42.7790 H   0  0  0  0  0  0  0  0  0  0  0  0
   39.0820   26.4500   41.6770 H   0  0  0  0  0  0  0  0  0  0  0  0
   36.9020   26.3010   40.5230 H   0  0  0  0  0  0  0  0  0  0  0  0
   36.7570   24.2370   41.2330 C   0  0  0  0  0  2  0  0  0  0  0  0
   36.1660   23.8750   42.1050 H   0  0  0  0  0  0  0  0  0  0  0  0
  1  2  1  0  0  0  0
  1  6  1  1  0  0  0
  2  8  1  0  0  0  0
  2  3  1  0  0  0  0
  3  9  1  0  0  0  0
  3 10  1  0  0  0  0
  4 11  1  1  0  0  0
  4  3  1  0  0  0  0
  5  1  1  0  0  0  0
  5  4  1  0  0  0  0
  7  2  1  0  0  0  0
 12  5  1  0  0  0  0
 13  5  1  0  0  0  0
 14 19  2  0  0  0  0
 14 15  1  0  0  0  0
 15 16  2  0  0  0  0
 16 17  1  0  0  0  0
 16  1  1  0  0  0  0
 18 22  1  0  0  0  0
 18 17  2  0  0  0  0
 19 18  1  0  0  0  0
 20 14  1  0  0  0  0
 21 15  1  0  0  0  0
 23  4  1  0  0  0  0
 23 26  1  1  0  0  0
 24 23  1  0  0  0  0
 24 27  1  0  0  0  0
 25 29  1  6  0  0  0
 25 24  1  0  0  0  0
 25 23  1  0  0  0  0
 28 24  1  0  0  0  0
 30 25  1  0  0  0  0
 30 31  1  0  0  0  0
M  END
>  <minimizedAffinity>
-5.09302235

$$$$

 OpenBabel03252507533D

 31 33  0  0  1  0  0  0  0  0999 V2000
   37.6630   29.1640   42.6860 C   0  0  2  0  0  0  0  0  0  0  0  0
   38.9630   28.4010   42.7810 C   0  0  0  0  0  0  0  0  0  0  0  0
   38.4440   27.2000   43.5980 C   0  0  0  0  0  0  0  0  0  0  0  0
   37.0490   26.9630   43.0990 C   0  0  1  0  0  0  0  0  0  0  0  0
   36.7650   28.0660   42.1290 C   0  0  0  0  0  0  0  0  0  0  0  0
   37.3670   29.4680   43.6910 H   0  0  0  0  0  0  0  0  0  0  0  0
   39.2670   28.0220   41.7820 H   0  0  0  0  0  0  0  0  0  0  0  0
   39.7560   28.9230   43.3240 H   0  0  0  0  0  0  0  0  0  0  0  0
   39.1130   26.3420   43.5020 H   0  0  0  0  0  0  0  0  0  0  0  0
   38.3750   27.5970   44.6360 H   0  0  0  0  0  0  0  0  0  0  0  0
   36.3020   27.0240   43.9040 H   0  0  0  0  0  0  0  0  0  0  0  0
   37.2540   27.9700   41.1380 H   0  0  0  0  0  0  0  0  0  0  0  0
   35.7040   28.3670   42.0740 H   0  0  0  0  0  0  0  0  0  0  0  0
   36.8430   31.7970   40.1090 C   0  0  0  0  0  0  0  0  0  0  0  0
   36.6530   30.7060   40.9680 C   0  0  0  0  0  0  0  0  0  0  0  0
   37.7440   30.3190   41.7530 C   0  0  0  0  0  0  0  0  0  0  0  0
   38.9410   31.0040   41.6600 N   0  0  0  0  0  0  0  0  0  0  0  0
   39.0630   32.0510   40.8090 C   0  0  0  0  0  0  0  0  0  0  0  0
   38.0280   32.4430   40.0440 N   0  0  0  0  0  0  0  0  0  0  0  0
   35.9790   32.0940   39.4960 H   0  0  0  0  0  0  0  0  0  0  0  0
   35.7150   30.1720   41.0390 H   0  0  0  0  0  0  0  0  0  0  0  0
   40.0200   32.5590   40.7690 H   0  0  0  0  0  0  0  0  0  0  0  0
   36.8660   25.6780   42.3490 C   0  0  2  0  0  0  0  0  0  0  0  0
   38.0060   24.8140   42.1670 C   0  0  0  0  0  0  0  0  0  0  0  0
   37.2940   25.4600   40.9820 C   0  0  1  0  0  0  0  0  0  0  0  0
   35.9030   25.2030   42.6230 H   0  0  0  0  0  0  0  0  0  0  0  0
   37.8160   23.6970   42.2630 H   0  0  0  0  0  0  0  0  0  0  0  0
   39.0580   24.9540   42.0040 H   0  0  0  0  0  0  0  0  0  0  0  0
   37.7040   26.3100   40.4440 H   0  0  0  0  0  0  0  0  0  0  0  0
   36.4810   24.5320   40.0860 C   0  0  0  0  0  2  0  0  0  0  0  0
   35.4870   24.3070   40.5380 H   0  0  0  0  0  0  0  0  0  0  0  0
  1  2  1  0  0  0  0
  1  6  1  1  0  0  0
  2  8  1  0  0  0  0
  2  3  1  0  0  0  0
  3 10  1  0  0  0  0
  4  3  1  0  0  0  0
  4 11  1  1  0  0  0
  5  1  1  0  0  0  0
  5  4  1  0  0  0  0
  7  2  1  0  0  0  0
  9  3  1  0  0  0  0
 12  5  1  0  0  0  0
 13  5  1  0  0  0  0
 14 15  1  0  0  0  0
 15 21  1  0  0  0  0
 15 16  2  0  0  0  0
 16  1  1  0  0  0  0
 17 16  1  0  0  0  0
 18 17  2  0  0  0  0
 19 14  2  0  0  0  0
 19 18  1  0  0  0  0
 20 14  1  0  0  0  0
 22 18  1  0  0  0  0
 23 26  1  1  0  0  0
 23  4  1  0  0  0  0
 24 27  1  0  0  0  0
 24 23  1  0  0  0  0
 25 29  1  6  0  0  0
 25 24  1  0  0  0  0
 25 23  1  0  0  0  0
 28 24  1  0  0  0  0
 30 31  1  0  0  0  0
 30 25  1  0  0  0  0
M  END
>  <minimizedAffinity>
-4.9084487

$$$$

 OpenBabel03252507533D

 31 33  0  0  1  0  0  0  0  0999 V2000
   37.0750   29.4950   42.0100 C   0  0  2  0  0  0  0  0  0  0  0  0
   37.8510   28.9650   43.1920 C   0  0  0  0  0  0  0  0  0  0  0  0
   37.0590   27.6560   43.3950 C   0  0  0  0  0  0  0  0  0  0  0  0
   36.6930   27.2040   42.0120 C   0  0  1  0  0  0  0  0  0  0  0  0
   37.1600   28.2850   41.0870 C   0  0  0  0  0  0  0  0  0  0  0  0
   36.0530   29.6970   42.3310 H   0  0  0  0  0  0  0  0  0  0  0  0
   38.8850   28.6900   42.8890 H   0  0  0  0  0  0  0  0  0  0  0  0
   37.7970   29.5910   44.0870 H   0  0  0  0  0  0  0  0  0  0  0  0
   37.6400   26.9330   43.9700 H   0  0  0  0  0  0  0  0  0  0  0  0
   36.1280   27.9880   43.9060 H   0  0  0  0  0  0  0  0  0  0  0  0
   35.6050   27.0990   41.8820 H   0  0  0  0  0  0  0  0  0  0  0  0
   38.2530   28.3200   40.9050 H   0  0  0  0  0  0  0  0  0  0  0  0
   36.5520   28.4000   40.1730 H   0  0  0  0  0  0  0  0  0  0  0  0
   39.5710   32.1250   40.9610 C   0  0  0  0  0  0  0  0  0  0  0  0
   39.0740   30.9660   41.5720 C   0  0  0  0  0  0  0  0  0  0  0  0
   37.7150   30.6870   41.3930 C   0  0  0  0  0  0  0  0  0  0  0  0
   36.9270   31.5390   40.6410 N   0  0  0  0  0  0  0  0  0  0  0  0
   37.4670   32.6460   40.0760 C   0  0  0  0  0  0  0  0  0  0  0  0
   38.7710   32.9360   40.2330 N   0  0  0  0  0  0  0  0  0  0  0  0
   40.6410   32.3360   41.1070 H   0  0  0  0  0  0  0  0  0  0  0  0
   39.6930   30.3020   42.1600 H   0  0  0  0  0  0  0  0  0  0  0  0
   36.8110   33.2850   39.4940 H   0  0  0  0  0  0  0  0  0  0  0  0
   37.3700   25.9430   41.5680 C   0  0  2  0  0  0  0  0  0  0  0  0
   36.9300   24.6890   42.1280 C   0  0  0  0  0  0  0  0  0  0  0  0
   38.3430   25.2160   42.3580 C   0  0  1  0  0  0  0  0  0  0  0  0
   37.5730   25.9740   40.4800 H   0  0  0  0  0  0  0  0  0  0  0  0
   36.8800   23.8040   41.4150 H   0  0  0  0  0  0  0  0  0  0  0  0
   36.5690   24.3580   43.0840 H   0  0  0  0  0  0  0  0  0  0  0  0
   38.6580   25.6590   43.2980 H   0  0  0  0  0  0  0  0  0  0  0  0
   39.4710   24.4740   41.6490 C   0  0  0  0  0  2  0  0  0  0  0  0
   39.5470   24.7850   40.5820 H   0  0  0  0  0  0  0  0  0  0  0  0
  1  6  1  1  0  0  0
  1  2  1  0  0  0  0
  2  3  1  0  0  0  0
  2  8  1  0  0  0  0
  3 10  1  0  0  0  0
  3  9  1  0  0  0  0
  4 11  1  6  0  0  0
  4  3  1  0  0  0  0
  5  1  1  0  0  0  0
  5  4  1  0  0  0  0
  7  2  1  0  0  0  0
 12  5  1  0  0  0  0
 13  5  1  0  0  0  0
 14 20  1  0  0  0  0
 14 15  1  0  0  0  0
 15 21  1  0  0  0  0
 16 15  2  0  0  0  0
 16  1  1  0  0  0  0
 17 16  1  0  0  0  0
 18 19  1  0  0  0  0
 18 17  2  0  0  0  0
 19 14  2  0  0  0  0
 22 18  1  0  0  0  0
 23 26  1  6  0  0  0
 23  4  1  0  0  0  0
 23 24  1  0  0  0  0
 23 25  1  0  0  0  0
 24 25  1  0  0  0  0
 24 28  1  0  0  0  0
 25 29  1  1  0  0  0
 27 24  1  0  0  0  0
 30 25  1  0  0  0  0
 31 30  1  0  0  0  0
M  END
>  <minimizedAffinity>
-4.80792952

$$$$

 OpenBabel03252507533D

 31 33  0  0  1  0  0  0  0  0999 V2000
   37.2750   30.4700   40.1380 C   0  0  2  0  0  0  0  0  0  0  0  0
   36.0970   30.3930   41.0800 C   0  0  0  0  0  0  0  0  0  0  0  0
   35.7700   28.8970   40.8870 C   0  0  0  0  0  0  0  0  0  0  0  0
   37.1000   28.2260   40.7130 C   0  0  1  0  0  0  0  0  0  0  0  0
   38.1170   29.3250   40.6900 C   0  0  0  0  0  0  0  0  0  0  0  0
   36.9210   30.2700   39.1260 H   0  0  0  0  0  0  0  0  0  0  0  0
   36.4290   30.5320   42.1320 H   0  0  0  0  0  0  0  0  0  0  0  0
   35.2450   31.0150   40.7910 H   0  0  0  0  0  0  0  0  0  0  0  0
   35.1740   28.5170   41.7200 H   0  0  0  0  0  0  0  0  0  0  0  0
   35.2390   28.8680   39.9090 H   0  0  0  0  0  0  0  0  0  0  0  0
   37.1720   27.6830   39.7590 H   0  0  0  0  0  0  0  0  0  0  0  0
   38.3510   29.7810   41.6730 H   0  0  0  0  0  0  0  0  0  0  0  0
   39.0080   29.1120   40.0740 H   0  0  0  0  0  0  0  0  0  0  0  0
   38.1910   34.1260   39.9410 C   0  0  0  0  0  0  0  0  0  0  0  0
   37.4120   32.9660   39.8250 C   0  0  0  0  0  0  0  0  0  0  0  0
   38.0000   31.7640   40.2320 C   0  0  0  0  0  0  0  0  0  0  0  0
   39.2930   31.7570   40.7220 N   0  0  0  0  0  0  0  0  0  0  0  0
   39.9960   32.9120   40.8090 C   0  0  0  0  0  0  0  0  0  0  0  0
   39.4530   34.0820   40.4240 N   0  0  0  0  0  0  0  0  0  0  0  0
   37.7200   35.0670   39.6190 H   0  0  0  0  0  0  0  0  0  0  0  0
   36.4010   32.9750   39.4430 H   0  0  0  0  0  0  0  0  0  0  0  0
   41.0060   32.8590   41.1980 H   0  0  0  0  0  0  0  0  0  0  0  0
   37.4880   27.3110   41.8350 C   0  0  2  0  0  0  0  0  0  0  0  0
   36.7410   27.3710   43.0670 C   0  0  0  0  0  0  0  0  0  0  0  0
   38.2230   27.7260   43.0120 C   0  0  1  0  0  0  0  0  0  0  0  0
   37.7500   26.3080   41.4440 H   0  0  0  0  0  0  0  0  0  0  0  0
   36.5240   26.3780   43.5770 H   0  0  0  0  0  0  0  0  0  0  0  0
   36.2620   28.1430   43.6390 H   0  0  0  0  0  0  0  0  0  0  0  0
   38.5820   28.7500   43.0440 H   0  0  0  0  0  0  0  0  0  0  0  0
   39.1840   26.7440   43.6740 C   0  0  0  0  0  2  0  0  0  0  0  0
   39.3870   25.8720   43.0100 H   0  0  0  0  0  0  0  0  0  0  0  0
  1  6  1  6  0  0  0
  1 16  1  0  0  0  0
  1  5  1  0  0  0  0
  1  2  1  0  0  0  0
  2  7  1  0  0  0  0
  3  2  1  0  0  0  0
  3  9  1  0  0  0  0
  4 11  1  6  0  0  0
  4  3  1  0  0  0  0
  4 23  1  0  0  0  0
  5  4  1  0  0  0  0
  5 12  1  0  0  0  0
  8  2  1  0  0  0  0
 10  3  1  0  0  0  0
 13  5  1  0  0  0  0
 14 19  1  0  0  0  0
 15 14  2  0  0  0  0
 15 16  1  0  0  0  0
 16 17  2  0  0  0  0
 17 18  1  0  0  0  0
 18 22  1  0  0  0  0
 19 18  2  0  0  0  0
 20 14  1  0  0  0  0
 21 15  1  0  0  0  0
 23 26  1  6  0  0  0
 23 25  1  0  0  0  0
 23 24  1  0  0  0  0
 24 27  1  0  0  0  0
 24 28  1  0  0  0  0
 25 29  1  1  0  0  0
 25 24  1  0  0  0  0
 25 30  1  0  0  0  0
 31 30  1  0  0  0  0
M  END
>  <minimizedAffinity>
-4.79024458

$$$$

 OpenBabel03252507533D

 31 33  0  0  1  0  0  0  0  0999 V2000
   36.5620   27.9750   41.6890 C   0  0  2  0  0  0  0  0  0  0  0  0
   36.2580   27.6110   40.2550 C   0  0  0  0  0  0  0  0  0  0  0  0
   35.3450   28.8090   39.9220 C   0  0  0  0  0  0  0  0  0  0  0  0
   35.9300   29.9670   40.6750 C   0  0  1  0  0  0  0  0  0  0  0  0
   37.0530   29.4040   41.4900 C   0  0  0  0  0  0  0  0  0  0  0  0
   35.6330   27.9350   42.2590 H   0  0  0  0  0  0  0  0  0  0  0  0
   37.1720   27.6990   39.6280 H   0  0  0  0  0  0  0  0  0  0  0  0
   35.7180   26.6680   40.1320 H   0  0  0  0  0  0  0  0  0  0  0  0
   35.2740   28.9590   38.8430 H   0  0  0  0  0  0  0  0  0  0  0  0
   34.3750   28.5420   40.4000 H   0  0  0  0  0  0  0  0  0  0  0  0
   35.2070   30.4210   41.3700 H   0  0  0  0  0  0  0  0  0  0  0  0
   37.9770   29.1610   40.9270 H   0  0  0  0  0  0  0  0  0  0  0  0
   37.2370   29.9320   42.4420 H   0  0  0  0  0  0  0  0  0  0  0  0
   39.5230   26.7450   43.6800 C   0  0  0  0  0  0  0  0  0  0  0  0
   38.5540   27.6330   43.1930 C   0  0  0  0  0  0  0  0  0  0  0  0
   37.6220   27.1210   42.2850 C   0  0  0  0  0  0  0  0  0  0  0  0
   37.6840   25.7920   41.9060 N   0  0  0  0  0  0  0  0  0  0  0  0
   38.6450   24.9830   42.4110 C   0  0  0  0  0  0  0  0  0  0  0  0
   39.5530   25.4510   43.2870 N   0  0  0  0  0  0  0  0  0  0  0  0
   40.2510   27.1560   44.3940 H   0  0  0  0  0  0  0  0  0  0  0  0
   38.5090   28.6720   43.4920 H   0  0  0  0  0  0  0  0  0  0  0  0
   38.6550   23.9480   42.0860 H   0  0  0  0  0  0  0  0  0  0  0  0
   36.5250   31.0370   39.8100 C   0  0  2  0  0  0  0  0  0  0  0  0
   37.9220   30.9470   39.4610 C   0  0  0  0  0  0  0  0  0  0  0  0
   37.3780   32.1010   40.2970 C   0  0  1  0  0  0  0  0  0  0  0  0
   35.8160   31.3280   39.0110 H   0  0  0  0  0  0  0  0  0  0  0  0
   38.1980   31.2390   38.3980 H   0  0  0  0  0  0  0  0  0  0  0  0
   38.8160   30.6100   39.9500 H   0  0  0  0  0  0  0  0  0  0  0  0
   37.5310   32.1710   41.3700 H   0  0  0  0  0  0  0  0  0  0  0  0
   37.3240   33.4670   39.6190 C   0  0  0  0  0  2  0  0  0  0  0  0
   36.4320   33.5500   38.9560 H   0  0  0  0  0  0  0  0  0  0  0  0
  1  6  1  1  0  0  0
  1 16  1  0  0  0  0
  2  1  1  0  0  0  0
  3  2  1  0  0  0  0
  3 10  1  0  0  0  0
  3  4  1  0  0  0  0
  4 11  1  1  0  0  0
  4  5  1  0  0  0  0
  5  1  1  0  0  0  0
  5 13  1  0  0  0  0
  7  2  1  0  0  0  0
  8  2  1  0  0  0  0
  9  3  1  0  0  0  0
 12  5  1  0  0  0  0
 14 20  1  0  0  0  0
 15 21  1  0  0  0  0
 15 14  2  0  0  0  0
 16 15  1  0  0  0  0
 17 16  2  0  0  0  0
 17 18  1  0  0  0  0
 18 19  2  0  0  0  0
 19 14  1  0  0  0  0
 22 18  1  0  0  0  0
 23 26  1  6  0  0  0
 23 25  1  0  0  0  0
 23  4  1  0  0  0  0
 24 23  1  0  0  0  0
 24 28  1  0  0  0  0
 24 25  1  0  0  0  0
 25 29  1  1  0  0  0
 27 24  1  0  0  0  0
 30 25  1  0  0  0  0
 31 30  1  0  0  0  0
M  END
>  <minimizedAffinity>
-4.78345156

$$$$

 OpenBabel03252507533D

 31 33  0  0  1  0  0  0  0  0999 V2000
   35.4620   29.6100   39.1650 C   0  0  2  0  0  0  0  0  0  0  0  0
   36.5700   30.4990   39.6780 C   0  0  0  0  0  0  0  0  0  0  0  0
   36.3480   30.2640   41.1870 C   0  0  0  0  0  0  0  0  0  0  0  0
   35.9330   28.8260   41.3000 C   0  0  1  0  0  0  0  0  0  0  0  0
   35.8130   28.3190   39.8970 C   0  0  0  0  0  0  0  0  0  0  0  0
   34.5080   30.0220   39.4940 H   0  0  0  0  0  0  0  0  0  0  0  0
   37.5630   30.0770   39.4140 H   0  0  0  0  0  0  0  0  0  0  0  0
   36.4510   31.5580   39.4310 H   0  0  0  0  0  0  0  0  0  0  0  0
   37.2400   30.5260   41.7590 H   0  0  0  0  0  0  0  0  0  0  0  0
   35.4640   30.8970   41.4250 H   0  0  0  0  0  0  0  0  0  0  0  0
   34.9510   28.7130   41.7830 H   0  0  0  0  0  0  0  0  0  0  0  0
   36.7720   28.1170   39.3780 H   0  0  0  0  0  0  0  0  0  0  0  0
   35.0560   27.5280   39.7590 H   0  0  0  0  0  0  0  0  0  0  0  0
   36.5930   29.5420   35.5650 C   0  0  0  0  0  0  0  0  0  0  0  0
   36.6570   29.7400   36.9510 C   0  0  0  0  0  0  0  0  0  0  0  0
   35.5140   29.4230   37.6910 C   0  0  0  0  0  0  0  0  0  0  0  0
   34.3880   28.9380   37.0520 N   0  0  0  0  0  0  0  0  0  0  0  0
   34.3870   28.7690   35.7080 C   0  0  0  0  0  0  0  0  0  0  0  0
   35.4740   29.0660   34.9730 N   0  0  0  0  0  0  0  0  0  0  0  0
   37.4970   29.7930   34.9910 H   0  0  0  0  0  0  0  0  0  0  0  0
   37.5400   30.1180   37.4490 H   0  0  0  0  0  0  0  0  0  0  0  0
   33.4820   28.3860   35.2490 H   0  0  0  0  0  0  0  0  0  0  0  0
   36.9290   27.9430   41.9890 C   0  0  2  0  0  0  0  0  0  0  0  0
   36.5770   27.3630   43.2610 C   0  0  0  0  0  0  0  0  0  0  0  0
   37.7340   28.3470   43.1240 C   0  0  1  0  0  0  0  0  0  0  0  0
   37.4420   27.2920   41.2540 H   0  0  0  0  0  0  0  0  0  0  0  0
   36.9050   26.2880   43.4370 H   0  0  0  0  0  0  0  0  0  0  0  0
   36.0100   27.6760   44.1180 H   0  0  0  0  0  0  0  0  0  0  0  0
   37.6650   29.3820   43.4440 H   0  0  0  0  0  0  0  0  0  0  0  0
   39.1380   27.7740   43.2820 C   0  0  0  0  0  2  0  0  0  0  0  0
   39.4760   27.2740   42.3440 H   0  0  0  0  0  0  0  0  0  0  0  0
  1  6  1  1  0  0  0
  1  2  1  0  0  0  0
  1  5  1  0  0  0  0
  2  3  1  0  0  0  0
  3  4  1  0  0  0  0
  3 10  1  0  0  0  0
  3  9  1  0  0  0  0
  4 11  1  1  0  0  0
  4 23  1  0  0  0  0
  5  4  1  0  0  0  0
  7  2  1  0  0  0  0
  8  2  1  0  0  0  0
 12  5  1  0  0  0  0
 13  5  1  0  0  0  0
 14 15  1  0  0  0  0
 15 21  1  0  0  0  0
 15 16  2  0  0  0  0
 16  1  1  0  0  0  0
 17 16  1  0  0  0  0
 18 17  2  0  0  0  0
 19 14  2  0  0  0  0
 19 18  1  0  0  0  0
 20 14  1  0  0  0  0
 22 18  1  0  0  0  0
 23 26  1  6  0  0  0
 23 25  1  0  0  0  0
 23 24  1  0  0  0  0
 24 27  1  0  0  0  0
 24 28  1  0  0  0  0
 25 24  1  0  0  0  0
 25 30  1  0  0  0  0
 25 29  1  1  0  0  0
 31 30  1  0  0  0  0
M  END
>  <minimizedAffinity>
-4.54109573

$$$$

 OpenBabel03252507533D

 31 33  0  0  1  0  0  0  0  0999 V2000
   36.4540   28.0410   41.4250 C   0  0  2  0  0  0  0  0  0  0  0  0
   36.4130   28.1270   39.9180 C   0  0  0  0  0  0  0  0  0  0  0  0
   35.5580   29.4070   39.8020 C   0  0  0  0  0  0  0  0  0  0  0  0
   35.9880   30.2670   40.9540 C   0  0  1  0  0  0  0  0  0  0  0  0
   36.9560   29.4450   41.7460 C   0  0  0  0  0  0  0  0  0  0  0  0
   35.4400   27.8740   41.7890 H   0  0  0  0  0  0  0  0  0  0  0  0
   37.4220   28.3580   39.5120 H   0  0  0  0  0  0  0  0  0  0  0  0
   35.9150   27.2850   39.4300 H   0  0  0  0  0  0  0  0  0  0  0  0
   35.6770   29.8690   38.8210 H   0  0  0  0  0  0  0  0  0  0  0  0
   34.5230   29.0510   40.0060 H   0  0  0  0  0  0  0  0  0  0  0  0
   35.1480   30.5260   41.6160 H   0  0  0  0  0  0  0  0  0  0  0  0
   37.9670   29.3390   41.3040 H   0  0  0  0  0  0  0  0  0  0  0  0
   36.9620   29.6610   42.8280 H   0  0  0  0  0  0  0  0  0  0  0  0
   38.1360   24.7530   42.2010 C   0  0  0  0  0  0  0  0  0  0  0  0
   37.1880   25.6450   41.6810 C   0  0  0  0  0  0  0  0  0  0  0  0
   37.4030   27.0070   41.9140 C   0  0  0  0  0  0  0  0  0  0  0  0
   38.5120   27.4200   42.6290 N   0  0  0  0  0  0  0  0  0  0  0  0
   39.3930   26.5090   43.1080 C   0  0  0  0  0  0  0  0  0  0  0  0
   39.2090   25.1930   42.8970 N   0  0  0  0  0  0  0  0  0  0  0  0
   37.9590   23.6840   42.0130 H   0  0  0  0  0  0  0  0  0  0  0  0
   36.3220   25.3180   41.1210 H   0  0  0  0  0  0  0  0  0  0  0  0
   40.2480   26.8780   43.6630 H   0  0  0  0  0  0  0  0  0  0  0  0
   36.7130   31.5180   40.5610 C   0  0  2  0  0  0  0  0  0  0  0  0
   37.0930   31.6930   39.1800 C   0  0  0  0  0  0  0  0  0  0  0  0
   38.1350   31.5890   40.2900 C   0  0  1  0  0  0  0  0  0  0  0  0
   36.2900   32.3950   41.0890 H   0  0  0  0  0  0  0  0  0  0  0  0
   36.9810   32.7410   38.7520 H   0  0  0  0  0  0  0  0  0  0  0  0
   37.4260   31.0500   38.3880 H   0  0  0  0  0  0  0  0  0  0  0  0
   38.7230   30.6910   40.4600 H   0  0  0  0  0  0  0  0  0  0  0  0
   38.8950   32.8650   40.6330 C   0  0  0  0  0  2  0  0  0  0  0  0
   38.2880   33.5290   41.2900 H   0  0  0  0  0  0  0  0  0  0  0  0
  1  5  1  0  0  0  0
  1  6  1  1  0  0  0
  1 16  1  0  0  0  0
  2  1  1  0  0  0  0
  3  2  1  0  0  0  0
  3 10  1  0  0  0  0
  3  4  1  0  0  0  0
  4 11  1  1  0  0  0
  4  5  1  0  0  0  0
  5 13  1  0  0  0  0
  7  2  1  0  0  0  0
  8  2  1  0  0  0  0
  9  3  1  0  0  0  0
 12  5  1  0  0  0  0
 14 19  1  0  0  0  0
 15 16  1  0  0  0  0
 15 14  2  0  0  0  0
 16 17  2  0  0  0  0
 17 18  1  0  0  0  0
 18 22  1  0  0  0  0
 19 18  2  0  0  0  0
 20 14  1  0  0  0  0
 21 15  1  0  0  0  0
 23  4  1  0  0  0  0
 23 26  1  1  0  0  0
 24 25  1  0  0  0  0
 24 23  1  0  0  0  0
 25 29  1  1  0  0  0
 25 23  1  0  0  0  0
 25 30  1  0  0  0  0
 27 24  1  0  0  0  0
 28 24  1  0  0  0  0
 30 31  1  0  0  0  0
M  END
>  <minimizedAffinity>
-4.50629663

$$$$

 OpenBabel03252507533D

 31 33  0  0  1  0  0  0  0  0999 V2000
   38.4880   31.6270   39.2130 C   0  0  2  0  0  0  0  0  0  0  0  0
   37.4220   32.4240   39.9280 C   0  0  0  0  0  0  0  0  0  0  0  0
   36.4850   31.2510   40.2840 C   0  0  0  0  0  0  0  0  0  0  0  0
   37.3990   30.0980   40.5810 C   0  0  1  0  0  0  0  0  0  0  0  0
   38.7830   30.5820   40.2820 C   0  0  0  0  0  0  0  0  0  0  0  0
   38.0480   31.1870   38.3180 H   0  0  0  0  0  0  0  0  0  0  0  0
   37.8180   32.8400   40.8800 H   0  0  0  0  0  0  0  0  0  0  0  0
   36.9040   33.1540   39.2990 H   0  0  0  0  0  0  0  0  0  0  0  0
   35.8140   31.5200   41.1010 H   0  0  0  0  0  0  0  0  0  0  0  0
   35.9580   31.0350   39.3270 H   0  0  0  0  0  0  0  0  0  0  0  0
   37.2000   29.2310   39.9320 H   0  0  0  0  0  0  0  0  0  0  0  0
   39.2230   31.2670   41.0350 H   0  0  0  0  0  0  0  0  0  0  0  0
   39.4780   29.7970   39.9350 H   0  0  0  0  0  0  0  0  0  0  0  0
   41.2910   34.1500   39.3740 C   0  0  0  0  0  0  0  0  0  0  0  0
   40.1520   33.4350   39.7700 C   0  0  0  0  0  0  0  0  0  0  0  0
   39.6960   32.4360   38.9040 C   0  0  0  0  0  0  0  0  0  0  0  0
   40.3630   32.1920   37.7170 N   0  0  0  0  0  0  0  0  0  0  0  0
   41.4580   32.9190   37.3890 C   0  0  0  0  0  0  0  0  0  0  0  0
   41.9170   33.8850   38.2050 N   0  0  0  0  0  0  0  0  0  0  0  0
   41.6430   34.9330   40.0610 H   0  0  0  0  0  0  0  0  0  0  0  0
   39.6340   33.6280   40.7000 H   0  0  0  0  0  0  0  0  0  0  0  0
   41.9480   32.6930   36.4480 H   0  0  0  0  0  0  0  0  0  0  0  0
   37.4000   29.6570   42.0130 C   0  0  2  0  0  0  0  0  0  0  0  0
   38.6580   29.5940   42.7160 C   0  0  0  0  0  0  0  0  0  0  0  0
   37.8180   28.3450   42.4640 C   0  0  1  0  0  0  0  0  0  0  0  0
   36.5340   30.0880   42.5520 H   0  0  0  0  0  0  0  0  0  0  0  0
   38.6520   29.9420   43.7990 H   0  0  0  0  0  0  0  0  0  0  0  0
   39.6690   29.3390   42.4610 H   0  0  0  0  0  0  0  0  0  0  0  0
   38.0720   27.6110   41.7050 H   0  0  0  0  0  0  0  0  0  0  0  0
   37.1380   27.7250   43.6800 C   0  0  0  0  0  2  0  0  0  0  0  0
   36.2060   28.2770   43.9430 H   0  0  0  0  0  0  0  0  0  0  0  0
  1  6  1  6  0  0  0
  1  2  1  0  0  0  0
  1  5  1  0  0  0  0
  2  3  1  0  0  0  0
  2  7  1  0  0  0  0
  3  4  1  0  0  0  0
  3  9  1  0  0  0  0
  4 11  1  6  0  0  0
  4 23  1  0  0  0  0
  5  4  1  0  0  0  0
  5 12  1  0  0  0  0
  8  2  1  0  0  0  0
 10  3  1  0  0  0  0
 13  5  1  0  0  0  0
 14 15  1  0  0  0  0
 14 20  1  0  0  0  0
 15 21  1  0  0  0  0
 16  1  1  0  0  0  0
 16 15  2  0  0  0  0
 17 16  1  0  0  0  0
 18 17  2  0  0  0  0
 18 19  1  0  0  0  0
 19 14  2  0  0  0  0
 22 18  1  0  0  0  0
 23 25  1  0  0  0  0
 23 26  1  1  0  0  0
 23 24  1  0  0  0  0
 24 27  1  0  0  0  0
 25 29  1  6  0  0  0
 25 24  1  0  0  0  0
 25 30  1  0  0  0  0
 28 24  1  0  0  0  0
 30 31  1  0  0  0  0
M  END
>  <minimizedAffinity>
-4.41755962

$$$$

 OpenBabel03252507533D

 31 33  0  0  1  0  0  0  0  0999 V2000
   37.9930   25.7940   42.6350 C   0  0  2  0  0  0  0  0  0  0  0  0
   36.6390   26.4300   42.4260 C   0  0  0  0  0  0  0  0  0  0  0  0
   36.7090   27.4570   43.5750 C   0  0  0  0  0  0  0  0  0  0  0  0
   38.1450   27.8890   43.6250 C   0  0  1  0  0  0  0  0  0  0  0  0
   38.8650   27.0430   42.6220 C   0  0  0  0  0  0  0  0  0  0  0  0
   37.9950   25.3000   43.6070 H   0  0  0  0  0  0  0  0  0  0  0  0
   36.6170   26.9960   41.4690 H   0  0  0  0  0  0  0  0  0  0  0  0
   35.7930   25.7520   42.5660 H   0  0  0  0  0  0  0  0  0  0  0  0
   35.9960   28.2690   43.4180 H   0  0  0  0  0  0  0  0  0  0  0  0
   36.5000   26.8500   44.4850 H   0  0  0  0  0  0  0  0  0  0  0  0
   38.6020   27.7040   44.6090 H   0  0  0  0  0  0  0  0  0  0  0  0
   38.7040   27.3190   41.5600 H   0  0  0  0  0  0  0  0  0  0  0  0
   39.9200   26.8330   42.8730 H   0  0  0  0  0  0  0  0  0  0  0  0
   38.1090   22.8690   40.2520 C   0  0  0  0  0  0  0  0  0  0  0  0
   37.6630   23.6790   41.3060 C   0  0  0  0  0  0  0  0  0  0  0  0
   38.3650   24.8660   41.5340 C   0  0  0  0  0  0  0  0  0  0  0  0
   39.4470   25.1950   40.7380 N   0  0  0  0  0  0  0  0  0  0  0  0
   39.8300   24.3700   39.7340 C   0  0  0  0  0  0  0  0  0  0  0  0
   39.1710   23.2220   39.4940 N   0  0  0  0  0  0  0  0  0  0  0  0
   37.5510   21.9370   40.0800 H   0  0  0  0  0  0  0  0  0  0  0  0
   36.8160   23.4190   41.9260 H   0  0  0  0  0  0  0  0  0  0  0  0
   40.6840   24.6680   39.1350 H   0  0  0  0  0  0  0  0  0  0  0  0
   38.3820   29.3150   43.2290 C   0  0  2  0  0  0  0  0  0  0  0  0
   37.9340   29.7560   41.9310 C   0  0  0  0  0  0  0  0  0  0  0  0
   39.4120   29.7480   42.3070 C   0  0  1  0  0  0  0  0  0  0  0  0
   38.2030   29.9910   44.0880 H   0  0  0  0  0  0  0  0  0  0  0  0
   37.4780   30.7960   41.8770 H   0  0  0  0  0  0  0  0  0  0  0  0
   37.8650   29.3190   40.9520 H   0  0  0  0  0  0  0  0  0  0  0  0
   40.1060   28.9960   41.9420 H   0  0  0  0  0  0  0  0  0  0  0  0
   40.0700   31.1070   42.5120 C   0  0  0  0  0  2  0  0  0  0  0  0
   39.8350   31.5200   43.5200 H   0  0  0  0  0  0  0  0  0  0  0  0
  1  6  1  1  0  0  0
  2  8  1  0  0  0  0
  2  1  1  0  0  0  0
  2  3  1  0  0  0  0
  3  4  1  0  0  0  0
  3 10  1  0  0  0  0
  4 11  1  1  0  0  0
  5  1  1  0  0  0  0
  5 13  1  0  0  0  0
  5  4  1  0  0  0  0
  7  2  1  0  0  0  0
  9  3  1  0  0  0  0
 12  5  1  0  0  0  0
 14 15  1  0  0  0  0
 15 16  2  0  0  0  0
 15 21  1  0  0  0  0
 16  1  1  0  0  0  0
 17 16  1  0  0  0  0
 18 17  2  0  0  0  0
 19 18  1  0  0  0  0
 19 14  2  0  0  0  0
 20 14  1  0  0  0  0
 22 18  1  0  0  0  0
 23  4  1  0  0  0  0
 23 26  1  1  0  0  0
 24 25  1  0  0  0  0
 24 23  1  0  0  0  0
 25 29  1  6  0  0  0
 25 30  1  0  0  0  0
 25 23  1  0  0  0  0
 27 24  1  0  0  0  0
 28 24  1  0  0  0  0
 30 31  1  0  0  0  0
M  END
>  <minimizedAffinity>
-4.41358089

$$$$
