REMARK  Name = 
REMARK  3 active torsions:
REMARK  status: ('A' for Active; 'I' for Inactive)
REMARK    1  A    between atoms: C_1  and  C_8
REMARK    2  A    between atoms: C_4  and  C_12
REMARK    3  A    between atoms: C_14  and  C_30
REMARK                            x       y       z     vdW  Elec       q    Type
REMARK                         _______ _______ _______ _____ _____    ______ ____
ROOT
ATOM      1  C   UNL     1      46.905  34.927  42.165  0.00  0.00    +0.000 C 
ATOM      2  C   UNL     1      46.377  33.924  41.167  0.00  0.00    +0.000 C 
ATOM      3  C   UNL     1      47.586  33.924  40.208  0.00  0.00    +0.000 C 
ATOM      4  C   UNL     1      48.786  34.085  41.094  0.00  0.00    +0.000 C 
ATOM      5  C   UNL     1      48.253  34.288  42.478  0.00  0.00    +0.000 C 
ATOM      6  H   UNL     1      47.012  35.889  41.664  0.00  0.00    +0.000 HD
ATOM      7  H   UNL     1      46.311  32.914  41.626  0.00  0.00    +0.000 HD
ATOM      8  H   UNL     1      45.470  34.240  40.644  0.00  0.00    +0.000 HD
ATOM      9  H   UNL     1      47.595  33.024  39.590  0.00  0.00    +0.000 HD
ATOM     10  H   UNL     1      47.460  34.864  39.625  0.00  0.00    +0.000 HD
ATOM     11  H   UNL     1      49.382  34.972  40.831  0.00  0.00    +0.000 HD
ATOM     12  H   UNL     1      47.867  33.378  42.980  0.00  0.00    +0.000 HD
ATOM     13  H   UNL     1      48.887  34.919  43.125  0.00  0.00    +0.000 HD
ENDROOT
BRANCH   1  16
ATOM     14  C   UNL     1      44.407  36.064  44.756  0.00  0.00    +0.000 A 
ATOM     15  C   UNL     1      45.141  36.061  43.562  0.00  0.00    +0.000 A 
ATOM     16  C   UNL     1      46.059  35.021  43.384  0.00  0.00    +0.000 A 
ATOM     17  N   UNL     1      46.210  34.056  44.363  0.00  0.00    +0.000 NA
ATOM     18  C   UNL     1      45.471  34.114  45.497  0.00  0.00    +0.000 A 
ATOM     19  N   UNL     1      44.581  35.104  45.692  0.00  0.00    +0.000 NA
ATOM     20  H   UNL     1      43.687  36.885  44.887  0.00  0.00    +0.000 HD
ATOM     21  H   UNL     1      45.020  36.817  42.798  0.00  0.00    +0.000 HD
ATOM     22  H   UNL     1      45.623  33.336  46.237  0.00  0.00    +0.000 HD
ENDBRANCH   1  16
BRANCH   4  23
ATOM     23  C   UNL     1      49.682  32.885  41.154  0.00  0.00    +0.000 C 
ATOM     24  C   UNL     1      49.596  32.014  42.300  0.00  0.00    +0.000 C 
ATOM     25  C   UNL     1      50.869  32.791  41.979  0.00  0.00    +0.000 C 
ATOM     26  H   UNL     1      49.762  32.411  40.156  0.00  0.00    +0.000 HD
ATOM     27  H   UNL     1      49.675  30.898  42.096  0.00  0.00    +0.000 HD
ATOM     28  H   UNL     1      49.417  32.142  43.351  0.00  0.00    +0.000 HD
ATOM     29  H   UNL     1      51.169  33.678  42.529  0.00  0.00    +0.000 HD
BRANCH  25  30
ATOM     30  C   UNL     1      52.058  31.976  41.482  0.00  0.00    +0.000 C 
ATOM     31  H   UNL     1      53.019  32.402  41.852  0.00  0.00    +0.000 HD
ENDBRANCH  25  30
ENDBRANCH   4  23
TORSDOF 3
