REMARK  Name = 
REMARK  4 active torsions:
REMARK  status: ('A' for Active; 'I' for Inactive)
REMARK    1  A    between atoms: C_1  and  C_10
REMARK    2  A    between atoms: C_2  and  C_7
REMARK    3  A    between atoms: C_10  and  C_14
REMARK    4  A    between atoms: C_18  and  C_29
REMARK                            x       y       z     vdW  Elec       q    Type
REMARK                         _______ _______ _______ _____ _____    ______ ____
ROOT
ATOM      1  C   UNL     1      47.535  32.845  43.909  0.00  0.00    +0.000 A 
ATOM      2  C   UNL     1      48.376  33.388  43.016  0.00  0.00    +0.000 A 
ATOM      3  C   UNL     1      49.235  32.494  42.417  0.00  0.00    +0.000 A 
ATOM      4  N   UNL     1      49.164  31.137  42.783  0.00  0.00    +0.000 NA
ATOM      5  C   UNL     1      48.313  30.679  43.671  0.00  0.00    +0.000 A 
ATOM      6  N   UNL     1      47.437  31.540  44.289  0.00  0.00    +0.000 NA
ATOM      7  H   UNL     1      49.975  32.772  41.670  0.00  0.00    +0.000 HD
ATOM      8  H   UNL     1      48.374  29.610  43.853  0.00  0.00    +0.000 HD
ENDROOT
BRANCH   2   9
ATOM      9  C   UNL     1      48.522  34.773  42.734  0.00  0.00    +0.000 C 
ATOM     10  C   UNL     1      49.521  35.399  42.057  0.00  0.00    +0.000 C 
ATOM     11  C   UNL     1      48.276  35.223  41.230  0.00  0.00    +0.000 C 
ATOM     12  H   UNL     1      48.060  35.434  43.490  0.00  0.00    +0.000 HD
ATOM     13  H   UNL     1      50.403  34.781  41.702  0.00  0.00    +0.000 HD
ATOM     14  H   UNL     1      49.858  36.459  42.093  0.00  0.00    +0.000 HD
ATOM     15  H   UNL     1      47.557  36.064  41.137  0.00  0.00    +0.000 HD
ATOM     16  H   UNL     1      48.245  34.381  40.533  0.00  0.00    +0.000 HD
ENDBRANCH   2   9
BRANCH   1  17
ATOM     17  C   UNL     1      46.451  33.533  44.625  0.00  0.00    +0.000 C 
ATOM     18  O   UNL     1      45.882  33.898  45.620  0.00  0.00    +0.000 OA
BRANCH  17  21
ATOM     19 CL   UNL     1      44.679  31.665  42.925  0.00  0.00    +0.000 Cl
ATOM     20  C   UNL     1      44.649  33.421  42.759  0.00  0.00    +0.000 A 
ATOM     21  C   UNL     1      45.518  34.121  43.620  0.00  0.00    +0.000 A 
ATOM     22  C   UNL     1      45.417  35.487  43.408  0.00  0.00    +0.000 A 
ATOM     23  C   UNL     1      44.651  36.169  42.545  0.00  0.00    +0.000 A 
ATOM     24  C   UNL     1      43.838  35.415  41.746  0.00  0.00    +0.000 A 
ATOM     25  C   UNL     1      43.823  34.067  41.837  0.00  0.00    +0.000 A 
ATOM     26  H   UNL     1      46.010  36.193  44.029  0.00  0.00    +0.000 HD
ATOM     27  H   UNL     1      44.604  37.227  42.411  0.00  0.00    +0.000 HD
ATOM     28  H   UNL     1      43.154  35.787  40.994  0.00  0.00    +0.000 HD
BRANCH  25  29
ATOM     29  C   UNL     1      42.975  33.121  41.019  0.00  0.00    +0.000 C 
ATOM     30  H   UNL     1      43.661  32.683  40.265  0.00  0.00    +0.000 HD
ENDBRANCH  25  29
ENDBRANCH  17  21
ENDBRANCH   1  17
TORSDOF 4
