
 OpenBabel03242521213D

 29 31  0  0  0  0  0  0  0  0999 V2000
   39.1870   30.1030   41.4850 C   0  0  0  0  0  0  0  0  0  0  0  0
   40.3050   30.1730   42.2400 C   0  0  0  0  0  0  0  0  0  0  0  0
   40.8800   29.0990   42.8630 C   0  0  0  0  0  0  0  0  0  0  0  0
   40.2590   27.9040   42.6890 N   0  0  0  0  0  0  0  0  0  0  0  0
   39.1480   27.8250   41.9400 C   0  0  0  0  0  0  0  0  0  0  0  0
   38.5800   28.8900   41.3240 N   0  0  0  0  0  0  0  0  0  0  0  0
   40.8170   31.1200   42.3920 H   0  0  0  0  0  0  0  0  0  0  0  0
   41.7800   29.1630   43.4700 H   0  0  0  0  0  0  0  0  0  0  0  0
   38.4800   26.5200   41.7560 C   0  0  0  0  0  0  0  0  0  0  0  0
   39.0320   25.5900   40.8970 C   0  0  0  0  0  0  0  0  0  0  0  0
   38.4680   24.3480   40.6690 C   0  0  0  0  0  0  0  0  0  0  0  0
   37.2950   24.0220   41.3370 C   0  0  0  0  0  0  0  0  0  0  0  0
   36.7580   24.9430   42.1810 C   0  0  0  0  0  0  0  0  0  0  0  0
   37.3200   26.1860   42.4090 C   0  0  0  0  0  0  0  0  0  0  0  0
   39.9390   25.8570   40.3890 H   0  0  0  0  0  0  0  0  0  0  0  0
   38.9310   23.6590   39.9960 H   0  0  0  0  0  0  0  0  0  0  0  0
   36.8520   23.0440   41.1570 H   0  0  0  0  0  0  0  0  0  0  0  0
   35.8350   24.6760   42.7000 H   0  0  0  0  0  0  0  0  0  0  0  0
   36.7120   27.1890   43.3430 C   0  0  0  0  0  2  0  0  0  0  0  0
   35.7080   26.8600   43.6670 H   0  0  0  0  0  0  0  0  0  0  0  0
   37.0420   32.1650   39.3480 C   0  0  0  0  0  0  0  0  0  0  0  0
   37.5010   33.4490   39.6110 C   0  0  0  0  0  0  0  0  0  0  0  0
   38.5470   33.6180   40.5210 C   0  0  0  0  0  0  0  0  0  0  0  0
   39.0750   32.5010   41.1170 N   0  0  0  0  0  0  0  0  0  0  0  0
   38.6050   31.2770   40.8370 C   0  0  0  0  0  0  0  0  0  0  0  0
   37.5980   31.0990   39.9630 N   0  0  0  0  0  0  0  0  0  0  0  0
   36.2230   32.0740   38.6310 H   0  0  0  0  0  0  0  0  0  0  0  0
   37.1270   34.3630   39.1760 H   0  0  0  0  0  0  0  0  0  0  0  0
   39.0110   34.5420   40.8300 H   0  0  0  0  0  0  0  0  0  0  0  0
  1  2  1  0  0  0  0
  2  7  1  0  0  0  0
  2  3  2  0  0  0  0
  3  8  1  0  0  0  0
  4  3  1  0  0  0  0
  5  4  2  0  0  0  0
  6  1  2  0  0  0  0
  6  5  1  0  0  0  0
  9  5  1  0  0  0  0
  9 14  1  0  0  0  0
 10  9  2  0  0  0  0
 11 10  1  0  0  0  0
 11 12  2  0  0  0  0
 12 13  1  0  0  0  0
 13 14  2  0  0  0  0
 13 18  1  0  0  0  0
 14 19  1  0  0  0  0
 15 10  1  0  0  0  0
 16 11  1  0  0  0  0
 17 12  1  0  0  0  0
 19 20  1  0  0  0  0
 21 22  2  0  0  0  0
 21 26  1  0  0  0  0
 22 23  1  0  0  0  0
 23 29  1  0  0  0  0
 23 24  2  0  0  0  0
 25 24  1  0  0  0  0
 25  1  1  0  0  0  0
 26 25  2  0  0  0  0
 27 21  1  0  0  0  0
 28 22  1  0  0  0  0
M  END
>  <minimizedAffinity>
-5.33261871

$$$$

 OpenBabel03242521213D

 29 31  0  0  0  0  0  0  0  0999 V2000
   38.3820   30.5610   41.0650 C   0  0  0  0  0  0  0  0  0  0  0  0
   37.2520   31.2500   40.7960 C   0  0  0  0  0  0  0  0  0  0  0  0
   36.0180   30.6770   40.6580 C   0  0  0  0  0  0  0  0  0  0  0  0
   35.9640   29.3290   40.8060 N   0  0  0  0  0  0  0  0  0  0  0  0
   37.0820   28.6350   41.0730 C   0  0  0  0  0  0  0  0  0  0  0  0
   38.3040   29.2050   41.2090 N   0  0  0  0  0  0  0  0  0  0  0  0
   37.2720   32.3300   40.6740 H   0  0  0  0  0  0  0  0  0  0  0  0
   35.1110   31.2380   40.4420 H   0  0  0  0  0  0  0  0  0  0  0  0
   37.0150   27.1680   41.2320 C   0  0  0  0  0  0  0  0  0  0  0  0
   37.0830   26.3610   40.1140 C   0  0  0  0  0  0  0  0  0  0  0  0
   37.0260   24.9800   40.1780 C   0  0  0  0  0  0  0  0  0  0  0  0
   36.8940   24.3810   41.4240 C   0  0  0  0  0  0  0  0  0  0  0  0
   36.8270   25.1830   42.5200 C   0  0  0  0  0  0  0  0  0  0  0  0
   36.8830   26.5640   42.4570 C   0  0  0  0  0  0  0  0  0  0  0  0
   37.1860   26.8390   39.1580 H   0  0  0  0  0  0  0  0  0  0  0  0
   37.0840   24.3940   39.2850 H   0  0  0  0  0  0  0  0  0  0  0  0
   36.8490   23.2940   41.4730 H   0  0  0  0  0  0  0  0  0  0  0  0
   36.7230   24.7010   43.4940 H   0  0  0  0  0  0  0  0  0  0  0  0
   36.8070   27.4310   43.6770 C   0  0  0  0  0  2  0  0  0  0  0  0
   36.5380   26.8310   44.5660 H   0  0  0  0  0  0  0  0  0  0  0  0
   41.1160   32.9560   40.6050 C   0  0  0  0  0  0  0  0  0  0  0  0
   42.0990   32.4550   41.4460 C   0  0  0  0  0  0  0  0  0  0  0  0
   41.8350   31.2950   42.1770 C   0  0  0  0  0  0  0  0  0  0  0  0
   40.6080   30.7000   42.0280 N   0  0  0  0  0  0  0  0  0  0  0  0
   39.6830   31.2140   41.2050 C   0  0  0  0  0  0  0  0  0  0  0  0
   39.9230   32.3320   40.4950 N   0  0  0  0  0  0  0  0  0  0  0  0
   41.3590   33.8660   40.0500 H   0  0  0  0  0  0  0  0  0  0  0  0
   43.0800   32.8770   41.6050 H   0  0  0  0  0  0  0  0  0  0  0  0
   42.4900   30.7850   42.8670 H   0  0  0  0  0  0  0  0  0  0  0  0
  1 25  1  0  0  0  0
  1  6  1  0  0  0  0
  2  1  2  0  0  0  0
  3  2  1  0  0  0  0
  3  4  2  0  0  0  0
  4  5  1  0  0  0  0
  5  6  2  0  0  0  0
  5  9  1  0  0  0  0
  7  2  1  0  0  0  0
  8  3  1  0  0  0  0
  9 14  1  0  0  0  0
 10 11  1  0  0  0  0
 10  9  2  0  0  0  0
 11 12  2  0  0  0  0
 12 17  1  0  0  0  0
 12 13  1  0  0  0  0
 13 18  1  0  0  0  0
 14 13  2  0  0  0  0
 14 19  1  0  0  0  0
 15 10  1  0  0  0  0
 16 11  1  0  0  0  0
 19 20  1  0  0  0  0
 21 22  1  0  0  0  0
 22 28  1  0  0  0  0
 22 23  2  0  0  0  0
 23 29  1  0  0  0  0
 24 23  1  0  0  0  0
 25 24  2  0  0  0  0
 26 21  2  0  0  0  0
 26 25  1  0  0  0  0
 27 21  1  0  0  0  0
M  END
>  <minimizedAffinity>
-5.2211585

$$$$

 OpenBabel03242521213D

 29 31  0  0  0  0  0  0  0  0999 V2000
   37.8780   30.6770   40.9690 C   0  0  0  0  0  0  0  0  0  0  0  0
   36.5440   30.7340   40.7590 C   0  0  0  0  0  0  0  0  0  0  0  0
   35.6930   29.6800   40.9460 C   0  0  0  0  0  0  0  0  0  0  0  0
   36.2590   28.5200   41.3680 N   0  0  0  0  0  0  0  0  0  0  0  0
   37.5830   28.4550   41.5790 C   0  0  0  0  0  0  0  0  0  0  0  0
   38.4250   29.5000   41.3930 N   0  0  0  0  0  0  0  0  0  0  0  0
   36.0710   31.6520   40.4220 H   0  0  0  0  0  0  0  0  0  0  0  0
   34.6190   29.7320   40.7750 H   0  0  0  0  0  0  0  0  0  0  0  0
   38.1900   27.1880   42.0380 C   0  0  0  0  0  0  0  0  0  0  0  0
   37.5740   25.9910   41.7310 C   0  0  0  0  0  0  0  0  0  0  0  0
   38.0780   24.7640   42.1240 C   0  0  0  0  0  0  0  0  0  0  0  0
   39.2550   24.7370   42.8600 C   0  0  0  0  0  0  0  0  0  0  0  0
   39.8550   25.9200   43.1580 C   0  0  0  0  0  0  0  0  0  0  0  0
   39.3520   27.1480   42.7660 C   0  0  0  0  0  0  0  0  0  0  0  0
   36.6650   26.0280   41.1610 H   0  0  0  0  0  0  0  0  0  0  0  0
   37.5680   23.8610   41.8630 H   0  0  0  0  0  0  0  0  0  0  0  0
   39.6500   23.7710   43.1680 H   0  0  0  0  0  0  0  0  0  0  0  0
   40.7800   25.8880   43.7370 H   0  0  0  0  0  0  0  0  0  0  0  0
   40.0280   28.4430   43.1050 C   0  0  0  0  0  2  0  0  0  0  0  0
   40.8490   28.2770   43.8260 H   0  0  0  0  0  0  0  0  0  0  0  0
   38.9830   34.0860   40.2100 C   0  0  0  0  0  0  0  0  0  0  0  0
   40.3600   33.9950   40.3550 C   0  0  0  0  0  0  0  0  0  0  0  0
   40.9210   32.7680   40.7130 C   0  0  0  0  0  0  0  0  0  0  0  0
   40.0790   31.7020   40.9060 N   0  0  0  0  0  0  0  0  0  0  0  0
   38.7530   31.8290   40.7570 C   0  0  0  0  0  0  0  0  0  0  0  0
   38.1990   33.0050   40.4130 N   0  0  0  0  0  0  0  0  0  0  0  0
   38.5810   35.0640   39.9300 H   0  0  0  0  0  0  0  0  0  0  0  0
   41.0710   34.7950   40.2170 H   0  0  0  0  0  0  0  0  0  0  0  0
   41.9650   32.5360   40.8630 H   0  0  0  0  0  0  0  0  0  0  0  0
  1  6  1  0  0  0  0
  2  3  1  0  0  0  0
  2  1  2  0  0  0  0
  3  4  2  0  0  0  0
  4  5  1  0  0  0  0
  5  9  1  0  0  0  0
  6  5  2  0  0  0  0
  7  2  1  0  0  0  0
  8  3  1  0  0  0  0
  9 14  1  0  0  0  0
 10  9  2  0  0  0  0
 10 11  1  0  0  0  0
 11 12  2  0  0  0  0
 12 13  1  0  0  0  0
 12 17  1  0  0  0  0
 13 18  1  0  0  0  0
 14 19  1  0  0  0  0
 14 13  2  0  0  0  0
 15 10  1  0  0  0  0
 16 11  1  0  0  0  0
 19 20  1  0  0  0  0
 21 22  2  0  0  0  0
 21 26  1  0  0  0  0
 22 23  1  0  0  0  0
 23 29  1  0  0  0  0
 23 24  2  0  0  0  0
 25 24  1  0  0  0  0
 25  1  1  0  0  0  0
 26 25  2  0  0  0  0
 27 21  1  0  0  0  0
 28 22  1  0  0  0  0
M  END
>  <minimizedAffinity>
-5.19356012

$$$$

 OpenBabel03242521213D

 29 31  0  0  0  0  0  0  0  0999 V2000
   39.1790   31.6250   39.1390 C   0  0  0  0  0  0  0  0  0  0  0  0
   38.3300   32.6760   39.1580 C   0  0  0  0  0  0  0  0  0  0  0  0
   37.2000   32.7360   39.9260 C   0  0  0  0  0  0  0  0  0  0  0  0
   36.9470   31.6540   40.7050 N   0  0  0  0  0  0  0  0  0  0  0  0
   37.7840   30.6040   40.6920 C   0  0  0  0  0  0  0  0  0  0  0  0
   38.9040   30.5470   39.9310 N   0  0  0  0  0  0  0  0  0  0  0  0
   38.5140   33.5530   38.5430 H   0  0  0  0  0  0  0  0  0  0  0  0
   36.5210   33.5860   39.9370 H   0  0  0  0  0  0  0  0  0  0  0  0
   37.5010   29.4300   41.5430 C   0  0  0  0  0  0  0  0  0  0  0  0
   38.0270   29.3730   42.8180 C   0  0  0  0  0  0  0  0  0  0  0  0
   37.8090   28.3100   43.6760 C   0  0  0  0  0  0  0  0  0  0  0  0
   37.0260   27.2530   43.2320 C   0  0  0  0  0  0  0  0  0  0  0  0
   36.5110   27.3160   41.9750 C   0  0  0  0  0  0  0  0  0  0  0  0
   36.7290   28.3790   41.1160 C   0  0  0  0  0  0  0  0  0  0  0  0
   38.6300   30.1990   43.1460 H   0  0  0  0  0  0  0  0  0  0  0  0
   38.2360   28.3090   44.6560 H   0  0  0  0  0  0  0  0  0  0  0  0
   36.8550   26.4170   43.9080 H   0  0  0  0  0  0  0  0  0  0  0  0
   35.8970   26.4790   41.6360 H   0  0  0  0  0  0  0  0  0  0  0  0
   36.1540   28.4300   39.7330 C   0  0  0  0  0  2  0  0  0  0  0  0
   35.7000   27.4590   39.4640 H   0  0  0  0  0  0  0  0  0  0  0  0
   42.0940   32.7760   37.2420 C   0  0  0  0  0  0  0  0  0  0  0  0
   42.6160   31.5900   36.7450 C   0  0  0  0  0  0  0  0  0  0  0  0
   41.9750   30.3890   37.0530 C   0  0  0  0  0  0  0  0  0  0  0  0
   40.8520   30.4370   37.8400 N   0  0  0  0  0  0  0  0  0  0  0  0
   40.3780   31.6020   38.3030 C   0  0  0  0  0  0  0  0  0  0  0  0
   40.9850   32.7670   38.0130 N   0  0  0  0  0  0  0  0  0  0  0  0
   42.6230   33.6950   36.9790 H   0  0  0  0  0  0  0  0  0  0  0  0
   43.4920   31.4890   36.1230 H   0  0  0  0  0  0  0  0  0  0  0  0
   42.2540   29.3930   36.7460 H   0  0  0  0  0  0  0  0  0  0  0  0
  1  2  2  0  0  0  0
  1  6  1  0  0  0  0
  2  3  1  0  0  0  0
  3  8  1  0  0  0  0
  3  4  2  0  0  0  0
  5  4  1  0  0  0  0
  5  9  1  0  0  0  0
  6  5  2  0  0  0  0
  7  2  1  0  0  0  0
  9 10  1  0  0  0  0
 10 15  1  0  0  0  0
 10 11  2  0  0  0  0
 11 16  1  0  0  0  0
 12 11  1  0  0  0  0
 12 17  1  0  0  0  0
 13 12  2  0  0  0  0
 14  9  2  0  0  0  0
 14 13  1  0  0  0  0
 18 13  1  0  0  0  0
 19 14  1  0  0  0  0
 20 19  1  0  0  0  0
 21 26  1  0  0  0  0
 22 23  1  0  0  0  0
 22 21  2  0  0  0  0
 23 24  2  0  0  0  0
 24 25  1  0  0  0  0
 25  1  1  0  0  0  0
 26 25  2  0  0  0  0
 27 21  1  0  0  0  0
 28 22  1  0  0  0  0
 29 23  1  0  0  0  0
M  END
>  <minimizedAffinity>
-5.19224977

$$$$

 OpenBabel03242521213D

 29 31  0  0  0  0  0  0  0  0999 V2000
   38.1880   30.4540   39.7780 C   0  0  0  0  0  0  0  0  0  0  0  0
   37.1880   31.2460   40.2260 C   0  0  0  0  0  0  0  0  0  0  0  0
   36.0960   30.7890   40.9110 C   0  0  0  0  0  0  0  0  0  0  0  0
   36.0470   29.4510   41.1350 N   0  0  0  0  0  0  0  0  0  0  0  0
   37.0350   28.6570   40.6940 C   0  0  0  0  0  0  0  0  0  0  0  0
   38.1160   29.1120   40.0160 N   0  0  0  0  0  0  0  0  0  0  0  0
   37.2080   32.3190   40.0570 H   0  0  0  0  0  0  0  0  0  0  0  0
   35.2940   31.4320   41.2680 H   0  0  0  0  0  0  0  0  0  0  0  0
   36.9730   27.2020   40.9430 C   0  0  0  0  0  0  0  0  0  0  0  0
   36.6780   26.3480   39.8990 C   0  0  0  0  0  0  0  0  0  0  0  0
   36.6000   24.9750   40.0500 C   0  0  0  0  0  0  0  0  0  0  0  0
   36.8290   24.4340   41.3080 C   0  0  0  0  0  0  0  0  0  0  0  0
   37.1190   25.2820   42.3300 C   0  0  0  0  0  0  0  0  0  0  0  0
   37.1970   26.6550   42.1810 C   0  0  0  0  0  0  0  0  0  0  0  0
   36.5030   26.7820   38.9330 H   0  0  0  0  0  0  0  0  0  0  0  0
   36.3690   24.3510   39.2130 H   0  0  0  0  0  0  0  0  0  0  0  0
   36.7680   23.3530   41.4250 H   0  0  0  0  0  0  0  0  0  0  0  0
   37.2970   24.8460   43.3150 H   0  0  0  0  0  0  0  0  0  0  0  0
   37.5170   27.5750   43.3210 C   0  0  0  0  0  2  0  0  0  0  0  0
   37.5090   27.0240   44.2800 H   0  0  0  0  0  0  0  0  0  0  0  0
   41.1240   30.6100   37.5930 C   0  0  0  0  0  0  0  0  0  0  0  0
   41.4920   31.9460   37.6780 C   0  0  0  0  0  0  0  0  0  0  0  0
   40.7390   32.8030   38.4840 C   0  0  0  0  0  0  0  0  0  0  0  0
   39.6630   32.2810   39.1570 N   0  0  0  0  0  0  0  0  0  0  0  0
   39.3390   30.9850   39.0490 C   0  0  0  0  0  0  0  0  0  0  0  0
   40.0550   30.1480   38.2770 N   0  0  0  0  0  0  0  0  0  0  0  0
   41.7380   29.9710   36.9530 H   0  0  0  0  0  0  0  0  0  0  0  0
   42.3240   32.4130   37.1750 H   0  0  0  0  0  0  0  0  0  0  0  0
   40.8940   33.8570   38.6540 H   0  0  0  0  0  0  0  0  0  0  0  0
  1  6  2  0  0  0  0
  1  2  1  0  0  0  0
  2  3  2  0  0  0  0
  3  4  1  0  0  0  0
  3  8  1  0  0  0  0
  5  9  1  0  0  0  0
  5  4  2  0  0  0  0
  6  5  1  0  0  0  0
  7  2  1  0  0  0  0
  9 14  1  0  0  0  0
 10 11  1  0  0  0  0
 10  9  2  0  0  0  0
 11 12  2  0  0  0  0
 12 17  1  0  0  0  0
 12 13  1  0  0  0  0
 13 18  1  0  0  0  0
 14 13  2  0  0  0  0
 14 19  1  0  0  0  0
 15 10  1  0  0  0  0
 16 11  1  0  0  0  0
 19 20  1  0  0  0  0
 21 22  2  0  0  0  0
 21 26  1  0  0  0  0
 22 23  1  0  0  0  0
 23 29  1  0  0  0  0
 23 24  2  0  0  0  0
 25 24  1  0  0  0  0
 25  1  1  0  0  0  0
 26 25  2  0  0  0  0
 27 21  1  0  0  0  0
 28 22  1  0  0  0  0
M  END
>  <minimizedAffinity>
-5.18638563

$$$$

 OpenBabel03242521213D

 29 31  0  0  0  0  0  0  0  0999 V2000
   39.1430   31.1080   38.8010 C   0  0  0  0  0  0  0  0  0  0  0  0
   38.2430   32.0930   38.5890 C   0  0  0  0  0  0  0  0  0  0  0  0
   37.0860   32.2430   39.3030 C   0  0  0  0  0  0  0  0  0  0  0  0
   36.8620   31.3250   40.2770 N   0  0  0  0  0  0  0  0  0  0  0  0
   37.7500   30.3430   40.4960 C   0  0  0  0  0  0  0  0  0  0  0  0
   38.8960   30.1960   39.7870 N   0  0  0  0  0  0  0  0  0  0  0  0
   38.4040   32.8390   37.8140 H   0  0  0  0  0  0  0  0  0  0  0  0
   36.3650   33.0380   39.1270 H   0  0  0  0  0  0  0  0  0  0  0  0
   37.4970   29.3480   41.5580 C   0  0  0  0  0  0  0  0  0  0  0  0
   36.5090   28.4000   41.3790 C   0  0  0  0  0  0  0  0  0  0  0  0
   36.2100   27.4360   42.3250 C   0  0  0  0  0  0  0  0  0  0  0  0
   36.9380   27.4230   43.5070 C   0  0  0  0  0  0  0  0  0  0  0  0
   37.9090   28.3590   43.6760 C   0  0  0  0  0  0  0  0  0  0  0  0
   38.2080   29.3240   42.7310 C   0  0  0  0  0  0  0  0  0  0  0  0
   35.9560   28.4240   40.4590 H   0  0  0  0  0  0  0  0  0  0  0  0
   35.4360   26.7210   42.1420 H   0  0  0  0  0  0  0  0  0  0  0  0
   36.7010   26.6630   44.2510 H   0  0  0  0  0  0  0  0  0  0  0  0
   38.4740   28.3390   44.6100 H   0  0  0  0  0  0  0  0  0  0  0  0
   39.2830   30.3490   42.9360 C   0  0  0  0  0  2  0  0  0  0  0  0
   39.6560   30.3200   43.9770 H   0  0  0  0  0  0  0  0  0  0  0  0
   41.9110   29.6150   36.9220 C   0  0  0  0  0  0  0  0  0  0  0  0
   42.6520   30.7260   36.5450 C   0  0  0  0  0  0  0  0  0  0  0  0
   42.2120   31.9930   36.9310 C   0  0  0  0  0  0  0  0  0  0  0  0
   41.0590   32.0820   37.6690 N   0  0  0  0  0  0  0  0  0  0  0  0
   40.3690   30.9860   38.0140 C   0  0  0  0  0  0  0  0  0  0  0  0
   40.7810   29.7580   37.6490 N   0  0  0  0  0  0  0  0  0  0  0  0
   42.2870   28.6400   36.6010 H   0  0  0  0  0  0  0  0  0  0  0  0
   43.5640   30.7190   35.9670 H   0  0  0  0  0  0  0  0  0  0  0  0
   42.6720   32.9460   36.7190 H   0  0  0  0  0  0  0  0  0  0  0  0
  1  6  1  0  0  0  0
  2  1  2  0  0  0  0
  2  3  1  0  0  0  0
  3  4  2  0  0  0  0
  4  5  1  0  0  0  0
  5  9  1  0  0  0  0
  6  5  2  0  0  0  0
  7  2  1  0  0  0  0
  8  3  1  0  0  0  0
  9 14  1  0  0  0  0
 10  9  2  0  0  0  0
 10 11  1  0  0  0  0
 11 12  2  0  0  0  0
 12 13  1  0  0  0  0
 12 17  1  0  0  0  0
 13 18  1  0  0  0  0
 14 19  1  0  0  0  0
 14 13  2  0  0  0  0
 15 10  1  0  0  0  0
 16 11  1  0  0  0  0
 19 20  1  0  0  0  0
 21 26  1  0  0  0  0
 22 21  2  0  0  0  0
 22 23  1  0  0  0  0
 23 24  2  0  0  0  0
 24 25  1  0  0  0  0
 25  1  1  0  0  0  0
 26 25  2  0  0  0  0
 27 21  1  0  0  0  0
 28 22  1  0  0  0  0
 29 23  1  0  0  0  0
M  END
>  <minimizedAffinity>
-5.09605169

$$$$

 OpenBabel03242521213D

 29 31  0  0  0  0  0  0  0  0999 V2000
   38.5870   31.2350   40.0650 C   0  0  0  0  0  0  0  0  0  0  0  0
   37.3390   31.7100   40.2700 C   0  0  0  0  0  0  0  0  0  0  0  0
   36.3810   31.0590   40.9970 C   0  0  0  0  0  0  0  0  0  0  0  0
   36.7420   29.8630   41.5300 N   0  0  0  0  0  0  0  0  0  0  0  0
   37.9800   29.3840   41.3310 C   0  0  0  0  0  0  0  0  0  0  0  0
   38.9280   30.0310   40.6110 N   0  0  0  0  0  0  0  0  0  0  0  0
   37.0290   32.6640   39.8540 H   0  0  0  0  0  0  0  0  0  0  0  0
   35.3770   31.4460   41.1590 H   0  0  0  0  0  0  0  0  0  0  0  0
   38.3640   28.0820   41.9140 C   0  0  0  0  0  0  0  0  0  0  0  0
   39.1220   28.0540   43.0680 C   0  0  0  0  0  0  0  0  0  0  0  0
   39.5230   26.8780   43.6760 C   0  0  0  0  0  0  0  0  0  0  0  0
   39.1460   25.6730   43.0980 C   0  0  0  0  0  0  0  0  0  0  0  0
   38.4000   25.7090   41.9620 C   0  0  0  0  0  0  0  0  0  0  0  0
   37.9990   26.8850   41.3530 C   0  0  0  0  0  0  0  0  0  0  0  0
   39.4060   28.9940   43.5030 H   0  0  0  0  0  0  0  0  0  0  0  0
   40.1090   26.9030   44.5700 H   0  0  0  0  0  0  0  0  0  0  0  0
   39.4630   24.7480   43.5770 H   0  0  0  0  0  0  0  0  0  0  0  0
   38.1100   24.7560   41.5160 H   0  0  0  0  0  0  0  0  0  0  0  0
   37.1770   26.9050   40.0990 C   0  0  0  0  0  2  0  0  0  0  0  0
   37.0970   25.8900   39.6690 H   0  0  0  0  0  0  0  0  0  0  0  0
   41.0340   33.7830   39.0940 C   0  0  0  0  0  0  0  0  0  0  0  0
   41.4410   33.3470   37.8410 C   0  0  0  0  0  0  0  0  0  0  0  0
   40.8830   32.1790   37.3190 C   0  0  0  0  0  0  0  0  0  0  0  0
   39.9510   31.5120   38.0740 N   0  0  0  0  0  0  0  0  0  0  0  0
   39.5830   31.9650   39.2810 C   0  0  0  0  0  0  0  0  0  0  0  0
   40.1120   33.0890   39.7970 N   0  0  0  0  0  0  0  0  0  0  0  0
   41.4940   34.7010   39.4690 H   0  0  0  0  0  0  0  0  0  0  0  0
   42.1670   33.8260   37.2030 H   0  0  0  0  0  0  0  0  0  0  0  0
   41.0920   31.7130   36.3690 H   0  0  0  0  0  0  0  0  0  0  0  0
  1  2  2  0  0  0  0
  1  6  1  0  0  0  0
  2  3  1  0  0  0  0
  3  8  1  0  0  0  0
  3  4  2  0  0  0  0
  5  4  1  0  0  0  0
  5  9  1  0  0  0  0
  6  5  2  0  0  0  0
  7  2  1  0  0  0  0
  9 10  1  0  0  0  0
 10 15  1  0  0  0  0
 10 11  2  0  0  0  0
 11 16  1  0  0  0  0
 12 17  1  0  0  0  0
 12 11  1  0  0  0  0
 13 12  2  0  0  0  0
 14  9  2  0  0  0  0
 14 13  1  0  0  0  0
 18 13  1  0  0  0  0
 19 14  1  0  0  0  0
 20 19  1  0  0  0  0
 21 27  1  0  0  0  0
 21 26  1  0  0  0  0
 22 21  2  0  0  0  0
 23 22  1  0  0  0  0
 23 24  2  0  0  0  0
 24 25  1  0  0  0  0
 25 26  2  0  0  0  0
 25  1  1  0  0  0  0
 28 22  1  0  0  0  0
 29 23  1  0  0  0  0
M  END
>  <minimizedAffinity>
-5.07126617

$$$$

 OpenBabel03242521213D

 29 31  0  0  0  0  0  0  0  0999 V2000
   37.4450   29.0530   41.3630 C   0  0  0  0  0  0  0  0  0  0  0  0
   37.4520   29.2370   42.7020 C   0  0  0  0  0  0  0  0  0  0  0  0
   37.5180   28.2220   43.6160 C   0  0  0  0  0  0  0  0  0  0  0  0
   37.5770   26.9640   43.1100 N   0  0  0  0  0  0  0  0  0  0  0  0
   37.5700   26.7710   41.7820 C   0  0  0  0  0  0  0  0  0  0  0  0
   37.5050   27.7780   40.8780 N   0  0  0  0  0  0  0  0  0  0  0  0
   37.4060   30.2360   43.1280 H   0  0  0  0  0  0  0  0  0  0  0  0
   37.5230   28.3780   44.6930 H   0  0  0  0  0  0  0  0  0  0  0  0
   37.6350   25.3970   41.2400 C   0  0  0  0  0  0  0  0  0  0  0  0
   36.4810   24.7940   40.7820 C   0  0  0  0  0  0  0  0  0  0  0  0
   36.4570   23.5130   40.2610 C   0  0  0  0  0  0  0  0  0  0  0  0
   37.6490   22.8030   40.1990 C   0  0  0  0  0  0  0  0  0  0  0  0
   38.7810   23.4030   40.6530 C   0  0  0  0  0  0  0  0  0  0  0  0
   38.8060   24.6850   41.1740 C   0  0  0  0  0  0  0  0  0  0  0  0
   35.5680   25.3570   40.8370 H   0  0  0  0  0  0  0  0  0  0  0  0
   35.5390   23.0860   39.9170 H   0  0  0  0  0  0  0  0  0  0  0  0
   37.6290   21.7940   39.7890 H   0  0  0  0  0  0  0  0  0  0  0  0
   39.7120   22.8360   40.5990 H   0  0  0  0  0  0  0  0  0  0  0  0
   40.0640   25.3310   41.6700 C   0  0  0  0  0  2  0  0  0  0  0  0
   40.8890   24.5950   41.7120 H   0  0  0  0  0  0  0  0  0  0  0  0
   37.3850   32.4720   40.0500 C   0  0  0  0  0  0  0  0  0  0  0  0
   37.2450   32.2670   38.6840 C   0  0  0  0  0  0  0  0  0  0  0  0
   37.1700   30.9580   38.2020 C   0  0  0  0  0  0  0  0  0  0  0  0
   37.2390   29.9290   39.1070 N   0  0  0  0  0  0  0  0  0  0  0  0
   37.3740   30.1670   40.4200 C   0  0  0  0  0  0  0  0  0  0  0  0
   37.4480   31.4220   40.8980 N   0  0  0  0  0  0  0  0  0  0  0  0
   37.4400   33.5090   40.3880 H   0  0  0  0  0  0  0  0  0  0  0  0
   37.1860   33.0320   37.9260 H   0  0  0  0  0  0  0  0  0  0  0  0
   37.0620   30.6360   37.1780 H   0  0  0  0  0  0  0  0  0  0  0  0
  1  2  1  0  0  0  0
  2  7  1  0  0  0  0
  2  3  2  0  0  0  0
  3  8  1  0  0  0  0
  4  3  1  0  0  0  0
  5  4  2  0  0  0  0
  6  1  2  0  0  0  0
  6  5  1  0  0  0  0
  9  5  1  0  0  0  0
 10 15  1  0  0  0  0
 10  9  2  0  0  0  0
 11 10  1  0  0  0  0
 12 11  2  0  0  0  0
 12 13  1  0  0  0  0
 13 14  2  0  0  0  0
 14  9  1  0  0  0  0
 14 19  1  0  0  0  0
 16 11  1  0  0  0  0
 17 12  1  0  0  0  0
 18 13  1  0  0  0  0
 19 20  1  0  0  0  0
 21 27  1  0  0  0  0
 21 26  1  0  0  0  0
 22 21  2  0  0  0  0
 23 22  1  0  0  0  0
 23 24  2  0  0  0  0
 24 25  1  0  0  0  0
 25 26  2  0  0  0  0
 25  1  1  0  0  0  0
 28 22  1  0  0  0  0
 29 23  1  0  0  0  0
M  END
>  <minimizedAffinity>
-5.05760622

$$$$

 OpenBabel03242521213D

 29 31  0  0  0  0  0  0  0  0999 V2000
   37.1580   27.1830   41.4540 C   0  0  0  0  0  0  0  0  0  0  0  0
   37.1090   27.0480   42.7980 C   0  0  0  0  0  0  0  0  0  0  0  0
   37.3330   28.0690   43.6800 C   0  0  0  0  0  0  0  0  0  0  0  0
   37.6210   29.2790   43.1350 N   0  0  0  0  0  0  0  0  0  0  0  0
   37.6710   29.4220   41.8010 C   0  0  0  0  0  0  0  0  0  0  0  0
   37.4490   28.4090   40.9290 N   0  0  0  0  0  0  0  0  0  0  0  0
   36.8810   26.0890   43.2540 H   0  0  0  0  0  0  0  0  0  0  0  0
   37.2930   27.9540   44.7610 H   0  0  0  0  0  0  0  0  0  0  0  0
   37.9840   30.7430   41.2170 C   0  0  0  0  0  0  0  0  0  0  0  0
   37.0030   31.4310   40.5320 C   0  0  0  0  0  0  0  0  0  0  0  0
   37.2160   32.6710   39.9560 C   0  0  0  0  0  0  0  0  0  0  0  0
   38.4740   33.2460   40.0730 C   0  0  0  0  0  0  0  0  0  0  0  0
   39.4350   32.5620   40.7480 C   0  0  0  0  0  0  0  0  0  0  0  0
   39.2230   31.3220   41.3240 C   0  0  0  0  0  0  0  0  0  0  0  0
   36.0350   30.9730   40.4510 H   0  0  0  0  0  0  0  0  0  0  0  0
   36.4250   33.1680   39.4360 H   0  0  0  0  0  0  0  0  0  0  0  0
   38.6400   34.2220   39.6190 H   0  0  0  0  0  0  0  0  0  0  0  0
   40.4210   33.0230   40.8340 H   0  0  0  0  0  0  0  0  0  0  0  0
   40.2960   30.5820   42.0650 C   0  0  0  0  0  2  0  0  0  0  0  0
   41.2750   31.0790   41.9330 H   0  0  0  0  0  0  0  0  0  0  0  0
   36.9560   23.7630   40.1560 C   0  0  0  0  0  0  0  0  0  0  0  0
   36.4600   23.9570   38.8750 C   0  0  0  0  0  0  0  0  0  0  0  0
   36.1910   25.2570   38.4450 C   0  0  0  0  0  0  0  0  0  0  0  0
   36.4310   26.2910   39.3150 N   0  0  0  0  0  0  0  0  0  0  0  0
   36.9110   26.0640   40.5460 C   0  0  0  0  0  0  0  0  0  0  0  0
   37.1740   24.8160   40.9740 N   0  0  0  0  0  0  0  0  0  0  0  0
   37.1540   22.7310   40.4560 H   0  0  0  0  0  0  0  0  0  0  0  0
   36.2520   23.1870   38.1470 H   0  0  0  0  0  0  0  0  0  0  0  0
   35.8060   25.5710   37.4860 H   0  0  0  0  0  0  0  0  0  0  0  0
  1  2  1  0  0  0  0
  2  7  1  0  0  0  0
  2  3  2  0  0  0  0
  3  8  1  0  0  0  0
  4  3  1  0  0  0  0
  5  4  2  0  0  0  0
  6  1  2  0  0  0  0
  6  5  1  0  0  0  0
  9 14  1  0  0  0  0
  9  5  1  0  0  0  0
 10  9  2  0  0  0  0
 11 12  2  0  0  0  0
 11 10  1  0  0  0  0
 12 13  1  0  0  0  0
 13 18  1  0  0  0  0
 13 14  2  0  0  0  0
 14 19  1  0  0  0  0
 15 10  1  0  0  0  0
 16 11  1  0  0  0  0
 17 12  1  0  0  0  0
 20 19  1  0  0  0  0
 21 27  1  0  0  0  0
 21 26  1  0  0  0  0
 22 21  2  0  0  0  0
 23 22  1  0  0  0  0
 23 24  2  0  0  0  0
 24 25  1  0  0  0  0
 25 26  2  0  0  0  0
 25  1  1  0  0  0  0
 28 22  1  0  0  0  0
 29 23  1  0  0  0  0
M  END
>  <minimizedAffinity>
-5.01130104

$$$$
