
 OpenBabel03242521213D

 29 31  0  0  0  0  0  0  0  0999 V2000
   45.9480   33.6850   44.6730 C   0  0  0  0  0  0  0  0  0  0  0  0
   45.1830   34.7690   44.9260 C   0  0  0  0  0  0  0  0  0  0  0  0
   44.8990   35.7400   44.0040 C   0  0  0  0  0  0  0  0  0  0  0  0
   45.4370   35.5690   42.7700 N   0  0  0  0  0  0  0  0  0  0  0  0
   46.1980   34.4940   42.5090 C   0  0  0  0  0  0  0  0  0  0  0  0
   46.4780   33.5340   43.4240 N   0  0  0  0  0  0  0  0  0  0  0  0
   44.7430   34.9260   45.9070 H   0  0  0  0  0  0  0  0  0  0  0  0
   44.2820   36.6110   44.2140 H   0  0  0  0  0  0  0  0  0  0  0  0
   46.7790   34.3160   41.1620 C   0  0  0  0  0  0  0  0  0  0  0  0
   46.0970   33.5690   40.2230 C   0  0  0  0  0  0  0  0  0  0  0  0
   46.5730   33.3550   38.9410 C   0  0  0  0  0  0  0  0  0  0  0  0
   47.7920   33.9180   38.5870 C   0  0  0  0  0  0  0  0  0  0  0  0
   48.4570   34.6520   39.5180 C   0  0  0  0  0  0  0  0  0  0  0  0
   47.9830   34.8660   40.8000 C   0  0  0  0  0  0  0  0  0  0  0  0
   45.1550   33.1420   40.5120 H   0  0  0  0  0  0  0  0  0  0  0  0
   46.0100   32.7710   38.2460 H   0  0  0  0  0  0  0  0  0  0  0  0
   48.1650   33.7490   37.5780 H   0  0  0  0  0  0  0  0  0  0  0  0
   49.4150   35.0890   39.2290 H   0  0  0  0  0  0  0  0  0  0  0  0
   48.7320   35.6780   41.8130 C   0  0  0  0  0  2  0  0  0  0  0  0
   48.2260   35.6370   42.7960 H   0  0  0  0  0  0  0  0  0  0  0  0
   46.1820   30.4280   46.3330 C   0  0  0  0  0  0  0  0  0  0  0  0
   46.7360   30.7560   47.5620 C   0  0  0  0  0  0  0  0  0  0  0  0
   47.0340   32.0930   47.8330 C   0  0  0  0  0  0  0  0  0  0  0  0
   46.7630   33.0260   46.8640 N   0  0  0  0  0  0  0  0  0  0  0  0
   46.2270   32.6700   45.6880 C   0  0  0  0  0  0  0  0  0  0  0  0
   45.9360   31.3860   45.4130 N   0  0  0  0  0  0  0  0  0  0  0  0
   45.9640   29.3710   46.1580 H   0  0  0  0  0  0  0  0  0  0  0  0
   46.9710   30.0690   48.3610 H   0  0  0  0  0  0  0  0  0  0  0  0
   47.4630   32.5060   48.7330 H   0  0  0  0  0  0  0  0  0  0  0  0
  1  2  1  0  0  0  0
  1 25  1  0  0  0  0
  2  7  1  0  0  0  0
  3  8  1  0  0  0  0
  3  2  2  0  0  0  0
  4  3  1  0  0  0  0
  5  4  2  0  0  0  0
  5  6  1  0  0  0  0
  6  1  2  0  0  0  0
  9  5  1  0  0  0  0
 10 15  1  0  0  0  0
 10  9  2  0  0  0  0
 11 10  1  0  0  0  0
 12 11  2  0  0  0  0
 12 13  1  0  0  0  0
 13 14  2  0  0  0  0
 14  9  1  0  0  0  0
 14 19  1  0  0  0  0
 16 11  1  0  0  0  0
 17 12  1  0  0  0  0
 18 13  1  0  0  0  0
 19 20  1  0  0  0  0
 21 22  1  0  0  0  0
 22 23  2  0  0  0  0
 22 28  1  0  0  0  0
 23 29  1  0  0  0  0
 24 23  1  0  0  0  0
 25 24  2  0  0  0  0
 26 25  1  0  0  0  0
 26 21  2  0  0  0  0
 27 21  1  0  0  0  0
M  END
>  <minimizedAffinity>
-5.71098566

>  <minimizedRMSD>
1.08666098

$$$$
