
 OpenBabel03252509123D

 25 27  0  0  0  0  0  0  0  0999 V2000
   47.4340   32.6270   44.1920 C   0  0  0  0  0  0  0  0  0  0  0  0
   46.8460   33.6990   43.5450 C   0  0  0  0  0  0  0  0  0  0  0  0
   45.8640   34.4610   44.1220 C   0  0  0  0  0  0  0  0  0  0  0  0
   45.4140   34.1740   45.4150 C   0  0  0  0  0  0  0  0  0  0  0  0
   44.5030   34.6770   46.2810 N   0  0  0  0  0  0  0  0  0  0  0  0
   44.5150   33.9570   47.4220 C   0  0  0  0  0  0  0  0  0  0  0  0
   45.4480   33.0000   47.2510 N   0  0  0  0  0  0  0  0  0  0  0  0
   46.0140   33.1040   46.0380 C   0  0  0  0  0  0  0  0  0  0  0  0
   47.0110   32.3110   45.4830 C   0  0  0  0  0  0  0  0  0  0  0  0
   48.2150   32.0400   43.7020 H   0  0  0  0  0  0  0  0  0  0  0  0
   43.9050   35.5180   46.0240 H   0  0  0  0  0  0  0  0  0  0  0  0
   43.8350   34.2420   48.2160 H   0  0  0  0  0  0  0  0  0  0  0  0
   47.4370   31.4850   46.0340 H   0  0  0  0  0  0  0  0  0  0  0  0
   47.1250   33.7200   39.8920 C   0  0  0  0  0  0  0  0  0  0  0  0
   48.1030   34.6730   39.6590 C   0  0  0  0  0  0  0  0  0  0  0  0
   48.6700   35.3100   40.7580 C   0  0  0  0  0  0  0  0  0  0  0  0
   48.2420   34.9740   42.0160 N   0  0  0  0  0  0  0  0  0  0  0  0
   47.2810   34.0350   42.1940 C   0  0  0  0  0  0  0  0  0  0  0  0
   46.7080   33.3950   41.1420 N   0  0  0  0  0  0  0  0  0  0  0  0
   46.6590   33.2010   39.0660 H   0  0  0  0  0  0  0  0  0  0  0  0
   48.4130   34.9070   38.6520 H   0  0  0  0  0  0  0  0  0  0  0  0
   49.4390   36.0620   40.6070 H   0  0  0  0  0  0  0  0  0  0  0  0
   45.1010   35.8450   43.2980 S   0  0  0  0  0  0  0  0  0  0  0  0
   43.7610   35.3450   42.2020 C   0  0  0  0  0  0  0  0  0  0  0  0
   42.9860   34.7230   42.6850 H   0  0  0  0  0  0  0  0  0  0  0  0
  1  9  1  0  0  0  0
  2  3  1  0  0  0  0
  2  1  2  0  0  0  0
  3  4  2  0  0  0  0
  4  8  1  0  0  0  0
  4  5  1  0  0  0  0
  5  6  1  0  0  0  0
  6 12  1  0  0  0  0
  7  6  2  0  0  0  0
  8  7  1  0  0  0  0
  9 13  1  0  0  0  0
  9  8  2  0  0  0  0
 10  1  1  0  0  0  0
 11  5  1  0  0  0  0
 14 19  1  0  0  0  0
 15 14  2  0  0  0  0
 15 16  1  0  0  0  0
 16 17  2  0  0  0  0
 17 18  1  0  0  0  0
 18  2  1  0  0  0  0
 19 18  2  0  0  0  0
 20 14  1  0  0  0  0
 21 15  1  0  0  0  0
 22 16  1  0  0  0  0
 23  3  1  0  0  0  0
 24 25  1  0  0  0  0
 24 23  1  0  0  0  0
M  END
>  <minimizedAffinity>
-4.76726437

>  <minimizedRMSD>
1.64790058

$$$$
