
 OpenBabel03252507033D

 40 42  0  0  0  0  0  0  0  0999 V2000
   43.1610   33.1530   41.3970 C   0  0  0  0  0  0  0  0  0  0  0  0
   43.0820   32.2230   42.0120 H   0  0  0  0  0  0  0  0  0  0  0  0
   43.4560   32.8520   40.3590 H   0  0  0  0  0  0  0  0  0  0  0  0
   44.2130   34.0390   41.9250 C   0  0  0  0  0  0  0  0  0  0  0  0
   43.8870   35.2590   42.4720 C   0  0  0  0  0  0  0  0  0  0  0  0
   44.9130   36.0660   42.9460 C   0  0  0  0  0  0  0  0  0  0  0  0
   46.1930   35.6050   42.8460 N   0  0  0  0  0  0  0  0  0  0  0  0
   46.4690   34.4170   42.3120 C   0  0  0  0  0  0  0  0  0  0  0  0
   45.4680   33.6580   41.8610 N   0  0  0  0  0  0  0  0  0  0  0  0
   42.9590   35.7740   42.6480 H   0  0  0  0  0  0  0  0  0  0  0  0
   44.8400   37.0510   43.4040 H   0  0  0  0  0  0  0  0  0  0  0  0
   47.8690   33.9950   42.2780 C   0  0  0  0  0  0  0  0  0  0  0  0
   48.2010   32.6660   42.0340 C   0  0  0  0  0  0  0  0  0  0  0  0
   49.5100   32.2600   42.0120 C   0  0  0  0  0  0  0  0  0  0  0  0
   50.4200   33.2760   42.2510 C   0  0  0  0  0  0  0  0  0  0  0  0
   50.1430   34.6140   42.4990 C   0  0  0  0  0  0  0  0  0  0  0  0
   48.8180   34.9190   42.5000 N   0  0  0  0  0  0  0  0  0  0  0  0
   47.4220   31.9320   41.8570 H   0  0  0  0  0  0  0  0  0  0  0  0
   49.8520   31.2630   41.8330 H   0  0  0  0  0  0  0  0  0  0  0  0
   51.4820   33.0280   42.2490 H   0  0  0  0  0  0  0  0  0  0  0  0
   50.9220   35.3230   42.6710 H   0  0  0  0  0  0  0  0  0  0  0  0
   41.8830   33.9170   41.3600 C   0  0  0  0  0  0  0  0  0  0  0  0
   41.4830   33.9350   42.3970 H   0  0  0  0  0  0  0  0  0  0  0  0
   42.2150   35.0000   41.2050 H   0  0  0  0  0  0  0  0  0  0  0  0
   41.0200   33.4710   40.4560 N   0  0  0  0  0  0  0  0  0  0  0  0
   40.2650   32.2780   40.4430 C   0  0  0  0  0  0  0  0  0  0  0  0
   38.8850   32.8790   40.7830 C   0  0  0  0  0  0  0  0  0  0  0  0
   38.4170   33.8230   39.7820 C   0  0  0  0  0  0  0  0  0  0  0  0
   39.3730   34.5360   38.9630 C   0  0  0  0  0  0  0  0  0  0  0  0
   40.8260   34.3830   39.3100 C   0  0  0  0  0  0  0  0  0  0  0  0
   40.2600   31.6460   39.5710 H   0  0  0  0  0  0  0  0  0  0  0  0
   40.5120   31.6590   41.3330 H   0  0  0  0  0  0  0  0  0  0  0  0
   38.2090   32.0070   40.9270 H   0  0  0  0  0  0  0  0  0  0  0  0
   39.0150   33.3290   41.7970 H   0  0  0  0  0  0  0  0  0  0  0  0
   37.7300   34.5810   40.2560 H   0  0  0  0  0  0  0  0  0  0  0  0
   37.7300   33.2730   39.0740 H   0  0  0  0  0  0  0  0  0  0  0  0
   39.1750   35.1790   38.1440 H   0  0  0  0  0  0  0  0  0  0  0  0
   42.0740   35.2570   38.4330 S   0  0  0  0  0  0  0  0  0  0  0  0
   41.2370   36.3870   37.2900 C   0  0  0  0  0  0  0  0  0  0  0  0
   41.4500   37.4480   37.5360 H   0  0  0  0  0  0  0  0  0  0  0  0
  1  4  1  0  0  0  0
  1  2  1  0  0  0  0
  3  1  1  0  0  0  0
  4  5  1  0  0  0  0
  5 10  1  0  0  0  0
  5  6  2  0  0  0  0
  6 11  1  0  0  0  0
  7  6  1  0  0  0  0
  8  7  2  0  0  0  0
  9  4  2  0  0  0  0
  9  8  1  0  0  0  0
 12  8  1  0  0  0  0
 12 17  1  0  0  0  0
 13 12  2  0  0  0  0
 14 13  1  0  0  0  0
 14 15  2  0  0  0  0
 15 16  1  0  0  0  0
 16 17  2  0  0  0  0
 16 21  1  0  0  0  0
 18 13  1  0  0  0  0
 19 14  1  0  0  0  0
 20 15  1  0  0  0  0
 22  1  1  0  0  0  0
 22 23  1  0  0  0  0
 24 22  1  0  0  0  0
 25 22  1  0  0  0  0
 26 25  1  0  0  0  0
 26 27  1  0  0  0  0
 26 32  1  0  0  0  0
 27 33  1  0  0  0  0
 27 34  1  0  0  0  0
 28 35  1  0  0  0  0
 28 27  1  0  0  0  0
 29 30  2  0  0  0  0
 29 28  1  0  0  0  0
 30 25  1  0  0  0  0
 31 26  1  0  0  0  0
 36 28  1  0  0  0  0
 37 29  1  0  0  0  0
 38 30  1  0  0  0  0
 39 40  1  0  0  0  0
 39 38  1  0  0  0  0
M  END
>  <minimizedAffinity>
-5.43237019

>  <minimizedRMSD>
0.174579009

$$$$
