
 OpenBabel03242516443D

 24 26  0  0  1  0  0  0  0  0999 V2000
   37.9160   24.3150   42.0680 C   0  0  1  0  0  0  0  0  0  0  0  0
   36.8890   25.3090   42.4250 C   0  0  2  0  0  0  0  0  0  0  0  0
   36.9130   24.7760   41.0680 C   0  0  0  0  0  0  0  0  0  0  0  0
   37.7680   23.3170   42.4950 H   0  0  0  0  0  0  0  0  0  0  0  0
   36.1180   24.9520   43.1450 H   0  0  0  0  0  0  0  0  0  0  0  0
   36.0930   24.0750   40.7650 H   0  0  0  0  0  0  0  0  0  0  0  0
   37.2440   25.4010   40.2200 H   0  0  0  0  0  0  0  0  0  0  0  0
   40.1480   24.7350   43.0670 C   0  0  0  0  0  0  0  0  0  0  0  0
   39.3420   24.6680   41.9180 C   0  0  0  0  0  0  0  0  0  0  0  0
   39.9370   24.9320   40.6930 C   0  0  0  0  0  0  0  0  0  0  0  0
   41.2590   25.2400   40.6740 N   0  0  0  0  0  0  0  0  0  0  0  0
   42.0110   25.2990   41.7780 C   0  0  0  0  0  0  0  0  0  0  0  0
   41.4480   25.0430   42.9960 N   0  0  0  0  0  0  0  0  0  0  0  0
   39.6680   24.5240   44.0290 H   0  0  0  0  0  0  0  0  0  0  0  0
   39.3580   24.8910   39.8020 H   0  0  0  0  0  0  0  0  0  0  0  0
   43.0590   25.5390   41.8030 H   0  0  0  0  0  0  0  0  0  0  0  0
   37.1120   26.7620   42.5600 C   0  0  0  0  0  0  0  0  0  0  0  0
   37.7530   27.4540   43.5350 N   0  0  0  0  0  0  0  0  0  0  0  0
   37.6990   28.7760   43.2650 C   0  0  0  0  0  0  0  0  0  0  0  0
   37.0140   28.8950   42.1100 N   0  0  0  0  0  0  0  0  0  0  0  0
   36.6540   27.7080   41.6700 N   0  0  0  0  0  0  0  0  0  0  0  0
   38.0840   29.6440   43.7890 H   0  0  0  0  0  0  0  0  0  0  0  0
   36.6800   30.1240   41.3880 C   0  0  0  0  0  2  0  0  0  0  0  0
   37.2000   30.1730   40.4050 H   0  0  0  0  0  0  0  0  0  0  0  0
  1  2  1  0  0  0  0
  1  4  1  1  0  0  0
  2 17  1  0  0  0  0
  2  5  1  1  0  0  0
  3  1  1  0  0  0  0
  3  2  1  0  0  0  0
  6  3  1  0  0  0  0
  7  3  1  0  0  0  0
  8 14  1  0  0  0  0
  9  1  1  0  0  0  0
  9  8  2  0  0  0  0
 10  9  1  0  0  0  0
 11 10  2  0  0  0  0
 11 12  1  0  0  0  0
 12 16  1  0  0  0  0
 12 13  2  0  0  0  0
 13  8  1  0  0  0  0
 15 10  1  0  0  0  0
 17 18  1  0  0  0  0
 19 18  2  0  0  0  0
 19 22  1  0  0  0  0
 20 19  1  0  0  0  0
 21 20  1  0  0  0  0
 21 17  2  0  0  0  0
 23 20  1  0  0  0  0
 24 23  1  0  0  0  0
M  END
>  <minimizedAffinity>
-4.36769915

$$$$

 OpenBabel03242516443D

 24 26  0  0  1  0  0  0  0  0999 V2000
   35.6130   28.8430   40.8760 C   0  0  1  0  0  0  0  0  0  0  0  0
   35.7360   30.0670   40.0660 C   0  0  2  0  0  0  0  0  0  0  0  0
   35.7310   28.7740   39.3930 C   0  0  0  0  0  0  0  0  0  0  0  0
   34.6200   28.6640   41.3030 H   0  0  0  0  0  0  0  0  0  0  0  0
   34.8250   30.7080   40.0380 H   0  0  0  0  0  0  0  0  0  0  0  0
   34.8260   28.4980   38.7930 H   0  0  0  0  0  0  0  0  0  0  0  0
   36.6530   28.3660   38.9430 H   0  0  0  0  0  0  0  0  0  0  0  0
   37.1120   27.0120   41.6200 C   0  0  0  0  0  0  0  0  0  0  0  0
   36.7050   28.3510   41.7400 C   0  0  0  0  0  0  0  0  0  0  0  0
   37.3630   29.1480   42.6650 C   0  0  0  0  0  0  0  0  0  0  0  0
   38.3590   28.5900   43.4000 N   0  0  0  0  0  0  0  0  0  0  0  0
   38.7330   27.3130   43.2730 C   0  0  0  0  0  0  0  0  0  0  0  0
   38.1010   26.5090   42.3690 N   0  0  0  0  0  0  0  0  0  0  0  0
   36.5860   26.3910   40.8860 H   0  0  0  0  0  0  0  0  0  0  0  0
   37.0820   30.1670   42.7830 H   0  0  0  0  0  0  0  0  0  0  0  0
   39.5160   26.8380   43.8360 H   0  0  0  0  0  0  0  0  0  0  0  0
   36.9610   30.8770   39.9160 C   0  0  0  0  0  0  0  0  0  0  0  0
   38.0910   30.6180   39.2120 N   0  0  0  0  0  0  0  0  0  0  0  0
   38.9720   31.6290   39.3750 C   0  0  0  0  0  0  0  0  0  0  0  0
   38.3720   32.5190   40.1900 N   0  0  0  0  0  0  0  0  0  0  0  0
   37.1730   32.0940   40.5270 N   0  0  0  0  0  0  0  0  0  0  0  0
   39.9690   31.7970   38.9850 H   0  0  0  0  0  0  0  0  0  0  0  0
   38.9070   33.7930   40.6760 C   0  0  0  0  0  2  0  0  0  0  0  0
   38.3320   34.6560   40.2730 H   0  0  0  0  0  0  0  0  0  0  0  0
  1  4  1  1  0  0  0
  1  9  1  0  0  0  0
  2  5  1  6  0  0  0
  2  1  1  0  0  0  0
  3  2  1  0  0  0  0
  3  1  1  0  0  0  0
  6  3  1  0  0  0  0
  7  3  1  0  0  0  0
  8  9  2  0  0  0  0
  8 13  1  0  0  0  0
  9 10  1  0  0  0  0
 10 15  1  0  0  0  0
 10 11  2  0  0  0  0
 12 11  1  0  0  0  0
 12 16  1  0  0  0  0
 13 12  2  0  0  0  0
 14  8  1  0  0  0  0
 17  2  1  0  0  0  0
 17 21  2  0  0  0  0
 18 19  2  0  0  0  0
 18 17  1  0  0  0  0
 19 20  1  0  0  0  0
 20 21  1  0  0  0  0
 20 23  1  0  0  0  0
 22 19  1  0  0  0  0
 24 23  1  0  0  0  0
M  END
>  <minimizedAffinity>
-4.32540941

$$$$

 OpenBabel03242516443D

 24 26  0  0  1  0  0  0  0  0999 V2000
   36.2210   29.3150   39.3540 C   0  0  1  0  0  0  0  0  0  0  0  0
   36.2340   28.2320   40.3520 C   0  0  2  0  0  0  0  0  0  0  0  0
   35.1170   29.1690   40.3430 C   0  0  0  0  0  0  0  0  0  0  0  0
   36.0110   29.0010   38.3260 H   0  0  0  0  0  0  0  0  0  0  0  0
   36.0990   27.2070   39.9370 H   0  0  0  0  0  0  0  0  0  0  0  0
   34.1220   28.7950   39.9880 H   0  0  0  0  0  0  0  0  0  0  0  0
   35.0030   29.9230   41.1420 H   0  0  0  0  0  0  0  0  0  0  0  0
   38.4240   30.3450   38.8600 C   0  0  0  0  0  0  0  0  0  0  0  0
   37.1420   30.4680   39.4240 C   0  0  0  0  0  0  0  0  0  0  0  0
   36.8060   31.6780   40.0130 C   0  0  0  0  0  0  0  0  0  0  0  0
   37.7310   32.6710   40.0120 N   0  0  0  0  0  0  0  0  0  0  0  0
   38.9460   32.5370   39.4710 C   0  0  0  0  0  0  0  0  0  0  0  0
   39.3010   31.3560   38.8850 N   0  0  0  0  0  0  0  0  0  0  0  0
   38.6780   29.3860   38.3970 H   0  0  0  0  0  0  0  0  0  0  0  0
   35.8440   31.8070   40.4490 H   0  0  0  0  0  0  0  0  0  0  0  0
   39.7040   33.3000   39.4510 H   0  0  0  0  0  0  0  0  0  0  0  0
   37.0550   28.2060   41.5790 C   0  0  0  0  0  0  0  0  0  0  0  0
   37.1390   29.1110   42.5850 N   0  0  0  0  0  0  0  0  0  0  0  0
   38.0380   28.6910   43.5020 C   0  0  0  0  0  0  0  0  0  0  0  0
   38.5100   27.5120   43.0500 N   0  0  0  0  0  0  0  0  0  0  0  0
   37.9400   27.2010   41.9060 N   0  0  0  0  0  0  0  0  0  0  0  0
   38.3840   29.1230   44.4340 H   0  0  0  0  0  0  0  0  0  0  0  0
   39.5090   26.6460   43.6790 C   0  0  0  0  0  2  0  0  0  0  0  0
   39.0630   25.6780   44.0010 H   0  0  0  0  0  0  0  0  0  0  0  0
  1  4  1  6  0  0  0
  1  9  1  0  0  0  0
  1  3  1  0  0  0  0
  1  2  1  0  0  0  0
  2  5  1  6  0  0  0
  2 17  1  0  0  0  0
  3  2  1  0  0  0  0
  3  7  1  0  0  0  0
  6  3  1  0  0  0  0
  8 13  2  0  0  0  0
  8  9  1  0  0  0  0
  9 10  2  0  0  0  0
 10 15  1  0  0  0  0
 11 10  1  0  0  0  0
 12 11  2  0  0  0  0
 13 12  1  0  0  0  0
 14  8  1  0  0  0  0
 16 12  1  0  0  0  0
 17 21  2  0  0  0  0
 17 18  1  0  0  0  0
 18 19  2  0  0  0  0
 19 22  1  0  0  0  0
 20 19  1  0  0  0  0
 20 23  1  0  0  0  0
 21 20  1  0  0  0  0
 23 24  1  0  0  0  0
M  END
>  <minimizedAffinity>
-4.13537073

$$$$

 OpenBabel03242516443D

 24 26  0  0  1  0  0  0  0  0999 V2000
   38.2370   28.1870   43.3290 C   0  0  1  0  0  0  0  0  0  0  0  0
   38.5020   26.7380   43.3000 C   0  0  2  0  0  0  0  0  0  0  0  0
   39.5830   27.6590   42.9720 C   0  0  0  0  0  0  0  0  0  0  0  0
   38.1230   28.6210   44.3290 H   0  0  0  0  0  0  0  0  0  0  0  0
   38.4860   26.2360   44.2940 H   0  0  0  0  0  0  0  0  0  0  0  0
   40.4190   27.7720   43.7090 H   0  0  0  0  0  0  0  0  0  0  0  0
   39.9450   27.7610   41.9340 H   0  0  0  0  0  0  0  0  0  0  0  0
   37.8120   30.1090   41.8190 C   0  0  0  0  0  0  0  0  0  0  0  0
   37.4010   28.8600   42.3140 C   0  0  0  0  0  0  0  0  0  0  0  0
   36.2280   28.3180   41.8110 C   0  0  0  0  0  0  0  0  0  0  0  0
   35.5440   29.0230   40.8740 N   0  0  0  0  0  0  0  0  0  0  0  0
   35.9500   30.2110   40.4150 C   0  0  0  0  0  0  0  0  0  0  0  0
   37.1020   30.7660   40.8940 N   0  0  0  0  0  0  0  0  0  0  0  0
   38.7410   30.5280   42.2230 H   0  0  0  0  0  0  0  0  0  0  0  0
   35.8860   27.3730   42.1620 H   0  0  0  0  0  0  0  0  0  0  0  0
   35.4360   30.7980   39.6740 H   0  0  0  0  0  0  0  0  0  0  0  0
   38.0860   25.8110   42.2290 C   0  0  0  0  0  0  0  0  0  0  0  0
   37.1030   24.8760   42.2240 N   0  0  0  0  0  0  0  0  0  0  0  0
   37.0880   24.2380   41.0340 C   0  0  0  0  0  0  0  0  0  0  0  0
   38.0750   24.7890   40.3000 N   0  0  0  0  0  0  0  0  0  0  0  0
   38.6850   25.7300   40.9900 N   0  0  0  0  0  0  0  0  0  0  0  0
   36.4640   23.4410   40.6420 H   0  0  0  0  0  0  0  0  0  0  0  0
   38.4730   24.4490   38.9330 C   0  0  0  0  0  2  0  0  0  0  0  0
   38.2770   25.2910   38.2310 H   0  0  0  0  0  0  0  0  0  0  0  0
  1  4  1  1  0  0  0
  2  1  1  0  0  0  0
  2  5  1  1  0  0  0
  3  2  1  0  0  0  0
  3  1  1  0  0  0  0
  3  6  1  0  0  0  0
  7  3  1  0  0  0  0
  8 14  1  0  0  0  0
  8  9  1  0  0  0  0
  9  1  1  0  0  0  0
 10 15  1  0  0  0  0
 10  9  2  0  0  0  0
 11 10  1  0  0  0  0
 12 11  2  0  0  0  0
 12 13  1  0  0  0  0
 13  8  2  0  0  0  0
 16 12  1  0  0  0  0
 17  2  1  0  0  0  0
 18 17  1  0  0  0  0
 19 18  2  0  0  0  0
 20 21  1  0  0  0  0
 20 19  1  0  0  0  0
 21 17  2  0  0  0  0
 22 19  1  0  0  0  0
 23 20  1  0  0  0  0
 24 23  1  0  0  0  0
M  END
>  <minimizedAffinity>
-4.13258457

$$$$

 OpenBabel03242516443D

 24 26  0  0  1  0  0  0  0  0999 V2000
   38.0060   27.2900   43.2890 C   0  0  1  0  0  0  0  0  0  0  0  0
   37.3490   28.6060   43.2010 C   0  0  2  0  0  0  0  0  0  0  0  0
   36.5790   27.4640   43.6800 C   0  0  0  0  0  0  0  0  0  0  0  0
   38.7330   27.1850   44.1020 H   0  0  0  0  0  0  0  0  0  0  0  0
   37.7180   29.3670   43.9250 H   0  0  0  0  0  0  0  0  0  0  0  0
   36.3100   27.4310   44.7660 H   0  0  0  0  0  0  0  0  0  0  0  0
   35.7890   27.0110   43.0550 H   0  0  0  0  0  0  0  0  0  0  0  0
   39.5160   26.8570   41.3690 C   0  0  0  0  0  0  0  0  0  0  0  0
   38.3660   26.5020   42.0930 C   0  0  0  0  0  0  0  0  0  0  0  0
   37.6280   25.4160   41.6460 C   0  0  0  0  0  0  0  0  0  0  0  0
   38.0580   24.7600   40.5380 N   0  0  0  0  0  0  0  0  0  0  0  0
   39.1560   25.1120   39.8610 C   0  0  0  0  0  0  0  0  0  0  0  0
   39.8990   26.1780   40.2810 N   0  0  0  0  0  0  0  0  0  0  0  0
   40.0920   27.7160   41.7310 H   0  0  0  0  0  0  0  0  0  0  0  0
   36.7520   25.1170   42.1690 H   0  0  0  0  0  0  0  0  0  0  0  0
   39.5270   24.6180   38.9800 H   0  0  0  0  0  0  0  0  0  0  0  0
   36.8690   29.2430   41.9580 C   0  0  0  0  0  0  0  0  0  0  0  0
   35.8800   28.8580   41.1120 N   0  0  0  0  0  0  0  0  0  0  0  0
   35.7960   29.7290   40.0840 C   0  0  0  0  0  0  0  0  0  0  0  0
   36.7460   30.6600   40.3030 N   0  0  0  0  0  0  0  0  0  0  0  0
   37.3990   30.3920   41.4140 N   0  0  0  0  0  0  0  0  0  0  0  0
   35.1470   29.7730   39.2160 H   0  0  0  0  0  0  0  0  0  0  0  0
   37.0680   31.8260   39.4770 C   0  0  0  0  0  2  0  0  0  0  0  0
   36.8400   32.7760   40.0090 H   0  0  0  0  0  0  0  0  0  0  0  0
  1  3  1  0  0  0  0
  1  4  1  1  0  0  0
  2  1  1  0  0  0  0
  2  3  1  0  0  0  0
  2  5  1  1  0  0  0
  3  6  1  0  0  0  0
  7  3  1  0  0  0  0
  8 14  1  0  0  0  0
  8  9  1  0  0  0  0
  9  1  1  0  0  0  0
 10  9  2  0  0  0  0
 10 15  1  0  0  0  0
 11 10  1  0  0  0  0
 12 13  1  0  0  0  0
 12 11  2  0  0  0  0
 13  8  2  0  0  0  0
 16 12  1  0  0  0  0
 17  2  1  0  0  0  0
 18 17  1  0  0  0  0
 19 20  1  0  0  0  0
 19 18  2  0  0  0  0
 20 21  1  0  0  0  0
 21 17  2  0  0  0  0
 22 19  1  0  0  0  0
 23 24  1  0  0  0  0
 23 20  1  0  0  0  0
M  END
>  <minimizedAffinity>
-4.12249041

$$$$

 OpenBabel03242516443D

 24 26  0  0  1  0  0  0  0  0999 V2000
   37.9580   26.9690   43.5400 C   0  0  1  0  0  0  0  0  0  0  0  0
   37.6230   28.3960   43.6800 C   0  0  2  0  0  0  0  0  0  0  0  0
   36.5640   27.4540   43.3400 C   0  0  0  0  0  0  0  0  0  0  0  0
   38.1710   26.4450   44.4780 H   0  0  0  0  0  0  0  0  0  0  0  0
   37.6950   28.7980   44.7160 H   0  0  0  0  0  0  0  0  0  0  0  0
   35.7960   27.2230   44.1230 H   0  0  0  0  0  0  0  0  0  0  0  0
   36.1250   27.4350   42.3270 H   0  0  0  0  0  0  0  0  0  0  0  0
   40.1420   26.5380   42.4430 C   0  0  0  0  0  0  0  0  0  0  0  0
   38.7400   26.4460   42.4010 C   0  0  0  0  0  0  0  0  0  0  0  0
   38.1630   25.8560   41.2860 C   0  0  0  0  0  0  0  0  0  0  0  0
   38.9820   25.4040   40.3020 N   0  0  0  0  0  0  0  0  0  0  0  0
   40.3140   25.5000   40.3590 C   0  0  0  0  0  0  0  0  0  0  0  0
   40.9060   26.0760   41.4460 N   0  0  0  0  0  0  0  0  0  0  0  0
   40.5870   27.0050   43.3290 H   0  0  0  0  0  0  0  0  0  0  0  0
   37.1050   25.7690   41.2200 H   0  0  0  0  0  0  0  0  0  0  0  0
   40.9930   25.1540   39.6010 H   0  0  0  0  0  0  0  0  0  0  0  0
   37.9080   29.4460   42.6810 C   0  0  0  0  0  0  0  0  0  0  0  0
   39.0610   30.1150   42.4310 N   0  0  0  0  0  0  0  0  0  0  0  0
   38.8620   31.0090   41.4380 C   0  0  0  0  0  0  0  0  0  0  0  0
   37.5700   30.8860   41.0760 N   0  0  0  0  0  0  0  0  0  0  0  0
   36.9800   29.9600   41.8020 N   0  0  0  0  0  0  0  0  0  0  0  0
   39.5220   31.7220   40.9560 H   0  0  0  0  0  0  0  0  0  0  0  0
   36.8530   31.6320   40.0390 C   0  0  0  0  0  2  0  0  0  0  0  0
   36.5440   30.9690   39.2010 H   0  0  0  0  0  0  0  0  0  0  0  0
  1  2  1  0  0  0  0
  1  4  1  1  0  0  0
  2  5  1  1  0  0  0
  3  1  1  0  0  0  0
  3  2  1  0  0  0  0
  3  6  1  0  0  0  0
  7  3  1  0  0  0  0
  8 14  1  0  0  0  0
  9  8  1  0  0  0  0
  9  1  1  0  0  0  0
 10  9  2  0  0  0  0
 11 12  2  0  0  0  0
 11 10  1  0  0  0  0
 12 13  1  0  0  0  0
 13  8  2  0  0  0  0
 15 10  1  0  0  0  0
 16 12  1  0  0  0  0
 17  2  1  0  0  0  0
 18 17  1  0  0  0  0
 19 18  2  0  0  0  0
 20 19  1  0  0  0  0
 20 21  1  0  0  0  0
 21 17  2  0  0  0  0
 22 19  1  0  0  0  0
 23 20  1  0  0  0  0
 24 23  1  0  0  0  0
M  END
>  <minimizedAffinity>
-4.12246084

$$$$

 OpenBabel03242516443D

 24 26  0  0  1  0  0  0  0  0999 V2000
   35.6740   28.7700   40.9310 C   0  0  1  0  0  0  0  0  0  0  0  0
   35.5650   29.9970   40.1230 C   0  0  2  0  0  0  0  0  0  0  0  0
   35.5420   28.7040   39.4490 C   0  0  0  0  0  0  0  0  0  0  0  0
   34.7850   28.5170   41.5200 H   0  0  0  0  0  0  0  0  0  0  0  0
   34.6180   30.5670   40.2580 H   0  0  0  0  0  0  0  0  0  0  0  0
   34.5710   28.3590   39.0090 H   0  0  0  0  0  0  0  0  0  0  0  0
   36.4010   28.3650   38.8440 H   0  0  0  0  0  0  0  0  0  0  0  0
   37.4060   29.1270   42.6720 C   0  0  0  0  0  0  0  0  0  0  0  0
   36.9320   28.3640   41.5900 C   0  0  0  0  0  0  0  0  0  0  0  0
   37.6740   27.2580   41.2030 C   0  0  0  0  0  0  0  0  0  0  0  0
   38.8120   26.9770   41.8870 N   0  0  0  0  0  0  0  0  0  0  0  0
   39.2490   27.7130   42.9140 C   0  0  0  0  0  0  0  0  0  0  0  0
   38.5350   28.8060   43.3140 N   0  0  0  0  0  0  0  0  0  0  0  0
   36.8120   29.9970   42.9700 H   0  0  0  0  0  0  0  0  0  0  0  0
   37.3460   26.6580   40.3880 H   0  0  0  0  0  0  0  0  0  0  0  0
   40.1430   27.5210   43.4790 H   0  0  0  0  0  0  0  0  0  0  0  0
   36.6830   30.8960   39.7740 C   0  0  0  0  0  0  0  0  0  0  0  0
   37.0590   32.0710   40.3380 N   0  0  0  0  0  0  0  0  0  0  0  0
   38.1310   32.5680   39.6820 C   0  0  0  0  0  0  0  0  0  0  0  0
   38.4130   31.6860   38.7030 N   0  0  0  0  0  0  0  0  0  0  0  0
   37.5640   30.6800   38.7370 N   0  0  0  0  0  0  0  0  0  0  0  0
   38.7180   33.4690   39.8230 H   0  0  0  0  0  0  0  0  0  0  0  0
   39.4860   31.7610   37.7100 C   0  0  0  0  0  2  0  0  0  0  0  0
   40.2330   30.9490   37.8550 H   0  0  0  0  0  0  0  0  0  0  0  0
  1  4  1  1  0  0  0
  1  9  1  0  0  0  0
  2  5  1  1  0  0  0
  2  1  1  0  0  0  0
  3  2  1  0  0  0  0
  3  1  1  0  0  0  0
  6  3  1  0  0  0  0
  7  3  1  0  0  0  0
  8 14  1  0  0  0  0
  8 13  1  0  0  0  0
  9  8  2  0  0  0  0
 10  9  1  0  0  0  0
 10 11  2  0  0  0  0
 11 12  1  0  0  0  0
 12 13  2  0  0  0  0
 12 16  1  0  0  0  0
 15 10  1  0  0  0  0
 17  2  1  0  0  0  0
 17 18  1  0  0  0  0
 19 22  1  0  0  0  0
 19 18  2  0  0  0  0
 20 21  1  0  0  0  0
 20 19  1  0  0  0  0
 21 17  2  0  0  0  0
 23 24  1  0  0  0  0
 23 20  1  0  0  0  0
M  END
>  <minimizedAffinity>
-4.11715984

$$$$

 OpenBabel03242516443D

 24 26  0  0  1  0  0  0  0  0999 V2000
   39.9860   25.7730   43.6790 C   0  0  1  0  0  0  0  0  0  0  0  0
   39.7060   24.5320   42.9370 C   0  0  2  0  0  0  0  0  0  0  0  0
   41.0070   25.1700   42.7770 C   0  0  0  0  0  0  0  0  0  0  0  0
   40.1410   25.6470   44.7570 H   0  0  0  0  0  0  0  0  0  0  0  0
   39.6120   23.6170   43.5650 H   0  0  0  0  0  0  0  0  0  0  0  0
   41.8980   24.6670   43.2320 H   0  0  0  0  0  0  0  0  0  0  0  0
   41.2720   25.6890   41.8390 H   0  0  0  0  0  0  0  0  0  0  0  0
   38.0020   27.2630   43.6790 C   0  0  0  0  0  0  0  0  0  0  0  0
   39.3500   27.0610   43.3380 C   0  0  0  0  0  0  0  0  0  0  0  0
   40.0180   28.0960   42.7000 C   0  0  0  0  0  0  0  0  0  0  0  0
   39.3340   29.2400   42.4420 N   0  0  0  0  0  0  0  0  0  0  0  0
   38.0510   29.4140   42.7750 C   0  0  0  0  0  0  0  0  0  0  0  0
   37.3720   28.4100   43.4030 N   0  0  0  0  0  0  0  0  0  0  0  0
   37.4840   26.4390   44.1830 H   0  0  0  0  0  0  0  0  0  0  0  0
   41.0400   27.9790   42.4270 H   0  0  0  0  0  0  0  0  0  0  0  0
   37.4780   30.3050   42.5870 H   0  0  0  0  0  0  0  0  0  0  0  0
   38.8750   24.4290   41.7200 C   0  0  0  0  0  0  0  0  0  0  0  0
   39.1280   24.8590   40.4590 N   0  0  0  0  0  0  0  0  0  0  0  0
   38.0760   24.5730   39.6610 C   0  0  0  0  0  0  0  0  0  0  0  0
   37.1670   23.9620   40.4450 N   0  0  0  0  0  0  0  0  0  0  0  0
   37.6190   23.8630   41.6770 N   0  0  0  0  0  0  0  0  0  0  0  0
   37.8910   24.7500   38.6070 H   0  0  0  0  0  0  0  0  0  0  0  0
   35.8490   23.4520   40.0610 C   0  0  0  0  0  2  0  0  0  0  0  0
   35.8020   22.3430   40.1420 H   0  0  0  0  0  0  0  0  0  0  0  0
  1  4  1  1  0  0  0
  2  5  1  1  0  0  0
  2  1  1  0  0  0  0
  3  2  1  0  0  0  0
  3  6  1  0  0  0  0
  3  1  1  0  0  0  0
  7  3  1  0  0  0  0
  8 14  1  0  0  0  0
  9  8  2  0  0  0  0
  9  1  1  0  0  0  0
 10  9  1  0  0  0  0
 11 10  2  0  0  0  0
 11 12  1  0  0  0  0
 12 13  2  0  0  0  0
 13  8  1  0  0  0  0
 15 10  1  0  0  0  0
 16 12  1  0  0  0  0
 17  2  1  0  0  0  0
 18 17  1  0  0  0  0
 19 20  1  0  0  0  0
 19 18  2  0  0  0  0
 20 21  1  0  0  0  0
 21 17  2  0  0  0  0
 22 19  1  0  0  0  0
 23 24  1  0  0  0  0
 23 20  1  0  0  0  0
M  END
>  <minimizedAffinity>
-4.09254885

$$$$

 OpenBabel03242516443D

 24 26  0  0  1  0  0  0  0  0999 V2000
   36.8120   31.4970   39.3630 C   0  0  1  0  0  0  0  0  0  0  0  0
   36.5080   31.1730   40.7670 C   0  0  2  0  0  0  0  0  0  0  0  0
   37.7140   31.9340   40.4650 C   0  0  0  0  0  0  0  0  0  0  0  0
   36.1730   32.2650   38.9110 H   0  0  0  0  0  0  0  0  0  0  0  0
   35.6180   31.6930   41.1890 H   0  0  0  0  0  0  0  0  0  0  0  0
   37.7350   33.0180   40.7460 H   0  0  0  0  0  0  0  0  0  0  0  0
   38.7130   31.4740   40.5600 H   0  0  0  0  0  0  0  0  0  0  0  0
   36.2830   29.7610   37.6710 C   0  0  0  0  0  0  0  0  0  0  0  0
   37.2550   30.4760   38.3920 C   0  0  0  0  0  0  0  0  0  0  0  0
   38.5880   30.1880   38.1430 C   0  0  0  0  0  0  0  0  0  0  0  0
   38.8780   29.2330   37.2220 N   0  0  0  0  0  0  0  0  0  0  0  0
   37.9400   28.5620   36.5460 C   0  0  0  0  0  0  0  0  0  0  0  0
   36.6210   28.8290   36.7730 N   0  0  0  0  0  0  0  0  0  0  0  0
   35.2330   29.9970   37.8740 H   0  0  0  0  0  0  0  0  0  0  0  0
   39.3510   30.7090   38.6700 H   0  0  0  0  0  0  0  0  0  0  0  0
   38.1320   27.8010   35.8100 H   0  0  0  0  0  0  0  0  0  0  0  0
   36.7080   29.8570   41.4060 C   0  0  0  0  0  0  0  0  0  0  0  0
   35.9590   28.7290   41.3230 N   0  0  0  0  0  0  0  0  0  0  0  0
   36.5040   27.7630   42.0940 C   0  0  0  0  0  0  0  0  0  0  0  0
   37.6010   28.3080   42.6570 N   0  0  0  0  0  0  0  0  0  0  0  0
   37.7450   29.5550   42.2630 N   0  0  0  0  0  0  0  0  0  0  0  0
   36.2120   26.7380   42.2930 H   0  0  0  0  0  0  0  0  0  0  0  0
   38.5450   27.6730   43.5790 C   0  0  0  0  0  2  0  0  0  0  0  0
   39.5520   27.5620   43.1190 H   0  0  0  0  0  0  0  0  0  0  0  0
  1  4  1  6  0  0  0
  1  3  1  0  0  0  0
  1  2  1  0  0  0  0
  2  5  1  1  0  0  0
  2 17  1  0  0  0  0
  3  7  1  0  0  0  0
  3  6  1  0  0  0  0
  3  2  1  0  0  0  0
  8 14  1  0  0  0  0
  8  9  1  0  0  0  0
  9  1  1  0  0  0  0
 10  9  2  0  0  0  0
 10 15  1  0  0  0  0
 11 10  1  0  0  0  0
 12 13  1  0  0  0  0
 12 11  2  0  0  0  0
 13  8  2  0  0  0  0
 16 12  1  0  0  0  0
 17 21  2  0  0  0  0
 18 17  1  0  0  0  0
 18 19  2  0  0  0  0
 19 22  1  0  0  0  0
 19 20  1  0  0  0  0
 20 23  1  0  0  0  0
 21 20  1  0  0  0  0
 24 23  1  0  0  0  0
M  END
>  <minimizedAffinity>
-4.03459263

$$$$
