
 OpenBabel03242516443D

 24 26  0  0  1  0  0  0  0  0999 V2000
   48.7260   34.8360   42.6060 C   0  0  1  0  0  0  0  0  0  0  0  0
   49.2600   34.2710   41.3540 C   0  0  2  0  0  0  0  0  0  0  0  0
   49.0290   35.7090   41.4370 C   0  0  0  0  0  0  0  0  0  0  0  0
   49.4320   34.8660   43.4430 H   0  0  0  0  0  0  0  0  0  0  0  0
   50.2970   33.8730   41.4210 H   0  0  0  0  0  0  0  0  0  0  0  0
   49.9230   36.3820   41.4850 H   0  0  0  0  0  0  0  0  0  0  0  0
   48.1970   36.1820   40.8860 H   0  0  0  0  0  0  0  0  0  0  0  0
   47.0570   33.5910   43.9550 C   0  0  0  0  0  0  0  0  0  0  0  0
   47.3310   34.6220   43.0400 C   0  0  0  0  0  0  0  0  0  0  0  0
   46.2680   35.3950   42.5980 C   0  0  0  0  0  0  0  0  0  0  0  0
   45.0270   35.1120   43.0700 N   0  0  0  0  0  0  0  0  0  0  0  0
   44.7840   34.1260   43.9410 C   0  0  0  0  0  0  0  0  0  0  0  0
   45.8150   33.3520   44.3910 N   0  0  0  0  0  0  0  0  0  0  0  0
   47.9040   32.9870   44.2980 H   0  0  0  0  0  0  0  0  0  0  0  0
   46.4370   36.1850   41.9050 H   0  0  0  0  0  0  0  0  0  0  0  0
   43.8170   33.8730   44.3370 H   0  0  0  0  0  0  0  0  0  0  0  0
   48.4740   33.5420   40.3390 C   0  0  0  0  0  0  0  0  0  0  0  0
   48.0570   32.2510   40.3280 N   0  0  0  0  0  0  0  0  0  0  0  0
   47.3810   32.0000   39.1860 C   0  0  0  0  0  0  0  0  0  0  0  0
   47.3860   33.1530   38.4870 N   0  0  0  0  0  0  0  0  0  0  0  0
   48.0310   34.0870   39.1540 N   0  0  0  0  0  0  0  0  0  0  0  0
   46.8980   31.1070   38.8060 H   0  0  0  0  0  0  0  0  0  0  0  0
   46.7850   33.4110   37.1770 C   0  0  0  0  0  0  0  0  0  0  0  0
   45.9470   34.1390   37.2490 H   0  0  0  0  0  0  0  0  0  0  0  0
  1  9  1  0  0  0  0
  1  4  1  1  0  0  0
  2  5  1  1  0  0  0
  2  3  1  0  0  0  0
  2  1  1  0  0  0  0
  3  6  1  0  0  0  0
  3  1  1  0  0  0  0
  7  3  1  0  0  0  0
  8 14  1  0  0  0  0
  8 13  1  0  0  0  0
  9  8  2  0  0  0  0
 10  9  1  0  0  0  0
 10 11  2  0  0  0  0
 11 12  1  0  0  0  0
 12 16  1  0  0  0  0
 12 13  2  0  0  0  0
 15 10  1  0  0  0  0
 17  2  1  0  0  0  0
 18 17  1  0  0  0  0
 19 18  2  0  0  0  0
 20 21  1  0  0  0  0
 20 19  1  0  0  0  0
 21 17  2  0  0  0  0
 22 19  1  0  0  0  0
 23 24  1  0  0  0  0
 23 20  1  0  0  0  0
M  END
>  <minimizedAffinity>
-3.8814981

>  <minimizedRMSD>
0.876898825

$$$$
