
 OpenBabel03242514003D

 34 37  0  0  0  0  0  0  0  0999 V2000
   37.0540   26.8280   42.7920 O   0  0  0  0  0  0  0  0  0  0  0  0
   37.4880   25.6560   42.1840 C   0  0  0  0  0  0  0  0  0  0  0  0
   38.7110   25.0470   42.3560 C   0  0  0  0  0  0  0  0  0  0  0  0
   38.9900   23.8900   41.6820 C   0  0  0  0  0  0  0  0  0  0  0  0
   38.0970   23.2840   40.8210 C   0  0  0  0  0  0  0  0  0  0  0  0
   38.4330   22.1530   40.1940 N   0  0  0  0  0  0  0  0  0  0  0  0
   37.5640   21.5490   39.3450 C   0  0  0  0  0  0  0  0  0  0  0  0
   36.3260   22.1390   39.1520 C   0  0  0  0  0  0  0  0  0  0  0  0
   35.9750   23.3210   39.8090 C   0  0  0  0  0  0  0  0  0  0  0  0
   36.8860   23.9080   40.6650 C   0  0  0  0  0  0  0  0  0  0  0  0
   36.5490   25.0950   41.3320 C   0  0  0  0  0  0  0  0  0  0  0  0
   39.3950   25.5380   43.0340 H   0  0  0  0  0  0  0  0  0  0  0  0
   39.9810   23.4840   41.8820 H   0  0  0  0  0  0  0  0  0  0  0  0
   37.8900   20.6410   38.8690 H   0  0  0  0  0  0  0  0  0  0  0  0
   35.6910   21.6160   38.4760 H   0  0  0  0  0  0  0  0  0  0  0  0
   34.9960   23.7360   39.6200 H   0  0  0  0  0  0  0  0  0  0  0  0
   35.5780   25.4830   41.1280 H   0  0  0  0  0  0  0  0  0  0  0  0
   36.2920   28.7630   41.4780 C   0  0  0  0  0  0  0  0  0  0  0  0
   37.2220   28.0980   42.2730 C   0  0  0  0  0  0  0  0  0  0  0  0
   38.4240   28.7720   42.5700 C   0  0  0  0  0  0  0  0  0  0  0  0
   38.6010   30.0070   42.0740 N   0  0  0  0  0  0  0  0  0  0  0  0
   37.6820   30.6320   41.3030 C   0  0  0  0  0  0  0  0  0  0  0  0
   36.5240   29.9830   41.0160 N   0  0  0  0  0  0  0  0  0  0  0  0
   35.3650   28.2130   41.2640 H   0  0  0  0  0  0  0  0  0  0  0  0
   39.1530   28.2860   43.1770 H   0  0  0  0  0  0  0  0  0  0  0  0
   37.8430   31.9620   40.7530 C   0  0  0  0  0  0  0  0  0  0  0  0
   37.0210   32.4210   39.7160 C   0  0  0  0  0  0  0  0  0  0  0  0
   37.4150   33.7200   39.4050 C   0  0  0  0  0  0  0  0  0  0  0  0
   38.4350   34.0050   40.2390 N   0  0  0  0  0  0  0  0  0  0  0  0
   38.6670   32.9530   41.0220 N   0  0  0  0  0  0  0  0  0  0  0  0
   36.2010   31.8900   39.2060 H   0  0  0  0  0  0  0  0  0  0  0  0
   36.9600   34.3440   38.6350 H   0  0  0  0  0  0  0  0  0  0  0  0
   39.1510   35.2670   40.2600 C   0  0  0  0  0  2  0  0  0  0  0  0
   39.1610   35.7300   39.2640 H   0  0  0  0  0  0  0  0  0  0  0  0
  2  3  1  0  0  0  0
  2  1  1  0  0  0  0
  3 12  1  0  0  0  0
  4 13  1  0  0  0  0
  4  3  2  0  0  0  0
  5  4  1  0  0  0  0
  6  5  2  0  0  0  0
  7  6  1  0  0  0  0
  8  7  2  0  0  0  0
  8  9  1  0  0  0  0
  9 10  2  0  0  0  0
 10  5  1  0  0  0  0
 10 11  1  0  0  0  0
 11  2  2  0  0  0  0
 14  7  1  0  0  0  0
 15  8  1  0  0  0  0
 16  9  1  0  0  0  0
 17 11  1  0  0  0  0
 18 19  1  0  0  0  0
 19 20  2  0  0  0  0
 19  1  1  0  0  0  0
 20 25  1  0  0  0  0
 21 20  1  0  0  0  0
 22 21  2  0  0  0  0
 23 22  1  0  0  0  0
 23 18  2  0  0  0  0
 24 18  1  0  0  0  0
 26 30  2  0  0  0  0
 26 22  1  0  0  0  0
 27 26  1  0  0  0  0
 28 27  2  0  0  0  0
 28 29  1  0  0  0  0
 29 33  1  0  0  0  0
 29 30  1  0  0  0  0
 31 27  1  0  0  0  0
 32 28  1  0  0  0  0
 34 33  1  0  0  0  0
M  END
>  <minimizedAffinity>
-5.89787531

$$$$

 OpenBabel03242514003D

 34 37  0  0  0  0  0  0  0  0999 V2000
   36.2900   28.7100   42.0130 O   0  0  0  0  0  0  0  0  0  0  0  0
   36.6030   27.3790   41.7650 C   0  0  0  0  0  0  0  0  0  0  0  0
   36.9410   26.4280   42.7010 C   0  0  0  0  0  0  0  0  0  0  0  0
   37.2240   25.1520   42.2950 C   0  0  0  0  0  0  0  0  0  0  0  0
   37.1870   24.7550   40.9740 C   0  0  0  0  0  0  0  0  0  0  0  0
   37.4740   23.4920   40.6450 N   0  0  0  0  0  0  0  0  0  0  0  0
   37.4420   23.0900   39.3490 C   0  0  0  0  0  0  0  0  0  0  0  0
   37.1040   24.0260   38.3860 C   0  0  0  0  0  0  0  0  0  0  0  0
   36.8040   25.3470   38.7300 C   0  0  0  0  0  0  0  0  0  0  0  0
   36.8470   25.7190   40.0590 C   0  0  0  0  0  0  0  0  0  0  0  0
   36.5490   27.0410   40.4210 C   0  0  0  0  0  0  0  0  0  0  0  0
   36.9650   26.7590   43.7290 H   0  0  0  0  0  0  0  0  0  0  0  0
   37.4810   24.4720   43.1060 H   0  0  0  0  0  0  0  0  0  0  0  0
   37.6820   22.0610   39.1460 H   0  0  0  0  0  0  0  0  0  0  0  0
   37.0960   23.6480   37.3910 H   0  0  0  0  0  0  0  0  0  0  0  0
   36.5470   26.0330   37.9370 H   0  0  0  0  0  0  0  0  0  0  0  0
   36.2990   27.6970   39.6200 H   0  0  0  0  0  0  0  0  0  0  0  0
   38.4140   29.9390   41.8440 C   0  0  0  0  0  0  0  0  0  0  0  0
   37.0500   29.7910   41.6070 C   0  0  0  0  0  0  0  0  0  0  0  0
   36.3970   30.8210   40.8990 C   0  0  0  0  0  0  0  0  0  0  0  0
   37.1220   31.8770   40.4980 N   0  0  0  0  0  0  0  0  0  0  0  0
   38.4480   31.9980   40.7410 C   0  0  0  0  0  0  0  0  0  0  0  0
   39.0770   31.0070   41.4220 N   0  0  0  0  0  0  0  0  0  0  0  0
   38.8950   29.1200   42.3970 H   0  0  0  0  0  0  0  0  0  0  0  0
   35.3530   30.7330   40.7050 H   0  0  0  0  0  0  0  0  0  0  0  0
   39.2570   33.1230   40.3210 C   0  0  0  0  0  0  0  0  0  0  0  0
   38.9520   34.4270   40.7310 C   0  0  0  0  0  0  0  0  0  0  0  0
   39.8990   35.2800   40.1720 C   0  0  0  0  0  0  0  0  0  0  0  0
   40.7300   34.4930   39.4600 N   0  0  0  0  0  0  0  0  0  0  0  0
   40.3290   33.2280   39.5650 N   0  0  0  0  0  0  0  0  0  0  0  0
   38.1250   34.7660   41.3760 H   0  0  0  0  0  0  0  0  0  0  0  0
   39.9250   36.3620   40.3110 H   0  0  0  0  0  0  0  0  0  0  0  0
   41.8730   34.9740   38.7060 C   0  0  0  0  0  2  0  0  0  0  0  0
   41.7030   35.9970   38.3440 H   0  0  0  0  0  0  0  0  0  0  0  0
  2  1  1  0  0  0  0
  2  3  1  0  0  0  0
  3 12  1  0  0  0  0
  4  3  2  0  0  0  0
  4 13  1  0  0  0  0
  5  4  1  0  0  0  0
  6  5  1  0  0  0  0
  7  6  2  0  0  0  0
  8  9  2  0  0  0  0
  8  7  1  0  0  0  0
  9 10  1  0  0  0  0
 10 11  1  0  0  0  0
 10  5  2  0  0  0  0
 11  2  2  0  0  0  0
 14  7  1  0  0  0  0
 15  8  1  0  0  0  0
 16  9  1  0  0  0  0
 17 11  1  0  0  0  0
 18 24  1  0  0  0  0
 19 18  1  0  0  0  0
 19  1  1  0  0  0  0
 20 19  2  0  0  0  0
 21 22  2  0  0  0  0
 21 20  1  0  0  0  0
 22 23  1  0  0  0  0
 23 18  2  0  0  0  0
 25 20  1  0  0  0  0
 26 27  1  0  0  0  0
 26 22  1  0  0  0  0
 27 31  1  0  0  0  0
 28 32  1  0  0  0  0
 28 27  2  0  0  0  0
 29 30  1  0  0  0  0
 29 28  1  0  0  0  0
 30 26  2  0  0  0  0
 33 29  1  0  0  0  0
 34 33  1  0  0  0  0
M  END
>  <minimizedAffinity>
-5.86466217

$$$$

 OpenBabel03242514003D

 34 37  0  0  0  0  0  0  0  0999 V2000
   37.6430   27.5010   43.0660 O   0  0  0  0  0  0  0  0  0  0  0  0
   37.9200   26.2640   42.4970 C   0  0  0  0  0  0  0  0  0  0  0  0
   39.0410   25.4940   42.7120 C   0  0  0  0  0  0  0  0  0  0  0  0
   39.1670   24.2910   42.0720 C   0  0  0  0  0  0  0  0  0  0  0  0
   38.2140   23.7940   41.2060 C   0  0  0  0  0  0  0  0  0  0  0  0
   38.3990   22.6110   40.6140 N   0  0  0  0  0  0  0  0  0  0  0  0
   37.4700   22.1120   39.7590 C   0  0  0  0  0  0  0  0  0  0  0  0
   36.3320   22.8650   39.5240 C   0  0  0  0  0  0  0  0  0  0  0  0
   36.1390   24.1020   40.1440 C   0  0  0  0  0  0  0  0  0  0  0  0
   37.1070   24.5780   41.0070 C   0  0  0  0  0  0  0  0  0  0  0  0
   36.9280   25.8180   41.6370 C   0  0  0  0  0  0  0  0  0  0  0  0
   39.7740   25.9020   43.3930 H   0  0  0  0  0  0  0  0  0  0  0  0
   40.0860   23.7550   42.3050 H   0  0  0  0  0  0  0  0  0  0  0  0
   37.6740   21.1540   39.3130 H   0  0  0  0  0  0  0  0  0  0  0  0
   35.6430   22.4190   38.8460 H   0  0  0  0  0  0  0  0  0  0  0  0
   35.2320   24.6450   39.9220 H   0  0  0  0  0  0  0  0  0  0  0  0
   36.0250   26.3330   41.4010 H   0  0  0  0  0  0  0  0  0  0  0  0
   39.2900   29.3020   42.7580 C   0  0  0  0  0  0  0  0  0  0  0  0
   38.0440   28.7180   42.5480 C   0  0  0  0  0  0  0  0  0  0  0  0
   37.1220   29.4230   41.7450 C   0  0  0  0  0  0  0  0  0  0  0  0
   37.4970   30.6060   41.2340 N   0  0  0  0  0  0  0  0  0  0  0  0
   38.7160   31.1530   41.4530 C   0  0  0  0  0  0  0  0  0  0  0  0
   39.6030   30.4750   42.2260 N   0  0  0  0  0  0  0  0  0  0  0  0
   39.9870   28.7290   43.3860 H   0  0  0  0  0  0  0  0  0  0  0  0
   36.1600   28.9990   41.5680 H   0  0  0  0  0  0  0  0  0  0  0  0
   39.1500   32.4260   40.9170 C   0  0  0  0  0  0  0  0  0  0  0  0
   38.2230   33.4070   40.5410 C   0  0  0  0  0  0  0  0  0  0  0  0
   38.9360   34.5050   40.0680 C   0  0  0  0  0  0  0  0  0  0  0  0
   40.2380   34.1690   40.1670 N   0  0  0  0  0  0  0  0  0  0  0  0
   40.3360   32.9410   40.6690 N   0  0  0  0  0  0  0  0  0  0  0  0
   37.1230   33.3640   40.5920 H   0  0  0  0  0  0  0  0  0  0  0  0
   38.4890   35.4300   39.7010 H   0  0  0  0  0  0  0  0  0  0  0  0
   41.3400   35.0310   39.7790 C   0  0  0  0  0  2  0  0  0  0  0  0
   41.0460   35.7010   38.9610 H   0  0  0  0  0  0  0  0  0  0  0  0
  2  3  1  0  0  0  0
  2  1  1  0  0  0  0
  3 12  1  0  0  0  0
  4 13  1  0  0  0  0
  4  3  2  0  0  0  0
  5  4  1  0  0  0  0
  6  5  2  0  0  0  0
  7  6  1  0  0  0  0
  8  7  2  0  0  0  0
  8  9  1  0  0  0  0
  9 10  2  0  0  0  0
 10  5  1  0  0  0  0
 10 11  1  0  0  0  0
 11  2  2  0  0  0  0
 14  7  1  0  0  0  0
 15  8  1  0  0  0  0
 16  9  1  0  0  0  0
 17 11  1  0  0  0  0
 18 24  1  0  0  0  0
 19 18  1  0  0  0  0
 19  1  1  0  0  0  0
 20 19  2  0  0  0  0
 21 22  2  0  0  0  0
 21 20  1  0  0  0  0
 22 23  1  0  0  0  0
 23 18  2  0  0  0  0
 25 20  1  0  0  0  0
 26 22  1  0  0  0  0
 27 31  1  0  0  0  0
 27 26  1  0  0  0  0
 28 29  1  0  0  0  0
 28 27  2  0  0  0  0
 29 30  1  0  0  0  0
 30 26  2  0  0  0  0
 32 28  1  0  0  0  0
 33 29  1  0  0  0  0
 34 33  1  0  0  0  0
M  END
>  <minimizedAffinity>
-5.77858591

$$$$

 OpenBabel03242514003D

 34 37  0  0  0  0  0  0  0  0999 V2000
   35.6450   28.9270   39.0010 O   0  0  0  0  0  0  0  0  0  0  0  0
   35.9670   27.5770   39.0790 C   0  0  0  0  0  0  0  0  0  0  0  0
   35.7990   26.6360   38.0880 C   0  0  0  0  0  0  0  0  0  0  0  0
   36.1680   25.3390   38.3200 C   0  0  0  0  0  0  0  0  0  0  0  0
   36.7120   24.9110   39.5150 C   0  0  0  0  0  0  0  0  0  0  0  0
   37.0510   23.6290   39.6750 N   0  0  0  0  0  0  0  0  0  0  0  0
   37.5860   23.1960   40.8450 C   0  0  0  0  0  0  0  0  0  0  0  0
   37.7680   24.1220   41.8590 C   0  0  0  0  0  0  0  0  0  0  0  0
   37.4120   25.4630   41.6900 C   0  0  0  0  0  0  0  0  0  0  0  0
   36.8700   25.8660   40.4860 C   0  0  0  0  0  0  0  0  0  0  0  0
   36.5090   27.2080   40.3010 C   0  0  0  0  0  0  0  0  0  0  0  0
   35.3710   26.9910   37.1620 H   0  0  0  0  0  0  0  0  0  0  0  0
   35.9960   24.6680   37.4790 H   0  0  0  0  0  0  0  0  0  0  0  0
   37.8400   22.1530   40.9160 H   0  0  0  0  0  0  0  0  0  0  0  0
   38.1910   23.7200   42.7490 H   0  0  0  0  0  0  0  0  0  0  0  0
   37.5770   26.1400   42.5160 H   0  0  0  0  0  0  0  0  0  0  0  0
   36.6810   27.8550   41.1300 H   0  0  0  0  0  0  0  0  0  0  0  0
   37.6510   30.2620   38.5090 C   0  0  0  0  0  0  0  0  0  0  0  0
   36.5190   29.9660   39.2620 C   0  0  0  0  0  0  0  0  0  0  0  0
   36.2430   30.7880   40.3740 C   0  0  0  0  0  0  0  0  0  0  0  0
   37.0830   31.8010   40.6400 N   0  0  0  0  0  0  0  0  0  0  0  0
   38.1780   32.0690   39.8920 C   0  0  0  0  0  0  0  0  0  0  0  0
   38.4440   31.2780   38.8210 N   0  0  0  0  0  0  0  0  0  0  0  0
   37.8390   29.6040   37.6480 H   0  0  0  0  0  0  0  0  0  0  0  0
   35.3830   30.5840   40.9690 H   0  0  0  0  0  0  0  0  0  0  0  0
   39.1020   33.1530   40.1520 C   0  0  0  0  0  0  0  0  0  0  0  0
   38.6590   34.4800   40.2280 C   0  0  0  0  0  0  0  0  0  0  0  0
   39.7660   35.2830   40.4860 C   0  0  0  0  0  0  0  0  0  0  0  0
   40.8200   34.4460   40.5580 N   0  0  0  0  0  0  0  0  0  0  0  0
   40.4020   33.1980   40.3580 N   0  0  0  0  0  0  0  0  0  0  0  0
   37.6340   34.8660   40.1120 H   0  0  0  0  0  0  0  0  0  0  0  0
   39.7390   36.3680   40.5990 H   0  0  0  0  0  0  0  0  0  0  0  0
   42.1870   34.8650   40.8150 C   0  0  0  0  0  2  0  0  0  0  0  0
   42.3650   35.8780   40.4330 H   0  0  0  0  0  0  0  0  0  0  0  0
  1  2  1  0  0  0  0
  1 19  1  0  0  0  0
  2 11  1  0  0  0  0
  3  4  1  0  0  0  0
  3  2  2  0  0  0  0
  4  5  2  0  0  0  0
  5  6  1  0  0  0  0
  5 10  1  0  0  0  0
  6  7  2  0  0  0  0
  7 14  1  0  0  0  0
  7  8  1  0  0  0  0
  8 15  1  0  0  0  0
  9  8  2  0  0  0  0
  9 16  1  0  0  0  0
 10  9  1  0  0  0  0
 11 10  2  0  0  0  0
 11 17  1  0  0  0  0
 12  3  1  0  0  0  0
 13  4  1  0  0  0  0
 18 23  2  0  0  0  0
 18 19  1  0  0  0  0
 19 20  2  0  0  0  0
 20 21  1  0  0  0  0
 20 25  1  0  0  0  0
 22 26  1  0  0  0  0
 22 21  2  0  0  0  0
 23 22  1  0  0  0  0
 24 18  1  0  0  0  0
 26 27  1  0  0  0  0
 26 30  2  0  0  0  0
 27 28  2  0  0  0  0
 28 29  1  0  0  0  0
 28 32  1  0  0  0  0
 29 33  1  0  0  0  0
 30 29  1  0  0  0  0
 31 27  1  0  0  0  0
 34 33  1  0  0  0  0
M  END
>  <minimizedAffinity>
-5.58288288

$$$$

 OpenBabel03242514003D

 34 37  0  0  0  0  0  0  0  0999 V2000
   37.4880   26.7080   42.4890 O   0  0  0  0  0  0  0  0  0  0  0  0
   37.6950   25.5830   41.7010 C   0  0  0  0  0  0  0  0  0  0  0  0
   36.9150   24.4490   41.6680 C   0  0  0  0  0  0  0  0  0  0  0  0
   37.2540   23.4200   40.8320 C   0  0  0  0  0  0  0  0  0  0  0  0
   38.3570   23.4540   40.0020 C   0  0  0  0  0  0  0  0  0  0  0  0
   38.6310   22.4140   39.2100 N   0  0  0  0  0  0  0  0  0  0  0  0
   39.7130   22.4360   38.3900 C   0  0  0  0  0  0  0  0  0  0  0  0
   40.5160   23.5640   38.4020 C   0  0  0  0  0  0  0  0  0  0  0  0
   40.2280   24.6510   39.2310 C   0  0  0  0  0  0  0  0  0  0  0  0
   39.1190   24.5930   40.0520 C   0  0  0  0  0  0  0  0  0  0  0  0
   38.8160   25.6760   40.8900 C   0  0  0  0  0  0  0  0  0  0  0  0
   36.0570   24.4430   42.3250 H   0  0  0  0  0  0  0  0  0  0  0  0
   36.5780   22.5670   40.8760 H   0  0  0  0  0  0  0  0  0  0  0  0
   39.8830   21.5700   37.7750 H   0  0  0  0  0  0  0  0  0  0  0  0
   41.3460   23.5190   37.7370 H   0  0  0  0  0  0  0  0  0  0  0  0
   40.8900   25.5050   39.1980 H   0  0  0  0  0  0  0  0  0  0  0  0
   39.4840   26.5050   40.8380 H   0  0  0  0  0  0  0  0  0  0  0  0
   38.6900   28.8500   42.3560 C   0  0  0  0  0  0  0  0  0  0  0  0
   37.6190   28.0140   42.0550 C   0  0  0  0  0  0  0  0  0  0  0  0
   36.5900   28.5400   41.2450 C   0  0  0  0  0  0  0  0  0  0  0  0
   36.7030   29.8070   40.8160 N   0  0  0  0  0  0  0  0  0  0  0  0
   37.7560   30.6000   41.1220 C   0  0  0  0  0  0  0  0  0  0  0  0
   38.7460   30.0940   41.9010 N   0  0  0  0  0  0  0  0  0  0  0  0
   39.4760   28.4120   42.9870 H   0  0  0  0  0  0  0  0  0  0  0  0
   35.7580   27.9220   41.0000 H   0  0  0  0  0  0  0  0  0  0  0  0
   37.9070   31.9690   40.6740 C   0  0  0  0  0  0  0  0  0  0  0  0
   37.0300   32.5230   39.7330 C   0  0  0  0  0  0  0  0  0  0  0  0
   37.4270   33.8380   39.5070 C   0  0  0  0  0  0  0  0  0  0  0  0
   38.5030   34.0390   40.2940 N   0  0  0  0  0  0  0  0  0  0  0  0
   38.7640   32.9230   40.9710 N   0  0  0  0  0  0  0  0  0  0  0  0
   36.1700   32.0470   39.2360 H   0  0  0  0  0  0  0  0  0  0  0  0
   36.9360   34.5300   38.8210 H   0  0  0  0  0  0  0  0  0  0  0  0
   39.2420   35.2860   40.3730 C   0  0  0  0  0  2  0  0  0  0  0  0
   39.1970   35.8300   39.4210 H   0  0  0  0  0  0  0  0  0  0  0  0
  2  1  1  0  0  0  0
  3  2  1  0  0  0  0
  3 12  1  0  0  0  0
  4 13  1  0  0  0  0
  4  3  2  0  0  0  0
  5 10  1  0  0  0  0
  5  4  1  0  0  0  0
  6  5  2  0  0  0  0
  7  8  2  0  0  0  0
  7  6  1  0  0  0  0
  8  9  1  0  0  0  0
  9 10  2  0  0  0  0
 10 11  1  0  0  0  0
 11  2  2  0  0  0  0
 14  7  1  0  0  0  0
 15  8  1  0  0  0  0
 16  9  1  0  0  0  0
 17 11  1  0  0  0  0
 18 24  1  0  0  0  0
 19 18  1  0  0  0  0
 19  1  1  0  0  0  0
 20 19  2  0  0  0  0
 21 22  2  0  0  0  0
 21 20  1  0  0  0  0
 22 23  1  0  0  0  0
 23 18  2  0  0  0  0
 25 20  1  0  0  0  0
 26 30  2  0  0  0  0
 26 22  1  0  0  0  0
 27 26  1  0  0  0  0
 28 27  2  0  0  0  0
 28 29  1  0  0  0  0
 29 33  1  0  0  0  0
 29 30  1  0  0  0  0
 31 27  1  0  0  0  0
 32 28  1  0  0  0  0
 34 33  1  0  0  0  0
M  END
>  <minimizedAffinity>
-5.49960136

$$$$

 OpenBabel03242514003D

 34 37  0  0  0  0  0  0  0  0999 V2000
   36.6220   29.2620   42.0980 O   0  0  0  0  0  0  0  0  0  0  0  0
   37.2190   30.3480   41.4690 C   0  0  0  0  0  0  0  0  0  0  0  0
   36.5940   31.2790   40.6700 C   0  0  0  0  0  0  0  0  0  0  0  0
   37.3260   32.2960   40.1190 C   0  0  0  0  0  0  0  0  0  0  0  0
   38.6820   32.4460   40.3240 C   0  0  0  0  0  0  0  0  0  0  0  0
   39.3370   33.4630   39.7560 N   0  0  0  0  0  0  0  0  0  0  0  0
   40.6710   33.6200   39.9490 C   0  0  0  0  0  0  0  0  0  0  0  0
   41.3260   32.6990   40.7490 C   0  0  0  0  0  0  0  0  0  0  0  0
   40.6410   31.6360   41.3420 C   0  0  0  0  0  0  0  0  0  0  0  0
   39.2830   31.5070   41.1230 C   0  0  0  0  0  0  0  0  0  0  0  0
   38.5810   30.4460   41.7110 C   0  0  0  0  0  0  0  0  0  0  0  0
   35.5330   31.1430   40.5220 H   0  0  0  0  0  0  0  0  0  0  0  0
   36.7450   32.9810   39.5030 H   0  0  0  0  0  0  0  0  0  0  0  0
   41.1440   34.4580   39.4670 H   0  0  0  0  0  0  0  0  0  0  0  0
   42.3690   32.8780   40.8610 H   0  0  0  0  0  0  0  0  0  0  0  0
   41.2040   30.9480   41.9570 H   0  0  0  0  0  0  0  0  0  0  0  0
   39.1590   29.7820   42.3120 H   0  0  0  0  0  0  0  0  0  0  0  0
   37.0710   26.8820   42.5280 C   0  0  0  0  0  0  0  0  0  0  0  0
   36.7440   27.9470   41.6920 C   0  0  0  0  0  0  0  0  0  0  0  0
   36.5200   27.6590   40.3300 C   0  0  0  0  0  0  0  0  0  0  0  0
   36.6350   26.3860   39.9210 N   0  0  0  0  0  0  0  0  0  0  0  0
   36.9540   25.3680   40.7530 C   0  0  0  0  0  0  0  0  0  0  0  0
   37.1700   25.6440   42.0650 N   0  0  0  0  0  0  0  0  0  0  0  0
   37.2390   27.1370   43.5840 H   0  0  0  0  0  0  0  0  0  0  0  0
   36.2680   28.4550   39.6680 H   0  0  0  0  0  0  0  0  0  0  0  0
   37.0860   23.9850   40.3430 C   0  0  0  0  0  0  0  0  0  0  0  0
   36.1620   23.3990   39.4680 C   0  0  0  0  0  0  0  0  0  0  0  0
   36.5500   22.0780   39.2640 C   0  0  0  0  0  0  0  0  0  0  0  0
   37.6670   21.9040   40.0000 N   0  0  0  0  0  0  0  0  0  0  0  0
   37.9600   23.0420   40.6250 N   0  0  0  0  0  0  0  0  0  0  0  0
   35.2760   23.8580   39.0010 H   0  0  0  0  0  0  0  0  0  0  0  0
   36.0260   21.3630   38.6280 H   0  0  0  0  0  0  0  0  0  0  0  0
   38.4120   20.6610   40.0810 C   0  0  0  0  0  2  0  0  0  0  0  0
   37.7500   19.7960   39.9450 H   0  0  0  0  0  0  0  0  0  0  0  0
  2 11  1  0  0  0  0
  2  1  1  0  0  0  0
  3  2  2  0  0  0  0
  4  5  2  0  0  0  0
  4  3  1  0  0  0  0
  5 10  1  0  0  0  0
  6  7  2  0  0  0  0
  6  5  1  0  0  0  0
  7  8  1  0  0  0  0
  8 15  1  0  0  0  0
  8  9  2  0  0  0  0
  9 16  1  0  0  0  0
 10  9  1  0  0  0  0
 10 11  2  0  0  0  0
 11 17  1  0  0  0  0
 12  3  1  0  0  0  0
 13  4  1  0  0  0  0
 14  7  1  0  0  0  0
 18 24  1  0  0  0  0
 19  1  1  0  0  0  0
 19 18  2  0  0  0  0
 20 19  1  0  0  0  0
 21 20  2  0  0  0  0
 21 22  1  0  0  0  0
 22 23  2  0  0  0  0
 23 18  1  0  0  0  0
 25 20  1  0  0  0  0
 26 30  2  0  0  0  0
 26 22  1  0  0  0  0
 27 26  1  0  0  0  0
 28 27  2  0  0  0  0
 28 29  1  0  0  0  0
 29 33  1  0  0  0  0
 29 30  1  0  0  0  0
 31 27  1  0  0  0  0
 32 28  1  0  0  0  0
 34 33  1  0  0  0  0
M  END
>  <minimizedAffinity>
-5.37414503

$$$$

 OpenBabel03242514003D

 34 37  0  0  0  0  0  0  0  0999 V2000
   35.0480   27.9030   37.7880 O   0  0  0  0  0  0  0  0  0  0  0  0
   35.6050   28.4140   38.9540 C   0  0  0  0  0  0  0  0  0  0  0  0
   35.7390   29.7440   39.2850 C   0  0  0  0  0  0  0  0  0  0  0  0
   36.3130   30.0880   40.4790 C   0  0  0  0  0  0  0  0  0  0  0  0
   36.7770   29.1590   41.3890 C   0  0  0  0  0  0  0  0  0  0  0  0
   37.3280   29.5630   42.5370 N   0  0  0  0  0  0  0  0  0  0  0  0
   37.7870   28.6590   43.4390 C   0  0  0  0  0  0  0  0  0  0  0  0
   37.6660   27.3140   43.1330 C   0  0  0  0  0  0  0  0  0  0  0  0
   37.0890   26.8930   41.9320 C   0  0  0  0  0  0  0  0  0  0  0  0
   36.6330   27.8410   41.0370 C   0  0  0  0  0  0  0  0  0  0  0  0
   36.0520   27.4340   39.8280 C   0  0  0  0  0  0  0  0  0  0  0  0
   35.3700   30.4540   38.5590 H   0  0  0  0  0  0  0  0  0  0  0  0
   36.3750   31.1620   40.6510 H   0  0  0  0  0  0  0  0  0  0  0  0
   38.2210   29.0440   44.3460 H   0  0  0  0  0  0  0  0  0  0  0  0
   38.0440   26.6580   43.8800 H   0  0  0  0  0  0  0  0  0  0  0  0
   37.0210   25.8310   41.7460 H   0  0  0  0  0  0  0  0  0  0  0  0
   35.9970   26.3820   39.6700 H   0  0  0  0  0  0  0  0  0  0  0  0
   32.9110   29.0600   37.4050 C   0  0  0  0  0  0  0  0  0  0  0  0
   34.1450   28.5730   36.9840 C   0  0  0  0  0  0  0  0  0  0  0  0
   34.5000   28.7790   35.6340 C   0  0  0  0  0  0  0  0  0  0  0  0
   33.6330   29.4280   34.8400 N   0  0  0  0  0  0  0  0  0  0  0  0
   32.4390   29.8920   35.2740 C   0  0  0  0  0  0  0  0  0  0  0  0
   32.0970   29.6940   36.5730 N   0  0  0  0  0  0  0  0  0  0  0  0
   32.6630   28.8850   38.4610 H   0  0  0  0  0  0  0  0  0  0  0  0
   35.4390   28.4160   35.2850 H   0  0  0  0  0  0  0  0  0  0  0  0
   31.4840   30.5960   34.4430 C   0  0  0  0  0  0  0  0  0  0  0  0
   31.1280   31.9230   34.7140 C   0  0  0  0  0  0  0  0  0  0  0  0
   30.2010   32.3180   33.7530 C   0  0  0  0  0  0  0  0  0  0  0  0
   30.0270   31.2500   32.9480 N   0  0  0  0  0  0  0  0  0  0  0  0
   30.7930   30.2500   33.3770 N   0  0  0  0  0  0  0  0  0  0  0  0
   31.4870   32.5760   35.5260 H   0  0  0  0  0  0  0  0  0  0  0  0
   29.7370   33.3040   33.7000 H   0  0  0  0  0  0  0  0  0  0  0  0
   29.1360   31.2220   31.8020 C   0  0  0  0  0  2  0  0  0  0  0  0
   28.2810   31.8950   31.9520 H   0  0  0  0  0  0  0  0  0  0  0  0
  1  2  1  0  0  0  0
  2  3  2  0  0  0  0
  2 11  1  0  0  0  0
  3  4  1  0  0  0  0
  4 13  1  0  0  0  0
  4  5  2  0  0  0  0
  5  6  1  0  0  0  0
  6  7  2  0  0  0  0
  7 14  1  0  0  0  0
  8  7  1  0  0  0  0
  8 15  1  0  0  0  0
  9  8  2  0  0  0  0
 10  5  1  0  0  0  0
 10  9  1  0  0  0  0
 11 10  2  0  0  0  0
 12  3  1  0  0  0  0
 16  9  1  0  0  0  0
 17 11  1  0  0  0  0
 18 24  1  0  0  0  0
 19 18  1  0  0  0  0
 19  1  1  0  0  0  0
 20 19  2  0  0  0  0
 21 22  2  0  0  0  0
 21 20  1  0  0  0  0
 22 23  1  0  0  0  0
 23 18  2  0  0  0  0
 25 20  1  0  0  0  0
 26 27  1  0  0  0  0
 26 22  1  0  0  0  0
 27 31  1  0  0  0  0
 28 27  2  0  0  0  0
 29 30  1  0  0  0  0
 29 28  1  0  0  0  0
 30 26  2  0  0  0  0
 32 28  1  0  0  0  0
 33 34  1  0  0  0  0
 33 29  1  0  0  0  0
M  END
>  <minimizedAffinity>
-5.31233692

$$$$

 OpenBabel03242514003D

 34 37  0  0  0  0  0  0  0  0999 V2000
   36.7000   30.0460   41.3710 O   0  0  0  0  0  0  0  0  0  0  0  0
   37.4710   29.1420   42.0920 C   0  0  0  0  0  0  0  0  0  0  0  0
   37.0140   28.0460   42.7880 C   0  0  0  0  0  0  0  0  0  0  0  0
   37.9050   27.2470   43.4510 C   0  0  0  0  0  0  0  0  0  0  0  0
   39.2650   27.4820   43.4630 C   0  0  0  0  0  0  0  0  0  0  0  0
   40.0810   26.6620   44.1320 N   0  0  0  0  0  0  0  0  0  0  0  0
   41.4200   26.8830   44.1500 C   0  0  0  0  0  0  0  0  0  0  0  0
   41.9090   27.9780   43.4580 C   0  0  0  0  0  0  0  0  0  0  0  0
   41.0550   28.8350   42.7590 C   0  0  0  0  0  0  0  0  0  0  0  0
   39.6980   28.5790   42.7630 C   0  0  0  0  0  0  0  0  0  0  0  0
   38.8270   29.4290   42.0660 C   0  0  0  0  0  0  0  0  0  0  0  0
   35.9460   27.8800   42.7660 H   0  0  0  0  0  0  0  0  0  0  0  0
   37.4490   26.4060   43.9730 H   0  0  0  0  0  0  0  0  0  0  0  0
   42.0270   26.1880   44.7060 H   0  0  0  0  0  0  0  0  0  0  0  0
   42.9650   28.0950   43.5120 H   0  0  0  0  0  0  0  0  0  0  0  0
   41.4920   29.6730   42.2370 H   0  0  0  0  0  0  0  0  0  0  0  0
   39.2840   30.2480   41.5600 H   0  0  0  0  0  0  0  0  0  0  0  0
   34.7260   29.2160   40.1590 C   0  0  0  0  0  0  0  0  0  0  0  0
   36.0110   29.7490   40.2090 C   0  0  0  0  0  0  0  0  0  0  0  0
   36.6580   30.0060   38.9820 C   0  0  0  0  0  0  0  0  0  0  0  0
   36.0020   29.7230   37.8460 N   0  0  0  0  0  0  0  0  0  0  0  0
   34.7520   29.2050   37.8240 C   0  0  0  0  0  0  0  0  0  0  0  0
   34.1290   28.9570   39.0040 N   0  0  0  0  0  0  0  0  0  0  0  0
   34.2480   29.0270   41.1310 H   0  0  0  0  0  0  0  0  0  0  0  0
   37.6420   30.4140   38.9910 H   0  0  0  0  0  0  0  0  0  0  0  0
   34.0180   28.8890   36.6150 C   0  0  0  0  0  0  0  0  0  0  0  0
   34.6000   28.1290   35.5930 C   0  0  0  0  0  0  0  0  0  0  0  0
   33.6600   27.9960   34.5750 C   0  0  0  0  0  0  0  0  0  0  0  0
   32.5640   28.6590   34.9970 N   0  0  0  0  0  0  0  0  0  0  0  0
   32.8020   29.1750   36.2010 N   0  0  0  0  0  0  0  0  0  0  0  0
   35.6120   27.6950   35.5540 H   0  0  0  0  0  0  0  0  0  0  0  0
   33.8200   27.4550   33.6420 H   0  0  0  0  0  0  0  0  0  0  0  0
   31.3320   28.7770   34.2380 C   0  0  0  0  0  2  0  0  0  0  0  0
   31.5320   28.7550   33.1590 H   0  0  0  0  0  0  0  0  0  0  0  0
  1  2  1  0  0  0  0
  2  3  1  0  0  0  0
  3  4  2  0  0  0  0
  4  5  1  0  0  0  0
  4 13  1  0  0  0  0
  5  6  1  0  0  0  0
  6  7  2  0  0  0  0
  7 14  1  0  0  0  0
  8 15  1  0  0  0  0
  8  7  1  0  0  0  0
  9 10  1  0  0  0  0
  9  8  2  0  0  0  0
 10  5  2  0  0  0  0
 11  2  2  0  0  0  0
 11 10  1  0  0  0  0
 12  3  1  0  0  0  0
 16  9  1  0  0  0  0
 17 11  1  0  0  0  0
 18 19  1  0  0  0  0
 18 24  1  0  0  0  0
 19  1  1  0  0  0  0
 20 25  1  0  0  0  0
 20 19  2  0  0  0  0
 21 20  1  0  0  0  0
 22 21  2  0  0  0  0
 22 23  1  0  0  0  0
 23 18  2  0  0  0  0
 26 22  1  0  0  0  0
 27 26  1  0  0  0  0
 28 29  1  0  0  0  0
 28 27  2  0  0  0  0
 29 30  1  0  0  0  0
 30 26  2  0  0  0  0
 31 27  1  0  0  0  0
 32 28  1  0  0  0  0
 33 29  1  0  0  0  0
 34 33  1  0  0  0  0
M  END
>  <minimizedAffinity>
-5.25536251

$$$$

 OpenBabel03242514003D

 34 37  0  0  0  0  0  0  0  0999 V2000
   36.6280   29.7640   41.3250 O   0  0  0  0  0  0  0  0  0  0  0  0
   37.5090   28.8520   41.8930 C   0  0  0  0  0  0  0  0  0  0  0  0
   38.6170   29.1470   42.6560 C   0  0  0  0  0  0  0  0  0  0  0  0
   39.3900   28.1300   43.1470 C   0  0  0  0  0  0  0  0  0  0  0  0
   39.1170   26.7970   42.9160 C   0  0  0  0  0  0  0  0  0  0  0  0
   39.9130   25.8520   43.4250 N   0  0  0  0  0  0  0  0  0  0  0  0
   39.6550   24.5380   43.2050 C   0  0  0  0  0  0  0  0  0  0  0  0
   38.5470   24.2110   42.4410 C   0  0  0  0  0  0  0  0  0  0  0  0
   37.7150   25.2000   41.9100 C   0  0  0  0  0  0  0  0  0  0  0  0
   38.0090   26.5270   42.1540 C   0  0  0  0  0  0  0  0  0  0  0  0
   37.1830   27.5300   41.6280 C   0  0  0  0  0  0  0  0  0  0  0  0
   38.8130   30.1960   42.8240 H   0  0  0  0  0  0  0  0  0  0  0  0
   40.2430   28.4620   43.7370 H   0  0  0  0  0  0  0  0  0  0  0  0
   40.3310   23.8230   43.6410 H   0  0  0  0  0  0  0  0  0  0  0  0
   38.3990   23.1660   42.3070 H   0  0  0  0  0  0  0  0  0  0  0  0
   36.8640   24.8860   41.3220 H   0  0  0  0  0  0  0  0  0  0  0  0
   36.3530   27.1940   41.0520 H   0  0  0  0  0  0  0  0  0  0  0  0
   34.5660   29.1620   40.1280 C   0  0  0  0  0  0  0  0  0  0  0  0
   35.9020   29.5490   40.1690 C   0  0  0  0  0  0  0  0  0  0  0  0
   36.5640   29.7350   38.9370 C   0  0  0  0  0  0  0  0  0  0  0  0
   35.8730   29.5300   37.8050 N   0  0  0  0  0  0  0  0  0  0  0  0
   34.5730   29.1540   37.7920 C   0  0  0  0  0  0  0  0  0  0  0  0
   33.9350   28.9740   38.9770 N   0  0  0  0  0  0  0  0  0  0  0  0
   34.0770   29.0250   41.1030 H   0  0  0  0  0  0  0  0  0  0  0  0
   37.5880   30.0310   38.9400 H   0  0  0  0  0  0  0  0  0  0  0  0
   33.8000   28.9250   36.5890 C   0  0  0  0  0  0  0  0  0  0  0  0
   34.2230   28.0050   35.6210 C   0  0  0  0  0  0  0  0  0  0  0  0
   33.2830   28.0080   34.5940 C   0  0  0  0  0  0  0  0  0  0  0  0
   32.3420   28.9030   34.9580 N   0  0  0  0  0  0  0  0  0  0  0  0
   32.6700   29.4280   36.1360 N   0  0  0  0  0  0  0  0  0  0  0  0
   35.1250   27.3730   35.6260 H   0  0  0  0  0  0  0  0  0  0  0  0
   33.3370   27.3920   33.6950 H   0  0  0  0  0  0  0  0  0  0  0  0
   31.1660   29.2250   34.1700 C   0  0  0  0  0  2  0  0  0  0  0  0
   31.3650   29.1000   33.0970 H   0  0  0  0  0  0  0  0  0  0  0  0
  1  2  1  0  0  0  0
  2  3  1  0  0  0  0
  3 12  1  0  0  0  0
  3  4  2  0  0  0  0
  4 13  1  0  0  0  0
  5  4  1  0  0  0  0
  5  6  1  0  0  0  0
  7  6  2  0  0  0  0
  7 14  1  0  0  0  0
  8  7  1  0  0  0  0
  9 10  1  0  0  0  0
  9  8  2  0  0  0  0
 10  5  2  0  0  0  0
 11  2  2  0  0  0  0
 11 10  1  0  0  0  0
 15  8  1  0  0  0  0
 16  9  1  0  0  0  0
 17 11  1  0  0  0  0
 18 19  1  0  0  0  0
 18 24  1  0  0  0  0
 19  1  1  0  0  0  0
 20 25  1  0  0  0  0
 20 19  2  0  0  0  0
 21 20  1  0  0  0  0
 22 21  2  0  0  0  0
 22 23  1  0  0  0  0
 23 18  2  0  0  0  0
 26 22  1  0  0  0  0
 27 31  1  0  0  0  0
 27 26  1  0  0  0  0
 28 29  1  0  0  0  0
 28 27  2  0  0  0  0
 29 30  1  0  0  0  0
 30 26  2  0  0  0  0
 32 28  1  0  0  0  0
 33 29  1  0  0  0  0
 34 33  1  0  0  0  0
M  END
>  <minimizedAffinity>
-5.14556026

$$$$
