
 OpenBabel03252506163D

 32 33  0  0  0  0  0  0  0  0999 V2000
   37.2580   28.1060   39.5380 F   0  0  0  0  0  0  0  0  0  0  0  0
   37.2340   28.0570   40.8610 C   0  0  0  0  0  0  0  0  0  0  0  0
   37.0970   26.8270   41.4690 C   0  0  0  0  0  0  0  0  0  0  0  0
   37.0620   26.6620   42.8660 C   0  0  0  0  0  0  0  0  0  0  0  0
   37.1710   27.8000   43.6790 C   0  0  0  0  0  0  0  0  0  0  0  0
   37.3050   29.0050   43.0260 C   0  0  0  0  0  0  0  0  0  0  0  0
   37.3390   29.1730   41.6870 C   0  0  0  0  0  0  0  0  0  0  0  0
   36.9530   25.6580   43.2770 H   0  0  0  0  0  0  0  0  0  0  0  0
   37.1390   27.6220   44.7440 H   0  0  0  0  0  0  0  0  0  0  0  0
   37.3860   29.7910   43.7800 H   0  0  0  0  0  0  0  0  0  0  0  0
   37.5670   23.3530   40.3970 C   0  0  0  0  0  0  0  0  0  0  0  0
   36.8020   23.3080   39.2090 C   0  0  0  0  0  0  0  0  0  0  0  0
   36.1180   24.4930   38.7760 C   0  0  0  0  0  0  0  0  0  0  0  0
   36.2580   25.6030   39.5610 N   0  0  0  0  0  0  0  0  0  0  0  0
   36.9840   25.6030   40.6670 C   0  0  0  0  0  0  0  0  0  0  0  0
   37.6340   24.4890   41.0830 N   0  0  0  0  0  0  0  0  0  0  0  0
   36.7250   22.4050   38.6270 H   0  0  0  0  0  0  0  0  0  0  0  0
   35.5330   24.4960   37.8870 H   0  0  0  0  0  0  0  0  0  0  0  0
   38.2150   22.1770   40.7820 N   0  0  0  0  0  0  0  0  0  0  0  0
   37.9240   21.2150   40.5240 H   0  0  0  0  0  0  0  0  0  0  0  0
   39.0720   22.2240   41.3800 H   0  0  0  0  0  0  0  0  0  0  0  0
   37.4760   30.4200   41.1510 O   0  0  0  0  0  0  0  0  0  0  0  0
   40.0490   30.1500   40.5960 O   0  0  0  0  0  0  0  0  0  0  0  0
   38.8520   31.0670   40.4470 P   0  0  2  0  0  0  0  0  0  0  0  0
   39.2190   32.5610   41.2150 O   0  0  0  0  0  0  0  0  0  0  0  0
   40.2010   33.1280   40.3710 C   0  0  0  0  0  2  0  0  0  0  0  0
   41.0770   32.4350   40.2600 H   0  0  0  0  0  0  0  0  0  0  0  0
   38.6570   31.4560   38.8250 O   0  0  0  0  0  0  0  0  0  0  0  0
   37.3180   31.8310   38.5610 C   0  0  0  0  0  0  0  0  0  0  0  0
   37.3380   32.2440   37.2280 F   0  0  0  0  0  0  0  0  0  0  0  0
   36.4920   30.7300   38.6360 F   0  0  0  0  0  0  0  0  0  0  0  0
   36.8400   32.7880   39.4060 F   0  0  0  0  0  0  0  0  0  0  0  0
  1  2  1  0  0  0  0
  2  3  2  0  0  0  0
  2  7  1  0  0  0  0
  3  4  1  0  0  0  0
  4  8  1  0  0  0  0
  4  5  2  0  0  0  0
  5  9  1  0  0  0  0
  6  5  1  0  0  0  0
  6 10  1  0  0  0  0
  7  6  2  0  0  0  0
 11 19  1  0  0  0  0
 11 16  1  0  0  0  0
 12 11  2  0  0  0  0
 13 12  1  0  0  0  0
 13 14  2  0  0  0  0
 14 15  1  0  0  0  0
 15 16  2  0  0  0  0
 15  3  1  0  0  0  0
 17 12  1  0  0  0  0
 18 13  1  0  0  0  0
 19 21  1  0  0  0  0
 20 19  1  0  0  0  0
 22  7  1  0  0  0  0
 24 23  2  1  0  0  0
 24 22  1  0  0  0  0
 24 25  1  0  0  0  0
 26 25  1  0  0  0  0
 27 26  1  0  0  0  0
 28 24  1  0  0  0  0
 29 31  1  0  0  0  0
 29 28  1  0  0  0  0
 29 32  1  0  0  0  0
 30 29  1  0  0  0  0
M  END
>  <minimizedAffinity>
-5.31577778

$$$$

 OpenBabel03252506163D

 32 33  0  0  0  0  0  0  0  0999 V2000
   39.6580   29.0000   41.4390 F   0  0  0  0  0  0  0  0  0  0  0  0
   38.3530   29.0740   41.2320 C   0  0  0  0  0  0  0  0  0  0  0  0
   37.8590   30.1670   40.5530 C   0  0  0  0  0  0  0  0  0  0  0  0
   36.4900   30.3450   40.2780 C   0  0  0  0  0  0  0  0  0  0  0  0
   35.5850   29.3650   40.7150 C   0  0  0  0  0  0  0  0  0  0  0  0
   36.1270   28.2930   41.3890 C   0  0  0  0  0  0  0  0  0  0  0  0
   37.4370   28.1150   41.6570 C   0  0  0  0  0  0  0  0  0  0  0  0
   36.1700   31.2340   39.7350 H   0  0  0  0  0  0  0  0  0  0  0  0
   34.5470   29.5460   40.4810 H   0  0  0  0  0  0  0  0  0  0  0  0
   35.3130   27.6160   41.6580 H   0  0  0  0  0  0  0  0  0  0  0  0
   39.8350   32.2210   38.2470 C   0  0  0  0  0  0  0  0  0  0  0  0
   40.4280   33.1570   39.1250 C   0  0  0  0  0  0  0  0  0  0  0  0
   40.1390   33.0740   40.5290 C   0  0  0  0  0  0  0  0  0  0  0  0
   39.2940   32.0760   40.9230 N   0  0  0  0  0  0  0  0  0  0  0  0
   38.7600   31.2190   40.0690 C   0  0  0  0  0  0  0  0  0  0  0  0
   39.0260   31.2890   38.7420 N   0  0  0  0  0  0  0  0  0  0  0  0
   41.0880   33.9250   38.7610 H   0  0  0  0  0  0  0  0  0  0  0  0
   40.5680   33.7630   41.2190 H   0  0  0  0  0  0  0  0  0  0  0  0
   40.1430   32.3380   36.8900 N   0  0  0  0  0  0  0  0  0  0  0  0
   40.4410   33.2090   36.4110 H   0  0  0  0  0  0  0  0  0  0  0  0
   40.0810   31.5010   36.2660 H   0  0  0  0  0  0  0  0  0  0  0  0
   37.8590   27.0090   42.3360 O   0  0  0  0  0  0  0  0  0  0  0  0
   38.3310   25.5130   40.2040 O   0  0  0  0  0  0  0  0  0  0  0  0
   38.1150   25.4780   41.7040 P   0  0  2  0  0  0  0  0  0  0  0  0
   36.7350   24.5050   42.0270 O   0  0  0  0  0  0  0  0  0  0  0  0
   36.3950   23.9890   40.7560 C   0  0  0  0  0  2  0  0  0  0  0  0
   36.2150   24.8220   40.0250 H   0  0  0  0  0  0  0  0  0  0  0  0
   39.3940   24.6600   42.4230 O   0  0  0  0  0  0  0  0  0  0  0  0
   40.4770   25.5390   42.6570 C   0  0  0  0  0  0  0  0  0  0  0  0
   41.5600   24.6890   42.8870 F   0  0  0  0  0  0  0  0  0  0  0  0
   40.7600   26.2610   41.5160 F   0  0  0  0  0  0  0  0  0  0  0  0
   40.2630   26.4150   43.6790 F   0  0  0  0  0  0  0  0  0  0  0  0
  2  1  1  0  0  0  0
  2  7  1  0  0  0  0
  3  2  2  0  0  0  0
  4  3  1  0  0  0  0
  4  5  2  0  0  0  0
  5  6  1  0  0  0  0
  6  7  2  0  0  0  0
  6 10  1  0  0  0  0
  7 22  1  0  0  0  0
  8  4  1  0  0  0  0
  9  5  1  0  0  0  0
 11 16  2  0  0  0  0
 11 12  1  0  0  0  0
 12 13  2  0  0  0  0
 13 14  1  0  0  0  0
 13 18  1  0  0  0  0
 15  3  1  0  0  0  0
 15 14  2  0  0  0  0
 16 15  1  0  0  0  0
 17 12  1  0  0  0  0
 19 11  1  0  0  0  0
 20 19  1  0  0  0  0
 21 19  1  0  0  0  0
 24 23  2  6  0  0  0
 24 25  1  0  0  0  0
 24 22  1  0  0  0  0
 24 28  1  0  0  0  0
 26 25  1  0  0  0  0
 27 26  1  0  0  0  0
 28 29  1  0  0  0  0
 29 30  1  0  0  0  0
 29 32  1  0  0  0  0
 31 29  1  0  0  0  0
M  END
>  <minimizedAffinity>
-5.26376057

$$$$

 OpenBabel03252506163D

 32 33  0  0  0  0  0  0  0  0999 V2000
   39.9290   29.1490   41.6280 F   0  0  0  0  0  0  0  0  0  0  0  0
   38.6180   29.0780   41.4620 C   0  0  0  0  0  0  0  0  0  0  0  0
   37.9890   30.0910   40.7700 C   0  0  0  0  0  0  0  0  0  0  0  0
   36.6020   30.1130   40.5360 C   0  0  0  0  0  0  0  0  0  0  0  0
   35.8210   29.0550   41.0280 C   0  0  0  0  0  0  0  0  0  0  0  0
   36.4940   28.0680   41.7120 C   0  0  0  0  0  0  0  0  0  0  0  0
   37.8240   28.0390   41.9420 C   0  0  0  0  0  0  0  0  0  0  0  0
   36.1720   30.9460   39.9800 H   0  0  0  0  0  0  0  0  0  0  0  0
   34.7630   29.1180   40.8220 H   0  0  0  0  0  0  0  0  0  0  0  0
   35.7660   27.3170   42.0250 H   0  0  0  0  0  0  0  0  0  0  0  0
   39.7230   32.2390   38.3580 C   0  0  0  0  0  0  0  0  0  0  0  0
   40.1800   33.2930   39.1820 C   0  0  0  0  0  0  0  0  0  0  0  0
   39.8850   33.2570   40.5860 C   0  0  0  0  0  0  0  0  0  0  0  0
   39.1670   32.1850   41.0340 N   0  0  0  0  0  0  0  0  0  0  0  0
   38.7570   31.2180   40.2290 C   0  0  0  0  0  0  0  0  0  0  0  0
   39.0310   31.2430   38.9030 N   0  0  0  0  0  0  0  0  0  0  0  0
   40.7440   34.1160   38.7760 H   0  0  0  0  0  0  0  0  0  0  0  0
   40.2130   34.0340   41.2360 H   0  0  0  0  0  0  0  0  0  0  0  0
   40.0320   32.3130   36.9980 N   0  0  0  0  0  0  0  0  0  0  0  0
   40.2240   33.1860   36.4690 H   0  0  0  0  0  0  0  0  0  0  0  0
   40.0850   31.4400   36.4250 H   0  0  0  0  0  0  0  0  0  0  0  0
   38.3820   27.0050   42.6350 O   0  0  0  0  0  0  0  0  0  0  0  0
   39.2820   24.5500   43.0430 O   0  0  0  0  0  0  0  0  0  0  0  0
   39.0830   25.6250   41.9930 P   0  0  2  0  0  0  0  0  0  0  0  0
   40.6210   26.0340   41.3430 O   0  0  0  0  0  0  0  0  0  0  0  0
   40.3840   26.0820   39.9500 C   0  0  0  0  0  2  0  0  0  0  0  0
   39.9690   25.1050   39.5840 H   0  0  0  0  0  0  0  0  0  0  0  0
   38.2290   24.9780   40.6990 O   0  0  0  0  0  0  0  0  0  0  0  0
   37.0950   24.2670   41.1580 C   0  0  0  0  0  0  0  0  0  0  0  0
   36.1770   24.3840   40.1150 F   0  0  0  0  0  0  0  0  0  0  0  0
   37.3960   22.9270   41.2900 F   0  0  0  0  0  0  0  0  0  0  0  0
   36.6080   24.7190   42.3480 F   0  0  0  0  0  0  0  0  0  0  0  0
  2  1  1  0  0  0  0
  2  7  1  0  0  0  0
  3  2  2  0  0  0  0
  4  3  1  0  0  0  0
  4  5  2  0  0  0  0
  5  6  1  0  0  0  0
  6  7  2  0  0  0  0
  6 10  1  0  0  0  0
  7 22  1  0  0  0  0
  8  4  1  0  0  0  0
  9  5  1  0  0  0  0
 11 16  2  0  0  0  0
 11 12  1  0  0  0  0
 12 13  2  0  0  0  0
 13 14  1  0  0  0  0
 13 18  1  0  0  0  0
 15  3  1  0  0  0  0
 15 14  2  0  0  0  0
 16 15  1  0  0  0  0
 17 12  1  0  0  0  0
 19 11  1  0  0  0  0
 20 19  1  0  0  0  0
 21 19  1  0  0  0  0
 24 22  1  0  0  0  0
 24 23  2  1  0  0  0
 25 24  1  0  0  0  0
 26 25  1  0  0  0  0
 27 26  1  0  0  0  0
 28 29  1  0  0  0  0
 28 24  1  0  0  0  0
 29 31  1  0  0  0  0
 29 32  1  0  0  0  0
 30 29  1  0  0  0  0
M  END
>  <minimizedAffinity>
-5.24833918

$$$$

 OpenBabel03252506163D

 32 33  0  0  0  0  0  0  0  0999 V2000
   36.3200   27.5510   39.6360 F   0  0  0  0  0  0  0  0  0  0  0  0
   36.5880   28.8050   39.9610 C   0  0  0  0  0  0  0  0  0  0  0  0
   36.3630   29.7880   39.0200 C   0  0  0  0  0  0  0  0  0  0  0  0
   36.6120   31.1520   39.2620 C   0  0  0  0  0  0  0  0  0  0  0  0
   37.1110   31.5310   40.5180 C   0  0  0  0  0  0  0  0  0  0  0  0
   37.3190   30.5140   41.4230 C   0  0  0  0  0  0  0  0  0  0  0  0
   37.0840   29.2040   41.1990 C   0  0  0  0  0  0  0  0  0  0  0  0
   36.4100   31.8750   38.4720 H   0  0  0  0  0  0  0  0  0  0  0  0
   37.2860   32.5880   40.6540 H   0  0  0  0  0  0  0  0  0  0  0  0
   37.6980   30.9560   42.3470 H   0  0  0  0  0  0  0  0  0  0  0  0
   36.2800   29.0620   35.4280 C   0  0  0  0  0  0  0  0  0  0  0  0
   34.9040   28.8220   35.2100 C   0  0  0  0  0  0  0  0  0  0  0  0
   33.9980   28.9130   36.3200 C   0  0  0  0  0  0  0  0  0  0  0  0
   34.5420   29.2310   37.5320 N   0  0  0  0  0  0  0  0  0  0  0  0
   35.8370   29.4490   37.6930 C   0  0  0  0  0  0  0  0  0  0  0  0
   36.7010   29.3650   36.6520 N   0  0  0  0  0  0  0  0  0  0  0  0
   34.5270   28.5740   34.2330 H   0  0  0  0  0  0  0  0  0  0  0  0
   32.9550   28.7380   36.1930 H   0  0  0  0  0  0  0  0  0  0  0  0
   37.1270   28.9620   34.3220 N   0  0  0  0  0  0  0  0  0  0  0  0
   36.9440   28.3970   33.4700 H   0  0  0  0  0  0  0  0  0  0  0  0
   38.0310   29.4860   34.3070 H   0  0  0  0  0  0  0  0  0  0  0  0
   37.3290   28.2830   42.1760 O   0  0  0  0  0  0  0  0  0  0  0  0
   38.9800   26.8600   43.6770 O   0  0  0  0  0  0  0  0  0  0  0  0
   38.6160   27.2130   42.2490 P   0  0  2  0  0  0  0  0  0  0  0  0
   39.9870   27.9390   41.5080 O   0  0  0  0  0  0  0  0  0  0  0  0
   40.5350   28.7320   42.5410 C   0  0  0  0  0  2  0  0  0  0  0  0
   39.7740   29.4610   42.9290 H   0  0  0  0  0  0  0  0  0  0  0  0
   38.3620   25.7960   41.3820 O   0  0  0  0  0  0  0  0  0  0  0  0
   37.2520   25.0890   41.9000 C   0  0  0  0  0  0  0  0  0  0  0  0
   36.5330   24.7070   40.7670 F   0  0  0  0  0  0  0  0  0  0  0  0
   37.6730   23.9340   42.5250 F   0  0  0  0  0  0  0  0  0  0  0  0
   36.5060   25.8100   42.7840 F   0  0  0  0  0  0  0  0  0  0  0  0
  1  2  1  0  0  0  0
  2  7  1  0  0  0  0
  3  4  1  0  0  0  0
  3  2  2  0  0  0  0
  4  5  2  0  0  0  0
  5  9  1  0  0  0  0
  5  6  1  0  0  0  0
  6 10  1  0  0  0  0
  7  6  2  0  0  0  0
  7 22  1  0  0  0  0
  8  4  1  0  0  0  0
 11 16  1  0  0  0  0
 12 11  2  0  0  0  0
 12 13  1  0  0  0  0
 13 14  2  0  0  0  0
 14 15  1  0  0  0  0
 15  3  1  0  0  0  0
 16 15  2  0  0  0  0
 17 12  1  0  0  0  0
 18 13  1  0  0  0  0
 19 11  1  0  0  0  0
 20 19  1  0  0  0  0
 21 19  1  0  0  0  0
 22 24  1  0  0  0  0
 24 23  2  1  0  0  0
 25 24  1  0  0  0  0
 25 26  1  0  0  0  0
 26 27  1  0  0  0  0
 28 29  1  0  0  0  0
 28 24  1  0  0  0  0
 29 31  1  0  0  0  0
 29 32  1  0  0  0  0
 30 29  1  0  0  0  0
M  END
>  <minimizedAffinity>
-5.21924877

$$$$

 OpenBabel03252506163D

 32 33  0  0  0  0  0  0  0  0999 V2000
   39.2280   27.5410   40.0840 F   0  0  0  0  0  0  0  0  0  0  0  0
   38.6200   27.7860   41.2340 C   0  0  0  0  0  0  0  0  0  0  0  0
   37.6580   26.8990   41.6680 C   0  0  0  0  0  0  0  0  0  0  0  0
   36.9530   27.0630   42.8750 C   0  0  0  0  0  0  0  0  0  0  0  0
   37.2410   28.1800   43.6740 C   0  0  0  0  0  0  0  0  0  0  0  0
   38.2080   29.0370   43.1980 C   0  0  0  0  0  0  0  0  0  0  0  0
   38.8890   28.8880   42.0420 C   0  0  0  0  0  0  0  0  0  0  0  0
   36.2050   26.3210   43.1560 H   0  0  0  0  0  0  0  0  0  0  0  0
   36.6740   28.2620   44.5890 H   0  0  0  0  0  0  0  0  0  0  0  0
   38.3290   29.8460   43.9210 H   0  0  0  0  0  0  0  0  0  0  0  0
   37.5580   23.4030   40.5670 C   0  0  0  0  0  0  0  0  0  0  0  0
   36.7200   23.4790   39.4310 C   0  0  0  0  0  0  0  0  0  0  0  0
   36.1860   24.7540   39.0440 C   0  0  0  0  0  0  0  0  0  0  0  0
   36.5330   25.8250   39.8180 N   0  0  0  0  0  0  0  0  0  0  0  0
   37.3210   25.7110   40.8750 C   0  0  0  0  0  0  0  0  0  0  0  0
   37.8300   24.5130   41.2480 N   0  0  0  0  0  0  0  0  0  0  0  0
   36.4780   22.6030   38.8550 H   0  0  0  0  0  0  0  0  0  0  0  0
   35.5520   24.8490   38.1940 H   0  0  0  0  0  0  0  0  0  0  0  0
   38.0550   22.1440   40.9090 N   0  0  0  0  0  0  0  0  0  0  0  0
   37.6140   21.2350   40.6700 H   0  0  0  0  0  0  0  0  0  0  0  0
   38.9460   22.0630   41.4500 H   0  0  0  0  0  0  0  0  0  0  0  0
   39.8290   29.8050   41.6720 O   0  0  0  0  0  0  0  0  0  0  0  0
   39.6650   30.9500   39.2920 O   0  0  0  0  0  0  0  0  0  0  0  0
   39.5750   31.2030   40.7840 P   0  0  2  0  0  0  0  0  0  0  0  0
   40.7770   32.3570   41.2080 O   0  0  0  0  0  0  0  0  0  0  0  0
   41.7190   31.5950   41.9360 C   0  0  0  0  0  2  0  0  0  0  0  0
   41.2300   31.0900   42.8120 H   0  0  0  0  0  0  0  0  0  0  0  0
   38.1150   31.9600   41.1260 O   0  0  0  0  0  0  0  0  0  0  0  0
   37.0730   31.4030   40.3490 C   0  0  0  0  0  0  0  0  0  0  0  0
   36.0520   31.1670   41.2700 F   0  0  0  0  0  0  0  0  0  0  0  0
   36.6030   32.3330   39.4460 F   0  0  0  0  0  0  0  0  0  0  0  0
   37.4380   30.2830   39.6630 F   0  0  0  0  0  0  0  0  0  0  0  0
  1  2  1  0  0  0  0
  2  3  2  0  0  0  0
  2  7  1  0  0  0  0
  3  4  1  0  0  0  0
  4  8  1  0  0  0  0
  4  5  2  0  0  0  0
  5  9  1  0  0  0  0
  6  5  1  0  0  0  0
  6 10  1  0  0  0  0
  7  6  2  0  0  0  0
 11 19  1  0  0  0  0
 11 16  1  0  0  0  0
 12 11  2  0  0  0  0
 13 12  1  0  0  0  0
 13 14  2  0  0  0  0
 14 15  1  0  0  0  0
 15 16  2  0  0  0  0
 15  3  1  0  0  0  0
 17 12  1  0  0  0  0
 18 13  1  0  0  0  0
 19 21  1  0  0  0  0
 20 19  1  0  0  0  0
 22  7  1  0  0  0  0
 24 23  2  6  0  0  0
 24 28  1  0  0  0  0
 24 25  1  0  0  0  0
 24 22  1  0  0  0  0
 25 26  1  0  0  0  0
 26 27  1  0  0  0  0
 29 28  1  0  0  0  0
 29 30  1  0  0  0  0
 31 29  1  0  0  0  0
 32 29  1  0  0  0  0
M  END
>  <minimizedAffinity>
-5.2119503

$$$$

 OpenBabel03252506163D

 32 33  0  0  0  0  0  0  0  0999 V2000
   37.6040   28.8310   39.3860 F   0  0  0  0  0  0  0  0  0  0  0  0
   37.4950   28.4840   40.6580 C   0  0  0  0  0  0  0  0  0  0  0  0
   37.8390   29.4090   41.6210 C   0  0  0  0  0  0  0  0  0  0  0  0
   37.7590   29.1460   43.0010 C   0  0  0  0  0  0  0  0  0  0  0  0
   37.3090   27.8830   43.4180 C   0  0  0  0  0  0  0  0  0  0  0  0
   36.9780   26.9940   42.4200 C   0  0  0  0  0  0  0  0  0  0  0  0
   37.0520   27.2380   41.0950 C   0  0  0  0  0  0  0  0  0  0  0  0
   38.0470   29.9250   43.7070 H   0  0  0  0  0  0  0  0  0  0  0  0
   37.2650   27.7300   44.4860 H   0  0  0  0  0  0  0  0  0  0  0  0
   36.6410   26.0680   42.8910 H   0  0  0  0  0  0  0  0  0  0  0  0
   37.8050   32.8360   40.3170 C   0  0  0  0  0  0  0  0  0  0  0  0
   39.1450   33.2390   40.5220 C   0  0  0  0  0  0  0  0  0  0  0  0
   40.0670   32.3140   41.1160 C   0  0  0  0  0  0  0  0  0  0  0  0
   39.5730   31.0840   41.4490 N   0  0  0  0  0  0  0  0  0  0  0  0
   38.3110   30.7460   41.2420 C   0  0  0  0  0  0  0  0  0  0  0  0
   37.4330   31.6120   40.6810 N   0  0  0  0  0  0  0  0  0  0  0  0
   39.4820   34.2210   40.2400 H   0  0  0  0  0  0  0  0  0  0  0  0
   41.0830   32.5830   41.2850 H   0  0  0  0  0  0  0  0  0  0  0  0
   36.9410   33.7670   39.7370 N   0  0  0  0  0  0  0  0  0  0  0  0
   37.0520   34.7980   39.7730 H   0  0  0  0  0  0  0  0  0  0  0  0
   36.0980   33.4410   39.2110 H   0  0  0  0  0  0  0  0  0  0  0  0
   36.6960   26.2760   40.1950 O   0  0  0  0  0  0  0  0  0  0  0  0
   39.1690   25.8120   39.3770 O   0  0  0  0  0  0  0  0  0  0  0  0
   37.7190   25.4100   39.1920 P   0  0  2  0  0  0  0  0  0  0  0  0
   37.2820   25.7110   37.5570 O   0  0  0  0  0  0  0  0  0  0  0  0
   38.3550   26.4920   37.0700 C   0  0  0  0  0  2  0  0  0  0  0  0
   38.4880   27.4160   37.6940 H   0  0  0  0  0  0  0  0  0  0  0  0
   37.5840   23.7450   39.3700 O   0  0  0  0  0  0  0  0  0  0  0  0
   37.4140   23.4040   40.7330 C   0  0  0  0  0  0  0  0  0  0  0  0
   37.6760   22.0340   40.7740 F   0  0  0  0  0  0  0  0  0  0  0  0
   38.3740   24.0260   41.5030 F   0  0  0  0  0  0  0  0  0  0  0  0
   36.1870   23.7250   41.2300 F   0  0  0  0  0  0  0  0  0  0  0  0
  1  2  1  0  0  0  0
  2  7  2  0  0  0  0
  2  3  1  0  0  0  0
  3  4  2  0  0  0  0
  4  5  1  0  0  0  0
  4  8  1  0  0  0  0
  5  9  1  0  0  0  0
  6 10  1  0  0  0  0
  6  5  2  0  0  0  0
  7  6  1  0  0  0  0
 11 12  2  0  0  0  0
 11 16  1  0  0  0  0
 12 13  1  0  0  0  0
 13 18  1  0  0  0  0
 13 14  2  0  0  0  0
 15 14  1  0  0  0  0
 15  3  1  0  0  0  0
 16 15  2  0  0  0  0
 17 12  1  0  0  0  0
 19 20  1  0  0  0  0
 19 11  1  0  0  0  0
 21 19  1  0  0  0  0
 22  7  1  0  0  0  0
 24 28  1  0  0  0  0
 24 23  2  1  0  0  0
 24 22  1  0  0  0  0
 25 24  1  0  0  0  0
 26 25  1  0  0  0  0
 26 27  1  0  0  0  0
 28 29  1  0  0  0  0
 29 30  1  0  0  0  0
 29 32  1  0  0  0  0
 29 31  1  0  0  0  0
M  END
>  <minimizedAffinity>
-5.20411158

$$$$

 OpenBabel03252506163D

 32 33  0  0  0  0  0  0  0  0999 V2000
   40.4130   29.8630   39.1830 F   0  0  0  0  0  0  0  0  0  0  0  0
   39.3520   30.6110   39.4400 C   0  0  0  0  0  0  0  0  0  0  0  0
   39.5200   31.9760   39.5370 C   0  0  0  0  0  0  0  0  0  0  0  0
   38.4610   32.8620   39.8040 C   0  0  0  0  0  0  0  0  0  0  0  0
   37.1720   32.3340   39.9810 C   0  0  0  0  0  0  0  0  0  0  0  0
   37.0550   30.9660   39.8760 C   0  0  0  0  0  0  0  0  0  0  0  0
   38.0650   30.1090   39.6200 C   0  0  0  0  0  0  0  0  0  0  0  0
   38.6670   33.9310   39.8660 H   0  0  0  0  0  0  0  0  0  0  0  0
   36.3940   33.0540   40.1840 H   0  0  0  0  0  0  0  0  0  0  0  0
   36.0060   30.7040   40.0280 H   0  0  0  0  0  0  0  0  0  0  0  0
   42.3600   33.6340   37.9140 C   0  0  0  0  0  0  0  0  0  0  0  0
   43.2930   33.7180   38.9740 C   0  0  0  0  0  0  0  0  0  0  0  0
   42.9330   33.1940   40.2610 C   0  0  0  0  0  0  0  0  0  0  0  0
   41.6890   32.6410   40.3720 N   0  0  0  0  0  0  0  0  0  0  0  0
   40.8440   32.5820   39.3550 C   0  0  0  0  0  0  0  0  0  0  0  0
   41.1740   33.0730   38.1360 N   0  0  0  0  0  0  0  0  0  0  0  0
   44.2620   34.1640   38.8310 H   0  0  0  0  0  0  0  0  0  0  0  0
   43.6100   33.2410   41.0810 H   0  0  0  0  0  0  0  0  0  0  0  0
   42.7500   34.1550   36.6790 N   0  0  0  0  0  0  0  0  0  0  0  0
   43.4600   34.8980   36.5340 H   0  0  0  0  0  0  0  0  0  0  0  0
   42.3150   33.7950   35.7990 H   0  0  0  0  0  0  0  0  0  0  0  0
   37.8280   28.7680   39.5390 O   0  0  0  0  0  0  0  0  0  0  0  0
   39.8590   27.1840   40.1480 O   0  0  0  0  0  0  0  0  0  0  0  0
   38.4470   27.5740   40.5380 P   0  0  2  0  0  0  0  0  0  0  0  0
   37.4510   26.1780   40.4200 O   0  0  0  0  0  0  0  0  0  0  0  0
   36.8680   26.3000   39.1390 C   0  0  0  0  0  2  0  0  0  0  0  0
   36.3170   27.2740   39.0440 H   0  0  0  0  0  0  0  0  0  0  0  0
   38.4210   27.9820   42.1670 O   0  0  0  0  0  0  0  0  0  0  0  0
   37.0940   27.9920   42.6560 C   0  0  0  0  0  0  0  0  0  0  0  0
   36.9300   26.7250   43.2170 F   0  0  0  0  0  0  0  0  0  0  0  0
   36.9700   28.9100   43.6780 F   0  0  0  0  0  0  0  0  0  0  0  0
   36.1610   28.2760   41.7050 F   0  0  0  0  0  0  0  0  0  0  0  0
  1  2  1  0  0  0  0
  2  3  2  0  0  0  0
  2  7  1  0  0  0  0
  3  4  1  0  0  0  0
  4  8  1  0  0  0  0
  4  5  2  0  0  0  0
  5  9  1  0  0  0  0
  6  5  1  0  0  0  0
  6 10  1  0  0  0  0
  7  6  2  0  0  0  0
 11 16  2  0  0  0  0
 11 12  1  0  0  0  0
 12 13  2  0  0  0  0
 13 14  1  0  0  0  0
 13 18  1  0  0  0  0
 15  3  1  0  0  0  0
 15 14  2  0  0  0  0
 16 15  1  0  0  0  0
 17 12  1  0  0  0  0
 19 11  1  0  0  0  0
 20 19  1  0  0  0  0
 21 19  1  0  0  0  0
 22  7  1  0  0  0  0
 22 24  1  0  0  0  0
 24 23  2  6  0  0  0
 24 28  1  0  0  0  0
 25 24  1  0  0  0  0
 26 25  1  0  0  0  0
 27 26  1  0  0  0  0
 28 29  1  0  0  0  0
 29 30  1  0  0  0  0
 29 31  1  0  0  0  0
 32 29  1  0  0  0  0
M  END
>  <minimizedAffinity>
-5.19862461

$$$$

 OpenBabel03252506163D

 32 33  0  0  0  0  0  0  0  0999 V2000
   37.6070   30.9520   37.1990 F   0  0  0  0  0  0  0  0  0  0  0  0
   36.7230   30.3440   37.9740 C   0  0  0  0  0  0  0  0  0  0  0  0
   36.6250   30.7400   39.2910 C   0  0  0  0  0  0  0  0  0  0  0  0
   35.7190   30.1620   40.2000 C   0  0  0  0  0  0  0  0  0  0  0  0
   34.8760   29.1350   39.7470 C   0  0  0  0  0  0  0  0  0  0  0  0
   35.0120   28.7750   38.4250 C   0  0  0  0  0  0  0  0  0  0  0  0
   35.8780   29.3230   37.5470 C   0  0  0  0  0  0  0  0  0  0  0  0
   35.6950   30.5260   41.2270 H   0  0  0  0  0  0  0  0  0  0  0  0
   34.1990   28.7250   40.4810 H   0  0  0  0  0  0  0  0  0  0  0  0
   34.2940   27.9790   38.2160 H   0  0  0  0  0  0  0  0  0  0  0  0
   39.3220   32.4110   41.1290 C   0  0  0  0  0  0  0  0  0  0  0  0
   39.0880   33.7700   40.8160 C   0  0  0  0  0  0  0  0  0  0  0  0
   37.9860   34.1090   39.9620 C   0  0  0  0  0  0  0  0  0  0  0  0
   37.2260   33.0710   39.5010 N   0  0  0  0  0  0  0  0  0  0  0  0
   37.4780   31.8120   39.8170 C   0  0  0  0  0  0  0  0  0  0  0  0
   38.5160   31.4820   40.6230 N   0  0  0  0  0  0  0  0  0  0  0  0
   39.7190   34.5500   41.2070 H   0  0  0  0  0  0  0  0  0  0  0  0
   37.7810   35.1220   39.7050 H   0  0  0  0  0  0  0  0  0  0  0  0
   40.4040   32.1260   41.9630 N   0  0  0  0  0  0  0  0  0  0  0  0
   41.2480   32.7180   42.0810 H   0  0  0  0  0  0  0  0  0  0  0  0
   40.4060   31.2520   42.5360 H   0  0  0  0  0  0  0  0  0  0  0  0
   35.9240   28.8820   36.2560 O   0  0  0  0  0  0  0  0  0  0  0  0
   33.3280   28.9680   35.7480 O   0  0  0  0  0  0  0  0  0  0  0  0
   34.7040   28.9900   35.1130 P   0  0  2  0  0  0  0  0  0  0  0  0
   34.8240   27.6490   34.0430 O   0  0  0  0  0  0  0  0  0  0  0  0
   33.5610   27.0270   34.1570 C   0  0  0  0  0  2  0  0  0  0  0  0
   33.3480   26.7520   35.2250 H   0  0  0  0  0  0  0  0  0  0  0  0
   34.8300   30.3400   34.1220 O   0  0  0  0  0  0  0  0  0  0  0  0
   36.1810   30.5790   33.7750 C   0  0  0  0  0  0  0  0  0  0  0  0
   36.1040   31.2690   32.5650 F   0  0  0  0  0  0  0  0  0  0  0  0
   36.7650   31.4260   34.6930 F   0  0  0  0  0  0  0  0  0  0  0  0
   36.9340   29.4460   33.6940 F   0  0  0  0  0  0  0  0  0  0  0  0
  1  2  1  0  0  0  0
  2  3  1  0  0  0  0
  3 15  1  0  0  0  0
  3  4  2  0  0  0  0
  4  8  1  0  0  0  0
  5  4  1  0  0  0  0
  5  9  1  0  0  0  0
  6  5  2  0  0  0  0
  7  2  2  0  0  0  0
  7  6  1  0  0  0  0
 10  6  1  0  0  0  0
 11 19  1  0  0  0  0
 12 11  1  0  0  0  0
 12 17  1  0  0  0  0
 13 12  2  0  0  0  0
 14 15  2  0  0  0  0
 14 13  1  0  0  0  0
 15 16  1  0  0  0  0
 16 11  2  0  0  0  0
 18 13  1  0  0  0  0
 19 20  1  0  0  0  0
 19 21  1  0  0  0  0
 22  7  1  0  0  0  0
 24 23  2  1  0  0  0
 24 22  1  0  0  0  0
 25 26  1  0  0  0  0
 25 24  1  0  0  0  0
 26 27  1  0  0  0  0
 28 24  1  0  0  0  0
 29 28  1  0  0  0  0
 29 31  1  0  0  0  0
 30 29  1  0  0  0  0
 32 29  1  0  0  0  0
M  END
>  <minimizedAffinity>
-5.14084053

$$$$

 OpenBabel03252506163D

 32 33  0  0  0  0  0  0  0  0999 V2000
   40.6630   29.7000   39.7500 F   0  0  0  0  0  0  0  0  0  0  0  0
   39.4200   30.1000   39.5330 C   0  0  0  0  0  0  0  0  0  0  0  0
   39.1960   31.4370   39.2850 C   0  0  0  0  0  0  0  0  0  0  0  0
   37.9170   31.9690   39.0400 C   0  0  0  0  0  0  0  0  0  0  0  0
   36.8150   31.0980   39.0490 C   0  0  0  0  0  0  0  0  0  0  0  0
   37.0890   29.7730   39.3020 C   0  0  0  0  0  0  0  0  0  0  0  0
   38.3130   29.2550   39.5380 C   0  0  0  0  0  0  0  0  0  0  0  0
   37.8140   33.0370   38.8500 H   0  0  0  0  0  0  0  0  0  0  0  0
   35.8550   31.5530   38.8560 H   0  0  0  0  0  0  0  0  0  0  0  0
   36.1470   29.2210   39.2690 H   0  0  0  0  0  0  0  0  0  0  0  0
   41.8320   33.6240   37.9760 C   0  0  0  0  0  0  0  0  0  0  0  0
   42.3820   34.1610   39.1630 C   0  0  0  0  0  0  0  0  0  0  0  0
   41.8340   33.7600   40.4280 C   0  0  0  0  0  0  0  0  0  0  0  0
   40.7970   32.8700   40.3920 N   0  0  0  0  0  0  0  0  0  0  0  0
   40.3110   32.3910   39.2590 C   0  0  0  0  0  0  0  0  0  0  0  0
   40.8220   32.7630   38.0600 N   0  0  0  0  0  0  0  0  0  0  0  0
   43.2000   34.8600   39.1350 H   0  0  0  0  0  0  0  0  0  0  0  0
   42.2230   34.1440   41.3420 H   0  0  0  0  0  0  0  0  0  0  0  0
   42.3950   34.0410   36.7690 N   0  0  0  0  0  0  0  0  0  0  0  0
   42.8970   34.9370   36.6130 H   0  0  0  0  0  0  0  0  0  0  0  0
   42.3300   33.4300   35.9230 H   0  0  0  0  0  0  0  0  0  0  0  0
   38.4630   27.9200   39.7780 O   0  0  0  0  0  0  0  0  0  0  0  0
   37.6420   27.7390   42.2870 O   0  0  0  0  0  0  0  0  0  0  0  0
   38.6170   27.1770   41.2710 P   0  0  2  0  0  0  0  0  0  0  0  0
   40.2130   27.4330   41.8570 O   0  0  0  0  0  0  0  0  0  0  0  0
   40.0400   28.4230   42.8510 C   0  0  0  0  0  2  0  0  0  0  0  0
   39.5510   29.3370   42.4210 H   0  0  0  0  0  0  0  0  0  0  0  0
   38.4450   25.5070   41.2120 O   0  0  0  0  0  0  0  0  0  0  0  0
   37.0810   25.1440   41.2980 C   0  0  0  0  0  0  0  0  0  0  0  0
   36.4450   25.9990   40.3980 F   0  0  0  0  0  0  0  0  0  0  0  0
   36.9000   23.8570   40.8370 F   0  0  0  0  0  0  0  0  0  0  0  0
   36.5700   25.2270   42.5590 F   0  0  0  0  0  0  0  0  0  0  0  0
  2  7  1  0  0  0  0
  2  1  1  0  0  0  0
  3  2  2  0  0  0  0
  4  5  2  0  0  0  0
  4  3  1  0  0  0  0
  5  6  1  0  0  0  0
  6  7  2  0  0  0  0
  7 22  1  0  0  0  0
  8  4  1  0  0  0  0
  9  5  1  0  0  0  0
 10  6  1  0  0  0  0
 11 16  2  0  0  0  0
 11 12  1  0  0  0  0
 12 13  2  0  0  0  0
 13 18  1  0  0  0  0
 14 13  1  0  0  0  0
 15  3  1  0  0  0  0
 15 14  2  0  0  0  0
 16 15  1  0  0  0  0
 17 12  1  0  0  0  0
 19 11  1  0  0  0  0
 20 19  1  0  0  0  0
 21 19  1  0  0  0  0
 22 24  1  0  0  0  0
 24 25  1  0  0  0  0
 24 23  2  1  0  0  0
 25 26  1  0  0  0  0
 27 26  1  0  0  0  0
 28 24  1  0  0  0  0
 28 29  1  0  0  0  0
 29 32  1  0  0  0  0
 30 29  1  0  0  0  0
 31 29  1  0  0  0  0
M  END
>  <minimizedAffinity>
-5.12734318

$$$$
