REMARK  Name = 
REMARK  8 active torsions:
REMARK  status: ('A' for Active; 'I' for Inactive)
REMARK    1  A    between atoms: N_1  and  C_7
REMARK    2  A    between atoms: C_6  and  O_15
REMARK    3  A    between atoms: C_7  and  C_8
REMARK    4  A    between atoms: C_8  and  C_11
REMARK    5  A    between atoms: O_15  and  P_17
REMARK    6  A    between atoms: P_17  and  O_18
REMARK    7  A    between atoms: P_17  and  O_19
REMARK    8  A    between atoms: O_19  and  C_37
REMARK                            x       y       z     vdW  Elec       q    Type
REMARK                         _______ _______ _______ _____ _____    ______ ____
ROOT
ATOM      1  N   UNL     1      47.169  34.160  43.086  0.00  0.00    +0.000 NA
ATOM      2  C   UNL     1      46.659  35.355  42.525  0.00  0.00    +0.000 C 
ATOM      3  C   UNL     1      45.181  35.587  42.736  0.00  0.00    +0.000 C 
ATOM      4  C   UNL     1      44.649  35.050  44.041  0.00  0.00    +0.000 C 
ATOM      5  C   UNL     1      45.749  34.472  44.898  0.00  0.00    +0.000 C 
ATOM      6  C   UNL     1      46.413  33.397  43.960  0.00  0.00    +0.000 C 
ATOM      7  H   UNL     1      47.156  36.197  43.067  0.00  0.00    +0.000 HD
ATOM      8  H   UNL     1      46.871  35.527  41.469  0.00  0.00    +0.000 HD
ATOM      9  H   UNL     1      44.676  35.078  41.874  0.00  0.00    +0.000 HD
ATOM     10  H   UNL     1      44.985  36.675  42.595  0.00  0.00    +0.000 HD
ATOM     11  H   UNL     1      44.066  35.835  44.527  0.00  0.00    +0.000 HD
ATOM     12  H   UNL     1      43.945  34.205  43.825  0.00  0.00    +0.000 HD
ATOM     13  H   UNL     1      45.317  33.955  45.760  0.00  0.00    +0.000 HD
ATOM     14  H   UNL     1      46.515  35.224  45.129  0.00  0.00    +0.000 HD
ATOM     15  H   UNL     1      45.590  32.792  43.517  0.00  0.00    +0.000 HD
ENDROOT
BRANCH   1  16
ATOM     16  C   UNL     1      48.151  33.502  42.268  0.00  0.00    +0.000 C 
ATOM     17  H   UNL     1      48.910  32.940  42.877  0.00  0.00    +0.000 HD
ATOM     18  H   UNL     1      48.732  34.307  41.766  0.00  0.00    +0.000 HD
BRANCH  16  19
ATOM     19  C   UNL     1      47.454  32.656  41.260  0.00  0.00    +0.000 C 
ATOM     20  H   UNL     1      47.586  31.603  41.507  0.00  0.00    +0.000 HD
ATOM     21  H   UNL     1      46.353  32.838  41.256  0.00  0.00    +0.000 HD
BRANCH  19  24
ATOM     22  C   UNL     1      49.334  32.279  38.029  0.00  0.00    +0.000 A 
ATOM     23  C   UNL     1      48.811  32.023  39.310  0.00  0.00    +0.000 A 
ATOM     24  C   UNL     1      47.995  32.946  39.908  0.00  0.00    +0.000 A 
ATOM     25  N   UNL     1      47.730  34.071  39.232  0.00  0.00    +0.000 NA
ATOM     26  C   UNL     1      48.227  34.320  38.010  0.00  0.00    +0.000 A 
ATOM     27  N   UNL     1      49.030  33.435  37.394  0.00  0.00    +0.000 NA
ATOM     28  H   UNL     1      49.985  31.564  37.528  0.00  0.00    +0.000 HD
ATOM     29  H   UNL     1      49.097  31.082  39.750  0.00  0.00    +0.000 HD
ATOM     30  H   UNL     1      47.949  35.271  37.541  0.00  0.00    +0.000 HD
ENDBRANCH  19  24
ENDBRANCH  16  19
ENDBRANCH   1  16
BRANCH   6  31
ATOM     31  O   UNL     1      47.206  32.697  44.856  0.00  0.00    +0.000 OA
BRANCH  31  33
ATOM     32  O   UNL     1      45.996  30.547  43.863  0.00  0.00    +0.000 OA
ATOM     33  P   UNL     1      46.664  31.128  45.118  0.00  0.00    +0.000 P 
BRANCH  33  34
ATOM     34  O   UNL     1      45.402  31.243  46.268  0.00  0.00    +0.000 OA
ATOM     35  H   UNL     1      45.834  31.442  47.147  0.00  0.00    +0.000 HD
ENDBRANCH  33  34
BRANCH  33  36
ATOM     36  O   UNL     1      47.837  30.121  45.734  0.00  0.00    +0.000 OA
BRANCH  36  37
ATOM     37  C   UNL     1      47.774  28.897  45.073  0.00  0.00    +0.000 C 
ATOM     38  H   UNL     1      47.734  28.081  45.825  0.00  0.00    +0.000 HD
ENDBRANCH  36  37
ENDBRANCH  33  36
ENDBRANCH  31  33
ENDBRANCH   6  31
TORSDOF 8
