
 OpenBabel03252504313D

 26 26  0  0  0  0  0  0  0  0999 V2000
   37.8240   28.1140   43.2500 O   0  0  0  0  0  0  0  0  0  0  0  0
   36.8740   27.1460   43.0070 C   0  0  0  0  0  0  0  0  0  0  0  0
   36.5260   26.7970   44.0330 H   0  0  0  0  0  0  0  0  0  0  0  0
   35.9900   27.5190   42.4790 H   0  0  0  0  0  0  0  0  0  0  0  0
   38.8220   25.9840   42.1950 C   0  0  0  0  0  0  0  0  0  0  0  0
   37.4300   25.9120   42.3970 C   0  0  0  0  0  0  0  0  0  0  0  0
   36.7930   24.7630   42.0340 C   0  0  0  0  0  0  0  0  0  0  0  0
   37.5380   23.7890   41.5120 N   0  0  0  0  0  0  0  0  0  0  0  0
   38.8460   23.8420   41.3180 C   0  0  0  0  0  0  0  0  0  0  0  0
   39.5730   24.9770   41.6600 N   0  0  0  0  0  0  0  0  0  0  0  0
   39.4310   26.8530   42.4490 H   0  0  0  0  0  0  0  0  0  0  0  0
   35.7270   24.7770   42.2160 H   0  0  0  0  0  0  0  0  0  0  0  0
   39.3850   23.0110   40.8890 H   0  0  0  0  0  0  0  0  0  0  0  0
   37.8580   29.4030   42.7370 C   0  0  0  0  0  3  0  0  0  0  0  0
   39.0580   29.8720   42.3690 C   0  0  0  0  0  3  0  0  0  0  0  0
   39.3320   31.2490   41.7820 C   0  0  0  0  0  0  0  0  0  0  0  0
   40.3090   31.1780   41.2900 H   0  0  0  0  0  0  0  0  0  0  0  0
   39.3350   32.0010   42.5800 H   0  0  0  0  0  0  0  0  0  0  0  0
   38.3610   31.4950   40.8490 O   0  0  0  0  0  0  0  0  0  0  0  0
   37.2030   33.4840   39.5180 O   0  0  0  0  0  0  0  0  0  0  0  0
   38.4570   33.0680   40.2260 P   0  0  1  0  0  0  0  0  0  0  0  0
   38.7510   34.1570   41.4870 O   0  0  0  0  0  0  0  0  0  0  0  0
   39.6270   33.8650   41.8890 H   0  0  0  0  0  0  0  0  0  0  0  0
   39.7910   33.1540   39.1760 O   0  0  0  0  0  0  0  0  0  0  0  0
   40.6890   34.1610   39.5810 C   0  0  0  0  0  2  0  0  0  0  0  0
   40.8430   34.8990   38.7570 H   0  0  0  0  0  0  0  0  0  0  0  0
  2  1  1  0  0  0  0
  2  3  1  0  0  0  0
  4  2  1  0  0  0  0
  5  6  1  0  0  0  0
  5 11  1  0  0  0  0
  6  2  1  0  0  0  0
  7 12  1  0  0  0  0
  7  6  2  0  0  0  0
  8  7  1  0  0  0  0
  9  8  2  0  0  0  0
  9 10  1  0  0  0  0
 10  5  2  0  0  0  0
 13  9  1  0  0  0  0
 14  1  1  0  0  0  0
 15 14  2  0  0  0  0
 16 15  1  0  0  0  0
 16 18  1  0  0  0  0
 17 16  1  0  0  0  0
 19 16  1  0  0  0  0
 21 20  2  6  0  0  0
 21 19  1  0  0  0  0
 21 22  1  0  0  0  0
 22 23  1  0  0  0  0
 24 25  1  0  0  0  0
 24 21  1  0  0  0  0
 26 25  1  0  0  0  0
M  END
>  <minimizedAffinity>
-4.16603327

$$$$

 OpenBabel03252504313D

 26 26  0  0  0  0  0  0  0  0999 V2000
   37.0270   29.5070   42.4020 O   0  0  0  0  0  0  0  0  0  0  0  0
   37.7140   28.8840   43.4220 C   0  0  0  0  0  0  0  0  0  0  0  0
   38.7180   29.4160   43.4830 H   0  0  0  0  0  0  0  0  0  0  0  0
   37.2360   28.9880   44.4030 H   0  0  0  0  0  0  0  0  0  0  0  0
   37.0300   26.7470   42.5430 C   0  0  0  0  0  0  0  0  0  0  0  0
   38.0900   27.4810   43.1110 C   0  0  0  0  0  0  0  0  0  0  0  0
   39.2820   26.8450   43.2880 C   0  0  0  0  0  0  0  0  0  0  0  0
   39.3570   25.5700   42.9080 N   0  0  0  0  0  0  0  0  0  0  0  0
   38.3710   24.8680   42.3720 C   0  0  0  0  0  0  0  0  0  0  0  0
   37.1230   25.4410   42.1580 N   0  0  0  0  0  0  0  0  0  0  0  0
   36.0360   27.1560   42.3570 H   0  0  0  0  0  0  0  0  0  0  0  0
   40.0490   27.4670   43.7290 H   0  0  0  0  0  0  0  0  0  0  0  0
   38.5060   23.8360   42.0880 H   0  0  0  0  0  0  0  0  0  0  0  0
   37.5570   30.3070   41.4010 C   0  0  0  0  0  3  0  0  0  0  0  0
   36.6800   30.9170   40.5900 C   0  0  0  0  0  3  0  0  0  0  0  0
   37.0320   31.8370   39.4320 C   0  0  0  0  0  0  0  0  0  0  0  0
   37.8020   32.5200   39.8130 H   0  0  0  0  0  0  0  0  0  0  0  0
   36.1390   32.3800   39.1020 H   0  0  0  0  0  0  0  0  0  0  0  0
   37.5570   31.0590   38.4370 O   0  0  0  0  0  0  0  0  0  0  0  0
   40.0690   30.3730   37.9010 O   0  0  0  0  0  0  0  0  0  0  0  0
   39.1280   31.5340   38.0140 P   0  0  1  0  0  0  0  0  0  0  0  0
   39.0910   32.3430   36.5280 O   0  0  0  0  0  0  0  0  0  0  0  0
   38.4910   33.1390   36.6760 H   0  0  0  0  0  0  0  0  0  0  0  0
   39.6870   32.6470   39.1700 O   0  0  0  0  0  0  0  0  0  0  0  0
   40.6980   32.0800   39.9700 C   0  0  0  0  0  2  0  0  0  0  0  0
   40.4110   32.1230   41.0480 H   0  0  0  0  0  0  0  0  0  0  0  0
  1  2  1  0  0  0  0
  2  3  1  0  0  0  0
  2  4  1  0  0  0  0
  5  6  1  0  0  0  0
  6  7  2  0  0  0  0
  6  2  1  0  0  0  0
  7 12  1  0  0  0  0
  8  7  1  0  0  0  0
  9  8  2  0  0  0  0
 10  9  1  0  0  0  0
 10  5  2  0  0  0  0
 11  5  1  0  0  0  0
 13  9  1  0  0  0  0
 14  1  1  0  0  0  0
 15 14  2  0  0  0  0
 16 17  1  0  0  0  0
 16 15  1  0  0  0  0
 18 16  1  0  0  0  0
 19 16  1  0  0  0  0
 21 20  2  6  0  0  0
 21 19  1  0  0  0  0
 21 24  1  0  0  0  0
 22 23  1  0  0  0  0
 22 21  1  0  0  0  0
 24 25  1  0  0  0  0
 25 26  1  0  0  0  0
M  END
>  <minimizedAffinity>
-4.09093714

$$$$

 OpenBabel03252504313D

 26 26  0  0  0  0  0  0  0  0999 V2000
   39.9470   25.7970   42.6360 O   0  0  0  0  0  0  0  0  0  0  0  0
   39.3120   24.5940   42.8570 C   0  0  0  0  0  0  0  0  0  0  0  0
   40.1110   23.7960   42.7150 H   0  0  0  0  0  0  0  0  0  0  0  0
   38.9260   24.4800   43.8770 H   0  0  0  0  0  0  0  0  0  0  0  0
   38.8840   23.7320   40.6490 C   0  0  0  0  0  0  0  0  0  0  0  0
   38.3050   24.2570   41.8200 C   0  0  0  0  0  0  0  0  0  0  0  0
   36.9480   24.3770   41.8600 C   0  0  0  0  0  0  0  0  0  0  0  0
   36.2670   23.9860   40.7840 N   0  0  0  0  0  0  0  0  0  0  0  0
   36.7980   23.4900   39.6770 C   0  0  0  0  0  0  0  0  0  0  0  0
   38.1730   23.3350   39.5530 N   0  0  0  0  0  0  0  0  0  0  0  0
   39.9570   23.5930   40.5090 H   0  0  0  0  0  0  0  0  0  0  0  0
   36.5720   24.7880   42.7870 H   0  0  0  0  0  0  0  0  0  0  0  0
   36.1810   23.1930   38.8430 H   0  0  0  0  0  0  0  0  0  0  0  0
   39.3530   27.0290   42.4100 C   0  0  0  0  0  3  0  0  0  0  0  0
   38.6220   27.5370   43.4120 C   0  0  0  0  0  3  0  0  0  0  0  0
   37.8850   28.8680   43.3880 C   0  0  0  0  0  0  0  0  0  0  0  0
   38.6080   29.6060   43.0170 H   0  0  0  0  0  0  0  0  0  0  0  0
   37.5340   29.1180   44.3950 H   0  0  0  0  0  0  0  0  0  0  0  0
   36.8520   28.7470   42.4990 O   0  0  0  0  0  0  0  0  0  0  0  0
   36.8790   29.2880   39.8960 O   0  0  0  0  0  0  0  0  0  0  0  0
   36.9340   29.9030   41.2620 P   0  0  1  0  0  0  0  0  0  0  0  0
   35.6420   30.9860   41.4170 O   0  0  0  0  0  0  0  0  0  0  0  0
   35.7590   31.4070   42.3240 H   0  0  0  0  0  0  0  0  0  0  0  0
   38.3610   30.8030   41.4550 O   0  0  0  0  0  0  0  0  0  0  0  0
   39.2270   30.6210   40.3590 C   0  0  0  0  0  2  0  0  0  0  0  0
   40.2170   30.2360   40.7060 H   0  0  0  0  0  0  0  0  0  0  0  0
  1  2  1  0  0  0  0
  2  4  1  0  0  0  0
  3  2  1  0  0  0  0
  5  6  1  0  0  0  0
  6  7  2  0  0  0  0
  6  2  1  0  0  0  0
  7 12  1  0  0  0  0
  8  7  1  0  0  0  0
  9  8  2  0  0  0  0
 10  9  1  0  0  0  0
 10  5  2  0  0  0  0
 11  5  1  0  0  0  0
 13  9  1  0  0  0  0
 14  1  1  0  0  0  0
 14 15  2  0  0  0  0
 16 15  1  0  0  0  0
 16 18  1  0  0  0  0
 17 16  1  0  0  0  0
 19 16  1  0  0  0  0
 21 20  2  6  0  0  0
 21 22  1  0  0  0  0
 21 24  1  0  0  0  0
 21 19  1  0  0  0  0
 22 23  1  0  0  0  0
 25 26  1  0  0  0  0
 25 24  1  0  0  0  0
M  END
>  <minimizedAffinity>
-4.01167297

$$$$

 OpenBabel03252504313D

 26 26  0  0  0  0  0  0  0  0999 V2000
   33.5130   29.1770   36.5810 O   0  0  0  0  0  0  0  0  0  0  0  0
   32.1750   28.9460   36.3430 C   0  0  0  0  0  0  0  0  0  0  0  0
   32.0720   28.8830   35.2120 H   0  0  0  0  0  0  0  0  0  0  0  0
   31.8130   27.9950   36.7510 H   0  0  0  0  0  0  0  0  0  0  0  0
   30.6820   29.9340   37.9550 C   0  0  0  0  0  0  0  0  0  0  0  0
   31.3040   30.0940   36.7020 C   0  0  0  0  0  0  0  0  0  0  0  0
   31.0490   31.2370   36.0060 C   0  0  0  0  0  0  0  0  0  0  0  0
   30.2270   32.1240   36.5660 N   0  0  0  0  0  0  0  0  0  0  0  0
   29.6370   31.9890   37.7430 C   0  0  0  0  0  0  0  0  0  0  0  0
   29.8430   30.8530   38.5170 N   0  0  0  0  0  0  0  0  0  0  0  0
   30.8150   29.0610   38.5950 H   0  0  0  0  0  0  0  0  0  0  0  0
   31.5580   31.2930   35.0530 H   0  0  0  0  0  0  0  0  0  0  0  0
   28.9820   32.7520   38.1340 H   0  0  0  0  0  0  0  0  0  0  0  0
   34.2660   28.7170   37.6500 C   0  0  0  0  0  3  0  0  0  0  0  0
   35.3120   29.4710   38.0180 C   0  0  0  0  0  3  0  0  0  0  0  0
   36.2710   29.1640   39.1590 C   0  0  0  0  0  0  0  0  0  0  0  0
   36.7720   28.2270   38.8870 H   0  0  0  0  0  0  0  0  0  0  0  0
   35.7140   29.0660   40.0980 H   0  0  0  0  0  0  0  0  0  0  0  0
   37.1850   30.1800   39.2080 O   0  0  0  0  0  0  0  0  0  0  0  0
   37.5400   32.4400   40.5620 O   0  0  0  0  0  0  0  0  0  0  0  0
   37.1540   30.9980   40.6920 P   0  0  1  0  0  0  0  0  0  0  0  0
   35.5960   30.9140   41.3490 O   0  0  0  0  0  0  0  0  0  0  0  0
   35.4110   29.9310   41.4650 H   0  0  0  0  0  0  0  0  0  0  0  0
   38.1910   30.1960   41.7730 O   0  0  0  0  0  0  0  0  0  0  0  0
   37.4690   29.3380   42.6250 C   0  0  0  0  0  2  0  0  0  0  0  0
   37.6540   29.6040   43.6940 H   0  0  0  0  0  0  0  0  0  0  0  0
  1 14  1  0  0  0  0
  2  1  1  0  0  0  0
  2  6  1  0  0  0  0
  2  4  1  0  0  0  0
  3  2  1  0  0  0  0
  5 10  1  0  0  0  0
  5 11  1  0  0  0  0
  6  5  2  0  0  0  0
  7  8  2  0  0  0  0
  7  6  1  0  0  0  0
  8  9  1  0  0  0  0
  9 13  1  0  0  0  0
  9 10  2  0  0  0  0
 12  7  1  0  0  0  0
 14 15  2  0  0  0  0
 15 16  1  0  0  0  0
 16 19  1  0  0  0  0
 16 18  1  0  0  0  0
 17 16  1  0  0  0  0
 19 21  1  0  0  0  0
 21 20  2  6  0  0  0
 21 22  1  0  0  0  0
 21 24  1  0  0  0  0
 22 23  1  0  0  0  0
 24 25  1  0  0  0  0
 25 26  1  0  0  0  0
M  END
>  <minimizedAffinity>
-3.96098804

$$$$

 OpenBabel03252504313D

 26 26  0  0  0  0  0  0  0  0999 V2000
   35.8420   29.6210   41.0450 O   0  0  0  0  0  0  0  0  0  0  0  0
   36.5440   28.5250   40.5930 C   0  0  0  0  0  0  0  0  0  0  0  0
   35.7690   27.7040   40.4480 H   0  0  0  0  0  0  0  0  0  0  0  0
   37.0300   28.6810   39.6230 H   0  0  0  0  0  0  0  0  0  0  0  0
   38.5940   27.3400   41.0380 C   0  0  0  0  0  0  0  0  0  0  0  0
   37.4610   27.9510   41.6100 C   0  0  0  0  0  0  0  0  0  0  0  0
   37.3550   27.9490   42.9690 C   0  0  0  0  0  0  0  0  0  0  0  0
   38.3360   27.3690   43.6590 N   0  0  0  0  0  0  0  0  0  0  0  0
   39.4070   26.7920   43.1350 C   0  0  0  0  0  0  0  0  0  0  0  0
   39.5920   26.7490   41.7580 N   0  0  0  0  0  0  0  0  0  0  0  0
   38.7800   27.2840   39.9650 H   0  0  0  0  0  0  0  0  0  0  0  0
   36.4620   28.4340   43.3390 H   0  0  0  0  0  0  0  0  0  0  0  0
   40.1630   26.3410   43.7590 H   0  0  0  0  0  0  0  0  0  0  0  0
   36.2170   30.9530   40.9520 C   0  0  0  0  0  3  0  0  0  0  0  0
   36.8230   31.3300   39.8170 C   0  0  0  0  0  3  0  0  0  0  0  0
   37.3160   32.7330   39.4960 C   0  0  0  0  0  0  0  0  0  0  0  0
   37.2350   33.3010   40.4310 H   0  0  0  0  0  0  0  0  0  0  0  0
   36.7000   33.1720   38.7020 H   0  0  0  0  0  0  0  0  0  0  0  0
   38.6300   32.6300   39.1300 O   0  0  0  0  0  0  0  0  0  0  0  0
   40.7260   34.1570   39.7170 O   0  0  0  0  0  0  0  0  0  0  0  0
   39.6730   33.2670   40.3050 P   0  0  1  0  0  0  0  0  0  0  0  0
   38.7770   34.1610   41.4280 O   0  0  0  0  0  0  0  0  0  0  0  0
   38.1260   33.5050   41.8290 H   0  0  0  0  0  0  0  0  0  0  0  0
   40.3850   31.9780   41.1520 O   0  0  0  0  0  0  0  0  0  0  0  0
   41.7530   32.2200   41.3840 C   0  0  0  0  0  2  0  0  0  0  0  0
   42.3720   31.3970   40.9510 H   0  0  0  0  0  0  0  0  0  0  0  0
  2  1  1  0  0  0  0
  2  6  1  0  0  0  0
  3  2  1  0  0  0  0
  4  2  1  0  0  0  0
  5  6  2  0  0  0  0
  5 10  1  0  0  0  0
  6  7  1  0  0  0  0
  7 12  1  0  0  0  0
  7  8  2  0  0  0  0
  9  8  1  0  0  0  0
  9 13  1  0  0  0  0
 10  9  2  0  0  0  0
 11  5  1  0  0  0  0
 14  1  1  0  0  0  0
 15 14  2  0  0  0  0
 16 15  1  0  0  0  0
 16 17  1  0  0  0  0
 18 16  1  0  0  0  0
 19 16  1  0  0  0  0
 19 21  1  0  0  0  0
 21 20  2  6  0  0  0
 21 24  1  0  0  0  0
 21 22  1  0  0  0  0
 22 23  1  0  0  0  0
 24 25  1  0  0  0  0
 26 25  1  0  0  0  0
M  END
>  <minimizedAffinity>
-3.94990039

$$$$

 OpenBabel03252504313D

 26 26  0  0  0  0  0  0  0  0999 V2000
   38.0330   27.8450   42.7700 O   0  0  0  0  0  0  0  0  0  0  0  0
   39.1190   27.2230   42.1930 C   0  0  0  0  0  0  0  0  0  0  0  0
   39.3400   27.8130   41.2450 H   0  0  0  0  0  0  0  0  0  0  0  0
   40.0250   27.2560   42.8090 H   0  0  0  0  0  0  0  0  0  0  0  0
   37.5760   25.3730   42.1340 C   0  0  0  0  0  0  0  0  0  0  0  0
   38.8190   25.8600   41.6850 C   0  0  0  0  0  0  0  0  0  0  0  0
   39.5580   25.0600   40.8660 C   0  0  0  0  0  0  0  0  0  0  0  0
   39.0470   23.8710   40.5480 N   0  0  0  0  0  0  0  0  0  0  0  0
   37.8800   23.4010   40.9610 C   0  0  0  0  0  0  0  0  0  0  0  0
   37.0650   24.1530   41.7990 N   0  0  0  0  0  0  0  0  0  0  0  0
   36.9050   25.9290   42.7900 H   0  0  0  0  0  0  0  0  0  0  0  0
   40.5000   25.4960   40.5610 H   0  0  0  0  0  0  0  0  0  0  0  0
   37.5300   22.4250   40.6620 H   0  0  0  0  0  0  0  0  0  0  0  0
   37.3920   28.9930   42.3290 C   0  0  0  0  0  3  0  0  0  0  0  0
   36.5550   28.8540   41.2910 C   0  0  0  0  0  3  0  0  0  0  0  0
   35.7470   29.9690   40.6460 C   0  0  0  0  0  0  0  0  0  0  0  0
   34.7220   29.8540   41.0200 H   0  0  0  0  0  0  0  0  0  0  0  0
   35.7910   29.8780   39.5540 H   0  0  0  0  0  0  0  0  0  0  0  0
   36.2680   31.1560   41.0830 O   0  0  0  0  0  0  0  0  0  0  0  0
   36.9080   31.4190   38.5160 O   0  0  0  0  0  0  0  0  0  0  0  0
   37.2100   31.9170   39.8970 P   0  0  1  0  0  0  0  0  0  0  0  0
   36.9320   33.5860   39.9410 O   0  0  0  0  0  0  0  0  0  0  0  0
   37.2020   33.8740   40.8670 H   0  0  0  0  0  0  0  0  0  0  0  0
   38.8500   31.6780   40.2720 O   0  0  0  0  0  0  0  0  0  0  0  0
   39.3810   30.5900   39.5520 C   0  0  0  0  0  2  0  0  0  0  0  0
   39.8010   29.8280   40.2530 H   0  0  0  0  0  0  0  0  0  0  0  0
  2  1  1  0  0  0  0
  2  4  1  0  0  0  0
  3  2  1  0  0  0  0
  5 11  1  0  0  0  0
  6  5  2  0  0  0  0
  6  2  1  0  0  0  0
  7  6  1  0  0  0  0
  8  7  2  0  0  0  0
  8  9  1  0  0  0  0
  9 10  2  0  0  0  0
 10  5  1  0  0  0  0
 12  7  1  0  0  0  0
 13  9  1  0  0  0  0
 14  1  1  0  0  0  0
 15 14  2  0  0  0  0
 16 17  1  0  0  0  0
 16 19  1  0  0  0  0
 16 15  1  0  0  0  0
 18 16  1  0  0  0  0
 21 20  2  6  0  0  0
 21 22  1  0  0  0  0
 21 24  1  0  0  0  0
 21 19  1  0  0  0  0
 22 23  1  0  0  0  0
 25 26  1  0  0  0  0
 25 24  1  0  0  0  0
M  END
>  <minimizedAffinity>
-3.88720036

$$$$

 OpenBabel03252504313D

 26 26  0  0  0  0  0  0  0  0999 V2000
   36.9630   27.4260   42.8580 O   0  0  0  0  0  0  0  0  0  0  0  0
   38.0690   27.5790   43.6660 C   0  0  0  0  0  0  0  0  0  0  0  0
   38.5180   28.5860   43.3810 H   0  0  0  0  0  0  0  0  0  0  0  0
   37.8300   27.6260   44.7350 H   0  0  0  0  0  0  0  0  0  0  0  0
   40.4350   27.1280   43.6800 C   0  0  0  0  0  0  0  0  0  0  0  0
   39.1610   26.6200   43.3620 C   0  0  0  0  0  0  0  0  0  0  0  0
   39.0880   25.3610   42.8470 C   0  0  0  0  0  0  0  0  0  0  0  0
   40.2340   24.7000   42.6820 N   0  0  0  0  0  0  0  0  0  0  0  0
   41.4380   25.1640   42.9770 C   0  0  0  0  0  0  0  0  0  0  0  0
   41.6010   26.4390   43.5060 N   0  0  0  0  0  0  0  0  0  0  0  0
   40.6090   28.1210   44.0960 H   0  0  0  0  0  0  0  0  0  0  0  0
   38.0810   25.0360   42.6250 H   0  0  0  0  0  0  0  0  0  0  0  0
   42.3240   24.5690   42.8160 H   0  0  0  0  0  0  0  0  0  0  0  0
   36.6320   28.1750   41.7390 C   0  0  0  0  0  3  0  0  0  0  0  0
   36.6530   29.5080   41.8800 C   0  0  0  0  0  3  0  0  0  0  0  0
   36.3300   30.5210   40.7920 C   0  0  0  0  0  0  0  0  0  0  0  0
   36.1820   31.4790   41.3060 H   0  0  0  0  0  0  0  0  0  0  0  0
   35.4290   30.2120   40.2490 H   0  0  0  0  0  0  0  0  0  0  0  0
   37.4220   30.6010   39.9710 O   0  0  0  0  0  0  0  0  0  0  0  0
   38.9410   32.4460   38.8060 O   0  0  0  0  0  0  0  0  0  0  0  0
   38.1710   32.1200   40.0500 P   0  0  1  0  0  0  0  0  0  0  0  0
   36.9970   33.3160   40.2870 O   0  0  0  0  0  0  0  0  0  0  0  0
   36.5510   33.0790   41.1580 H   0  0  0  0  0  0  0  0  0  0  0  0
   39.1900   32.1510   41.4090 O   0  0  0  0  0  0  0  0  0  0  0  0
   40.1430   31.1150   41.3510 C   0  0  0  0  0  2  0  0  0  0  0  0
   40.0680   30.4660   42.2570 H   0  0  0  0  0  0  0  0  0  0  0  0
  1  2  1  0  0  0  0
  2  4  1  0  0  0  0
  3  2  1  0  0  0  0
  5 11  1  0  0  0  0
  6  2  1  0  0  0  0
  6  5  2  0  0  0  0
  7  6  1  0  0  0  0
  8  7  2  0  0  0  0
  8  9  1  0  0  0  0
  9 10  2  0  0  0  0
 10  5  1  0  0  0  0
 12  7  1  0  0  0  0
 13  9  1  0  0  0  0
 14 15  2  0  0  0  0
 14  1  1  0  0  0  0
 16 17  1  0  0  0  0
 16 15  1  0  0  0  0
 18 16  1  0  0  0  0
 19 21  1  0  0  0  0
 19 16  1  0  0  0  0
 21 20  2  6  0  0  0
 21 22  1  0  0  0  0
 21 24  1  0  0  0  0
 22 23  1  0  0  0  0
 25 24  1  0  0  0  0
 25 26  1  0  0  0  0
M  END
>  <minimizedAffinity>
-3.87246847

$$$$

 OpenBabel03252504313D

 26 26  0  0  0  0  0  0  0  0999 V2000
   32.3480   28.5650   36.3460 O   0  0  0  0  0  0  0  0  0  0  0  0
   31.4190   29.4110   36.9140 C   0  0  0  0  0  0  0  0  0  0  0  0
   30.4620   28.8010   36.9970 H   0  0  0  0  0  0  0  0  0  0  0  0
   31.6810   29.7360   37.9280 H   0  0  0  0  0  0  0  0  0  0  0  0
   31.1870   30.2400   34.6640 C   0  0  0  0  0  0  0  0  0  0  0  0
   31.0300   30.5390   36.0310 C   0  0  0  0  0  0  0  0  0  0  0  0
   30.5500   31.7720   36.3620 C   0  0  0  0  0  0  0  0  0  0  0  0
   30.2630   32.6050   35.3620 N   0  0  0  0  0  0  0  0  0  0  0  0
   30.4040   32.3370   34.0740 C   0  0  0  0  0  0  0  0  0  0  0  0
   30.8880   31.1040   33.6500 N   0  0  0  0  0  0  0  0  0  0  0  0
   31.5620   29.2870   34.2880 H   0  0  0  0  0  0  0  0  0  0  0  0
   30.4560   31.9330   37.4270 H   0  0  0  0  0  0  0  0  0  0  0  0
   30.1500   33.0640   33.3180 H   0  0  0  0  0  0  0  0  0  0  0  0
   33.5500   28.1480   36.8990 C   0  0  0  0  0  3  0  0  0  0  0  0
   33.9750   28.8100   37.9850 C   0  0  0  0  0  3  0  0  0  0  0  0
   35.2560   28.5250   38.7540 C   0  0  0  0  0  0  0  0  0  0  0  0
   35.9970   29.2420   38.3810 H   0  0  0  0  0  0  0  0  0  0  0  0
   35.5720   27.4900   38.5810 H   0  0  0  0  0  0  0  0  0  0  0  0
   35.0010   28.7700   40.0760 O   0  0  0  0  0  0  0  0  0  0  0  0
   37.3880   29.9240   39.8820 O   0  0  0  0  0  0  0  0  0  0  0  0
   36.2580   29.6280   40.8210 P   0  0  1  0  0  0  0  0  0  0  0  0
   35.6610   31.0920   41.4240 O   0  0  0  0  0  0  0  0  0  0  0  0
   34.9470   30.8340   42.0850 H   0  0  0  0  0  0  0  0  0  0  0  0
   36.8090   28.7310   42.1550 O   0  0  0  0  0  0  0  0  0  0  0  0
   37.9160   29.3560   42.7620 C   0  0  0  0  0  2  0  0  0  0  0  0
   38.7910   28.6610   42.7840 H   0  0  0  0  0  0  0  0  0  0  0  0
  1 14  1  0  0  0  0
  1  2  1  0  0  0  0
  2  3  1  0  0  0  0
  2  4  1  0  0  0  0
  5  6  1  0  0  0  0
  6  7  2  0  0  0  0
  6  2  1  0  0  0  0
  7 12  1  0  0  0  0
  8  7  1  0  0  0  0
  9  8  2  0  0  0  0
 10  9  1  0  0  0  0
 10  5  2  0  0  0  0
 11  5  1  0  0  0  0
 13  9  1  0  0  0  0
 14 15  2  0  0  0  0
 15 16  1  0  0  0  0
 16 19  1  0  0  0  0
 17 16  1  0  0  0  0
 18 16  1  0  0  0  0
 19 21  1  0  0  0  0
 21 20  2  6  0  0  0
 21 22  1  0  0  0  0
 21 24  1  0  0  0  0
 22 23  1  0  0  0  0
 24 25  1  0  0  0  0
 25 26  1  0  0  0  0
M  END
>  <minimizedAffinity>
-3.84584904

$$$$

 OpenBabel03252504313D

 26 26  0  0  0  0  0  0  0  0999 V2000
   40.8590   29.4780   42.7930 O   0  0  0  0  0  0  0  0  0  0  0  0
   40.6310   28.1190   42.8290 C   0  0  0  0  0  0  0  0  0  0  0  0
   40.9570   27.7280   41.8110 H   0  0  0  0  0  0  0  0  0  0  0  0
   41.2290   27.5910   43.5810 H   0  0  0  0  0  0  0  0  0  0  0  0
   38.9150   26.5140   42.2950 C   0  0  0  0  0  0  0  0  0  0  0  0
   39.1910   27.7620   42.8870 C   0  0  0  0  0  0  0  0  0  0  0  0
   38.1480   28.4550   43.4260 C   0  0  0  0  0  0  0  0  0  0  0  0
   36.9410   27.8970   43.3540 N   0  0  0  0  0  0  0  0  0  0  0  0
   36.6670   26.7250   42.8020 C   0  0  0  0  0  0  0  0  0  0  0  0
   37.6720   25.9550   42.2290 N   0  0  0  0  0  0  0  0  0  0  0  0
   39.6720   25.8780   41.8340 H   0  0  0  0  0  0  0  0  0  0  0  0
   38.4320   29.4030   43.8620 H   0  0  0  0  0  0  0  0  0  0  0  0
   35.6600   26.3360   42.7810 H   0  0  0  0  0  0  0  0  0  0  0  0
   40.6330   30.3380   41.7290 C   0  0  0  0  0  3  0  0  0  0  0  0
   39.8880   31.4240   41.9810 C   0  0  0  0  0  3  0  0  0  0  0  0
   39.5160   32.5000   40.9710 C   0  0  0  0  0  0  0  0  0  0  0  0
   40.4550   32.9970   40.7010 H   0  0  0  0  0  0  0  0  0  0  0  0
   38.8030   33.2010   41.4200 H   0  0  0  0  0  0  0  0  0  0  0  0
   38.9960   31.8680   39.8750 O   0  0  0  0  0  0  0  0  0  0  0  0
   36.6170   31.3000   40.9180 O   0  0  0  0  0  0  0  0  0  0  0  0
   37.3090   32.0120   39.7950 P   0  0  1  0  0  0  0  0  0  0  0  0
   36.8800   33.6480   39.8480 O   0  0  0  0  0  0  0  0  0  0  0  0
   37.3240   34.0630   39.0460 H   0  0  0  0  0  0  0  0  0  0  0  0
   36.7850   31.4110   38.2950 O   0  0  0  0  0  0  0  0  0  0  0  0
   37.8670   30.9130   37.5430 C   0  0  0  0  0  2  0  0  0  0  0  0
   37.9280   31.4340   36.5570 H   0  0  0  0  0  0  0  0  0  0  0  0
  1  2  1  0  0  0  0
  2  6  1  0  0  0  0
  2  4  1  0  0  0  0
  3  2  1  0  0  0  0
  5  6  1  0  0  0  0
  6  7  2  0  0  0  0
  7 12  1  0  0  0  0
  8  7  1  0  0  0  0
  9  8  2  0  0  0  0
 10  5  2  0  0  0  0
 10  9  1  0  0  0  0
 11  5  1  0  0  0  0
 13  9  1  0  0  0  0
 14 15  2  0  0  0  0
 14  1  1  0  0  0  0
 16 18  1  0  0  0  0
 16 15  1  0  0  0  0
 17 16  1  0  0  0  0
 19 16  1  0  0  0  0
 21 22  1  0  0  0  0
 21 19  1  0  0  0  0
 21 20  2  1  0  0  0
 23 22  1  0  0  0  0
 24 21  1  0  0  0  0
 25 24  1  0  0  0  0
 26 25  1  0  0  0  0
M  END
>  <minimizedAffinity>
-3.8321085

$$$$
