REMARK  Name = 
REMARK  6 active torsions:
REMARK  status: ('A' for Active; 'I' for Inactive)
REMARK    1  A    between atoms: C_1  and  C_4
REMARK    2  A    between atoms: C_1  and  O_8
REMARK    3  A    between atoms: O_8  and  P_10
REMARK    4  A    between atoms: P_10  and  O_11
REMARK    5  A    between atoms: P_10  and  O_12
REMARK    6  A    between atoms: O_12  and  C_19
REMARK                            x       y       z     vdW  Elec       q    Type
REMARK                         _______ _______ _______ _____ _____    ______ ____
ROOT
ATOM      1  C   UNL     1      47.166  33.981  42.469  0.00  0.00    +0.000 C 
ATOM      2  H   UNL     1      46.612  33.249  41.844  0.00  0.00    +0.000 HD
ATOM      3  H   UNL     1      47.379  34.842  41.791  0.00  0.00    +0.000 HD
ENDROOT
BRANCH   1   6
ATOM      4  C   UNL     1      45.297  34.222  45.696  0.00  0.00    +0.000 A 
ATOM      5  C   UNL     1      46.161  33.751  44.707  0.00  0.00    +0.000 A 
ATOM      6  C   UNL     1      46.264  34.453  43.528  0.00  0.00    +0.000 A 
ATOM      7  N   UNL     1      45.509  35.598  43.368  0.00  0.00    +0.000 NA
ATOM      8  C   UNL     1      44.685  36.024  44.345  0.00  0.00    +0.000 A 
ATOM      9  N   UNL     1      44.576  35.351  45.494  0.00  0.00    +0.000 NA
ATOM     10  H   UNL     1      45.279  33.607  46.591  0.00  0.00    +0.000 HD
ATOM     11  H   UNL     1      46.758  32.860  44.815  0.00  0.00    +0.000 HD
ATOM     12  H   UNL     1      44.090  36.939  44.202  0.00  0.00    +0.000 HD
ENDBRANCH   1   6
BRANCH   1  13
ATOM     13  O   UNL     1      48.311  33.424  43.014  0.00  0.00    +0.000 OA
BRANCH  13  15
ATOM     14  O   UNL     1      50.659  33.114  41.911  0.00  0.00    +0.000 OA
ATOM     15  P   UNL     1      49.625  34.140  42.229  0.00  0.00    +0.000 P 
BRANCH  15  16
ATOM     16  O   UNL     1      50.204  35.363  43.244  0.00  0.00    +0.000 OA
ATOM     17  H   UNL     1      50.860  35.045  43.892  0.00  0.00    +0.000 HD
ENDBRANCH  15  16
BRANCH  15  18
ATOM     18  O   UNL     1      49.064  34.804  40.782  0.00  0.00    +0.000 OA
BRANCH  18  19
ATOM     19  C   UNL     1      49.831  35.898  40.378  0.00  0.00    +0.000 C 
ATOM     20  H   UNL     1      49.144  36.623  39.923  0.00  0.00    +0.000 HD
ENDBRANCH  18  19
ENDBRANCH  15  18
ENDBRANCH  13  15
ENDBRANCH   1  13
TORSDOF 6
