
 OpenBabel03242515273D

 25 26  0  0  0  0  0  0  0  0999 V2000
   43.8270   35.6630   41.3710 C   0  0  0  0  0  0  0  0  0  0  0  0
   43.8000   36.7460   41.4400 H   0  0  0  0  0  0  0  0  0  0  0  0
   44.5650   35.4320   40.5550 H   0  0  0  0  0  0  0  0  0  0  0  0
   42.5380   35.0800   41.0620 N   0  0  0  0  0  0  0  0  0  0  0  0
   41.4560   35.4030   41.7520 C   0  0  0  0  0  0  0  0  0  0  0  0
   40.2630   34.8120   41.4060 C   0  0  0  0  0  0  0  0  0  0  0  0
   40.1700   33.9100   40.3800 C   0  0  0  0  0  0  0  0  0  0  0  0
   39.0760   33.3910   40.0910 O   0  0  0  0  0  0  0  0  0  0  0  0
   41.2970   33.5910   39.6820 N   0  0  0  0  0  0  0  0  0  0  0  0
   42.4760   34.1760   40.0230 C   0  0  0  0  0  0  0  0  0  0  0  0
   43.4850   33.8390   39.3380 O   0  0  0  0  0  0  0  0  0  0  0  0
   41.5520   36.1240   42.5650 H   0  0  0  0  0  0  0  0  0  0  0  0
   39.3900   35.0800   41.9720 H   0  0  0  0  0  0  0  0  0  0  0  0
   41.2450   32.9020   38.8930 H   0  0  0  0  0  0  0  0  0  0  0  0
   44.4100   35.8680   43.7440 C   0  0  0  0  0  0  0  0  0  0  0  0
   44.3290   35.0520   42.6030 C   0  0  0  0  0  0  0  0  0  0  0  0
   44.7380   33.7520   42.7540 C   0  0  0  0  0  0  0  0  0  0  0  0
   45.1880   33.3080   43.9450 N   0  0  0  0  0  0  0  0  0  0  0  0
   45.2400   34.1540   45.0130 C   0  0  0  0  0  0  0  0  0  0  0  0
   44.8560   35.4430   44.9420 N   0  0  0  0  0  0  0  0  0  0  0  0
   44.0960   36.9040   43.6720 H   0  0  0  0  0  0  0  0  0  0  0  0
   44.6810   33.1060   41.8780 H   0  0  0  0  0  0  0  0  0  0  0  0
   45.7030   33.7290   46.2560 O   0  0  0  0  0  0  0  0  0  0  0  0
   46.6530   32.7340   46.4750 C   0  0  0  0  0  0  0  0  0  0  0  0
   47.6540   33.1320   46.2160 H   0  0  0  0  0  0  0  0  0  0  0  0
  1  2  1  0  0  0  0
  1 16  1  0  0  0  0
  3  1  1  0  0  0  0
  4  1  1  0  0  0  0
  4  5  1  0  0  0  0
  5 12  1  0  0  0  0
  6  5  2  0  0  0  0
  6 13  1  0  0  0  0
  7  6  1  0  0  0  0
  8  7  2  0  0  0  0
  9 10  1  0  0  0  0
  9  7  1  0  0  0  0
 10  4  1  0  0  0  0
 11 10  2  0  0  0  0
 14  9  1  0  0  0  0
 15 20  1  0  0  0  0
 16 17  1  0  0  0  0
 16 15  2  0  0  0  0
 17 18  2  0  0  0  0
 18 19  1  0  0  0  0
 19 23  1  0  0  0  0
 20 19  2  0  0  0  0
 21 15  1  0  0  0  0
 22 17  1  0  0  0  0
 23 24  1  0  0  0  0
 25 24  1  0  0  0  0
M  END
>  <minimizedAffinity>
-4.59469414

>  <minimizedRMSD>
0.220104098

$$$$
