
 OpenBabel03242519353D

 17 17  0  0  0  0  0  0  0  0999 V2000
   44.6480   36.0080   44.5190 C   0  0  0  0  0  0  0  0  0  0  0  0
   45.1810   36.0090   43.2000 C   0  0  0  0  0  0  0  0  0  0  0  0
   45.9130   34.9030   42.7960 C   0  0  0  0  0  0  0  0  0  0  0  0
   46.0910   33.8800   43.6620 N   0  0  0  0  0  0  0  0  0  0  0  0
   45.5800   33.8950   44.9090 C   0  0  0  0  0  0  0  0  0  0  0  0
   44.8600   34.9610   45.3310 N   0  0  0  0  0  0  0  0  0  0  0  0
   44.0790   36.8810   44.8140 H   0  0  0  0  0  0  0  0  0  0  0  0
   45.0060   36.8650   42.5410 H   0  0  0  0  0  0  0  0  0  0  0  0
   45.7130   33.0860   45.6130 H   0  0  0  0  0  0  0  0  0  0  0  0
   46.4300   34.9120   41.5070 O   0  0  0  0  0  0  0  0  0  0  0  0
   48.1280   32.9420   41.0950 O   0  0  0  0  0  0  0  0  0  0  0  0
   48.0590   34.4580   41.2480 P   0  0  1  0  0  0  0  0  0  0  0  0
   48.6270   35.2380   39.8810 O   0  0  0  0  0  0  0  0  0  0  0  0
   47.9470   35.0770   39.1540 H   0  0  0  0  0  0  0  0  0  0  0  0
   48.9290   34.8910   42.6280 O   0  0  0  0  0  0  0  0  0  0  0  0
   50.2590   34.4230   42.5820 C   0  0  0  0  0  0  0  0  0  0  0  0
   50.9090   34.9950   43.2970 H   0  0  0  0  0  0  0  0  0  0  0  0
  1  7  1  0  0  0  0
  1  6  1  0  0  0  0
  2  1  2  0  0  0  0
  3  2  1  0  0  0  0
  3  4  2  0  0  0  0
  4  5  1  0  0  0  0
  5  6  2  0  0  0  0
  5  9  1  0  0  0  0
  8  2  1  0  0  0  0
 10  3  1  0  0  0  0
 12 11  2  6  0  0  0
 12 10  1  0  0  0  0
 12 15  1  0  0  0  0
 13 12  1  0  0  0  0
 14 13  1  0  0  0  0
 16 15  1  0  0  0  0
 16 17  1  0  0  0  0
M  END
>  <minimizedAffinity>
-3.99262381

>  <minimizedRMSD>
0.63793242

$$$$
