
 OpenBabel03242512403D

 12 12  0  0  0  0  0  0  0  0999 V2000
   37.0010   29.2600   41.8860 C   0  0  0  0  0  0  0  0  0  0  0  0
   36.5040   27.9640   42.1900 C   0  0  0  0  0  0  0  0  0  0  0  0
   37.3350   27.1040   42.9510 C   0  0  0  0  0  0  0  0  0  0  0  0
   38.5530   27.5760   43.3400 N   0  0  0  0  0  0  0  0  0  0  0  0
   38.9700   28.8100   43.0230 C   0  0  0  0  0  0  0  0  0  0  0  0
   38.2050   29.6340   42.3090 N   0  0  0  0  0  0  0  0  0  0  0  0
   35.5180   27.6720   41.8370 H   0  0  0  0  0  0  0  0  0  0  0  0
   36.9590   26.1210   43.1820 H   0  0  0  0  0  0  0  0  0  0  0  0
   39.9360   29.1900   43.3300 H   0  0  0  0  0  0  0  0  0  0  0  0
   36.1810   30.0710   41.1500 O   0  0  0  0  0  0  0  0  0  0  0  0
   36.6660   31.3090   40.6780 C   0  0  0  0  0  2  0  0  0  0  0  0
   37.1060   31.1190   39.6790 H   0  0  0  0  0  0  0  0  0  0  0  0
  1  2  2  0  0  0  0
  1  6  1  0  0  0  0
  2  3  1  0  0  0  0
  3  8  1  0  0  0  0
  3  4  2  0  0  0  0
  5  9  1  0  0  0  0
  5  4  1  0  0  0  0
  6  5  2  0  0  0  0
  7  2  1  0  0  0  0
 10  1  1  0  0  0  0
 11 10  1  0  0  0  0
 12 11  1  0  0  0  0
M  END
>  <minimizedAffinity>
-2.72247577

$$$$

 OpenBabel03242512403D

 12 12  0  0  0  0  0  0  0  0999 V2000
   37.5270   26.3520   42.5740 C   0  0  0  0  0  0  0  0  0  0  0  0
   36.7660   27.3480   43.2430 C   0  0  0  0  0  0  0  0  0  0  0  0
   37.4150   28.5690   43.5550 C   0  0  0  0  0  0  0  0  0  0  0  0
   38.7210   28.7070   43.1920 N   0  0  0  0  0  0  0  0  0  0  0  0
   39.3890   27.7310   42.5610 C   0  0  0  0  0  0  0  0  0  0  0  0
   38.7990   26.5760   42.2590 N   0  0  0  0  0  0  0  0  0  0  0  0
   35.7270   27.1500   43.4940 H   0  0  0  0  0  0  0  0  0  0  0  0
   36.8390   29.3250   44.0630 H   0  0  0  0  0  0  0  0  0  0  0  0
   40.4260   27.8350   42.2700 H   0  0  0  0  0  0  0  0  0  0  0  0
   36.8790   25.1820   42.2840 O   0  0  0  0  0  0  0  0  0  0  0  0
   37.6110   24.0870   41.7770 C   0  0  0  0  0  2  0  0  0  0  0  0
   37.9480   23.4960   42.6520 H   0  0  0  0  0  0  0  0  0  0  0  0
  1  2  1  0  0  0  0
  2  7  1  0  0  0  0
  2  3  2  0  0  0  0
  3  8  1  0  0  0  0
  4  3  1  0  0  0  0
  5  4  2  0  0  0  0
  6  5  1  0  0  0  0
  6  1  2  0  0  0  0
  9  5  1  0  0  0  0
 10  1  1  0  0  0  0
 11 10  1  0  0  0  0
 11 12  1  0  0  0  0
M  END
>  <minimizedAffinity>
-2.70297599

$$$$

 OpenBabel03242512403D

 12 12  0  0  0  0  0  0  0  0999 V2000
   37.6390   26.7810   42.4480 C   0  0  0  0  0  0  0  0  0  0  0  0
   38.3760   27.5980   43.3460 C   0  0  0  0  0  0  0  0  0  0  0  0
   38.1680   28.9990   43.2790 C   0  0  0  0  0  0  0  0  0  0  0  0
   37.2770   29.4670   42.3610 N   0  0  0  0  0  0  0  0  0  0  0  0
   36.6080   28.6460   41.5380 C   0  0  0  0  0  0  0  0  0  0  0  0
   36.7880   27.3270   41.5840 N   0  0  0  0  0  0  0  0  0  0  0  0
   39.0670   27.1360   44.0460 H   0  0  0  0  0  0  0  0  0  0  0  0
   38.7280   29.6200   43.9590 H   0  0  0  0  0  0  0  0  0  0  0  0
   35.8990   29.0120   40.8080 H   0  0  0  0  0  0  0  0  0  0  0  0
   37.8560   25.4320   42.5310 O   0  0  0  0  0  0  0  0  0  0  0  0
   37.0240   24.5460   41.8160 C   0  0  0  0  0  2  0  0  0  0  0  0
   37.4940   24.3970   40.8230 H   0  0  0  0  0  0  0  0  0  0  0  0
  1 10  1  0  0  0  0
  1  2  1  0  0  0  0
  2  7  1  0  0  0  0
  3  2  2  0  0  0  0
  3  8  1  0  0  0  0
  4  3  1  0  0  0  0
  5  6  1  0  0  0  0
  5  4  2  0  0  0  0
  6  1  2  0  0  0  0
  9  5  1  0  0  0  0
 11 10  1  0  0  0  0
 12 11  1  0  0  0  0
M  END
>  <minimizedAffinity>
-2.68183041

$$$$

 OpenBabel03242512403D

 12 12  0  0  0  0  0  0  0  0999 V2000
   37.1880   29.0300   42.0860 C   0  0  0  0  0  0  0  0  0  0  0  0
   37.9530   28.8220   43.2650 C   0  0  0  0  0  0  0  0  0  0  0  0
   38.2800   27.4860   43.6080 C   0  0  0  0  0  0  0  0  0  0  0  0
   37.8420   26.4930   42.7860 N   0  0  0  0  0  0  0  0  0  0  0  0
   37.1220   26.7480   41.6840 C   0  0  0  0  0  0  0  0  0  0  0  0
   36.8030   27.9960   41.3430 N   0  0  0  0  0  0  0  0  0  0  0  0
   38.2600   29.6780   43.8620 H   0  0  0  0  0  0  0  0  0  0  0  0
   38.8600   27.3280   44.5030 H   0  0  0  0  0  0  0  0  0  0  0  0
   36.7720   25.9630   41.0270 H   0  0  0  0  0  0  0  0  0  0  0  0
   36.8840   30.3270   41.7760 O   0  0  0  0  0  0  0  0  0  0  0  0
   36.0550   30.6040   40.6690 C   0  0  0  0  0  2  0  0  0  0  0  0
   35.0130   30.6190   41.0460 H   0  0  0  0  0  0  0  0  0  0  0  0
  1  2  1  0  0  0  0
  2  3  2  0  0  0  0
  2  7  1  0  0  0  0
  3  8  1  0  0  0  0
  4  3  1  0  0  0  0
  5  4  2  0  0  0  0
  6  5  1  0  0  0  0
  6  1  2  0  0  0  0
  9  5  1  0  0  0  0
 10  1  1  0  0  0  0
 11 12  1  0  0  0  0
 11 10  1  0  0  0  0
M  END
>  <minimizedAffinity>
-2.65702248

$$$$

 OpenBabel03242512403D

 12 12  0  0  0  0  0  0  0  0999 V2000
   38.0560   26.5900   42.7700 C   0  0  0  0  0  0  0  0  0  0  0  0
   39.2570   26.7040   43.5200 C   0  0  0  0  0  0  0  0  0  0  0  0
   40.0500   25.5380   43.6680 C   0  0  0  0  0  0  0  0  0  0  0  0
   39.6100   24.3900   43.0830 N   0  0  0  0  0  0  0  0  0  0  0  0
   38.4660   24.3420   42.3860 C   0  0  0  0  0  0  0  0  0  0  0  0
   37.7050   25.4250   42.2340 N   0  0  0  0  0  0  0  0  0  0  0  0
   39.5300   27.6630   43.9530 H   0  0  0  0  0  0  0  0  0  0  0  0
   40.9610   25.6240   44.2380 H   0  0  0  0  0  0  0  0  0  0  0  0
   38.1120   23.4330   41.9180 H   0  0  0  0  0  0  0  0  0  0  0  0
   37.3070   27.7280   42.6410 O   0  0  0  0  0  0  0  0  0  0  0  0
   37.7280   28.9160   43.2740 C   0  0  0  0  0  2  0  0  0  0  0  0
   38.3730   29.4520   42.5490 H   0  0  0  0  0  0  0  0  0  0  0  0
  1  2  1  0  0  0  0
  2  3  2  0  0  0  0
  2  7  1  0  0  0  0
  3  8  1  0  0  0  0
  4  3  1  0  0  0  0
  5  4  2  0  0  0  0
  6  5  1  0  0  0  0
  6  1  2  0  0  0  0
  9  5  1  0  0  0  0
 10  1  1  0  0  0  0
 10 11  1  0  0  0  0
 12 11  1  0  0  0  0
M  END
>  <minimizedAffinity>
-2.65315127

$$$$

 OpenBabel03242512403D

 12 12  0  0  0  0  0  0  0  0999 V2000
   38.8870   26.8060   43.2460 C   0  0  0  0  0  0  0  0  0  0  0  0
   39.4120   28.1260   43.2100 C   0  0  0  0  0  0  0  0  0  0  0  0
   38.5410   29.1670   42.7980 C   0  0  0  0  0  0  0  0  0  0  0  0
   37.2630   28.8340   42.4660 N   0  0  0  0  0  0  0  0  0  0  0  0
   36.8220   27.5690   42.5180 C   0  0  0  0  0  0  0  0  0  0  0  0
   37.6220   26.5760   42.9020 N   0  0  0  0  0  0  0  0  0  0  0  0
   40.4470   28.2990   43.4930 H   0  0  0  0  0  0  0  0  0  0  0  0
   38.9390   30.1680   42.7710 H   0  0  0  0  0  0  0  0  0  0  0  0
   35.8080   27.2990   42.2560 H   0  0  0  0  0  0  0  0  0  0  0  0
   39.7450   25.8190   43.6450 O   0  0  0  0  0  0  0  0  0  0  0  0
   39.6410   24.5320   43.0770 C   0  0  0  0  0  2  0  0  0  0  0  0
   40.3020   24.5230   42.1860 H   0  0  0  0  0  0  0  0  0  0  0  0
  1 10  1  0  0  0  0
  2  1  1  0  0  0  0
  2  7  1  0  0  0  0
  3  2  2  0  0  0  0
  4  5  2  0  0  0  0
  4  3  1  0  0  0  0
  5  6  1  0  0  0  0
  6  1  2  0  0  0  0
  8  3  1  0  0  0  0
  9  5  1  0  0  0  0
 11 10  1  0  0  0  0
 12 11  1  0  0  0  0
M  END
>  <minimizedAffinity>
-2.63042474

$$$$

 OpenBabel03242512403D

 12 12  0  0  0  0  0  0  0  0999 V2000
   37.3240   29.2990   42.2360 C   0  0  0  0  0  0  0  0  0  0  0  0
   36.4070   28.3370   41.7320 C   0  0  0  0  0  0  0  0  0  0  0  0
   35.5320   28.7460   40.6950 C   0  0  0  0  0  0  0  0  0  0  0  0
   35.6280   30.0300   40.2500 N   0  0  0  0  0  0  0  0  0  0  0  0
   36.5140   30.8950   40.7640 C   0  0  0  0  0  0  0  0  0  0  0  0
   37.3460   30.5320   41.7390 N   0  0  0  0  0  0  0  0  0  0  0  0
   36.4020   27.3330   42.1490 H   0  0  0  0  0  0  0  0  0  0  0  0
   34.8360   28.0170   40.3120 H   0  0  0  0  0  0  0  0  0  0  0  0
   36.5950   31.9160   40.4140 H   0  0  0  0  0  0  0  0  0  0  0  0
   38.1580   28.8810   43.2370 O   0  0  0  0  0  0  0  0  0  0  0  0
   39.2030   27.9800   42.9450 C   0  0  0  0  0  2  0  0  0  0  0  0
   40.0890   28.5920   42.6820 H   0  0  0  0  0  0  0  0  0  0  0  0
  1 10  1  0  0  0  0
  2  7  1  0  0  0  0
  2  1  2  0  0  0  0
  3  2  1  0  0  0  0
  4  3  2  0  0  0  0
  4  5  1  0  0  0  0
  5  6  2  0  0  0  0
  6  1  1  0  0  0  0
  8  3  1  0  0  0  0
  9  5  1  0  0  0  0
 11 10  1  0  0  0  0
 12 11  1  0  0  0  0
M  END
>  <minimizedAffinity>
-2.61423206

$$$$

 OpenBabel03242512403D

 12 12  0  0  0  0  0  0  0  0999 V2000
   38.0730   26.8220   42.9630 C   0  0  0  0  0  0  0  0  0  0  0  0
   37.6120   25.6750   42.2640 C   0  0  0  0  0  0  0  0  0  0  0  0
   38.4130   24.5070   42.3200 C   0  0  0  0  0  0  0  0  0  0  0  0
   39.5690   24.5620   43.0390 N   0  0  0  0  0  0  0  0  0  0  0  0
   39.9540   25.6740   43.6800 C   0  0  0  0  0  0  0  0  0  0  0  0
   39.2170   26.7830   43.6400 N   0  0  0  0  0  0  0  0  0  0  0  0
   36.6750   25.7230   41.7140 H   0  0  0  0  0  0  0  0  0  0  0  0
   38.0640   23.6360   41.7890 H   0  0  0  0  0  0  0  0  0  0  0  0
   40.8700   25.7230   44.2530 H   0  0  0  0  0  0  0  0  0  0  0  0
   37.2830   27.9380   42.8940 O   0  0  0  0  0  0  0  0  0  0  0  0
   36.4890   28.1600   41.7500 C   0  0  0  0  0  2  0  0  0  0  0  0
   35.5100   27.6770   41.9420 H   0  0  0  0  0  0  0  0  0  0  0  0
  1  6  1  0  0  0  0
  2  3  1  0  0  0  0
  2  1  2  0  0  0  0
  3  4  2  0  0  0  0
  4  5  1  0  0  0  0
  5  9  1  0  0  0  0
  6  5  2  0  0  0  0
  7  2  1  0  0  0  0
  8  3  1  0  0  0  0
 10  1  1  0  0  0  0
 11 12  1  0  0  0  0
 11 10  1  0  0  0  0
M  END
>  <minimizedAffinity>
-2.60816932

$$$$

 OpenBabel03242512403D

 12 12  0  0  0  0  0  0  0  0999 V2000
   38.0420   29.7680   42.0690 C   0  0  0  0  0  0  0  0  0  0  0  0
   38.2510   29.0940   43.3030 C   0  0  0  0  0  0  0  0  0  0  0  0
   37.4060   27.9950   43.6000 C   0  0  0  0  0  0  0  0  0  0  0  0
   36.4540   27.6580   42.6860 N   0  0  0  0  0  0  0  0  0  0  0  0
   36.3020   28.3320   41.5370 C   0  0  0  0  0  0  0  0  0  0  0  0
   37.0850   29.3680   41.2370 N   0  0  0  0  0  0  0  0  0  0  0  0
   39.0370   29.4340   43.9720 H   0  0  0  0  0  0  0  0  0  0  0  0
   37.5640   27.4840   44.5360 H   0  0  0  0  0  0  0  0  0  0  0  0
   35.5480   28.0690   40.8080 H   0  0  0  0  0  0  0  0  0  0  0  0
   38.8690   30.8260   41.8040 O   0  0  0  0  0  0  0  0  0  0  0  0
   40.0320   31.0130   42.5790 C   0  0  0  0  0  2  0  0  0  0  0  0
   40.8470   30.4580   42.0710 H   0  0  0  0  0  0  0  0  0  0  0  0
  1  2  1  0  0  0  0
  2  3  2  0  0  0  0
  2  7  1  0  0  0  0
  3  8  1  0  0  0  0
  4  3  1  0  0  0  0
  5  4  2  0  0  0  0
  6  5  1  0  0  0  0
  6  1  2  0  0  0  0
  9  5  1  0  0  0  0
 10  1  1  0  0  0  0
 10 11  1  0  0  0  0
 12 11  1  0  0  0  0
M  END
>  <minimizedAffinity>
-2.59106755

$$$$
