
 OpenBabel03252505283D

 17 17  0  0  0  0  0  0  0  0999 V2000
   39.7010   27.8490   43.0410 C   0  0  0  0  0  0  0  0  0  0  0  0
   38.5840   27.2540   43.6790 C   0  0  0  0  0  0  0  0  0  0  0  0
   37.3380   27.8850   43.4570 C   0  0  0  0  0  0  0  0  0  0  0  0
   37.2950   28.9990   42.6630 N   0  0  0  0  0  0  0  0  0  0  0  0
   38.3980   29.5070   42.0910 C   0  0  0  0  0  0  0  0  0  0  0  0
   39.5890   28.9390   42.2770 N   0  0  0  0  0  0  0  0  0  0  0  0
   40.6560   27.3660   43.2100 H   0  0  0  0  0  0  0  0  0  0  0  0
   38.6670   26.3710   44.3000 H   0  0  0  0  0  0  0  0  0  0  0  0
   36.4600   27.4850   43.9100 H   0  0  0  0  0  0  0  0  0  0  0  0
   38.3640   30.6320   41.2890 O   0  0  0  0  0  0  0  0  0  0  0  0
   36.9150   30.4660   39.1390 O   0  0  0  0  0  0  0  0  0  0  0  0
   37.0140   31.2280   40.4620 P   0  0  1  0  0  0  0  0  0  0  0  0
   35.6140   31.0560   41.3780 O   0  0  0  0  0  0  0  0  0  0  0  0
   34.9380   31.6830   41.0090 H   0  0  0  0  0  0  0  0  0  0  0  0
   37.1850   32.8590   40.0700 O   0  0  0  0  0  0  0  0  0  0  0  0
   38.5280   33.1550   40.0090 C   0  0  0  0  0  2  0  0  0  0  0  0
   38.8120   34.0330   40.6310 H   0  0  0  0  0  0  0  0  0  0  0  0
  1  7  1  0  0  0  0
  1  2  1  0  0  0  0
  2  8  1  0  0  0  0
  3  2  2  0  0  0  0
  3  9  1  0  0  0  0
  4  3  1  0  0  0  0
  5  6  1  0  0  0  0
  5  4  2  0  0  0  0
  6  1  2  0  0  0  0
 10  5  1  0  0  0  0
 12 11  2  6  0  0  0
 12 10  1  0  0  0  0
 12 13  1  0  0  0  0
 14 13  1  0  0  0  0
 15 12  1  0  0  0  0
 16 15  1  0  0  0  0
 16 17  1  0  0  0  0
M  END
>  <minimizedAffinity>
-3.99949765

$$$$

 OpenBabel03252505283D

 17 17  0  0  0  0  0  0  0  0999 V2000
   36.8540   27.6950   42.8580 C   0  0  0  0  0  0  0  0  0  0  0  0
   37.9740   27.2700   43.6180 C   0  0  0  0  0  0  0  0  0  0  0  0
   39.2020   27.9000   43.3130 C   0  0  0  0  0  0  0  0  0  0  0  0
   39.2290   28.8510   42.3290 N   0  0  0  0  0  0  0  0  0  0  0  0
   38.1260   29.2010   41.6490 C   0  0  0  0  0  0  0  0  0  0  0  0
   36.9500   28.6300   41.9100 N   0  0  0  0  0  0  0  0  0  0  0  0
   35.9130   27.2130   43.0930 H   0  0  0  0  0  0  0  0  0  0  0  0
   37.9040   26.5120   44.3880 H   0  0  0  0  0  0  0  0  0  0  0  0
   40.0800   27.6230   43.8500 H   0  0  0  0  0  0  0  0  0  0  0  0
   38.1440   30.1600   40.6530 O   0  0  0  0  0  0  0  0  0  0  0  0
   36.3820   30.7140   38.8270 O   0  0  0  0  0  0  0  0  0  0  0  0
   36.8560   31.1620   40.2100 P   0  0  1  0  0  0  0  0  0  0  0  0
   35.6120   31.0910   41.3400 O   0  0  0  0  0  0  0  0  0  0  0  0
   35.0490   31.9000   41.2150 H   0  0  0  0  0  0  0  0  0  0  0  0
   37.3330   32.7730   40.0610 O   0  0  0  0  0  0  0  0  0  0  0  0
   38.5180   32.9420   40.7430 C   0  0  0  0  0  2  0  0  0  0  0  0
   38.4890   33.7850   41.4680 H   0  0  0  0  0  0  0  0  0  0  0  0
  1  7  1  0  0  0  0
  1  2  1  0  0  0  0
  2  8  1  0  0  0  0
  3  2  2  0  0  0  0
  3  9  1  0  0  0  0
  4  3  1  0  0  0  0
  5  6  1  0  0  0  0
  5  4  2  0  0  0  0
  6  1  2  0  0  0  0
 10  5  1  0  0  0  0
 12 11  2  6  0  0  0
 12 10  1  0  0  0  0
 12 13  1  0  0  0  0
 14 13  1  0  0  0  0
 15 12  1  0  0  0  0
 15 16  1  0  0  0  0
 16 17  1  0  0  0  0
M  END
>  <minimizedAffinity>
-3.88317585

$$$$

 OpenBabel03252505283D

 17 17  0  0  0  0  0  0  0  0999 V2000
   36.9530   27.1080   41.6700 C   0  0  0  0  0  0  0  0  0  0  0  0
   37.8260   26.9450   42.7760 C   0  0  0  0  0  0  0  0  0  0  0  0
   38.2450   28.1360   43.4130 C   0  0  0  0  0  0  0  0  0  0  0  0
   37.7940   29.3350   42.9320 N   0  0  0  0  0  0  0  0  0  0  0  0
   36.9670   29.4120   41.8770 C   0  0  0  0  0  0  0  0  0  0  0  0
   36.5500   28.3110   41.2520 N   0  0  0  0  0  0  0  0  0  0  0  0
   36.6320   26.1960   41.1830 H   0  0  0  0  0  0  0  0  0  0  0  0
   38.1570   25.9740   43.1210 H   0  0  0  0  0  0  0  0  0  0  0  0
   38.9020   28.0790   44.2500 H   0  0  0  0  0  0  0  0  0  0  0  0
   36.5070   30.6190   41.3840 O   0  0  0  0  0  0  0  0  0  0  0  0
   36.6160   30.9650   38.8120 O   0  0  0  0  0  0  0  0  0  0  0  0
   37.1950   31.5070   40.1200 P   0  0  1  0  0  0  0  0  0  0  0  0
   36.8890   33.1520   40.2940 O   0  0  0  0  0  0  0  0  0  0  0  0
   37.5540   33.6390   39.7400 H   0  0  0  0  0  0  0  0  0  0  0  0
   38.8660   31.2930   40.0360 O   0  0  0  0  0  0  0  0  0  0  0  0
   39.2070   31.0340   38.7270 C   0  0  0  0  0  2  0  0  0  0  0  0
   39.8240   30.1160   38.6090 H   0  0  0  0  0  0  0  0  0  0  0  0
  1  2  1  0  0  0  0
  2  8  1  0  0  0  0
  2  3  2  0  0  0  0
  3  9  1  0  0  0  0
  4  3  1  0  0  0  0
  5  4  2  0  0  0  0
  6  1  2  0  0  0  0
  6  5  1  0  0  0  0
  7  1  1  0  0  0  0
 10  5  1  0  0  0  0
 12 11  2  6  0  0  0
 12 13  1  0  0  0  0
 12 10  1  0  0  0  0
 14 13  1  0  0  0  0
 15 12  1  0  0  0  0
 16 15  1  0  0  0  0
 17 16  1  0  0  0  0
M  END
>  <minimizedAffinity>
-3.699054

$$$$

 OpenBabel03252505283D

 17 17  0  0  0  0  0  0  0  0999 V2000
   38.2710   25.6600   40.8510 C   0  0  0  0  0  0  0  0  0  0  0  0
   39.2280   25.6120   41.8980 C   0  0  0  0  0  0  0  0  0  0  0  0
   39.0470   26.5480   42.9420 C   0  0  0  0  0  0  0  0  0  0  0  0
   37.9900   27.4150   42.8750 N   0  0  0  0  0  0  0  0  0  0  0  0
   37.1240   27.4020   41.8500 C   0  0  0  0  0  0  0  0  0  0  0  0
   37.2610   26.5340   40.8480 N   0  0  0  0  0  0  0  0  0  0  0  0
   38.4100   24.9430   40.0510 H   0  0  0  0  0  0  0  0  0  0  0  0
   40.0490   24.9070   41.9070 H   0  0  0  0  0  0  0  0  0  0  0  0
   39.7330   26.5620   43.7580 H   0  0  0  0  0  0  0  0  0  0  0  0
   36.0540   28.2740   41.7740 O   0  0  0  0  0  0  0  0  0  0  0  0
   34.6460   29.1220   39.7630 O   0  0  0  0  0  0  0  0  0  0  0  0
   35.8480   29.5020   40.6290 P   0  0  1  0  0  0  0  0  0  0  0  0
   35.6260   30.9960   41.3690 O   0  0  0  0  0  0  0  0  0  0  0  0
   35.8280   31.6960   40.6950 H   0  0  0  0  0  0  0  0  0  0  0  0
   37.1720   29.6250   39.5920 O   0  0  0  0  0  0  0  0  0  0  0  0
   37.9630   30.6690   40.0170 C   0  0  0  0  0  2  0  0  0  0  0  0
   38.1970   31.3980   39.2100 H   0  0  0  0  0  0  0  0  0  0  0  0
  1  2  1  0  0  0  0
  2  8  1  0  0  0  0
  2  3  2  0  0  0  0
  3  9  1  0  0  0  0
  4  3  1  0  0  0  0
  5  4  2  0  0  0  0
  6  1  2  0  0  0  0
  6  5  1  0  0  0  0
  7  1  1  0  0  0  0
 10  5  1  0  0  0  0
 12 11  2  6  0  0  0
 12 13  1  0  0  0  0
 12 10  1  0  0  0  0
 14 13  1  0  0  0  0
 15 16  1  0  0  0  0
 15 12  1  0  0  0  0
 17 16  1  0  0  0  0
M  END
>  <minimizedAffinity>
-3.49607587

$$$$

 OpenBabel03252505283D

 17 17  0  0  0  0  0  0  0  0999 V2000
   37.3280   33.1970   39.4450 C   0  0  0  0  0  0  0  0  0  0  0  0
   38.2420   34.1610   39.9400 C   0  0  0  0  0  0  0  0  0  0  0  0
   39.2240   33.6780   40.8360 C   0  0  0  0  0  0  0  0  0  0  0  0
   39.2250   32.3480   41.1580 N   0  0  0  0  0  0  0  0  0  0  0  0
   38.3250   31.4920   40.6490 C   0  0  0  0  0  0  0  0  0  0  0  0
   37.3860   31.9110   39.8010 N   0  0  0  0  0  0  0  0  0  0  0  0
   36.5770   33.5670   38.7580 H   0  0  0  0  0  0  0  0  0  0  0  0
   38.2020   35.2050   39.6570 H   0  0  0  0  0  0  0  0  0  0  0  0
   39.9400   34.3540   41.2430 H   0  0  0  0  0  0  0  0  0  0  0  0
   38.3180   30.1470   40.9700 O   0  0  0  0  0  0  0  0  0  0  0  0
   37.3170   28.9880   43.0670 O   0  0  0  0  0  0  0  0  0  0  0  0
   37.0100   29.2780   41.5970 P   0  0  1  0  0  0  0  0  0  0  0  0
   35.5720   30.1320   41.4240 O   0  0  0  0  0  0  0  0  0  0  0  0
   34.8270   29.4800   41.5030 H   0  0  0  0  0  0  0  0  0  0  0  0
   36.8240   27.7840   40.8370 O   0  0  0  0  0  0  0  0  0  0  0  0
   36.2050   27.9860   39.6240 C   0  0  0  0  0  2  0  0  0  0  0  0
   35.3080   27.3440   39.4780 H   0  0  0  0  0  0  0  0  0  0  0  0
  1  6  2  0  0  0  0
  1  2  1  0  0  0  0
  2  3  2  0  0  0  0
  3  4  1  0  0  0  0
  3  9  1  0  0  0  0
  5 10  1  0  0  0  0
  5  4  2  0  0  0  0
  6  5  1  0  0  0  0
  7  1  1  0  0  0  0
  8  2  1  0  0  0  0
 10 12  1  0  0  0  0
 12 11  2  1  0  0  0
 13 14  1  0  0  0  0
 13 12  1  0  0  0  0
 15 12  1  0  0  0  0
 16 15  1  0  0  0  0
 17 16  1  0  0  0  0
M  END
>  <minimizedAffinity>
-3.4596951

$$$$

 OpenBabel03252505283D

 17 17  0  0  0  0  0  0  0  0999 V2000
   39.8150   31.9030   38.0420 C   0  0  0  0  0  0  0  0  0  0  0  0
   40.0690   32.9310   38.9850 C   0  0  0  0  0  0  0  0  0  0  0  0
   39.0500   33.1590   39.9380 C   0  0  0  0  0  0  0  0  0  0  0  0
   37.9170   32.3930   39.8880 N   0  0  0  0  0  0  0  0  0  0  0  0
   37.7460   31.4350   38.9630 C   0  0  0  0  0  0  0  0  0  0  0  0
   38.6850   31.1910   38.0490 N   0  0  0  0  0  0  0  0  0  0  0  0
   40.5960   31.7280   37.3120 H   0  0  0  0  0  0  0  0  0  0  0  0
   40.9820   33.5110   38.9850 H   0  0  0  0  0  0  0  0  0  0  0  0
   39.1810   33.9190   40.6740 H   0  0  0  0  0  0  0  0  0  0  0  0
   36.6040   30.6580   38.9040 O   0  0  0  0  0  0  0  0  0  0  0  0
   36.7570   28.7210   40.6280 O   0  0  0  0  0  0  0  0  0  0  0  0
   35.8560   29.8840   40.2080 P   0  0  1  0  0  0  0  0  0  0  0  0
   35.5950   30.9510   41.4820 O   0  0  0  0  0  0  0  0  0  0  0  0
   34.8960   30.5540   42.0650 H   0  0  0  0  0  0  0  0  0  0  0  0
   34.3700   29.2150   39.7760 O   0  0  0  0  0  0  0  0  0  0  0  0
   34.4450   28.7960   38.4660 C   0  0  0  0  0  2  0  0  0  0  0  0
   33.6200   29.1910   37.8320 H   0  0  0  0  0  0  0  0  0  0  0  0
  1  6  2  0  0  0  0
  1  2  1  0  0  0  0
  2  8  1  0  0  0  0
  2  3  2  0  0  0  0
  3  9  1  0  0  0  0
  4  3  1  0  0  0  0
  5  4  2  0  0  0  0
  6  5  1  0  0  0  0
  7  1  1  0  0  0  0
 10  5  1  0  0  0  0
 10 12  1  0  0  0  0
 12 11  2  1  0  0  0
 12 13  1  0  0  0  0
 13 14  1  0  0  0  0
 15 12  1  0  0  0  0
 16 15  1  0  0  0  0
 17 16  1  0  0  0  0
M  END
>  <minimizedAffinity>
-3.37783718

$$$$

 OpenBabel03252505283D

 17 17  0  0  0  0  0  0  0  0999 V2000
   39.3440   24.3560   42.1800 C   0  0  0  0  0  0  0  0  0  0  0  0
   37.9850   24.0000   41.9890 C   0  0  0  0  0  0  0  0  0  0  0  0
   37.0480   25.0520   42.1140 C   0  0  0  0  0  0  0  0  0  0  0  0
   37.5040   26.3090   42.4030 N   0  0  0  0  0  0  0  0  0  0  0  0
   38.8090   26.5710   42.5710 C   0  0  0  0  0  0  0  0  0  0  0  0
   39.7210   25.6060   42.4610 N   0  0  0  0  0  0  0  0  0  0  0  0
   40.0620   23.5500   42.0830 H   0  0  0  0  0  0  0  0  0  0  0  0
   37.6720   22.9890   41.7610 H   0  0  0  0  0  0  0  0  0  0  0  0
   36.0100   24.8480   41.9820 H   0  0  0  0  0  0  0  0  0  0  0  0
   39.2780   27.8380   42.8650 O   0  0  0  0  0  0  0  0  0  0  0  0
   38.2560   29.3900   41.0510 O   0  0  0  0  0  0  0  0  0  0  0  0
   38.4740   29.2950   42.5610 P   0  0  1  0  0  0  0  0  0  0  0  0
   37.0190   29.3750   43.4000 O   0  0  0  0  0  0  0  0  0  0  0  0
   36.7540   30.3300   43.4480 H   0  0  0  0  0  0  0  0  0  0  0  0
   39.4040   30.6310   43.0020 O   0  0  0  0  0  0  0  0  0  0  0  0
   39.8670   31.2380   41.8550 C   0  0  0  0  0  2  0  0  0  0  0  0
   40.9680   31.3960   41.8580 H   0  0  0  0  0  0  0  0  0  0  0  0
  1  6  1  0  0  0  0
  2  3  1  0  0  0  0
  2  1  2  0  0  0  0
  3  4  2  0  0  0  0
  4  5  1  0  0  0  0
  5 10  1  0  0  0  0
  6  5  2  0  0  0  0
  7  1  1  0  0  0  0
  8  2  1  0  0  0  0
  9  3  1  0  0  0  0
 12 11  2  6  0  0  0
 12 10  1  0  0  0  0
 12 15  1  0  0  0  0
 12 13  1  0  0  0  0
 13 14  1  0  0  0  0
 16 17  1  0  0  0  0
 16 15  1  0  0  0  0
M  END
>  <minimizedAffinity>
-3.36017036

$$$$

 OpenBabel03252505283D

 17 17  0  0  0  0  0  0  0  0999 V2000
   39.2750   25.6940   42.8920 C   0  0  0  0  0  0  0  0  0  0  0  0
   38.7630   24.4150   42.5550 C   0  0  0  0  0  0  0  0  0  0  0  0
   37.6460   24.4060   41.6880 C   0  0  0  0  0  0  0  0  0  0  0  0
   37.1460   25.6010   41.2450 N   0  0  0  0  0  0  0  0  0  0  0  0
   37.6850   26.7750   41.6080 C   0  0  0  0  0  0  0  0  0  0  0  0
   38.7380   26.8230   42.4230 N   0  0  0  0  0  0  0  0  0  0  0  0
   40.1320   25.7000   43.5550 H   0  0  0  0  0  0  0  0  0  0  0  0
   39.1930   23.4960   42.9310 H   0  0  0  0  0  0  0  0  0  0  0  0
   37.2150   23.4760   41.3980 H   0  0  0  0  0  0  0  0  0  0  0  0
   37.1860   27.9870   41.1660 O   0  0  0  0  0  0  0  0  0  0  0  0
   36.2190   30.3830   41.4300 O   0  0  0  0  0  0  0  0  0  0  0  0
   37.3290   29.4740   41.9580 P   0  0  1  0  0  0  0  0  0  0  0  0
   37.2310   29.2870   43.6270 O   0  0  0  0  0  0  0  0  0  0  0  0
   37.6280   30.0970   44.0420 H   0  0  0  0  0  0  0  0  0  0  0  0
   38.7900   30.2370   41.6040 O   0  0  0  0  0  0  0  0  0  0  0  0
   38.5190   31.4120   40.9380 C   0  0  0  0  0  2  0  0  0  0  0  0
   39.0810   31.5130   39.9830 H   0  0  0  0  0  0  0  0  0  0  0  0
  1  7  1  0  0  0  0
  2  1  1  0  0  0  0
  2  8  1  0  0  0  0
  3  2  2  0  0  0  0
  4  5  2  0  0  0  0
  4  3  1  0  0  0  0
  5  6  1  0  0  0  0
  6  1  2  0  0  0  0
  9  3  1  0  0  0  0
 10  5  1  0  0  0  0
 10 12  1  0  0  0  0
 12 11  2  6  0  0  0
 12 13  1  0  0  0  0
 13 14  1  0  0  0  0
 15 12  1  0  0  0  0
 16 15  1  0  0  0  0
 17 16  1  0  0  0  0
M  END
>  <minimizedAffinity>
-3.34136677

$$$$

 OpenBabel03252505283D

 17 17  0  0  0  0  0  0  0  0999 V2000
   36.0220   29.2190   36.4300 C   0  0  0  0  0  0  0  0  0  0  0  0
   34.6300   28.9930   36.5830 C   0  0  0  0  0  0  0  0  0  0  0  0
   34.1610   28.9070   37.9140 C   0  0  0  0  0  0  0  0  0  0  0  0
   35.0590   29.0420   38.9390 N   0  0  0  0  0  0  0  0  0  0  0  0
   36.3650   29.2540   38.7160 C   0  0  0  0  0  0  0  0  0  0  0  0
   36.8430   29.3420   37.4760 N   0  0  0  0  0  0  0  0  0  0  0  0
   36.3800   29.2870   35.4100 H   0  0  0  0  0  0  0  0  0  0  0  0
   33.9580   28.8920   35.7400 H   0  0  0  0  0  0  0  0  0  0  0  0
   33.1250   28.7370   38.0950 H   0  0  0  0  0  0  0  0  0  0  0  0
   37.2780   29.3910   39.7460 O   0  0  0  0  0  0  0  0  0  0  0  0
   38.0840   31.5760   40.8960 O   0  0  0  0  0  0  0  0  0  0  0  0
   37.1210   30.4040   41.0910 P   0  0  1  0  0  0  0  0  0  0  0  0
   35.5350   30.9330   41.2730 O   0  0  0  0  0  0  0  0  0  0  0  0
   35.4290   31.2410   42.2110 H   0  0  0  0  0  0  0  0  0  0  0  0
   37.5800   29.6310   42.5180 O   0  0  0  0  0  0  0  0  0  0  0  0
   37.0280   28.3700   42.5280 C   0  0  0  0  0  2  0  0  0  0  0  0
   36.4590   28.1490   43.4590 H   0  0  0  0  0  0  0  0  0  0  0  0
  1  2  2  0  0  0  0
  1  6  1  0  0  0  0
  2  3  1  0  0  0  0
  3  9  1  0  0  0  0
  3  4  2  0  0  0  0
  5  4  1  0  0  0  0
  5 10  1  0  0  0  0
  6  5  2  0  0  0  0
  7  1  1  0  0  0  0
  8  2  1  0  0  0  0
 10 12  1  0  0  0  0
 12 11  2  6  0  0  0
 12 13  1  0  0  0  0
 12 15  1  0  0  0  0
 13 14  1  0  0  0  0
 15 16  1  0  0  0  0
 16 17  1  0  0  0  0
M  END
>  <minimizedAffinity>
-3.32249331

$$$$
