
 OpenBabel03242515293D

 25 26  0  0  0  0  0  0  0  0999 V2000
   37.5330   32.7180   39.9170 C   0  0  0  0  0  0  0  0  0  0  0  0
   36.6580   32.9720   39.3290 H   0  0  0  0  0  0  0  0  0  0  0  0
   37.5920   33.4990   40.7240 H   0  0  0  0  0  0  0  0  0  0  0  0
   38.7560   32.7030   39.1420 N   0  0  0  0  0  0  0  0  0  0  0  0
   39.8860   33.1860   39.6340 C   0  0  0  0  0  0  0  0  0  0  0  0
   41.0110   33.1410   38.8450 C   0  0  0  0  0  0  0  0  0  0  0  0
   40.9910   32.6170   37.5800 C   0  0  0  0  0  0  0  0  0  0  0  0
   42.0260   32.5900   36.8890 O   0  0  0  0  0  0  0  0  0  0  0  0
   39.8170   32.1240   37.0920 N   0  0  0  0  0  0  0  0  0  0  0  0
   38.7050   32.1680   37.8730 C   0  0  0  0  0  0  0  0  0  0  0  0
   37.6470   31.6960   37.3640 O   0  0  0  0  0  0  0  0  0  0  0  0
   39.8810   33.5990   40.6440 H   0  0  0  0  0  0  0  0  0  0  0  0
   41.9240   33.5360   39.2520 H   0  0  0  0  0  0  0  0  0  0  0  0
   39.7820   31.7180   36.1260 H   0  0  0  0  0  0  0  0  0  0  0  0
   36.1730   30.7340   40.3960 C   0  0  0  0  0  0  0  0  0  0  0  0
   37.3870   31.4180   40.5770 C   0  0  0  0  0  0  0  0  0  0  0  0
   38.3240   30.8000   41.3640 C   0  0  0  0  0  0  0  0  0  0  0  0
   38.0660   29.5990   41.9230 N   0  0  0  0  0  0  0  0  0  0  0  0
   36.8660   28.9900   41.7070 C   0  0  0  0  0  0  0  0  0  0  0  0
   35.8970   29.5350   40.9450 N   0  0  0  0  0  0  0  0  0  0  0  0
   35.4030   31.1850   39.7800 H   0  0  0  0  0  0  0  0  0  0  0  0
   39.2710   31.3170   41.5140 H   0  0  0  0  0  0  0  0  0  0  0  0
   36.5660   27.7520   42.2710 O   0  0  0  0  0  0  0  0  0  0  0  0
   36.5110   27.4700   43.6330 C   0  0  0  0  0  2  0  0  0  0  0  0
   35.5840   27.9090   44.0520 H   0  0  0  0  0  0  0  0  0  0  0  0
  1 16  1  0  0  0  0
  1  3  1  0  0  0  0
  2  1  1  0  0  0  0
  4  5  1  0  0  0  0
  4  1  1  0  0  0  0
  5 12  1  0  0  0  0
  6 13  1  0  0  0  0
  6  5  2  0  0  0  0
  7  6  1  0  0  0  0
  8  7  2  0  0  0  0
  9  7  1  0  0  0  0
  9 10  1  0  0  0  0
 10  4  1  0  0  0  0
 11 10  2  0  0  0  0
 14  9  1  0  0  0  0
 15 16  2  0  0  0  0
 15 20  1  0  0  0  0
 16 17  1  0  0  0  0
 17 22  1  0  0  0  0
 17 18  2  0  0  0  0
 19 18  1  0  0  0  0
 19 23  1  0  0  0  0
 20 19  2  0  0  0  0
 21 15  1  0  0  0  0
 23 24  1  0  0  0  0
 24 25  1  0  0  0  0
M  END
>  <minimizedAffinity>
-4.69466305

$$$$

 OpenBabel03242515293D

 25 26  0  0  0  0  0  0  0  0999 V2000
   36.9430   31.9210   40.2570 C   0  0  0  0  0  0  0  0  0  0  0  0
   36.0130   32.0030   39.7040 H   0  0  0  0  0  0  0  0  0  0  0  0
   36.9110   32.7450   41.0230 H   0  0  0  0  0  0  0  0  0  0  0  0
   38.1170   32.0560   39.4230 N   0  0  0  0  0  0  0  0  0  0  0  0
   38.3700   31.1950   38.4490 C   0  0  0  0  0  0  0  0  0  0  0  0
   39.5030   31.3820   37.6930 C   0  0  0  0  0  0  0  0  0  0  0  0
   40.3640   32.4220   37.9200 C   0  0  0  0  0  0  0  0  0  0  0  0
   41.3830   32.5640   37.2190 O   0  0  0  0  0  0  0  0  0  0  0  0
   40.0860   33.2980   38.9270 N   0  0  0  0  0  0  0  0  0  0  0  0
   38.9650   33.1130   39.6740 C   0  0  0  0  0  0  0  0  0  0  0  0
   38.7620   33.9590   40.5930 O   0  0  0  0  0  0  0  0  0  0  0  0
   37.6710   30.3730   38.2850 H   0  0  0  0  0  0  0  0  0  0  0  0
   39.7010   30.6780   36.9060 H   0  0  0  0  0  0  0  0  0  0  0  0
   40.7340   34.1000   39.1150 H   0  0  0  0  0  0  0  0  0  0  0  0
   36.0190   29.7050   40.7590 C   0  0  0  0  0  0  0  0  0  0  0  0
   37.0330   30.6520   40.9830 C   0  0  0  0  0  0  0  0  0  0  0  0
   38.0150   30.2950   41.8720 C   0  0  0  0  0  0  0  0  0  0  0  0
   37.9830   29.0930   42.4830 N   0  0  0  0  0  0  0  0  0  0  0  0
   36.9690   28.2210   42.2200 C   0  0  0  0  0  0  0  0  0  0  0  0
   35.9710   28.5000   41.3590 N   0  0  0  0  0  0  0  0  0  0  0  0
   35.2220   29.9430   40.0630 H   0  0  0  0  0  0  0  0  0  0  0  0
   38.8080   31.0190   42.0560 H   0  0  0  0  0  0  0  0  0  0  0  0
   36.9050   26.9730   42.8360 O   0  0  0  0  0  0  0  0  0  0  0  0
   37.1840   25.7500   42.2290 C   0  0  0  0  0  2  0  0  0  0  0  0
   38.2810   25.6560   42.1040 H   0  0  0  0  0  0  0  0  0  0  0  0
  1 16  1  0  0  0  0
  1  3  1  0  0  0  0
  2  1  1  0  0  0  0
  4 10  1  0  0  0  0
  4  1  1  0  0  0  0
  5  4  1  0  0  0  0
  6  7  1  0  0  0  0
  6  5  2  0  0  0  0
  7  9  1  0  0  0  0
  8  7  2  0  0  0  0
  9 14  1  0  0  0  0
  9 10  1  0  0  0  0
 10 11  2  0  0  0  0
 12  5  1  0  0  0  0
 13  6  1  0  0  0  0
 15 16  2  0  0  0  0
 15 20  1  0  0  0  0
 16 17  1  0  0  0  0
 17 22  1  0  0  0  0
 17 18  2  0  0  0  0
 19 18  1  0  0  0  0
 19 23  1  0  0  0  0
 20 19  2  0  0  0  0
 21 15  1  0  0  0  0
 24 23  1  0  0  0  0
 25 24  1  0  0  0  0
M  END
>  <minimizedAffinity>
-4.40653133

$$$$

 OpenBabel03242515293D

 25 26  0  0  0  0  0  0  0  0999 V2000
   36.5910   27.3940   42.8830 C   0  0  0  0  0  0  0  0  0  0  0  0
   36.2650   27.7770   43.8440 H   0  0  0  0  0  0  0  0  0  0  0  0
   35.7950   26.6690   42.5610 H   0  0  0  0  0  0  0  0  0  0  0  0
   37.8780   26.7340   42.9400 N   0  0  0  0  0  0  0  0  0  0  0  0
   38.9080   27.2900   43.5580 C   0  0  0  0  0  0  0  0  0  0  0  0
   40.1030   26.6090   43.5750 C   0  0  0  0  0  0  0  0  0  0  0  0
   40.2500   25.3870   42.9760 C   0  0  0  0  0  0  0  0  0  0  0  0
   41.3440   24.7950   43.0080 O   0  0  0  0  0  0  0  0  0  0  0  0
   39.1770   24.8310   42.3450 N   0  0  0  0  0  0  0  0  0  0  0  0
   37.9960   25.5040   42.3290 C   0  0  0  0  0  0  0  0  0  0  0  0
   37.0380   24.9360   41.7280 O   0  0  0  0  0  0  0  0  0  0  0  0
   38.7690   28.2650   44.0290 H   0  0  0  0  0  0  0  0  0  0  0  0
   40.9330   27.0690   44.0780 H   0  0  0  0  0  0  0  0  0  0  0  0
   39.2710   23.8950   41.8810 H   0  0  0  0  0  0  0  0  0  0  0  0
   36.1880   28.1420   40.5820 C   0  0  0  0  0  0  0  0  0  0  0  0
   36.6570   28.4510   41.8700 C   0  0  0  0  0  0  0  0  0  0  0  0
   37.1380   29.7210   42.0560 C   0  0  0  0  0  0  0  0  0  0  0  0
   37.1500   30.6060   41.0380 N   0  0  0  0  0  0  0  0  0  0  0  0
   36.6800   30.2400   39.8110 C   0  0  0  0  0  0  0  0  0  0  0  0
   36.1910   29.0120   39.5530 N   0  0  0  0  0  0  0  0  0  0  0  0
   35.7970   27.1490   40.3890 H   0  0  0  0  0  0  0  0  0  0  0  0
   37.5050   29.9760   43.0490 H   0  0  0  0  0  0  0  0  0  0  0  0
   36.6810   31.1280   38.7380 O   0  0  0  0  0  0  0  0  0  0  0  0
   37.3110   32.3700   38.7080 C   0  0  0  0  0  2  0  0  0  0  0  0
   38.4040   32.2130   38.6060 H   0  0  0  0  0  0  0  0  0  0  0  0
  1  4  1  0  0  0  0
  1  2  1  0  0  0  0
  3  1  1  0  0  0  0
  4  5  1  0  0  0  0
  5  6  2  0  0  0  0
  5 12  1  0  0  0  0
  6 13  1  0  0  0  0
  7  8  2  0  0  0  0
  7  6  1  0  0  0  0
  9  7  1  0  0  0  0
 10  9  1  0  0  0  0
 10  4  1  0  0  0  0
 11 10  2  0  0  0  0
 14  9  1  0  0  0  0
 15 16  1  0  0  0  0
 16 17  2  0  0  0  0
 16  1  1  0  0  0  0
 17 22  1  0  0  0  0
 18 17  1  0  0  0  0
 19 18  2  0  0  0  0
 20 19  1  0  0  0  0
 20 15  2  0  0  0  0
 21 15  1  0  0  0  0
 23 19  1  0  0  0  0
 24 23  1  0  0  0  0
 25 24  1  0  0  0  0
M  END
>  <minimizedAffinity>
-4.38885641

$$$$

 OpenBabel03242515293D

 25 26  0  0  0  0  0  0  0  0999 V2000
   38.2800   27.2250   43.4430 C   0  0  0  0  0  0  0  0  0  0  0  0
   39.1070   27.1880   44.1450 H   0  0  0  0  0  0  0  0  0  0  0  0
   37.3650   27.4300   44.0640 H   0  0  0  0  0  0  0  0  0  0  0  0
   38.1130   25.9980   42.6940 N   0  0  0  0  0  0  0  0  0  0  0  0
   37.0520   25.8000   41.9280 C   0  0  0  0  0  0  0  0  0  0  0  0
   36.9550   24.6110   41.2430 C   0  0  0  0  0  0  0  0  0  0  0  0
   37.9180   23.6420   41.3330 C   0  0  0  0  0  0  0  0  0  0  0  0
   37.8020   22.5750   40.7000 O   0  0  0  0  0  0  0  0  0  0  0  0
   39.0040   23.8650   42.1260 N   0  0  0  0  0  0  0  0  0  0  0  0
   39.0990   25.0400   42.8030 C   0  0  0  0  0  0  0  0  0  0  0  0
   40.1300   25.1880   43.5220 O   0  0  0  0  0  0  0  0  0  0  0  0
   36.2970   26.5860   41.8710 H   0  0  0  0  0  0  0  0  0  0  0  0
   36.0900   24.4590   40.6250 H   0  0  0  0  0  0  0  0  0  0  0  0
   39.7510   23.1330   42.2070 H   0  0  0  0  0  0  0  0  0  0  0  0
   37.3610   29.2480   42.4040 C   0  0  0  0  0  0  0  0  0  0  0  0
   38.4230   28.3320   42.4940 C   0  0  0  0  0  0  0  0  0  0  0  0
   39.4970   28.5610   41.6730 C   0  0  0  0  0  0  0  0  0  0  0  0
   39.5060   29.6180   40.8350 N   0  0  0  0  0  0  0  0  0  0  0  0
   38.4420   30.4690   40.7980 C   0  0  0  0  0  0  0  0  0  0  0  0
   37.3520   30.3090   41.5740 N   0  0  0  0  0  0  0  0  0  0  0  0
   36.4910   29.1060   43.0360 H   0  0  0  0  0  0  0  0  0  0  0  0
   40.3290   27.8600   41.7310 H   0  0  0  0  0  0  0  0  0  0  0  0
   38.4180   31.5680   39.9420 O   0  0  0  0  0  0  0  0  0  0  0  0
   37.6970   32.7420   40.1450 C   0  0  0  0  0  2  0  0  0  0  0  0
   38.2010   33.3390   40.9320 H   0  0  0  0  0  0  0  0  0  0  0  0
  1  3  1  0  0  0  0
  1  2  1  0  0  0  0
  4 10  1  0  0  0  0
  4  1  1  0  0  0  0
  5  4  1  0  0  0  0
  6  7  1  0  0  0  0
  6  5  2  0  0  0  0
  7  9  1  0  0  0  0
  8  7  2  0  0  0  0
  9 14  1  0  0  0  0
  9 10  1  0  0  0  0
 10 11  2  0  0  0  0
 12  5  1  0  0  0  0
 13  6  1  0  0  0  0
 15 16  1  0  0  0  0
 15 21  1  0  0  0  0
 16  1  1  0  0  0  0
 17 22  1  0  0  0  0
 17 16  2  0  0  0  0
 18 17  1  0  0  0  0
 19 18  2  0  0  0  0
 19 20  1  0  0  0  0
 20 15  2  0  0  0  0
 23 24  1  0  0  0  0
 23 19  1  0  0  0  0
 24 25  1  0  0  0  0
M  END
>  <minimizedAffinity>
-4.32983112

$$$$

 OpenBabel03242515293D

 25 26  0  0  0  0  0  0  0  0999 V2000
   36.6710   31.1540   40.9890 C   0  0  0  0  0  0  0  0  0  0  0  0
   36.3720   31.8520   41.7640 H   0  0  0  0  0  0  0  0  0  0  0  0
   35.7940   31.0890   40.2880 H   0  0  0  0  0  0  0  0  0  0  0  0
   37.0030   29.8420   41.5010 N   0  0  0  0  0  0  0  0  0  0  0  0
   37.9820   29.6740   42.3760 C   0  0  0  0  0  0  0  0  0  0  0  0
   38.2450   28.4010   42.8220 C   0  0  0  0  0  0  0  0  0  0  0  0
   37.5300   27.3170   42.3890 C   0  0  0  0  0  0  0  0  0  0  0  0
   37.7920   26.1760   42.8110 O   0  0  0  0  0  0  0  0  0  0  0  0
   36.5250   27.5110   41.4870 N   0  0  0  0  0  0  0  0  0  0  0  0
   36.2650   28.7700   41.0470 C   0  0  0  0  0  0  0  0  0  0  0  0
   35.3210   28.8850   40.2120 O   0  0  0  0  0  0  0  0  0  0  0  0
   38.5400   30.5510   42.7090 H   0  0  0  0  0  0  0  0  0  0  0  0
   39.0420   28.2740   43.5320 H   0  0  0  0  0  0  0  0  0  0  0  0
   35.9660   26.6920   41.1440 H   0  0  0  0  0  0  0  0  0  0  0  0
   38.4410   32.8230   40.6790 C   0  0  0  0  0  0  0  0  0  0  0  0
   37.8120   31.6540   40.2180 C   0  0  0  0  0  0  0  0  0  0  0  0
   38.3270   31.0920   39.0780 C   0  0  0  0  0  0  0  0  0  0  0  0
   39.3830   31.6540   38.4540 N   0  0  0  0  0  0  0  0  0  0  0  0
   39.9470   32.7890   38.9550 C   0  0  0  0  0  0  0  0  0  0  0  0
   39.4960   33.3980   40.0690 N   0  0  0  0  0  0  0  0  0  0  0  0
   38.0680   33.3010   41.5770 H   0  0  0  0  0  0  0  0  0  0  0  0
   37.8500   30.1860   38.7080 H   0  0  0  0  0  0  0  0  0  0  0  0
   41.0360   33.3960   38.3330 O   0  0  0  0  0  0  0  0  0  0  0  0
   41.7860   32.8540   37.2930 C   0  0  0  0  0  2  0  0  0  0  0  0
   41.1930   32.9110   36.3580 H   0  0  0  0  0  0  0  0  0  0  0  0
  1  4  1  0  0  0  0
  1  2  1  0  0  0  0
  3  1  1  0  0  0  0
  4  5  1  0  0  0  0
  5 12  1  0  0  0  0
  5  6  2  0  0  0  0
  6 13  1  0  0  0  0
  7  8  2  0  0  0  0
  7  6  1  0  0  0  0
  9  7  1  0  0  0  0
 10  9  1  0  0  0  0
 10  4  1  0  0  0  0
 11 10  2  0  0  0  0
 14  9  1  0  0  0  0
 15 21  1  0  0  0  0
 16 15  1  0  0  0  0
 16  1  1  0  0  0  0
 17 16  2  0  0  0  0
 18 19  2  0  0  0  0
 18 17  1  0  0  0  0
 19 20  1  0  0  0  0
 20 15  2  0  0  0  0
 22 17  1  0  0  0  0
 23 19  1  0  0  0  0
 24 23  1  0  0  0  0
 25 24  1  0  0  0  0
M  END
>  <minimizedAffinity>
-4.26617956

$$$$

 OpenBabel03242515293D

 25 26  0  0  0  0  0  0  0  0999 V2000
   36.9310   27.2920   42.9520 C   0  0  0  0  0  0  0  0  0  0  0  0
   35.9950   27.0090   43.4230 H   0  0  0  0  0  0  0  0  0  0  0  0
   37.6410   27.5070   43.7970 H   0  0  0  0  0  0  0  0  0  0  0  0
   36.8090   28.4490   42.0920 N   0  0  0  0  0  0  0  0  0  0  0  0
   35.8790   28.5110   41.1510 C   0  0  0  0  0  0  0  0  0  0  0  0
   35.8180   29.6400   40.3690 C   0  0  0  0  0  0  0  0  0  0  0  0
   36.6840   30.6870   40.5370 C   0  0  0  0  0  0  0  0  0  0  0  0
   36.6040   31.6960   39.8120 O   0  0  0  0  0  0  0  0  0  0  0  0
   37.6340   30.6040   41.5110 N   0  0  0  0  0  0  0  0  0  0  0  0
   37.6940   29.4880   42.2840 C   0  0  0  0  0  0  0  0  0  0  0  0
   38.5970   29.4720   43.1710 O   0  0  0  0  0  0  0  0  0  0  0  0
   35.1990   27.6650   41.0350 H   0  0  0  0  0  0  0  0  0  0  0  0
   35.0600   29.6810   39.6080 H   0  0  0  0  0  0  0  0  0  0  0  0
   38.3060   31.3970   41.6540 H   0  0  0  0  0  0  0  0  0  0  0  0
   36.7780   24.9880   42.1250 C   0  0  0  0  0  0  0  0  0  0  0  0
   37.5010   26.1910   42.1710 C   0  0  0  0  0  0  0  0  0  0  0  0
   38.6840   26.2190   41.4780 C   0  0  0  0  0  0  0  0  0  0  0  0
   39.1060   25.1330   40.7990 N   0  0  0  0  0  0  0  0  0  0  0  0
   38.3550   23.9950   40.7960 C   0  0  0  0  0  0  0  0  0  0  0  0
   37.1820   23.8930   41.4520 N   0  0  0  0  0  0  0  0  0  0  0  0
   35.8350   24.9210   42.6580 H   0  0  0  0  0  0  0  0  0  0  0  0
   39.2570   27.1450   41.5040 H   0  0  0  0  0  0  0  0  0  0  0  0
   38.7620   22.8550   40.1060 O   0  0  0  0  0  0  0  0  0  0  0  0
   39.3340   22.8330   38.8370 C   0  0  0  0  0  2  0  0  0  0  0  0
   40.3820   23.1890   38.9110 H   0  0  0  0  0  0  0  0  0  0  0  0
  1  2  1  0  0  0  0
  1  3  1  0  0  0  0
  4 10  1  0  0  0  0
  4  1  1  0  0  0  0
  5  4  1  0  0  0  0
  6  7  1  0  0  0  0
  6  5  2  0  0  0  0
  7  9  1  0  0  0  0
  8  7  2  0  0  0  0
  9 14  1  0  0  0  0
  9 10  1  0  0  0  0
 10 11  2  0  0  0  0
 12  5  1  0  0  0  0
 13  6  1  0  0  0  0
 15 16  1  0  0  0  0
 15 21  1  0  0  0  0
 16  1  1  0  0  0  0
 17 22  1  0  0  0  0
 17 16  2  0  0  0  0
 18 17  1  0  0  0  0
 19 18  2  0  0  0  0
 19 20  1  0  0  0  0
 20 15  2  0  0  0  0
 23 19  1  0  0  0  0
 24 25  1  0  0  0  0
 24 23  1  0  0  0  0
M  END
>  <minimizedAffinity>
-4.24007082

$$$$

 OpenBabel03242515293D

 25 26  0  0  0  0  0  0  0  0999 V2000
   37.7600   28.9180   43.1320 C   0  0  0  0  0  0  0  0  0  0  0  0
   36.9390   28.8810   43.8410 H   0  0  0  0  0  0  0  0  0  0  0  0
   38.6570   29.2470   43.7260 H   0  0  0  0  0  0  0  0  0  0  0  0
   37.5240   29.8300   42.0330 N   0  0  0  0  0  0  0  0  0  0  0  0
   36.4010   29.7850   41.3340 C   0  0  0  0  0  0  0  0  0  0  0  0
   36.2410   30.6810   40.3030 C   0  0  0  0  0  0  0  0  0  0  0  0
   37.2010   31.6040   39.9870 C   0  0  0  0  0  0  0  0  0  0  0  0
   37.0270   32.4010   39.0470 O   0  0  0  0  0  0  0  0  0  0  0  0
   38.3500   31.6330   40.7190 N   0  0  0  0  0  0  0  0  0  0  0  0
   38.5080   30.7490   41.7390 C   0  0  0  0  0  0  0  0  0  0  0  0
   39.5960   30.8260   42.3820 O   0  0  0  0  0  0  0  0  0  0  0  0
   35.6490   29.0420   41.6020 H   0  0  0  0  0  0  0  0  0  0  0  0
   35.3260   30.6370   39.7400 H   0  0  0  0  0  0  0  0  0  0  0  0
   39.0970   32.3340   40.4920 H   0  0  0  0  0  0  0  0  0  0  0  0
   37.0810   26.5980   42.7150 C   0  0  0  0  0  0  0  0  0  0  0  0
   38.0620   27.5950   42.5800 C   0  0  0  0  0  0  0  0  0  0  0  0
   39.2200   27.2280   41.9440 C   0  0  0  0  0  0  0  0  0  0  0  0
   39.3810   25.9700   41.4830 N   0  0  0  0  0  0  0  0  0  0  0  0
   38.3870   25.0510   41.6480 C   0  0  0  0  0  0  0  0  0  0  0  0
   37.2220   25.3380   42.2610 N   0  0  0  0  0  0  0  0  0  0  0  0
   36.1480   26.8440   43.2110 H   0  0  0  0  0  0  0  0  0  0  0  0
   39.9910   27.9890   41.8310 H   0  0  0  0  0  0  0  0  0  0  0  0
   38.5210   23.7440   41.1860 O   0  0  0  0  0  0  0  0  0  0  0  0
   37.5660   23.0340   40.4630 C   0  0  0  0  0  2  0  0  0  0  0  0
   37.5440   23.4210   39.4240 H   0  0  0  0  0  0  0  0  0  0  0  0
  1  3  1  0  0  0  0
  1  2  1  0  0  0  0
  4  1  1  0  0  0  0
  5 12  1  0  0  0  0
  5  4  1  0  0  0  0
  6  5  2  0  0  0  0
  7  6  1  0  0  0  0
  7  9  1  0  0  0  0
  8  7  2  0  0  0  0
  9 10  1  0  0  0  0
 10  4  1  0  0  0  0
 10 11  2  0  0  0  0
 13  6  1  0  0  0  0
 14  9  1  0  0  0  0
 15 21  1  0  0  0  0
 16 15  1  0  0  0  0
 16  1  1  0  0  0  0
 17 16  2  0  0  0  0
 18 19  2  0  0  0  0
 18 17  1  0  0  0  0
 19 20  1  0  0  0  0
 20 15  2  0  0  0  0
 22 17  1  0  0  0  0
 23 19  1  0  0  0  0
 24 23  1  0  0  0  0
 25 24  1  0  0  0  0
M  END
>  <minimizedAffinity>
-4.23454142

$$$$

 OpenBabel03242515293D

 25 26  0  0  0  0  0  0  0  0999 V2000
   36.2200   30.3270   41.3510 C   0  0  0  0  0  0  0  0  0  0  0  0
   36.6960   31.3020   41.3350 H   0  0  0  0  0  0  0  0  0  0  0  0
   35.2640   30.4670   41.9270 H   0  0  0  0  0  0  0  0  0  0  0  0
   37.0350   29.3050   41.9710 N   0  0  0  0  0  0  0  0  0  0  0  0
   36.5370   28.1140   42.2640 C   0  0  0  0  0  0  0  0  0  0  0  0
   37.3660   27.1880   42.8520 C   0  0  0  0  0  0  0  0  0  0  0  0
   38.6750   27.4650   43.1400 C   0  0  0  0  0  0  0  0  0  0  0  0
   39.4010   26.6060   43.6740 O   0  0  0  0  0  0  0  0  0  0  0  0
   39.1690   28.6980   42.8310 N   0  0  0  0  0  0  0  0  0  0  0  0
   38.3500   29.6120   42.2480 C   0  0  0  0  0  0  0  0  0  0  0  0
   38.8670   30.7370   41.9850 O   0  0  0  0  0  0  0  0  0  0  0  0
   35.4910   27.9130   42.0260 H   0  0  0  0  0  0  0  0  0  0  0  0
   36.9530   26.2240   43.0860 H   0  0  0  0  0  0  0  0  0  0  0  0
   40.1700   28.9270   43.0430 H   0  0  0  0  0  0  0  0  0  0  0  0
   36.7900   30.0970   38.9770 C   0  0  0  0  0  0  0  0  0  0  0  0
   35.8580   29.8780   40.0040 C   0  0  0  0  0  0  0  0  0  0  0  0
   34.6860   29.2640   39.6440 C   0  0  0  0  0  0  0  0  0  0  0  0
   34.4670   28.9010   38.3630 N   0  0  0  0  0  0  0  0  0  0  0  0
   35.4160   29.1430   37.4140 C   0  0  0  0  0  0  0  0  0  0  0  0
   36.5910   29.7410   37.6920 N   0  0  0  0  0  0  0  0  0  0  0  0
   37.7320   30.5790   39.2160 H   0  0  0  0  0  0  0  0  0  0  0  0
   33.9520   29.0860   40.4290 H   0  0  0  0  0  0  0  0  0  0  0  0
   35.2210   28.7840   36.0820 O   0  0  0  0  0  0  0  0  0  0  0  0
   36.0750   29.0860   35.0240 C   0  0  0  0  0  2  0  0  0  0  0  0
   36.9700   28.4360   35.0910 H   0  0  0  0  0  0  0  0  0  0  0  0
  1  3  1  0  0  0  0
  1  4  1  0  0  0  0
  2  1  1  0  0  0  0
  4 10  1  0  0  0  0
  4  5  1  0  0  0  0
  5  6  2  0  0  0  0
  6 13  1  0  0  0  0
  6  7  1  0  0  0  0
  7  8  2  0  0  0  0
  9 14  1  0  0  0  0
  9  7  1  0  0  0  0
 10  9  1  0  0  0  0
 11 10  2  0  0  0  0
 12  5  1  0  0  0  0
 15 21  1  0  0  0  0
 15 16  1  0  0  0  0
 16  1  1  0  0  0  0
 17 16  2  0  0  0  0
 17 22  1  0  0  0  0
 18 17  1  0  0  0  0
 19 20  1  0  0  0  0
 19 18  2  0  0  0  0
 20 15  2  0  0  0  0
 23 19  1  0  0  0  0
 24 25  1  0  0  0  0
 24 23  1  0  0  0  0
M  END
>  <minimizedAffinity>
-4.18913841

$$$$

 OpenBabel03242515293D

 25 26  0  0  0  0  0  0  0  0999 V2000
   38.4330   28.7450   43.3240 C   0  0  0  0  0  0  0  0  0  0  0  0
   39.2980   28.7770   43.9770 H   0  0  0  0  0  0  0  0  0  0  0  0
   37.5400   28.8380   44.0010 H   0  0  0  0  0  0  0  0  0  0  0  0
   38.3500   27.5260   42.5480 N   0  0  0  0  0  0  0  0  0  0  0  0
   39.3360   27.1530   41.7480 C   0  0  0  0  0  0  0  0  0  0  0  0
   39.1930   25.9830   41.0400 C   0  0  0  0  0  0  0  0  0  0  0  0
   38.0700   25.2070   41.1390 C   0  0  0  0  0  0  0  0  0  0  0  0
   37.9690   24.1530   40.4840 O   0  0  0  0  0  0  0  0  0  0  0  0
   37.0640   25.6090   41.9680 N   0  0  0  0  0  0  0  0  0  0  0  0
   37.2070   26.7650   42.6690 C   0  0  0  0  0  0  0  0  0  0  0  0
   36.2400   27.0840   43.4210 O   0  0  0  0  0  0  0  0  0  0  0  0
   40.2230   27.7860   41.6840 H   0  0  0  0  0  0  0  0  0  0  0  0
   39.9990   25.6880   40.3930 H   0  0  0  0  0  0  0  0  0  0  0  0
   36.1970   25.0270   42.0570 H   0  0  0  0  0  0  0  0  0  0  0  0
   39.5270   30.7290   42.3840 C   0  0  0  0  0  0  0  0  0  0  0  0
   38.4040   29.8840   42.4030 C   0  0  0  0  0  0  0  0  0  0  0  0
   37.3790   30.2130   41.5540 C   0  0  0  0  0  0  0  0  0  0  0  0
   37.4710   31.2960   40.7560 N   0  0  0  0  0  0  0  0  0  0  0  0
   38.5900   32.0740   40.7870 C   0  0  0  0  0  0  0  0  0  0  0  0
   39.6370   31.8140   41.5930 N   0  0  0  0  0  0  0  0  0  0  0  0
   40.3630   30.5060   43.0380 H   0  0  0  0  0  0  0  0  0  0  0  0
   36.5010   29.5680   41.5570 H   0  0  0  0  0  0  0  0  0  0  0  0
   38.7160   33.2010   39.9770 O   0  0  0  0  0  0  0  0  0  0  0  0
   39.8780   33.9470   39.7950 C   0  0  0  0  0  2  0  0  0  0  0  0
   40.5710   33.3750   39.1450 H   0  0  0  0  0  0  0  0  0  0  0  0
  1  2  1  0  0  0  0
  1  3  1  0  0  0  0
  4 10  1  0  0  0  0
  4  1  1  0  0  0  0
  5  4  1  0  0  0  0
  6  7  1  0  0  0  0
  6  5  2  0  0  0  0
  7  9  1  0  0  0  0
  8  7  2  0  0  0  0
  9 14  1  0  0  0  0
  9 10  1  0  0  0  0
 10 11  2  0  0  0  0
 12  5  1  0  0  0  0
 13  6  1  0  0  0  0
 15 16  1  0  0  0  0
 15 21  1  0  0  0  0
 16  1  1  0  0  0  0
 17 22  1  0  0  0  0
 17 16  2  0  0  0  0
 18 19  2  0  0  0  0
 18 17  1  0  0  0  0
 19 20  1  0  0  0  0
 20 15  2  0  0  0  0
 23 19  1  0  0  0  0
 24 23  1  0  0  0  0
 25 24  1  0  0  0  0
M  END
>  <minimizedAffinity>
-4.12673903

$$$$
