
 OpenBabel03252505273D

 17 17  0  0  0  0  0  0  0  0999 V2000
   44.5180   35.6210   44.7930 C   0  0  0  0  0  0  0  0  0  0  0  0
   44.9160   35.8300   43.4480 C   0  0  0  0  0  0  0  0  0  0  0  0
   45.9740   35.0160   42.9830 C   0  0  0  0  0  0  0  0  0  0  0  0
   46.5300   34.1050   43.8400 N   0  0  0  0  0  0  0  0  0  0  0  0
   46.1000   33.9630   45.1030 C   0  0  0  0  0  0  0  0  0  0  0  0
   45.1040   34.7120   45.5770 N   0  0  0  0  0  0  0  0  0  0  0  0
   43.7060   36.2440   45.1480 H   0  0  0  0  0  0  0  0  0  0  0  0
   44.4450   36.5640   42.8070 H   0  0  0  0  0  0  0  0  0  0  0  0
   46.3190   35.1260   41.9810 H   0  0  0  0  0  0  0  0  0  0  0  0
   46.6570   33.0460   45.9760 O   0  0  0  0  0  0  0  0  0  0  0  0
   46.9840   32.2960   48.4410 O   0  0  0  0  0  0  0  0  0  0  0  0
   45.9150   32.4020   47.3530 P   0  0  1  0  0  0  0  0  0  0  0  0
   44.6220   33.3560   47.8510 O   0  0  0  0  0  0  0  0  0  0  0  0
   44.0450   32.7950   48.4330 H   0  0  0  0  0  0  0  0  0  0  0  0
   45.3390   30.8400   47.0860 O   0  0  0  0  0  0  0  0  0  0  0  0
   45.1190   30.2420   48.3060 C   0  0  0  0  0  0  0  0  0  0  0  0
   45.6150   29.2500   48.4030 H   0  0  0  0  0  0  0  0  0  0  0  0
  1  7  1  0  0  0  0
  1  6  1  0  0  0  0
  2  1  2  0  0  0  0
  3  2  1  0  0  0  0
  3  4  2  0  0  0  0
  4  5  1  0  0  0  0
  5  6  2  0  0  0  0
  5 10  1  0  0  0  0
  8  2  1  0  0  0  0
  9  3  1  0  0  0  0
 10 12  1  0  0  0  0
 12 13  1  0  0  0  0
 12 11  2  1  0  0  0
 13 14  1  0  0  0  0
 15 12  1  0  0  0  0
 15 16  1  0  0  0  0
 16 17  1  0  0  0  0
M  END
>  <minimizedAffinity>
-4.21853209

>  <minimizedRMSD>
0.216727898

$$$$
