
     RDKit          3D

 22 22  0  0  0  0  0  0  0  0999 V2000
   47.1659   33.9806   42.4693 C   0  0  0  0  0  0  0  0  0  0  0  0
   45.2970   34.2224   45.6962 C   0  0  0  0  0  0  0  0  0  0  0  0
   46.1609   33.7510   44.7073 C   0  0  0  0  0  0  0  0  0  0  0  0
   46.2644   34.4533   43.5276 C   0  0  0  0  0  0  0  0  0  0  0  0
   45.5088   35.5984   43.3678 N   0  0  0  0  0  0  0  0  0  0  0  0
   44.6848   36.0240   44.3449 C   0  0  0  0  0  0  0  0  0  0  0  0
   44.5758   35.3510   45.4939 N   0  0  0  0  0  0  0  0  0  0  0  0
   48.3114   33.4237   43.0137 O   0  0  0  0  0  0  0  0  0  0  0  0
   50.6594   33.1138   41.9113 O   0  0  0  0  0  0  0  0  0  0  0  0
   49.6247   34.1404   42.2290 P   0  0  2  0  0  0  0  0  0  0  0  0
   50.2042   35.3628   43.2443 O   0  0  0  0  0  0  0  0  0  0  0  0
   49.0636   34.8045   40.7817 O   0  0  0  0  0  0  0  0  0  0  0  0
   46.6120   33.2490   41.8442 H   0  0  0  0  0  0  0  0  0  0  0  0
   47.3790   34.8419   41.7912 H   0  0  0  0  0  0  0  0  0  0  0  0
   45.2788   33.6074   46.5911 H   0  0  0  0  0  0  0  0  0  0  0  0
   46.7581   32.8598   44.8146 H   0  0  0  0  0  0  0  0  0  0  0  0
   44.0895   36.9388   44.2018 H   0  0  0  0  0  0  0  0  0  0  0  0
   50.8603   35.0455   43.8923 H   0  0  0  0  0  0  0  0  0  0  0  0
   49.8313   35.8975   40.3778 C   0  0  0  0  0  0  0  0  0  0  0  0
   50.7229   35.4969   39.8772 H   0  0  0  0  0  0  0  0  0  0  0  0
   49.2166   36.5268   39.6830 H   0  0  0  0  0  0  0  0  0  0  0  0
   50.0649   36.4724   41.3018 H   0  0  0  0  0  0  0  0  0  0  0  0
  1  8  1  0
  1  4  1  0
  3  2  2  0
  4  3  1  0
  5  4  2  0
  5  6  1  0
  6  7  2  0
  7  2  1  0
  9 10  2  0
 10  8  1  1
 10 11  1  0
 12 10  1  0
  1 13  1  0
  1 14  1  0
  2 15  1  0
  3 16  1  0
  6 17  1  0
 11 18  1  0
 19 20  1  0
 19 21  1  0
 19 22  1  0
 12 19  1  0
M  ISO  7  13   8  14   8  15  14  16  14  17  14  18   3  20   8
M  END
>  <DihAtoms>  (1) 
9,11,18,19

>  <DihDeg>  (1) 
-23.55322003757583

$$$$
