REMARK  Name = 
REMARK  4 active torsions:
REMARK  status: ('A' for Active; 'I' for Inactive)
REMARK    1  A    between atoms: C_2  and  C_14
REMARK    2  A    between atoms: C_3  and  S_16
REMARK    3  A    between atoms: S_16  and  C_18
REMARK    4  A    between atoms: C_22  and  C_37
REMARK                            x       y       z     vdW  Elec       q    Type
REMARK                         _______ _______ _______ _____ _____    ______ ____
ROOT
ATOM      1  C   UNL     1      47.544  32.674  44.268  0.00  0.00    +0.000 A 
ATOM      2  C   UNL     1      46.842  33.644  43.555  0.00  0.00    +0.000 A 
ATOM      3  C   UNL     1      45.778  34.364  44.098  0.00  0.00    +0.000 A 
ATOM      4  C   UNL     1      45.390  34.112  45.410  0.00  0.00    +0.000 A 
ATOM      5  N   UNL     1      44.446  34.588  46.245  0.00  0.00    +0.000 N 
ATOM      6  C   UNL     1      44.525  33.963  47.440  0.00  0.00    +0.000 A 
ATOM      7  N   UNL     1      45.537  33.093  47.324  0.00  0.00    +0.000 NA
ATOM      8  C   UNL     1      46.084  33.158  46.102  0.00  0.00    +0.000 A 
ATOM      9  C   UNL     1      47.146  32.424  45.595  0.00  0.00    +0.000 A 
ATOM     10  H   UNL     1      48.365  32.134  43.815  0.00  0.00    +0.000 HD
ATOM     11  H   UNL     1      43.748  35.337  46.000  0.00  0.00    +0.000 HD
ATOM     12  H   UNL     1      43.932  34.091  48.333  0.00  0.00    +0.000 HD
ATOM     13  H   UNL     1      47.682  31.676  46.156  0.00  0.00    +0.000 HD
ENDROOT
BRANCH   2  18
ATOM     14  C   UNL     1      47.075  33.433  39.910  0.00  0.00    +0.000 A 
ATOM     15  C   UNL     1      47.976  34.440  39.583  0.00  0.00    +0.000 A 
ATOM     16  C   UNL     1      48.499  35.189  40.629  0.00  0.00    +0.000 A 
ATOM     17  N   UNL     1      48.121  34.920  41.926  0.00  0.00    +0.000 NA
ATOM     18  C   UNL     1      47.238  33.922  42.174  0.00  0.00    +0.000 A 
ATOM     19  N   UNL     1      46.691  33.154  41.192  0.00  0.00    +0.000 NA
ATOM     20  H   UNL     1      46.622  32.803  39.147  0.00  0.00    +0.000 HD
ATOM     21  H   UNL     1      48.238  34.609  38.552  0.00  0.00    +0.000 HD
ATOM     22  H   UNL     1      49.204  35.983  40.425  0.00  0.00    +0.000 HD
ENDBRANCH   2  18
BRANCH   3  23
ATOM     23  S   UNL     1      44.904  35.591  43.169  0.00  0.00    +0.000 S 
BRANCH  23  25
ATOM     24  N   UNL     1      42.325  35.614  42.693  0.00  0.00    +0.000 NA
ATOM     25  C   UNL     1      43.519  34.947  42.214  0.00  0.00    +0.000 C 
ATOM     26  C   UNL     1      43.801  35.296  40.757  0.00  0.00    +0.000 C 
ATOM     27  O   UNL     1      42.673  35.288  39.960  0.00  0.00    +0.000 OA
ATOM     28  C   UNL     1      41.545  34.766  40.536  0.00  0.00    +0.000 C 
ATOM     29  C   UNL     1      41.224  35.551  41.787  0.00  0.00    +0.000 C 
ATOM     30  H   UNL     1      42.133  35.225  43.644  0.00  0.00    +0.000 HD
ATOM     31  H   UNL     1      43.444  33.838  42.339  0.00  0.00    +0.000 HD
ATOM     32  H   UNL     1      44.461  34.562  40.306  0.00  0.00    +0.000 HD
ATOM     33  H   UNL     1      44.270  36.303  40.740  0.00  0.00    +0.000 HD
ATOM     34  H   UNL     1      41.764  33.726  40.851  0.00  0.00    +0.000 HD
ATOM     35  H   UNL     1      40.725  34.829  39.829  0.00  0.00    +0.000 HD
ATOM     36  H   UNL     1      41.023  36.592  41.446  0.00  0.00    +0.000 HD
BRANCH  29  37
ATOM     37  C   UNL     1      39.968  35.083  42.459  0.00  0.00    +0.000 C 
ATOM     38  H   UNL     1      39.835  33.993  42.211  0.00  0.00    +0.000 HD
ENDBRANCH  29  37
ENDBRANCH  23  25
ENDBRANCH   3  23
TORSDOF 4
