
     RDKit          3D

 40 43  0  0  0  0  0  0  0  0999 V2000
   47.5442   32.6739   44.2684 C   0  0  0  0  0  0  0  0  0  0  0  0
   46.8424   33.6443   43.5546 C   0  0  0  0  0  0  0  0  0  0  0  0
   45.7782   34.3642   44.0978 C   0  0  0  0  0  0  0  0  0  0  0  0
   45.3901   34.1116   45.4105 C   0  0  0  0  0  0  0  0  0  0  0  0
   44.4455   34.5878   46.2447 N   0  0  0  0  0  0  0  0  0  0  0  0
   44.5248   33.9627   47.4404 C   0  0  0  0  0  0  0  0  0  0  0  0
   45.5366   33.0932   47.3241 N   0  0  0  0  0  0  0  0  0  0  0  0
   46.0845   33.1583   46.1018 C   0  0  0  0  0  0  0  0  0  0  0  0
   47.1462   32.4240   45.5946 C   0  0  0  0  0  0  0  0  0  0  0  0
   47.0755   33.4331   39.9097 C   0  0  0  0  0  0  0  0  0  0  0  0
   47.9761   34.4402   39.5834 C   0  0  0  0  0  0  0  0  0  0  0  0
   48.4994   35.1889   40.6285 C   0  0  0  0  0  0  0  0  0  0  0  0
   48.1214   34.9200   41.9258 N   0  0  0  0  0  0  0  0  0  0  0  0
   47.2376   33.9221   42.1738 C   0  0  0  0  0  0  0  0  0  0  0  0
   46.6908   33.1544   41.1924 N   0  0  0  0  0  0  0  0  0  0  0  0
   44.9044   35.5909   43.1691 S   0  0  0  0  0  0  0  0  0  0  0  0
   42.3248   35.6140   42.6927 N   0  0  0  0  0  0  0  0  0  0  0  0
   43.5187   34.9471   42.2138 C   0  0  1  0  0  0  0  0  0  0  0  0
   43.8009   35.2956   40.7572 C   0  0  0  0  0  0  0  0  0  0  0  0
   42.6727   35.2884   39.9598 O   0  0  0  0  0  0  0  0  0  0  0  0
   41.5446   34.7663   40.5365 C   0  0  0  0  0  0  0  0  0  0  0  0
   41.2245   35.5509   41.7872 C   0  0  1  0  0  0  0  0  0  0  0  0
   48.3655   32.1342   43.8149 H   0  0  0  0  0  0  0  0  0  0  0  0
   43.7485   35.3371   45.9997 H   0  0  0  0  0  0  0  0  0  0  0  0
   43.9321   34.0910   48.3328 H   0  0  0  0  0  0  0  0  0  0  0  0
   47.6821   31.6756   46.1558 H   0  0  0  0  0  0  0  0  0  0  0  0
   46.6219   32.8031   39.1473 H   0  0  0  0  0  0  0  0  0  0  0  0
   48.2379   34.6089   38.5522 H   0  0  0  0  0  0  0  0  0  0  0  0
   49.2036   35.9833   40.4253 H   0  0  0  0  0  0  0  0  0  0  0  0
   42.1332   35.2253   43.6442 H   0  0  0  0  0  0  0  0  0  0  0  0
   43.4439   33.8379   42.3391 H   0  0  0  0  0  0  0  0  0  0  0  0
   44.4606   34.5617   40.3061 H   0  0  0  0  0  0  0  0  0  0  0  0
   44.2696   36.3034   40.7398 H   0  0  0  0  0  0  0  0  0  0  0  0
   41.7643   33.7261   40.8509 H   0  0  0  0  0  0  0  0  0  0  0  0
   40.7254   34.8288   39.8286 H   0  0  0  0  0  0  0  0  0  0  0  0
   41.0226   36.5924   41.4455 H   0  0  0  0  0  0  0  0  0  0  0  0
   39.9676   35.0831   42.4589 C   0  0  0  0  0  0  0  0  0  0  0  0
   39.8336   35.6955   43.3939 H   0  0  0  0  0  0  0  0  0  0  0  0
   40.1473   34.0355   42.7865 H   0  0  0  0  0  0  0  0  0  0  0  0
   39.0630   35.1688   41.8170 H   0  0  0  0  0  0  0  0  0  0  0  0
  1  9  2  0
  2  3  2  0
  2  1  1  0
  3  4  1  0
  4  8  2  0
  4  5  1  0
  5  6  1  0
  7  6  2  0
  8  7  1  0
  9  8  1  0
 10 15  2  0
 11 10  1  0
 11 12  2  0
 12 13  1  0
 13 14  2  0
 14  2  1  0
 15 14  1  0
 16  3  1  0
 18 17  1  0
 18 16  1  0
 19 18  1  0
 20 21  1  0
 20 19  1  0
 21 22  1  0
 22 17  1  0
  1 23  1  0
  5 24  1  0
  6 25  1  0
  9 26  1  0
 10 27  1  0
 11 28  1  0
 12 29  1  0
 17 30  1  0
 18 31  1  6
 19 32  1  0
 19 33  1  0
 21 34  1  0
 21 35  1  0
 22 36  1  6
 37 38  1  0
 37 39  1  0
 37 40  1  0
 22 37  1  0
M  ISO  8  23  14  24   9  25  14  26  14  27  14  28  14  29  14  30   5
M  ISO  7  31  13  32  13  33  13  34  13  35  13  36  13  38   8
M  END
>  <DihAtoms>  (1) 
20,21,36,37

>  <DihDeg>  (1) 
-62.096150055725566

$$$$
