
 OpenBabel03252506313D

 25 26  0  0  1  0  0  0  0  0999 V2000
   44.4840   35.7390   44.9880 C   0  0  0  0  0  0  0  0  0  0  0  0
   45.1060   35.7290   43.7430 C   0  0  0  0  0  0  0  0  0  0  0  0
   46.0160   34.7310   43.4950 C   0  0  0  0  0  0  0  0  0  0  0  0
   46.2520   33.8200   44.4720 N   0  0  0  0  0  0  0  0  0  0  0  0
   45.6410   33.8570   45.6520 C   0  0  0  0  0  0  0  0  0  0  0  0
   44.7400   34.8230   45.9340 N   0  0  0  0  0  0  0  0  0  0  0  0
   45.9440   32.8610   46.6190 N   0  0  0  0  0  0  0  0  0  0  0  0
   45.1510   32.5670   47.8100 C   0  0  0  0  0  0  0  0  0  0  0  0
   46.2360   32.2610   48.8160 C   0  0  0  0  0  0  0  0  0  0  0  0
   47.5220   32.0610   48.0460 C   0  0  0  0  0  0  0  0  0  0  0  0
   47.0720   31.9540   46.6270 C   0  0  1  0  0  0  0  0  0  0  0  0
   43.7630   36.4860   45.2590 H   0  0  0  0  0  0  0  0  0  0  0  0
   46.4850   34.7450   42.5230 H   0  0  0  0  0  0  0  0  0  0  0  0
   44.4700   31.6960   47.6480 H   0  0  0  0  0  0  0  0  0  0  0  0
   44.5740   33.4810   48.0980 H   0  0  0  0  0  0  0  0  0  0  0  0
   46.3630   33.1360   49.4800 H   0  0  0  0  0  0  0  0  0  0  0  0
   45.9830   31.3820   49.4440 H   0  0  0  0  0  0  0  0  0  0  0  0
   48.2730   32.8400   48.2410 H   0  0  0  0  0  0  0  0  0  0  0  0
   47.9310   31.0570   48.3290 H   0  0  0  0  0  0  0  0  0  0  0  0
   47.8690   32.4440   45.9980 H   0  0  0  0  0  0  0  0  0  0  0  0
   44.7150   36.7780   42.8490 N   0  0  0  0  0  0  0  0  0  0  0  0
   44.4550   37.7010   43.2060 H   0  0  0  0  0  0  0  0  0  0  0  0
   44.7450   36.4400   41.8500 H   0  0  0  0  0  0  0  0  0  0  0  0
   46.7390   30.5700   46.1750 C   0  0  0  0  0  0  0  0  0  0  0  0
   45.7340   30.4820   45.7300 H   0  0  0  0  0  0  0  0  0  0  0  0
  1 12  1  0  0  0  0
  1  6  1  0  0  0  0
  2  1  2  0  0  0  0
  3  2  1  0  0  0  0
  3  4  2  0  0  0  0
  4  5  1  0  0  0  0
  5  6  2  0  0  0  0
  5  7  1  0  0  0  0
  7 11  1  0  0  0  0
  7  8  1  0  0  0  0
  8 15  1  0  0  0  0
  8  9  1  0  0  0  0
  9 17  1  0  0  0  0
  9 16  1  0  0  0  0
 10 18  1  0  0  0  0
 10 19  1  0  0  0  0
 10  9  1  0  0  0  0
 11 20  1  6  0  0  0
 11 10  1  0  0  0  0
 13  3  1  0  0  0  0
 14  8  1  0  0  0  0
 21 22  1  0  0  0  0
 21  2  1  0  0  0  0
 23 21  1  0  0  0  0
 24 11  1  0  0  0  0
 25 24  1  0  0  0  0
M  END
>  <minimizedAffinity>
-5.03875637

>  <minimizedRMSD>
0.0289270822

$$$$
