
 OpenBabel03252509333D

 33 34  0  0  1  0  0  0  0  0999 V2000
   34.9920   29.2110   39.5270 O   0  0  0  0  0  0  0  0  0  0  0  0
   35.9610   29.5480   40.6240 P   0  0  2  0  0  0  0  0  0  0  0  0
   35.5510   30.9450   41.4570 O   0  0  0  0  0  0  0  0  0  0  0  0
   35.1120   30.7920   42.3200 H   0  0  0  0  0  0  0  0  0  0  0  0
   37.4960   29.8400   39.9580 O   0  0  0  0  0  0  0  0  0  0  0  0
   37.3730   30.8220   39.0230 C   0  0  0  0  0  0  0  0  0  0  0  0
   36.3250   31.2310   39.1400 H   0  0  0  0  0  0  0  0  0  0  0  0
   37.4600   30.5670   37.9790 H   0  0  0  0  0  0  0  0  0  0  0  0
   38.5550   34.1610   40.1680 C   0  0  0  0  0  0  0  0  0  0  0  0
   37.7080   33.0690   39.9240 C   0  0  0  0  0  0  0  0  0  0  0  0
   38.2550   31.9710   39.2830 C   0  0  0  0  0  0  0  0  0  0  0  0
   39.5700   32.0070   38.9300 N   0  0  0  0  0  0  0  0  0  0  0  0
   40.3610   33.0660   39.1760 C   0  0  0  0  0  0  0  0  0  0  0  0
   39.8480   34.1320   39.7920 N   0  0  0  0  0  0  0  0  0  0  0  0
   38.0830   34.9990   40.6720 H   0  0  0  0  0  0  0  0  0  0  0  0
   36.6690   33.1060   40.2320 H   0  0  0  0  0  0  0  0  0  0  0  0
   41.4000   33.0570   38.8810 H   0  0  0  0  0  0  0  0  0  0  0  0
   36.1040   28.2230   41.6550 O   0  0  0  0  0  0  0  0  0  0  0  0
   37.4470   28.0610   41.9980 C   0  0  1  0  0  0  0  0  0  0  0  0
   37.6830   28.0160   43.4840 C   0  0  0  0  0  0  0  0  0  0  0  0
   39.1070   27.4890   43.5370 C   0  0  0  0  0  0  0  0  0  0  0  0
   39.2870   26.6470   42.3020 C   0  0  0  0  0  0  0  0  0  0  0  0
   37.9250   26.6620   41.6030 C   0  0  1  0  0  0  0  0  0  0  0  0
   38.1210   28.7600   41.5050 H   0  0  0  0  0  0  0  0  0  0  0  0
   37.6520   29.0700   43.8460 H   0  0  0  0  0  0  0  0  0  0  0  0
   36.9720   27.3740   43.9990 H   0  0  0  0  0  0  0  0  0  0  0  0
   39.8540   28.3160   43.5900 H   0  0  0  0  0  0  0  0  0  0  0  0
   39.1770   26.8320   44.4280 H   0  0  0  0  0  0  0  0  0  0  0  0
   39.9850   27.1810   41.6230 H   0  0  0  0  0  0  0  0  0  0  0  0
   39.5920   25.6020   42.5120 H   0  0  0  0  0  0  0  0  0  0  0  0
   38.0490   26.7020   40.5050 H   0  0  0  0  0  0  0  0  0  0  0  0
   37.0200   25.5710   42.0850 C   0  0  0  0  0  2  0  0  0  0  0  0
   37.5380   24.8840   42.7860 H   0  0  0  0  0  0  0  0  0  0  0  0
  2  1  2  6  0  0  0
  2  3  1  0  0  0  0
  2 18  1  0  0  0  0
  3  4  1  0  0  0  0
  5  2  1  0  0  0  0
  6  7  1  0  0  0  0
  6 11  1  0  0  0  0
  6  5  1  0  0  0  0
  8  6  1  0  0  0  0
  9 15  1  0  0  0  0
 10  9  1  0  0  0  0
 10 16  1  0  0  0  0
 11 10  2  0  0  0  0
 12 13  2  0  0  0  0
 12 11  1  0  0  0  0
 13 14  1  0  0  0  0
 14  9  2  0  0  0  0
 17 13  1  0  0  0  0
 18 19  1  0  0  0  0
 19 24  1  6  0  0  0
 19 20  1  0  0  0  0
 20 21  1  0  0  0  0
 20 25  1  0  0  0  0
 20 26  1  0  0  0  0
 21 27  1  0  0  0  0
 21 28  1  0  0  0  0
 22 30  1  0  0  0  0
 22 21  1  0  0  0  0
 23 31  1  6  0  0  0
 23 19  1  0  0  0  0
 23 32  1  0  0  0  0
 23 22  1  0  0  0  0
 29 22  1  0  0  0  0
 32 33  1  0  0  0  0
M  END
>  <minimizedAffinity>
-5.16471529

$$$$

 OpenBabel03252509333D

 33 34  0  0  1  0  0  0  0  0999 V2000
   34.9790   29.3080   39.6200 O   0  0  0  0  0  0  0  0  0  0  0  0
   36.1230   30.1450   40.1180 P   0  0  2  0  0  0  0  0  0  0  0  0
   35.6850   31.1850   41.3600 O   0  0  0  0  0  0  0  0  0  0  0  0
   35.9310   30.8760   42.2570 H   0  0  0  0  0  0  0  0  0  0  0  0
   36.6900   31.1380   38.8620 O   0  0  0  0  0  0  0  0  0  0  0  0
   37.0120   32.3500   39.3920 C   0  0  0  0  0  0  0  0  0  0  0  0
   36.7450   32.2890   40.4890 H   0  0  0  0  0  0  0  0  0  0  0  0
   36.5100   33.2320   39.0300 H   0  0  0  0  0  0  0  0  0  0  0  0
   40.3500   33.7230   40.3030 C   0  0  0  0  0  0  0  0  0  0  0  0
   38.9690   33.4770   40.3280 C   0  0  0  0  0  0  0  0  0  0  0  0
   38.4600   32.6140   39.3730 C   0  0  0  0  0  0  0  0  0  0  0  0
   39.3160   32.0560   38.4720 N   0  0  0  0  0  0  0  0  0  0  0  0
   40.6370   32.3080   38.4700 C   0  0  0  0  0  0  0  0  0  0  0  0
   41.1420   33.1380   39.3840 N   0  0  0  0  0  0  0  0  0  0  0  0
   40.7040   34.4060   41.0700 H   0  0  0  0  0  0  0  0  0  0  0  0
   38.3440   33.9540   41.0740 H   0  0  0  0  0  0  0  0  0  0  0  0
   41.2840   31.8460   37.7390 H   0  0  0  0  0  0  0  0  0  0  0  0
   37.3910   29.1300   40.5690 O   0  0  0  0  0  0  0  0  0  0  0  0
   36.8800   28.0820   41.3360 C   0  0  1  0  0  0  0  0  0  0  0  0
   37.6750   26.8100   41.2140 C   0  0  0  0  0  0  0  0  0  0  0  0
   37.1240   26.0100   42.3820 C   0  0  0  0  0  0  0  0  0  0  0  0
   36.6890   27.0190   43.4120 C   0  0  0  0  0  0  0  0  0  0  0  0
   37.0670   28.3810   42.8250 C   0  0  1  0  0  0  0  0  0  0  0  0
   35.8140   27.9050   41.1960 H   0  0  0  0  0  0  0  0  0  0  0  0
   37.3760   26.3350   40.2510 H   0  0  0  0  0  0  0  0  0  0  0  0
   38.7460   26.9810   41.2830 H   0  0  0  0  0  0  0  0  0  0  0  0
   36.2850   25.3450   42.0710 H   0  0  0  0  0  0  0  0  0  0  0  0
   37.9670   25.4200   42.7980 H   0  0  0  0  0  0  0  0  0  0  0  0
   35.5790   27.0030   43.4570 H   0  0  0  0  0  0  0  0  0  0  0  0
   37.1700   26.8870   44.4010 H   0  0  0  0  0  0  0  0  0  0  0  0
   36.2980   29.1380   43.0630 H   0  0  0  0  0  0  0  0  0  0  0  0
   38.4650   28.7880   43.1730 C   0  0  0  0  0  2  0  0  0  0  0  0
   38.9380   28.0770   43.8810 H   0  0  0  0  0  0  0  0  0  0  0  0
  2  1  2  6  0  0  0
  2 18  1  0  0  0  0
  2  3  1  0  0  0  0
  3  4  1  0  0  0  0
  5  6  1  0  0  0  0
  5  2  1  0  0  0  0
  6  7  1  0  0  0  0
  8  6  1  0  0  0  0
  9 10  1  0  0  0  0
  9 15  1  0  0  0  0
 10 16  1  0  0  0  0
 11  6  1  0  0  0  0
 11 10  2  0  0  0  0
 12 11  1  0  0  0  0
 13 12  2  0  0  0  0
 13 14  1  0  0  0  0
 14  9  2  0  0  0  0
 17 13  1  0  0  0  0
 18 19  1  0  0  0  0
 19 24  1  6  0  0  0
 19 23  1  0  0  0  0
 20 26  1  0  0  0  0
 20 19  1  0  0  0  0
 20 21  1  0  0  0  0
 21 28  1  0  0  0  0
 21 22  1  0  0  0  0
 22 29  1  0  0  0  0
 22 30  1  0  0  0  0
 23 31  1  1  0  0  0
 23 32  1  0  0  0  0
 23 22  1  0  0  0  0
 25 20  1  0  0  0  0
 27 21  1  0  0  0  0
 32 33  1  0  0  0  0
M  END
>  <minimizedAffinity>
-5.00154924

$$$$

 OpenBabel03252509333D

 33 34  0  0  1  0  0  0  0  0999 V2000
   37.5280   29.6100   39.8770 O   0  0  0  0  0  0  0  0  0  0  0  0
   37.3420   30.5280   41.0510 P   0  0  2  0  0  0  0  0  0  0  0  0
   35.9350   31.4350   40.9600 O   0  0  0  0  0  0  0  0  0  0  0  0
   35.1950   31.0970   41.5080 H   0  0  0  0  0  0  0  0  0  0  0  0
   38.6150   31.6520   41.1020 O   0  0  0  0  0  0  0  0  0  0  0  0
   38.3670   32.6160   40.1730 C   0  0  0  0  0  0  0  0  0  0  0  0
   38.2530   33.5810   40.7520 H   0  0  0  0  0  0  0  0  0  0  0  0
   37.4780   32.5460   39.5680 H   0  0  0  0  0  0  0  0  0  0  0  0
   41.4550   34.1070   38.7250 C   0  0  0  0  0  0  0  0  0  0  0  0
   40.3680   33.8900   39.5860 C   0  0  0  0  0  0  0  0  0  0  0  0
   39.5090   32.8510   39.2750 C   0  0  0  0  0  0  0  0  0  0  0  0
   39.7620   32.1020   38.1650 N   0  0  0  0  0  0  0  0  0  0  0  0
   40.8100   32.3310   37.3570 C   0  0  0  0  0  0  0  0  0  0  0  0
   41.6470   33.3290   37.6430 N   0  0  0  0  0  0  0  0  0  0  0  0
   42.1010   34.9330   39.0080 H   0  0  0  0  0  0  0  0  0  0  0  0
   40.2260   34.5240   40.4540 H   0  0  0  0  0  0  0  0  0  0  0  0
   40.9780   31.7150   36.4850 H   0  0  0  0  0  0  0  0  0  0  0  0
   37.4140   29.6220   42.4710 O   0  0  0  0  0  0  0  0  0  0  0  0
   37.9970   28.3860   42.1890 C   0  0  1  0  0  0  0  0  0  0  0  0
   39.0310   27.9690   43.2010 C   0  0  0  0  0  0  0  0  0  0  0  0
   39.2070   26.5010   42.8480 C   0  0  0  0  0  0  0  0  0  0  0  0
   37.8920   26.0500   42.2700 C   0  0  0  0  0  0  0  0  0  0  0  0
   36.9690   27.2670   42.3700 C   0  0  1  0  0  0  0  0  0  0  0  0
   38.3710   28.2910   41.1710 H   0  0  0  0  0  0  0  0  0  0  0  0
   39.9610   28.5330   42.9620 H   0  0  0  0  0  0  0  0  0  0  0  0
   38.6970   28.1230   44.2240 H   0  0  0  0  0  0  0  0  0  0  0  0
   40.0500   26.3440   42.1360 H   0  0  0  0  0  0  0  0  0  0  0  0
   39.3820   25.9580   43.7990 H   0  0  0  0  0  0  0  0  0  0  0  0
   38.0410   25.8670   41.1840 H   0  0  0  0  0  0  0  0  0  0  0  0
   37.4400   25.1890   42.8020 H   0  0  0  0  0  0  0  0  0  0  0  0
   36.3140   27.3360   41.4830 H   0  0  0  0  0  0  0  0  0  0  0  0
   36.2470   27.3350   43.6800 C   0  0  0  0  0  2  0  0  0  0  0  0
   36.4320   26.4340   44.3000 H   0  0  0  0  0  0  0  0  0  0  0  0
  2  1  2  6  0  0  0
  2  5  1  0  0  0  0
  2 18  1  0  0  0  0
  3  2  1  0  0  0  0
  3  4  1  0  0  0  0
  6  7  1  0  0  0  0
  6  5  1  0  0  0  0
  8  6  1  0  0  0  0
  9 15  1  0  0  0  0
  9 10  1  0  0  0  0
 10 16  1  0  0  0  0
 11 10  2  0  0  0  0
 11  6  1  0  0  0  0
 12 11  1  0  0  0  0
 13 14  1  0  0  0  0
 13 12  2  0  0  0  0
 14  9  2  0  0  0  0
 17 13  1  0  0  0  0
 19 24  1  6  0  0  0
 19 23  1  0  0  0  0
 19 18  1  0  0  0  0
 19 20  1  0  0  0  0
 20 26  1  0  0  0  0
 21 20  1  0  0  0  0
 21 28  1  0  0  0  0
 22 23  1  0  0  0  0
 22 30  1  0  0  0  0
 22 21  1  0  0  0  0
 23 31  1  6  0  0  0
 23 32  1  0  0  0  0
 25 20  1  0  0  0  0
 27 21  1  0  0  0  0
 29 22  1  0  0  0  0
 32 33  1  0  0  0  0
M  END
>  <minimizedAffinity>
-4.99238729

$$$$

 OpenBabel03252509333D

 33 34  0  0  1  0  0  0  0  0999 V2000
   36.7100   30.9680   38.9380 O   0  0  0  0  0  0  0  0  0  0  0  0
   37.0450   31.0480   40.4000 P   0  0  2  0  0  0  0  0  0  0  0  0
   35.6880   31.1480   41.3810 O   0  0  0  0  0  0  0  0  0  0  0  0
   35.4300   30.3030   41.8080 H   0  0  0  0  0  0  0  0  0  0  0  0
   37.9380   32.4610   40.7030 O   0  0  0  0  0  0  0  0  0  0  0  0
   39.1390   32.0980   41.2330 C   0  0  0  0  0  0  0  0  0  0  0  0
   39.2470   30.9930   41.0240 H   0  0  0  0  0  0  0  0  0  0  0  0
   39.2970   32.2010   42.2940 H   0  0  0  0  0  0  0  0  0  0  0  0
   41.2660   33.5160   38.5270 C   0  0  0  0  0  0  0  0  0  0  0  0
   40.1750   32.9190   39.1770 C   0  0  0  0  0  0  0  0  0  0  0  0
   40.2790   32.7240   40.5430 C   0  0  0  0  0  0  0  0  0  0  0  0
   41.4190   33.1180   41.1760 N   0  0  0  0  0  0  0  0  0  0  0  0
   42.4500   33.6880   40.5300 C   0  0  0  0  0  0  0  0  0  0  0  0
   42.3660   33.8830   39.2130 N   0  0  0  0  0  0  0  0  0  0  0  0
   41.1400   33.6490   37.4570 H   0  0  0  0  0  0  0  0  0  0  0  0
   39.2960   32.6290   38.6130 H   0  0  0  0  0  0  0  0  0  0  0  0
   43.3380   33.9880   41.0670 H   0  0  0  0  0  0  0  0  0  0  0  0
   38.0210   29.7380   40.8120 O   0  0  0  0  0  0  0  0  0  0  0  0
   37.3020   28.8830   41.6480 C   0  0  1  0  0  0  0  0  0  0  0  0
   37.4220   27.4330   41.2660 C   0  0  0  0  0  0  0  0  0  0  0  0
   36.8660   26.7580   42.5090 C   0  0  0  0  0  0  0  0  0  0  0  0
   37.1550   27.6890   43.6550 C   0  0  0  0  0  0  0  0  0  0  0  0
   37.9360   28.8540   43.0410 C   0  0  1  0  0  0  0  0  0  0  0  0
   36.2630   29.1750   41.7960 H   0  0  0  0  0  0  0  0  0  0  0  0
   36.7360   27.2690   40.4030 H   0  0  0  0  0  0  0  0  0  0  0  0
   38.4470   27.1440   41.0480 H   0  0  0  0  0  0  0  0  0  0  0  0
   35.7760   26.5430   42.4120 H   0  0  0  0  0  0  0  0  0  0  0  0
   37.4440   25.8220   42.6560 H   0  0  0  0  0  0  0  0  0  0  0  0
   36.1900   28.1170   44.0000 H   0  0  0  0  0  0  0  0  0  0  0  0
   37.7470   27.2270   44.4710 H   0  0  0  0  0  0  0  0  0  0  0  0
   37.6430   29.8120   43.5080 H   0  0  0  0  0  0  0  0  0  0  0  0
   39.4120   28.6040   43.0110 C   0  0  0  0  0  2  0  0  0  0  0  0
   39.6820   27.6650   43.5360 H   0  0  0  0  0  0  0  0  0  0  0  0
  2  1  2  6  0  0  0
  2  5  1  0  0  0  0
  2 18  1  0  0  0  0
  2  3  1  0  0  0  0
  3  4  1  0  0  0  0
  5  6  1  0  0  0  0
  6  8  1  0  0  0  0
  7  6  1  0  0  0  0
  9 10  2  0  0  0  0
  9 14  1  0  0  0  0
 10 11  1  0  0  0  0
 11 12  2  0  0  0  0
 11  6  1  0  0  0  0
 13 17  1  0  0  0  0
 13 12  1  0  0  0  0
 14 13  2  0  0  0  0
 15  9  1  0  0  0  0
 16 10  1  0  0  0  0
 18 19  1  0  0  0  0
 19 24  1  1  0  0  0
 19 23  1  0  0  0  0
 20 19  1  0  0  0  0
 20 21  1  0  0  0  0
 21 28  1  0  0  0  0
 21 22  1  0  0  0  0
 22 29  1  0  0  0  0
 22 30  1  0  0  0  0
 23 31  1  1  0  0  0
 23 22  1  0  0  0  0
 25 20  1  0  0  0  0
 26 20  1  0  0  0  0
 27 21  1  0  0  0  0
 32 23  1  0  0  0  0
 32 33  1  0  0  0  0
M  END
>  <minimizedAffinity>
-4.97600603

$$$$

 OpenBabel03252509333D

 33 34  0  0  1  0  0  0  0  0999 V2000
   34.9450   28.9110   40.1370 O   0  0  0  0  0  0  0  0  0  0  0  0
   36.1030   29.6660   40.7240 P   0  0  2  0  0  0  0  0  0  0  0  0
   35.6500   31.1150   41.4370 O   0  0  0  0  0  0  0  0  0  0  0  0
   35.5800   31.0850   42.4140 H   0  0  0  0  0  0  0  0  0  0  0  0
   37.1970   30.0790   39.4920 O   0  0  0  0  0  0  0  0  0  0  0  0
   37.0410   31.4020   39.2120 C   0  0  0  0  0  0  0  0  0  0  0  0
   36.2050   31.7630   39.8820 H   0  0  0  0  0  0  0  0  0  0  0  0
   36.7510   31.6980   38.2170 H   0  0  0  0  0  0  0  0  0  0  0  0
   40.5740   32.4700   39.7010 C   0  0  0  0  0  0  0  0  0  0  0  0
   39.4650   31.6950   39.3260 C   0  0  0  0  0  0  0  0  0  0  0  0
   38.2100   32.2090   39.6020 C   0  0  0  0  0  0  0  0  0  0  0  0
   38.1180   33.4230   40.2110 N   0  0  0  0  0  0  0  0  0  0  0  0
   39.1960   34.1460   40.5600 C   0  0  0  0  0  0  0  0  0  0  0  0
   40.4130   33.6640   40.3020 N   0  0  0  0  0  0  0  0  0  0  0  0
   41.5370   32.0270   39.4660 H   0  0  0  0  0  0  0  0  0  0  0  0
   39.6090   30.7360   38.8430 H   0  0  0  0  0  0  0  0  0  0  0  0
   39.0830   35.1060   41.0420 H   0  0  0  0  0  0  0  0  0  0  0  0
   36.9190   28.6640   41.8060 O   0  0  0  0  0  0  0  0  0  0  0  0
   38.2910   28.8930   41.6870 C   0  0  1  0  0  0  0  0  0  0  0  0
   38.7910   29.9950   42.5820 C   0  0  0  0  0  0  0  0  0  0  0  0
   40.2930   29.7720   42.5060 C   0  0  0  0  0  0  0  0  0  0  0  0
   40.4840   28.3000   42.2500 C   0  0  0  0  0  0  0  0  0  0  0  0
   39.0730   27.7050   42.2510 C   0  0  1  0  0  0  0  0  0  0  0  0
   38.6350   29.0210   40.6620 H   0  0  0  0  0  0  0  0  0  0  0  0
   38.5230   30.9570   42.0870 H   0  0  0  0  0  0  0  0  0  0  0  0
   38.4010   29.9190   43.5930 H   0  0  0  0  0  0  0  0  0  0  0  0
   40.7660   30.3970   41.7140 H   0  0  0  0  0  0  0  0  0  0  0  0
   40.7080   30.0150   43.5060 H   0  0  0  0  0  0  0  0  0  0  0  0
   40.8650   28.1810   41.2130 H   0  0  0  0  0  0  0  0  0  0  0  0
   41.1100   27.7900   43.0090 H   0  0  0  0  0  0  0  0  0  0  0  0
   38.9810   26.9130   41.4850 H   0  0  0  0  0  0  0  0  0  0  0  0
   38.6230   27.2990   43.6200 C   0  0  0  0  0  2  0  0  0  0  0  0
   39.4330   27.4050   44.3700 H   0  0  0  0  0  0  0  0  0  0  0  0
  2  1  2  6  0  0  0
  2  3  1  0  0  0  0
  2 18  1  0  0  0  0
  3  4  1  0  0  0  0
  5  2  1  0  0  0  0
  6  5  1  0  0  0  0
  6 11  1  0  0  0  0
  6  7  1  0  0  0  0
  8  6  1  0  0  0  0
  9 14  1  0  0  0  0
 10 11  1  0  0  0  0
 10  9  2  0  0  0  0
 11 12  2  0  0  0  0
 12 13  1  0  0  0  0
 13 17  1  0  0  0  0
 14 13  2  0  0  0  0
 15  9  1  0  0  0  0
 16 10  1  0  0  0  0
 19 24  1  6  0  0  0
 19 18  1  0  0  0  0
 19 23  1  0  0  0  0
 19 20  1  0  0  0  0
 20 26  1  0  0  0  0
 21 20  1  0  0  0  0
 21 28  1  0  0  0  0
 22 23  1  0  0  0  0
 22 21  1  0  0  0  0
 22 30  1  0  0  0  0
 23 31  1  6  0  0  0
 23 32  1  0  0  0  0
 25 20  1  0  0  0  0
 27 21  1  0  0  0  0
 29 22  1  0  0  0  0
 32 33  1  0  0  0  0
M  END
>  <minimizedAffinity>
-4.76413774

$$$$

 OpenBabel03252509333D

 33 34  0  0  1  0  0  0  0  0999 V2000
   37.8580   30.1820   40.0830 O   0  0  0  0  0  0  0  0  0  0  0  0
   36.6940   29.7980   40.9510 P   0  0  2  0  0  0  0  0  0  0  0  0
   35.7610   31.1120   41.4190 O   0  0  0  0  0  0  0  0  0  0  0  0
   34.9340   31.2290   40.9040 H   0  0  0  0  0  0  0  0  0  0  0  0
   37.2640   29.1000   42.3910 O   0  0  0  0  0  0  0  0  0  0  0  0
   36.7720   27.8330   42.4720 C   0  0  0  0  0  0  0  0  0  0  0  0
   36.3700   27.5920   41.4430 H   0  0  0  0  0  0  0  0  0  0  0  0
   35.9580   27.6280   43.1470 H   0  0  0  0  0  0  0  0  0  0  0  0
   39.9190   26.2500   43.6770 C   0  0  0  0  0  0  0  0  0  0  0  0
   38.9230   27.2140   43.4540 C   0  0  0  0  0  0  0  0  0  0  0  0
   37.8220   26.8290   42.7100 C   0  0  0  0  0  0  0  0  0  0  0  0
   37.7630   25.5510   42.2400 N   0  0  0  0  0  0  0  0  0  0  0  0
   38.7310   24.6470   42.4680 C   0  0  0  0  0  0  0  0  0  0  0  0
   39.7990   25.0030   43.1830 N   0  0  0  0  0  0  0  0  0  0  0  0
   40.7630   26.5970   44.2650 H   0  0  0  0  0  0  0  0  0  0  0  0
   39.0320   28.2140   43.8580 H   0  0  0  0  0  0  0  0  0  0  0  0
   38.6480   23.6430   42.0790 H   0  0  0  0  0  0  0  0  0  0  0  0
   35.7770   28.6300   40.1540 O   0  0  0  0  0  0  0  0  0  0  0  0
   36.2390   28.5110   38.8430 C   0  0  1  0  0  0  0  0  0  0  0  0
   36.1990   27.0990   38.3220 C   0  0  0  0  0  0  0  0  0  0  0  0
   36.3990   27.3330   36.8330 C   0  0  0  0  0  0  0  0  0  0  0  0
   35.8350   28.6990   36.5450 C   0  0  0  0  0  0  0  0  0  0  0  0
   35.2620   29.1870   37.8780 C   0  0  1  0  0  0  0  0  0  0  0  0
   37.2070   28.9770   38.6660 H   0  0  0  0  0  0  0  0  0  0  0  0
   37.0840   26.5740   38.7480 H   0  0  0  0  0  0  0  0  0  0  0  0
   35.2620   26.5970   38.5510 H   0  0  0  0  0  0  0  0  0  0  0  0
   37.4730   27.2560   36.5420 H   0  0  0  0  0  0  0  0  0  0  0  0
   35.7870   26.5760   36.3010 H   0  0  0  0  0  0  0  0  0  0  0  0
   36.6830   29.3760   36.3110 H   0  0  0  0  0  0  0  0  0  0  0  0
   35.0430   28.7030   35.7700 H   0  0  0  0  0  0  0  0  0  0  0  0
   35.4370   30.2700   38.0070 H   0  0  0  0  0  0  0  0  0  0  0  0
   33.8410   28.7610   38.0830 C   0  0  0  0  0  2  0  0  0  0  0  0
   33.4270   28.2580   37.1850 H   0  0  0  0  0  0  0  0  0  0  0  0
  2  1  2  6  0  0  0
  2  3  1  0  0  0  0
  2  5  1  0  0  0  0
  4  3  1  0  0  0  0
  5  6  1  0  0  0  0
  6 11  1  0  0  0  0
  6  8  1  0  0  0  0
  7  6  1  0  0  0  0
  9 15  1  0  0  0  0
 10  9  1  0  0  0  0
 10 16  1  0  0  0  0
 11 10  2  0  0  0  0
 12 13  2  0  0  0  0
 12 11  1  0  0  0  0
 13 14  1  0  0  0  0
 14  9  2  0  0  0  0
 17 13  1  0  0  0  0
 18  2  1  0  0  0  0
 19 24  1  6  0  0  0
 19 18  1  0  0  0  0
 20 26  1  0  0  0  0
 20 25  1  0  0  0  0
 20 19  1  0  0  0  0
 21 20  1  0  0  0  0
 22 21  1  0  0  0  0
 22 23  1  0  0  0  0
 23 31  1  1  0  0  0
 23 32  1  0  0  0  0
 23 19  1  0  0  0  0
 27 21  1  0  0  0  0
 28 21  1  0  0  0  0
 29 22  1  0  0  0  0
 30 22  1  0  0  0  0
 33 32  1  0  0  0  0
M  END
>  <minimizedAffinity>
-4.68011332

$$$$

 OpenBabel03252509333D

 33 34  0  0  1  0  0  0  0  0999 V2000
   39.0620   28.8510   40.9580 O   0  0  0  0  0  0  0  0  0  0  0  0
   37.8480   29.3530   41.6870 P   0  0  2  0  0  0  0  0  0  0  0  0
   38.1670   29.7830   43.2770 O   0  0  0  0  0  0  0  0  0  0  0  0
   38.2680   30.7460   43.4270 H   0  0  0  0  0  0  0  0  0  0  0  0
   36.6820   28.1200   41.7670 O   0  0  0  0  0  0  0  0  0  0  0  0
   36.8020   27.4990   42.9730 C   0  0  0  0  0  0  0  0  0  0  0  0
   35.8480   26.9090   43.1120 H   0  0  0  0  0  0  0  0  0  0  0  0
   36.8950   28.0980   43.8640 H   0  0  0  0  0  0  0  0  0  0  0  0
   38.6990   24.3700   42.2920 C   0  0  0  0  0  0  0  0  0  0  0  0
   37.6730   25.3270   42.2690 C   0  0  0  0  0  0  0  0  0  0  0  0
   37.8740   26.4900   42.9910 C   0  0  0  0  0  0  0  0  0  0  0  0
   39.0420   26.6440   43.6740 N   0  0  0  0  0  0  0  0  0  0  0  0
   40.0100   25.7120   43.6790 C   0  0  0  0  0  0  0  0  0  0  0  0
   39.8320   24.5840   42.9890 N   0  0  0  0  0  0  0  0  0  0  0  0
   38.4980   23.4740   41.7120 H   0  0  0  0  0  0  0  0  0  0  0  0
   36.7680   25.1410   41.7040 H   0  0  0  0  0  0  0  0  0  0  0  0
   40.9240   25.8700   44.2330 H   0  0  0  0  0  0  0  0  0  0  0  0
   37.1730   30.6280   40.8160 O   0  0  0  0  0  0  0  0  0  0  0  0
   37.6340   30.5700   39.5000 C   0  0  1  0  0  0  0  0  0  0  0  0
   36.5320   30.3970   38.4890 C   0  0  0  0  0  0  0  0  0  0  0  0
   37.2670   30.7240   37.2000 C   0  0  0  0  0  0  0  0  0  0  0  0
   38.3650   31.6840   37.5760 C   0  0  0  0  0  0  0  0  0  0  0  0
   38.1840   31.9330   39.0760 C   0  0  1  0  0  0  0  0  0  0  0  0
   38.4410   29.8560   39.3410 H   0  0  0  0  0  0  0  0  0  0  0  0
   36.2480   29.3200   38.5040 H   0  0  0  0  0  0  0  0  0  0  0  0
   35.6880   31.0570   38.6760 H   0  0  0  0  0  0  0  0  0  0  0  0
   37.6670   29.8080   36.7060 H   0  0  0  0  0  0  0  0  0  0  0  0
   36.5470   31.2490   36.5400 H   0  0  0  0  0  0  0  0  0  0  0  0
   39.3350   31.1520   37.4700 H   0  0  0  0  0  0  0  0  0  0  0  0
   38.3280   32.6450   37.0270 H   0  0  0  0  0  0  0  0  0  0  0  0
   39.1640   32.0150   39.5800 H   0  0  0  0  0  0  0  0  0  0  0  0
   37.2450   33.0630   39.3610 C   0  0  0  0  0  2  0  0  0  0  0  0
   36.9310   33.5840   38.4330 H   0  0  0  0  0  0  0  0  0  0  0  0
  2  1  2  6  0  0  0
  2  5  1  0  0  0  0
  2  3  1  0  0  0  0
  3  4  1  0  0  0  0
  5  6  1  0  0  0  0
  6 11  1  0  0  0  0
  6  7  1  0  0  0  0
  6  8  1  0  0  0  0
  9 14  1  0  0  0  0
 10  9  2  0  0  0  0
 10 11  1  0  0  0  0
 11 12  2  0  0  0  0
 12 13  1  0  0  0  0
 13 17  1  0  0  0  0
 14 13  2  0  0  0  0
 15  9  1  0  0  0  0
 16 10  1  0  0  0  0
 18  2  1  0  0  0  0
 19 24  1  6  0  0  0
 19 18  1  0  0  0  0
 20 25  1  0  0  0  0
 20 26  1  0  0  0  0
 20 19  1  0  0  0  0
 21 22  1  0  0  0  0
 21 20  1  0  0  0  0
 22 23  1  0  0  0  0
 23 32  1  0  0  0  0
 23 19  1  0  0  0  0
 23 31  1  1  0  0  0
 27 21  1  0  0  0  0
 28 21  1  0  0  0  0
 29 22  1  0  0  0  0
 30 22  1  0  0  0  0
 33 32  1  0  0  0  0
M  END
>  <minimizedAffinity>
-4.61282682

$$$$

 OpenBabel03252509333D

 33 34  0  0  1  0  0  0  0  0999 V2000
   35.1390   29.1390   39.9120 O   0  0  0  0  0  0  0  0  0  0  0  0
   36.1940   30.0470   40.4760 P   0  0  2  0  0  0  0  0  0  0  0  0
   35.5930   31.1310   41.6060 O   0  0  0  0  0  0  0  0  0  0  0  0
   35.7550   30.8800   42.5400 H   0  0  0  0  0  0  0  0  0  0  0  0
   36.8540   30.9950   39.2310 O   0  0  0  0  0  0  0  0  0  0  0  0
   37.9970   30.3930   38.8000 C   0  0  0  0  0  0  0  0  0  0  0  0
   38.2590   29.6260   39.5890 H   0  0  0  0  0  0  0  0  0  0  0  0
   38.8890   30.9860   38.6780 H   0  0  0  0  0  0  0  0  0  0  0  0
   36.6470   29.2940   35.5100 C   0  0  0  0  0  0  0  0  0  0  0  0
   36.8290   30.0440   36.6820 C   0  0  0  0  0  0  0  0  0  0  0  0
   37.8000   29.6120   37.5680 C   0  0  0  0  0  0  0  0  0  0  0  0
   38.5210   28.4980   37.2590 N   0  0  0  0  0  0  0  0  0  0  0  0
   38.3270   27.7970   36.1280 C   0  0  0  0  0  0  0  0  0  0  0  0
   37.3940   28.2000   35.2640 N   0  0  0  0  0  0  0  0  0  0  0  0
   35.8750   29.6690   34.8450 H   0  0  0  0  0  0  0  0  0  0  0  0
   36.2210   30.9220   36.8660 H   0  0  0  0  0  0  0  0  0  0  0  0
   38.9190   26.9180   35.9170 H   0  0  0  0  0  0  0  0  0  0  0  0
   37.4430   29.1090   41.1100 O   0  0  0  0  0  0  0  0  0  0  0  0
   37.0130   27.7840   41.1980 C   0  0  1  0  0  0  0  0  0  0  0  0
   37.9010   26.8190   40.4590 C   0  0  0  0  0  0  0  0  0  0  0  0
   37.4140   25.4910   41.0160 C   0  0  0  0  0  0  0  0  0  0  0  0
   36.9060   25.7810   42.4030 C   0  0  0  0  0  0  0  0  0  0  0  0
   37.1800   27.2700   42.6290 C   0  0  1  0  0  0  0  0  0  0  0  0
   35.9640   27.6380   40.9450 H   0  0  0  0  0  0  0  0  0  0  0  0
   37.6370   26.9000   39.3800 H   0  0  0  0  0  0  0  0  0  0  0  0
   38.9570   26.9970   40.6480 H   0  0  0  0  0  0  0  0  0  0  0  0
   36.6260   25.0350   40.3720 H   0  0  0  0  0  0  0  0  0  0  0  0
   38.2990   24.8270   41.0940 H   0  0  0  0  0  0  0  0  0  0  0  0
   35.8000   25.6730   42.3920 H   0  0  0  0  0  0  0  0  0  0  0  0
   37.3970   25.1830   43.1960 H   0  0  0  0  0  0  0  0  0  0  0  0
   36.3560   27.7390   43.1980 H   0  0  0  0  0  0  0  0  0  0  0  0
   38.5440   27.5240   43.1920 C   0  0  0  0  0  2  0  0  0  0  0  0
   39.0700   26.5800   43.4420 H   0  0  0  0  0  0  0  0  0  0  0  0
  2  1  2  6  0  0  0
  2 18  1  0  0  0  0
  2  3  1  0  0  0  0
  3  4  1  0  0  0  0
  5  2  1  0  0  0  0
  6  5  1  0  0  0  0
  6  7  1  0  0  0  0
  8  6  1  0  0  0  0
  9 10  1  0  0  0  0
 10 16  1  0  0  0  0
 10 11  2  0  0  0  0
 11  6  1  0  0  0  0
 12 11  1  0  0  0  0
 13 12  2  0  0  0  0
 14  9  2  0  0  0  0
 14 13  1  0  0  0  0
 15  9  1  0  0  0  0
 17 13  1  0  0  0  0
 18 19  1  0  0  0  0
 19 24  1  6  0  0  0
 19 23  1  0  0  0  0
 20 26  1  0  0  0  0
 20 21  1  0  0  0  0
 20 19  1  0  0  0  0
 21 28  1  0  0  0  0
 21 22  1  0  0  0  0
 22 23  1  0  0  0  0
 22 30  1  0  0  0  0
 23 32  1  0  0  0  0
 23 31  1  1  0  0  0
 25 20  1  0  0  0  0
 27 21  1  0  0  0  0
 29 22  1  0  0  0  0
 32 33  1  0  0  0  0
M  END
>  <minimizedAffinity>
-4.52643299

$$$$

 OpenBabel03252509333D

 33 34  0  0  1  0  0  0  0  0999 V2000
   35.5620   28.5810   41.2280 O   0  0  0  0  0  0  0  0  0  0  0  0
   36.9000   29.0540   41.7180 P   0  0  2  0  0  0  0  0  0  0  0  0
   36.9490   29.2870   43.3790 O   0  0  0  0  0  0  0  0  0  0  0  0
   37.3730   28.5590   43.8810 H   0  0  0  0  0  0  0  0  0  0  0  0
   37.2570   30.5660   41.0290 O   0  0  0  0  0  0  0  0  0  0  0  0
   38.4110   30.4460   40.3170 C   0  0  0  0  0  0  0  0  0  0  0  0
   38.1030   30.1010   39.2850 H   0  0  0  0  0  0  0  0  0  0  0  0
   39.1550   29.7370   40.6390 H   0  0  0  0  0  0  0  0  0  0  0  0
   39.1660   34.0880   40.4660 C   0  0  0  0  0  0  0  0  0  0  0  0
   38.5210   32.8600   40.6810 C   0  0  0  0  0  0  0  0  0  0  0  0
   39.0820   31.7380   40.0970 C   0  0  0  0  0  0  0  0  0  0  0  0
   40.2160   31.8820   39.3560 N   0  0  0  0  0  0  0  0  0  0  0  0
   40.8150   33.0690   39.1660 C   0  0  0  0  0  0  0  0  0  0  0  0
   40.2870   34.1610   39.7220 N   0  0  0  0  0  0  0  0  0  0  0  0
   38.6910   34.9400   40.9420 H   0  0  0  0  0  0  0  0  0  0  0  0
   37.6210   32.8160   41.2820 H   0  0  0  0  0  0  0  0  0  0  0  0
   41.7140   33.1440   38.5720 H   0  0  0  0  0  0  0  0  0  0  0  0
   38.0870   27.9740   41.2020 O   0  0  0  0  0  0  0  0  0  0  0  0
   37.5220   26.7030   41.0870 C   0  0  1  0  0  0  0  0  0  0  0  0
   38.2790   25.7950   40.1570 C   0  0  0  0  0  0  0  0  0  0  0  0
   37.6710   24.4470   40.5070 C   0  0  0  0  0  0  0  0  0  0  0  0
   37.2390   24.5450   41.9460 C   0  0  0  0  0  0  0  0  0  0  0  0
   37.6770   25.9390   42.4040 C   0  0  1  0  0  0  0  0  0  0  0  0
   36.4560   26.7080   40.8650 H   0  0  0  0  0  0  0  0  0  0  0  0
   37.9920   26.0850   39.1200 H   0  0  0  0  0  0  0  0  0  0  0  0
   39.3530   25.8320   40.3220 H   0  0  0  0  0  0  0  0  0  0  0  0
   36.8200   24.1880   39.8340 H   0  0  0  0  0  0  0  0  0  0  0  0
   38.4820   23.6940   40.4300 H   0  0  0  0  0  0  0  0  0  0  0  0
   36.1280   24.5500   41.9700 H   0  0  0  0  0  0  0  0  0  0  0  0
   37.6880   23.7740   42.6040 H   0  0  0  0  0  0  0  0  0  0  0  0
   36.9250   26.3830   43.0820 H   0  0  0  0  0  0  0  0  0  0  0  0
   39.0760   25.9560   42.9340 C   0  0  0  0  0  2  0  0  0  0  0  0
   39.5070   24.9350   42.9980 H   0  0  0  0  0  0  0  0  0  0  0  0
  2  1  2  6  0  0  0
  2  3  1  0  0  0  0
  3  4  1  0  0  0  0
  5  2  1  0  0  0  0
  6  8  1  0  0  0  0
  6  5  1  0  0  0  0
  7  6  1  0  0  0  0
  9 10  1  0  0  0  0
  9 15  1  0  0  0  0
 10 16  1  0  0  0  0
 11  6  1  0  0  0  0
 11 10  2  0  0  0  0
 12 11  1  0  0  0  0
 13 12  2  0  0  0  0
 13 14  1  0  0  0  0
 14  9  2  0  0  0  0
 17 13  1  0  0  0  0
 18  2  1  0  0  0  0
 19 24  1  6  0  0  0
 19 18  1  0  0  0  0
 19 23  1  0  0  0  0
 20 26  1  0  0  0  0
 20 21  1  0  0  0  0
 20 19  1  0  0  0  0
 21 22  1  0  0  0  0
 22 29  1  0  0  0  0
 22 23  1  0  0  0  0
 22 30  1  0  0  0  0
 23 32  1  0  0  0  0
 23 31  1  1  0  0  0
 25 20  1  0  0  0  0
 27 21  1  0  0  0  0
 28 21  1  0  0  0  0
 32 33  1  0  0  0  0
M  END
>  <minimizedAffinity>
-4.43506622

$$$$
