
 OpenBabel03242516123D

 32 34  0  0  0  0  0  0  0  0999 V2000
   37.3890   27.6450   42.3050 C   0  0  0  0  0  0  0  0  0  0  0  0
   38.1010   27.5720   43.6260 C   0  0  0  0  0  0  0  0  0  0  0  0
   36.6270   27.5270   43.5490 C   0  0  0  0  0  0  0  0  0  0  0  0
   38.7220   26.6900   43.8960 H   0  0  0  0  0  0  0  0  0  0  0  0
   38.5760   28.5230   43.9690 H   0  0  0  0  0  0  0  0  0  0  0  0
   36.1620   26.5320   43.8070 H   0  0  0  0  0  0  0  0  0  0  0  0
   36.0900   28.3800   44.0150 H   0  0  0  0  0  0  0  0  0  0  0  0
   37.5170   26.4080   41.4570 C   0  0  0  0  0  0  0  0  0  0  0  0
   36.7760   26.4500   40.1570 C   0  0  0  0  0  0  0  0  0  0  0  0
   37.1370   25.1650   39.4160 C   0  0  0  0  0  0  0  0  0  0  0  0
   36.4450   24.1340   40.0520 O   0  0  0  0  0  0  0  0  0  0  0  0
   37.1360   23.9720   41.2720 C   0  0  0  0  0  0  0  0  0  0  0  0
   36.8950   25.1910   42.1520 C   0  0  0  0  0  0  0  0  0  0  0  0
   38.5910   26.2020   41.2040 H   0  0  0  0  0  0  0  0  0  0  0  0
   35.6940   26.5490   40.2510 H   0  0  0  0  0  0  0  0  0  0  0  0
   37.2570   27.2600   39.5330 H   0  0  0  0  0  0  0  0  0  0  0  0
   38.2260   25.0250   39.4020 H   0  0  0  0  0  0  0  0  0  0  0  0
   36.6830   25.2660   38.4030 H   0  0  0  0  0  0  0  0  0  0  0  0
   38.1970   23.7510   41.1360 H   0  0  0  0  0  0  0  0  0  0  0  0
   36.5680   23.1400   41.7820 H   0  0  0  0  0  0  0  0  0  0  0  0
   35.8250   25.3870   42.2030 H   0  0  0  0  0  0  0  0  0  0  0  0
   37.3790   25.0180   43.1230 H   0  0  0  0  0  0  0  0  0  0  0  0
   36.2320   29.7060   41.5080 C   0  0  0  0  0  0  0  0  0  0  0  0
   37.4000   28.9580   41.5770 C   0  0  0  0  0  0  0  0  0  0  0  0
   38.5820   29.4680   40.9450 C   0  0  0  0  0  0  0  0  0  0  0  0
   38.4700   30.6710   40.3140 N   0  0  0  0  0  0  0  0  0  0  0  0
   37.3180   31.3470   40.2800 C   0  0  0  0  0  0  0  0  0  0  0  0
   36.2030   30.8880   40.8630 N   0  0  0  0  0  0  0  0  0  0  0  0
   35.3470   29.3080   41.9880 H   0  0  0  0  0  0  0  0  0  0  0  0
   39.4380   28.8450   41.0360 H   0  0  0  0  0  0  0  0  0  0  0  0
   37.3040   32.6520   39.5630 C   0  0  0  0  0  2  0  0  0  0  0  0
   36.2420   32.9000   39.2780 H   0  0  0  0  0  0  0  0  0  0  0  0
  1  3  1  0  0  0  0
  1  2  1  0  0  0  0
  2  4  1  0  0  0  0
  2  5  1  0  0  0  0
  3  2  1  0  0  0  0
  3  6  1  0  0  0  0
  3  7  1  0  0  0  0
  8 13  1  0  0  0  0
  8  1  1  0  0  0  0
  9 15  1  0  0  0  0
  9  8  1  0  0  0  0
 10 11  1  0  0  0  0
 10  9  1  0  0  0  0
 11 12  1  0  0  0  0
 12 20  1  0  0  0  0
 12 13  1  0  0  0  0
 13 21  1  0  0  0  0
 13 22  1  0  0  0  0
 14  8  1  0  0  0  0
 16  9  1  0  0  0  0
 17 10  1  0  0  0  0
 18 10  1  0  0  0  0
 19 12  1  0  0  0  0
 23 24  1  0  0  0  0
 23 29  1  0  0  0  0
 24  1  1  0  0  0  0
 25 30  1  0  0  0  0
 25 24  2  0  0  0  0
 26 25  1  0  0  0  0
 27 26  2  0  0  0  0
 27 28  1  0  0  0  0
 28 23  2  0  0  0  0
 31 27  1  0  0  0  0
 32 31  1  0  0  0  0
M  END
>  <minimizedAffinity>
-4.87231779

$$$$

 OpenBabel03242516123D

 32 34  0  0  0  0  0  0  0  0999 V2000
   37.4460   27.6530   42.2780 C   0  0  0  0  0  0  0  0  0  0  0  0
   37.3860   28.2220   43.6670 C   0  0  0  0  0  0  0  0  0  0  0  0
   36.2590   27.4490   43.1100 C   0  0  0  0  0  0  0  0  0  0  0  0
   38.0470   27.8360   44.4740 H   0  0  0  0  0  0  0  0  0  0  0  0
   37.2790   29.3320   43.7280 H   0  0  0  0  0  0  0  0  0  0  0  0
   36.0920   26.4360   43.5770 H   0  0  0  0  0  0  0  0  0  0  0  0
   35.3110   28.0090   42.9640 H   0  0  0  0  0  0  0  0  0  0  0  0
   38.3830   26.4860   42.1200 C   0  0  0  0  0  0  0  0  0  0  0  0
   37.7440   25.1370   42.2440 C   0  0  0  0  0  0  0  0  0  0  0  0
   38.8360   24.1160   41.9330 C   0  0  0  0  0  0  0  0  0  0  0  0
   39.6760   24.0850   43.0470 O   0  0  0  0  0  0  0  0  0  0  0  0
   40.3840   25.3040   42.9640 C   0  0  0  0  0  0  0  0  0  0  0  0
   39.4310   26.4580   43.2390 C   0  0  0  0  0  0  0  0  0  0  0  0
   38.8880   26.5070   41.1180 H   0  0  0  0  0  0  0  0  0  0  0  0
   37.2910   24.9340   43.2150 H   0  0  0  0  0  0  0  0  0  0  0  0
   37.0300   25.0340   41.3750 H   0  0  0  0  0  0  0  0  0  0  0  0
   39.3490   24.3760   40.9980 H   0  0  0  0  0  0  0  0  0  0  0  0
   38.3210   23.1280   41.9050 H   0  0  0  0  0  0  0  0  0  0  0  0
   40.9280   25.4180   42.0230 H   0  0  0  0  0  0  0  0  0  0  0  0
   41.0580   25.2720   43.8690 H   0  0  0  0  0  0  0  0  0  0  0  0
   38.8840   26.2560   44.1600 H   0  0  0  0  0  0  0  0  0  0  0  0
   40.0100   27.3920   43.2420 H   0  0  0  0  0  0  0  0  0  0  0  0
   38.4970   28.8070   40.3340 C   0  0  0  0  0  0  0  0  0  0  0  0
   37.3740   28.6130   41.1260 C   0  0  0  0  0  0  0  0  0  0  0  0
   36.1780   29.3400   40.8150 C   0  0  0  0  0  0  0  0  0  0  0  0
   36.2330   30.1830   39.7450 N   0  0  0  0  0  0  0  0  0  0  0  0
   37.3440   30.3300   39.0180 C   0  0  0  0  0  0  0  0  0  0  0  0
   38.4720   29.6610   39.2920 N   0  0  0  0  0  0  0  0  0  0  0  0
   39.3940   28.2520   40.5810 H   0  0  0  0  0  0  0  0  0  0  0  0
   35.3580   29.1440   41.4620 H   0  0  0  0  0  0  0  0  0  0  0  0
   37.2970   31.2780   37.8700 C   0  0  0  0  0  2  0  0  0  0  0  0
   38.3490   31.5930   37.6140 H   0  0  0  0  0  0  0  0  0  0  0  0
  1  3  1  0  0  0  0
  1  2  1  0  0  0  0
  2  5  1  0  0  0  0
  2  4  1  0  0  0  0
  3  6  1  0  0  0  0
  3  2  1  0  0  0  0
  7  3  1  0  0  0  0
  8  9  1  0  0  0  0
  8  1  1  0  0  0  0
  8 13  1  0  0  0  0
  9 15  1  0  0  0  0
 10  9  1  0  0  0  0
 10 11  1  0  0  0  0
 12 11  1  0  0  0  0
 12 13  1  0  0  0  0
 12 20  1  0  0  0  0
 13 22  1  0  0  0  0
 13 21  1  0  0  0  0
 14  8  1  0  0  0  0
 16  9  1  0  0  0  0
 17 10  1  0  0  0  0
 18 10  1  0  0  0  0
 19 12  1  0  0  0  0
 23 29  1  0  0  0  0
 23 24  1  0  0  0  0
 24  1  1  0  0  0  0
 25 24  2  0  0  0  0
 25 30  1  0  0  0  0
 26 25  1  0  0  0  0
 27 28  1  0  0  0  0
 27 26  2  0  0  0  0
 28 23  2  0  0  0  0
 31 27  1  0  0  0  0
 32 31  1  0  0  0  0
M  END
>  <minimizedAffinity>
-4.59408283

$$$$

 OpenBabel03242516123D

 32 34  0  0  0  0  0  0  0  0999 V2000
   36.1660   29.0820   40.2700 C   0  0  0  0  0  0  0  0  0  0  0  0
   34.7160   29.2850   39.9330 C   0  0  0  0  0  0  0  0  0  0  0  0
   35.5880   28.4510   39.0820 C   0  0  0  0  0  0  0  0  0  0  0  0
   33.9130   28.8630   40.5760 H   0  0  0  0  0  0  0  0  0  0  0  0
   34.4470   30.3040   39.5630 H   0  0  0  0  0  0  0  0  0  0  0  0
   35.3710   27.3440   39.1090 H   0  0  0  0  0  0  0  0  0  0  0  0
   35.7620   28.8240   38.0510 H   0  0  0  0  0  0  0  0  0  0  0  0
   36.4130   28.2020   41.4650 C   0  0  0  0  0  0  0  0  0  0  0  0
   37.2860   28.8000   42.5250 C   0  0  0  0  0  0  0  0  0  0  0  0
   37.3030   27.8010   43.6800 C   0  0  0  0  0  0  0  0  0  0  0  0
   38.1130   26.7400   43.2730 O   0  0  0  0  0  0  0  0  0  0  0  0
   37.3250   26.0660   42.3150 C   0  0  0  0  0  0  0  0  0  0  0  0
   37.1870   26.9370   41.0740 C   0  0  0  0  0  0  0  0  0  0  0  0
   35.4480   27.9250   41.9680 H   0  0  0  0  0  0  0  0  0  0  0  0
   38.3010   29.0330   42.2020 H   0  0  0  0  0  0  0  0  0  0  0  0
   36.7260   29.6840   42.9480 H   0  0  0  0  0  0  0  0  0  0  0  0
   36.2800   27.5010   43.9420 H   0  0  0  0  0  0  0  0  0  0  0  0
   37.8500   28.3100   44.5070 H   0  0  0  0  0  0  0  0  0  0  0  0
   36.3610   25.7380   42.7110 H   0  0  0  0  0  0  0  0  0  0  0  0
   37.9890   25.2140   41.9890 H   0  0  0  0  0  0  0  0  0  0  0  0
   38.1760   27.2740   40.7640 H   0  0  0  0  0  0  0  0  0  0  0  0
   36.6330   26.3710   40.3140 H   0  0  0  0  0  0  0  0  0  0  0  0
   38.2580   30.0900   39.3590 C   0  0  0  0  0  0  0  0  0  0  0  0
   37.0940   30.2500   40.0980 C   0  0  0  0  0  0  0  0  0  0  0  0
   36.8160   31.5340   40.6750 C   0  0  0  0  0  0  0  0  0  0  0  0
   37.7320   32.5180   40.4500 N   0  0  0  0  0  0  0  0  0  0  0  0
   38.8370   32.3050   39.7300 C   0  0  0  0  0  0  0  0  0  0  0  0
   39.1150   31.1140   39.1840 N   0  0  0  0  0  0  0  0  0  0  0  0
   38.4550   29.1150   38.9300 H   0  0  0  0  0  0  0  0  0  0  0  0
   35.9090   31.5860   41.2260 H   0  0  0  0  0  0  0  0  0  0  0  0
   39.7720   33.4490   39.5460 C   0  0  0  0  0  2  0  0  0  0  0  0
   40.7930   33.0470   39.2860 H   0  0  0  0  0  0  0  0  0  0  0  0
  1  8  1  0  0  0  0
  2  1  1  0  0  0  0
  2  4  1  0  0  0  0
  3  6  1  0  0  0  0
  3  2  1  0  0  0  0
  3  1  1  0  0  0  0
  5  2  1  0  0  0  0
  7  3  1  0  0  0  0
  8 14  1  0  0  0  0
  8  9  1  0  0  0  0
  9 16  1  0  0  0  0
  9 10  1  0  0  0  0
 10 17  1  0  0  0  0
 10 18  1  0  0  0  0
 11 10  1  0  0  0  0
 12 19  1  0  0  0  0
 12 11  1  0  0  0  0
 13  8  1  0  0  0  0
 13 12  1  0  0  0  0
 15  9  1  0  0  0  0
 20 12  1  0  0  0  0
 21 13  1  0  0  0  0
 22 13  1  0  0  0  0
 23 24  1  0  0  0  0
 24  1  1  0  0  0  0
 24 25  2  0  0  0  0
 25 30  1  0  0  0  0
 26 25  1  0  0  0  0
 27 26  2  0  0  0  0
 28 23  2  0  0  0  0
 28 27  1  0  0  0  0
 29 23  1  0  0  0  0
 31 27  1  0  0  0  0
 32 31  1  0  0  0  0
M  END
>  <minimizedAffinity>
-4.58314991

$$$$

 OpenBabel03242516123D

 32 34  0  0  0  0  0  0  0  0999 V2000
   37.7740   27.5910   42.6080 C   0  0  0  0  0  0  0  0  0  0  0  0
   36.6460   27.4130   43.5840 C   0  0  0  0  0  0  0  0  0  0  0  0
   36.9270   26.3990   42.5480 C   0  0  0  0  0  0  0  0  0  0  0  0
   36.8440   27.2460   44.6650 H   0  0  0  0  0  0  0  0  0  0  0  0
   35.7680   28.0860   43.4310 H   0  0  0  0  0  0  0  0  0  0  0  0
   37.3390   25.4220   42.9300 H   0  0  0  0  0  0  0  0  0  0  0  0
   36.1350   26.2550   41.7820 H   0  0  0  0  0  0  0  0  0  0  0  0
   39.1470   27.4290   43.2020 C   0  0  0  0  0  0  0  0  0  0  0  0
   40.2130   28.2770   42.5800 C   0  0  0  0  0  0  0  0  0  0  0  0
   41.4780   28.0480   43.4040 C   0  0  0  0  0  0  0  0  0  0  0  0
   41.9490   26.7800   43.0590 O   0  0  0  0  0  0  0  0  0  0  0  0
   41.0340   25.9030   43.6790 C   0  0  0  0  0  0  0  0  0  0  0  0
   39.6850   26.0100   42.9830 C   0  0  0  0  0  0  0  0  0  0  0  0
   39.1440   27.6760   44.2970 H   0  0  0  0  0  0  0  0  0  0  0  0
   40.3990   28.0760   41.5250 H   0  0  0  0  0  0  0  0  0  0  0  0
   39.9450   29.3520   42.8010 H   0  0  0  0  0  0  0  0  0  0  0  0
   41.2650   28.1640   44.4740 H   0  0  0  0  0  0  0  0  0  0  0  0
   42.2260   28.7740   43.0110 H   0  0  0  0  0  0  0  0  0  0  0  0
   40.9650   26.0530   44.7590 H   0  0  0  0  0  0  0  0  0  0  0  0
   41.4200   24.8820   43.3920 H   0  0  0  0  0  0  0  0  0  0  0  0
   39.8300   25.9060   41.9080 H   0  0  0  0  0  0  0  0  0  0  0  0
   39.0050   25.2710   43.4300 H   0  0  0  0  0  0  0  0  0  0  0  0
   37.6620   28.2810   40.2130 C   0  0  0  0  0  0  0  0  0  0  0  0
   37.6240   28.6480   41.5520 C   0  0  0  0  0  0  0  0  0  0  0  0
   37.4430   30.0320   41.8810 C   0  0  0  0  0  0  0  0  0  0  0  0
   37.3190   30.8990   40.8370 N   0  0  0  0  0  0  0  0  0  0  0  0
   37.3630   30.4880   39.5670 C   0  0  0  0  0  0  0  0  0  0  0  0
   37.5320   29.2000   39.2380 N   0  0  0  0  0  0  0  0  0  0  0  0
   37.8010   27.2320   39.9800 H   0  0  0  0  0  0  0  0  0  0  0  0
   37.4240   30.2420   42.9230 H   0  0  0  0  0  0  0  0  0  0  0  0
   37.2170   31.5180   38.5020 C   0  0  0  0  0  2  0  0  0  0  0  0
   37.6570   31.1180   37.5440 H   0  0  0  0  0  0  0  0  0  0  0  0
  1  8  1  0  0  0  0
  1  2  1  0  0  0  0
  2  4  1  0  0  0  0
  3  1  1  0  0  0  0
  3  6  1  0  0  0  0
  3  2  1  0  0  0  0
  5  2  1  0  0  0  0
  7  3  1  0  0  0  0
  8 14  1  0  0  0  0
  9 16  1  0  0  0  0
  9  8  1  0  0  0  0
  9 10  1  0  0  0  0
 10 17  1  0  0  0  0
 11 10  1  0  0  0  0
 11 12  1  0  0  0  0
 12 19  1  0  0  0  0
 13  8  1  0  0  0  0
 13 22  1  0  0  0  0
 13 12  1  0  0  0  0
 15  9  1  0  0  0  0
 18 10  1  0  0  0  0
 20 12  1  0  0  0  0
 21 13  1  0  0  0  0
 23 24  1  0  0  0  0
 24 25  2  0  0  0  0
 24  1  1  0  0  0  0
 25 30  1  0  0  0  0
 26 25  1  0  0  0  0
 27 26  2  0  0  0  0
 28 27  1  0  0  0  0
 28 23  2  0  0  0  0
 29 23  1  0  0  0  0
 31 27  1  0  0  0  0
 32 31  1  0  0  0  0
M  END
>  <minimizedAffinity>
-4.47950983

$$$$

 OpenBabel03242516123D

 32 34  0  0  0  0  0  0  0  0999 V2000
   36.5130   29.2840   40.0680 C   0  0  0  0  0  0  0  0  0  0  0  0
   35.6040   28.4460   39.2150 C   0  0  0  0  0  0  0  0  0  0  0  0
   35.0690   29.2890   40.3020 C   0  0  0  0  0  0  0  0  0  0  0  0
   35.4540   28.6760   38.1380 H   0  0  0  0  0  0  0  0  0  0  0  0
   35.6620   27.3440   39.3900 H   0  0  0  0  0  0  0  0  0  0  0  0
   34.4690   30.1830   39.9660 H   0  0  0  0  0  0  0  0  0  0  0  0
   34.5880   28.7490   41.1450 H   0  0  0  0  0  0  0  0  0  0  0  0
   37.1000   30.4800   39.3670 C   0  0  0  0  0  0  0  0  0  0  0  0
   38.5920   30.4690   39.2340 C   0  0  0  0  0  0  0  0  0  0  0  0
   38.9560   31.6940   38.3990 C   0  0  0  0  0  0  0  0  0  0  0  0
   38.7990   32.8020   39.2330 O   0  0  0  0  0  0  0  0  0  0  0  0
   37.3980   32.9350   39.3500 C   0  0  0  0  0  0  0  0  0  0  0  0
   36.8490   31.7680   40.1600 C   0  0  0  0  0  0  0  0  0  0  0  0
   36.6900   30.5790   38.3270 H   0  0  0  0  0  0  0  0  0  0  0  0
   39.1350   30.4720   40.1790 H   0  0  0  0  0  0  0  0  0  0  0  0
   38.8530   29.6020   38.5590 H   0  0  0  0  0  0  0  0  0  0  0  0
   38.3420   31.7340   37.4890 H   0  0  0  0  0  0  0  0  0  0  0  0
   40.0500   31.6070   38.2010 H   0  0  0  0  0  0  0  0  0  0  0  0
   36.8990   33.0530   38.3860 H   0  0  0  0  0  0  0  0  0  0  0  0
   37.2800   33.8290   40.0290 H   0  0  0  0  0  0  0  0  0  0  0  0
   37.4240   31.6720   41.0800 H   0  0  0  0  0  0  0  0  0  0  0  0
   35.7710   31.9240   40.3030 H   0  0  0  0  0  0  0  0  0  0  0  0
   38.1900   27.5160   40.6000 C   0  0  0  0  0  0  0  0  0  0  0  0
   37.4090   28.5750   41.0420 C   0  0  0  0  0  0  0  0  0  0  0  0
   37.4850   28.9580   42.4230 C   0  0  0  0  0  0  0  0  0  0  0  0
   38.3340   28.2400   43.2120 N   0  0  0  0  0  0  0  0  0  0  0  0
   39.0610   27.2280   42.7310 C   0  0  0  0  0  0  0  0  0  0  0  0
   39.0040   26.8550   41.4450 N   0  0  0  0  0  0  0  0  0  0  0  0
   38.1210   27.2370   39.5560 H   0  0  0  0  0  0  0  0  0  0  0  0
   36.8620   29.7750   42.6920 H   0  0  0  0  0  0  0  0  0  0  0  0
   39.9560   26.5100   43.6790 C   0  0  0  0  0  2  0  0  0  0  0  0
   40.1840   25.4870   43.2620 H   0  0  0  0  0  0  0  0  0  0  0  0
  1  3  1  0  0  0  0
  1 24  1  0  0  0  0
  2  5  1  0  0  0  0
  2  1  1  0  0  0  0
  2  3  1  0  0  0  0
  3  7  1  0  0  0  0
  4  2  1  0  0  0  0
  6  3  1  0  0  0  0
  8  1  1  0  0  0  0
  8 13  1  0  0  0  0
  9  8  1  0  0  0  0
  9 15  1  0  0  0  0
 10 11  1  0  0  0  0
 10  9  1  0  0  0  0
 11 12  1  0  0  0  0
 12 20  1  0  0  0  0
 12 13  1  0  0  0  0
 13 22  1  0  0  0  0
 13 21  1  0  0  0  0
 14  8  1  0  0  0  0
 16  9  1  0  0  0  0
 17 10  1  0  0  0  0
 18 10  1  0  0  0  0
 19 12  1  0  0  0  0
 23 24  2  0  0  0  0
 23 28  1  0  0  0  0
 24 25  1  0  0  0  0
 25 30  1  0  0  0  0
 25 26  2  0  0  0  0
 27 26  1  0  0  0  0
 27 31  1  0  0  0  0
 28 27  2  0  0  0  0
 29 23  1  0  0  0  0
 32 31  1  0  0  0  0
M  END
>  <minimizedAffinity>
-4.43569422

$$$$

 OpenBabel03242516123D

 32 34  0  0  0  0  0  0  0  0999 V2000
   37.1130   27.5380   42.3220 C   0  0  0  0  0  0  0  0  0  0  0  0
   36.5500   27.2240   43.6790 C   0  0  0  0  0  0  0  0  0  0  0  0
   37.8250   27.9540   43.5310 C   0  0  0  0  0  0  0  0  0  0  0  0
   35.6140   27.7050   44.0380 H   0  0  0  0  0  0  0  0  0  0  0  0
   36.5960   26.1500   43.9820 H   0  0  0  0  0  0  0  0  0  0  0  0
   37.7950   29.0410   43.8300 H   0  0  0  0  0  0  0  0  0  0  0  0
   38.7290   27.4340   43.9120 H   0  0  0  0  0  0  0  0  0  0  0  0
   36.3640   28.6020   41.5660 C   0  0  0  0  0  0  0  0  0  0  0  0
   36.0940   28.2870   40.1270 C   0  0  0  0  0  0  0  0  0  0  0  0
   35.2320   29.4280   39.5930 C   0  0  0  0  0  0  0  0  0  0  0  0
   36.0790   30.5270   39.4430 O   0  0  0  0  0  0  0  0  0  0  0  0
   36.3250   30.9420   40.7690 C   0  0  0  0  0  0  0  0  0  0  0  0
   37.1790   29.8970   41.4730 C   0  0  0  0  0  0  0  0  0  0  0  0
   35.3660   28.8060   42.0380 H   0  0  0  0  0  0  0  0  0  0  0  0
   36.9860   28.1580   39.5120 H   0  0  0  0  0  0  0  0  0  0  0  0
   35.3960   27.3990   40.1120 H   0  0  0  0  0  0  0  0  0  0  0  0
   34.3830   29.6130   40.2640 H   0  0  0  0  0  0  0  0  0  0  0  0
   34.9350   29.1220   38.5630 H   0  0  0  0  0  0  0  0  0  0  0  0
   35.4110   31.1820   41.3170 H   0  0  0  0  0  0  0  0  0  0  0  0
   37.0140   31.8270   40.6380 H   0  0  0  0  0  0  0  0  0  0  0  0
   38.0430   29.6650   40.8500 H   0  0  0  0  0  0  0  0  0  0  0  0
   37.4210   30.2680   42.4780 H   0  0  0  0  0  0  0  0  0  0  0  0
   38.9220   26.5060   40.9500 C   0  0  0  0  0  0  0  0  0  0  0  0
   37.6560   26.3980   41.5100 C   0  0  0  0  0  0  0  0  0  0  0  0
   36.9070   25.1940   41.2910 C   0  0  0  0  0  0  0  0  0  0  0  0
   37.5040   24.2290   40.5370 N   0  0  0  0  0  0  0  0  0  0  0  0
   38.7260   24.3890   40.0230 C   0  0  0  0  0  0  0  0  0  0  0  0
   39.4420   25.5040   40.2150 N   0  0  0  0  0  0  0  0  0  0  0  0
   39.4760   27.4200   41.1220 H   0  0  0  0  0  0  0  0  0  0  0  0
   35.9470   25.1800   41.7480 H   0  0  0  0  0  0  0  0  0  0  0  0
   39.2850   23.2710   39.2130 C   0  0  0  0  0  2  0  0  0  0  0  0
   40.0970   23.6770   38.5430 H   0  0  0  0  0  0  0  0  0  0  0  0
  1  3  1  0  0  0  0
  1  2  1  0  0  0  0
  2  5  1  0  0  0  0
  2  4  1  0  0  0  0
  3  2  1  0  0  0  0
  3  6  1  0  0  0  0
  3  7  1  0  0  0  0
  8 14  1  0  0  0  0
  8  1  1  0  0  0  0
  9  8  1  0  0  0  0
 10  9  1  0  0  0  0
 10 17  1  0  0  0  0
 11 10  1  0  0  0  0
 11 12  1  0  0  0  0
 12 19  1  0  0  0  0
 12 13  1  0  0  0  0
 13  8  1  0  0  0  0
 13 22  1  0  0  0  0
 15  9  1  0  0  0  0
 16  9  1  0  0  0  0
 18 10  1  0  0  0  0
 20 12  1  0  0  0  0
 21 13  1  0  0  0  0
 23 29  1  0  0  0  0
 23 24  1  0  0  0  0
 24  1  1  0  0  0  0
 25 24  2  0  0  0  0
 25 30  1  0  0  0  0
 26 25  1  0  0  0  0
 27 28  1  0  0  0  0
 27 26  2  0  0  0  0
 28 23  2  0  0  0  0
 31 27  1  0  0  0  0
 32 31  1  0  0  0  0
M  END
>  <minimizedAffinity>
-4.43063927

$$$$

 OpenBabel03242516123D

 32 34  0  0  0  0  0  0  0  0999 V2000
   37.7190   28.2730   42.1980 C   0  0  0  0  0  0  0  0  0  0  0  0
   37.4780   28.2130   43.6790 C   0  0  0  0  0  0  0  0  0  0  0  0
   36.5130   27.6320   42.7250 C   0  0  0  0  0  0  0  0  0  0  0  0
   38.1230   27.5960   44.3410 H   0  0  0  0  0  0  0  0  0  0  0  0
   37.2130   29.1850   44.1620 H   0  0  0  0  0  0  0  0  0  0  0  0
   36.4550   26.5060   42.7250 H   0  0  0  0  0  0  0  0  0  0  0  0
   35.5110   28.1090   42.6960 H   0  0  0  0  0  0  0  0  0  0  0  0
   38.8190   27.3690   41.7070 C   0  0  0  0  0  0  0  0  0  0  0  0
   39.0360   27.3820   40.2250 C   0  0  0  0  0  0  0  0  0  0  0  0
   40.2570   26.5030   39.9640 C   0  0  0  0  0  0  0  0  0  0  0  0
   39.8370   25.1830   40.1340 O   0  0  0  0  0  0  0  0  0  0  0  0
   39.6810   25.0590   41.5310 C   0  0  0  0  0  0  0  0  0  0  0  0
   38.4920   25.8960   41.9800 C   0  0  0  0  0  0  0  0  0  0  0  0
   39.8020   27.6410   42.1740 H   0  0  0  0  0  0  0  0  0  0  0  0
   38.1840   27.0420   39.6350 H   0  0  0  0  0  0  0  0  0  0  0  0
   39.3950   28.4190   39.9560 H   0  0  0  0  0  0  0  0  0  0  0  0
   41.0850   26.7920   40.6250 H   0  0  0  0  0  0  0  0  0  0  0  0
   40.4840   26.6200   38.8790 H   0  0  0  0  0  0  0  0  0  0  0  0
   40.5940   25.2890   42.0840 H   0  0  0  0  0  0  0  0  0  0  0  0
   39.3380   23.9910   41.6580 H   0  0  0  0  0  0  0  0  0  0  0  0
   37.6320   25.6570   41.3550 H   0  0  0  0  0  0  0  0  0  0  0  0
   38.3400   25.7330   43.0560 H   0  0  0  0  0  0  0  0  0  0  0  0
   38.6490   30.5140   41.6210 C   0  0  0  0  0  0  0  0  0  0  0  0
   37.6010   29.6090   41.5230 C   0  0  0  0  0  0  0  0  0  0  0  0
   36.4360   29.9830   40.7760 C   0  0  0  0  0  0  0  0  0  0  0  0
   36.4440   31.2230   40.2080 N   0  0  0  0  0  0  0  0  0  0  0  0
   37.4820   32.0530   40.3370 C   0  0  0  0  0  0  0  0  0  0  0  0
   38.5790   31.7220   41.0300 N   0  0  0  0  0  0  0  0  0  0  0  0
   39.5230   30.2180   42.1890 H   0  0  0  0  0  0  0  0  0  0  0  0
   35.6730   29.2440   40.7420 H   0  0  0  0  0  0  0  0  0  0  0  0
   37.3870   33.3840   39.6760 C   0  0  0  0  0  2  0  0  0  0  0  0
   38.1090   34.0920   40.1770 H   0  0  0  0  0  0  0  0  0  0  0  0
  1  3  1  0  0  0  0
  1  2  1  0  0  0  0
  2  5  1  0  0  0  0
  2  4  1  0  0  0  0
  3  2  1  0  0  0  0
  6  3  1  0  0  0  0
  7  3  1  0  0  0  0
  8 13  1  0  0  0  0
  8 14  1  0  0  0  0
  8  1  1  0  0  0  0
  9  8  1  0  0  0  0
 10 11  1  0  0  0  0
 10  9  1  0  0  0  0
 10 17  1  0  0  0  0
 11 12  1  0  0  0  0
 12 20  1  0  0  0  0
 12 13  1  0  0  0  0
 12 19  1  0  0  0  0
 13 22  1  0  0  0  0
 15  9  1  0  0  0  0
 16  9  1  0  0  0  0
 18 10  1  0  0  0  0
 21 13  1  0  0  0  0
 23 29  1  0  0  0  0
 24 23  1  0  0  0  0
 24  1  1  0  0  0  0
 25 24  2  0  0  0  0
 26 27  2  0  0  0  0
 26 25  1  0  0  0  0
 27 28  1  0  0  0  0
 28 23  2  0  0  0  0
 30 25  1  0  0  0  0
 31 32  1  0  0  0  0
 31 27  1  0  0  0  0
M  END
>  <minimizedAffinity>
-4.3958602

$$$$

 OpenBabel03242516123D

 32 34  0  0  0  0  0  0  0  0999 V2000
   35.8590   28.9280   39.7100 C   0  0  0  0  0  0  0  0  0  0  0  0
   34.8620   28.6920   38.6110 C   0  0  0  0  0  0  0  0  0  0  0  0
   34.4380   29.2040   39.9300 C   0  0  0  0  0  0  0  0  0  0  0  0
   34.8650   29.3150   37.6910 H   0  0  0  0  0  0  0  0  0  0  0  0
   34.6510   27.6210   38.3750 H   0  0  0  0  0  0  0  0  0  0  0  0
   34.0910   30.2770   39.9400 H   0  0  0  0  0  0  0  0  0  0  0  0
   33.7740   28.5380   40.5190 H   0  0  0  0  0  0  0  0  0  0  0  0
   36.7640   30.1100   39.4910 C   0  0  0  0  0  0  0  0  0  0  0  0
   38.2280   29.8140   39.5830 C   0  0  0  0  0  0  0  0  0  0  0  0
   38.9510   31.1080   39.2120 C   0  0  0  0  0  0  0  0  0  0  0  0
   38.8110   31.9650   40.3040 O   0  0  0  0  0  0  0  0  0  0  0  0
   37.4570   32.3600   40.2480 C   0  0  0  0  0  0  0  0  0  0  0  0
   36.5710   31.1680   40.5840 C   0  0  0  0  0  0  0  0  0  0  0  0
   36.5940   30.5640   38.4790 H   0  0  0  0  0  0  0  0  0  0  0  0
   38.5610   29.4530   40.5560 H   0  0  0  0  0  0  0  0  0  0  0  0
   38.4750   29.1190   38.7270 H   0  0  0  0  0  0  0  0  0  0  0  0
   38.5500   31.5150   38.2750 H   0  0  0  0  0  0  0  0  0  0  0  0
   40.0320   30.8420   39.1620 H   0  0  0  0  0  0  0  0  0  0  0  0
   37.1900   32.8310   39.2990 H   0  0  0  0  0  0  0  0  0  0  0  0
   37.3520   33.0490   41.1350 H   0  0  0  0  0  0  0  0  0  0  0  0
   36.9240   30.7130   41.5090 H   0  0  0  0  0  0  0  0  0  0  0  0
   35.5270   31.5090   40.6050 H   0  0  0  0  0  0  0  0  0  0  0  0
   36.5750   27.6780   41.7470 C   0  0  0  0  0  0  0  0  0  0  0  0
   36.4770   27.7250   40.3620 C   0  0  0  0  0  0  0  0  0  0  0  0
   36.9750   26.6170   39.5990 C   0  0  0  0  0  0  0  0  0  0  0  0
   37.5160   25.5820   40.3020 N   0  0  0  0  0  0  0  0  0  0  0  0
   37.5830   25.5920   41.6360 C   0  0  0  0  0  0  0  0  0  0  0  0
   37.1240   26.6160   42.3670 N   0  0  0  0  0  0  0  0  0  0  0  0
   36.1960   28.5220   42.3100 H   0  0  0  0  0  0  0  0  0  0  0  0
   36.8690   26.7200   38.5470 H   0  0  0  0  0  0  0  0  0  0  0  0
   38.1930   24.4100   42.3050 C   0  0  0  0  0  2  0  0  0  0  0  0
   38.5370   24.7110   43.3360 H   0  0  0  0  0  0  0  0  0  0  0  0
  1  3  1  0  0  0  0
  1 24  1  0  0  0  0
  2  1  1  0  0  0  0
  2  3  1  0  0  0  0
  3  6  1  0  0  0  0
  3  7  1  0  0  0  0
  4  2  1  0  0  0  0
  5  2  1  0  0  0  0
  8  9  1  0  0  0  0
  8  1  1  0  0  0  0
  8 13  1  0  0  0  0
  9 15  1  0  0  0  0
 10  9  1  0  0  0  0
 10 11  1  0  0  0  0
 12 11  1  0  0  0  0
 12 13  1  0  0  0  0
 12 20  1  0  0  0  0
 13 22  1  0  0  0  0
 13 21  1  0  0  0  0
 14  8  1  0  0  0  0
 16  9  1  0  0  0  0
 17 10  1  0  0  0  0
 18 10  1  0  0  0  0
 19 12  1  0  0  0  0
 23 29  1  0  0  0  0
 23 28  1  0  0  0  0
 24 23  2  0  0  0  0
 25 26  2  0  0  0  0
 25 24  1  0  0  0  0
 26 27  1  0  0  0  0
 27 31  1  0  0  0  0
 27 28  2  0  0  0  0
 30 25  1  0  0  0  0
 31 32  1  0  0  0  0
M  END
>  <minimizedAffinity>
-4.35794115

$$$$

 OpenBabel03242516123D

 32 34  0  0  0  0  0  0  0  0999 V2000
   37.8360   27.9330   42.4000 C   0  0  0  0  0  0  0  0  0  0  0  0
   38.7390   28.9500   43.0370 C   0  0  0  0  0  0  0  0  0  0  0  0
   37.4320   28.6100   43.6330 C   0  0  0  0  0  0  0  0  0  0  0  0
   39.7090   28.6510   43.4910 H   0  0  0  0  0  0  0  0  0  0  0  0
   38.8280   29.9210   42.4930 H   0  0  0  0  0  0  0  0  0  0  0  0
   37.4800   28.0390   44.6050 H   0  0  0  0  0  0  0  0  0  0  0  0
   36.6830   29.4280   43.6600 H   0  0  0  0  0  0  0  0  0  0  0  0
   38.3120   26.5100   42.5210 C   0  0  0  0  0  0  0  0  0  0  0  0
   39.5190   26.1730   41.7020 C   0  0  0  0  0  0  0  0  0  0  0  0
   39.8960   24.7380   42.0650 C   0  0  0  0  0  0  0  0  0  0  0  0
   38.9520   23.9150   41.4500 O   0  0  0  0  0  0  0  0  0  0  0  0
   37.7850   24.1140   42.2170 C   0  0  0  0  0  0  0  0  0  0  0  0
   37.2650   25.5250   41.9860 C   0  0  0  0  0  0  0  0  0  0  0  0
   38.5700   26.2610   43.5850 H   0  0  0  0  0  0  0  0  0  0  0  0
   39.3840   26.2750   40.6250 H   0  0  0  0  0  0  0  0  0  0  0  0
   40.3750   26.7840   42.1160 H   0  0  0  0  0  0  0  0  0  0  0  0
   39.9440   24.6190   43.1550 H   0  0  0  0  0  0  0  0  0  0  0  0
   40.8630   24.5430   41.5470 H   0  0  0  0  0  0  0  0  0  0  0  0
   37.9260   23.8820   43.2760 H   0  0  0  0  0  0  0  0  0  0  0  0
   37.0270   23.4480   41.7110 H   0  0  0  0  0  0  0  0  0  0  0  0
   37.1990   25.7090   40.9140 H   0  0  0  0  0  0  0  0  0  0  0  0
   36.3200   25.6400   42.5340 H   0  0  0  0  0  0  0  0  0  0  0  0
   35.8110   28.6150   41.1130 C   0  0  0  0  0  0  0  0  0  0  0  0
   37.1640   28.3050   41.1100 C   0  0  0  0  0  0  0  0  0  0  0  0
   37.8780   28.3500   39.8660 C   0  0  0  0  0  0  0  0  0  0  0  0
   37.1620   28.7010   38.7610 N   0  0  0  0  0  0  0  0  0  0  0  0
   35.8590   28.9890   38.8240 C   0  0  0  0  0  0  0  0  0  0  0  0
   35.1750   28.9520   39.9750 N   0  0  0  0  0  0  0  0  0  0  0  0
   35.2850   28.5760   42.0580 H   0  0  0  0  0  0  0  0  0  0  0  0
   38.9090   28.1010   39.9370 H   0  0  0  0  0  0  0  0  0  0  0  0
   35.1730   29.3610   37.5560 C   0  0  0  0  0  2  0  0  0  0  0  0
   34.0650   29.1880   37.6780 H   0  0  0  0  0  0  0  0  0  0  0  0
  1  8  1  0  0  0  0
  1  2  1  0  0  0  0
  1  3  1  0  0  0  0
  2  4  1  0  0  0  0
  2  3  1  0  0  0  0
  3  7  1  0  0  0  0
  3  6  1  0  0  0  0
  5  2  1  0  0  0  0
  8 14  1  0  0  0  0
  9 10  1  0  0  0  0
  9 16  1  0  0  0  0
  9  8  1  0  0  0  0
 10 17  1  0  0  0  0
 11 10  1  0  0  0  0
 11 12  1  0  0  0  0
 12 19  1  0  0  0  0
 13 12  1  0  0  0  0
 13  8  1  0  0  0  0
 13 22  1  0  0  0  0
 15  9  1  0  0  0  0
 18 10  1  0  0  0  0
 20 12  1  0  0  0  0
 21 13  1  0  0  0  0
 23 29  1  0  0  0  0
 24 23  1  0  0  0  0
 24  1  1  0  0  0  0
 25 30  1  0  0  0  0
 25 24  2  0  0  0  0
 26 27  2  0  0  0  0
 26 25  1  0  0  0  0
 27 28  1  0  0  0  0
 28 23  2  0  0  0  0
 31 32  1  0  0  0  0
 31 27  1  0  0  0  0
M  END
>  <minimizedAffinity>
-4.3499465

$$$$
