REMARK  Name = 
REMARK  7 active torsions:
REMARK  status: ('A' for Active; 'I' for Inactive)
REMARK    1  A    between atoms: C_1  and  C_4
REMARK    2  A    between atoms: C_1  and  O_8
REMARK    3  A    between atoms: O_8  and  P_10
REMARK    4  A    between atoms: P_10  and  O_11
REMARK    5  A    between atoms: P_10  and  O_12
REMARK    6  A    between atoms: O_12  and  C_13
REMARK    7  A    between atoms: C_17  and  C_32
REMARK                            x       y       z     vdW  Elec       q    Type
REMARK                         _______ _______ _______ _____ _____    ______ ____
ROOT
ATOM      1  O   UNL     1      44.633  35.177  45.258  0.00  0.00    +0.000 OA
ATOM      2  P   UNL     1      45.447  34.234  44.419  0.00  0.00    +0.000 P 
ENDROOT
BRANCH   2   3
ATOM      3  O   UNL     1      44.521  33.053  43.670  0.00  0.00    +0.000 OA
ATOM      4  H   UNL     1      44.325  33.226  42.725  0.00  0.00    +0.000 HD
ENDBRANCH   2   3
BRANCH   2   5
ATOM      5  O   UNL     1      46.549  33.400  45.407  0.00  0.00    +0.000 OA
BRANCH   5   6
ATOM      6  C   UNL     1      46.186  32.088  45.434  0.00  0.00    +0.000 C 
ATOM      7  H   UNL     1      47.104  31.507  45.121  0.00  0.00    +0.000 HD
ATOM      8  H   UNL     1      45.401  31.747  44.779  0.00  0.00    +0.000 HD
BRANCH   6  11
ATOM      9  C   UNL     1      45.774  32.027  49.133  0.00  0.00    +0.000 A 
ATOM     10  C   UNL     1      46.065  32.492  47.841  0.00  0.00    +0.000 A 
ATOM     11  C   UNL     1      45.883  31.608  46.792  0.00  0.00    +0.000 A 
ATOM     12  N   UNL     1      45.435  30.351  47.065  0.00  0.00    +0.000 NA
ATOM     13  C   UNL     1      45.163  29.930  48.312  0.00  0.00    +0.000 A 
ATOM     14  N   UNL     1      45.334  30.770  49.334  0.00  0.00    +0.000 NA
ATOM     15  H   UNL     1      45.932  32.754  49.924  0.00  0.00    +0.000 HD
ATOM     16  H   UNL     1      46.418  33.506  47.694  0.00  0.00    +0.000 HD
ATOM     17  H   UNL     1      44.809  28.925  48.489  0.00  0.00    +0.000 HD
ENDBRANCH   6  11
ENDBRANCH   5   6
ENDBRANCH   2   5
BRANCH   2  18
ATOM     18  O   UNL     1      46.345  35.126  43.306  0.00  0.00    +0.000 OA
BRANCH  18  19
ATOM     19  C   UNL     1      47.103  34.248  42.530  0.00  0.00    +0.000 C 
ATOM     20  C   UNL     1      46.956  34.480  41.050  0.00  0.00    +0.000 C 
ATOM     21  C   UNL     1      48.119  33.664  40.511  0.00  0.00    +0.000 C 
ATOM     22  C   UNL     1      49.166  33.663  41.593  0.00  0.00    +0.000 C 
ATOM     23  C   UNL     1      48.594  34.543  42.707  0.00  0.00    +0.000 C 
ATOM     24  H   UNL     1      46.971  33.198  42.787  0.00  0.00    +0.000 HD
ATOM     25  H   UNL     1      45.990  34.015  40.746  0.00  0.00    +0.000 HD
ATOM     26  H   UNL     1      47.017  35.533  40.786  0.00  0.00    +0.000 HD
ATOM     27  H   UNL     1      47.807  32.630  40.233  0.00  0.00    +0.000 HD
ATOM     28  H   UNL     1      48.518  34.209  39.631  0.00  0.00    +0.000 HD
ATOM     29  H   UNL     1      49.222  32.636  42.013  0.00  0.00    +0.000 HD
ATOM     30  H   UNL     1      50.149  34.058  41.267  0.00  0.00    +0.000 HD
ATOM     31  H   UNL     1      48.850  34.133  43.701  0.00  0.00    +0.000 HD
BRANCH  23  32
ATOM     32  C   UNL     1      48.934  35.990  42.528  0.00  0.00    +0.000 C 
ATOM     33  H   UNL     1      49.831  36.279  43.113  0.00  0.00    +0.000 HD
ENDBRANCH  23  32
ENDBRANCH  18  19
ENDBRANCH   2  18
TORSDOF 7
