REMARK  Name = 
REMARK  3 active torsions:
REMARK  status: ('A' for Active; 'I' for Inactive)
REMARK    1  A    between atoms: C_2  and  N_10
REMARK    2  A    between atoms: C_3  and  C_7
REMARK    3  A    between atoms: C_9  and  C_19
REMARK                            x       y       z     vdW  Elec       q    Type
REMARK                         _______ _______ _______ _____ _____    ______ ____
ROOT
ATOM      1  C   UNL     1      44.625  35.460  45.126  0.00  0.00    +0.000 A 
ATOM      2  C   UNL     1      45.103  35.715  43.801  0.00  0.00    +0.000 A 
ATOM      3  C   UNL     1      46.046  34.828  43.359  0.00  0.00    +0.000 A 
ATOM      4  N   UNL     1      46.494  33.782  44.136  0.00  0.00    +0.000 NA
ATOM      5  C   UNL     1      46.011  33.587  45.379  0.00  0.00    +0.000 A 
ATOM      6  N   UNL     1      45.067  34.437  45.872  0.00  0.00    +0.000 NA
ATOM      7  H   UNL     1      43.877  36.125  45.531  0.00  0.00    +0.000 HD
ATOM      8  H   UNL     1      46.463  32.727  45.855  0.00  0.00    +0.000 HD
ENDROOT
BRANCH   3   9
ATOM      9  C   UNL     1      46.528  34.951  41.940  0.00  0.00    +0.000 C 
ATOM     10  C   UNL     1      48.040  35.296  41.918  0.00  0.00    +0.000 C 
ATOM     11  C   UNL     1      47.406  33.967  41.422  0.00  0.00    +0.000 C 
ATOM     12  H   UNL     1      45.929  35.629  41.304  0.00  0.00    +0.000 HD
ATOM     13  H   UNL     1      48.612  35.266  42.838  0.00  0.00    +0.000 HD
ATOM     14  H   UNL     1      48.357  35.939  41.083  0.00  0.00    +0.000 HD
ATOM     15  H   UNL     1      47.741  33.074  41.996  0.00  0.00    +0.000 HD
BRANCH  11  16
ATOM     16  C   UNL     1      47.466  33.688  39.925  0.00  0.00    +0.000 C 
ATOM     17  H   UNL     1      47.004  32.686  39.804  0.00  0.00    +0.000 HD
ENDBRANCH  11  16
ENDBRANCH   3   9
BRANCH   2  18
ATOM     18  N   UNL     1      44.664  36.818  43.035  0.00  0.00    +0.000 N 
ATOM     19  H   UNL     1      44.600  37.707  43.612  0.00  0.00    +0.000 HD
ATOM     20  H   UNL     1      44.429  36.800  42.047  0.00  0.00    +0.000 HD
ENDBRANCH   2  18
TORSDOF 3
