
     RDKit          3D

 22 23  0  0  0  0  0  0  0  0999 V2000
   44.6246   35.4597   45.1258 C   0  0  0  0  0  0  0  0  0  0  0  0
   45.1026   35.7154   43.8012 C   0  0  0  0  0  0  0  0  0  0  0  0
   46.0460   34.8283   43.3595 C   0  0  0  0  0  0  0  0  0  0  0  0
   46.4938   33.7823   44.1364 N   0  0  0  0  0  0  0  0  0  0  0  0
   46.0110   33.5868   45.3788 C   0  0  0  0  0  0  0  0  0  0  0  0
   45.0669   34.4368   45.8721 N   0  0  0  0  0  0  0  0  0  0  0  0
   46.5281   34.9508   41.9397 C   0  0  1  0  0  0  0  0  0  0  0  0
   48.0403   35.2959   41.9176 C   0  0  0  0  0  0  0  0  0  0  0  0
   47.4056   33.9668   41.4221 C   0  0  2  0  0  0  0  0  0  0  0  0
   44.6641   36.8182   43.0347 N   0  0  0  0  0  0  0  0  0  0  0  0
   43.8765   36.1251   45.5306 H   0  0  0  0  0  0  0  0  0  0  0  0
   46.4627   32.7270   45.8546 H   0  0  0  0  0  0  0  0  0  0  0  0
   45.9288   35.6286   41.3037 H   0  0  0  0  0  0  0  0  0  0  0  0
   48.6123   35.2655   42.8381 H   0  0  0  0  0  0  0  0  0  0  0  0
   48.3572   35.9387   41.0832 H   0  0  0  0  0  0  0  0  0  0  0  0
   47.7412   33.0740   41.9958 H   0  0  0  0  0  0  0  0  0  0  0  0
   44.6000   37.7071   43.6123 H   0  0  0  0  0  0  0  0  0  0  0  0
   44.4292   36.8001   42.0470 H   0  0  0  0  0  0  0  0  0  0  0  0
   47.4657   33.6882   39.9245 C   0  0  0  0  0  0  0  0  0  0  0  0
   46.7714   32.8371   39.7663 H   0  0  0  0  0  0  0  0  0  0  0  0
   48.4953   33.3854   39.6150 H   0  0  0  0  0  0  0  0  0  0  0  0
   47.0910   34.5375   39.3155 H   0  0  0  0  0  0  0  0  0  0  0  0
  1  6  2  0
  2  1  1  0
  3  2  2  0
  3  4  1  0
  4  5  2  0
  5  6  1  0
  7  3  1  0
  8  7  1  0
  9  8  1  0
  9  7  1  0
 10  2  1  0
  1 11  1  0
  5 12  1  0
  7 13  1  6
  8 14  1  0
  8 15  1  0
  9 16  1  1
 10 17  1  0
 10 18  1  0
 19 20  1  0
 19 21  1  0
 19 22  1  0
  9 19  1  0
M  ISO  7  11  14  12  14  13  13  14  13  15  13  16  13  20   8
M  END
>  <DihAtoms>  (1) 
7,8,18,19

>  <DihDeg>  (1) 
-167.4453862767896

$$$$
