
 OpenBabel03242514583D

 28 29  0  0  0  0  0  0  0  0999 V2000
   41.9390   35.1930   41.5360 C   0  0  0  0  0  0  0  0  0  0  0  0
   41.4890   34.1890   41.6780 H   0  0  0  0  0  0  0  0  0  0  0  0
   42.0430   35.6180   42.5680 H   0  0  0  0  0  0  0  0  0  0  0  0
   41.0070   36.0680   40.7650 C   0  0  0  0  0  0  0  0  0  0  0  0
   41.6160   36.7810   40.1750 H   0  0  0  0  0  0  0  0  0  0  0  0
   40.3850   36.6500   41.4500 H   0  0  0  0  0  0  0  0  0  0  0  0
   41.7930   36.2790   37.8320 Cl  0  0  0  0  0  0  0  0  0  0  0  0
   40.4830   35.3030   38.4240 C   0  0  0  0  0  0  0  0  0  0  0  0
   40.2030   35.2740   39.7910 C   0  0  0  0  0  0  0  0  0  0  0  0
   39.1490   34.4760   40.1820 C   0  0  0  0  0  0  0  0  0  0  0  0
   38.3480   33.7090   39.3660 C   0  0  0  0  0  0  0  0  0  0  0  0
   38.6430   33.7510   38.0140 C   0  0  0  0  0  0  0  0  0  0  0  0
   37.6790   32.8050   36.8810 Cl  0  0  0  0  0  0  0  0  0  0  0  0
   39.6910   34.5350   37.5660 C   0  0  0  0  0  0  0  0  0  0  0  0
   38.9530   34.4740   41.2520 H   0  0  0  0  0  0  0  0  0  0  0  0
   37.5450   33.1170   39.7700 H   0  0  0  0  0  0  0  0  0  0  0  0
   39.8830   34.5340   36.4900 H   0  0  0  0  0  0  0  0  0  0  0  0
   43.5490   34.9870   40.7620 S   0  0  0  0  0  0  0  0  0  0  0  0
   44.8510   34.6790   41.9680 C   0  0  0  0  0  0  0  0  0  0  0  0
   46.1390   34.5430   41.4320 C   0  0  0  0  0  0  0  0  0  0  0  0
   47.1810   34.3030   42.3410 C   0  0  0  0  0  0  0  0  0  0  0  0
   46.8920   34.2170   43.6520 N   0  0  0  0  0  0  0  0  0  0  0  0
   45.6450   34.3510   44.1470 C   0  0  0  0  0  0  0  0  0  0  0  0
   44.6470   34.5810   43.2880 N   0  0  0  0  0  0  0  0  0  0  0  0
   46.3930   34.6090   40.3810 H   0  0  0  0  0  0  0  0  0  0  0  0
   48.2130   34.1870   41.9880 H   0  0  0  0  0  0  0  0  0  0  0  0
   45.3050   34.2600   45.5900 C   0  0  0  0  0  0  0  0  0  0  0  0
   44.4670   34.9600   45.8380 H   0  0  0  0  0  0  0  0  0  0  0  0
  1  2  1  0  0  0  0
  1  3  1  0  0  0  0
  4  6  1  0  0  0  0
  4  1  1  0  0  0  0
  5  4  1  0  0  0  0
  7  8  1  0  0  0  0
  8  9  1  0  0  0  0
  9 10  2  0  0  0  0
  9  4  1  0  0  0  0
 10 15  1  0  0  0  0
 11 16  1  0  0  0  0
 11 10  1  0  0  0  0
 12 11  2  0  0  0  0
 13 12  1  0  0  0  0
 14 12  1  0  0  0  0
 14  8  2  0  0  0  0
 17 14  1  0  0  0  0
 18  1  1  0  0  0  0
 18 19  1  0  0  0  0
 19 24  1  0  0  0  0
 20 19  2  0  0  0  0
 20 21  1  0  0  0  0
 21 22  2  0  0  0  0
 22 23  1  0  0  0  0
 23 27  1  0  0  0  0
 24 23  2  0  0  0  0
 25 20  1  0  0  0  0
 26 21  1  0  0  0  0
 27 28  1  0  0  0  0
M  END
>  <minimizedAffinity>
-5.64214373

>  <minimizedRMSD>
1.44489133

$$$$
