
 OpenBabel03252507573D

 27 29  0  0  1  0  0  0  0  0999 V2000
   45.9320   32.0440   44.9490 C   0  0  1  0  0  0  0  0  0  0  0  0
   47.1860   31.2430   45.0890 C   0  0  0  0  0  0  0  0  0  0  0  0
   46.7070   32.0560   46.2330 C   0  0  2  0  0  0  0  0  0  0  0  0
   44.9870   31.5190   44.7960 H   0  0  0  0  0  0  0  0  0  0  0  0
   48.0850   31.5740   44.5190 H   0  0  0  0  0  0  0  0  0  0  0  0
   47.0440   30.1500   45.0090 H   0  0  0  0  0  0  0  0  0  0  0  0
   47.3510   32.9570   46.4570 H   0  0  0  0  0  0  0  0  0  0  0  0
   46.8590   34.7200   42.6160 C   0  0  0  0  0  0  0  0  0  0  0  0
   45.9550   35.7470   42.9250 C   0  0  0  0  0  0  0  0  0  0  0  0
   45.0080   35.5120   43.9540 C   0  0  0  0  0  0  0  0  0  0  0  0
   45.0360   34.3040   44.5780 N   0  0  0  0  0  0  0  0  0  0  0  0
   45.9440   33.3530   44.2240 C   0  0  0  0  0  0  0  0  0  0  0  0
   46.8460   33.5340   43.2680 N   0  0  0  0  0  0  0  0  0  0  0  0
   45.9450   36.7020   42.4210 H   0  0  0  0  0  0  0  0  0  0  0  0
   44.2860   36.2630   44.2360 H   0  0  0  0  0  0  0  0  0  0  0  0
   47.7750   35.0500   41.5740 C   0  0  0  0  0  0  0  0  0  0  0  0
   48.7390   35.8670   41.6690 O   0  0  0  0  0  0  0  0  0  0  0  0
   47.6420   34.5630   40.6100 H   0  0  0  0  0  0  0  0  0  0  0  0
   46.5250   32.0900   48.7550 C   0  0  2  0  0  0  0  0  0  0  0  0
   46.0980   31.4830   47.4660 C   0  0  2  0  0  0  0  0  0  0  0  0
   46.5010   30.0350   47.6580 C   0  0  0  0  0  0  0  0  0  0  0  0
   45.7600   29.4660   48.2220 H   0  0  0  0  0  0  0  0  0  0  0  0
   47.7310   30.1440   48.3040 O   0  0  0  0  0  0  0  0  0  0  0  0
   47.6700   31.2030   49.1820 C   0  0  0  0  0  0  0  0  0  0  0  0
   47.4620   30.7690   50.1930 H   0  0  0  0  0  0  0  0  0  0  0  0
   45.5020   32.0070   49.7280 O   0  0  0  0  0  0  0  0  0  0  0  0
   44.9150   31.2420   49.6030 H   0  0  0  0  0  0  0  0  0  0  0  0
  1  4  1  6  0  0  0
  1  2  1  0  0  0  0
  1  3  1  0  0  0  0
  2  3  1  0  0  0  0
  3  7  1  1  0  0  0
  3 20  1  0  0  0  0
  5  2  1  0  0  0  0
  6  2  1  0  0  0  0
  8  9  2  0  0  0  0
  8 13  1  0  0  0  0
  9 10  1  0  0  0  0
 10 15  1  0  0  0  0
 10 11  2  0  0  0  0
 12 11  1  0  0  0  0
 12  1  1  0  0  0  0
 13 12  2  0  0  0  0
 14  9  1  0  0  0  0
 16 17  2  0  0  0  0
 16  8  1  0  0  0  0
 18 16  1  0  0  0  0
 19 24  1  0  0  0  0
 19 26  1  1  0  0  0
 20 21  1  1  0  0  0
 20 19  1  0  0  0  0
 21 22  1  0  0  0  0
 21 23  1  0  0  0  0
 23 24  1  0  0  0  0
 24 25  1  0  0  0  0
 27 26  1  0  0  0  0
M  END
>  <minimizedAffinity>
-4.80684805

>  <minimizedRMSD>
1.57190585

$$$$
