REMARK  Name = 
REMARK  3 active torsions:
REMARK  status: ('A' for Active; 'I' for Inactive)
REMARK    1  A    between atoms: C_2  and  C_7
REMARK    2  A    between atoms: C_5  and  C_15
REMARK    3  A    between atoms: O_13  and  C_14
REMARK                            x       y       z     vdW  Elec       q    Type
REMARK                         _______ _______ _______ _____ _____    ______ ____
ROOT
ATOM      1  C   UNL     1      44.384  35.778  44.439  0.00  0.00    +0.000 A 
ATOM      2  C   UNL     1      44.664  35.069  43.264  0.00  0.00    +0.000 A 
ATOM      3  C   UNL     1      45.288  33.834  43.392  0.00  0.00    +0.000 A 
ATOM      4  N   UNL     1      45.589  33.387  44.630  0.00  0.00    +0.000 NA
ATOM      5  C   UNL     1      45.309  34.088  45.751  0.00  0.00    +0.000 A 
ATOM      6  N   UNL     1      44.700  35.297  45.658  0.00  0.00    +0.000 NA
ATOM      7  H   UNL     1      43.898  36.752  44.450  0.00  0.00    +0.000 HD
ATOM      8  H   UNL     1      45.495  33.305  42.478  0.00  0.00    +0.000 HD
ENDROOT
BRANCH   5  10
ATOM      9  C   UNL     1      45.764  32.050  47.126  0.00  0.00    +0.000 C 
ATOM     10  C   UNL     1      45.667  33.540  47.091  0.00  0.00    +0.000 C 
ATOM     11  C   UNL     1      44.436  33.780  47.968  0.00  0.00    +0.000 C 
ATOM     12  H   UNL     1      44.033  34.776  47.672  0.00  0.00    +0.000 HD
ATOM     13  O   UNL     1      43.587  32.740  47.637  0.00  0.00    +0.000 OA
ATOM     14  C   UNL     1      44.404  31.610  47.628  0.00  0.00    +0.000 C 
ATOM     15  H   UNL     1      43.952  30.840  46.948  0.00  0.00    +0.000 HD
BRANCH   9  16
ATOM     16  O   UNL     1      46.753  31.667  48.024  0.00  0.00    +0.000 OA
ATOM     17  H   UNL     1      47.394  31.014  47.605  0.00  0.00    +0.000 HD
ENDBRANCH   9  16
ENDBRANCH   5  10
BRANCH   2  18
ATOM     18  C   UNL     1      44.264  35.713  42.003  0.00  0.00    +0.000 C 
ATOM     19  H   UNL     1      44.149  34.916  41.234  0.00  0.00    +0.000 HD
ATOM     20  H   UNL     1      45.057  36.445  41.701  0.00  0.00    +0.000 HD
ATOM     21  H   UNL     1      43.287  36.201  42.098  0.00  0.00    +0.000 HD
ENDBRANCH   2  18
TORSDOF 3
