
 OpenBabel03242523223D

 43 46  0  0  1  0  0  0  0  0999 V2000
   47.2170   32.4000   44.4800 C   0  0  0  0  0  0  0  0  0  0  0  0
   48.0520   32.6260   43.4720 C   0  0  0  0  0  0  0  0  0  0  0  0
   48.7740   31.5230   43.0670 C   0  0  0  0  0  0  0  0  0  0  0  0
   48.5660   30.3080   43.7390 N   0  0  0  0  0  0  0  0  0  0  0  0
   47.7310   30.1530   44.7250 C   0  0  0  0  0  0  0  0  0  0  0  0
   46.9880   31.2340   45.1590 N   0  0  0  0  0  0  0  0  0  0  0  0
   49.5110   31.4380   42.2820 H   0  0  0  0  0  0  0  0  0  0  0  0
   47.6660   29.1520   45.1620 H   0  0  0  0  0  0  0  0  0  0  0  0
   48.3530   33.8670   42.8610 C   0  0  1  0  0  0  0  0  0  0  0  0
   49.2620   34.1440   41.8890 C   0  0  0  0  0  0  0  0  0  0  0  0
   47.8400   34.1540   41.4200 C   0  0  1  0  0  0  0  0  0  0  0  0
   48.2110   34.7240   43.5750 H   0  0  0  0  0  0  0  0  0  0  0  0
   49.9320   33.3160   41.5080 H   0  0  0  0  0  0  0  0  0  0  0  0
   49.7870   35.1040   41.6880 H   0  0  0  0  0  0  0  0  0  0  0  0
   47.3280   35.1340   41.3200 H   0  0  0  0  0  0  0  0  0  0  0  0
   46.3790   33.4180   39.4840 C   0  0  1  0  0  3  0  0  0  0  0  0
   47.4600   33.1140   40.4720 C   0  0  1  0  0  3  0  0  0  0  0  0
   48.6500   32.8710   39.5740 C   0  0  0  0  0  3  0  0  0  0  0  0
   49.5900   33.1270   40.1060 H   0  0  0  0  0  0  0  0  0  0  0  0
   48.4630   33.7570   38.5370 O   0  0  0  0  0  0  0  0  0  0  0  0
   47.1080   33.6530   38.2020 C   0  0  0  0  0  3  0  0  0  0  0  0
   46.7330   34.5800   37.7420 H   0  0  0  0  0  0  0  0  0  0  0  0
   45.6180   32.2440   39.3110 O   0  0  0  0  0  0  0  0  0  0  0  0
   45.7890   31.7990   38.4510 H   0  0  0  0  0  0  0  0  0  0  0  0
   46.2710   33.3710   45.0720 C   0  0  0  0  0  0  0  0  0  0  0  0
   45.7680   33.9690   45.9790 O   0  0  0  0  0  0  0  0  0  0  0  0
   44.5670   31.5340   43.2680 Cl  0  0  0  0  0  0  0  0  0  0  0  0
   44.6480   33.2740   43.0390 C   0  0  0  0  0  0  0  0  0  0  0  0
   45.4670   33.9750   43.9630 C   0  0  0  0  0  0  0  0  0  0  0  0
   45.4420   35.3230   43.6840 C   0  0  0  0  0  0  0  0  0  0  0  0
   44.8110   36.0070   42.7410 C   0  0  0  0  0  0  0  0  0  0  0  0
   44.0370   35.2580   41.8800 C   0  0  0  0  0  0  0  0  0  0  0  0
   43.9500   33.9050   42.0230 C   0  0  0  0  0  0  0  0  0  0  0  0
   46.0190   35.9990   44.3590 H   0  0  0  0  0  0  0  0  0  0  0  0
   44.8570   37.0850   42.5970 H   0  0  0  0  0  0  0  0  0  0  0  0
   43.4950   35.7910   41.0780 H   0  0  0  0  0  0  0  0  0  0  0  0
   43.1470   33.2760   41.1080 O   0  0  0  0  0  0  0  0  0  0  0  0
   41.0020   32.4510   39.8460 O   0  0  0  0  0  0  0  0  0  0  0  0
   41.5010   32.8760   41.2040 P   0  0  0  0  0  0  0  0  0  0  0  0
   41.2890   31.6440   42.3490 O   0  0  0  0  0  0  0  0  0  0  0  0
   41.3370   32.0010   43.2550 H   0  0  0  0  0  0  0  0  0  0  0  0
   40.5810   34.1810   41.7680 O   0  0  0  0  0  0  0  0  0  0  0  0
   39.6940   33.8390   42.0540 H   0  0  0  0  0  0  0  0  0  0  0  0
  1 25  1  0  0  0  0
  1  6  1  0  0  0  0
  2  1  2  0  0  0  0
  3  2  1  0  0  0  0
  3  4  2  0  0  0  0
  4  5  1  0  0  0  0
  5  6  2  0  0  0  0
  5  8  1  0  0  0  0
  7  3  1  0  0  0  0
  9  2  1  0  0  0  0
  9 12  1  1  0  0  0
 10  9  1  0  0  0  0
 11 15  1  6  0  0  0
 11 10  1  0  0  0  0
 11  9  1  0  0  0  0
 13 10  1  0  0  0  0
 14 10  1  0  0  0  0
 16 23  1  6  0  0  0
 16 17  1  0  0  0  0
 17 18  1  6  0  0  0
 17 11  1  0  0  0  0
 18 19  1  0  0  0  0
 20 18  1  0  0  0  0
 21 20  1  0  0  0  0
 21 16  1  0  0  0  0
 22 21  1  0  0  0  0
 24 23  1  0  0  0  0
 25 26  2  0  0  0  0
 28 27  1  0  0  0  0
 28 29  1  0  0  0  0
 29 25  1  0  0  0  0
 30 29  2  0  0  0  0
 30 34  1  0  0  0  0
 31 30  1  0  0  0  0
 32 33  1  0  0  0  0
 32 31  2  0  0  0  0
 33 28  2  0  0  0  0
 35 31  1  0  0  0  0
 36 32  1  0  0  0  0
 37 39  1  0  0  0  0
 37 33  1  0  0  0  0
 38 39  2  0  0  0  0
 39 42  1  0  0  0  0
 39 40  1  0  0  0  0
 40 41  1  0  0  0  0
 42 43  1  0  0  0  0
M  END
>  <minimizedAffinity>
-5.54707861

>  <minimizedRMSD>
1.47345221

$$$$
