
 OpenBabel03252509203D

 25 27  0  0  1  0  0  0  0  0999 V2000
   45.0550   34.1720   44.8680 C   0  0  0  0  0  0  0  0  0  0  0  0
   45.6450   33.9860   43.5970 C   0  0  0  0  0  0  0  0  0  0  0  0
   46.8530   33.3110   43.6330 C   0  0  0  0  0  0  0  0  0  0  0  0
   47.3800   32.8820   44.8420 N   0  0  0  0  0  0  0  0  0  0  0  0
   46.7690   33.0880   46.0150 C   0  0  0  0  0  0  0  0  0  0  0  0
   45.5960   33.7390   46.0280 N   0  0  0  0  0  0  0  0  0  0  0  0
   44.1150   34.6760   45.0390 H   0  0  0  0  0  0  0  0  0  0  0  0
   47.3800   32.6600   46.7950 H   0  0  0  0  0  0  0  0  0  0  0  0
   47.5310   32.9540   42.3320 C   0  0  0  0  0  0  0  0  0  0  0  0
   48.6040   34.0020   41.9860 C   0  0  0  0  0  0  0  0  0  0  0  0
   48.8990   32.5220   42.3750 C   0  0  0  0  0  0  0  0  0  0  0  0
   46.8590   32.8030   41.4560 H   0  0  0  0  0  0  0  0  0  0  0  0
   48.6570   34.2370   40.9120 H   0  0  0  0  0  0  0  0  0  0  0  0
   48.8140   34.7730   42.7150 H   0  0  0  0  0  0  0  0  0  0  0  0
   49.3570   31.9360   41.5260 H   0  0  0  0  0  0  0  0  0  0  0  0
   49.4590   32.4620   43.3530 H   0  0  0  0  0  0  0  0  0  0  0  0
   44.1900   35.7580   42.5700 C   0  0  1  0  0  3  0  0  0  0  0  0
   44.9930   34.4800   42.4150 C   0  0  2  0  0  3  0  0  0  0  0  0
   43.8960   33.6130   41.8420 C   0  0  0  0  0  3  0  0  0  0  0  0
   44.2790   32.7080   41.3720 H   0  0  0  0  0  0  0  0  0  0  0  0
   43.3730   34.4160   40.8200 O   0  0  0  0  0  0  0  0  0  0  0  0
   43.5520   35.7350   41.1780 C   0  0  0  0  0  3  0  0  0  0  0  0
   42.5840   36.2690   41.1750 H   0  0  0  0  0  0  0  0  0  0  0  0
   43.1420   35.6610   43.4570 O   0  0  0  0  0  0  0  0  0  0  0  0
   42.3760   35.1790   43.0560 H   0  0  0  0  0  0  0  0  0  0  0  0
  1  7  1  0  0  0  0
  1  6  1  0  0  0  0
  2  3  1  0  0  0  0
  2  1  2  0  0  0  0
  3  4  2  0  0  0  0
  4  5  1  0  0  0  0
  5  6  2  0  0  0  0
  5  8  1  0  0  0  0
  9 11  1  0  0  0  0
  9  3  1  0  0  0  0
 10  9  1  0  0  0  0
 10 11  1  0  0  0  0
 10 14  1  0  0  0  0
 11 16  1  0  0  0  0
 12  9  1  0  0  0  0
 13 10  1  0  0  0  0
 15 11  1  0  0  0  0
 17 24  1  1  0  0  0
 18 17  1  0  0  0  0
 18  2  1  1  0  0  0
 19 18  1  0  0  0  0
 20 19  1  0  0  0  0
 21 22  1  0  0  0  0
 21 19  1  0  0  0  0
 22 17  1  0  0  0  0
 23 22  1  0  0  0  0
 25 24  1  0  0  0  0
M  END
>  <minimizedAffinity>
-3.96958089

>  <minimizedRMSD>
2.55906248

$$$$
