
 OpenBabel03252509043D

 48 50  0  0  1  0  0  0  0  0999 V2000
   47.1360   34.1910   43.1490 N   0  0  0  0  0  0  0  0  0  0  0  0
   46.6400   35.3720   42.5550 C   0  0  0  0  0  0  0  0  0  0  0  0
   45.1370   35.5570   42.7020 C   0  0  0  0  0  0  0  0  0  0  0  0
   44.5880   35.0480   44.0130 C   0  0  0  0  0  0  0  0  0  0  0  0
   45.6900   34.5350   44.9210 C   0  0  0  0  0  0  0  0  0  0  0  0
   46.4030   33.4370   44.0310 C   0  0  2  0  0  0  0  0  0  0  0  0
   46.8570   35.5060   41.4910 H   0  0  0  0  0  0  0  0  0  0  0  0
   47.1120   36.2370   43.0700 H   0  0  0  0  0  0  0  0  0  0  0  0
   44.9210   36.6320   42.5320 H   0  0  0  0  0  0  0  0  0  0  0  0
   44.6660   35.0050   41.8540 H   0  0  0  0  0  0  0  0  0  0  0  0
   43.8730   34.2260   43.8480 H   0  0  0  0  0  0  0  0  0  0  0  0
   44.0500   35.8400   44.5670 H   0  0  0  0  0  0  0  0  0  0  0  0
   46.4260   35.2930   45.1860 H   0  0  0  0  0  0  0  0  0  0  0  0
   45.2040   34.0120   45.7590 H   0  0  0  0  0  0  0  0  0  0  0  0
   45.6020   32.7920   43.6200 H   0  0  0  0  0  0  0  0  0  0  0  0
   48.1870   33.5490   42.4000 C   0  0  0  0  0  0  0  0  0  0  0  0
   48.7570   32.9140   43.1410 H   0  0  0  0  0  0  0  0  0  0  0  0
   48.8640   34.2770   41.9410 H   0  0  0  0  0  0  0  0  0  0  0  0
   47.5590   32.6140   41.4320 C   0  0  0  0  0  0  0  0  0  0  0  0
   47.6840   31.5360   41.6700 H   0  0  0  0  0  0  0  0  0  0  0  0
   46.4450   32.7570   41.3720 H   0  0  0  0  0  0  0  0  0  0  0  0
   49.4080   32.2540   38.1860 C   0  0  0  0  0  0  0  0  0  0  0  0
   48.9190   32.0070   39.4850 C   0  0  0  0  0  0  0  0  0  0  0  0
   48.0570   32.8990   40.0660 C   0  0  0  0  0  0  0  0  0  0  0  0
   47.7220   33.9700   39.3540 N   0  0  0  0  0  0  0  0  0  0  0  0
   48.1750   34.2200   38.1240 C   0  0  0  0  0  0  0  0  0  0  0  0
   49.0280   33.3620   37.5180 N   0  0  0  0  0  0  0  0  0  0  0  0
   50.0880   31.4870   37.8110 H   0  0  0  0  0  0  0  0  0  0  0  0
   49.2130   31.1230   40.0360 H   0  0  0  0  0  0  0  0  0  0  0  0
   47.8960   35.1010   37.5480 H   0  0  0  0  0  0  0  0  0  0  0  0
   47.1720   32.7970   44.9870 O   0  0  0  0  0  0  0  0  0  0  0  0
   47.4120   30.2830   44.1320 O   0  0  0  0  0  0  0  0  0  0  0  0
   46.7450   31.1790   45.1740 P   0  0  2  0  0  0  0  0  0  0  0  0
   45.0670   31.1070   44.8200 O   0  0  0  0  0  0  0  0  0  0  0  0
   44.5450   31.1200   45.6610 H   0  0  0  0  0  0  0  0  0  0  0  0
   46.9640   30.6180   46.7320 O   0  0  0  0  0  0  0  0  0  0  0  0
   48.1550   29.9230   46.7870 C   0  0  0  0  0  0  0  0  0  0  0  0
   48.9700   30.5930   46.3950 H   0  0  0  0  0  0  0  0  0  0  0  0
   48.1890   28.9790   46.2510 H   0  0  0  0  0  0  0  0  0  0  0  0
   50.3070   30.6740   49.4720 C   0  0  2  0  0  3  0  0  0  0  0  0
   49.9920   29.6130   48.4580 C   0  0  0  0  0  3  0  0  0  0  0  0
   50.5800   29.6810   47.5210 H   0  0  0  0  0  0  0  0  0  0  0  0
   48.5070   29.7480   48.2720 C   0  0  1  0  0  3  0  0  0  0  0  0
   48.0740   30.8110   49.0170 O   0  0  0  0  0  0  0  0  0  0  0  0
   49.1580   31.6380   49.2670 C   0  0  0  0  0  3  0  0  0  0  0  0
   48.9670   32.2530   50.1790 H   0  0  0  0  0  0  0  0  0  0  0  0
   51.5280   31.2580   49.1400 O   0  0  0  0  0  0  0  0  0  0  0  0
   51.6040   31.2450   48.1360 H   0  0  0  0  0  0  0  0  0  0  0  0
  1  6  1  0  0  0  0
  2  3  1  0  0  0  0
  2  8  1  0  0  0  0
  2  1  1  0  0  0  0
  3  4  1  0  0  0  0
  4 12  1  0  0  0  0
  4  5  1  0  0  0  0
  5 13  1  0  0  0  0
  5 14  1  0  0  0  0
  6 15  1  6  0  0  0
  6  5  1  0  0  0  0
  6 31  1  0  0  0  0
  7  2  1  0  0  0  0
  9  3  1  0  0  0  0
 10  3  1  0  0  0  0
 11  4  1  0  0  0  0
 16 17  1  0  0  0  0
 16  1  1  0  0  0  0
 18 16  1  0  0  0  0
 19 20  1  0  0  0  0
 19 16  1  0  0  0  0
 21 19  1  0  0  0  0
 22 23  1  0  0  0  0
 23 29  1  0  0  0  0
 23 24  2  0  0  0  0
 24 19  1  0  0  0  0
 25 24  1  0  0  0  0
 26 25  2  0  0  0  0
 27 26  1  0  0  0  0
 27 22  2  0  0  0  0
 28 22  1  0  0  0  0
 30 26  1  0  0  0  0
 31 33  1  0  0  0  0
 33 32  2  6  0  0  0
 33 36  1  0  0  0  0
 34 33  1  0  0  0  0
 34 35  1  0  0  0  0
 36 37  1  0  0  0  0
 38 37  1  0  0  0  0
 39 37  1  0  0  0  0
 40 47  1  6  0  0  0
 41 40  1  0  0  0  0
 42 41  1  0  0  0  0
 43 37  1  6  0  0  0
 43 41  1  0  0  0  0
 43 44  1  0  0  0  0
 44 45  1  0  0  0  0
 45 40  1  0  0  0  0
 45 46  1  0  0  0  0
 48 47  1  0  0  0  0
M  END
>  <minimizedAffinity>
-4.40423155

>  <minimizedRMSD>
2.04096675

$$$$
