
 OpenBabel03252509173D

 25 27  0  0  1  0  0  0  0  0999 V2000
   37.5490   28.8280   41.6030 C   0  0  0  0  0  0  0  0  0  0  0  0
   37.1570   28.3880   42.8950 C   0  0  0  0  0  0  0  0  0  0  0  0
   36.9690   27.0720   43.1060 C   0  0  0  0  0  0  0  0  0  0  0  0
   37.1690   26.1700   42.0350 C   0  0  0  0  0  0  0  0  0  0  0  0
   37.6480   27.2700   40.6610 S   0  0  0  0  0  0  0  0  0  0  0  0
   37.0130   29.0990   43.6890 H   0  0  0  0  0  0  0  0  0  0  0  0
   36.6800   26.5920   44.0020 H   0  0  0  0  0  0  0  0  0  0  0  0
   37.2990   32.3050   40.3370 C   0  0  0  0  0  0  0  0  0  0  0  0
   38.5630   32.8000   40.7350 C   0  0  0  0  0  0  0  0  0  0  0  0
   39.4350   31.9270   41.4140 C   0  0  0  0  0  0  0  0  0  0  0  0
   39.0040   30.6430   41.6490 N   0  0  0  0  0  0  0  0  0  0  0  0
   37.7820   30.2280   41.2430 C   0  0  0  0  0  0  0  0  0  0  0  0
   36.9250   31.0490   40.5870 N   0  0  0  0  0  0  0  0  0  0  0  0
   36.6330   32.9780   39.8160 H   0  0  0  0  0  0  0  0  0  0  0  0
   38.8960   33.8130   40.5470 H   0  0  0  0  0  0  0  0  0  0  0  0
   40.4190   32.2180   41.7550 H   0  0  0  0  0  0  0  0  0  0  0  0
   38.4810   24.1910   41.6810 C   0  0  2  0  0  3  0  0  0  0  0  0
   37.0880   24.7700   41.8200 C   0  0  2  0  0  3  0  0  0  0  0  0
   36.5190   24.4780   40.4680 C   0  0  0  0  0  3  0  0  0  0  0  0
   36.6540   25.3070   39.7290 H   0  0  0  0  0  0  0  0  0  0  0  0
   37.0970   23.3040   40.0060 O   0  0  0  0  0  0  0  0  0  0  0  0
   38.1320   22.9520   40.8530 C   0  0  0  0  0  3  0  0  0  0  0  0
   37.7730   22.1590   41.5510 H   0  0  0  0  0  0  0  0  0  0  0  0
   39.0030   23.7930   42.9070 O   0  0  0  0  0  0  0  0  0  0  0  0
   38.3990   24.0470   43.6440 H   0  0  0  0  0  0  0  0  0  0  0  0
  1  2  2  0  0  0  0
  2  3  1  0  0  0  0
  2  6  1  0  0  0  0
  3  7  1  0  0  0  0
  4  3  2  0  0  0  0
  5  1  1  0  0  0  0
  5  4  1  0  0  0  0
  8 13  2  0  0  0  0
  8  9  1  0  0  0  0
  9 10  2  0  0  0  0
 10 11  1  0  0  0  0
 10 16  1  0  0  0  0
 12  1  1  0  0  0  0
 12 11  2  0  0  0  0
 13 12  1  0  0  0  0
 14  8  1  0  0  0  0
 15  9  1  0  0  0  0
 17 18  1  0  0  0  0
 17 24  1  1  0  0  0
 18  4  1  6  0  0  0
 19 18  1  0  0  0  0
 20 19  1  0  0  0  0
 21 19  1  0  0  0  0
 21 22  1  0  0  0  0
 22 23  1  0  0  0  0
 22 17  1  0  0  0  0
 24 25  1  0  0  0  0
M  END
>  <minimizedAffinity>
-4.97063208

$$$$

 OpenBabel03252509173D

 25 27  0  0  1  0  0  0  0  0999 V2000
   37.3870   25.9370   41.2450 C   0  0  0  0  0  0  0  0  0  0  0  0
   36.8970   26.2970   42.5290 C   0  0  0  0  0  0  0  0  0  0  0  0
   36.9270   27.5910   42.8980 C   0  0  0  0  0  0  0  0  0  0  0  0
   37.4450   28.5500   41.9970 C   0  0  0  0  0  0  0  0  0  0  0  0
   37.9110   27.5400   40.5510 S   0  0  0  0  0  0  0  0  0  0  0  0
   36.5090   25.5440   43.1910 H   0  0  0  0  0  0  0  0  0  0  0  0
   36.6040   28.0140   43.8110 H   0  0  0  0  0  0  0  0  0  0  0  0
   38.2790   22.4590   40.3170 C   0  0  0  0  0  0  0  0  0  0  0  0
   37.1090   22.0880   39.6130 C   0  0  0  0  0  0  0  0  0  0  0  0
   36.0770   23.0380   39.4920 C   0  0  0  0  0  0  0  0  0  0  0  0
   36.2690   24.2730   40.0650 N   0  0  0  0  0  0  0  0  0  0  0  0
   37.4120   24.5680   40.7250 C   0  0  0  0  0  0  0  0  0  0  0  0
   38.4200   23.6710   40.8550 N   0  0  0  0  0  0  0  0  0  0  0  0
   39.0690   21.7270   40.4080 H   0  0  0  0  0  0  0  0  0  0  0  0
   36.9640   21.1130   39.1650 H   0  0  0  0  0  0  0  0  0  0  0  0
   35.1490   22.8420   38.9720 H   0  0  0  0  0  0  0  0  0  0  0  0
   36.7850   30.5850   40.9080 C   0  0  2  0  0  3  0  0  0  0  0  0
   37.6580   29.9530   41.9730 C   0  0  2  0  0  3  0  0  0  0  0  0
   39.0230   30.2680   41.4490 C   0  0  0  0  0  3  0  0  0  0  0  0
   39.4560   29.4690   40.7970 H   0  0  0  0  0  0  0  0  0  0  0  0
   38.9510   31.4770   40.7710 O   0  0  0  0  0  0  0  0  0  0  0  0
   37.6220   31.8370   40.6400 C   0  0  0  0  0  3  0  0  0  0  0  0
   37.3750   32.5930   41.4220 H   0  0  0  0  0  0  0  0  0  0  0  0
   35.5440   30.9610   41.4100 O   0  0  0  0  0  0  0  0  0  0  0  0
   35.4380   30.6610   42.3440 H   0  0  0  0  0  0  0  0  0  0  0  0
  1  2  2  0  0  0  0
  2  3  1  0  0  0  0
  2  6  1  0  0  0  0
  3  7  1  0  0  0  0
  4  3  2  0  0  0  0
  5  1  1  0  0  0  0
  5  4  1  0  0  0  0
  8 14  1  0  0  0  0
  8 13  1  0  0  0  0
  9  8  2  0  0  0  0
 10  9  1  0  0  0  0
 10 11  2  0  0  0  0
 11 12  1  0  0  0  0
 12 13  2  0  0  0  0
 12  1  1  0  0  0  0
 15  9  1  0  0  0  0
 16 10  1  0  0  0  0
 17 24  1  1  0  0  0
 17 18  1  0  0  0  0
 18  4  1  6  0  0  0
 19 18  1  0  0  0  0
 20 19  1  0  0  0  0
 21 19  1  0  0  0  0
 22 21  1  0  0  0  0
 22 17  1  0  0  0  0
 22 23  1  0  0  0  0
 24 25  1  0  0  0  0
M  END
>  <minimizedAffinity>
-4.96195555

$$$$

 OpenBabel03252509173D

 25 27  0  0  1  0  0  0  0  0999 V2000
   36.9910   28.2290   40.8140 C   0  0  0  0  0  0  0  0  0  0  0  0
   35.9080   29.1470   40.7830 C   0  0  0  0  0  0  0  0  0  0  0  0
   36.1700   30.4650   40.8530 C   0  0  0  0  0  0  0  0  0  0  0  0
   37.5150   30.8940   40.9550 C   0  0  0  0  0  0  0  0  0  0  0  0
   38.4430   29.3230   40.9510 S   0  0  0  0  0  0  0  0  0  0  0  0
   34.8970   28.7900   40.7040 H   0  0  0  0  0  0  0  0  0  0  0  0
   35.4810   31.2660   40.8420 H   0  0  0  0  0  0  0  0  0  0  0  0
   36.3970   24.7180   39.7720 C   0  0  0  0  0  0  0  0  0  0  0  0
   36.6560   24.0560   40.9950 C   0  0  0  0  0  0  0  0  0  0  0  0
   37.0200   24.8350   42.1100 C   0  0  0  0  0  0  0  0  0  0  0  0
   37.1010   26.1970   41.9430 N   0  0  0  0  0  0  0  0  0  0  0  0
   36.8410   26.7730   40.7470 C   0  0  0  0  0  0  0  0  0  0  0  0
   36.4890   26.0440   39.6590 N   0  0  0  0  0  0  0  0  0  0  0  0
   36.1190   24.1170   38.9190 H   0  0  0  0  0  0  0  0  0  0  0  0
   36.5900   22.9820   41.1190 H   0  0  0  0  0  0  0  0  0  0  0  0
   37.2350   24.4150   43.0830 H   0  0  0  0  0  0  0  0  0  0  0  0
   38.0320   32.9170   39.7730 C   0  0  2  0  0  3  0  0  0  0  0  0
   38.2140   32.1240   41.0500 C   0  0  2  0  0  3  0  0  0  0  0  0
   39.6920   31.8910   41.0350 C   0  0  0  0  0  3  0  0  0  0  0  0
   39.9960   30.9330   40.5440 H   0  0  0  0  0  0  0  0  0  0  0  0
   40.2890   32.9780   40.4120 O   0  0  0  0  0  0  0  0  0  0  0  0
   39.3030   33.7660   39.8470 C   0  0  0  0  0  3  0  0  0  0  0  0
   39.1030   34.6310   40.5210 H   0  0  0  0  0  0  0  0  0  0  0  0
   36.9190   33.7500   39.8330 O   0  0  0  0  0  0  0  0  0  0  0  0
   36.4110   33.5960   40.6640 H   0  0  0  0  0  0  0  0  0  0  0  0
  1  5  1  0  0  0  0
  2  1  2  0  0  0  0
  2  3  1  0  0  0  0
  3  4  2  0  0  0  0
  5  4  1  0  0  0  0
  6  2  1  0  0  0  0
  7  3  1  0  0  0  0
  8  9  1  0  0  0  0
  9 15  1  0  0  0  0
  9 10  2  0  0  0  0
 10 16  1  0  0  0  0
 11 10  1  0  0  0  0
 12  1  1  0  0  0  0
 12 11  2  0  0  0  0
 13  8  2  0  0  0  0
 13 12  1  0  0  0  0
 14  8  1  0  0  0  0
 17 24  1  1  0  0  0
 17 22  1  0  0  0  0
 17 18  1  0  0  0  0
 18  4  1  6  0  0  0
 19 18  1  0  0  0  0
 20 19  1  0  0  0  0
 21 19  1  0  0  0  0
 22 21  1  0  0  0  0
 22 23  1  0  0  0  0
 24 25  1  0  0  0  0
M  END
>  <minimizedAffinity>
-4.93378735

$$$$

 OpenBabel03252509173D

 25 27  0  0  1  0  0  0  0  0999 V2000
   37.8650   28.0260   41.3820 C   0  0  0  0  0  0  0  0  0  0  0  0
   38.2620   28.4680   42.6720 C   0  0  0  0  0  0  0  0  0  0  0  0
   38.7020   29.7310   42.8210 C   0  0  0  0  0  0  0  0  0  0  0  0
   38.7540   30.5780   41.6880 C   0  0  0  0  0  0  0  0  0  0  0  0
   38.1420   29.5020   40.3480 S   0  0  0  0  0  0  0  0  0  0  0  0
   38.2100   27.8000   43.5130 H   0  0  0  0  0  0  0  0  0  0  0  0
   39.0300   30.2050   43.7060 H   0  0  0  0  0  0  0  0  0  0  0  0
   36.4670   24.9740   39.8040 C   0  0  0  0  0  0  0  0  0  0  0  0
   36.5340   24.0820   40.9010 C   0  0  0  0  0  0  0  0  0  0  0  0
   37.0510   24.5630   42.1190 C   0  0  0  0  0  0  0  0  0  0  0  0
   37.4610   25.8740   42.1700 N   0  0  0  0  0  0  0  0  0  0  0  0
   37.3710   26.6790   41.0870 C   0  0  0  0  0  0  0  0  0  0  0  0
   36.8760   26.2400   39.9030 N   0  0  0  0  0  0  0  0  0  0  0  0
   36.0690   24.6010   38.8720 H   0  0  0  0  0  0  0  0  0  0  0  0
   36.2100   23.0500   40.8530 H   0  0  0  0  0  0  0  0  0  0  0  0
   37.1400   23.9530   43.0080 H   0  0  0  0  0  0  0  0  0  0  0  0
   38.3650   32.4150   40.1950 C   0  0  2  0  0  3  0  0  0  0  0  0
   39.1330   31.9150   41.4000 C   0  0  2  0  0  3  0  0  0  0  0  0
   40.5370   31.9640   40.8870 C   0  0  0  0  0  3  0  0  0  0  0  0
   40.8860   31.0080   40.4240 H   0  0  0  0  0  0  0  0  0  0  0  0
   40.6240   33.0140   39.9840 O   0  0  0  0  0  0  0  0  0  0  0  0
   39.3510   33.4880   39.7250 C   0  0  0  0  0  3  0  0  0  0  0  0
   39.1790   34.4070   40.3320 H   0  0  0  0  0  0  0  0  0  0  0  0
   37.1660   33.0220   40.5570 O   0  0  0  0  0  0  0  0  0  0  0  0
   37.0050   32.9280   41.5260 H   0  0  0  0  0  0  0  0  0  0  0  0
  1  2  2  0  0  0  0
  2  3  1  0  0  0  0
  2  6  1  0  0  0  0
  3  7  1  0  0  0  0
  4  3  2  0  0  0  0
  5  1  1  0  0  0  0
  5  4  1  0  0  0  0
  8 13  2  0  0  0  0
  8  9  1  0  0  0  0
  9 10  2  0  0  0  0
 10 11  1  0  0  0  0
 10 16  1  0  0  0  0
 12  1  1  0  0  0  0
 12 11  2  0  0  0  0
 13 12  1  0  0  0  0
 14  8  1  0  0  0  0
 15  9  1  0  0  0  0
 17 24  1  1  0  0  0
 17 18  1  0  0  0  0
 18  4  1  6  0  0  0
 19 18  1  0  0  0  0
 20 19  1  0  0  0  0
 21 19  1  0  0  0  0
 22 21  1  0  0  0  0
 22 17  1  0  0  0  0
 22 23  1  0  0  0  0
 24 25  1  0  0  0  0
M  END
>  <minimizedAffinity>
-4.82965565

$$$$

 OpenBabel03252509173D

 25 27  0  0  1  0  0  0  0  0999 V2000
   38.8840   31.3440   39.3920 C   0  0  0  0  0  0  0  0  0  0  0  0
   37.5530   31.3090   38.8970 C   0  0  0  0  0  0  0  0  0  0  0  0
   36.6800   30.4400   39.4390 C   0  0  0  0  0  0  0  0  0  0  0  0
   37.1150   29.5900   40.4830 C   0  0  0  0  0  0  0  0  0  0  0  0
   38.8640   30.0660   40.6920 S   0  0  0  0  0  0  0  0  0  0  0  0
   37.2520   31.9680   38.1030 H   0  0  0  0  0  0  0  0  0  0  0  0
   35.6650   30.2930   39.1840 H   0  0  0  0  0  0  0  0  0  0  0  0
   41.4910   33.0590   37.3860 C   0  0  0  0  0  0  0  0  0  0  0  0
   41.8430   34.0950   38.2830 C   0  0  0  0  0  0  0  0  0  0  0  0
   41.1760   34.1600   39.5210 C   0  0  0  0  0  0  0  0  0  0  0  0
   40.2200   33.2070   39.7860 N   0  0  0  0  0  0  0  0  0  0  0  0
   39.9280   32.2390   38.8880 C   0  0  0  0  0  0  0  0  0  0  0  0
   40.5560   32.1560   37.6890 N   0  0  0  0  0  0  0  0  0  0  0  0
   42.0050   33.0130   36.4370 H   0  0  0  0  0  0  0  0  0  0  0  0
   42.5960   34.8430   38.0670 H   0  0  0  0  0  0  0  0  0  0  0  0
   41.3790   34.9160   40.2660 H   0  0  0  0  0  0  0  0  0  0  0  0
   37.3800   28.4310   42.5680 C   0  0  2  0  0  3  0  0  0  0  0  0
   36.5600   28.5730   41.3030 C   0  0  2  0  0  3  0  0  0  0  0  0
   36.7610   27.2280   40.6790 C   0  0  0  0  0  3  0  0  0  0  0  0
   37.6220   27.1810   39.9670 H   0  0  0  0  0  0  0  0  0  0  0  0
   36.9110   26.3020   41.7010 O   0  0  0  0  0  0  0  0  0  0  0  0
   37.0370   26.9770   42.9020 C   0  0  0  0  0  3  0  0  0  0  0  0
   36.0530   26.9650   43.4270 H   0  0  0  0  0  0  0  0  0  0  0  0
   36.9120   29.2570   43.5850 O   0  0  0  0  0  0  0  0  0  0  0  0
   36.1910   29.8440   43.2560 H   0  0  0  0  0  0  0  0  0  0  0  0
  1  5  1  0  0  0  0
  2  1  2  0  0  0  0
  2  3  1  0  0  0  0
  3  4  2  0  0  0  0
  4  5  1  0  0  0  0
  6  2  1  0  0  0  0
  7  3  1  0  0  0  0
  8 13  2  0  0  0  0
  8  9  1  0  0  0  0
  9 10  2  0  0  0  0
 10 11  1  0  0  0  0
 10 16  1  0  0  0  0
 12  1  1  0  0  0  0
 12 11  2  0  0  0  0
 13 12  1  0  0  0  0
 14  8  1  0  0  0  0
 15  9  1  0  0  0  0
 17 22  1  0  0  0  0
 17 24  1  1  0  0  0
 18  4  1  6  0  0  0
 18 17  1  0  0  0  0
 19 18  1  0  0  0  0
 19 21  1  0  0  0  0
 20 19  1  0  0  0  0
 21 22  1  0  0  0  0
 22 23  1  0  0  0  0
 25 24  1  0  0  0  0
M  END
>  <minimizedAffinity>
-4.75161743

$$$$

 OpenBabel03252509173D

 25 27  0  0  1  0  0  0  0  0999 V2000
   37.6200   28.8600   40.0610 C   0  0  0  0  0  0  0  0  0  0  0  0
   36.6330   29.7250   39.5190 C   0  0  0  0  0  0  0  0  0  0  0  0
   36.9970   30.9570   39.1180 C   0  0  0  0  0  0  0  0  0  0  0  0
   38.3500   31.3510   39.2500 C   0  0  0  0  0  0  0  0  0  0  0  0
   39.1320   29.8760   39.9860 S   0  0  0  0  0  0  0  0  0  0  0  0
   35.6130   29.3970   39.4310 H   0  0  0  0  0  0  0  0  0  0  0  0
   36.3870   31.7110   38.6980 H   0  0  0  0  0  0  0  0  0  0  0  0
   36.8550   25.2430   40.3650 C   0  0  0  0  0  0  0  0  0  0  0  0
   36.9080   25.1010   41.7710 C   0  0  0  0  0  0  0  0  0  0  0  0
   37.2030   26.2400   42.5440 C   0  0  0  0  0  0  0  0  0  0  0  0
   37.4210   27.4260   41.8830 N   0  0  0  0  0  0  0  0  0  0  0  0
   37.3550   27.4990   40.5340 C   0  0  0  0  0  0  0  0  0  0  0  0
   37.0730   26.4160   39.7690 N   0  0  0  0  0  0  0  0  0  0  0  0
   36.6280   24.3660   39.7750 H   0  0  0  0  0  0  0  0  0  0  0  0
   36.7370   24.1640   42.2850 H   0  0  0  0  0  0  0  0  0  0  0  0
   37.2650   26.2260   43.6240 H   0  0  0  0  0  0  0  0  0  0  0  0
   40.1760   32.1650   37.9220 C   0  0  2  0  0  3  0  0  0  0  0  0
   39.1360   32.4990   38.9710 C   0  0  2  0  0  3  0  0  0  0  0  0
   40.0050   32.8370   40.1400 C   0  0  0  0  0  3  0  0  0  0  0  0
   40.2220   31.9690   40.8120 H   0  0  0  0  0  0  0  0  0  0  0  0
   41.1800   33.3920   39.6520 O   0  0  0  0  0  0  0  0  0  0  0  0
   41.2120   33.2340   38.2780 C   0  0  0  0  0  3  0  0  0  0  0  0
   40.9010   34.1910   37.7980 H   0  0  0  0  0  0  0  0  0  0  0  0
   39.7060   32.3930   36.6330 O   0  0  0  0  0  0  0  0  0  0  0  0
   38.7520   32.6440   36.6480 H   0  0  0  0  0  0  0  0  0  0  0  0
  1 12  1  0  0  0  0
  2  1  2  0  0  0  0
  3  4  2  0  0  0  0
  3  2  1  0  0  0  0
  4  5  1  0  0  0  0
  5  1  1  0  0  0  0
  6  2  1  0  0  0  0
  7  3  1  0  0  0  0
  8  9  1  0  0  0  0
  9 15  1  0  0  0  0
  9 10  2  0  0  0  0
 10 16  1  0  0  0  0
 11 10  1  0  0  0  0
 12 11  2  0  0  0  0
 13  8  2  0  0  0  0
 13 12  1  0  0  0  0
 14  8  1  0  0  0  0
 17 24  1  6  0  0  0
 17 22  1  0  0  0  0
 17 18  1  0  0  0  0
 18  4  1  1  0  0  0
 18 19  1  0  0  0  0
 19 20  1  0  0  0  0
 21 19  1  0  0  0  0
 22 21  1  0  0  0  0
 23 22  1  0  0  0  0
 24 25  1  0  0  0  0
M  END
>  <minimizedAffinity>
-4.57824039

$$$$

 OpenBabel03252509173D

 25 27  0  0  1  0  0  0  0  0999 V2000
   37.7600   27.9870   41.0500 C   0  0  0  0  0  0  0  0  0  0  0  0
   36.7890   28.8580   41.6140 C   0  0  0  0  0  0  0  0  0  0  0  0
   36.8500   30.1720   41.3290 C   0  0  0  0  0  0  0  0  0  0  0  0
   37.8780   30.6440   40.4790 C   0  0  0  0  0  0  0  0  0  0  0  0
   38.7990   29.1220   40.0720 S   0  0  0  0  0  0  0  0  0  0  0  0
   36.0200   28.4680   42.2560 H   0  0  0  0  0  0  0  0  0  0  0  0
   36.2090   30.9400   41.6670 H   0  0  0  0  0  0  0  0  0  0  0  0
   38.5590   24.5540   42.2030 C   0  0  0  0  0  0  0  0  0  0  0  0
   37.6050   23.8200   41.4600 C   0  0  0  0  0  0  0  0  0  0  0  0
   36.7380   24.5290   40.6070 C   0  0  0  0  0  0  0  0  0  0  0  0
   36.8730   25.8970   40.5460 N   0  0  0  0  0  0  0  0  0  0  0  0
   37.8060   26.5420   41.2820 C   0  0  0  0  0  0  0  0  0  0  0  0
   38.6520   25.8810   42.1100 N   0  0  0  0  0  0  0  0  0  0  0  0
   39.2230   24.0050   42.8570 H   0  0  0  0  0  0  0  0  0  0  0  0
   37.5040   22.7430   41.5130 H   0  0  0  0  0  0  0  0  0  0  0  0
   35.9790   24.0530   40.0020 H   0  0  0  0  0  0  0  0  0  0  0  0
   38.6440   32.8410   41.0650 C   0  0  2  0  0  3  0  0  0  0  0  0
   38.2990   31.8870   39.9410 C   0  0  2  0  0  3  0  0  0  0  0  0
   37.1500   32.5990   39.3020 C   0  0  0  0  0  3  0  0  0  0  0  0
   36.1490   32.2960   39.6990 H   0  0  0  0  0  0  0  0  0  0  0  0
   37.3530   33.9630   39.4590 O   0  0  0  0  0  0  0  0  0  0  0  0
   38.4130   34.1610   40.3250 C   0  0  0  0  0  3  0  0  0  0  0  0
   39.3280   34.3880   39.7270 H   0  0  0  0  0  0  0  0  0  0  0  0
   39.9830   32.7500   41.4330 O   0  0  0  0  0  0  0  0  0  0  0  0
   40.4290   32.0150   40.9490 H   0  0  0  0  0  0  0  0  0  0  0  0
  1 12  1  0  0  0  0
  1  2  2  0  0  0  0
  2  6  1  0  0  0  0
  3  2  1  0  0  0  0
  3  7  1  0  0  0  0
  4  3  2  0  0  0  0
  5  4  1  0  0  0  0
  5  1  1  0  0  0  0
  8 14  1  0  0  0  0
  9 15  1  0  0  0  0
  9  8  2  0  0  0  0
 10  9  1  0  0  0  0
 11 10  2  0  0  0  0
 11 12  1  0  0  0  0
 12 13  2  0  0  0  0
 13  8  1  0  0  0  0
 16 10  1  0  0  0  0
 17 24  1  6  0  0  0
 18  4  1  1  0  0  0
 18 17  1  0  0  0  0
 19 21  1  0  0  0  0
 19 20  1  0  0  0  0
 19 18  1  0  0  0  0
 21 22  1  0  0  0  0
 22 17  1  0  0  0  0
 23 22  1  0  0  0  0
 25 24  1  0  0  0  0
M  END
>  <minimizedAffinity>
-4.55173206

$$$$

 OpenBabel03252509173D

 25 27  0  0  1  0  0  0  0  0999 V2000
   39.7260   32.5100   39.4910 C   0  0  0  0  0  0  0  0  0  0  0  0
   38.6630   33.3920   39.8220 C   0  0  0  0  0  0  0  0  0  0  0  0
   37.5170   32.8780   40.3040 C   0  0  0  0  0  0  0  0  0  0  0  0
   37.4070   31.4770   40.4670 C   0  0  0  0  0  0  0  0  0  0  0  0
   39.0320   30.8730   39.8970 S   0  0  0  0  0  0  0  0  0  0  0  0
   38.7780   34.4520   39.6870 H   0  0  0  0  0  0  0  0  0  0  0  0
   36.6430   33.3970   40.5930 H   0  0  0  0  0  0  0  0  0  0  0  0
   42.9870   34.1610   38.8620 C   0  0  0  0  0  0  0  0  0  0  0  0
   43.3760   33.4870   37.6800 C   0  0  0  0  0  0  0  0  0  0  0  0
   42.5110   32.5060   37.1590 C   0  0  0  0  0  0  0  0  0  0  0  0
   41.3370   32.2620   37.8310 N   0  0  0  0  0  0  0  0  0  0  0  0
   41.0200   32.9400   38.9570 C   0  0  0  0  0  0  0  0  0  0  0  0
   41.8360   33.8890   39.4780 N   0  0  0  0  0  0  0  0  0  0  0  0
   43.6540   34.9130   39.2590 H   0  0  0  0  0  0  0  0  0  0  0  0
   44.3030   33.6850   37.1560 H   0  0  0  0  0  0  0  0  0  0  0  0
   42.7260   31.9410   36.2620 H   0  0  0  0  0  0  0  0  0  0  0  0
   37.1080   29.4070   41.6440 C   0  0  2  0  0  3  0  0  0  0  0  0
   36.4310   30.5510   40.9190 C   0  0  2  0  0  3  0  0  0  0  0  0
   35.8140   29.8320   39.7620 C   0  0  0  0  0  3  0  0  0  0  0  0
   36.4600   29.7990   38.8490 H   0  0  0  0  0  0  0  0  0  0  0  0
   35.4860   28.5500   40.1820 O   0  0  0  0  0  0  0  0  0  0  0  0
   36.0370   28.3350   41.4320 C   0  0  0  0  0  3  0  0  0  0  0  0
   35.2450   28.4780   42.2040 H   0  0  0  0  0  0  0  0  0  0  0  0
   37.2400   29.6610   43.0060 O   0  0  0  0  0  0  0  0  0  0  0  0
   36.9460   30.5780   43.2210 H   0  0  0  0  0  0  0  0  0  0  0  0
  1  2  2  0  0  0  0
  1  5  1  0  0  0  0
  2  3  1  0  0  0  0
  3  4  2  0  0  0  0
  3  7  1  0  0  0  0
  5  4  1  0  0  0  0
  6  2  1  0  0  0  0
  8 14  1  0  0  0  0
  8 13  1  0  0  0  0
  9  8  2  0  0  0  0
 10  9  1  0  0  0  0
 10 11  2  0  0  0  0
 11 12  1  0  0  0  0
 12 13  2  0  0  0  0
 12  1  1  0  0  0  0
 15  9  1  0  0  0  0
 16 10  1  0  0  0  0
 17 24  1  1  0  0  0
 18  4  1  6  0  0  0
 18 17  1  0  0  0  0
 19 21  1  0  0  0  0
 19 18  1  0  0  0  0
 20 19  1  0  0  0  0
 21 22  1  0  0  0  0
 22 17  1  0  0  0  0
 22 23  1  0  0  0  0
 24 25  1  0  0  0  0
M  END
>  <minimizedAffinity>
-4.54895735

$$$$

 OpenBabel03252509173D

 25 27  0  0  1  0  0  0  0  0999 V2000
   37.8590   27.6670   41.6360 C   0  0  0  0  0  0  0  0  0  0  0  0
   36.4520   27.8330   41.7330 C   0  0  0  0  0  0  0  0  0  0  0  0
   35.8770   28.8820   41.1160 C   0  0  0  0  0  0  0  0  0  0  0  0
   36.6910   29.7840   40.3920 C   0  0  0  0  0  0  0  0  0  0  0  0
   38.3630   29.0870   40.6110 S   0  0  0  0  0  0  0  0  0  0  0  0
   35.8600   27.1310   42.2910 H   0  0  0  0  0  0  0  0  0  0  0  0
   34.8530   29.1420   41.0950 H   0  0  0  0  0  0  0  0  0  0  0  0
   40.1460   25.5790   43.6790 C   0  0  0  0  0  0  0  0  0  0  0  0
   39.7970   24.2960   43.1980 C   0  0  0  0  0  0  0  0  0  0  0  0
   38.8030   24.2050   42.2050 C   0  0  0  0  0  0  0  0  0  0  0  0
   38.2290   25.3730   41.7610 N   0  0  0  0  0  0  0  0  0  0  0  0
   38.6060   26.5720   42.2610 C   0  0  0  0  0  0  0  0  0  0  0  0
   39.5600   26.6850   43.2170 N   0  0  0  0  0  0  0  0  0  0  0  0
   40.9090   25.6450   44.4410 H   0  0  0  0  0  0  0  0  0  0  0  0
   40.2530   23.3800   43.5520 H   0  0  0  0  0  0  0  0  0  0  0  0
   38.4730   23.2670   41.7790 H   0  0  0  0  0  0  0  0  0  0  0  0
   37.3450   30.8850   38.3620 C   0  0  2  0  0  3  0  0  0  0  0  0
   36.5160   30.9660   39.6270 C   0  0  2  0  0  3  0  0  0  0  0  0
   37.1520   32.1340   40.3120 C   0  0  0  0  0  3  0  0  0  0  0  0
   37.9740   31.8550   41.0180 H   0  0  0  0  0  0  0  0  0  0  0  0
   37.6120   33.0040   39.3340 O   0  0  0  0  0  0  0  0  0  0  0  0
   37.5130   32.3840   38.1020 C   0  0  0  0  0  3  0  0  0  0  0  0
   36.5940   32.7510   37.5870 H   0  0  0  0  0  0  0  0  0  0  0  0
   36.6340   30.3140   37.3110 O   0  0  0  0  0  0  0  0  0  0  0  0
   35.7550   29.9890   37.6190 H   0  0  0  0  0  0  0  0  0  0  0  0
  1  2  2  0  0  0  0
  1 12  1  0  0  0  0
  2  6  1  0  0  0  0
  3  2  1  0  0  0  0
  4  5  1  0  0  0  0
  4  3  2  0  0  0  0
  5  1  1  0  0  0  0
  7  3  1  0  0  0  0
  8 14  1  0  0  0  0
  9 15  1  0  0  0  0
  9  8  2  0  0  0  0
 10  9  1  0  0  0  0
 11 10  2  0  0  0  0
 11 12  1  0  0  0  0
 12 13  2  0  0  0  0
 13  8  1  0  0  0  0
 16 10  1  0  0  0  0
 17 24  1  6  0  0  0
 17 18  1  0  0  0  0
 18 19  1  0  0  0  0
 18  4  1  1  0  0  0
 19 20  1  0  0  0  0
 21 19  1  0  0  0  0
 22 17  1  0  0  0  0
 22 21  1  0  0  0  0
 23 22  1  0  0  0  0
 24 25  1  0  0  0  0
M  END
>  <minimizedAffinity>
-4.43345737

$$$$
