
     RDKit          3D

 46 48  0  0  0  0  0  0  0  0999 V2000
   45.8542   31.2429   46.3748 C   0  0  2  0  0  0  0  0  0  0  0  0
   45.5919   30.5687   47.6840 C   0  0  0  0  0  0  0  0  0  0  0  0
   44.9269   29.2689   47.3731 C   0  0  0  0  0  0  0  0  0  0  0  0
   44.6384   29.0215   45.9328 C   0  0  0  0  0  0  0  0  0  0  0  0
   45.8893   29.1640   45.1090 C   0  0  0  0  0  0  0  0  0  0  0  0
   46.6847   30.3187   45.5046 C   0  0  2  0  0  0  0  0  0  0  0  0
   46.4623   32.5921   46.5078 C   0  0  0  0  0  0  0  0  0  0  0  0
   47.2956   32.8913   47.4013 O   0  0  0  0  0  0  0  0  0  0  0  0
   44.6812   35.3724   44.9410 C   0  0  0  0  0  0  0  0  0  0  0  0
   45.2607   35.4816   43.6532 C   0  0  0  0  0  0  0  0  0  0  0  0
   46.2701   34.5827   43.3584 C   0  0  0  0  0  0  0  0  0  0  0  0
   46.5718   33.7216   44.3311 N   0  0  0  0  0  0  0  0  0  0  0  0
   46.0422   33.6105   45.5272 C   0  0  0  0  0  0  0  0  0  0  0  0
   45.0612   34.4696   45.8398 N   0  0  0  0  0  0  0  0  0  0  0  0
   46.8673   34.6799   42.0360 C   0  0  0  0  0  0  0  0  0  0  0  0
   47.6327   33.5452   41.7817 F   0  0  0  0  0  0  0  0  0  0  0  0
   47.6812   35.7653   42.0461 F   0  0  0  0  0  0  0  0  0  0  0  0
   45.9121   34.7177   41.0270 F   0  0  0  0  0  0  0  0  0  0  0  0
   47.8443   29.7872   46.2740 C   0  0  0  0  0  0  0  0  0  0  0  0
   44.8987   31.3429   45.8199 H   0  0  0  0  0  0  0  0  0  0  0  0
   46.5065   30.4371   48.2958 H   0  0  0  0  0  0  0  0  0  0  0  0
   44.9464   31.2443   48.2998 H   0  0  0  0  0  0  0  0  0  0  0  0
   45.3912   28.3826   47.8717 H   0  0  0  0  0  0  0  0  0  0  0  0
   43.9076   29.3097   47.8674 H   0  0  0  0  0  0  0  0  0  0  0  0
   44.2985   27.9684   45.8547 H   0  0  0  0  0  0  0  0  0  0  0  0
   43.7929   29.6470   45.5721 H   0  0  0  0  0  0  0  0  0  0  0  0
   45.5141   29.3570   44.0546 H   0  0  0  0  0  0  0  0  0  0  0  0
   46.3832   28.1831   45.0259 H   0  0  0  0  0  0  0  0  0  0  0  0
   47.0887   30.9371   44.6761 H   0  0  0  0  0  0  0  0  0  0  0  0
   43.8774   36.0739   45.2012 H   0  0  0  0  0  0  0  0  0  0  0  0
   44.9229   36.2223   42.9645 H   0  0  0  0  0  0  0  0  0  0  0  0
   47.5284   29.1588   47.1446 H   0  0  0  0  0  0  0  0  0  0  0  0
   48.4508   30.6047   46.7281 H   0  0  0  0  0  0  0  0  0  0  0  0
   49.6128   26.5554   43.8677 O   0  0  0  0  0  0  0  0  0  0  0  0
   49.0234   27.7394   43.4550 C   0  0  1  0  0  0  0  0  0  0  0  0
   47.9203   28.1543   44.4076 C   0  0  2  0  0  0  0  0  0  0  0  0
   47.3929   27.2800   44.8342 H   0  0  0  0  0  0  0  0  0  0  0  0
   48.7394   28.8800   45.4638 C   0  0  1  0  0  0  0  0  0  0  0  0
   49.6091   29.6405   44.6692 O   0  0  0  0  0  0  0  0  0  0  0  0
   49.9662   28.9025   43.5749 C   0  0  1  0  0  0  0  0  0  0  0  0
   51.0352   28.6336   43.5008 H   0  0  0  0  0  0  0  0  0  0  0  0
   50.0682   26.6046   44.7373 H   0  0  0  0  0  0  0  0  0  0  0  0
   48.6656   27.5885   42.4206 H   0  0  0  0  0  0  0  0  0  0  0  0
   47.2744   28.8834   43.9181 H   0  0  0  0  0  0  0  0  0  0  0  0
   49.3755   28.2262   46.0652 H   0  0  0  0  0  0  0  0  0  0  0  0
   49.7644   29.5591   42.6782 H   0  0  0  0  0  0  0  0  0  0  0  0
  1  7  1  0
  1  2  1  0
  3  2  1  0
  4  3  1  0
  5  6  1  0
  5  4  1  0
  6 19  1  0
  6  1  1  0
  7  8  2  0
  9 14  2  0
 10  9  1  0
 11 10  2  0
 11 12  1  0
 12 13  2  0
 13 14  1  0
 13  7  1  0
 15 17  1  0
 15 11  1  0
 16 15  1  0
 18 15  1  0
  1 20  1  6
  2 21  1  0
  2 22  1  0
  3 23  1  0
  3 24  1  0
  4 25  1  0
  4 26  1  0
  5 27  1  0
  5 28  1  0
  6 29  1  6
  9 30  1  0
 10 31  1  0
 19 32  1  0
 19 33  1  0
 34 35  1  0
 35 36  1  0
 36 37  1  1
 36 38  1  0
 38 39  1  0
 39 40  1  0
 40 41  1  1
 40 35  1  0
 34 42  1  0
 35 43  1  6
 36 44  1  0
 38 45  1  1
 40 46  1  0
 19 38  1  0
M  ISO  8  20  13  21  13  22  13  23  13  24  13  25  13  26  13  27  13
M  ISO  8  28  13  29  13  30  14  31  14  32   8  33   8  37   8  41  16
M  END
>  <DihAtoms>  (1) 
5,18,37,35

>  <DihDeg>  (1) 
59.504894650206914

$$$$
