
 OpenBabel03252509043D

 48 50  0  0  1  0  0  0  0  0999 V2000
   46.8700   34.3230   43.5060 N   0  0  0  0  0  0  0  0  0  0  0  0
   46.5320   35.0570   42.3470 C   0  0  0  0  0  0  0  0  0  0  0  0
   45.0470   35.0550   42.0220 C   0  0  0  0  0  0  0  0  0  0  0  0
   44.1580   35.0630   43.2430 C   0  0  0  0  0  0  0  0  0  0  0  0
   44.9660   35.1510   44.5240 C   0  0  0  0  0  0  0  0  0  0  0  0
   45.9360   33.9040   44.4200 C   0  0  2  0  0  0  0  0  0  0  0  0
   47.0430   34.7650   41.4250 H   0  0  0  0  0  0  0  0  0  0  0  0
   46.8120   36.1180   42.5230 H   0  0  0  0  0  0  0  0  0  0  0  0
   44.8580   35.9140   41.3460 H   0  0  0  0  0  0  0  0  0  0  0  0
   44.8550   34.1340   41.4200 H   0  0  0  0  0  0  0  0  0  0  0  0
   43.5440   34.1490   43.2890 H   0  0  0  0  0  0  0  0  0  0  0  0
   43.4610   35.9230   43.2360 H   0  0  0  0  0  0  0  0  0  0  0  0
   45.5720   36.0520   44.5970 H   0  0  0  0  0  0  0  0  0  0  0  0
   44.2740   34.9590   45.3590 H   0  0  0  0  0  0  0  0  0  0  0  0
   45.3060   33.0320   44.1550 H   0  0  0  0  0  0  0  0  0  0  0  0
   48.1100   33.5940   43.4040 C   0  0  0  0  0  0  0  0  0  0  0  0
   48.4290   33.3690   44.4640 H   0  0  0  0  0  0  0  0  0  0  0  0
   48.8870   34.1800   42.9020 H   0  0  0  0  0  0  0  0  0  0  0  0
   47.8260   32.2880   42.7570 C   0  0  0  0  0  0  0  0  0  0  0  0
   47.8790   31.4070   43.4310 H   0  0  0  0  0  0  0  0  0  0  0  0
   46.7860   32.2470   42.3310 H   0  0  0  0  0  0  0  0  0  0  0  0
   50.9440   31.7620   40.7350 C   0  0  0  0  0  0  0  0  0  0  0  0
   50.0670   31.9420   41.8230 C   0  0  0  0  0  0  0  0  0  0  0  0
   48.7250   32.1000   41.5940 C   0  0  0  0  0  0  0  0  0  0  0  0
   48.3190   32.0710   40.3290 N   0  0  0  0  0  0  0  0  0  0  0  0
   49.1350   31.9010   39.2870 C   0  0  0  0  0  0  0  0  0  0  0  0
   50.4650   31.7420   39.4740 N   0  0  0  0  0  0  0  0  0  0  0  0
   51.9910   31.6450   41.0200 H   0  0  0  0  0  0  0  0  0  0  0  0
   50.4320   31.9600   42.8420 H   0  0  0  0  0  0  0  0  0  0  0  0
   48.7940   31.8790   38.2530 H   0  0  0  0  0  0  0  0  0  0  0  0
   46.4150   33.8470   45.7170 O   0  0  0  0  0  0  0  0  0  0  0  0
   45.7100   31.2950   45.4050 O   0  0  0  0  0  0  0  0  0  0  0  0
   46.1820   32.3340   46.4190 P   0  0  2  0  0  0  0  0  0  0  0  0
   44.8670   32.5340   47.5050 O   0  0  0  0  0  0  0  0  0  0  0  0
   45.2070   32.6720   48.4240 H   0  0  0  0  0  0  0  0  0  0  0  0
   47.5000   31.8110   47.3030 O   0  0  0  0  0  0  0  0  0  0  0  0
   47.2070   30.5750   47.8420 C   0  0  0  0  0  0  0  0  0  0  0  0
   46.1590   30.3000   47.5370 H   0  0  0  0  0  0  0  0  0  0  0  0
   47.2940   30.4840   48.9200 H   0  0  0  0  0  0  0  0  0  0  0  0
   48.7640   27.4160   47.8430 C   0  0  2  0  0  3  0  0  0  0  0  0
   49.0320   28.8780   48.0660 C   0  0  0  0  0  3  0  0  0  0  0  0
   48.9330   29.2090   49.1180 H   0  0  0  0  0  0  0  0  0  0  0  0
   48.0830   29.5460   47.1110 C   0  0  1  0  0  3  0  0  0  0  0  0
   47.3250   28.5800   46.5080 O   0  0  0  0  0  0  0  0  0  0  0  0
   47.3500   27.4460   47.3050 C   0  0  0  0  0  3  0  0  0  0  0  0
   47.1220   26.5420   46.6890 H   0  0  0  0  0  0  0  0  0  0  0  0
   48.8280   26.7610   49.0710 O   0  0  0  0  0  0  0  0  0  0  0  0
   48.5000   27.4060   49.7730 H   0  0  0  0  0  0  0  0  0  0  0  0
  1  6  1  0  0  0  0
  2  8  1  0  0  0  0
  2  1  1  0  0  0  0
  3  2  1  0  0  0  0
  3  4  1  0  0  0  0
  4 11  1  0  0  0  0
  4  5  1  0  0  0  0
  5 13  1  0  0  0  0
  5 14  1  0  0  0  0
  6 15  1  6  0  0  0
  6  5  1  0  0  0  0
  6 31  1  0  0  0  0
  7  2  1  0  0  0  0
  9  3  1  0  0  0  0
 10  3  1  0  0  0  0
 12  4  1  0  0  0  0
 16  1  1  0  0  0  0
 16 17  1  0  0  0  0
 18 16  1  0  0  0  0
 19 16  1  0  0  0  0
 19 20  1  0  0  0  0
 21 19  1  0  0  0  0
 22 28  1  0  0  0  0
 22 23  1  0  0  0  0
 23 29  1  0  0  0  0
 24 23  2  0  0  0  0
 24 19  1  0  0  0  0
 25 24  1  0  0  0  0
 26 27  1  0  0  0  0
 26 25  2  0  0  0  0
 27 22  2  0  0  0  0
 30 26  1  0  0  0  0
 31 33  1  0  0  0  0
 33 32  2  6  0  0  0
 33 36  1  0  0  0  0
 33 34  1  0  0  0  0
 34 35  1  0  0  0  0
 36 37  1  0  0  0  0
 37 39  1  0  0  0  0
 38 37  1  0  0  0  0
 40 41  1  0  0  0  0
 40 47  1  1  0  0  0
 41 42  1  0  0  0  0
 43 37  1  1  0  0  0
 43 41  1  0  0  0  0
 44 43  1  0  0  0  0
 44 45  1  0  0  0  0
 45 40  1  0  0  0  0
 46 45  1  0  0  0  0
 47 48  1  0  0  0  0
M  END
>  <minimizedAffinity>
-4.5749836

>  <minimizedRMSD>
2.03180695

$$$$
