
 OpenBabel03252506443D

 40 43  0  0  1  0  0  0  0  0999 V2000
   38.0870   29.0630   41.7570 N   0  0  1  0  0  0  0  0  0  0  0  0
   38.8350   29.5810   42.8820 C   0  0  0  0  0  0  0  0  0  0  0  0
   39.5950   30.8290   42.6180 C   0  0  0  0  0  0  0  0  0  0  0  0
   40.6610   30.5560   41.5990 C   0  0  0  0  0  0  0  0  0  0  0  0
   40.1800   29.5900   40.5630 C   0  0  0  0  0  0  0  0  0  0  0  0
   38.6990   29.5010   40.5320 C   0  0  2  0  0  0  0  0  0  0  0  0
   39.5760   28.8140   43.1960 H   0  0  0  0  0  0  0  0  0  0  0  0
   38.1260   29.7000   43.7260 H   0  0  0  0  0  0  0  0  0  0  0  0
   40.1300   31.0550   43.5910 H   0  0  0  0  0  0  0  0  0  0  0  0
   39.0000   31.7410   42.4490 H   0  0  0  0  0  0  0  0  0  0  0  0
   41.5090   30.0640   42.1210 H   0  0  0  0  0  0  0  0  0  0  0  0
   41.1040   31.4760   41.1720 H   0  0  0  0  0  0  0  0  0  0  0  0
   40.5250   29.9220   39.5740 H   0  0  0  0  0  0  0  0  0  0  0  0
   40.6060   28.5740   40.6960 H   0  0  0  0  0  0  0  0  0  0  0  0
   38.5300   28.6040   39.8510 H   0  0  0  0  0  0  0  0  0  0  0  0
   36.8290   26.8150   41.5920 C   0  0  1  0  0  0  0  0  0  0  0  0
   37.1740   27.1200   42.9930 C   0  0  0  0  0  0  0  0  0  0  0  0
   38.0330   27.6460   41.9010 C   0  0  2  0  0  0  0  0  0  0  0  0
   35.9190   27.3220   41.2160 H   0  0  0  0  0  0  0  0  0  0  0  0
   37.6010   26.3250   43.6240 H   0  0  0  0  0  0  0  0  0  0  0  0
   36.5330   27.8150   43.5740 H   0  0  0  0  0  0  0  0  0  0  0  0
   39.0080   27.1090   41.7260 H   0  0  0  0  0  0  0  0  0  0  0  0
   36.5040   25.0400   39.8310 C   0  0  0  0  0  0  0  0  0  0  0  0
   37.0350   25.4290   41.0780 C   0  0  0  0  0  0  0  0  0  0  0  0
   37.7620   24.4790   41.8140 C   0  0  0  0  0  0  0  0  0  0  0  0
   37.9150   23.2360   41.2830 N   0  0  0  0  0  0  0  0  0  0  0  0
   37.3920   22.8970   40.0810 C   0  0  0  0  0  0  0  0  0  0  0  0
   36.6820   23.7990   39.3480 N   0  0  0  0  0  0  0  0  0  0  0  0
   35.9470   25.7630   39.2620 H   0  0  0  0  0  0  0  0  0  0  0  0
   38.1840   24.7440   42.7770 H   0  0  0  0  0  0  0  0  0  0  0  0
   37.5180   21.9080   39.6680 H   0  0  0  0  0  0  0  0  0  0  0  0
   37.2720   31.6010   40.7270 C   0  0  1  0  0  3  0  0  0  0  0  0
   37.9430   30.5940   39.8630 C   0  0  1  0  0  3  0  0  0  0  0  0
   38.9280   31.5170   39.1240 C   0  0  0  0  0  3  0  0  0  0  0  0
   39.3860   31.0450   38.2570 H   0  0  0  0  0  0  0  0  0  0  0  0
   38.2420   32.6900   38.8880 O   0  0  0  0  0  0  0  0  0  0  0  0
   37.1460   32.7580   39.7210 C   0  0  0  0  0  3  0  0  0  0  0  0
   36.2540   32.5490   39.0680 H   0  0  0  0  0  0  0  0  0  0  0  0
   35.9570   31.2870   41.0470 O   0  0  0  0  0  0  0  0  0  0  0  0
   35.7830   31.2530   42.0130 H   0  0  0  0  0  0  0  0  0  0  0  0
  1 18  1  0  0  0  0
  1  2  1  1  0  0  0
  2  7  1  0  0  0  0
  2  8  1  0  0  0  0
  3  2  1  0  0  0  0
  3  9  1  0  0  0  0
  4 11  1  0  0  0  0
  4  3  1  0  0  0  0
  5 14  1  0  0  0  0
  5  4  1  0  0  0  0
  6 15  1  6  0  0  0
  6  5  1  0  0  0  0
  6  1  1  0  0  0  0
 10  3  1  0  0  0  0
 12  4  1  0  0  0  0
 13  5  1  0  0  0  0
 16 19  1  6  0  0  0
 16 18  1  0  0  0  0
 16 17  1  0  0  0  0
 17 21  1  0  0  0  0
 17 20  1  0  0  0  0
 18 22  1  6  0  0  0
 18 17  1  0  0  0  0
 23 24  1  0  0  0  0
 24 16  1  0  0  0  0
 24 25  2  0  0  0  0
 25 30  1  0  0  0  0
 26 25  1  0  0  0  0
 27 26  2  0  0  0  0
 28 23  2  0  0  0  0
 28 27  1  0  0  0  0
 29 23  1  0  0  0  0
 31 27  1  0  0  0  0
 32 39  1  6  0  0  0
 33 34  1  6  0  0  0
 33  6  1  0  0  0  0
 33 32  1  0  0  0  0
 35 34  1  0  0  0  0
 36 34  1  0  0  0  0
 36 37  1  0  0  0  0
 37 32  1  0  0  0  0
 38 37  1  0  0  0  0
 39 40  1  0  0  0  0
M  END
>  <minimizedAffinity>
-5.32024956

$$$$

 OpenBabel03252506443D

 40 43  0  0  1  0  0  0  0  0999 V2000
   39.7140   32.1180   39.6820 N   0  0  1  0  0  0  0  0  0  0  0  0
   39.6640   33.5640   39.6920 C   0  0  0  0  0  0  0  0  0  0  0  0
   38.4430   34.1530   40.2990 C   0  0  0  0  0  0  0  0  0  0  0  0
   37.2480   33.7770   39.4750 C   0  0  0  0  0  0  0  0  0  0  0  0
   37.3750   32.3840   38.9450 C   0  0  0  0  0  0  0  0  0  0  0  0
   38.3760   31.5920   39.7010 C   0  0  2  0  0  0  0  0  0  0  0  0
   39.7070   33.9240   38.6410 H   0  0  0  0  0  0  0  0  0  0  0  0
   40.5870   33.9250   40.1870 H   0  0  0  0  0  0  0  0  0  0  0  0
   38.5740   35.2720   40.1860 H   0  0  0  0  0  0  0  0  0  0  0  0
   38.3270   34.0290   41.3880 H   0  0  0  0  0  0  0  0  0  0  0  0
   37.2210   34.4510   38.5920 H   0  0  0  0  0  0  0  0  0  0  0  0
   36.2850   33.9680   39.9880 H   0  0  0  0  0  0  0  0  0  0  0  0
   36.4030   31.8790   39.0270 H   0  0  0  0  0  0  0  0  0  0  0  0
   37.6290   32.3600   37.8650 H   0  0  0  0  0  0  0  0  0  0  0  0
   38.4800   30.6610   39.0540 H   0  0  0  0  0  0  0  0  0  0  0  0
   41.9080   31.3200   38.5830 C   0  0  1  0  0  0  0  0  0  0  0  0
   41.5370   32.6620   38.0970 C   0  0  0  0  0  0  0  0  0  0  0  0
   40.4710   31.7280   38.5400 C   0  0  2  0  0  0  0  0  0  0  0  0
   42.4250   31.3060   39.5630 H   0  0  0  0  0  0  0  0  0  0  0  0
   41.5970   32.8760   37.0180 H   0  0  0  0  0  0  0  0  0  0  0  0
   41.7810   33.5520   38.7130 H   0  0  0  0  0  0  0  0  0  0  0  0
   39.8820   31.2160   37.7260 H   0  0  0  0  0  0  0  0  0  0  0  0
   42.8000   30.6810   36.3120 C   0  0  0  0  0  0  0  0  0  0  0  0
   42.3880   30.2990   37.6050 C   0  0  0  0  0  0  0  0  0  0  0  0
   42.4490   28.9380   37.9450 C   0  0  0  0  0  0  0  0  0  0  0  0
   42.9010   28.0620   37.0070 N   0  0  0  0  0  0  0  0  0  0  0  0
   43.2890   28.4650   35.7730 C   0  0  0  0  0  0  0  0  0  0  0  0
   43.2390   29.7790   35.4190 N   0  0  0  0  0  0  0  0  0  0  0  0
   42.7570   31.7230   36.0460 H   0  0  0  0  0  0  0  0  0  0  0  0
   42.1400   28.6090   38.9310 H   0  0  0  0  0  0  0  0  0  0  0  0
   43.6460   27.7630   35.0360 H   0  0  0  0  0  0  0  0  0  0  0  0
   36.7610   30.2080   41.1030 C   0  0  1  0  0  3  0  0  0  0  0  0
   37.9840   31.0500   41.0320 C   0  0  1  0  0  3  0  0  0  0  0  0
   39.0270   30.0140   41.4870 C   0  0  0  0  0  3  0  0  0  0  0  0
   39.9880   30.4580   41.7380 H   0  0  0  0  0  0  0  0  0  0  0  0
   38.4180   29.2760   42.4790 O   0  0  0  0  0  0  0  0  0  0  0  0
   37.0520   29.4450   42.4060 C   0  0  0  0  0  3  0  0  0  0  0  0
   36.7820   30.1190   43.2660 H   0  0  0  0  0  0  0  0  0  0  0  0
   35.5990   30.9190   41.3790 O   0  0  0  0  0  0  0  0  0  0  0  0
   34.8940   30.7980   40.7070 H   0  0  0  0  0  0  0  0  0  0  0  0
  1  2  1  6  0  0  0
  1  6  1  0  0  0  0
  2  8  1  0  0  0  0
  2  3  1  0  0  0  0
  3 10  1  0  0  0  0
  4 12  1  0  0  0  0
  4  3  1  0  0  0  0
  5 13  1  0  0  0  0
  5  4  1  0  0  0  0
  5  6  1  0  0  0  0
  6 15  1  6  0  0  0
  6 33  1  0  0  0  0
  7  2  1  0  0  0  0
  9  3  1  0  0  0  0
 11  4  1  0  0  0  0
 14  5  1  0  0  0  0
 16 19  1  1  0  0  0
 17 18  1  0  0  0  0
 17 16  1  0  0  0  0
 17 21  1  0  0  0  0
 18 22  1  6  0  0  0
 18 16  1  0  0  0  0
 18  1  1  0  0  0  0
 20 17  1  0  0  0  0
 23 24  1  0  0  0  0
 24 25  2  0  0  0  0
 24 16  1  0  0  0  0
 25 30  1  0  0  0  0
 26 25  1  0  0  0  0
 27 26  2  0  0  0  0
 28 27  1  0  0  0  0
 28 23  2  0  0  0  0
 29 23  1  0  0  0  0
 31 27  1  0  0  0  0
 32 39  1  1  0  0  0
 32 37  1  0  0  0  0
 33 32  1  0  0  0  0
 33 34  1  6  0  0  0
 34 35  1  0  0  0  0
 34 36  1  0  0  0  0
 37 36  1  0  0  0  0
 37 38  1  0  0  0  0
 40 39  1  0  0  0  0
M  END
>  <minimizedAffinity>
-5.29507732

$$$$

 OpenBabel03252506443D

 40 43  0  0  1  0  0  0  0  0999 V2000
   37.1030   29.9250   40.7470 N   0  0  1  0  0  0  0  0  0  0  0  0
   37.5300   31.2720   41.0540 C   0  0  0  0  0  0  0  0  0  0  0  0
   37.3470   32.2610   39.9610 C   0  0  0  0  0  0  0  0  0  0  0  0
   38.2190   31.8850   38.8010 C   0  0  0  0  0  0  0  0  0  0  0  0
   38.2840   30.4000   38.6340 C   0  0  0  0  0  0  0  0  0  0  0  0
   37.1640   29.7150   39.3260 C   0  0  2  0  0  0  0  0  0  0  0  0
   38.6150   31.2530   41.2920 H   0  0  0  0  0  0  0  0  0  0  0  0
   37.0090   31.5820   41.9830 H   0  0  0  0  0  0  0  0  0  0  0  0
   37.7600   33.2310   40.3750 H   0  0  0  0  0  0  0  0  0  0  0  0
   36.3080   32.5270   39.7070 H   0  0  0  0  0  0  0  0  0  0  0  0
   39.2520   32.2230   39.0310 H   0  0  0  0  0  0  0  0  0  0  0  0
   37.9610   32.4230   37.8680 H   0  0  0  0  0  0  0  0  0  0  0  0
   38.2280   30.1570   37.5640 H   0  0  0  0  0  0  0  0  0  0  0  0
   39.2460   29.9730   38.9830 H   0  0  0  0  0  0  0  0  0  0  0  0
   37.4790   28.6230   39.2630 H   0  0  0  0  0  0  0  0  0  0  0  0
   37.4120   28.0330   42.4760 C   0  0  1  0  0  0  0  0  0  0  0  0
   38.0180   29.2870   42.9580 C   0  0  0  0  0  0  0  0  0  0  0  0
   37.9290   29.0380   41.4970 C   0  0  2  0  0  0  0  0  0  0  0  0
   36.3170   27.9570   42.6270 H   0  0  0  0  0  0  0  0  0  0  0  0
   39.0230   29.2570   43.4090 H   0  0  0  0  0  0  0  0  0  0  0  0
   37.3750   30.0610   43.4270 H   0  0  0  0  0  0  0  0  0  0  0  0
   38.8790   28.7170   40.9830 H   0  0  0  0  0  0  0  0  0  0  0  0
   39.2670   26.6750   43.5120 C   0  0  0  0  0  0  0  0  0  0  0  0
   38.1590   26.7520   42.6430 C   0  0  0  0  0  0  0  0  0  0  0  0
   37.7810   25.5920   41.9470 C   0  0  0  0  0  0  0  0  0  0  0  0
   38.5030   24.4570   42.1500 N   0  0  0  0  0  0  0  0  0  0  0  0
   39.5620   24.4190   42.9940 C   0  0  0  0  0  0  0  0  0  0  0  0
   39.9500   25.5300   43.6800 N   0  0  0  0  0  0  0  0  0  0  0  0
   39.5610   27.5590   44.0480 H   0  0  0  0  0  0  0  0  0  0  0  0
   36.9330   25.6160   41.2700 H   0  0  0  0  0  0  0  0  0  0  0  0
   40.1290   23.5150   43.1490 H   0  0  0  0  0  0  0  0  0  0  0  0
   35.5680   28.7450   37.5950 C   0  0  1  0  0  3  0  0  0  0  0  0
   35.8230   29.7290   38.6790 C   0  0  1  0  0  3  0  0  0  0  0  0
   34.7640   29.2650   39.6930 C   0  0  0  0  0  3  0  0  0  0  0  0
   34.5960   29.9820   40.4940 H   0  0  0  0  0  0  0  0  0  0  0  0
   33.6580   28.9110   38.9480 O   0  0  0  0  0  0  0  0  0  0  0  0
   34.0310   28.7130   37.6370 C   0  0  0  0  0  3  0  0  0  0  0  0
   33.6530   29.6100   37.0730 H   0  0  0  0  0  0  0  0  0  0  0  0
   35.8620   29.2160   36.3210 O   0  0  0  0  0  0  0  0  0  0  0  0
   36.5030   28.6570   35.8320 H   0  0  0  0  0  0  0  0  0  0  0  0
  1  2  1  6  0  0  0
  1 18  1  0  0  0  0
  2  7  1  0  0  0  0
  2  8  1  0  0  0  0
  3  9  1  0  0  0  0
  3  2  1  0  0  0  0
  4 11  1  0  0  0  0
  4  3  1  0  0  0  0
  5  4  1  0  0  0  0
  5 14  1  0  0  0  0
  5  6  1  0  0  0  0
  6 15  1  6  0  0  0
  6  1  1  0  0  0  0
 10  3  1  0  0  0  0
 12  4  1  0  0  0  0
 13  5  1  0  0  0  0
 16 19  1  1  0  0  0
 16 24  1  0  0  0  0
 16 17  1  0  0  0  0
 17 20  1  0  0  0  0
 17 21  1  0  0  0  0
 18 22  1  6  0  0  0
 18 16  1  0  0  0  0
 18 17  1  0  0  0  0
 23 28  1  0  0  0  0
 23 29  1  0  0  0  0
 24 23  2  0  0  0  0
 25 26  2  0  0  0  0
 25 24  1  0  0  0  0
 26 27  1  0  0  0  0
 27 31  1  0  0  0  0
 27 28  2  0  0  0  0
 30 25  1  0  0  0  0
 32 39  1  6  0  0  0
 32 37  1  0  0  0  0
 32 33  1  0  0  0  0
 33  6  1  0  0  0  0
 33 34  1  1  0  0  0
 34 35  1  0  0  0  0
 36 34  1  0  0  0  0
 37 36  1  0  0  0  0
 38 37  1  0  0  0  0
 40 39  1  0  0  0  0
M  END
>  <minimizedAffinity>
-5.22355509

$$$$

 OpenBabel03252506443D

 40 43  0  0  1  0  0  0  0  0999 V2000
   37.8810   31.2410   39.6250 N   0  0  1  0  0  0  0  0  0  0  0  0
   36.9870   32.3560   39.8520 C   0  0  0  0  0  0  0  0  0  0  0  0
   37.5660   33.6970   39.5870 C   0  0  0  0  0  0  0  0  0  0  0  0
   38.6820   33.9560   40.5540 C   0  0  0  0  0  0  0  0  0  0  0  0
   39.4590   32.7070   40.8260 C   0  0  0  0  0  0  0  0  0  0  0  0
   39.2410   31.6790   39.7790 C   0  0  2  0  0  0  0  0  0  0  0  0
   36.6730   32.3450   40.9180 H   0  0  0  0  0  0  0  0  0  0  0  0
   36.0720   32.1750   39.2520 H   0  0  0  0  0  0  0  0  0  0  0  0
   36.7390   34.4270   39.8470 H   0  0  0  0  0  0  0  0  0  0  0  0
   37.7840   33.9400   38.5340 H   0  0  0  0  0  0  0  0  0  0  0  0
   38.2280   34.2630   41.5210 H   0  0  0  0  0  0  0  0  0  0  0  0
   39.3170   34.8170   40.2700 H   0  0  0  0  0  0  0  0  0  0  0  0
   40.5300   32.9490   40.8530 H   0  0  0  0  0  0  0  0  0  0  0  0
   39.2320   32.2700   41.8210 H   0  0  0  0  0  0  0  0  0  0  0  0
   39.7320   30.7620   40.2410 H   0  0  0  0  0  0  0  0  0  0  0  0
   36.5630   29.0940   40.1850 C   0  0  1  0  0  0  0  0  0  0  0  0
   36.0980   30.2230   41.0110 C   0  0  0  0  0  0  0  0  0  0  0  0
   37.5020   30.2050   40.5280 C   0  0  2  0  0  0  0  0  0  0  0  0
   36.1370   29.0570   39.1640 H   0  0  0  0  0  0  0  0  0  0  0  0
   35.9400   30.0680   42.0900 H   0  0  0  0  0  0  0  0  0  0  0  0
   35.3770   30.9500   40.5840 H   0  0  0  0  0  0  0  0  0  0  0  0
   38.2890   29.9140   41.2810 H   0  0  0  0  0  0  0  0  0  0  0  0
   36.9920   26.6130   40.0390 C   0  0  0  0  0  0  0  0  0  0  0  0
   36.7730   27.7620   40.8260 C   0  0  0  0  0  0  0  0  0  0  0  0
   36.7630   27.6160   42.2230 C   0  0  0  0  0  0  0  0  0  0  0  0
   36.9660   26.3740   42.7410 N   0  0  0  0  0  0  0  0  0  0  0  0
   37.1740   25.2920   41.9530 C   0  0  0  0  0  0  0  0  0  0  0  0
   37.1880   25.4060   40.5960 N   0  0  0  0  0  0  0  0  0  0  0  0
   37.0020   26.7180   38.9680 H   0  0  0  0  0  0  0  0  0  0  0  0
   36.5970   28.4790   42.8590 H   0  0  0  0  0  0  0  0  0  0  0  0
   37.3340   24.3100   42.3720 H   0  0  0  0  0  0  0  0  0  0  0  0
   41.2440   32.5690   38.4820 C   0  0  1  0  0  3  0  0  0  0  0  0
   39.9510   31.8370   38.4800 C   0  0  1  0  0  3  0  0  0  0  0  0
   40.4430   30.4610   37.9970 C   0  0  0  0  0  3  0  0  0  0  0  0
   39.6340   29.8010   37.6930 H   0  0  0  0  0  0  0  0  0  0  0  0
   41.4110   30.7180   37.0490 O   0  0  0  0  0  0  0  0  0  0  0  0
   41.8530   32.0160   37.1820 C   0  0  0  0  0  3  0  0  0  0  0  0
   41.3980   32.5820   36.3230 H   0  0  0  0  0  0  0  0  0  0  0  0
   41.1240   33.9330   38.2460 O   0  0  0  0  0  0  0  0  0  0  0  0
   41.5150   34.4910   38.9520 H   0  0  0  0  0  0  0  0  0  0  0  0
  1  6  1  0  0  0  0
  1  2  1  1  0  0  0
  1 18  1  0  0  0  0
  2  7  1  0  0  0  0
  3  9  1  0  0  0  0
  3  2  1  0  0  0  0
  3  4  1  0  0  0  0
  4  5  1  0  0  0  0
  4 11  1  0  0  0  0
  5 13  1  0  0  0  0
  5 14  1  0  0  0  0
  6 15  1  1  0  0  0
  6  5  1  0  0  0  0
  8  2  1  0  0  0  0
 10  3  1  0  0  0  0
 12  4  1  0  0  0  0
 16 19  1  6  0  0  0
 16 18  1  0  0  0  0
 16 24  1  0  0  0  0
 16 17  1  0  0  0  0
 17 20  1  0  0  0  0
 18 17  1  0  0  0  0
 18 22  1  1  0  0  0
 21 17  1  0  0  0  0
 23 28  2  0  0  0  0
 23 24  1  0  0  0  0
 24 25  2  0  0  0  0
 25 26  1  0  0  0  0
 25 30  1  0  0  0  0
 27 31  1  0  0  0  0
 27 26  2  0  0  0  0
 28 27  1  0  0  0  0
 29 23  1  0  0  0  0
 32 39  1  6  0  0  0
 33 34  1  1  0  0  0
 33 32  1  0  0  0  0
 33  6  1  0  0  0  0
 35 34  1  0  0  0  0
 36 37  1  0  0  0  0
 36 34  1  0  0  0  0
 37 32  1  0  0  0  0
 38 37  1  0  0  0  0
 39 40  1  0  0  0  0
M  END
>  <minimizedAffinity>
-5.14584255

$$$$

 OpenBabel03252506443D

 40 43  0  0  1  0  0  0  0  0999 V2000
   37.3930   28.2760   40.7030 N   0  0  1  0  0  0  0  0  0  0  0  0
   37.6850   29.3750   41.5980 C   0  0  0  0  0  0  0  0  0  0  0  0
   38.3370   28.9960   42.8770 C   0  0  0  0  0  0  0  0  0  0  0  0
   37.3980   28.1450   43.6800 C   0  0  0  0  0  0  0  0  0  0  0  0
   36.6110   27.2310   42.7960 C   0  0  0  0  0  0  0  0  0  0  0  0
   37.2440   27.0660   41.4640 C   0  0  2  0  0  0  0  0  0  0  0  0
   36.7300   29.8790   41.8600 H   0  0  0  0  0  0  0  0  0  0  0  0
   38.2860   30.1140   41.0310 H   0  0  0  0  0  0  0  0  0  0  0  0
   38.4530   29.9700   43.4440 H   0  0  0  0  0  0  0  0  0  0  0  0
   39.3730   28.6270   42.8110 H   0  0  0  0  0  0  0  0  0  0  0  0
   36.6650   28.8200   44.1700 H   0  0  0  0  0  0  0  0  0  0  0  0
   37.8920   27.6250   44.5240 H   0  0  0  0  0  0  0  0  0  0  0  0
   36.5440   26.2420   43.2700 H   0  0  0  0  0  0  0  0  0  0  0  0
   35.5610   27.5640   42.6630 H   0  0  0  0  0  0  0  0  0  0  0  0
   36.4320   26.5210   40.8810 H   0  0  0  0  0  0  0  0  0  0  0  0
   36.2570   29.4820   38.7240 C   0  0  1  0  0  0  0  0  0  0  0  0
   35.8230   30.0610   40.0090 C   0  0  0  0  0  0  0  0  0  0  0  0
   36.2340   28.6350   39.9560 C   0  0  2  0  0  0  0  0  0  0  0  0
   37.2340   29.8500   38.3540 H   0  0  0  0  0  0  0  0  0  0  0  0
   34.7530   30.2660   40.1690 H   0  0  0  0  0  0  0  0  0  0  0  0
   36.4710   30.8040   40.5190 H   0  0  0  0  0  0  0  0  0  0  0  0
   35.4040   27.8730   39.9620 H   0  0  0  0  0  0  0  0  0  0  0  0
   33.8990   28.9530   38.0040 C   0  0  0  0  0  0  0  0  0  0  0  0
   35.2400   29.2220   37.6630 C   0  0  0  0  0  0  0  0  0  0  0  0
   35.5870   29.2420   36.3020 C   0  0  0  0  0  0  0  0  0  0  0  0
   34.6100   29.0020   35.3870 N   0  0  0  0  0  0  0  0  0  0  0  0
   33.3300   28.7470   35.7510 C   0  0  0  0  0  0  0  0  0  0  0  0
   32.9680   28.7210   37.0640 N   0  0  0  0  0  0  0  0  0  0  0  0
   33.6270   28.9360   39.0440 H   0  0  0  0  0  0  0  0  0  0  0  0
   36.6100   29.4460   36.0040 H   0  0  0  0  0  0  0  0  0  0  0  0
   32.5610   28.5570   35.0180 H   0  0  0  0  0  0  0  0  0  0  0  0
   38.1620   24.7010   41.2400 C   0  0  1  0  0  3  0  0  0  0  0  0
   38.4210   26.1600   41.3520 C   0  0  1  0  0  3  0  0  0  0  0  0
   39.1170   26.3960   40.0010 C   0  0  0  0  0  3  0  0  0  0  0  0
   39.6140   27.3610   39.9390 H   0  0  0  0  0  0  0  0  0  0  0  0
   39.9100   25.2870   39.7860 O   0  0  0  0  0  0  0  0  0  0  0  0
   39.4870   24.2560   40.5970 C   0  0  0  0  0  3  0  0  0  0  0  0
   40.2560   24.1780   41.4150 H   0  0  0  0  0  0  0  0  0  0  0  0
   38.1370   24.0340   42.4590 O   0  0  0  0  0  0  0  0  0  0  0  0
   37.3040   23.5410   42.6210 H   0  0  0  0  0  0  0  0  0  0  0  0
  1  6  1  0  0  0  0
  1  2  1  1  0  0  0
  2  7  1  0  0  0  0
  2  3  1  0  0  0  0
  3  9  1  0  0  0  0
  3  4  1  0  0  0  0
  4 11  1  0  0  0  0
  4 12  1  0  0  0  0
  5 13  1  0  0  0  0
  5  4  1  0  0  0  0
  6 15  1  6  0  0  0
  6  5  1  0  0  0  0
  8  2  1  0  0  0  0
 10  3  1  0  0  0  0
 14  5  1  0  0  0  0
 16 19  1  6  0  0  0
 16 18  1  0  0  0  0
 16 17  1  0  0  0  0
 17 20  1  0  0  0  0
 17 21  1  0  0  0  0
 18 22  1  1  0  0  0
 18 17  1  0  0  0  0
 18  1  1  0  0  0  0
 23 29  1  0  0  0  0
 24 23  1  0  0  0  0
 24 16  1  0  0  0  0
 25 24  2  0  0  0  0
 26 27  2  0  0  0  0
 26 25  1  0  0  0  0
 27 28  1  0  0  0  0
 28 23  2  0  0  0  0
 30 25  1  0  0  0  0
 31 27  1  0  0  0  0
 32 33  1  0  0  0  0
 32 39  1  1  0  0  0
 33 34  1  6  0  0  0
 33  6  1  0  0  0  0
 35 34  1  0  0  0  0
 36 34  1  0  0  0  0
 36 37  1  0  0  0  0
 37 32  1  0  0  0  0
 37 38  1  0  0  0  0
 39 40  1  0  0  0  0
M  END
>  <minimizedAffinity>
-5.02438927

$$$$

 OpenBabel03252506443D

 40 43  0  0  1  0  0  0  0  0999 V2000
   39.0430   28.7170   42.2800 N   0  0  1  0  0  0  0  0  0  0  0  0
   38.0580   29.0060   43.3000 C   0  0  0  0  0  0  0  0  0  0  0  0
   37.1860   27.8660   43.6800 C   0  0  0  0  0  0  0  0  0  0  0  0
   36.3480   27.4670   42.5020 C   0  0  0  0  0  0  0  0  0  0  0  0
   37.1200   27.5900   41.2260 C   0  0  0  0  0  0  0  0  0  0  0  0
   38.5830   27.6270   41.4650 C   0  0  2  0  0  0  0  0  0  0  0  0
   37.3900   29.8120   42.9260 H   0  0  0  0  0  0  0  0  0  0  0  0
   38.5970   29.4230   44.1740 H   0  0  0  0  0  0  0  0  0  0  0  0
   36.4740   28.2890   44.4530 H   0  0  0  0  0  0  0  0  0  0  0  0
   37.6680   27.0360   44.2210 H   0  0  0  0  0  0  0  0  0  0  0  0
   35.5020   28.1840   42.4300 H   0  0  0  0  0  0  0  0  0  0  0  0
   35.8560   26.4830   42.6270 H   0  0  0  0  0  0  0  0  0  0  0  0
   36.8970   26.7240   40.5870 H   0  0  0  0  0  0  0  0  0  0  0  0
   36.8230   28.4780   40.6310 H   0  0  0  0  0  0  0  0  0  0  0  0
   38.9840   27.9160   40.4390 H   0  0  0  0  0  0  0  0  0  0  0  0
   40.6220   30.4460   41.1930 C   0  0  1  0  0  0  0  0  0  0  0  0
   39.8760   31.0500   42.3120 C   0  0  0  0  0  0  0  0  0  0  0  0
   39.2690   29.9240   41.5570 C   0  0  2  0  0  0  0  0  0  0  0  0
   41.5130   29.8590   41.4910 H   0  0  0  0  0  0  0  0  0  0  0  0
   39.4210   32.0440   42.1770 H   0  0  0  0  0  0  0  0  0  0  0  0
   40.2280   30.8910   43.3520 H   0  0  0  0  0  0  0  0  0  0  0  0
   38.4680   30.1940   40.8110 H   0  0  0  0  0  0  0  0  0  0  0  0
   40.6970   32.6200   39.9160 C   0  0  0  0  0  0  0  0  0  0  0  0
   40.7710   31.2110   39.9200 C   0  0  0  0  0  0  0  0  0  0  0  0
   40.9940   30.5560   38.6990 C   0  0  0  0  0  0  0  0  0  0  0  0
   41.1260   31.3150   37.5770 N   0  0  0  0  0  0  0  0  0  0  0  0
   41.0490   32.6670   37.6110 C   0  0  0  0  0  0  0  0  0  0  0  0
   40.8330   33.3270   38.7830 N   0  0  0  0  0  0  0  0  0  0  0  0
   40.5270   33.1280   40.8490 H   0  0  0  0  0  0  0  0  0  0  0  0
   41.0570   29.4740   38.6650 H   0  0  0  0  0  0  0  0  0  0  0  0
   41.1540   33.2620   36.7170 H   0  0  0  0  0  0  0  0  0  0  0  0
   39.5210   26.0040   43.1890 C   0  0  1  0  0  3  0  0  0  0  0  0
   39.2800   26.3450   41.7630 C   0  0  1  0  0  3  0  0  0  0  0  0
   38.3680   25.1680   41.3750 C   0  0  0  0  0  3  0  0  0  0  0  0
   38.2350   25.0670   40.3000 H   0  0  0  0  0  0  0  0  0  0  0  0
   38.8730   24.0660   42.0340 O   0  0  0  0  0  0  0  0  0  0  0  0
   39.6920   24.4810   43.0620 C   0  0  0  0  0  3  0  0  0  0  0  0
   40.7430   24.2810   42.7130 H   0  0  0  0  0  0  0  0  0  0  0  0
   40.7470   26.4420   43.6770 O   0  0  0  0  0  0  0  0  0  0  0  0
   40.6730   27.0160   44.4690 H   0  0  0  0  0  0  0  0  0  0  0  0
  1  2  1  1  0  0  0
  2  3  1  0  0  0  0
  2  8  1  0  0  0  0
  3 10  1  0  0  0  0
  3  9  1  0  0  0  0
  4 12  1  0  0  0  0
  4  3  1  0  0  0  0
  5  6  1  0  0  0  0
  5  4  1  0  0  0  0
  6 15  1  6  0  0  0
  6 33  1  0  0  0  0
  6  1  1  0  0  0  0
  7  2  1  0  0  0  0
 11  4  1  0  0  0  0
 13  5  1  0  0  0  0
 14  5  1  0  0  0  0
 16 19  1  1  0  0  0
 16 18  1  0  0  0  0
 16 17  1  0  0  0  0
 17 21  1  0  0  0  0
 18 22  1  6  0  0  0
 18  1  1  0  0  0  0
 18 17  1  0  0  0  0
 20 17  1  0  0  0  0
 23 24  1  0  0  0  0
 23 29  1  0  0  0  0
 24 16  1  0  0  0  0
 25 24  2  0  0  0  0
 26 27  2  0  0  0  0
 26 25  1  0  0  0  0
 27 28  1  0  0  0  0
 28 23  2  0  0  0  0
 30 25  1  0  0  0  0
 31 27  1  0  0  0  0
 32 39  1  6  0  0  0
 33 34  1  1  0  0  0
 33 32  1  0  0  0  0
 34 36  1  0  0  0  0
 35 34  1  0  0  0  0
 36 37  1  0  0  0  0
 37 32  1  0  0  0  0
 38 37  1  0  0  0  0
 39 40  1  0  0  0  0
M  END
>  <minimizedAffinity>
-5.01701784

$$$$

 OpenBabel03252506443D

 40 43  0  0  1  0  0  0  0  0999 V2000
   39.6670   28.7650   41.9260 N   0  0  1  0  0  0  0  0  0  0  0  0
   39.5150   27.4080   42.4030 C   0  0  0  0  0  0  0  0  0  0  0  0
   38.1150   26.9200   42.4920 C   0  0  0  0  0  0  0  0  0  0  0  0
   37.3730   27.7250   43.5170 C   0  0  0  0  0  0  0  0  0  0  0  0
   37.7980   29.1590   43.4870 C   0  0  0  0  0  0  0  0  0  0  0  0
   38.4710   29.5100   42.2130 C   0  0  2  0  0  0  0  0  0  0  0  0
   39.9440   27.3440   43.4260 H   0  0  0  0  0  0  0  0  0  0  0  0
   40.1380   26.7570   41.7570 H   0  0  0  0  0  0  0  0  0  0  0  0
   38.2000   25.8690   42.9070 H   0  0  0  0  0  0  0  0  0  0  0  0
   37.5860   26.7630   41.5380 H   0  0  0  0  0  0  0  0  0  0  0  0
   37.6500   27.3340   44.5200 H   0  0  0  0  0  0  0  0  0  0  0  0
   36.2750   27.5890   43.4690 H   0  0  0  0  0  0  0  0  0  0  0  0
   36.9110   29.7980   43.5960 H   0  0  0  0  0  0  0  0  0  0  0  0
   38.4600   29.4260   44.3370 H   0  0  0  0  0  0  0  0  0  0  0  0
   38.8890   30.5450   42.4430 H   0  0  0  0  0  0  0  0  0  0  0  0
   42.0660   29.7050   41.7820 C   0  0  1  0  0  0  0  0  0  0  0  0
   42.0460   28.4330   42.5270 C   0  0  0  0  0  0  0  0  0  0  0  0
   40.8400   29.2990   42.5340 C   0  0  2  0  0  0  0  0  0  0  0  0
   42.0700   29.5990   40.6800 H   0  0  0  0  0  0  0  0  0  0  0  0
   42.6100   28.3560   43.4700 H   0  0  0  0  0  0  0  0  0  0  0  0
   42.0340   27.4740   41.9690 H   0  0  0  0  0  0  0  0  0  0  0  0
   40.6620   29.9060   43.4670 H   0  0  0  0  0  0  0  0  0  0  0  0
   42.6220   32.1630   41.8830 C   0  0  0  0  0  0  0  0  0  0  0  0
   42.8780   30.8430   42.3060 C   0  0  0  0  0  0  0  0  0  0  0  0
   43.9120   30.6330   43.2340 C   0  0  0  0  0  0  0  0  0  0  0  0
   44.6090   31.7150   43.6740 N   0  0  0  0  0  0  0  0  0  0  0  0
   44.3350   32.9710   43.2460 C   0  0  0  0  0  0  0  0  0  0  0  0
   43.3380   33.2010   42.3460 N   0  0  0  0  0  0  0  0  0  0  0  0
   41.8310   32.3300   41.1730 H   0  0  0  0  0  0  0  0  0  0  0  0
   44.1370   29.6310   43.5810 H   0  0  0  0  0  0  0  0  0  0  0  0
   44.8920   33.8240   43.6000 H   0  0  0  0  0  0  0  0  0  0  0  0
   36.8780   31.0190   40.9180 C   0  0  1  0  0  3  0  0  0  0  0  0
   37.6250   29.7360   41.0090 C   0  0  1  0  0  3  0  0  0  0  0  0
   38.5280   29.8850   39.7720 C   0  0  0  0  0  3  0  0  0  0  0  0
   39.0180   28.9560   39.4880 H   0  0  0  0  0  0  0  0  0  0  0  0
   37.7480   30.4840   38.8040 O   0  0  0  0  0  0  0  0  0  0  0  0
   36.6540   31.0760   39.3980 C   0  0  0  0  0  3  0  0  0  0  0  0
   35.7790   30.4120   39.1540 H   0  0  0  0  0  0  0  0  0  0  0  0
   35.5950   30.9660   41.4480 O   0  0  0  0  0  0  0  0  0  0  0  0
   35.4300   31.6340   42.1480 H   0  0  0  0  0  0  0  0  0  0  0  0
  1  6  1  0  0  0  0
  1  2  1  1  0  0  0
  1 18  1  0  0  0  0
  2  3  1  0  0  0  0
  2  7  1  0  0  0  0
  3  9  1  0  0  0  0
  3  4  1  0  0  0  0
  4 11  1  0  0  0  0
  5  4  1  0  0  0  0
  5 13  1  0  0  0  0
  5 14  1  0  0  0  0
  6 15  1  1  0  0  0
  6  5  1  0  0  0  0
  8  2  1  0  0  0  0
 10  3  1  0  0  0  0
 12  4  1  0  0  0  0
 16 19  1  6  0  0  0
 16 24  1  0  0  0  0
 16 17  1  0  0  0  0
 16 18  1  0  0  0  0
 17 18  1  0  0  0  0
 17 20  1  0  0  0  0
 18 22  1  1  0  0  0
 21 17  1  0  0  0  0
 23 24  2  0  0  0  0
 23 28  1  0  0  0  0
 24 25  1  0  0  0  0
 25 30  1  0  0  0  0
 25 26  2  0  0  0  0
 27 31  1  0  0  0  0
 27 26  1  0  0  0  0
 28 27  2  0  0  0  0
 29 23  1  0  0  0  0
 32 33  1  0  0  0  0
 32 39  1  1  0  0  0
 33 34  1  6  0  0  0
 33  6  1  0  0  0  0
 35 34  1  0  0  0  0
 36 37  1  0  0  0  0
 36 34  1  0  0  0  0
 37 32  1  0  0  0  0
 38 37  1  0  0  0  0
 39 40  1  0  0  0  0
M  END
>  <minimizedAffinity>
-4.98588276

$$$$

 OpenBabel03252506443D

 40 43  0  0  1  0  0  0  0  0999 V2000
   37.3200   30.0570   40.9160 N   0  0  1  0  0  0  0  0  0  0  0  0
   37.3900   29.2510   42.1140 C   0  0  0  0  0  0  0  0  0  0  0  0
   38.4940   29.5940   43.0460 C   0  0  0  0  0  0  0  0  0  0  0  0
   39.8100   29.3250   42.3780 C   0  0  0  0  0  0  0  0  0  0  0  0
   39.7550   29.6680   40.9230 C   0  0  0  0  0  0  0  0  0  0  0  0
   38.6250   30.5770   40.6100 C   0  0  2  0  0  0  0  0  0  0  0  0
   37.5380   28.1900   41.8170 H   0  0  0  0  0  0  0  0  0  0  0  0
   36.4000   29.3040   42.6100 H   0  0  0  0  0  0  0  0  0  0  0  0
   38.4040   28.8460   43.8920 H   0  0  0  0  0  0  0  0  0  0  0  0
   38.4160   30.5620   43.5670 H   0  0  0  0  0  0  0  0  0  0  0  0
   40.0020   28.2320   42.4380 H   0  0  0  0  0  0  0  0  0  0  0  0
   40.6700   29.7790   42.9070 H   0  0  0  0  0  0  0  0  0  0  0  0
   40.6900   30.1710   40.6390 H   0  0  0  0  0  0  0  0  0  0  0  0
   39.6950   28.7710   40.2740 H   0  0  0  0  0  0  0  0  0  0  0  0
   38.6210   30.5670   39.4720 H   0  0  0  0  0  0  0  0  0  0  0  0
   35.7860   29.7190   38.8670 C   0  0  1  0  0  0  0  0  0  0  0  0
   35.3280   28.9010   40.0050 C   0  0  0  0  0  0  0  0  0  0  0  0
   36.7690   29.2400   39.8870 C   0  0  2  0  0  0  0  0  0  0  0  0
   35.4680   30.7800   38.8980 H   0  0  0  0  0  0  0  0  0  0  0  0
   35.0460   27.8510   39.8300 H   0  0  0  0  0  0  0  0  0  0  0  0
   34.7140   29.3700   40.8020 H   0  0  0  0  0  0  0  0  0  0  0  0
   37.4470   28.4230   39.5080 H   0  0  0  0  0  0  0  0  0  0  0  0
   34.9960   28.0180   37.1820 C   0  0  0  0  0  0  0  0  0  0  0  0
   35.8230   29.1130   37.5030 C   0  0  0  0  0  0  0  0  0  0  0  0
   36.6730   29.6170   36.5060 C   0  0  0  0  0  0  0  0  0  0  0  0
   36.6520   29.0200   35.2830 N   0  0  0  0  0  0  0  0  0  0  0  0
   35.8430   27.9690   35.0090 C   0  0  0  0  0  0  0  0  0  0  0  0
   35.0100   27.4610   35.9590 N   0  0  0  0  0  0  0  0  0  0  0  0
   34.3410   27.6280   37.9420 H   0  0  0  0  0  0  0  0  0  0  0  0
   37.3230   30.4580   36.7180 H   0  0  0  0  0  0  0  0  0  0  0  0
   35.8330   27.5010   34.0370 H   0  0  0  0  0  0  0  0  0  0  0  0
   40.0250   32.7040   40.5390 C   0  0  1  0  0  3  0  0  0  0  0  0
   38.7690   32.0200   40.9460 C   0  0  1  0  0  3  0  0  0  0  0  0
   37.7600   32.8380   40.1200 C   0  0  0  0  0  3  0  0  0  0  0  0
   36.7280   32.6740   40.4230 H   0  0  0  0  0  0  0  0  0  0  0  0
   38.2090   34.1420   40.1600 O   0  0  0  0  0  0  0  0  0  0  0  0
   39.5330   34.1610   40.5400 C   0  0  0  0  0  3  0  0  0  0  0  0
   39.5400   34.5250   41.6040 H   0  0  0  0  0  0  0  0  0  0  0  0
   41.0210   32.6820   41.5080 O   0  0  0  0  0  0  0  0  0  0  0  0
   41.8640   32.2880   41.1970 H   0  0  0  0  0  0  0  0  0  0  0  0
  1  2  1  1  0  0  0
  2  8  1  0  0  0  0
  2  3  1  0  0  0  0
  3 10  1  0  0  0  0
  3  9  1  0  0  0  0
  4 11  1  0  0  0  0
  4 12  1  0  0  0  0
  4  3  1  0  0  0  0
  5  4  1  0  0  0  0
  6 15  1  6  0  0  0
  6  1  1  0  0  0  0
  6  5  1  0  0  0  0
  6 33  1  0  0  0  0
  7  2  1  0  0  0  0
 13  5  1  0  0  0  0
 14  5  1  0  0  0  0
 16 19  1  1  0  0  0
 16 18  1  0  0  0  0
 16 17  1  0  0  0  0
 17 21  1  0  0  0  0
 18 22  1  6  0  0  0
 18 17  1  0  0  0  0
 18  1  1  0  0  0  0
 20 17  1  0  0  0  0
 23 24  1  0  0  0  0
 23 29  1  0  0  0  0
 24 16  1  0  0  0  0
 25 30  1  0  0  0  0
 25 24  2  0  0  0  0
 26 25  1  0  0  0  0
 27 26  2  0  0  0  0
 27 28  1  0  0  0  0
 28 23  2  0  0  0  0
 31 27  1  0  0  0  0
 32 37  1  0  0  0  0
 32 33  1  0  0  0  0
 32 39  1  1  0  0  0
 33 34  1  6  0  0  0
 34 36  1  0  0  0  0
 34 35  1  0  0  0  0
 36 37  1  0  0  0  0
 37 38  1  0  0  0  0
 40 39  1  0  0  0  0
M  END
>  <minimizedAffinity>
-4.90683174

$$$$

 OpenBabel03252506443D

 40 43  0  0  1  0  0  0  0  0999 V2000
   37.7110   28.5130   40.9250 N   0  0  1  0  0  0  0  0  0  0  0  0
   37.2850   29.3620   42.0160 C   0  0  0  0  0  0  0  0  0  0  0  0
   37.6980   28.9110   43.3690 C   0  0  0  0  0  0  0  0  0  0  0  0
   37.0370   27.6010   43.6800 C   0  0  0  0  0  0  0  0  0  0  0  0
   36.9500   26.7400   42.4600 C   0  0  0  0  0  0  0  0  0  0  0  0
   37.9000   27.1720   41.4060 C   0  0  2  0  0  0  0  0  0  0  0  0
   36.1740   29.4050   42.0170 H   0  0  0  0  0  0  0  0  0  0  0  0
   37.6400   30.3890   41.7970 H   0  0  0  0  0  0  0  0  0  0  0  0
   37.2520   29.6730   44.0790 H   0  0  0  0  0  0  0  0  0  0  0  0
   38.7750   28.9650   43.5980 H   0  0  0  0  0  0  0  0  0  0  0  0
   35.9920   27.8150   43.9910 H   0  0  0  0  0  0  0  0  0  0  0  0
   37.4790   27.0850   44.5540 H   0  0  0  0  0  0  0  0  0  0  0  0
   37.1890   25.7030   42.7350 H   0  0  0  0  0  0  0  0  0  0  0  0
   35.9250   26.7020   42.0360 H   0  0  0  0  0  0  0  0  0  0  0  0
   37.5620   26.5520   40.5130 H   0  0  0  0  0  0  0  0  0  0  0  0
   36.5590   29.8270   39.0240 C   0  0  1  0  0  0  0  0  0  0  0  0
   35.6200   29.5810   40.1340 C   0  0  0  0  0  0  0  0  0  0  0  0
   36.7310   28.6240   39.8950 C   0  0  2  0  0  0  0  0  0  0  0  0
   37.2390   30.6890   39.1720 H   0  0  0  0  0  0  0  0  0  0  0  0
   34.6020   29.2290   39.9040 H   0  0  0  0  0  0  0  0  0  0  0  0
   35.6430   30.2420   41.0250 H   0  0  0  0  0  0  0  0  0  0  0  0
   36.4600   27.6570   39.3850 H   0  0  0  0  0  0  0  0  0  0  0  0
   34.7770   29.2040   37.3520 C   0  0  0  0  0  0  0  0  0  0  0  0
   36.0950   29.6280   37.6200 C   0  0  0  0  0  0  0  0  0  0  0  0
   36.9500   29.8600   36.5300 C   0  0  0  0  0  0  0  0  0  0  0  0
   36.4600   29.6640   35.2760 N   0  0  0  0  0  0  0  0  0  0  0  0
   35.1870   29.2560   35.0560 C   0  0  0  0  0  0  0  0  0  0  0  0
   34.3380   29.0230   36.0960 N   0  0  0  0  0  0  0  0  0  0  0  0
   34.1170   29.0250   38.1830 H   0  0  0  0  0  0  0  0  0  0  0  0
   37.9700   30.1870   36.6990 H   0  0  0  0  0  0  0  0  0  0  0  0
   34.8070   29.1030   34.0590 H   0  0  0  0  0  0  0  0  0  0  0  0
   40.2460   27.8210   42.1550 C   0  0  1  0  0  3  0  0  0  0  0  0
   39.3350   26.8080   41.5610 C   0  0  1  0  0  3  0  0  0  0  0  0
   39.4680   25.7000   42.6200 C   0  0  0  0  0  3  0  0  0  0  0  0
   39.0640   24.7450   42.2930 H   0  0  0  0  0  0  0  0  0  0  0  0
   40.7930   25.7020   43.0050 O   0  0  0  0  0  0  0  0  0  0  0  0
   41.3760   26.8960   42.6380 C   0  0  0  0  0  3  0  0  0  0  0  0
   42.0270   26.6560   41.7510 H   0  0  0  0  0  0  0  0  0  0  0  0
   40.8610   28.6470   41.2210 O   0  0  0  0  0  0  0  0  0  0  0  0
   40.7030   29.6030   41.3760 H   0  0  0  0  0  0  0  0  0  0  0  0
  1  6  1  0  0  0  0
  1  2  1  1  0  0  0
  2  7  1  0  0  0  0
  2  3  1  0  0  0  0
  3 10  1  0  0  0  0
  3  4  1  0  0  0  0
  3  9  1  0  0  0  0
  4 11  1  0  0  0  0
  4 12  1  0  0  0  0
  5 13  1  0  0  0  0
  5  4  1  0  0  0  0
  6 15  1  6  0  0  0
  6 33  1  0  0  0  0
  6  5  1  0  0  0  0
  8  2  1  0  0  0  0
 14  5  1  0  0  0  0
 16 19  1  1  0  0  0
 16 18  1  0  0  0  0
 16 17  1  0  0  0  0
 17 21  1  0  0  0  0
 18 22  1  6  0  0  0
 18 17  1  0  0  0  0
 18  1  1  0  0  0  0
 20 17  1  0  0  0  0
 23 24  1  0  0  0  0
 23 29  1  0  0  0  0
 24 16  1  0  0  0  0
 25 30  1  0  0  0  0
 25 24  2  0  0  0  0
 26 25  1  0  0  0  0
 27 26  2  0  0  0  0
 27 28  1  0  0  0  0
 28 23  2  0  0  0  0
 31 27  1  0  0  0  0
 32 39  1  6  0  0  0
 32 37  1  0  0  0  0
 33 32  1  0  0  0  0
 33 34  1  1  0  0  0
 34 36  1  0  0  0  0
 35 34  1  0  0  0  0
 37 36  1  0  0  0  0
 38 37  1  0  0  0  0
 39 40  1  0  0  0  0
M  END
>  <minimizedAffinity>
-4.90652895

$$$$
