
 OpenBabel03242517143D

 23 24  0  0  1  0  0  0  0  0999 V2000
   42.5590   35.1460   39.7940 C   0  0  0  0  0  0  0  0  0  0  0  0
   43.3480   34.8540   39.0860 H   0  0  0  0  0  0  0  0  0  0  0  0
   42.3500   36.2260   39.6640 H   0  0  0  0  0  0  0  0  0  0  0  0
   39.3440   33.5120   40.4680 C   0  0  1  0  0  3  0  0  0  0  0  0
   40.8480   33.6010   40.7600 C   0  0  0  0  0  3  0  0  0  0  0  0
   41.2310   32.5840   40.8910 H   0  0  0  0  0  0  0  0  0  0  0  0
   41.3150   34.3000   39.5200 C   0  0  1  0  0  3  0  0  0  0  0  0
   40.2870   35.1060   39.0650 O   0  0  0  0  0  0  0  0  0  0  0  0
   39.1770   34.9140   39.8640 C   0  0  0  0  0  3  0  0  0  0  0  0
   38.2420   34.9980   39.3070 H   0  0  0  0  0  0  0  0  0  0  0  0
   39.1260   32.6140   39.4450 O   0  0  0  0  0  0  0  0  0  0  0  0
   39.4560   31.6960   39.6190 H   0  0  0  0  0  0  0  0  0  0  0  0
   44.0470   35.2030   41.7720 C   0  0  0  0  0  3  0  0  0  0  0  0
   42.9400   34.8010   41.1970 C   0  0  0  0  0  3  0  0  0  0  0  0
   44.2790   35.7720   44.1960 C   0  0  0  0  0  0  0  0  0  0  0  0
   44.4710   34.9040   43.1240 C   0  0  0  0  0  0  0  0  0  0  0  0
   45.1040   33.6930   43.3860 C   0  0  0  0  0  0  0  0  0  0  0  0
   45.5070   33.4090   44.6710 N   0  0  0  0  0  0  0  0  0  0  0  0
   45.2970   34.2850   45.6760 C   0  0  0  0  0  0  0  0  0  0  0  0
   44.6870   35.4570   45.4290 N   0  0  0  0  0  0  0  0  0  0  0  0
   43.7880   36.7210   44.0150 H   0  0  0  0  0  0  0  0  0  0  0  0
   45.2780   32.9820   42.5830 H   0  0  0  0  0  0  0  0  0  0  0  0
   45.6770   33.8990   46.6150 H   0  0  0  0  0  0  0  0  0  0  0  0
  1 14  1  0  0  0  0
  2  1  1  0  0  0  0
  3  1  1  0  0  0  0
  4 11  1  6  0  0  0
  4  5  1  0  0  0  0
  5  6  1  0  0  0  0
  7  1  1  1  0  0  0
  7  5  1  0  0  0  0
  8  7  1  0  0  0  0
  8  9  1  0  0  0  0
  9  4  1  0  0  0  0
 10  9  1  0  0  0  0
 11 12  1  0  0  0  0
 13 16  1  0  0  0  0
 14 13  2  0  0  0  0
 15 20  1  0  0  0  0
 16 17  1  0  0  0  0
 16 15  2  0  0  0  0
 17 18  2  0  0  0  0
 18 19  1  0  0  0  0
 19 23  1  0  0  0  0
 20 19  2  0  0  0  0
 21 15  1  0  0  0  0
 22 17  1  0  0  0  0
M  END
>  <minimizedAffinity>
-4.35747194

>  <minimizedRMSD>
2.54839253

$$$$
