REMARK  Name = 
REMARK  4 active torsions:
REMARK  status: ('A' for Active; 'I' for Inactive)
REMARK    1  A    between atoms: C_1  and  C_5
REMARK    2  A    between atoms: C_3  and  N_10
REMARK    3  A    between atoms: C_15  and  C_34
REMARK    4  A    between atoms: O_32  and  C_33
REMARK                            x       y       z     vdW  Elec       q    Type
REMARK                         _______ _______ _______ _____ _____    ______ ____
ROOT
ATOM      1  N   UNL     1      49.314  33.201  41.477  0.00  0.00    +0.000 NA
ATOM      2  C   UNL     1      50.650  33.120  42.026  0.00  0.00    +0.000 C 
ATOM      3  C   UNL     1      51.340  31.820  41.827  0.00  0.00    +0.000 C 
ATOM      4  C   UNL     1      50.602  30.747  42.570  0.00  0.00    +0.000 C 
ATOM      5  C   UNL     1      49.124  30.970  42.511  0.00  0.00    +0.000 C 
ATOM      6  C   UNL     1      48.745  31.883  41.405  0.00  0.00    +0.000 C 
ATOM      7  H   UNL     1      50.591  33.288  43.123  0.00  0.00    +0.000 HD
ATOM      8  H   UNL     1      51.233  33.965  41.608  0.00  0.00    +0.000 HD
ATOM      9  H   UNL     1      52.341  31.940  42.344  0.00  0.00    +0.000 HD
ATOM     10  H   UNL     1      51.628  31.569  40.793  0.00  0.00    +0.000 HD
ATOM     11  H   UNL     1      50.890  30.818  43.641  0.00  0.00    +0.000 HD
ATOM     12  H   UNL     1      50.906  29.723  42.277  0.00  0.00    +0.000 HD
ATOM     13  H   UNL     1      48.622  30.006  42.349  0.00  0.00    +0.000 HD
ATOM     14  H   UNL     1      48.712  31.359  43.465  0.00  0.00    +0.000 HD
ATOM     15  H   UNL     1      47.648  32.088  41.632  0.00  0.00    +0.000 HD
ENDROOT
BRANCH   1  18
ATOM     16  C   UNL     1      47.179  34.553  42.002  0.00  0.00    +0.000 C 
ATOM     17  C   UNL     1      48.314  35.453  41.728  0.00  0.00    +0.000 C 
ATOM     18  C   UNL     1      48.575  34.105  42.294  0.00  0.00    +0.000 C 
ATOM     19  H   UNL     1      46.673  34.154  41.101  0.00  0.00    +0.000 HD
ATOM     20  H   UNL     1      48.486  36.315  42.392  0.00  0.00    +0.000 HD
ATOM     21  H   UNL     1      48.594  35.674  40.677  0.00  0.00    +0.000 HD
ATOM     22  H   UNL     1      48.812  34.060  43.395  0.00  0.00    +0.000 HD
BRANCH  16  24
ATOM     23  C   UNL     1      45.486  36.023  43.157  0.00  0.00    +0.000 A 
ATOM     24  C   UNL     1      46.273  34.853  43.150  0.00  0.00    +0.000 A 
ATOM     25  C   UNL     1      46.175  33.982  44.247  0.00  0.00    +0.000 A 
ATOM     26  N   UNL     1      45.326  34.314  45.257  0.00  0.00    +0.000 NA
ATOM     27  C   UNL     1      44.584  35.447  45.230  0.00  0.00    +0.000 A 
ATOM     28  N   UNL     1      44.661  36.309  44.178  0.00  0.00    +0.000 NA
ATOM     29  H   UNL     1      45.556  36.694  42.319  0.00  0.00    +0.000 HD
ATOM     30  H   UNL     1      46.766  33.073  44.275  0.00  0.00    +0.000 HD
ATOM     31  H   UNL     1      43.913  35.703  46.035  0.00  0.00    +0.000 HD
ENDBRANCH  16  24
ENDBRANCH   1  18
BRANCH   6  33
ATOM     32  C   UNL     1      48.585  32.303  38.898  0.00  0.00    +0.000 C 
ATOM     33  C   UNL     1      48.718  31.337  40.020  0.00  0.00    +0.000 C 
ATOM     34  C   UNL     1      50.097  30.746  39.679  0.00  0.00    +0.000 C 
ATOM     35  H   UNL     1      50.324  29.839  40.236  0.00  0.00    +0.000 HD
ATOM     36  O   UNL     1      50.134  30.642  38.303  0.00  0.00    +0.000 OA
ATOM     37  C   UNL     1      49.159  31.448  37.756  0.00  0.00    +0.000 C 
ATOM     38  H   UNL     1      48.348  30.749  37.409  0.00  0.00    +0.000 HD
BRANCH  32  39
ATOM     39  O   UNL     1      47.273  32.546  38.511  0.00  0.00    +0.000 OA
ATOM     40  H   UNL     1      47.022  33.494  38.541  0.00  0.00    +0.000 HD
ENDBRANCH  32  39
ENDBRANCH   6  33
TORSDOF 4
