REMARK  Name = 
REMARK  5 active torsions:
REMARK  status: ('A' for Active; 'I' for Inactive)
REMARK    1  A    between atoms: C_1  and  C_2
REMARK    2  A    between atoms: C_1  and  C_14
REMARK    3  A    between atoms: C_13  and  C_15
REMARK    4  A    between atoms: C_19  and  C_41
REMARK    5  A    between atoms: O_39  and  C_40
REMARK                            x       y       z     vdW  Elec       q    Type
REMARK                         _______ _______ _______ _____ _____    ______ ____
ROOT
ATOM      1  C   UNL     1      46.386  32.158  47.787  0.00  0.00    +0.000 A 
ATOM      2  C   UNL     1      45.934  31.831  49.033  0.00  0.00    +0.000 A 
ATOM      3  N   UNL     1      46.910  31.142  49.631  0.00  0.00    +0.000 N 
ATOM      4  C   UNL     1      47.963  31.013  48.825  0.00  0.00    +0.000 A 
ATOM      5  N   UNL     1      47.631  31.651  47.672  0.00  0.00    +0.000 NA
ATOM      6  N   UNL     1      49.218  30.375  49.009  0.00  0.00    +0.000 N 
ATOM      7  C   UNL     1      50.310  31.158  49.603  0.00  0.00    +0.000 C 
ATOM      8  C   UNL     1      50.413  30.646  51.038  0.00  0.00    +0.000 C 
ATOM      9  C   UNL     1      50.444  29.140  51.047  0.00  0.00    +0.000 C 
ATOM     10  C   UNL     1      50.757  28.608  49.657  0.00  0.00    +0.000 C 
ATOM     11  C   UNL     1      49.663  29.035  48.712  0.00  0.00    +0.000 C 
ATOM     12  H   UNL     1      44.974  32.077  49.465  0.00  0.00    +0.000 HD
ATOM     13  H   UNL     1      46.858  30.755  50.598  0.00  0.00    +0.000 HD
ATOM     14  H   UNL     1      51.261  31.028  49.065  0.00  0.00    +0.000 HD
ATOM     15  H   UNL     1      50.025  32.233  49.664  0.00  0.00    +0.000 HD
ATOM     16  H   UNL     1      51.267  31.121  51.544  0.00  0.00    +0.000 HD
ATOM     17  H   UNL     1      49.485  31.036  51.546  0.00  0.00    +0.000 HD
ATOM     18  H   UNL     1      51.139  28.747  51.803  0.00  0.00    +0.000 HD
ATOM     19  H   UNL     1      49.431  28.782  51.337  0.00  0.00    +0.000 HD
ATOM     20  H   UNL     1      51.723  28.998  49.300  0.00  0.00    +0.000 HD
ATOM     21  H   UNL     1      50.862  27.516  49.729  0.00  0.00    +0.000 HD
ATOM     22  H   UNL     1      48.837  28.271  48.791  0.00  0.00    +0.000 HD
ATOM     23  H   UNL     1      49.981  28.969  47.644  0.00  0.00    +0.000 HD
ENDROOT
BRANCH   1  24
ATOM     24  C   UNL     1      45.662  32.926  46.739  0.00  0.00    +0.000 C 
ATOM     25  H   UNL     1      45.314  33.889  47.163  0.00  0.00    +0.000 HD
ATOM     26  H   UNL     1      44.720  32.368  46.470  0.00  0.00    +0.000 HD
BRANCH  24  28
ATOM     27  C   UNL     1      46.149  33.874  44.512  0.00  0.00    +0.000 C 
ATOM     28  C   UNL     1      46.531  33.163  45.562  0.00  0.00    +0.000 C 
BRANCH  27  29
ATOM     29  C   UNL     1      47.103  34.035  43.410  0.00  0.00    +0.000 A 
ATOM     30  C   UNL     1      46.913  35.000  42.402  0.00  0.00    +0.000 A 
ATOM     31  C   UNL     1      47.865  35.082  41.397  0.00  0.00    +0.000 A 
ATOM     32  N   UNL     1      48.923  34.251  41.419  0.00  0.00    +0.000 NA
ATOM     33  C   UNL     1      49.089  33.321  42.407  0.00  0.00    +0.000 A 
ATOM     34  N   UNL     1      48.198  33.226  43.368  0.00  0.00    +0.000 NA
ATOM     35  H   UNL     1      46.049  35.638  42.434  0.00  0.00    +0.000 HD
ATOM     36  H   UNL     1      47.754  35.811  40.605  0.00  0.00    +0.000 HD
BRANCH  33  38
ATOM     37  C   UNL     1      50.711  32.163  40.922  0.00  0.00    +0.000 C 
ATOM     38  C   UNL     1      50.288  32.445  42.349  0.00  0.00    +0.000 C 
ATOM     39  C   UNL     1      49.950  31.063  42.820  0.00  0.00    +0.000 C 
ATOM     40  H   UNL     1      50.019  30.956  43.931  0.00  0.00    +0.000 HD
ATOM     41  O   UNL     1      50.775  30.176  42.149  0.00  0.00    +0.000 OA
ATOM     42  C   UNL     1      51.405  30.823  41.115  0.00  0.00    +0.000 C 
ATOM     43  H   UNL     1      51.439  30.235  40.177  0.00  0.00    +0.000 HD
BRANCH  37  44
ATOM     44  O   UNL     1      49.615  31.960  40.087  0.00  0.00    +0.000 OA
ATOM     45  H   UNL     1      49.168  31.105  40.317  0.00  0.00    +0.000 HD
ENDBRANCH  37  44
ENDBRANCH  33  38
ENDBRANCH  27  29
ENDBRANCH  24  28
ENDBRANCH   1  24
TORSDOF 5
