REMARK  Name = 
REMARK  6 active torsions:
REMARK  status: ('A' for Active; 'I' for Inactive)
REMARK    1  A    between atoms: C_3  and  O_7
REMARK    2  A    between atoms: C_5  and  C_18
REMARK    3  A    between atoms: O_7  and  P_9
REMARK    4  A    between atoms: P_9  and  O_10
REMARK    5  A    between atoms: P_9  and  O_11
REMARK    6  A    between atoms: O_16  and  C_17
REMARK                            x       y       z     vdW  Elec       q    Type
REMARK                         _______ _______ _______ _____ _____    ______ ____
ROOT
ATOM      1  C   UNL     1      44.577  35.981  44.515  0.00  0.00    +0.000 A 
ATOM      2  C   UNL     1      45.217  36.001  43.253  0.00  0.00    +0.000 A 
ATOM      3  C   UNL     1      46.099  34.957  42.977  0.00  0.00    +0.000 A 
ATOM      4  N   UNL     1      46.300  33.994  43.905  0.00  0.00    +0.000 NA
ATOM      5  C   UNL     1      45.672  34.008  45.097  0.00  0.00    +0.000 A 
ATOM      6  N   UNL     1      44.811  35.001  45.400  0.00  0.00    +0.000 NA
ATOM      7  H   UNL     1      43.875  36.766  44.794  0.00  0.00    +0.000 HD
ATOM      8  H   UNL     1      44.973  36.823  42.600  0.00  0.00    +0.000 HD
ENDROOT
BRANCH   5  10
ATOM      9  C   UNL     1      44.615  32.667  46.926  0.00  0.00    +0.000 C 
ATOM     10  C   UNL     1      45.863  32.982  46.129  0.00  0.00    +0.000 C 
ATOM     11  C   UNL     1      46.072  31.599  45.497  0.00  0.00    +0.000 C 
ATOM     12  H   UNL     1      47.146  31.506  45.238  0.00  0.00    +0.000 HD
ATOM     13  O   UNL     1      45.614  30.672  46.387  0.00  0.00    +0.000 OA
ATOM     14  C   UNL     1      45.054  31.311  47.481  0.00  0.00    +0.000 C 
ATOM     15  H   UNL     1      45.895  31.532  48.188  0.00  0.00    +0.000 HD
BRANCH   9  16
ATOM     16  O   UNL     1      44.340  33.586  47.911  0.00  0.00    +0.000 OA
ATOM     17  H   UNL     1      44.380  33.159  48.804  0.00  0.00    +0.000 HD
ENDBRANCH   9  16
ENDBRANCH   5  10
BRANCH   3  18
ATOM     18  O   UNL     1      46.724  34.981  41.740  0.00  0.00    +0.000 OA
BRANCH  18  20
ATOM     19  O   UNL     1      48.644  33.326  40.963  0.00  0.00    +0.000 OA
ATOM     20  P   UNL     1      48.409  34.681  41.631  0.00  0.00    +0.000 P 
BRANCH  20  21
ATOM     21  O   UNL     1      49.124  35.921  40.782  0.00  0.00    +0.000 OA
ATOM     22  H   UNL     1      48.598  36.735  40.898  0.00  0.00    +0.000 HD
ENDBRANCH  20  21
BRANCH  20  23
ATOM     23  O   UNL     1      48.998  34.590  43.219  0.00  0.00    +0.000 OA
ATOM     24  H   UNL     1      49.572  35.353  43.453  0.00  0.00    +0.000 HD
ENDBRANCH  20  23
ENDBRANCH  18  20
ENDBRANCH   3  18
TORSDOF 6
