REMARK  Name = 
REMARK  4 active torsions:
REMARK  status: ('A' for Active; 'I' for Inactive)
REMARK    1  A    between atoms: C_1  and  C_8
REMARK    2  A    between atoms: N_4  and  C_13
REMARK    3  A    between atoms: C_17  and  C_33
REMARK    4  A    between atoms: O_31  and  C_32
REMARK                            x       y       z     vdW  Elec       q    Type
REMARK                         _______ _______ _______ _____ _____    ______ ____
ROOT
ATOM      1  N   UNL     1      42.355  33.753  39.642  0.00  0.00    +0.000 NA
ATOM      2  C   UNL     1      42.223  33.937  41.091  0.00  0.00    +0.000 C 
ATOM      3  C   UNL     1      41.172  34.931  41.441  0.00  0.00    +0.000 C 
ATOM      4  N   UNL     1      40.331  35.270  40.316  0.00  0.00    +0.000 NA
ATOM      5  C   UNL     1      41.026  35.612  39.128  0.00  0.00    +0.000 C 
ATOM      6  C   UNL     1      42.452  35.097  39.094  0.00  0.00    +0.000 C 
ATOM      7  H   UNL     1      43.165  33.166  39.464  0.00  0.00    +0.000 HD
ATOM      8  H   UNL     1      42.051  32.920  41.526  0.00  0.00    +0.000 HD
ATOM      9  H   UNL     1      40.516  34.467  42.206  0.00  0.00    +0.000 HD
ATOM     10  H   UNL     1      41.524  35.935  41.738  0.00  0.00    +0.000 HD
ATOM     11  H   UNL     1      39.480  34.708  40.216  0.00  0.00    +0.000 HD
ATOM     12  H   UNL     1      40.987  36.737  39.076  0.00  0.00    +0.000 HD
ATOM     13  H   UNL     1      40.468  35.133  38.289  0.00  0.00    +0.000 HD
ATOM     14  H   UNL     1      43.021  35.744  39.795  0.00  0.00    +0.000 HD
ENDROOT
BRANCH   2  18
ATOM     15  C   UNL     1      45.631  34.619  42.041  0.00  0.00    +0.000 A 
ATOM     16  C   UNL     1      44.901  35.658  42.632  0.00  0.00    +0.000 A 
ATOM     17  C   UNL     1      43.557  35.505  42.344  0.00  0.00    +0.000 A 
ATOM     18  N   UNL     1      43.498  34.404  41.600  0.00  0.00    +0.000 N 
ATOM     19  N   UNL     1      44.701  33.890  41.425  0.00  0.00    +0.000 NA
ATOM     20  H   UNL     1      45.463  36.411  43.211  0.00  0.00    +0.000 HD
ATOM     21  H   UNL     1      42.993  36.306  42.809  0.00  0.00    +0.000 HD
BRANCH  15  24
ATOM     22  C   UNL     1      49.356  35.145  41.981  0.00  0.00    +0.000 A 
ATOM     23  C   UNL     1      47.970  35.466  41.829  0.00  0.00    +0.000 A 
ATOM     24  C   UNL     1      47.081  34.441  42.136  0.00  0.00    +0.000 A 
ATOM     25  N   UNL     1      47.542  33.239  42.546  0.00  0.00    +0.000 NA
ATOM     26  C   UNL     1      48.866  32.977  42.677  0.00  0.00    +0.000 A 
ATOM     27  N   UNL     1      49.743  33.931  42.393  0.00  0.00    +0.000 NA
ATOM     28  H   UNL     1      50.059  35.930  41.747  0.00  0.00    +0.000 HD
ATOM     29  H   UNL     1      47.611  36.418  41.504  0.00  0.00    +0.000 HD
ATOM     30  H   UNL     1      49.123  31.994  43.009  0.00  0.00    +0.000 HD
ENDBRANCH  15  24
ENDBRANCH   2  18
BRANCH   6  32
ATOM     31  C   UNL     1      42.273  34.601  36.617  0.00  0.00    +0.000 C 
ATOM     32  C   UNL     1      43.069  35.109  37.760  0.00  0.00    +0.000 C 
ATOM     33  C   UNL     1      43.363  36.517  37.304  0.00  0.00    +0.000 C 
ATOM     34  H   UNL     1      43.493  37.231  38.110  0.00  0.00    +0.000 HD
ATOM     35  O   UNL     1      42.133  36.855  36.690  0.00  0.00    +0.000 OA
ATOM     36  C   UNL     1      42.037  35.837  35.762  0.00  0.00    +0.000 C 
ATOM     37  H   UNL     1      42.837  35.978  35.004  0.00  0.00    +0.000 HD
BRANCH  31  38
ATOM     38  O   UNL     1      41.069  34.035  36.849  0.00  0.00    +0.000 OA
ATOM     39  H   UNL     1      41.122  33.050  36.712  0.00  0.00    +0.000 HD
ENDBRANCH  31  38
ENDBRANCH   6  32
TORSDOF 4
