REMARK  Name = 
REMARK  4 active torsions:
REMARK  status: ('A' for Active; 'I' for Inactive)
REMARK    1  A    between atoms: CA_1  and  C_7
REMARK    2  A    between atoms: C_5  and  C_9
REMARK    3  A    between atoms: C_11  and  C_21
REMARK    4  A    between atoms: O_19  and  C_20
REMARK                            x       y       z     vdW  Elec       q    Type
REMARK                         _______ _______ _______ _____ _____    ______ ____
ROOT
ATOM      1  C   UNL     1      46.077  32.465  46.248  0.00  0.00    +0.000 C 
ATOM      2  C   UNL     1      46.983  32.629  47.425  0.00  0.00    +0.000 C 
ATOM      3  C   UNL     1      45.516  32.587  47.633  0.00  0.00    +0.000 C 
ATOM      4  H   UNL     1      46.124  31.538  45.673  0.00  0.00    +0.000 HD
ATOM      5  H   UNL     1      47.526  33.596  47.538  0.00  0.00    +0.000 HD
ATOM      6  H   UNL     1      47.655  31.771  47.611  0.00  0.00    +0.000 HD
ATOM      7  H   UNL     1      45.067  33.578  47.940  0.00  0.00    +0.000 HD
ENDROOT
BRANCH   1  12
ATOM      8  CA  UNL     1      46.079  34.760  43.385  0.00  0.00    +0.000 A 
ATOM      9  C   UNL     1      45.184  35.767  43.776  0.00  0.00    +0.000 A 
ATOM     10  C   UNL     1      44.568  35.652  45.048  0.00  0.00    +0.000 A 
ATOM     11  N   UNL     1      44.884  34.570  45.810  0.00  0.00    +0.000 NA
ATOM     12  C   UNL     1      45.763  33.631  45.364  0.00  0.00    +0.000 A 
ATOM     13  N   UNL     1      46.360  33.702  44.181  0.00  0.00    +0.000 NA
ATOM     14  H   UNL     1      44.943  36.621  43.160  0.00  0.00    +0.000 HD
ATOM     15  H   UNL     1      43.871  36.394  45.405  0.00  0.00    +0.000 HD
BRANCH   8  16
ATOM     16  C   UNL     1      46.651  34.964  42.095  0.00  0.00    +0.000 C 
ATOM     17  O   UNL     1      47.819  35.402  41.866  0.00  0.00    +0.000 OA
ATOM     18  H   UNL     1      46.041  34.726  41.226  0.00  0.00    +0.000 HD
ENDBRANCH   8  16
ENDBRANCH   1  12
BRANCH   3  20
ATOM     19  C   UNL     1      45.431  30.099  48.082  0.00  0.00    +0.000 C 
ATOM     20  C   UNL     1      44.792  31.434  48.238  0.00  0.00    +0.000 C 
ATOM     21  C   UNL     1      43.450  31.215  47.572  0.00  0.00    +0.000 C 
ATOM     22  H   UNL     1      42.726  30.741  48.237  0.00  0.00    +0.000 HD
ATOM     23  O   UNL     1      43.783  30.436  46.465  0.00  0.00    +0.000 OA
ATOM     24  C   UNL     1      44.779  29.559  46.832  0.00  0.00    +0.000 C 
ATOM     25  H   UNL     1      44.279  28.581  47.051  0.00  0.00    +0.000 HD
BRANCH  19  26
ATOM     26  O   UNL     1      45.113  29.244  49.162  0.00  0.00    +0.000 OA
ATOM     27  H   UNL     1      44.250  29.441  49.566  0.00  0.00    +0.000 HD
ENDBRANCH  19  26
ENDBRANCH   3  20
TORSDOF 4
