REMARK  Name = 
REMARK  10 active torsions:
REMARK  status: ('A' for Active; 'I' for Inactive)
REMARK    1  A    between atoms: O_1  and  C_2
REMARK    2  A    between atoms: O_1  and  P_10
REMARK    3  A    between atoms: C_6  and  C_7
REMARK    4  A    between atoms: C_7  and  O_8
REMARK    5  A    between atoms: P_10  and  O_11
REMARK    6  A    between atoms: P_10  and  O_12
REMARK    7  A    between atoms: O_12  and  C_13
REMARK    8  A    between atoms: C_13  and  C_16
REMARK    9  A    between atoms: C_18  and  C_38
REMARK   10  A    between atoms: O_36  and  C_37
REMARK                            x       y       z     vdW  Elec       q    Type
REMARK                         _______ _______ _______ _____ _____    ______ ____
ROOT
ATOM      1  O   UNL     1      44.724  35.351  44.993  0.00  0.00    +0.000 OA
ATOM      2  P   UNL     1      45.577  34.242  44.412  0.00  0.00    +0.000 P 
ENDROOT
BRANCH   2   3
ATOM      3  O   UNL     1      44.605  33.041  43.717  0.00  0.00    +0.000 OA
ATOM      4  H   UNL     1      43.665  33.373  43.686  0.00  0.00    +0.000 HD
ENDBRANCH   2   3
BRANCH   2   5
ATOM      5  O   UNL     1      46.574  34.910  43.249  0.00  0.00    +0.000 OA
BRANCH   5   6
ATOM      6  C   UNL     1      46.805  33.976  42.231  0.00  0.00    +0.000 C 
ATOM      7  C   UNL     1      46.076  34.411  40.956  0.00  0.00    +0.000 C 
ATOM      8  C   UNL     1      46.697  33.465  39.953  0.00  0.00    +0.000 C 
ATOM      9  C   UNL     1      48.071  33.141  40.472  0.00  0.00    +0.000 C 
ATOM     10  C   UNL     1      48.219  33.963  41.744  0.00  0.00    +0.000 C 
ATOM     11  H   UNL     1      46.451  32.973  42.460  0.00  0.00    +0.000 HD
ATOM     12  H   UNL     1      46.179  35.466  40.727  0.00  0.00    +0.000 HD
ATOM     13  H   UNL     1      44.984  34.191  41.076  0.00  0.00    +0.000 HD
ATOM     14  H   UNL     1      46.104  32.517  40.036  0.00  0.00    +0.000 HD
ATOM     15  H   UNL     1      46.671  33.836  38.926  0.00  0.00    +0.000 HD
ATOM     16  H   UNL     1      48.888  33.471  39.798  0.00  0.00    +0.000 HD
ATOM     17  H   UNL     1      48.218  32.058  40.672  0.00  0.00    +0.000 HD
ATOM     18  H   UNL     1      48.877  33.386  42.441  0.00  0.00    +0.000 HD
BRANCH  10  19
ATOM     19  C   UNL     1      48.759  35.337  41.460  0.00  0.00    +0.000 C 
ATOM     20  H   UNL     1      48.001  36.126  41.365  0.00  0.00    +0.000 HD
ATOM     21  H   UNL     1      49.324  35.283  40.484  0.00  0.00    +0.000 HD
BRANCH  19  22
ATOM     22  O   UNL     1      49.655  35.759  42.418  0.00  0.00    +0.000 OA
ATOM     23  H   UNL     1      50.345  35.048  42.529  0.00  0.00    +0.000 HD
ENDBRANCH  19  22
ENDBRANCH  10  19
ENDBRANCH   5   6
ENDBRANCH   2   5
BRANCH   2  24
ATOM     24  O   UNL     1      46.472  33.493  45.603  0.00  0.00    +0.000 OA
BRANCH  24  25
ATOM     25  C   UNL     1      46.230  32.158  45.571  0.00  0.00    +0.000 C 
ATOM     26  H   UNL     1      45.495  31.779  44.866  0.00  0.00    +0.000 HD
ATOM     27  H   UNL     1      47.200  31.666  45.291  0.00  0.00    +0.000 HD
BRANCH  25  30
ATOM     28  C   UNL     1      45.659  31.899  49.237  0.00  0.00    +0.000 A 
ATOM     29  C   UNL     1      45.994  32.452  47.990  0.00  0.00    +0.000 A 
ATOM     30  C   UNL     1      45.882  31.603  46.891  0.00  0.00    +0.000 A 
ATOM     31  N   UNL     1      45.465  30.319  47.076  0.00  0.00    +0.000 NA
ATOM     32  C   UNL     1      45.152  29.820  48.290  0.00  0.00    +0.000 A 
ATOM     33  N   UNL     1      45.249  30.605  49.353  0.00  0.00    +0.000 NA
ATOM     34  H   UNL     1      45.739  32.541  50.106  0.00  0.00    +0.000 HD
ATOM     35  H   UNL     1      46.310  33.484  47.974  0.00  0.00    +0.000 HD
BRANCH  32  37
ATOM     36  C   UNL     1      45.754  27.414  47.965  0.00  0.00    +0.000 C 
ATOM     37  C   UNL     1      44.708  28.431  48.441  0.00  0.00    +0.000 C 
ATOM     38  C   UNL     1      43.538  28.034  47.610  0.00  0.00    +0.000 C 
ATOM     39  H   UNL     1      42.617  28.211  48.230  0.00  0.00    +0.000 HD
ATOM     40  O   UNL     1      43.629  26.672  47.372  0.00  0.00    +0.000 OA
ATOM     41  C   UNL     1      44.831  26.201  47.851  0.00  0.00    +0.000 C 
ATOM     42  H   UNL     1      44.774  25.803  48.903  0.00  0.00    +0.000 HD
BRANCH  36  43
ATOM     43  O   UNL     1      46.669  27.278  49.003  0.00  0.00    +0.000 OA
ATOM     44  H   UNL     1      46.228  27.485  49.864  0.00  0.00    +0.000 HD
ENDBRANCH  36  43
ENDBRANCH  32  37
ENDBRANCH  25  30
ENDBRANCH  24  25
ENDBRANCH   2  24
TORSDOF 10
