
     RDKit          3D

 51 54  0  0  0  0  0  0  0  0999 V2000
   45.5525   35.6720   43.7029 C   0  0  0  0  0  0  0  0  0  0  0  0
   46.5790   34.8482   43.2205 C   0  0  0  0  0  0  0  0  0  0  0  0
   46.9499   33.7107   43.9608 C   0  0  0  0  0  0  0  0  0  0  0  0
   46.3018   33.4754   45.0864 N   0  0  0  0  0  0  0  0  0  0  0  0
   45.3119   34.2789   45.5407 C   0  0  0  0  0  0  0  0  0  0  0  0
   44.9354   35.3769   44.8520 N   0  0  0  0  0  0  0  0  0  0  0  0
   49.0351   33.6407   42.6053 C   0  0  2  0  0  0  0  0  0  0  0  0
   48.0208   32.9138   43.3873 C   0  0  2  0  0  0  0  0  0  0  0  0
   47.5703   31.9325   42.4328 O   0  0  0  0  0  0  0  0  0  0  0  0
   48.7953   31.3923   42.0484 C   0  0  0  0  0  0  0  0  0  0  0  0
   49.8609   32.4268   42.1217 C   0  0  1  0  0  0  0  0  0  0  0  0
   49.7509   34.5705   43.2720 O   0  0  0  0  0  0  0  0  0  0  0  0
   50.4461   32.7459   40.8917 O   0  0  0  0  0  0  0  0  0  0  0  0
   45.1768   36.8947   42.8959 C   0  0  0  0  0  0  0  0  0  0  0  0
   45.3410   39.2840   43.8698 C   0  0  0  0  0  0  0  0  0  0  0  0
   46.0505   39.6244   42.8691 O   0  0  0  0  0  0  0  0  0  0  0  0
   44.8774   37.9417   43.8579 N   0  0  0  0  0  0  0  0  0  0  0  0
   45.0075   40.1783   44.9668 C   0  0  0  0  0  0  0  0  0  0  0  0
   45.1563   39.7580   46.2482 C   0  0  0  0  0  0  0  0  0  0  0  0
   44.8166   40.6709   47.2418 C   0  0  0  0  0  0  0  0  0  0  0  0
   44.3456   41.9559   46.9933 C   0  0  0  0  0  0  0  0  0  0  0  0
   44.2258   42.2975   45.6814 C   0  0  0  0  0  0  0  0  0  0  0  0
   44.5486   41.4302   44.7231 N   0  0  0  0  0  0  0  0  0  0  0  0
   47.0245   35.1482   42.2948 H   0  0  0  0  0  0  0  0  0  0  0  0
   44.8070   34.0379   46.4802 H   0  0  0  0  0  0  0  0  0  0  0  0
   48.6235   34.0758   41.6648 H   0  0  0  0  0  0  0  0  0  0  0  0
   48.5171   32.2827   44.1730 H   0  0  0  0  0  0  0  0  0  0  0  0
   48.7396   30.9152   41.0660 H   0  0  0  0  0  0  0  0  0  0  0  0
   49.0563   30.5776   42.7746 H   0  0  0  0  0  0  0  0  0  0  0  0
   50.6161   32.2593   42.9262 H   0  0  0  0  0  0  0  0  0  0  0  0
   49.4902   35.4901   43.0058 H   0  0  0  0  0  0  0  0  0  0  0  0
   51.3959   32.5379   40.9856 H   0  0  0  0  0  0  0  0  0  0  0  0
   44.2705   36.6520   42.3151 H   0  0  0  0  0  0  0  0  0  0  0  0
   46.0405   37.1707   42.2737 H   0  0  0  0  0  0  0  0  0  0  0  0
   44.2297   37.6737   44.6556 H   0  0  0  0  0  0  0  0  0  0  0  0
   45.5185   38.7686   46.5291 H   0  0  0  0  0  0  0  0  0  0  0  0
   44.9159   40.3880   48.2992 H   0  0  0  0  0  0  0  0  0  0  0  0
   44.0959   42.6272   47.8029 H   0  0  0  0  0  0  0  0  0  0  0  0
   43.1506   45.6166   46.4848 O   0  0  0  0  0  0  0  0  0  0  0  0
   44.1485   44.6445   46.3445 C   0  0  1  0  0  0  0  0  0  0  0  0
   43.7268   43.6589   45.2804 C   0  0  1  0  0  0  0  0  0  0  0  0
   44.4288   44.1680   44.0676 C   0  0  1  0  0  0  0  0  0  0  0  0
   44.6211   43.3530   43.3348 H   0  0  0  0  0  0  0  0  0  0  0  0
   45.5789   44.8184   44.4893 O   0  0  0  0  0  0  0  0  0  0  0  0
   45.3632   45.2748   45.7649 C   0  0  2  0  0  0  0  0  0  0  0  0
   46.2362   45.1222   46.4529 H   0  0  0  0  0  0  0  0  0  0  0  0
   43.3739   46.4337   45.9559 H   0  0  0  0  0  0  0  0  0  0  0  0
   44.3355   44.1137   47.3004 H   0  0  0  0  0  0  0  0  0  0  0  0
   42.6209   43.6432   45.1567 H   0  0  0  0  0  0  0  0  0  0  0  0
   43.7731   44.9512   43.5926 H   0  0  0  0  0  0  0  0  0  0  0  0
   45.2817   46.3946   45.6982 H   0  0  0  0  0  0  0  0  0  0  0  0
  1  6  1  0
  2  1  2  0
  2  3  1  0
  3  4  2  0
  4  5  1  0
  6  5  2  0
  7 12  1  0
  7  8  1  0
  8  3  1  0
  9  8  1  0
 10 11  1  0
 10  9  1  0
 11  7  1  0
 13 11  1  0
 14  1  1  0
 14 17  1  0
 15 18  1  0
 16 15  2  0
 17 15  1  0
 18 19  2  0
 19 20  1  0
 21 20  2  0
 22 21  1  0
 23 18  1  0
 23 22  2  0
  2 24  1  0
  5 25  1  0
  7 26  1  6
  8 27  1  1
 10 28  1  0
 10 29  1  0
 11 30  1  1
 12 31  1  0
 13 32  1  0
 14 33  1  0
 14 34  1  0
 17 35  1  0
 19 36  1  0
 20 37  1  0
 21 38  1  0
 39 40  1  0
 40 41  1  0
 41 42  1  0
 42 43  1  6
 42 44  1  0
 44 45  1  0
 45 46  1  1
 45 40  1  0
 39 47  1  0
 40 48  1  1
 41 49  1  6
 42 50  1  0
 45 51  1  0
 22 41  1  0
M  ISO  8  24  14  25  14  26  13  27  13  28  13  29  13  30  13  31   3
M  ISO  8  32   3  33   8  34   8  36  14  37  14  38  14  43  15  46  16
M  END
>  <DihAtoms>  (1) 
20,21,40,39

>  <DihDeg>  (1) 
-58.96110320484955

$$$$
