
     RDKit          3D

 37 39  0  0  0  0  0  0  0  0999 V2000
   46.6031   34.8022   42.1037 C   0  0  0  0  0  0  0  0  0  0  0  0
   47.9286   35.2127   42.0479 C   0  0  0  0  0  0  0  0  0  0  0  0
   48.7116   35.0301   40.8969 C   0  0  0  0  0  0  0  0  0  0  0  0
   48.1651   34.4335   39.7960 C   0  0  0  0  0  0  0  0  0  0  0  0
   46.8690   34.0330   39.8536 C   0  0  0  0  0  0  0  0  0  0  0  0
   46.0833   34.2060   40.9825 C   0  0  0  0  0  0  0  0  0  0  0  0
   44.4163   36.2267   44.7927 C   0  0  0  0  0  0  0  0  0  0  0  0
   45.0815   36.1293   43.5365 C   0  0  0  0  0  0  0  0  0  0  0  0
   45.8864   35.0313   43.3216 C   0  0  0  0  0  0  0  0  0  0  0  0
   46.0094   34.1025   44.3119 N   0  0  0  0  0  0  0  0  0  0  0  0
   45.3570   34.2400   45.4951 C   0  0  0  0  0  0  0  0  0  0  0  0
   44.5651   35.2894   45.7398 N   0  0  0  0  0  0  0  0  0  0  0  0
   45.5240   33.2692   46.5293 N   0  0  0  0  0  0  0  0  0  0  0  0
   44.6709   33.7498   41.0230 C   0  0  0  0  0  0  0  0  0  0  0  0
   44.4628   32.9006   39.9389 F   0  0  0  0  0  0  0  0  0  0  0  0
   43.8335   34.8443   40.9364 F   0  0  0  0  0  0  0  0  0  0  0  0
   44.3244   33.0913   42.1772 F   0  0  0  0  0  0  0  0  0  0  0  0
   48.3858   35.6885   42.9078 H   0  0  0  0  0  0  0  0  0  0  0  0
   49.7513   35.3885   40.9489 H   0  0  0  0  0  0  0  0  0  0  0  0
   48.8270   34.3260   38.9452 H   0  0  0  0  0  0  0  0  0  0  0  0
   46.4629   33.5593   38.9560 H   0  0  0  0  0  0  0  0  0  0  0  0
   43.7624   37.0445   45.0607 H   0  0  0  0  0  0  0  0  0  0  0  0
   44.9887   32.3755   46.6617 H   0  0  0  0  0  0  0  0  0  0  0  0
   46.2986   33.6635   47.1114 H   0  0  0  0  0  0  0  0  0  0  0  0
   46.2377   38.6135   44.0867 O   0  0  0  0  0  0  0  0  0  0  0  0
   45.9968   38.3019   42.7620 C   0  0  1  0  0  0  0  0  0  0  0  0
   44.9161   37.2355   42.6098 C   0  0  2  0  0  0  0  0  0  0  0  0
   43.6778   38.0620   42.7737 C   0  0  2  0  0  0  0  0  0  0  0  0
   43.5339   38.4814   43.7854 H   0  0  0  0  0  0  0  0  0  0  0  0
   43.9593   39.1409   41.9440 O   0  0  0  0  0  0  0  0  0  0  0  0
   45.2884   39.4650   42.0917 C   0  0  1  0  0  0  0  0  0  0  0  0
   45.4717   40.4341   42.5772 H   0  0  0  0  0  0  0  0  0  0  0  0
   47.2146   38.4964   44.2840 H   0  0  0  0  0  0  0  0  0  0  0  0
   46.8975   38.0574   42.1924 H   0  0  0  0  0  0  0  0  0  0  0  0
   44.9680   36.8880   41.5572 H   0  0  0  0  0  0  0  0  0  0  0  0
   42.7680   37.5415   42.4068 H   0  0  0  0  0  0  0  0  0  0  0  0
   45.6852   39.5763   41.0475 H   0  0  0  0  0  0  0  0  0  0  0  0
  1  9  1  0
  2  1  2  0
  3  2  1  0
  4  5  1  0
  4  3  2  0
  5  6  2  0
  6 14  1  0
  6  1  1  0
  7 12  2  0
  8  7  1  0
  9  8  2  0
  9 10  1  0
 10 11  2  0
 11 12  1  0
 11 13  1  0
 14 17  1  0
 15 14  1  0
 16 14  1  0
  2 18  1  0
  3 19  1  0
  4 20  1  0
  5 21  1  0
  7 22  1  0
 13 23  1  0
 13 24  1  0
 25 26  1  0
 26 27  1  0
 27 28  1  0
 28 29  1  1
 28 30  1  0
 30 31  1  0
 31 32  1  1
 31 26  1  0
 25 33  1  0
 26 34  1  6
 27 35  1  6
 28 36  1  0
 31 37  1  0
  8 27  1  0
M  ISO  7  18  14  19  14  20  14  21  14  22  14  29  15  32  16
M  END
>  <DihAtoms>  (1) 
6,7,26,25

>  <DihDeg>  (1) 
76.22671096622956

$$$$
