REMARK  Name = 
REMARK  7 active torsions:
REMARK  status: ('A' for Active; 'I' for Inactive)
REMARK    1  A    between atoms: C_1  and  O_19
REMARK    2  A    between atoms: C_2  and  C_15
REMARK    3  A    between atoms: C_5  and  C_9
REMARK    4  A    between atoms: C_13  and  C_14
REMARK    5  A    between atoms: C_14  and  C_34
REMARK    6  A    between atoms: O_19  and  C_20
REMARK    7  A    between atoms: O_30  and  C_31
REMARK                            x       y       z     vdW  Elec       q    Type
REMARK                         _______ _______ _______ _____ _____    ______ ____
ROOT
ATOM      1  F   UNL     1      47.689  29.940  44.821  0.00  0.00    +0.000 F 
ATOM      2  C   UNL     1      47.601  30.669  45.982  0.00  0.00    +0.000 A 
ATOM      3  C   UNL     1      47.050  31.916  45.966  0.00  0.00    +0.000 A 
ATOM      4  C   UNL     1      47.004  32.577  47.189  0.00  0.00    +0.000 A 
ATOM      5  C   UNL     1      47.484  32.002  48.333  0.00  0.00    +0.000 A 
ATOM      6  C   UNL     1      48.030  30.737  48.286  0.00  0.00    +0.000 A 
ATOM      7  C   UNL     1      48.102  30.026  47.082  0.00  0.00    +0.000 A 
ATOM      8  H   UNL     1      46.576  33.570  47.224  0.00  0.00    +0.000 HD
ATOM      9  H   UNL     1      47.427  32.556  49.263  0.00  0.00    +0.000 HD
ATOM     10  H   UNL     1      48.416  30.266  49.188  0.00  0.00    +0.000 HD
ENDROOT
BRANCH   3  15
ATOM     11  C   UNL     1      46.807  34.111  43.059  0.00  0.00    +0.000 A 
ATOM     12  C   UNL     1      45.631  33.709  42.430  0.00  0.00    +0.000 A 
ATOM     13  C   UNL     1      44.913  32.660  43.028  0.00  0.00    +0.000 A 
ATOM     14  N   UNL     1      45.377  32.093  44.162  0.00  0.00    +0.000 NA
ATOM     15  C   UNL     1      46.533  32.520  44.737  0.00  0.00    +0.000 A 
ATOM     16  N   UNL     1      47.231  33.519  44.184  0.00  0.00    +0.000 NA
ATOM     17  H   UNL     1      43.991  32.325  42.564  0.00  0.00    +0.000 HD
BRANCH  12  18
ATOM     18  C   UNL     1      45.200  34.380  41.203  0.00  0.00    +0.000 C 
ATOM     19  F   UNL     1      44.910  35.708  41.453  0.00  0.00    +0.000 F 
ATOM     20  F   UNL     1      46.265  34.357  40.305  0.00  0.00    +0.000 F 
ATOM     21  F   UNL     1      44.129  33.823  40.584  0.00  0.00    +0.000 F 
ENDBRANCH  12  18
BRANCH  11  22
ATOM     22  O   UNL     1      47.504  35.121  42.489  0.00  0.00    +0.000 OA
BRANCH  22  23
ATOM     23  C   UNL     1      48.813  35.051  41.956  0.00  0.00    +0.000 C 
ATOM     24  F   UNL     1      49.702  35.289  43.006  0.00  0.00    +0.000 F 
ATOM     25  F   UNL     1      49.010  33.842  41.359  0.00  0.00    +0.000 F 
ATOM     26  F   UNL     1      49.006  36.103  41.084  0.00  0.00    +0.000 F 
ENDBRANCH  22  23
ENDBRANCH  11  22
ENDBRANCH   3  15
BRANCH   7  27
ATOM     27  C   UNL     1      48.685  28.644  47.019  0.00  0.00    +0.000 C 
ATOM     28  H   UNL     1      48.059  27.964  46.409  0.00  0.00    +0.000 HD
ATOM     29  H   UNL     1      48.736  28.299  48.069  0.00  0.00    +0.000 HD
BRANCH  27  33
ATOM     30  C   UNL     1      51.164  29.338  44.467  0.00  0.00    +0.000 C 
ATOM     31  C   UNL     1      50.000  28.467  44.957  0.00  0.00    +0.000 C 
ATOM     32  H   UNL     1      49.053  28.834  44.563  0.00  0.00    +0.000 HD
ATOM     33  C   UNL     1      50.065  28.635  46.461  0.00  0.00    +0.000 C 
ATOM     34  O   UNL     1      50.748  29.824  46.618  0.00  0.00    +0.000 OA
ATOM     35  C   UNL     1      51.876  29.599  45.802  0.00  0.00    +0.000 C 
ATOM     36  H   UNL     1      52.294  28.621  46.102  0.00  0.00    +0.000 HD
BRANCH  30  37
ATOM     37  O   UNL     1      50.673  30.561  43.992  0.00  0.00    +0.000 OA
ATOM     38  H   UNL     1      51.331  31.248  44.324  0.00  0.00    +0.000 HD
ENDBRANCH  30  37
ENDBRANCH  27  33
ENDBRANCH   7  27
TORSDOF 7
