
     RDKit          3D

 43 46  0  0  0  0  0  0  0  0999 V2000
   47.3763   33.7303   39.7655 C   0  0  0  0  0  0  0  0  0  0  0  0
   48.2994   34.4619   39.0025 C   0  0  0  0  0  0  0  0  0  0  0  0
   48.0154   34.2725   37.6675 C   0  0  0  0  0  0  0  0  0  0  0  0
   46.9416   33.4415   37.6698 C   0  0  0  0  0  0  0  0  0  0  0  0
   46.5653   33.1222   38.8950 O   0  0  0  0  0  0  0  0  0  0  0  0
   46.2637   32.9468   36.4515 C   0  0  2  0  0  0  0  0  0  0  0  0
   46.0710   31.5123   36.2421 C   0  0  0  0  0  0  0  0  0  0  0  0
   47.2007   32.1421   35.5105 C   0  0  1  0  0  0  0  0  0  0  0  0
   48.0684   32.6455   33.2381 C   0  0  0  0  0  0  0  0  0  0  0  0
   49.2712   32.6344   33.6309 O   0  0  0  0  0  0  0  0  0  0  0  0
   46.9627   32.4349   34.1003 N   0  0  0  0  0  0  0  0  0  0  0  0
   47.2145   33.5742   41.1680 O   0  0  0  0  0  0  0  0  0  0  0  0
   47.3440   34.7206   41.9867 C   0  0  0  0  0  0  0  0  0  0  0  0
   48.2351   35.5558   41.6544 O   0  0  0  0  0  0  0  0  0  0  0  0
   46.4584   34.8100   43.0949 C   0  0  0  0  0  0  0  0  0  0  0  0
   45.5812   35.8464   43.0805 C   0  0  0  0  0  0  0  0  0  0  0  0
   44.6854   35.9928   44.1359 C   0  0  0  0  0  0  0  0  0  0  0  0
   44.7278   35.0889   45.1384 N   0  0  0  0  0  0  0  0  0  0  0  0
   45.6027   34.0810   45.1226 C   0  0  0  0  0  0  0  0  0  0  0  0
   46.4422   33.9708   44.1018 N   0  0  0  0  0  0  0  0  0  0  0  0
   49.0605   35.0391   39.5174 H   0  0  0  0  0  0  0  0  0  0  0  0
   48.5859   34.7318   36.8852 H   0  0  0  0  0  0  0  0  0  0  0  0
   45.5704   33.6468   35.9529 H   0  0  0  0  0  0  0  0  0  0  0  0
   46.3786   30.8061   37.0623 H   0  0  0  0  0  0  0  0  0  0  0  0
   45.1990   31.1017   35.6890 H   0  0  0  0  0  0  0  0  0  0  0  0
   48.2400   32.0459   35.8186 H   0  0  0  0  0  0  0  0  0  0  0  0
   47.9224   32.8322   32.1638 H   0  0  0  0  0  0  0  0  0  0  0  0
   46.0022   32.4931   33.7115 H   0  0  0  0  0  0  0  0  0  0  0  0
   45.5337   36.5878   42.2756 H   0  0  0  0  0  0  0  0  0  0  0  0
   43.9687   36.8003   44.1701 H   0  0  0  0  0  0  0  0  0  0  0  0
   45.3373   33.1489   48.5378 O   0  0  0  0  0  0  0  0  0  0  0  0
   46.0282   33.8021   47.5024 C   0  0  2  0  0  0  0  0  0  0  0  0
   45.6551   33.0831   46.2218 C   0  0  2  0  0  0  0  0  0  0  0  0
   46.7555   32.0815   46.0848 C   0  0  2  0  0  0  0  0  0  0  0  0
   46.9434   31.7408   45.0488 H   0  0  0  0  0  0  0  0  0  0  0  0
   47.8749   32.7055   46.6033 O   0  0  0  0  0  0  0  0  0  0  0  0
   47.4909   33.5415   47.6226 C   0  0  2  0  0  0  0  0  0  0  0  0
   47.7152   33.1705   48.6418 H   0  0  0  0  0  0  0  0  0  0  0  0
   45.7407   32.2646   48.6702 H   0  0  0  0  0  0  0  0  0  0  0  0
   45.7302   34.8509   47.4074 H   0  0  0  0  0  0  0  0  0  0  0  0
   44.6953   32.5410   46.3377 H   0  0  0  0  0  0  0  0  0  0  0  0
   46.4885   31.2156   46.7405 H   0  0  0  0  0  0  0  0  0  0  0  0
   48.0292   34.5192   47.4800 H   0  0  0  0  0  0  0  0  0  0  0  0
  1 12  1  0
  2  1  2  0
  3  2  1  0
  4  3  2  0
  4  5  1  0
  5  1  1  0
  6  4  1  0
  7  6  1  0
  8  7  1  0
  8  6  1  0
  9 10  2  0
  9 11  1  0
 11  8  1  0
 12 13  1  0
 13 15  1  0
 14 13  2  0
 15 20  1  0
 16 15  2  0
 16 17  1  0
 17 18  2  0
 19 18  1  0
 20 19  2  0
  2 21  1  0
  3 22  1  0
  6 23  1  6
  7 24  1  0
  7 25  1  0
  8 26  1  1
  9 27  1  0
 11 28  1  0
 16 29  1  0
 17 30  1  0
 31 32  1  0
 32 33  1  0
 33 34  1  0
 34 35  1  6
 34 36  1  0
 36 37  1  0
 37 38  1  1
 37 32  1  0
 31 39  1  0
 32 40  1  6
 33 41  1  1
 34 42  1  0
 37 43  1  0
 19 33  1  0
M  ISO  8  21  14  22  14  23  13  24  13  25  13  26  13  27   6  29  14
M  ISO  3  30  14  35  15  38  16
M  END
>  <DihAtoms>  (1) 
17,18,32,31

>  <DihDeg>  (1) 
-122.70112110427355

$$$$
