
 OpenBabel03252507133D

 42 44  0  0  1  0  0  0  0  0999 V2000
   46.6050   34.8950   42.0990 C   0  0  2  0  0  0  0  0  0  0  0  0
   45.6310   35.5820   43.0300 C   0  0  0  0  0  0  0  0  0  0  0  0
   44.2850   35.6190   42.3540 C   0  0  0  0  0  0  0  0  0  0  0  0
   43.7060   34.3590   42.3050 O   0  0  0  0  0  0  0  0  0  0  0  0
   44.6740   33.3840   42.1880 C   0  0  0  0  0  0  0  0  0  0  0  0
   45.8410   33.8550   41.3350 C   0  0  1  0  0  0  0  0  0  0  0  0
   46.9100   35.6260   41.3240 H   0  0  0  0  0  0  0  0  0  0  0  0
   45.5620   35.0710   43.9880 H   0  0  0  0  0  0  0  0  0  0  0  0
   45.9700   36.6360   43.1350 H   0  0  0  0  0  0  0  0  0  0  0  0
   43.6250   36.1850   43.0790 H   0  0  0  0  0  0  0  0  0  0  0  0
   44.2550   36.2050   41.4460 H   0  0  0  0  0  0  0  0  0  0  0  0
   45.1080   33.2430   43.2060 H   0  0  0  0  0  0  0  0  0  0  0  0
   44.3300   32.3950   41.8750 H   0  0  0  0  0  0  0  0  0  0  0  0
   46.5160   32.9400   41.3890 H   0  0  0  0  0  0  0  0  0  0  0  0
   44.5060   33.0570   39.3580 C   0  0  2  0  0  3  0  0  0  0  0  0
   45.5380   34.0240   39.9240 C   0  0  2  0  0  3  0  0  0  0  0  0
   46.6510   33.5830   38.9630 C   0  0  0  0  0  3  0  0  0  0  0  0
   46.3590   33.8200   37.9140 H   0  0  0  0  0  0  0  0  0  0  0  0
   46.6320   32.1730   39.1510 O   0  0  0  0  0  0  0  0  0  0  0  0
   45.3040   31.8600   38.9260 C   0  0  0  0  0  3  0  0  0  0  0  0
   45.0140   30.9480   39.5160 H   0  0  0  0  0  0  0  0  0  0  0  0
   43.9790   33.6180   38.1950 O   0  0  0  0  0  0  0  0  0  0  0  0
   44.4290   34.4750   37.9930 H   0  0  0  0  0  0  0  0  0  0  0  0
   47.7170   34.4300   42.7200 O   0  0  0  0  0  0  0  0  0  0  0  0
   50.3110   34.7790   42.7280 O   0  0  0  0  0  0  0  0  0  0  0  0
   49.1360   34.4600   41.8840 P   0  0  2  0  0  0  0  0  0  0  0  0
   49.0360   35.6920   40.7310 O   0  0  0  0  0  0  0  0  0  0  0  0
   48.8300   36.5590   41.1720 H   0  0  0  0  0  0  0  0  0  0  0  0
   49.3800   32.9680   41.0520 O   0  0  0  0  0  0  0  0  0  0  0  0
   49.6590   31.2930   42.6880 C   0  0  0  0  0  0  0  0  0  0  0  0
   50.1560   31.9630   41.5940 C   0  0  0  0  0  0  0  0  0  0  0  0
   51.4250   31.5910   41.0830 C   0  0  0  0  0  0  0  0  0  0  0  0
   52.0740   30.5840   41.7160 N   0  0  0  0  0  0  0  0  0  0  0  0
   51.5660   29.9650   42.7630 C   0  0  0  0  0  0  0  0  0  0  0  0
   50.3480   30.3300   43.2460 N   0  0  0  0  0  0  0  0  0  0  0  0
   47.2320   30.8340   42.9910 C   0  0  0  0  0  0  0  0  0  0  0  0
   47.0640   30.4650   41.7700 O   0  0  0  0  0  0  0  0  0  0  0  0
   48.5200   31.2770   43.5370 N   0  0  0  0  0  0  0  0  0  0  0  0
   51.7290   32.1590   40.2380 H   0  0  0  0  0  0  0  0  0  0  0  0
   52.0820   29.1550   43.2770 H   0  0  0  0  0  0  0  0  0  0  0  0
   46.3080   30.7720   43.5440 H   0  0  0  0  0  0  0  0  0  0  0  0
   48.4670   31.5540   44.5350 H   0  0  0  0  0  0  0  0  0  0  0  0
  1  7  1  6  0  0  0
  1 24  1  0  0  0  0
  1  2  1  0  0  0  0
  2  9  1  0  0  0  0
  2  8  1  0  0  0  0
  3  2  1  0  0  0  0
  3 10  1  0  0  0  0
  4  3  1  0  0  0  0
  5  4  1  0  0  0  0
  5 12  1  0  0  0  0
  6 14  1  1  0  0  0
  6  1  1  0  0  0  0
  6  5  1  0  0  0  0
 11  3  1  0  0  0  0
 13  5  1  0  0  0  0
 15 22  1  6  0  0  0
 15 16  1  0  0  0  0
 16 17  1  6  0  0  0
 16  6  1  0  0  0  0
 17 19  1  0  0  0  0
 18 17  1  0  0  0  0
 20 19  1  0  0  0  0
 20 15  1  0  0  0  0
 20 21  1  0  0  0  0
 23 22  1  0  0  0  0
 26 24  1  0  0  0  0
 26 25  2  1  0  0  0
 27 28  1  0  0  0  0
 27 26  1  0  0  0  0
 29 31  1  0  0  0  0
 29 26  1  0  0  0  0
 30 35  1  0  0  0  0
 30 38  1  0  0  0  0
 31 30  2  0  0  0  0
 32 31  1  0  0  0  0
 32 33  2  0  0  0  0
 33 34  1  0  0  0  0
 34 35  2  0  0  0  0
 34 40  1  0  0  0  0
 36 38  1  0  0  0  0
 36 41  1  0  0  0  0
 37 36  2  0  0  0  0
 38 42  1  0  0  0  0
 39 32  1  0  0  0  0
M  END
>  <minimizedAffinity>
-4.49035835

>  <minimizedRMSD>
0.55978471

$$$$
