
 OpenBabel03252504363D

 42 44  0  0  1  0  0  0  0  0999 V2000
   37.4990   27.5080   43.2810 C   0  0  0  0  0  0  0  0  0  0  0  0
   36.9350   27.3220   42.3170 H   0  0  0  0  0  0  0  0  0  0  0  0
   36.9280   27.0100   44.0520 H   0  0  0  0  0  0  0  0  0  0  0  0
   39.7590   26.9490   44.0630 C   0  0  0  0  0  0  0  0  0  0  0  0
   38.7730   26.7160   43.1060 C   0  0  0  0  0  0  0  0  0  0  0  0
   39.0200   25.8140   42.1140 C   0  0  0  0  0  0  0  0  0  0  0  0
   40.2230   25.2130   42.1450 N   0  0  0  0  0  0  0  0  0  0  0  0
   41.1440   25.4370   43.0430 C   0  0  0  0  0  0  0  0  0  0  0  0
   40.9460   26.3400   44.0700 N   0  0  0  0  0  0  0  0  0  0  0  0
   42.3790   24.7370   42.9570 N   0  0  0  0  0  0  0  0  0  0  0  0
   39.6100   27.6570   44.8700 H   0  0  0  0  0  0  0  0  0  0  0  0
   42.8260   24.1090   43.6340 H   0  0  0  0  0  0  0  0  0  0  0  0
   42.8840   24.9040   42.0710 H   0  0  0  0  0  0  0  0  0  0  0  0
   37.2580   24.3000   41.4760 C   0  0  1  0  0  3  0  0  0  0  0  0
   37.9940   25.5610   41.0850 C   0  0  2  0  0  3  0  0  0  0  0  0
   38.6450   25.1070   39.7810 C   0  0  0  0  0  3  0  0  0  0  0  0
   38.2800   25.6720   38.9140 H   0  0  0  0  0  0  0  0  0  0  0  0
   38.3250   23.7860   39.5840 O   0  0  0  0  0  0  0  0  0  0  0  0
   37.0170   23.6610   40.1060 C   0  0  0  0  0  3  0  0  0  0  0  0
   36.3280   24.2310   39.4790 H   0  0  0  0  0  0  0  0  0  0  0  0
   38.0750   23.4130   42.1690 O   0  0  0  0  0  0  0  0  0  0  0  0
   38.6930   22.9900   41.5480 H   0  0  0  0  0  0  0  0  0  0  0  0
   37.7170   28.8490   43.3180 O   0  0  0  0  0  0  0  0  0  0  0  0
   37.6230   29.7820   42.3100 C   0  0  0  0  0  3  0  0  0  0  0  0
   36.8860   29.4260   41.2630 C   0  0  0  0  0  3  0  0  0  0  0  0
   36.6740   30.3230   40.0580 C   0  0  0  0  0  0  0  0  0  0  0  0
   37.5350   30.1660   39.3730 H   0  0  0  0  0  0  0  0  0  0  0  0
   35.7390   30.0480   39.5530 H   0  0  0  0  0  0  0  0  0  0  0  0
   36.5940   31.6190   40.5260 O   0  0  0  0  0  0  0  0  0  0  0  0
   38.0840   32.0050   38.3430 O   0  0  0  0  0  0  0  0  0  0  0  0
   37.6670   32.6050   39.6760 P   0  0  1  0  0  0  0  0  0  0  0  0
   36.9120   34.0950   39.3140 O   0  0  0  0  0  0  0  0  0  0  0  0
   37.0080   34.3510   38.3830 H   0  0  0  0  0  0  0  0  0  0  0  0
   39.0190   32.9580   40.5950 O   0  0  0  0  0  0  0  0  0  0  0  0
   40.1270   33.2590   39.8100 C   0  0  0  0  0  0  0  0  0  0  0  0
   41.3390   33.7980   40.5330 C   0  0  0  0  0  0  0  0  0  0  0  0
   40.4710   34.7130   39.6760 C   0  0  0  0  0  0  0  0  0  0  0  0
   40.3990   32.5510   39.0070 H   0  0  0  0  0  0  0  0  0  0  0  0
   42.3510   33.5780   40.1560 H   0  0  0  0  0  0  0  0  0  0  0  0
   41.2420   33.9070   41.6130 H   0  0  0  0  0  0  0  0  0  0  0  0
   39.8370   35.4610   40.1790 H   0  0  0  0  0  0  0  0  0  0  0  0
   40.8920   35.0910   38.7210 H   0  0  0  0  0  0  0  0  0  0  0  0
  1 23  1  0  0  0  0
  1  3  1  0  0  0  0
  2  1  1  0  0  0  0
  4  9  1  0  0  0  0
  4 11  1  0  0  0  0
  5  1  1  0  0  0  0
  5  4  2  0  0  0  0
  6  7  2  0  0  0  0
  6  5  1  0  0  0  0
  7  8  1  0  0  0  0
  8  9  2  0  0  0  0
 10  8  1  0  0  0  0
 10 12  1  0  0  0  0
 13 10  1  0  0  0  0
 14 21  1  1  0  0  0
 15 14  1  0  0  0  0
 15  6  1  1  0  0  0
 16 15  1  0  0  0  0
 17 16  1  0  0  0  0
 18 16  1  0  0  0  0
 18 19  1  0  0  0  0
 19 14  1  0  0  0  0
 20 19  1  0  0  0  0
 22 21  1  0  0  0  0
 24 23  1  0  0  0  0
 25 24  2  0  0  0  0
 26 29  1  0  0  0  0
 26 25  1  0  0  0  0
 27 26  1  0  0  0  0
 28 26  1  0  0  0  0
 31 30  2  6  0  0  0
 31 29  1  0  0  0  0
 31 34  1  0  0  0  0
 32 31  1  0  0  0  0
 33 32  1  0  0  0  0
 35 36  1  0  0  0  0
 35 34  1  0  0  0  0
 36 40  1  0  0  0  0
 37 35  1  0  0  0  0
 37 41  1  0  0  0  0
 37 36  1  0  0  0  0
 38 35  1  0  0  0  0
 39 36  1  0  0  0  0
 42 37  1  0  0  0  0
M  END
>  <minimizedAffinity>
-5.51320553

$$$$

 OpenBabel03252504363D

 42 44  0  0  1  0  0  0  0  0999 V2000
   41.4080   29.1860   38.4740 C   0  0  0  0  0  0  0  0  0  0  0  0
   40.2920   29.1310   38.6620 H   0  0  0  0  0  0  0  0  0  0  0  0
   41.5830   28.5900   37.5880 H   0  0  0  0  0  0  0  0  0  0  0  0
   42.8330   30.8880   37.4230 C   0  0  0  0  0  0  0  0  0  0  0  0
   41.6300   30.6260   38.0770 C   0  0  0  0  0  0  0  0  0  0  0  0
   40.7670   31.6560   38.3010 C   0  0  0  0  0  0  0  0  0  0  0  0
   41.1590   32.8660   37.8620 N   0  0  0  0  0  0  0  0  0  0  0  0
   42.2880   33.1050   37.2510 C   0  0  0  0  0  0  0  0  0  0  0  0
   43.2000   32.0980   36.9980 N   0  0  0  0  0  0  0  0  0  0  0  0
   42.5850   34.4350   36.8420 N   0  0  0  0  0  0  0  0  0  0  0  0
   43.5520   30.1020   37.2220 H   0  0  0  0  0  0  0  0  0  0  0  0
   42.7780   34.8060   35.9050 H   0  0  0  0  0  0  0  0  0  0  0  0
   42.6050   35.1090   37.6240 H   0  0  0  0  0  0  0  0  0  0  0  0
   38.4130   31.2780   37.9530 C   0  0  1  0  0  3  0  0  0  0  0  0
   39.4940   31.4030   39.0030 C   0  0  2  0  0  3  0  0  0  0  0  0
   39.0260   32.6590   39.7320 C   0  0  0  0  0  3  0  0  0  0  0  0
   38.7590   32.4590   40.7780 H   0  0  0  0  0  0  0  0  0  0  0  0
   37.9020   33.1260   39.0950 O   0  0  0  0  0  0  0  0  0  0  0  0
   37.2370   31.9580   38.6580 C   0  0  0  0  0  3  0  0  0  0  0  0
   36.8780   31.4060   39.5290 H   0  0  0  0  0  0  0  0  0  0  0  0
   38.6830   32.0550   36.8320 O   0  0  0  0  0  0  0  0  0  0  0  0
   38.5240   32.9920   37.0400 H   0  0  0  0  0  0  0  0  0  0  0  0
   41.9900   28.8740   39.6620 O   0  0  0  0  0  0  0  0  0  0  0  0
   41.5210   29.0550   40.9440 C   0  0  0  0  0  3  0  0  0  0  0  0
   40.8950   28.0130   41.4810 C   0  0  0  0  0  3  0  0  0  0  0  0
   40.3100   28.0310   42.8800 C   0  0  0  0  0  0  0  0  0  0  0  0
   39.7780   27.0670   43.0280 H   0  0  0  0  0  0  0  0  0  0  0  0
   41.1160   28.1310   43.6170 H   0  0  0  0  0  0  0  0  0  0  0  0
   39.4660   29.1220   42.9520 O   0  0  0  0  0  0  0  0  0  0  0  0
   37.7270   27.1060   42.7430 O   0  0  0  0  0  0  0  0  0  0  0  0
   37.8610   28.6170   42.8360 P   0  0  1  0  0  0  0  0  0  0  0  0
   37.0090   29.0870   44.2410 O   0  0  0  0  0  0  0  0  0  0  0  0
   36.4940   28.3630   44.6300 H   0  0  0  0  0  0  0  0  0  0  0  0
   37.0930   29.3430   41.5390 O   0  0  0  0  0  0  0  0  0  0  0  0
   36.0460   28.5700   41.0460 C   0  0  0  0  0  0  0  0  0  0  0  0
   36.0440   28.3090   39.5580 C   0  0  0  0  0  0  0  0  0  0  0  0
   35.0470   29.2800   40.1810 C   0  0  0  0  0  0  0  0  0  0  0  0
   35.7400   27.6830   41.6280 H   0  0  0  0  0  0  0  0  0  0  0  0
   35.6360   27.3650   39.1630 H   0  0  0  0  0  0  0  0  0  0  0  0
   36.8660   28.7510   38.9940 H   0  0  0  0  0  0  0  0  0  0  0  0
   35.1750   30.3590   39.9920 H   0  0  0  0  0  0  0  0  0  0  0  0
   33.9790   28.9830   40.2190 H   0  0  0  0  0  0  0  0  0  0  0  0
  1  2  1  0  0  0  0
  1 23  1  0  0  0  0
  3  1  1  0  0  0  0
  4  5  1  0  0  0  0
  5  6  2  0  0  0  0
  5  1  1  0  0  0  0
  7  6  1  0  0  0  0
  8  7  2  0  0  0  0
  9  8  1  0  0  0  0
  9  4  2  0  0  0  0
 10  8  1  0  0  0  0
 10 13  1  0  0  0  0
 11  4  1  0  0  0  0
 12 10  1  0  0  0  0
 14 21  1  6  0  0  0
 14 19  1  0  0  0  0
 14 15  1  0  0  0  0
 15  6  1  6  0  0  0
 15 16  1  0  0  0  0
 16 17  1  0  0  0  0
 18 16  1  0  0  0  0
 19 18  1  0  0  0  0
 19 20  1  0  0  0  0
 21 22  1  0  0  0  0
 23 24  1  0  0  0  0
 24 25  2  0  0  0  0
 25 26  1  0  0  0  0
 26 29  1  0  0  0  0
 26 27  1  0  0  0  0
 26 28  1  0  0  0  0
 31 30  2  6  0  0  0
 31 29  1  0  0  0  0
 31 32  1  0  0  0  0
 32 33  1  0  0  0  0
 34 31  1  0  0  0  0
 35 34  1  0  0  0  0
 35 38  1  0  0  0  0
 36 37  1  0  0  0  0
 36 35  1  0  0  0  0
 37 42  1  0  0  0  0
 37 35  1  0  0  0  0
 39 36  1  0  0  0  0
 40 36  1  0  0  0  0
 41 37  1  0  0  0  0
M  END
>  <minimizedAffinity>
-5.48197412

$$$$

 OpenBabel03252504363D

 42 44  0  0  1  0  0  0  0  0999 V2000
   36.4010   30.4930   41.3800 C   0  0  0  0  0  0  0  0  0  0  0  0
   37.0820   31.2520   41.8730 H   0  0  0  0  0  0  0  0  0  0  0  0
   35.3980   30.8760   41.5100 H   0  0  0  0  0  0  0  0  0  0  0  0
   35.9500   29.8490   39.0530 C   0  0  0  0  0  0  0  0  0  0  0  0
   36.7270   30.6250   39.9110 C   0  0  0  0  0  0  0  0  0  0  0  0
   37.6940   31.4250   39.3790 C   0  0  0  0  0  0  0  0  0  0  0  0
   37.8170   31.3970   38.0390 N   0  0  0  0  0  0  0  0  0  0  0  0
   37.0860   30.6660   37.2410 C   0  0  0  0  0  0  0  0  0  0  0  0
   36.0930   29.8370   37.7270 N   0  0  0  0  0  0  0  0  0  0  0  0
   37.3240   30.7230   35.8400 N   0  0  0  0  0  0  0  0  0  0  0  0
   35.1700   29.1970   39.4290 H   0  0  0  0  0  0  0  0  0  0  0  0
   36.6910   30.9870   35.0760 H   0  0  0  0  0  0  0  0  0  0  0  0
   38.2860   30.4530   35.5760 H   0  0  0  0  0  0  0  0  0  0  0  0
   37.9450   33.6370   40.3000 C   0  0  1  0  0  3  0  0  0  0  0  0
   38.5360   32.2450   40.2700 C   0  0  2  0  0  3  0  0  0  0  0  0
   39.8850   32.5330   39.6170 C   0  0  0  0  0  3  0  0  0  0  0  0
   40.7270   32.3120   40.2850 H   0  0  0  0  0  0  0  0  0  0  0  0
   39.9330   33.8710   39.3110 O   0  0  0  0  0  0  0  0  0  0  0  0
   39.2120   34.4940   40.3560 C   0  0  0  0  0  3  0  0  0  0  0  0
   39.7700   34.3820   41.2880 H   0  0  0  0  0  0  0  0  0  0  0  0
   37.3190   33.9630   39.1020 O   0  0  0  0  0  0  0  0  0  0  0  0
   37.9930   34.1460   38.4230 H   0  0  0  0  0  0  0  0  0  0  0  0
   36.7700   29.2890   41.8920 O   0  0  0  0  0  0  0  0  0  0  0  0
   38.0060   28.6830   41.9060 C   0  0  0  0  0  3  0  0  0  0  0  0
   38.4310   28.2690   43.0960 C   0  0  0  0  0  3  0  0  0  0  0  0
   39.7680   27.5850   43.3040 C   0  0  0  0  0  0  0  0  0  0  0  0
   40.2330   27.4570   42.3020 H   0  0  0  0  0  0  0  0  0  0  0  0
   40.4090   28.2110   43.9370 H   0  0  0  0  0  0  0  0  0  0  0  0
   39.5150   26.3810   43.9320 O   0  0  0  0  0  0  0  0  0  0  0  0
   41.4600   25.0650   42.6600 O   0  0  0  0  0  0  0  0  0  0  0  0
   39.9650   25.1030   42.9280 P   0  0  1  0  0  0  0  0  0  0  0  0
   39.5750   23.6190   43.6800 O   0  0  0  0  0  0  0  0  0  0  0  0
   40.3110   22.9870   43.6720 H   0  0  0  0  0  0  0  0  0  0  0  0
   39.1230   25.1470   41.4820 O   0  0  0  0  0  0  0  0  0  0  0  0
   37.7720   24.8600   41.6490 C   0  0  0  0  0  0  0  0  0  0  0  0
   37.1550   23.9180   40.6420 C   0  0  0  0  0  0  0  0  0  0  0  0
   36.8440   25.4100   40.6070 C   0  0  0  0  0  0  0  0  0  0  0  0
   37.4060   24.6770   42.6740 H   0  0  0  0  0  0  0  0  0  0  0  0
   36.3340   23.2470   40.9440 H   0  0  0  0  0  0  0  0  0  0  0  0
   37.8220   23.5420   39.8670 H   0  0  0  0  0  0  0  0  0  0  0  0
   37.2610   26.0160   39.7850 H   0  0  0  0  0  0  0  0  0  0  0  0
   35.8250   25.7410   40.9000 H   0  0  0  0  0  0  0  0  0  0  0  0
  1  3  1  0  0  0  0
  1  2  1  0  0  0  0
  1 23  1  0  0  0  0
  4 11  1  0  0  0  0
  4  5  1  0  0  0  0
  5  1  1  0  0  0  0
  6  5  2  0  0  0  0
  7  6  1  0  0  0  0
  8  9  1  0  0  0  0
  8  7  2  0  0  0  0
  9  4  2  0  0  0  0
 10  8  1  0  0  0  0
 12 10  1  0  0  0  0
 13 10  1  0  0  0  0
 14 21  1  6  0  0  0
 14 19  1  0  0  0  0
 15  6  1  6  0  0  0
 15 14  1  0  0  0  0
 16 15  1  0  0  0  0
 16 17  1  0  0  0  0
 18 16  1  0  0  0  0
 18 19  1  0  0  0  0
 19 20  1  0  0  0  0
 22 21  1  0  0  0  0
 23 24  1  0  0  0  0
 24 25  2  0  0  0  0
 25 26  1  0  0  0  0
 26 29  1  0  0  0  0
 26 28  1  0  0  0  0
 27 26  1  0  0  0  0
 31 30  2  6  0  0  0
 31 32  1  0  0  0  0
 31 29  1  0  0  0  0
 33 32  1  0  0  0  0
 34 35  1  0  0  0  0
 34 31  1  0  0  0  0
 35 38  1  0  0  0  0
 36 39  1  0  0  0  0
 36 35  1  0  0  0  0
 37 36  1  0  0  0  0
 37 42  1  0  0  0  0
 37 35  1  0  0  0  0
 40 36  1  0  0  0  0
 41 37  1  0  0  0  0
M  END
>  <minimizedAffinity>
-5.42260742

$$$$

 OpenBabel03252504363D

 42 44  0  0  1  0  0  0  0  0999 V2000
   37.2350   27.4990   43.1750 C   0  0  0  0  0  0  0  0  0  0  0  0
   36.6750   27.2970   42.2110 H   0  0  0  0  0  0  0  0  0  0  0  0
   36.6640   27.0070   43.9510 H   0  0  0  0  0  0  0  0  0  0  0  0
   39.4750   26.9240   44.0010 C   0  0  0  0  0  0  0  0  0  0  0  0
   38.5130   26.7120   43.0150 C   0  0  0  0  0  0  0  0  0  0  0  0
   38.7870   25.8340   42.0090 C   0  0  0  0  0  0  0  0  0  0  0  0
   39.9900   25.2330   42.0560 N   0  0  0  0  0  0  0  0  0  0  0  0
   40.8870   25.4370   42.9830 C   0  0  0  0  0  0  0  0  0  0  0  0
   40.6620   26.3150   44.0260 N   0  0  0  0  0  0  0  0  0  0  0  0
   42.1250   24.7400   42.9130 N   0  0  0  0  0  0  0  0  0  0  0  0
   39.3040   27.6120   44.8210 H   0  0  0  0  0  0  0  0  0  0  0  0
   42.5560   24.0960   43.5860 H   0  0  0  0  0  0  0  0  0  0  0  0
   42.6520   24.9270   42.0440 H   0  0  0  0  0  0  0  0  0  0  0  0
   37.0480   24.3310   41.2870 C   0  0  1  0  0  3  0  0  0  0  0  0
   37.7890   25.6050   40.9480 C   0  0  2  0  0  3  0  0  0  0  0  0
   38.4740   25.1870   39.6490 C   0  0  0  0  0  3  0  0  0  0  0  0
   38.1290   25.7740   38.7880 H   0  0  0  0  0  0  0  0  0  0  0  0
   38.1650   23.8710   39.4100 O   0  0  0  0  0  0  0  0  0  0  0  0
   36.8450   23.7270   39.8950 C   0  0  0  0  0  3  0  0  0  0  0  0
   36.1690   24.3110   39.2660 H   0  0  0  0  0  0  0  0  0  0  0  0
   37.8520   23.4290   41.9760 O   0  0  0  0  0  0  0  0  0  0  0  0
   38.4880   23.0240   41.3600 H   0  0  0  0  0  0  0  0  0  0  0  0
   37.4450   28.8420   43.1950 O   0  0  0  0  0  0  0  0  0  0  0  0
   37.6740   29.7100   42.1520 C   0  0  0  0  0  3  0  0  0  0  0  0
   38.9010   30.2190   42.0850 C   0  0  0  0  0  3  0  0  0  0  0  0
   39.3330   31.1950   41.0070 C   0  0  0  0  0  0  0  0  0  0  0  0
   40.4030   31.4350   41.1880 H   0  0  0  0  0  0  0  0  0  0  0  0
   39.2150   30.7310   40.0200 H   0  0  0  0  0  0  0  0  0  0  0  0
   38.5140   32.3010   41.1100 O   0  0  0  0  0  0  0  0  0  0  0  0
   37.1670   34.0020   39.5520 O   0  0  0  0  0  0  0  0  0  0  0  0
   37.7790   32.6130   39.6240 P   0  0  1  0  0  0  0  0  0  0  0  0
   38.9490   32.5420   38.3800 O   0  0  0  0  0  0  0  0  0  0  0  0
   38.9160   33.3080   37.7860 H   0  0  0  0  0  0  0  0  0  0  0  0
   36.6240   31.4570   39.2680 O   0  0  0  0  0  0  0  0  0  0  0  0
   36.9770   30.6800   38.1680 C   0  0  0  0  0  0  0  0  0  0  0  0
   35.9860   29.6200   37.7470 C   0  0  0  0  0  0  0  0  0  0  0  0
   37.2880   29.2390   38.4450 C   0  0  0  0  0  0  0  0  0  0  0  0
   37.4390   31.1880   37.3040 H   0  0  0  0  0  0  0  0  0  0  0  0
   35.8930   29.3410   36.6850 H   0  0  0  0  0  0  0  0  0  0  0  0
   35.0770   29.5520   38.3430 H   0  0  0  0  0  0  0  0  0  0  0  0
   37.2400   28.8720   39.4840 H   0  0  0  0  0  0  0  0  0  0  0  0
   38.0700   28.7230   37.8510 H   0  0  0  0  0  0  0  0  0  0  0  0
  1 23  1  0  0  0  0
  1  3  1  0  0  0  0
  2  1  1  0  0  0  0
  4  9  1  0  0  0  0
  4 11  1  0  0  0  0
  5  1  1  0  0  0  0
  5  4  2  0  0  0  0
  6  7  2  0  0  0  0
  6  5  1  0  0  0  0
  7  8  1  0  0  0  0
  8  9  2  0  0  0  0
 10  8  1  0  0  0  0
 10 12  1  0  0  0  0
 13 10  1  0  0  0  0
 14 21  1  1  0  0  0
 15 14  1  0  0  0  0
 15  6  1  1  0  0  0
 16 15  1  0  0  0  0
 17 16  1  0  0  0  0
 18 16  1  0  0  0  0
 18 19  1  0  0  0  0
 19 14  1  0  0  0  0
 20 19  1  0  0  0  0
 22 21  1  0  0  0  0
 24 23  1  0  0  0  0
 25 24  2  0  0  0  0
 26 29  1  0  0  0  0
 26 27  1  0  0  0  0
 26 25  1  0  0  0  0
 28 26  1  0  0  0  0
 31 30  2  1  0  0  0
 31 29  1  0  0  0  0
 32 31  1  0  0  0  0
 33 32  1  0  0  0  0
 34 31  1  0  0  0  0
 35 37  1  0  0  0  0
 35 34  1  0  0  0  0
 36 35  1  0  0  0  0
 36 40  1  0  0  0  0
 36 37  1  0  0  0  0
 37 41  1  0  0  0  0
 38 35  1  0  0  0  0
 39 36  1  0  0  0  0
 42 37  1  0  0  0  0
M  END
>  <minimizedAffinity>
-5.35616159

$$$$

 OpenBabel03252504363D

 42 44  0  0  1  0  0  0  0  0999 V2000
   41.2850   29.7170   39.5900 C   0  0  0  0  0  0  0  0  0  0  0  0
   42.2720   29.1630   39.5380 H   0  0  0  0  0  0  0  0  0  0  0  0
   41.1520   29.9760   40.6320 H   0  0  0  0  0  0  0  0  0  0  0  0
   42.6320   30.9700   37.9620 C   0  0  0  0  0  0  0  0  0  0  0  0
   41.5620   31.0070   38.8550 C   0  0  0  0  0  0  0  0  0  0  0  0
   40.8620   32.1680   38.9940 C   0  0  0  0  0  0  0  0  0  0  0  0
   41.2740   33.2030   38.2390 N   0  0  0  0  0  0  0  0  0  0  0  0
   42.2780   33.1620   37.4050 C   0  0  0  0  0  0  0  0  0  0  0  0
   43.0210   32.0110   37.2250 N   0  0  0  0  0  0  0  0  0  0  0  0
   42.6150   34.3330   36.6700 N   0  0  0  0  0  0  0  0  0  0  0  0
   43.2180   30.0700   37.8170 H   0  0  0  0  0  0  0  0  0  0  0  0
   42.6540   34.4820   35.6560 H   0  0  0  0  0  0  0  0  0  0  0  0
   42.8530   35.1390   37.2700 H   0  0  0  0  0  0  0  0  0  0  0  0
   38.4620   32.0380   39.1510 C   0  0  1  0  0  3  0  0  0  0  0  0
   39.7350   32.2320   39.9430 C   0  0  2  0  0  3  0  0  0  0  0  0
   39.5340   33.6620   40.4400 C   0  0  0  0  0  3  0  0  0  0  0  0
   39.4610   33.7170   41.5340 H   0  0  0  0  0  0  0  0  0  0  0  0
   38.3550   34.1320   39.9170 O   0  0  0  0  0  0  0  0  0  0  0  0
   37.5130   32.9960   39.8760 C   0  0  0  0  0  3  0  0  0  0  0  0
   37.2840   32.6860   40.8980 H   0  0  0  0  0  0  0  0  0  0  0  0
   38.5750   32.5270   37.8540 O   0  0  0  0  0  0  0  0  0  0  0  0
   38.5460   33.5000   37.8700 H   0  0  0  0  0  0  0  0  0  0  0  0
   40.3920   28.9250   38.9400 O   0  0  0  0  0  0  0  0  0  0  0  0
   39.8880   27.6950   39.2960 C   0  0  0  0  0  3  0  0  0  0  0  0
   40.5850   27.0290   40.2110 C   0  0  0  0  0  3  0  0  0  0  0  0
   40.1840   25.6580   40.7210 C   0  0  0  0  0  0  0  0  0  0  0  0
   40.8610   24.9170   40.2430 H   0  0  0  0  0  0  0  0  0  0  0  0
   40.2990   25.6220   41.8110 H   0  0  0  0  0  0  0  0  0  0  0  0
   38.8600   25.4700   40.3780 O   0  0  0  0  0  0  0  0  0  0  0  0
   37.4800   23.2450   40.9090 O   0  0  0  0  0  0  0  0  0  0  0  0
   38.1040   24.4880   41.5220 P   0  0  1  0  0  0  0  0  0  0  0  0
   39.2580   23.9340   42.6550 O   0  0  0  0  0  0  0  0  0  0  0  0
   39.2110   22.9760   42.8050 H   0  0  0  0  0  0  0  0  0  0  0  0
   36.9540   25.3430   42.3850 O   0  0  0  0  0  0  0  0  0  0  0  0
   37.3900   26.6210   42.7240 C   0  0  0  0  0  0  0  0  0  0  0  0
   36.4520   27.4500   43.5700 C   0  0  0  0  0  0  0  0  0  0  0  0
   36.6530   27.7630   42.0910 C   0  0  0  0  0  0  0  0  0  0  0  0
   38.4450   26.7430   43.0250 H   0  0  0  0  0  0  0  0  0  0  0  0
   36.8570   28.1790   44.2900 H   0  0  0  0  0  0  0  0  0  0  0  0
   35.5100   26.9760   43.8430 H   0  0  0  0  0  0  0  0  0  0  0  0
   35.8290   27.5460   41.3900 H   0  0  0  0  0  0  0  0  0  0  0  0
   37.2030   28.6880   41.8210 H   0  0  0  0  0  0  0  0  0  0  0  0
  1  3  1  0  0  0  0
  2  1  1  0  0  0  0
  4  5  1  0  0  0  0
  5  6  2  0  0  0  0
  5  1  1  0  0  0  0
  7  6  1  0  0  0  0
  8  7  2  0  0  0  0
  9  8  1  0  0  0  0
  9  4  2  0  0  0  0
 10 13  1  0  0  0  0
 10  8  1  0  0  0  0
 11  4  1  0  0  0  0
 12 10  1  0  0  0  0
 14 21  1  6  0  0  0
 14 19  1  0  0  0  0
 14 15  1  0  0  0  0
 15  6  1  6  0  0  0
 15 16  1  0  0  0  0
 16 17  1  0  0  0  0
 18 16  1  0  0  0  0
 19 18  1  0  0  0  0
 19 20  1  0  0  0  0
 21 22  1  0  0  0  0
 23 24  1  0  0  0  0
 23  1  1  0  0  0  0
 24 25  2  0  0  0  0
 25 26  1  0  0  0  0
 26 28  1  0  0  0  0
 27 26  1  0  0  0  0
 29 26  1  0  0  0  0
 29 31  1  0  0  0  0
 31 30  2  6  0  0  0
 31 34  1  0  0  0  0
 31 32  1  0  0  0  0
 32 33  1  0  0  0  0
 34 35  1  0  0  0  0
 35 38  1  0  0  0  0
 35 36  1  0  0  0  0
 36 40  1  0  0  0  0
 36 39  1  0  0  0  0
 37 35  1  0  0  0  0
 37 36  1  0  0  0  0
 41 37  1  0  0  0  0
 42 37  1  0  0  0  0
M  END
>  <minimizedAffinity>
-5.28296661

$$$$

 OpenBabel03252504363D

 42 44  0  0  1  0  0  0  0  0999 V2000
   36.9550   31.4940   39.9710 C   0  0  0  0  0  0  0  0  0  0  0  0
   37.9740   31.7730   40.3790 H   0  0  0  0  0  0  0  0  0  0  0  0
   36.5240   32.4190   39.6120 H   0  0  0  0  0  0  0  0  0  0  0  0
   36.1830   30.0580   38.1340 C   0  0  0  0  0  0  0  0  0  0  0  0
   37.2760   30.6640   38.7510 C   0  0  0  0  0  0  0  0  0  0  0  0
   38.5180   30.4720   38.2220 C   0  0  0  0  0  0  0  0  0  0  0  0
   38.5830   29.6970   37.1250 N   0  0  0  0  0  0  0  0  0  0  0  0
   37.5540   29.1310   36.5520 C   0  0  0  0  0  0  0  0  0  0  0  0
   36.2740   29.2920   37.0450 N   0  0  0  0  0  0  0  0  0  0  0  0
   37.7620   28.3270   35.3970 N   0  0  0  0  0  0  0  0  0  0  0  0
   35.1760   30.1810   38.5170 H   0  0  0  0  0  0  0  0  0  0  0  0
   37.3790   28.4270   34.4500 H   0  0  0  0  0  0  0  0  0  0  0  0
   38.3950   27.5280   35.5620 H   0  0  0  0  0  0  0  0  0  0  0  0
   40.0050   32.3640   38.1100 C   0  0  1  0  0  3  0  0  0  0  0  0
   39.6900   31.0940   38.8670 C   0  0  2  0  0  3  0  0  0  0  0  0
   40.9510   30.2830   38.5820 C   0  0  0  0  0  3  0  0  0  0  0  0
   41.5230   30.0670   39.4930 H   0  0  0  0  0  0  0  0  0  0  0  0
   41.7530   31.0240   37.7490 O   0  0  0  0  0  0  0  0  0  0  0  0
   41.5360   32.3610   38.1520 C   0  0  0  0  0  3  0  0  0  0  0  0
   41.9400   32.5000   39.1570 H   0  0  0  0  0  0  0  0  0  0  0  0
   39.6640   32.2680   36.7650 O   0  0  0  0  0  0  0  0  0  0  0  0
   40.3110   31.7040   36.3060 H   0  0  0  0  0  0  0  0  0  0  0  0
   36.3580   30.7700   40.9540 O   0  0  0  0  0  0  0  0  0  0  0  0
   36.9190   29.9400   41.8980 C   0  0  0  0  0  3  0  0  0  0  0  0
   36.5010   28.6780   41.8760 C   0  0  0  0  0  3  0  0  0  0  0  0
   37.0060   27.6240   42.8430 C   0  0  0  0  0  0  0  0  0  0  0  0
   36.1760   27.3950   43.5450 H   0  0  0  0  0  0  0  0  0  0  0  0
   37.2880   26.7200   42.2890 H   0  0  0  0  0  0  0  0  0  0  0  0
   38.1120   28.1520   43.4790 O   0  0  0  0  0  0  0  0  0  0  0  0
   40.7020   28.1260   42.8270 O   0  0  0  0  0  0  0  0  0  0  0  0
   39.4840   27.2540   43.0870 P   0  0  1  0  0  0  0  0  0  0  0  0
   39.8960   26.2360   44.3970 O   0  0  0  0  0  0  0  0  0  0  0  0
   40.8350   26.2890   44.6370 H   0  0  0  0  0  0  0  0  0  0  0  0
   39.1990   26.2590   41.7730 O   0  0  0  0  0  0  0  0  0  0  0  0
   39.2500   24.9100   42.1120 C   0  0  0  0  0  0  0  0  0  0  0  0
   38.8950   23.9280   41.0210 C   0  0  0  0  0  0  0  0  0  0  0  0
   37.9350   24.1910   42.1760 C   0  0  0  0  0  0  0  0  0  0  0  0
   40.0990   24.5640   42.7270 H   0  0  0  0  0  0  0  0  0  0  0  0
   39.3750   22.9360   40.9920 H   0  0  0  0  0  0  0  0  0  0  0  0
   38.6260   24.3600   40.0570 H   0  0  0  0  0  0  0  0  0  0  0  0
   37.0080   24.7530   41.9730 H   0  0  0  0  0  0  0  0  0  0  0  0
   37.7850   23.3880   42.9270 H   0  0  0  0  0  0  0  0  0  0  0  0
  1  2  1  0  0  0  0
  1 23  1  0  0  0  0
  3  1  1  0  0  0  0
  4 11  1  0  0  0  0
  4  5  1  0  0  0  0
  5  1  1  0  0  0  0
  6  5  2  0  0  0  0
  7  6  1  0  0  0  0
  8  9  1  0  0  0  0
  8  7  2  0  0  0  0
  9  4  2  0  0  0  0
 10 13  1  0  0  0  0
 10  8  1  0  0  0  0
 12 10  1  0  0  0  0
 14 21  1  6  0  0  0
 14 19  1  0  0  0  0
 14 15  1  0  0  0  0
 15  6  1  6  0  0  0
 16 15  1  0  0  0  0
 16 17  1  0  0  0  0
 18 19  1  0  0  0  0
 18 16  1  0  0  0  0
 19 20  1  0  0  0  0
 22 21  1  0  0  0  0
 23 24  1  0  0  0  0
 25 24  2  0  0  0  0
 25 26  1  0  0  0  0
 26 29  1  0  0  0  0
 26 27  1  0  0  0  0
 28 26  1  0  0  0  0
 31 30  2  6  0  0  0
 31 29  1  0  0  0  0
 31 32  1  0  0  0  0
 32 33  1  0  0  0  0
 34 35  1  0  0  0  0
 34 31  1  0  0  0  0
 35 37  1  0  0  0  0
 35 38  1  0  0  0  0
 36 35  1  0  0  0  0
 36 37  1  0  0  0  0
 37 42  1  0  0  0  0
 39 36  1  0  0  0  0
 40 36  1  0  0  0  0
 41 37  1  0  0  0  0
M  END
>  <minimizedAffinity>
-5.26364183

$$$$

 OpenBabel03252504363D

 42 44  0  0  1  0  0  0  0  0999 V2000
   36.1790   30.6920   40.8290 C   0  0  0  0  0  0  0  0  0  0  0  0
   35.8400   31.6950   41.2320 H   0  0  0  0  0  0  0  0  0  0  0  0
   35.2930   30.2330   40.4120 H   0  0  0  0  0  0  0  0  0  0  0  0
   37.9990   32.0630   39.9140 C   0  0  0  0  0  0  0  0  0  0  0  0
   37.0660   31.0590   39.6630 C   0  0  0  0  0  0  0  0  0  0  0  0
   37.0250   30.4950   38.4230 C   0  0  0  0  0  0  0  0  0  0  0  0
   37.9100   30.9670   37.5260 N   0  0  0  0  0  0  0  0  0  0  0  0
   38.7810   31.9090   37.7670 C   0  0  0  0  0  0  0  0  0  0  0  0
   38.8670   32.5150   39.0060 N   0  0  0  0  0  0  0  0  0  0  0  0
   39.6580   32.3220   36.7260 N   0  0  0  0  0  0  0  0  0  0  0  0
   38.0710   32.5420   40.8830 H   0  0  0  0  0  0  0  0  0  0  0  0
   40.6840   32.3160   36.6900 H   0  0  0  0  0  0  0  0  0  0  0  0
   39.1640   32.6800   35.8920 H   0  0  0  0  0  0  0  0  0  0  0  0
   36.7330   28.1070   38.2920 C   0  0  1  0  0  3  0  0  0  0  0  0
   36.0360   29.4390   38.1340 C   0  0  2  0  0  3  0  0  0  0  0  0
   35.7110   29.4040   36.6430 C   0  0  0  0  0  3  0  0  0  0  0  0
   34.6310   29.4040   36.4510 H   0  0  0  0  0  0  0  0  0  0  0  0
   36.2290   28.2430   36.1220 O   0  0  0  0  0  0  0  0  0  0  0  0
   36.0860   27.2990   37.1640 C   0  0  0  0  0  3  0  0  0  0  0  0
   35.0240   27.1050   37.3260 H   0  0  0  0  0  0  0  0  0  0  0  0
   38.0850   28.1850   37.9750 O   0  0  0  0  0  0  0  0  0  0  0  0
   38.1880   28.2470   37.0090 H   0  0  0  0  0  0  0  0  0  0  0  0
   36.8650   30.1080   41.8470 O   0  0  0  0  0  0  0  0  0  0  0  0
   37.6920   29.0070   41.8290 C   0  0  0  0  0  3  0  0  0  0  0  0
   37.5550   28.1680   42.8520 C   0  0  0  0  0  3  0  0  0  0  0  0
   38.3830   26.9070   43.0020 C   0  0  0  0  0  0  0  0  0  0  0  0
   39.2830   27.0230   42.3600 H   0  0  0  0  0  0  0  0  0  0  0  0
   38.6850   26.7850   44.0500 H   0  0  0  0  0  0  0  0  0  0  0  0
   37.5850   25.8490   42.6150 O   0  0  0  0  0  0  0  0  0  0  0  0
   39.6430   25.0500   41.1100 O   0  0  0  0  0  0  0  0  0  0  0  0
   38.5440   24.5810   42.0500 P   0  0  1  0  0  0  0  0  0  0  0  0
   39.3300   23.8270   43.3670 O   0  0  0  0  0  0  0  0  0  0  0  0
   40.2820   23.7070   43.2200 H   0  0  0  0  0  0  0  0  0  0  0  0
   37.6140   23.4070   41.3060 O   0  0  0  0  0  0  0  0  0  0  0  0
   36.4480   23.9290   40.7530 C   0  0  0  0  0  0  0  0  0  0  0  0
   35.8280   23.1410   39.6230 C   0  0  0  0  0  0  0  0  0  0  0  0
   36.5560   24.4540   39.3510 C   0  0  0  0  0  0  0  0  0  0  0  0
   35.6910   24.3430   41.4410 H   0  0  0  0  0  0  0  0  0  0  0  0
   34.7350   23.1430   39.4830 H   0  0  0  0  0  0  0  0  0  0  0  0
   36.3480   22.2280   39.3340 H   0  0  0  0  0  0  0  0  0  0  0  0
   37.5330   24.4180   38.8410 H   0  0  0  0  0  0  0  0  0  0  0  0
   35.9540   25.3350   39.0480 H   0  0  0  0  0  0  0  0  0  0  0  0
  1  2  1  0  0  0  0
  1 23  1  0  0  0  0
  3  1  1  0  0  0  0
  4 11  1  0  0  0  0
  5  4  1  0  0  0  0
  5  1  1  0  0  0  0
  6  5  2  0  0  0  0
  7  8  2  0  0  0  0
  7  6  1  0  0  0  0
  8  9  1  0  0  0  0
  9  4  2  0  0  0  0
 10  8  1  0  0  0  0
 12 10  1  0  0  0  0
 13 10  1  0  0  0  0
 14 21  1  6  0  0  0
 15 14  1  0  0  0  0
 15  6  1  6  0  0  0
 16 15  1  0  0  0  0
 17 16  1  0  0  0  0
 18 16  1  0  0  0  0
 18 19  1  0  0  0  0
 19 20  1  0  0  0  0
 19 14  1  0  0  0  0
 22 21  1  0  0  0  0
 24 23  1  0  0  0  0
 24 25  2  0  0  0  0
 25 26  1  0  0  0  0
 26 28  1  0  0  0  0
 27 26  1  0  0  0  0
 29 26  1  0  0  0  0
 31 30  2  6  0  0  0
 31 29  1  0  0  0  0
 31 32  1  0  0  0  0
 33 32  1  0  0  0  0
 34 31  1  0  0  0  0
 35 34  1  0  0  0  0
 35 38  1  0  0  0  0
 36 35  1  0  0  0  0
 37 36  1  0  0  0  0
 37 35  1  0  0  0  0
 39 36  1  0  0  0  0
 40 36  1  0  0  0  0
 41 37  1  0  0  0  0
 42 37  1  0  0  0  0
M  END
>  <minimizedAffinity>
-5.16731882

$$$$

 OpenBabel03252504363D

 42 44  0  0  1  0  0  0  0  0999 V2000
   37.3660   31.0900   37.5960 C   0  0  0  0  0  0  0  0  0  0  0  0
   36.6580   31.7360   36.9940 H   0  0  0  0  0  0  0  0  0  0  0  0
   38.1190   30.7530   36.8960 H   0  0  0  0  0  0  0  0  0  0  0  0
   37.2060   33.0150   39.1120 C   0  0  0  0  0  0  0  0  0  0  0  0
   38.0450   32.0710   38.5210 C   0  0  0  0  0  0  0  0  0  0  0  0
   39.3750   32.1000   38.8150 C   0  0  0  0  0  0  0  0  0  0  0  0
   39.7740   33.0590   39.6700 N   0  0  0  0  0  0  0  0  0  0  0  0
   38.9840   33.9410   40.2190 C   0  0  0  0  0  0  0  0  0  0  0  0
   37.6270   33.9580   39.9570 N   0  0  0  0  0  0  0  0  0  0  0  0
   39.5360   34.9090   41.1040 N   0  0  0  0  0  0  0  0  0  0  0  0
   36.1410   33.0330   38.9100 H   0  0  0  0  0  0  0  0  0  0  0  0
   39.3190   35.0980   42.0890 H   0  0  0  0  0  0  0  0  0  0  0  0
   40.2610   35.4990   40.6650 H   0  0  0  0  0  0  0  0  0  0  0  0
   40.5090   30.0080   39.1910 C   0  0  1  0  0  3  0  0  0  0  0  0
   40.2820   31.1180   38.1900 C   0  0  2  0  0  3  0  0  0  0  0  0
   41.6950   31.6860   38.0830 C   0  0  0  0  0  3  0  0  0  0  0  0
   42.1160   31.5710   37.0770 H   0  0  0  0  0  0  0  0  0  0  0  0
   42.4980   30.9940   38.9550 O   0  0  0  0  0  0  0  0  0  0  0  0
   41.9830   29.6770   38.9370 C   0  0  0  0  0  3  0  0  0  0  0  0
   42.1620   29.2390   37.9530 H   0  0  0  0  0  0  0  0  0  0  0  0
   40.4460   30.4680   40.5030 O   0  0  0  0  0  0  0  0  0  0  0  0
   41.2540   30.9690   40.7100 H   0  0  0  0  0  0  0  0  0  0  0  0
   36.5730   30.2070   38.2600 O   0  0  0  0  0  0  0  0  0  0  0  0
   36.8740   29.3780   39.3160 C   0  0  0  0  0  3  0  0  0  0  0  0
   35.9590   29.3160   40.2790 C   0  0  0  0  0  3  0  0  0  0  0  0
   36.1220   28.4600   41.5200 C   0  0  0  0  0  0  0  0  0  0  0  0
   35.9030   29.1050   42.3980 H   0  0  0  0  0  0  0  0  0  0  0  0
   35.4150   27.6220   41.4860 H   0  0  0  0  0  0  0  0  0  0  0  0
   37.4190   27.9850   41.5180 O   0  0  0  0  0  0  0  0  0  0  0  0
   39.2320   29.3600   42.9170 O   0  0  0  0  0  0  0  0  0  0  0  0
   38.1480   28.2980   43.0060 P   0  0  1  0  0  0  0  0  0  0  0  0
   36.9810   28.8970   44.1020 O   0  0  0  0  0  0  0  0  0  0  0  0
   37.2720   29.7000   44.5620 H   0  0  0  0  0  0  0  0  0  0  0  0
   38.7690   26.8980   43.6790 O   0  0  0  0  0  0  0  0  0  0  0  0
   39.2930   26.0380   42.7190 C   0  0  0  0  0  0  0  0  0  0  0  0
   38.5020   24.7820   42.4360 C   0  0  0  0  0  0  0  0  0  0  0  0
   39.8100   24.7210   43.2180 C   0  0  0  0  0  0  0  0  0  0  0  0
   39.7130   26.4840   41.8000 H   0  0  0  0  0  0  0  0  0  0  0  0
   38.5070   24.3410   41.4260 H   0  0  0  0  0  0  0  0  0  0  0  0
   37.5860   24.6550   43.0120 H   0  0  0  0  0  0  0  0  0  0  0  0
   39.7680   24.5060   44.2990 H   0  0  0  0  0  0  0  0  0  0  0  0
   40.6920   24.2580   42.7290 H   0  0  0  0  0  0  0  0  0  0  0  0
  1 23  1  0  0  0  0
  1  5  1  0  0  0  0
  2  1  1  0  0  0  0
  3  1  1  0  0  0  0
  4  9  1  0  0  0  0
  5  6  1  0  0  0  0
  5  4  2  0  0  0  0
  6  7  2  0  0  0  0
  7  8  1  0  0  0  0
  8 10  1  0  0  0  0
  9  8  2  0  0  0  0
 10 12  1  0  0  0  0
 11  4  1  0  0  0  0
 13 10  1  0  0  0  0
 14 21  1  1  0  0  0
 15  6  1  1  0  0  0
 15 14  1  0  0  0  0
 16 15  1  0  0  0  0
 16 18  1  0  0  0  0
 17 16  1  0  0  0  0
 19 18  1  0  0  0  0
 19 14  1  0  0  0  0
 20 19  1  0  0  0  0
 21 22  1  0  0  0  0
 23 24  1  0  0  0  0
 24 25  2  0  0  0  0
 25 26  1  0  0  0  0
 26 27  1  0  0  0  0
 28 26  1  0  0  0  0
 29 26  1  0  0  0  0
 29 31  1  0  0  0  0
 31 30  2  6  0  0  0
 31 34  1  0  0  0  0
 31 32  1  0  0  0  0
 32 33  1  0  0  0  0
 35 37  1  0  0  0  0
 35 34  1  0  0  0  0
 36 35  1  0  0  0  0
 36 40  1  0  0  0  0
 36 37  1  0  0  0  0
 37 41  1  0  0  0  0
 38 35  1  0  0  0  0
 39 36  1  0  0  0  0
 42 37  1  0  0  0  0
M  END
>  <minimizedAffinity>
-5.16033125

$$$$

 OpenBabel03252504363D

 42 44  0  0  1  0  0  0  0  0999 V2000
   36.3790   27.8770   38.8280 C   0  0  0  0  0  0  0  0  0  0  0  0
   35.7700   27.4460   37.9770 H   0  0  0  0  0  0  0  0  0  0  0  0
   35.6750   28.4210   39.4430 H   0  0  0  0  0  0  0  0  0  0  0  0
   36.9700   25.4940   38.8780 C   0  0  0  0  0  0  0  0  0  0  0  0
   36.7960   26.6610   39.6200 C   0  0  0  0  0  0  0  0  0  0  0  0
   37.0110   26.6220   40.9660 C   0  0  0  0  0  0  0  0  0  0  0  0
   37.3810   25.4330   41.4740 N   0  0  0  0  0  0  0  0  0  0  0  0
   37.5420   24.3420   40.7730 C   0  0  0  0  0  0  0  0  0  0  0  0
   37.3380   24.3250   39.4060 N   0  0  0  0  0  0  0  0  0  0  0  0
   37.9310   23.1460   41.4360 N   0  0  0  0  0  0  0  0  0  0  0  0
   36.8120   25.4750   37.8060 H   0  0  0  0  0  0  0  0  0  0  0  0
   38.7570   22.5540   41.2910 H   0  0  0  0  0  0  0  0  0  0  0  0
   37.2660   22.8470   42.1680 H   0  0  0  0  0  0  0  0  0  0  0  0
   38.1610   28.5310   41.8800 C   0  0  1  0  0  3  0  0  0  0  0  0
   36.8190   27.8430   41.7710 C   0  0  2  0  0  3  0  0  0  0  0  0
   36.5730   27.4860   43.2350 C   0  0  0  0  0  3  0  0  0  0  0  0
   35.6940   27.9970   43.6470 H   0  0  0  0  0  0  0  0  0  0  0  0
   37.6690   27.8870   43.9600 O   0  0  0  0  0  0  0  0  0  0  0  0
   38.1030   29.0670   43.3130 C   0  0  0  0  0  3  0  0  0  0  0  0
   37.3510   29.8460   43.4520 H   0  0  0  0  0  0  0  0  0  0  0  0
   39.2150   27.6250   41.8570 O   0  0  0  0  0  0  0  0  0  0  0  0
   39.2620   27.1600   42.7110 H   0  0  0  0  0  0  0  0  0  0  0  0
   37.4320   28.5030   38.2370 O   0  0  0  0  0  0  0  0  0  0  0  0
   37.7410   29.8430   38.1870 C   0  0  0  0  0  3  0  0  0  0  0  0
   36.9470   30.6440   38.8920 C   0  0  0  0  0  3  0  0  0  0  0  0
   37.1330   32.1480   38.9510 C   0  0  0  0  0  0  0  0  0  0  0  0
   38.0590   32.3900   38.3860 H   0  0  0  0  0  0  0  0  0  0  0  0
   36.2710   32.6450   38.4880 H   0  0  0  0  0  0  0  0  0  0  0  0
   37.2170   32.4940   40.2850 O   0  0  0  0  0  0  0  0  0  0  0  0
   39.6170   33.2740   39.4090 O   0  0  0  0  0  0  0  0  0  0  0  0
   38.7840   33.0000   40.6510 P   0  0  1  0  0  0  0  0  0  0  0  0
   38.7240   34.4690   41.5210 O   0  0  0  0  0  0  0  0  0  0  0  0
   39.3220   35.1450   41.1630 H   0  0  0  0  0  0  0  0  0  0  0  0
   39.5620   31.8890   41.6300 O   0  0  0  0  0  0  0  0  0  0  0  0
   40.8530   31.6100   41.1900 C   0  0  0  0  0  0  0  0  0  0  0  0
   41.0420   30.3120   40.4400 C   0  0  0  0  0  0  0  0  0  0  0  0
   41.5530   30.4710   41.8680 C   0  0  0  0  0  0  0  0  0  0  0  0
   41.4390   32.4360   40.7510 H   0  0  0  0  0  0  0  0  0  0  0  0
   41.8030   30.2380   39.6470 H   0  0  0  0  0  0  0  0  0  0  0  0
   40.1490   29.7010   40.3090 H   0  0  0  0  0  0  0  0  0  0  0  0
   41.0340   29.9290   42.6770 H   0  0  0  0  0  0  0  0  0  0  0  0
   42.6500   30.5200   42.0300 H   0  0  0  0  0  0  0  0  0  0  0  0
  1  3  1  0  0  0  0
  1  5  1  0  0  0  0
  2  1  1  0  0  0  0
  4  9  2  0  0  0  0
  4  5  1  0  0  0  0
  5  6  2  0  0  0  0
  6  7  1  0  0  0  0
  8 10  1  0  0  0  0
  8  7  2  0  0  0  0
  9  8  1  0  0  0  0
 10 13  1  0  0  0  0
 11  4  1  0  0  0  0
 12 10  1  0  0  0  0
 14 21  1  1  0  0  0
 14 19  1  0  0  0  0
 15  6  1  6  0  0  0
 15 14  1  0  0  0  0
 15 16  1  0  0  0  0
 16 17  1  0  0  0  0
 16 18  1  0  0  0  0
 19 20  1  0  0  0  0
 19 18  1  0  0  0  0
 21 22  1  0  0  0  0
 23  1  1  0  0  0  0
 24 23  1  0  0  0  0
 24 25  2  0  0  0  0
 25 26  1  0  0  0  0
 26 29  1  0  0  0  0
 27 26  1  0  0  0  0
 28 26  1  0  0  0  0
 29 31  1  0  0  0  0
 31 30  2  6  0  0  0
 31 32  1  0  0  0  0
 31 34  1  0  0  0  0
 33 32  1  0  0  0  0
 35 34  1  0  0  0  0
 35 37  1  0  0  0  0
 36 35  1  0  0  0  0
 36 37  1  0  0  0  0
 37 42  1  0  0  0  0
 37 41  1  0  0  0  0
 38 35  1  0  0  0  0
 39 36  1  0  0  0  0
 40 36  1  0  0  0  0
M  END
>  <minimizedAffinity>
-5.11696625

$$$$
