
 OpenBabel03242515383D

 36 39  0  0  1  0  0  0  0  0999 V2000
   43.8390   34.7410   40.9460 C   0  0  0  0  0  0  0  0  0  0  0  0
   43.7840   33.7740   39.9530 C   0  0  0  0  0  0  0  0  0  0  0  0
   44.9970   33.1820   39.5810 C   0  0  0  0  0  0  0  0  0  0  0  0
   46.1390   33.5640   40.1830 N   0  0  0  0  0  0  0  0  0  0  0  0
   46.1490   34.5110   41.1480 C   0  0  0  0  0  0  0  0  0  0  0  0
   45.0020   35.0700   41.5000 N   0  0  0  0  0  0  0  0  0  0  0  0
   42.8470   33.4790   39.4750 H   0  0  0  0  0  0  0  0  0  0  0  0
   44.5490   32.6710   37.2010 C   0  0  2  0  0  3  0  0  0  0  0  0
   45.0010   32.1460   38.5290 C   0  0  1  0  0  3  0  0  0  0  0  0
   46.4010   31.6810   38.2020 C   0  0  0  0  0  3  0  0  0  0  0  0
   47.1020   32.5230   38.3690 H   0  0  0  0  0  0  0  0  0  0  0  0
   46.4280   31.3070   36.8890 O   0  0  0  0  0  0  0  0  0  0  0  0
   45.3000   31.7760   36.2460 C   0  0  0  0  0  3  0  0  0  0  0  0
   44.6360   30.9350   35.9640 H   0  0  0  0  0  0  0  0  0  0  0  0
   45.0470   33.9830   37.0870 O   0  0  0  0  0  0  0  0  0  0  0  0
   46.0260   33.9620   36.8700 H   0  0  0  0  0  0  0  0  0  0  0  0
   42.2650   35.4920   41.4110 S   0  0  0  0  0  0  0  0  0  0  0  0
   39.9170   34.8510   40.2570 C   0  0  0  0  0  0  0  0  0  0  0  0
   40.9150   34.3650   41.0830 C   0  0  0  0  0  0  0  0  0  0  0  0
   40.8380   33.0990   41.5960 C   0  0  0  0  0  0  0  0  0  0  0  0
   39.7760   32.2580   41.3180 C   0  0  0  0  0  0  0  0  0  0  0  0
   38.7730   32.7560   40.4850 C   0  0  0  0  0  0  0  0  0  0  0  0
   38.8190   34.0300   39.9480 C   0  0  0  0  0  0  0  0  0  0  0  0
   37.8090   31.7290   40.3480 O   0  0  0  0  0  0  0  0  0  0  0  0
   38.0940   30.7750   41.3210 C   0  0  0  0  0  0  0  0  0  0  0  0
   39.4420   30.9520   41.6910 O   0  0  0  0  0  0  0  0  0  0  0  0
   39.8760   35.8370   39.7960 H   0  0  0  0  0  0  0  0  0  0  0  0
   41.6460   32.7450   42.2470 H   0  0  0  0  0  0  0  0  0  0  0  0
   38.0290   34.3820   39.3100 H   0  0  0  0  0  0  0  0  0  0  0  0
   37.3970   30.7700   42.1750 H   0  0  0  0  0  0  0  0  0  0  0  0
   38.0100   29.7690   40.8520 H   0  0  0  0  0  0  0  0  0  0  0  0
   47.2730   34.9470   41.8020 O   0  0  0  0  0  0  0  0  0  0  0  0
   48.4780   35.0600   41.0830 C   0  0  0  0  0  0  0  0  0  0  0  0
   49.3310   34.0250   41.3340 F   0  0  0  0  0  0  0  0  0  0  0  0
   48.1120   35.1720   39.7440 F   0  0  0  0  0  0  0  0  0  0  0  0
   49.1020   36.2340   41.5090 F   0  0  0  0  0  0  0  0  0  0  0  0
  1 17  1  0  0  0  0
  1  6  1  0  0  0  0
  2  1  2  0  0  0  0
  3  2  1  0  0  0  0
  3  4  2  0  0  0  0
  4  5  1  0  0  0  0
  5  6  2  0  0  0  0
  5 32  1  0  0  0  0
  7  2  1  0  0  0  0
  8 15  1  6  0  0  0
  8  9  1  0  0  0  0
  9  3  1  1  0  0  0
 10 11  1  0  0  0  0
 10  9  1  0  0  0  0
 12 10  1  0  0  0  0
 13 12  1  0  0  0  0
 13  8  1  0  0  0  0
 14 13  1  0  0  0  0
 16 15  1  0  0  0  0
 18 19  1  0  0  0  0
 19 17  1  0  0  0  0
 19 20  2  0  0  0  0
 20 28  1  0  0  0  0
 21 20  1  0  0  0  0
 21 26  1  0  0  0  0
 22 21  2  0  0  0  0
 23 18  2  0  0  0  0
 23 22  1  0  0  0  0
 24 22  1  0  0  0  0
 24 25  1  0  0  0  0
 25 26  1  0  0  0  0
 25 30  1  0  0  0  0
 27 18  1  0  0  0  0
 29 23  1  0  0  0  0
 31 25  1  0  0  0  0
 33 34  1  0  0  0  0
 33 36  1  0  0  0  0
 33 32  1  0  0  0  0
 35 33  1  0  0  0  0
M  END
>  <minimizedAffinity>
-6.29007292

>  <minimizedRMSD>
0.640374839

$$$$
