
 OpenBabel03252509163D

 25 27  0  0  1  0  0  0  0  0999 V2000
   45.8650   33.1380   46.1800 C   0  0  0  0  0  0  0  0  0  0  0  0
   45.2920   32.9890   47.4720 C   0  0  0  0  0  0  0  0  0  0  0  0
   45.6800   31.9550   48.2400 C   0  0  0  0  0  0  0  0  0  0  0  0
   46.6450   31.0510   47.7390 C   0  0  0  0  0  0  0  0  0  0  0  0
   47.0090   31.7220   46.0820 S   0  0  0  0  0  0  0  0  0  0  0  0
   44.5600   33.6940   47.8240 H   0  0  0  0  0  0  0  0  0  0  0  0
   45.3500   31.7090   49.2130 H   0  0  0  0  0  0  0  0  0  0  0  0
   44.4770   36.1440   44.5080 C   0  0  0  0  0  0  0  0  0  0  0  0
   45.1390   36.0550   43.2600 C   0  0  0  0  0  0  0  0  0  0  0  0
   46.0230   34.9790   43.0520 C   0  0  0  0  0  0  0  0  0  0  0  0
   46.1900   34.0770   44.0770 N   0  0  0  0  0  0  0  0  0  0  0  0
   45.5280   34.2160   45.2470 C   0  0  0  0  0  0  0  0  0  0  0  0
   44.6710   35.2430   45.4720 N   0  0  0  0  0  0  0  0  0  0  0  0
   43.7990   36.9710   44.6630 H   0  0  0  0  0  0  0  0  0  0  0  0
   45.0030   36.7690   42.4580 H   0  0  0  0  0  0  0  0  0  0  0  0
   46.5720   34.8310   42.1320 H   0  0  0  0  0  0  0  0  0  0  0  0
   48.6750   30.2430   48.7330 C   0  0  2  0  0  3  0  0  0  0  0  0
   47.3100   29.8790   48.1850 C   0  0  2  0  0  3  0  0  0  0  0  0
   47.6900   29.0180   47.0220 C   0  0  0  0  0  3  0  0  0  0  0  0
   47.7920   29.5730   46.0570 H   0  0  0  0  0  0  0  0  0  0  0  0
   48.8700   28.3630   47.3440 O   0  0  0  0  0  0  0  0  0  0  0  0
   49.3760   28.9020   48.5140 C   0  0  0  0  0  3  0  0  0  0  0  0
   49.1110   28.2290   49.3640 H   0  0  0  0  0  0  0  0  0  0  0  0
   48.6300   30.5210   50.0960 O   0  0  0  0  0  0  0  0  0  0  0  0
   47.6990   30.5140   50.4230 H   0  0  0  0  0  0  0  0  0  0  0  0
  1  2  2  0  0  0  0
  2  6  1  0  0  0  0
  2  3  1  0  0  0  0
  3  7  1  0  0  0  0
  4  3  2  0  0  0  0
  5  1  1  0  0  0  0
  5  4  1  0  0  0  0
  8 14  1  0  0  0  0
  8 13  1  0  0  0  0
  9  8  2  0  0  0  0
 10  9  1  0  0  0  0
 10 11  2  0  0  0  0
 11 12  1  0  0  0  0
 12 13  2  0  0  0  0
 12  1  1  0  0  0  0
 15  9  1  0  0  0  0
 16 10  1  0  0  0  0
 17 24  1  1  0  0  0
 18  4  1  6  0  0  0
 18 17  1  0  0  0  0
 19 21  1  0  0  0  0
 19 18  1  0  0  0  0
 20 19  1  0  0  0  0
 21 22  1  0  0  0  0
 22 17  1  0  0  0  0
 22 23  1  0  0  0  0
 24 25  1  0  0  0  0
M  END
>  <minimizedAffinity>
-5.17391968

>  <minimizedRMSD>
0.878543019

$$$$
