
 OpenBabel03252505303D

 27 28  0  0  1  0  0  0  0  0999 V2000
   46.8070   31.5810   48.5980 O   0  0  0  0  0  0  0  0  0  0  0  0
   45.8540   31.9480   47.4490 P   0  0  1  0  0  0  0  0  0  0  0  0
   44.4750   32.7150   48.0110 O   0  0  0  0  0  0  0  0  0  0  0  0
   44.6830   33.6130   48.4150 H   0  0  0  0  0  0  0  0  0  0  0  0
   46.7230   32.9460   46.3820 O   0  0  0  0  0  0  0  0  0  0  0  0
   44.5640   35.3890   44.9980 C   0  0  0  0  0  0  0  0  0  0  0  0
   44.9970   35.5550   43.6590 C   0  0  0  0  0  0  0  0  0  0  0  0
   46.0990   34.7500   43.2760 C   0  0  0  0  0  0  0  0  0  0  0  0
   46.6340   33.9090   44.1990 N   0  0  0  0  0  0  0  0  0  0  0  0
   46.1750   33.8040   45.4470 C   0  0  0  0  0  0  0  0  0  0  0  0
   45.1330   34.5480   45.8520 N   0  0  0  0  0  0  0  0  0  0  0  0
   43.7120   36.0150   45.2830 H   0  0  0  0  0  0  0  0  0  0  0  0
   44.5190   36.2470   42.9780 H   0  0  0  0  0  0  0  0  0  0  0  0
   46.4780   34.8300   42.2650 H   0  0  0  0  0  0  0  0  0  0  0  0
   45.4150   30.5050   46.7190 O   0  0  0  0  0  0  0  0  0  0  0  0
   45.0650   29.6040   47.7000 C   0  0  0  0  0  0  0  0  0  0  0  0
   44.1570   29.9860   48.2060 H   0  0  0  0  0  0  0  0  0  0  0  0
   45.8700   29.5880   48.4620 H   0  0  0  0  0  0  0  0  0  0  0  0
   45.5750   26.0950   48.0490 C   0  0  1  0  0  3  0  0  0  0  0  0
   44.6660   27.2680   48.3230 C   0  0  0  0  0  3  0  0  0  0  0  0
   43.6110   26.9790   48.5110 H   0  0  0  0  0  0  0  0  0  0  0  0
   44.8680   28.2010   47.1760 C   0  0  2  0  0  3  0  0  0  0  0  0
   46.0260   27.8090   46.5170 O   0  0  0  0  0  0  0  0  0  0  0  0
   46.2210   26.4760   46.7590 C   0  0  0  0  0  3  0  0  0  0  0  0
   45.7500   25.8900   45.9200 H   0  0  0  0  0  0  0  0  0  0  0  0
   46.5500   25.9230   49.0470 O   0  0  0  0  0  0  0  0  0  0  0  0
   46.1330   26.0330   49.9580 H   0  0  0  0  0  0  0  0  0  0  0  0
  2  3  1  0  0  0  0
  2  1  2  1  0  0  0
  3  4  1  0  0  0  0
  5  2  1  0  0  0  0
  6 12  1  0  0  0  0
  6 11  1  0  0  0  0
  7  6  2  0  0  0  0
  8  7  1  0  0  0  0
  8  9  2  0  0  0  0
  9 10  1  0  0  0  0
 10 11  2  0  0  0  0
 10  5  1  0  0  0  0
 13  7  1  0  0  0  0
 14  8  1  0  0  0  0
 15  2  1  0  0  0  0
 15 16  1  0  0  0  0
 16 17  1  0  0  0  0
 16 18  1  0  0  0  0
 19 20  1  0  0  0  0
 19 26  1  1  0  0  0
 20 21  1  0  0  0  0
 22 16  1  1  0  0  0
 22 20  1  0  0  0  0
 23 24  1  0  0  0  0
 23 22  1  0  0  0  0
 24 19  1  0  0  0  0
 25 24  1  0  0  0  0
 26 27  1  0  0  0  0
M  END
>  <minimizedAffinity>
-4.6529808

>  <minimizedRMSD>
0.76529783

$$$$
