
     RDKit          3D

 29 31  0  0  0  0  0  0  0  0999 V2000
   44.6271   35.9327   44.3382 C   0  0  0  0  0  0  0  0  0  0  0  0
   45.3432   35.9271   43.1290 C   0  0  0  0  0  0  0  0  0  0  0  0
   46.2751   34.8924   43.0044 C   0  0  0  0  0  0  0  0  0  0  0  0
   46.4343   33.9796   44.0202 N   0  0  0  0  0  0  0  0  0  0  0  0
   45.7079   34.0429   45.1641 C   0  0  0  0  0  0  0  0  0  0  0  0
   44.8060   35.0264   45.3109 N   0  0  0  0  0  0  0  0  0  0  0  0
   47.0928   34.7591   41.7499 C   0  0  0  0  0  0  0  0  0  0  0  0
   48.4083   35.5038   41.8355 C   0  0  0  0  0  0  0  0  0  0  0  0
   48.3022   33.9499   41.8058 C   0  0  0  0  0  0  0  0  0  0  0  0
   43.8803   36.7131   44.5081 H   0  0  0  0  0  0  0  0  0  0  0  0
   45.1965   36.6490   42.3601 H   0  0  0  0  0  0  0  0  0  0  0  0
   46.5122   34.8790   40.8157 H   0  0  0  0  0  0  0  0  0  0  0  0
   48.7371   35.9623   40.8808 H   0  0  0  0  0  0  0  0  0  0  0  0
   48.7044   35.9834   42.7713 H   0  0  0  0  0  0  0  0  0  0  0  0
   48.5817   33.5004   42.8024 H   0  0  0  0  0  0  0  0  0  0  0  0
   48.7500   33.4586   40.9207 H   0  0  0  0  0  0  0  0  0  0  0  0
   44.0199   32.0280   45.2464 O   0  0  0  0  0  0  0  0  0  0  0  0
   44.8753   32.0369   46.3180 C   0  0  2  0  0  0  0  0  0  0  0  0
   46.0662   32.9462   46.0994 C   0  0  1  0  0  0  0  0  0  0  0  0
   47.0529   31.9867   45.4470 C   0  0  2  0  0  0  0  0  0  0  0  0
   48.0004   31.9826   46.0094 H   0  0  0  0  0  0  0  0  0  0  0  0
   46.4799   30.7321   45.4583 O   0  0  0  0  0  0  0  0  0  0  0  0
   45.5783   30.6868   46.4946 C   0  0  1  0  0  0  0  0  0  0  0  0
   46.1486   30.7001   47.4348 H   0  0  0  0  0  0  0  0  0  0  0  0
   43.5670   31.1393   45.1202 H   0  0  0  0  0  0  0  0  0  0  0  0
   44.3504   32.2404   47.2561 H   0  0  0  0  0  0  0  0  0  0  0  0
   46.4471   33.3393   47.0709 H   0  0  0  0  0  0  0  0  0  0  0  0
   47.1980   32.2680   44.3739 H   0  0  0  0  0  0  0  0  0  0  0  0
   44.8775   29.8520   46.3836 H   0  0  0  0  0  0  0  0  0  0  0  0
  1  6  2  0
  2  1  1  0
  3  2  2  0
  3  4  1  0
  4  5  2  0
  5  6  1  0
  7  8  1  0
  7  9  1  0
  7  3  1  0
  8  9  1  0
  1 10  1  0
  2 11  1  0
  7 12  1  0
  8 13  1  0
  8 14  1  0
  9 15  1  0
  9 16  1  0
 17 18  1  0
 18 19  1  0
 19 20  1  0
 20 21  1  1
 20 22  1  0
 22 23  1  0
 23 24  1  1
 23 18  1  0
 17 25  1  0
 18 26  1  1
 19 27  1  1
 20 28  1  0
 23 29  1  0
  5 19  1  0
M  ISO  8  10  14  11  14  12  13  13  13  14  13  15  13  16  13  21  15
M  ISO  1  24  16
M  END
>  <DihAtoms>  (1) 
3,4,18,17

>  <DihDeg>  (1) 
-56.40420176508991

$$$$
