
 OpenBabel03252504413D

 45 48  0  0  1  0  0  0  0  0999 V2000
   46.3360   32.2180   47.8140 C   0  0  0  0  0  0  0  0  0  0  0  0
   45.8910   31.8170   49.0410 C   0  0  0  0  0  0  0  0  0  0  0  0
   46.8880   31.1360   49.6120 N   0  0  0  0  0  0  0  0  0  0  0  0
   47.9480   31.0810   48.8070 C   0  0  0  0  0  0  0  0  0  0  0  0
   47.5980   31.7600   47.6830 N   0  0  0  0  0  0  0  0  0  0  0  0
   49.2230   30.4790   48.9690 N   0  0  0  0  0  0  0  0  0  0  0  0
   50.2850   31.2710   49.6050 C   0  0  0  0  0  0  0  0  0  0  0  0
   50.4000   30.6960   51.0150 C   0  0  0  0  0  0  0  0  0  0  0  0
   50.4830   29.1930   50.9540 C   0  0  0  0  0  0  0  0  0  0  0  0
   50.8200   28.7380   49.5430 C   0  0  0  0  0  0  0  0  0  0  0  0
   49.7160   29.1700   48.6120 C   0  0  0  0  0  0  0  0  0  0  0  0
   44.9210   32.0100   49.4790 H   0  0  0  0  0  0  0  0  0  0  0  0
   46.8450   30.7020   50.5600 H   0  0  0  0  0  0  0  0  0  0  0  0
   51.2420   31.1990   49.0670 H   0  0  0  0  0  0  0  0  0  0  0  0
   49.9620   32.3310   49.7140 H   0  0  0  0  0  0  0  0  0  0  0  0
   51.2350   31.1760   51.5470 H   0  0  0  0  0  0  0  0  0  0  0  0
   49.4570   31.0300   51.5350 H   0  0  0  0  0  0  0  0  0  0  0  0
   51.1880   28.7900   51.6950 H   0  0  0  0  0  0  0  0  0  0  0  0
   49.4820   28.7870   51.2210 H   0  0  0  0  0  0  0  0  0  0  0  0
   51.7740   29.1770   49.2100 H   0  0  0  0  0  0  0  0  0  0  0  0
   50.9630   27.6480   49.5650 H   0  0  0  0  0  0  0  0  0  0  0  0
   48.9170   28.3750   48.6510 H   0  0  0  0  0  0  0  0  0  0  0  0
   50.0410   29.1650   47.5440 H   0  0  0  0  0  0  0  0  0  0  0  0
   45.5900   33.0080   46.7990 C   0  0  0  0  0  0  0  0  0  0  0  0
   45.2940   33.9830   47.2360 H   0  0  0  0  0  0  0  0  0  0  0  0
   44.6190   32.4810   46.5760 H   0  0  0  0  0  0  0  0  0  0  0  0
   45.9750   33.8710   44.5180 C   0  0  0  0  0  3  0  0  0  0  0  0
   46.4110   33.2150   45.5820 C   0  0  0  0  0  3  0  0  0  0  0  0
   46.8850   34.0070   43.3760 C   0  0  0  0  0  0  0  0  0  0  0  0
   46.8980   35.1650   42.5750 C   0  0  0  0  0  0  0  0  0  0  0  0
   47.7910   35.2070   41.5140 C   0  0  0  0  0  0  0  0  0  0  0  0
   48.6040   34.1580   41.2920 N   0  0  0  0  0  0  0  0  0  0  0  0
   48.5750   33.0430   42.0820 C   0  0  0  0  0  0  0  0  0  0  0  0
   47.7350   32.9820   43.0910 N   0  0  0  0  0  0  0  0  0  0  0  0
   46.2270   35.9730   42.7990 H   0  0  0  0  0  0  0  0  0  0  0  0
   47.8310   36.0800   40.8760 H   0  0  0  0  0  0  0  0  0  0  0  0
   50.8480   32.1080   42.4450 C   0  0  1  0  0  3  0  0  0  0  0  0
   49.5080   31.9330   41.7600 C   0  0  2  0  0  3  0  0  0  0  0  0
   49.9190   31.9930   40.3200 C   0  0  0  0  0  3  0  0  0  0  0  0
   49.1930   31.4780   39.6420 H   0  0  0  0  0  0  0  0  0  0  0  0
   51.1970   31.4700   40.2240 O   0  0  0  0  0  0  0  0  0  0  0  0
   51.7370   31.3380   41.4790 C   0  0  0  0  0  3  0  0  0  0  0  0
   52.7950   31.6580   41.5460 H   0  0  0  0  0  0  0  0  0  0  0  0
   51.2630   33.4370   42.4410 O   0  0  0  0  0  0  0  0  0  0  0  0
   51.4930   33.7170   41.5160 H   0  0  0  0  0  0  0  0  0  0  0  0
  1  2  2  0  0  0  0
  2 12  1  0  0  0  0
  2  3  1  0  0  0  0
  3 13  1  0  0  0  0
  4  6  1  0  0  0  0
  4  3  1  0  0  0  0
  5  1  1  0  0  0  0
  5  4  2  0  0  0  0
  6  7  1  0  0  0  0
  7 15  1  0  0  0  0
  7  8  1  0  0  0  0
  8 17  1  0  0  0  0
  8 16  1  0  0  0  0
  9  8  1  0  0  0  0
  9 19  1  0  0  0  0
  9 18  1  0  0  0  0
 10 21  1  0  0  0  0
 10  9  1  0  0  0  0
 11 22  1  0  0  0  0
 11  6  1  0  0  0  0
 11 10  1  0  0  0  0
 14  7  1  0  0  0  0
 20 10  1  0  0  0  0
 23 11  1  0  0  0  0
 24 25  1  0  0  0  0
 24  1  1  0  0  0  0
 26 24  1  0  0  0  0
 27 28  2  0  0  0  0
 28 24  1  0  0  0  0
 29 27  1  0  0  0  0
 30 35  1  0  0  0  0
 30 29  2  0  0  0  0
 31 30  1  0  0  0  0
 32 31  2  0  0  0  0
 32 33  1  0  0  0  0
 33 34  2  0  0  0  0
 34 29  1  0  0  0  0
 36 31  1  0  0  0  0
 37 44  1  6  0  0  0
 38 33  1  1  0  0  0
 38 37  1  0  0  0  0
 39 38  1  0  0  0  0
 40 39  1  0  0  0  0
 41 39  1  0  0  0  0
 41 42  1  0  0  0  0
 42 43  1  0  0  0  0
 42 37  1  0  0  0  0
 45 44  1  0  0  0  0
M  END
>  <minimizedAffinity>
-6.43738127

>  <minimizedRMSD>
0.659664273

$$$$
