
 OpenBabel03252509063D

 48 50  0  0  1  0  0  0  0  0999 V2000
   37.9330   27.0400   42.7350 N   0  0  0  0  0  0  0  0  0  0  0  0
   39.1420   26.7310   43.3960 C   0  0  0  0  0  0  0  0  0  0  0  0
   40.3190   27.5980   42.9750 C   0  0  0  0  0  0  0  0  0  0  0  0
   39.9390   29.0260   42.6610 C   0  0  0  0  0  0  0  0  0  0  0  0
   38.4650   29.2830   42.9170 C   0  0  0  0  0  0  0  0  0  0  0  0
   37.7520   28.1950   42.0150 C   0  0  2  0  0  0  0  0  0  0  0  0
   39.4860   25.6960   43.3130 H   0  0  0  0  0  0  0  0  0  0  0  0
   38.9930   26.9130   44.4820 H   0  0  0  0  0  0  0  0  0  0  0  0
   41.0840   27.5220   43.7750 H   0  0  0  0  0  0  0  0  0  0  0  0
   40.7600   27.1160   42.0710 H   0  0  0  0  0  0  0  0  0  0  0  0
   40.1480   29.2660   41.6060 H   0  0  0  0  0  0  0  0  0  0  0  0
   40.5090   29.7470   43.2780 H   0  0  0  0  0  0  0  0  0  0  0  0
   38.1670   29.1220   43.9510 H   0  0  0  0  0  0  0  0  0  0  0  0
   38.2290   30.2700   42.4890 H   0  0  0  0  0  0  0  0  0  0  0  0
   38.2170   28.2590   41.0120 H   0  0  0  0  0  0  0  0  0  0  0  0
   37.1270   25.8900   42.4070 C   0  0  0  0  0  0  0  0  0  0  0  0
   36.6200   26.1320   41.4270 H   0  0  0  0  0  0  0  0  0  0  0  0
   36.3710   25.6910   43.1740 H   0  0  0  0  0  0  0  0  0  0  0  0
   38.0380   24.7470   42.1470 C   0  0  0  0  0  0  0  0  0  0  0  0
   39.0810   25.0270   41.8830 H   0  0  0  0  0  0  0  0  0  0  0  0
   38.1500   24.0850   43.0480 H   0  0  0  0  0  0  0  0  0  0  0  0
   37.6930   21.9950   39.6190 C   0  0  0  0  0  0  0  0  0  0  0  0
   38.2190   22.8400   40.6170 C   0  0  0  0  0  0  0  0  0  0  0  0
   37.4600   23.8750   41.0980 C   0  0  0  0  0  0  0  0  0  0  0  0
   36.2430   24.0240   40.5850 N   0  0  0  0  0  0  0  0  0  0  0  0
   35.7300   23.2330   39.6410 C   0  0  0  0  0  0  0  0  0  0  0  0
   36.4490   22.2020   39.1410 N   0  0  0  0  0  0  0  0  0  0  0  0
   38.3730   21.2020   39.3020 H   0  0  0  0  0  0  0  0  0  0  0  0
   39.2140   22.6890   41.0130 H   0  0  0  0  0  0  0  0  0  0  0  0
   34.7320   23.3630   39.2250 H   0  0  0  0  0  0  0  0  0  0  0  0
   36.4500   28.6630   42.0350 O   0  0  0  0  0  0  0  0  0  0  0  0
   36.1250   31.1340   41.0890 O   0  0  0  0  0  0  0  0  0  0  0  0
   36.1050   29.6530   40.7170 P   0  0  2  0  0  0  0  0  0  0  0  0
   34.4730   29.3140   40.3080 O   0  0  0  0  0  0  0  0  0  0  0  0
   34.4400   28.6670   39.5590 H   0  0  0  0  0  0  0  0  0  0  0  0
   37.0480   29.3170   39.3800 O   0  0  0  0  0  0  0  0  0  0  0  0
   37.4920   30.5090   38.8430 C   0  0  0  0  0  0  0  0  0  0  0  0
   37.0590   31.3500   39.4530 H   0  0  0  0  0  0  0  0  0  0  0  0
   37.2650   30.6810   37.7950 H   0  0  0  0  0  0  0  0  0  0  0  0
   40.5920   32.0270   38.1480 C   0  0  2  0  0  3  0  0  0  0  0  0
   39.7680   30.8100   37.8460 C   0  0  0  0  0  3  0  0  0  0  0  0
   39.1370   30.8940   36.9400 H   0  0  0  0  0  0  0  0  0  0  0  0
   39.0000   30.5940   39.1200 C   0  0  1  0  0  3  0  0  0  0  0  0
   39.2950   31.6170   39.9800 O   0  0  0  0  0  0  0  0  0  0  0  0
   39.7730   32.6860   39.2390 C   0  0  0  0  0  3  0  0  0  0  0  0
   40.4000   33.3470   39.8840 H   0  0  0  0  0  0  0  0  0  0  0  0
   40.6480   32.8220   37.0050 O   0  0  0  0  0  0  0  0  0  0  0  0
   39.7750   32.7050   36.5160 H   0  0  0  0  0  0  0  0  0  0  0  0
  1  2  1  0  0  0  0
  2  8  1  0  0  0  0
  3  2  1  0  0  0  0
  3  9  1  0  0  0  0
  4  5  1  0  0  0  0
  4  3  1  0  0  0  0
  4 12  1  0  0  0  0
  5 13  1  0  0  0  0
  6 15  1  6  0  0  0
  6 31  1  0  0  0  0
  6  1  1  0  0  0  0
  6  5  1  0  0  0  0
  7  2  1  0  0  0  0
 10  3  1  0  0  0  0
 11  4  1  0  0  0  0
 14  5  1  0  0  0  0
 16  1  1  0  0  0  0
 16 18  1  0  0  0  0
 17 16  1  0  0  0  0
 19 16  1  0  0  0  0
 19 21  1  0  0  0  0
 20 19  1  0  0  0  0
 22 23  1  0  0  0  0
 23 29  1  0  0  0  0
 23 24  2  0  0  0  0
 24 19  1  0  0  0  0
 25 24  1  0  0  0  0
 26 25  2  0  0  0  0
 27 22  2  0  0  0  0
 27 26  1  0  0  0  0
 28 22  1  0  0  0  0
 30 26  1  0  0  0  0
 33 32  2  1  0  0  0
 33 31  1  0  0  0  0
 34 33  1  0  0  0  0
 35 34  1  0  0  0  0
 36 33  1  0  0  0  0
 37 36  1  0  0  0  0
 37 38  1  0  0  0  0
 39 37  1  0  0  0  0
 40 47  1  6  0  0  0
 40 45  1  0  0  0  0
 41 40  1  0  0  0  0
 41 43  1  0  0  0  0
 42 41  1  0  0  0  0
 43 37  1  6  0  0  0
 43 44  1  0  0  0  0
 45 46  1  0  0  0  0
 45 44  1  0  0  0  0
 48 47  1  0  0  0  0
M  END
>  <minimizedAffinity>
-5.50091028

$$$$

 OpenBabel03252509063D

 48 50  0  0  1  0  0  0  0  0999 V2000
   37.2190   28.7900   42.2100 N   0  0  0  0  0  0  0  0  0  0  0  0
   36.4390   27.6310   42.4210 C   0  0  0  0  0  0  0  0  0  0  0  0
   37.2330   26.3340   42.3880 C   0  0  0  0  0  0  0  0  0  0  0  0
   38.6240   26.4600   42.9620 C   0  0  0  0  0  0  0  0  0  0  0  0
   38.8800   27.8490   43.5150 C   0  0  0  0  0  0  0  0  0  0  0  0
   38.5900   28.7860   42.2720 C   0  0  2  0  0  0  0  0  0  0  0  0
   35.5960   27.4860   41.7390 H   0  0  0  0  0  0  0  0  0  0  0  0
   35.9960   27.7000   43.4380 H   0  0  0  0  0  0  0  0  0  0  0  0
   36.6230   25.5630   42.9020 H   0  0  0  0  0  0  0  0  0  0  0  0
   37.2920   26.0260   41.3170 H   0  0  0  0  0  0  0  0  0  0  0  0
   39.3870   26.2540   42.1940 H   0  0  0  0  0  0  0  0  0  0  0  0
   38.7930   25.7430   43.7880 H   0  0  0  0  0  0  0  0  0  0  0  0
   38.2040   28.1290   44.3210 H   0  0  0  0  0  0  0  0  0  0  0  0
   39.9560   27.9190   43.7340 H   0  0  0  0  0  0  0  0  0  0  0  0
   39.1470   28.3590   41.4150 H   0  0  0  0  0  0  0  0  0  0  0  0
   36.5670   29.8050   41.4200 C   0  0  0  0  0  0  0  0  0  0  0  0
   37.3130   30.1140   40.6300 H   0  0  0  0  0  0  0  0  0  0  0  0
   36.2890   30.6750   42.0240 H   0  0  0  0  0  0  0  0  0  0  0  0
   35.4270   29.1750   40.7080 C   0  0  0  0  0  0  0  0  0  0  0  0
   35.2110   28.1250   41.0010 H   0  0  0  0  0  0  0  0  0  0  0  0
   34.4600   29.7180   40.8990 H   0  0  0  0  0  0  0  0  0  0  0  0
   35.0970   28.5050   37.0300 C   0  0  0  0  0  0  0  0  0  0  0  0
   34.9160   28.4370   38.4270 C   0  0  0  0  0  0  0  0  0  0  0  0
   35.6370   29.2680   39.2440 C   0  0  0  0  0  0  0  0  0  0  0  0
   36.4830   30.1090   38.6600 N   0  0  0  0  0  0  0  0  0  0  0  0
   36.6660   30.1860   37.3400 C   0  0  0  0  0  0  0  0  0  0  0  0
   35.9730   29.3820   36.5020 N   0  0  0  0  0  0  0  0  0  0  0  0
   34.4780   27.8040   36.4660 H   0  0  0  0  0  0  0  0  0  0  0  0
   34.2170   27.7400   38.8690 H   0  0  0  0  0  0  0  0  0  0  0  0
   37.3630   30.8780   36.8690 H   0  0  0  0  0  0  0  0  0  0  0  0
   39.1280   29.9790   42.7230 O   0  0  0  0  0  0  0  0  0  0  0  0
   41.6020   29.4100   41.9110 O   0  0  0  0  0  0  0  0  0  0  0  0
   40.4820   30.4450   41.8380 P   0  0  2  0  0  0  0  0  0  0  0  0
   41.0970   31.8310   42.6430 O   0  0  0  0  0  0  0  0  0  0  0  0
   40.7820   32.6520   42.1880 H   0  0  0  0  0  0  0  0  0  0  0  0
   40.1200   30.8850   40.2670 O   0  0  0  0  0  0  0  0  0  0  0  0
   41.0390   31.8260   39.8500 C   0  0  0  0  0  0  0  0  0  0  0  0
   41.5380   31.4410   38.9180 H   0  0  0  0  0  0  0  0  0  0  0  0
   41.8040   32.1050   40.5690 H   0  0  0  0  0  0  0  0  0  0  0  0
   38.0010   33.6080   39.8020 C   0  0  2  0  0  3  0  0  0  0  0  0
   38.8390   32.6590   38.9950 C   0  0  0  0  0  3  0  0  0  0  0  0
   38.6030   31.5880   39.1530 H   0  0  0  0  0  0  0  0  0  0  0  0
   40.2440   33.0460   39.3630 C   0  0  1  0  0  3  0  0  0  0  0  0
   40.1850   34.0220   40.3210 O   0  0  0  0  0  0  0  0  0  0  0  0
   38.9440   33.9560   40.9350 C   0  0  0  0  0  3  0  0  0  0  0  0
   38.6930   34.9430   41.3930 H   0  0  0  0  0  0  0  0  0  0  0  0
   36.8780   32.9270   40.2670 O   0  0  0  0  0  0  0  0  0  0  0  0
   37.1520   31.9710   40.4240 H   0  0  0  0  0  0  0  0  0  0  0  0
  1  6  1  0  0  0  0
  1  2  1  0  0  0  0
  2  8  1  0  0  0  0
  3  2  1  0  0  0  0
  3  9  1  0  0  0  0
  3  4  1  0  0  0  0
  4  5  1  0  0  0  0
  4 12  1  0  0  0  0
  5 14  1  0  0  0  0
  5 13  1  0  0  0  0
  6 15  1  6  0  0  0
  6 31  1  0  0  0  0
  6  5  1  0  0  0  0
  7  2  1  0  0  0  0
 10  3  1  0  0  0  0
 11  4  1  0  0  0  0
 16 18  1  0  0  0  0
 16  1  1  0  0  0  0
 17 16  1  0  0  0  0
 19 21  1  0  0  0  0
 19 20  1  0  0  0  0
 19 16  1  0  0  0  0
 22 23  1  0  0  0  0
 23 29  1  0  0  0  0
 23 24  2  0  0  0  0
 24 19  1  0  0  0  0
 25 24  1  0  0  0  0
 26 25  2  0  0  0  0
 27 22  2  0  0  0  0
 27 26  1  0  0  0  0
 28 22  1  0  0  0  0
 30 26  1  0  0  0  0
 33 32  2  1  0  0  0
 33 34  1  0  0  0  0
 33 31  1  0  0  0  0
 35 34  1  0  0  0  0
 36 33  1  0  0  0  0
 37 36  1  0  0  0  0
 37 39  1  0  0  0  0
 38 37  1  0  0  0  0
 40 47  1  1  0  0  0
 40 45  1  0  0  0  0
 41 42  1  0  0  0  0
 41 43  1  0  0  0  0
 41 40  1  0  0  0  0
 43 37  1  1  0  0  0
 43 44  1  0  0  0  0
 44 45  1  0  0  0  0
 45 46  1  0  0  0  0
 47 48  1  0  0  0  0
M  END
>  <minimizedAffinity>
-5.44862366

$$$$

 OpenBabel03252509063D

 48 50  0  0  1  0  0  0  0  0999 V2000
   35.9820   29.5300   38.7440 N   0  0  0  0  0  0  0  0  0  0  0  0
   34.9170   28.7240   38.2850 C   0  0  0  0  0  0  0  0  0  0  0  0
   34.5700   28.9290   36.8180 C   0  0  0  0  0  0  0  0  0  0  0  0
   35.7690   29.2170   35.9460 C   0  0  0  0  0  0  0  0  0  0  0  0
   37.0640   29.1570   36.7340 C   0  0  0  0  0  0  0  0  0  0  0  0
   36.8230   30.2060   37.8950 C   0  0  2  0  0  0  0  0  0  0  0  0
   33.9740   28.8120   38.8320 H   0  0  0  0  0  0  0  0  0  0  0  0
   35.2260   27.6620   38.3860 H   0  0  0  0  0  0  0  0  0  0  0  0
   34.0010   28.0360   36.4880 H   0  0  0  0  0  0  0  0  0  0  0  0
   33.8580   29.7880   36.7780 H   0  0  0  0  0  0  0  0  0  0  0  0
   35.6940   30.2180   35.4910 H   0  0  0  0  0  0  0  0  0  0  0  0
   35.8560   28.4890   35.1170 H   0  0  0  0  0  0  0  0  0  0  0  0
   37.2560   28.1840   37.1840 H   0  0  0  0  0  0  0  0  0  0  0  0
   37.8580   29.5610   36.0870 H   0  0  0  0  0  0  0  0  0  0  0  0
   36.4440   31.1290   37.4160 H   0  0  0  0  0  0  0  0  0  0  0  0
   35.8120   30.0280   40.0860 C   0  0  0  0  0  0  0  0  0  0  0  0
   34.8780   30.6630   40.0690 H   0  0  0  0  0  0  0  0  0  0  0  0
   36.6640   30.6360   40.4070 H   0  0  0  0  0  0  0  0  0  0  0  0
   35.5270   28.8730   40.9740 C   0  0  0  0  0  0  0  0  0  0  0  0
   34.6320   28.9870   41.6230 H   0  0  0  0  0  0  0  0  0  0  0  0
   35.3250   27.9330   40.3900 H   0  0  0  0  0  0  0  0  0  0  0  0
   38.0790   26.9430   42.9350 C   0  0  0  0  0  0  0  0  0  0  0  0
   36.9510   27.2620   42.1530 C   0  0  0  0  0  0  0  0  0  0  0  0
   36.7210   28.5650   41.7960 C   0  0  0  0  0  0  0  0  0  0  0  0
   37.5950   29.4730   42.2160 N   0  0  0  0  0  0  0  0  0  0  0  0
   38.6690   29.1870   42.9550 C   0  0  0  0  0  0  0  0  0  0  0  0
   38.9290   27.9130   43.3280 N   0  0  0  0  0  0  0  0  0  0  0  0
   38.1750   25.8800   43.1660 H   0  0  0  0  0  0  0  0  0  0  0  0
   36.2580   26.4970   41.8280 H   0  0  0  0  0  0  0  0  0  0  0  0
   39.3810   29.9370   43.2960 H   0  0  0  0  0  0  0  0  0  0  0  0
   38.1110   30.3430   38.3830 O   0  0  0  0  0  0  0  0  0  0  0  0
   37.5730   32.9080   38.8710 O   0  0  0  0  0  0  0  0  0  0  0  0
   38.6390   31.9420   38.3570 P   0  0  2  0  0  0  0  0  0  0  0  0
   38.8340   32.3300   36.6960 O   0  0  0  0  0  0  0  0  0  0  0  0
   39.7850   32.2360   36.4380 H   0  0  0  0  0  0  0  0  0  0  0  0
   40.1140   32.1590   39.1110 O   0  0  0  0  0  0  0  0  0  0  0  0
   40.9590   32.8200   38.2430 C   0  0  0  0  0  0  0  0  0  0  0  0
   40.3360   33.2600   37.4150 H   0  0  0  0  0  0  0  0  0  0  0  0
   41.7590   32.2310   37.8040 H   0  0  0  0  0  0  0  0  0  0  0  0
   42.4480   34.1610   41.1390 C   0  0  2  0  0  3  0  0  0  0  0  0
   41.1270   34.0000   40.4440 C   0  0  0  0  0  3  0  0  0  0  0  0
   40.5580   33.0960   40.7410 H   0  0  0  0  0  0  0  0  0  0  0  0
   41.4990   34.0490   38.9880 C   0  0  1  0  0  3  0  0  0  0  0  0
   42.8620   34.1340   38.8950 O   0  0  0  0  0  0  0  0  0  0  0  0
   43.4110   33.6670   40.0790 C   0  0  0  0  0  3  0  0  0  0  0  0
   44.4330   34.0940   40.2180 H   0  0  0  0  0  0  0  0  0  0  0  0
   42.4640   33.3380   42.2620 O   0  0  0  0  0  0  0  0  0  0  0  0
   41.9140   32.5230   42.0440 H   0  0  0  0  0  0  0  0  0  0  0  0
  1 16  1  0  0  0  0
  2  8  1  0  0  0  0
  2  1  1  0  0  0  0
  2  7  1  0  0  0  0
  3  2  1  0  0  0  0
  4  5  1  0  0  0  0
  4  3  1  0  0  0  0
  5 13  1  0  0  0  0
  5  6  1  0  0  0  0
  6 15  1  6  0  0  0
  6 31  1  0  0  0  0
  6  1  1  0  0  0  0
  9  3  1  0  0  0  0
 10  3  1  0  0  0  0
 11  4  1  0  0  0  0
 12  4  1  0  0  0  0
 14  5  1  0  0  0  0
 16 18  1  0  0  0  0
 16 19  1  0  0  0  0
 17 16  1  0  0  0  0
 19 20  1  0  0  0  0
 19 24  1  0  0  0  0
 21 19  1  0  0  0  0
 22 28  1  0  0  0  0
 22 27  1  0  0  0  0
 23 22  2  0  0  0  0
 24 23  1  0  0  0  0
 24 25  2  0  0  0  0
 25 26  1  0  0  0  0
 26 30  1  0  0  0  0
 26 27  2  0  0  0  0
 29 23  1  0  0  0  0
 33 31  1  0  0  0  0
 33 32  2  1  0  0  0
 33 36  1  0  0  0  0
 34 33  1  0  0  0  0
 35 34  1  0  0  0  0
 37 36  1  0  0  0  0
 38 37  1  0  0  0  0
 39 37  1  0  0  0  0
 40 47  1  1  0  0  0
 41 42  1  0  0  0  0
 41 40  1  0  0  0  0
 43 37  1  6  0  0  0
 43 41  1  0  0  0  0
 44 43  1  0  0  0  0
 44 45  1  0  0  0  0
 45 46  1  0  0  0  0
 45 40  1  0  0  0  0
 48 47  1  0  0  0  0
M  END
>  <minimizedAffinity>
-5.43002367

$$$$

 OpenBabel03252509063D

 48 50  0  0  1  0  0  0  0  0999 V2000
   38.0490   28.6340   42.5050 N   0  0  0  0  0  0  0  0  0  0  0  0
   38.9880   27.9160   43.2790 C   0  0  0  0  0  0  0  0  0  0  0  0
   40.4380   28.2180   42.9340 C   0  0  0  0  0  0  0  0  0  0  0  0
   40.6810   29.6550   42.5390 C   0  0  0  0  0  0  0  0  0  0  0  0
   39.4200   30.4910   42.6570 C   0  0  0  0  0  0  0  0  0  0  0  0
   38.3930   29.7160   41.7340 C   0  0  2  0  0  0  0  0  0  0  0  0
   38.8950   26.8270   43.2620 H   0  0  0  0  0  0  0  0  0  0  0  0
   38.8520   28.2140   44.3410 H   0  0  0  0  0  0  0  0  0  0  0  0
   41.0550   27.8980   43.7990 H   0  0  0  0  0  0  0  0  0  0  0  0
   40.7090   27.5420   42.0880 H   0  0  0  0  0  0  0  0  0  0  0  0
   41.0390   29.7230   41.4990 H   0  0  0  0  0  0  0  0  0  0  0  0
   41.4500   30.1310   43.1780 H   0  0  0  0  0  0  0  0  0  0  0  0
   39.0140   30.5290   43.6660 H   0  0  0  0  0  0  0  0  0  0  0  0
   39.6260   31.4600   42.1760 H   0  0  0  0  0  0  0  0  0  0  0  0
   38.9100   29.5250   40.7730 H   0  0  0  0  0  0  0  0  0  0  0  0
   36.8750   27.8780   42.1480 C   0  0  0  0  0  0  0  0  0  0  0  0
   36.8850   27.7970   41.0220 H   0  0  0  0  0  0  0  0  0  0  0  0
   35.9550   28.3760   42.4740 H   0  0  0  0  0  0  0  0  0  0  0  0
   37.0350   26.5000   42.6770 C   0  0  0  0  0  0  0  0  0  0  0  0
   37.9100   26.3510   43.3450 H   0  0  0  0  0  0  0  0  0  0  0  0
   36.1550   26.1850   43.3020 H   0  0  0  0  0  0  0  0  0  0  0  0
   36.9000   25.1020   39.1970 C   0  0  0  0  0  0  0  0  0  0  0  0
   36.8680   26.0000   40.2830 C   0  0  0  0  0  0  0  0  0  0  0  0
   37.0750   25.5340   41.5550 C   0  0  0  0  0  0  0  0  0  0  0  0
   37.3000   24.2320   41.6940 N   0  0  0  0  0  0  0  0  0  0  0  0
   37.3340   23.3680   40.6770 C   0  0  0  0  0  0  0  0  0  0  0  0
   37.1350   23.7910   39.4080 N   0  0  0  0  0  0  0  0  0  0  0  0
   36.7240   25.5690   38.2260 H   0  0  0  0  0  0  0  0  0  0  0  0
   36.6820   27.0550   40.1330 H   0  0  0  0  0  0  0  0  0  0  0  0
   37.5190   22.3020   40.8000 H   0  0  0  0  0  0  0  0  0  0  0  0
   37.3880   30.6620   41.6250 O   0  0  0  0  0  0  0  0  0  0  0  0
   38.7000   31.4010   39.4250 O   0  0  0  0  0  0  0  0  0  0  0  0
   37.3280   31.3570   40.0930 P   0  0  2  0  0  0  0  0  0  0  0  0
   36.9030   33.0000   40.3550 O   0  0  0  0  0  0  0  0  0  0  0  0
   35.9310   33.1230   40.2150 H   0  0  0  0  0  0  0  0  0  0  0  0
   36.1600   30.6780   39.1090 O   0  0  0  0  0  0  0  0  0  0  0  0
   36.7800   30.1250   38.0070 C   0  0  0  0  0  0  0  0  0  0  0  0
   37.8270   29.8350   38.3020 H   0  0  0  0  0  0  0  0  0  0  0  0
   36.8260   30.7460   37.1170 H   0  0  0  0  0  0  0  0  0  0  0  0
   33.7900   28.3190   37.5630 C   0  0  2  0  0  3  0  0  0  0  0  0
   34.8570   28.6270   38.5730 C   0  0  0  0  0  3  0  0  0  0  0  0
   34.6370   29.4940   39.2260 H   0  0  0  0  0  0  0  0  0  0  0  0
   36.0910   28.7810   37.7290 C   0  0  1  0  0  3  0  0  0  0  0  0
   35.7310   28.6650   36.4130 O   0  0  0  0  0  0  0  0  0  0  0  0
   34.3750   28.9310   36.3070 C   0  0  0  0  0  3  0  0  0  0  0  0
   33.9640   28.4540   35.3850 H   0  0  0  0  0  0  0  0  0  0  0  0
   32.6160   28.9640   37.9440 O   0  0  0  0  0  0  0  0  0  0  0  0
   32.8810   29.8210   38.4020 H   0  0  0  0  0  0  0  0  0  0  0  0
  1  2  1  0  0  0  0
  2  8  1  0  0  0  0
  3  2  1  0  0  0  0
  3  9  1  0  0  0  0
  4  5  1  0  0  0  0
  4  3  1  0  0  0  0
  4 12  1  0  0  0  0
  5 13  1  0  0  0  0
  6 15  1  6  0  0  0
  6  1  1  0  0  0  0
  6  5  1  0  0  0  0
  7  2  1  0  0  0  0
 10  3  1  0  0  0  0
 11  4  1  0  0  0  0
 14  5  1  0  0  0  0
 16 18  1  0  0  0  0
 16  1  1  0  0  0  0
 16 19  1  0  0  0  0
 17 16  1  0  0  0  0
 19 21  1  0  0  0  0
 19 20  1  0  0  0  0
 22 27  2  0  0  0  0
 22 23  1  0  0  0  0
 23 24  2  0  0  0  0
 24 25  1  0  0  0  0
 24 19  1  0  0  0  0
 26 30  1  0  0  0  0
 26 25  2  0  0  0  0
 27 26  1  0  0  0  0
 28 22  1  0  0  0  0
 29 23  1  0  0  0  0
 31  6  1  0  0  0  0
 33 32  2  6  0  0  0
 33 34  1  0  0  0  0
 33 31  1  0  0  0  0
 35 34  1  0  0  0  0
 36 33  1  0  0  0  0
 37 38  1  0  0  0  0
 37 36  1  0  0  0  0
 39 37  1  0  0  0  0
 40 47  1  1  0  0  0
 40 41  1  0  0  0  0
 41 42  1  0  0  0  0
 43 37  1  6  0  0  0
 43 41  1  0  0  0  0
 44 43  1  0  0  0  0
 45 44  1  0  0  0  0
 45 40  1  0  0  0  0
 46 45  1  0  0  0  0
 47 48  1  0  0  0  0
M  END
>  <minimizedAffinity>
-5.29949713

$$$$

 OpenBabel03252509063D

 48 50  0  0  1  0  0  0  0  0999 V2000
   37.9060   27.4100   42.8530 N   0  0  0  0  0  0  0  0  0  0  0  0
   39.1000   27.0720   43.5280 C   0  0  0  0  0  0  0  0  0  0  0  0
   40.3310   27.8050   43.0160 C   0  0  0  0  0  0  0  0  0  0  0  0
   40.0540   29.2210   42.5730 C   0  0  0  0  0  0  0  0  0  0  0  0
   38.6080   29.6130   42.8180 C   0  0  0  0  0  0  0  0  0  0  0  0
   37.8000   28.5040   42.0300 C   0  0  2  0  0  0  0  0  0  0  0  0
   39.3640   26.0110   43.5400 H   0  0  0  0  0  0  0  0  0  0  0  0
   38.9840   27.3660   44.5930 H   0  0  0  0  0  0  0  0  0  0  0  0
   41.1020   27.7450   43.8110 H   0  0  0  0  0  0  0  0  0  0  0  0
   40.7190   27.2080   42.1560 H   0  0  0  0  0  0  0  0  0  0  0  0
   40.2620   29.3460   41.4980 H   0  0  0  0  0  0  0  0  0  0  0  0
   40.6870   29.9510   43.1130 H   0  0  0  0  0  0  0  0  0  0  0  0
   38.3170   29.5720   43.8660 H   0  0  0  0  0  0  0  0  0  0  0  0
   38.4390   30.5710   42.3020 H   0  0  0  0  0  0  0  0  0  0  0  0
   38.2510   28.4380   41.0210 H   0  0  0  0  0  0  0  0  0  0  0  0
   37.0100   26.3000   42.6440 C   0  0  0  0  0  0  0  0  0  0  0  0
   36.3420   26.5940   41.7820 H   0  0  0  0  0  0  0  0  0  0  0  0
   36.4000   26.0960   43.5300 H   0  0  0  0  0  0  0  0  0  0  0  0
   37.8140   25.1390   42.1840 C   0  0  0  0  0  0  0  0  0  0  0  0
   38.8740   25.1390   42.5170 H   0  0  0  0  0  0  0  0  0  0  0  0
   37.4040   24.1660   42.5690 H   0  0  0  0  0  0  0  0  0  0  0  0
   38.8540   24.7080   38.6040 C   0  0  0  0  0  0  0  0  0  0  0  0
   38.8970   24.8150   40.0090 C   0  0  0  0  0  0  0  0  0  0  0  0
   37.7390   25.0310   40.7080 C   0  0  0  0  0  0  0  0  0  0  0  0
   36.6150   25.1280   40.0050 N   0  0  0  0  0  0  0  0  0  0  0  0
   36.5560   25.0290   38.6760 C   0  0  0  0  0  0  0  0  0  0  0  0
   37.6790   24.8160   37.9510 N   0  0  0  0  0  0  0  0  0  0  0  0
   39.8270   24.5370   38.1390 H   0  0  0  0  0  0  0  0  0  0  0  0
   39.8310   24.7310   40.5490 H   0  0  0  0  0  0  0  0  0  0  0  0
   35.6310   25.1100   38.1070 H   0  0  0  0  0  0  0  0  0  0  0  0
   36.5370   29.0700   42.0200 O   0  0  0  0  0  0  0  0  0  0  0  0
   34.5190   29.1640   40.2810 O   0  0  0  0  0  0  0  0  0  0  0  0
   36.0110   29.4330   40.4620 P   0  0  2  0  0  0  0  0  0  0  0  0
   36.7990   28.3000   39.4400 O   0  0  0  0  0  0  0  0  0  0  0  0
   37.6020   28.7140   39.0350 H   0  0  0  0  0  0  0  0  0  0  0  0
   36.4500   30.9660   39.9610 O   0  0  0  0  0  0  0  0  0  0  0  0
   37.4020   30.8490   38.9690 C   0  0  0  0  0  0  0  0  0  0  0  0
   36.8890   30.5020   38.0300 H   0  0  0  0  0  0  0  0  0  0  0  0
   38.2380   30.1870   39.1770 H   0  0  0  0  0  0  0  0  0  0  0  0
   38.6910   33.9340   40.0760 C   0  0  2  0  0  3  0  0  0  0  0  0
   37.4170   33.2520   39.6700 C   0  0  0  0  0  3  0  0  0  0  0  0
   36.8490   32.8000   40.5070 H   0  0  0  0  0  0  0  0  0  0  0  0
   37.8730   32.2700   38.6270 C   0  0  1  0  0  3  0  0  0  0  0  0
   39.2370   32.3390   38.5370 O   0  0  0  0  0  0  0  0  0  0  0  0
   39.7240   32.8870   39.7130 C   0  0  0  0  0  3  0  0  0  0  0  0
   40.7280   33.3430   39.5330 H   0  0  0  0  0  0  0  0  0  0  0  0
   38.6570   34.1600   41.4500 O   0  0  0  0  0  0  0  0  0  0  0  0
   38.1380   33.4040   41.8650 H   0  0  0  0  0  0  0  0  0  0  0  0
  1  2  1  0  0  0  0
  2  7  1  0  0  0  0
  2  8  1  0  0  0  0
  3  2  1  0  0  0  0
  3  9  1  0  0  0  0
  4  5  1  0  0  0  0
  4  3  1  0  0  0  0
  4 12  1  0  0  0  0
  5 13  1  0  0  0  0
  6 15  1  6  0  0  0
  6  5  1  0  0  0  0
  6  1  1  0  0  0  0
 10  3  1  0  0  0  0
 11  4  1  0  0  0  0
 14  5  1  0  0  0  0
 16  1  1  0  0  0  0
 16 18  1  0  0  0  0
 17 16  1  0  0  0  0
 19 20  1  0  0  0  0
 19 21  1  0  0  0  0
 19 16  1  0  0  0  0
 22 23  1  0  0  0  0
 23 29  1  0  0  0  0
 23 24  2  0  0  0  0
 24 19  1  0  0  0  0
 25 24  1  0  0  0  0
 26 25  2  0  0  0  0
 27 22  2  0  0  0  0
 27 26  1  0  0  0  0
 28 22  1  0  0  0  0
 30 26  1  0  0  0  0
 31  6  1  0  0  0  0
 33 32  2  6  0  0  0
 33 31  1  0  0  0  0
 34 33  1  0  0  0  0
 35 34  1  0  0  0  0
 36 33  1  0  0  0  0
 37 39  1  0  0  0  0
 37 36  1  0  0  0  0
 38 37  1  0  0  0  0
 40 47  1  1  0  0  0
 41 40  1  0  0  0  0
 41 42  1  0  0  0  0
 43 37  1  1  0  0  0
 43 41  1  0  0  0  0
 44 43  1  0  0  0  0
 44 45  1  0  0  0  0
 45 40  1  0  0  0  0
 46 45  1  0  0  0  0
 47 48  1  0  0  0  0
M  END
>  <minimizedAffinity>
-5.26701212

$$$$

 OpenBabel03252509063D

 48 50  0  0  1  0  0  0  0  0999 V2000
   38.6480   31.8010   40.1760 N   0  0  0  0  0  0  0  0  0  0  0  0
   39.0180   32.4870   38.9980 C   0  0  0  0  0  0  0  0  0  0  0  0
   38.8570   31.6670   37.7270 C   0  0  0  0  0  0  0  0  0  0  0  0
   37.6700   30.7340   37.7520 C   0  0  0  0  0  0  0  0  0  0  0  0
   36.8610   30.8910   39.0260 C   0  0  0  0  0  0  0  0  0  0  0  0
   37.9310   30.6310   40.1630 C   0  0  2  0  0  0  0  0  0  0  0  0
   40.0350   32.8870   38.9720 H   0  0  0  0  0  0  0  0  0  0  0  0
   38.3460   33.3650   38.8900 H   0  0  0  0  0  0  0  0  0  0  0  0
   38.8260   32.3820   36.8780 H   0  0  0  0  0  0  0  0  0  0  0  0
   39.7990   31.0790   37.6080 H   0  0  0  0  0  0  0  0  0  0  0  0
   37.9940   29.6830   37.6820 H   0  0  0  0  0  0  0  0  0  0  0  0
   36.9840   30.9200   36.9040 H   0  0  0  0  0  0  0  0  0  0  0  0
   36.4500   31.8900   39.1620 H   0  0  0  0  0  0  0  0  0  0  0  0
   36.1400   30.0590   39.0580 H   0  0  0  0  0  0  0  0  0  0  0  0
   38.4640   29.6990   39.8900 H   0  0  0  0  0  0  0  0  0  0  0  0
   39.4920   32.0800   41.3120 C   0  0  0  0  0  0  0  0  0  0  0  0
   38.9410   31.6860   42.2160 H   0  0  0  0  0  0  0  0  0  0  0  0
   39.6740   33.1530   41.4310 H   0  0  0  0  0  0  0  0  0  0  0  0
   40.7280   31.2680   41.1790 C   0  0  0  0  0  0  0  0  0  0  0  0
   40.7030   30.2850   41.6950 H   0  0  0  0  0  0  0  0  0  0  0  0
   40.9490   31.0110   40.1070 H   0  0  0  0  0  0  0  0  0  0  0  0
   43.1940   34.0780   41.5170 C   0  0  0  0  0  0  0  0  0  0  0  0
   42.0900   33.3060   41.1020 C   0  0  0  0  0  0  0  0  0  0  0  0
   41.8970   32.0580   41.6340 C   0  0  0  0  0  0  0  0  0  0  0  0
   42.7810   31.6380   42.5320 N   0  0  0  0  0  0  0  0  0  0  0  0
   43.8310   32.3550   42.9360 C   0  0  0  0  0  0  0  0  0  0  0  0
   44.0550   33.5910   42.4330 N   0  0  0  0  0  0  0  0  0  0  0  0
   43.2600   35.0550   41.0360 H   0  0  0  0  0  0  0  0  0  0  0  0
   41.3880   33.6800   40.3680 H   0  0  0  0  0  0  0  0  0  0  0  0
   44.5520   32.0030   43.6720 H   0  0  0  0  0  0  0  0  0  0  0  0
   37.1020   30.4750   41.2600 O   0  0  0  0  0  0  0  0  0  0  0  0
   36.1460   28.0130   41.6240 O   0  0  0  0  0  0  0  0  0  0  0  0
   37.2820   28.9680   41.9890 P   0  0  2  0  0  0  0  0  0  0  0  0
   37.1070   29.2520   43.6730 O   0  0  0  0  0  0  0  0  0  0  0  0
   37.9980   29.3250   44.0970 H   0  0  0  0  0  0  0  0  0  0  0  0
   38.7890   28.2920   41.7380 O   0  0  0  0  0  0  0  0  0  0  0  0
   38.7810   27.0020   42.2270 C   0  0  0  0  0  0  0  0  0  0  0  0
   39.2770   26.3360   41.4680 H   0  0  0  0  0  0  0  0  0  0  0  0
   37.8080   26.5860   42.4760 H   0  0  0  0  0  0  0  0  0  0  0  0
   41.7620   25.7910   43.6570 C   0  0  2  0  0  3  0  0  0  0  0  0
   40.2760   25.5820   43.6460 C   0  0  0  0  0  3  0  0  0  0  0  0
   39.9220   24.8320   42.9110 H   0  0  0  0  0  0  0  0  0  0  0  0
   39.7380   26.9690   43.4270 C   0  0  1  0  0  3  0  0  0  0  0  0
   40.7970   27.8180   43.2480 O   0  0  0  0  0  0  0  0  0  0  0  0
   41.8950   27.0700   42.8560 C   0  0  0  0  0  3  0  0  0  0  0  0
   42.8370   27.6170   43.1040 H   0  0  0  0  0  0  0  0  0  0  0  0
   42.3680   24.7190   43.0060 O   0  0  0  0  0  0  0  0  0  0  0  0
   41.7380   24.4120   42.2830 H   0  0  0  0  0  0  0  0  0  0  0  0
  1 16  1  0  0  0  0
  2  1  1  0  0  0  0
  3  4  1  0  0  0  0
  3  2  1  0  0  0  0
  4  5  1  0  0  0  0
  5 14  1  0  0  0  0
  5 13  1  0  0  0  0
  5  6  1  0  0  0  0
  6 15  1  6  0  0  0
  6  1  1  0  0  0  0
  6 31  1  0  0  0  0
  7  2  1  0  0  0  0
  8  2  1  0  0  0  0
  9  3  1  0  0  0  0
 10  3  1  0  0  0  0
 11  4  1  0  0  0  0
 12  4  1  0  0  0  0
 16 18  1  0  0  0  0
 16 17  1  0  0  0  0
 19 16  1  0  0  0  0
 19 24  1  0  0  0  0
 19 20  1  0  0  0  0
 21 19  1  0  0  0  0
 22 27  1  0  0  0  0
 23 22  2  0  0  0  0
 23 24  1  0  0  0  0
 24 25  2  0  0  0  0
 25 26  1  0  0  0  0
 26 30  1  0  0  0  0
 27 26  2  0  0  0  0
 28 22  1  0  0  0  0
 29 23  1  0  0  0  0
 31 33  1  0  0  0  0
 33 32  2  6  0  0  0
 33 34  1  0  0  0  0
 34 35  1  0  0  0  0
 36 33  1  0  0  0  0
 36 37  1  0  0  0  0
 37 39  1  0  0  0  0
 38 37  1  0  0  0  0
 40 47  1  6  0  0  0
 41 40  1  0  0  0  0
 42 41  1  0  0  0  0
 43 37  1  6  0  0  0
 43 41  1  0  0  0  0
 44 43  1  0  0  0  0
 45 46  1  0  0  0  0
 45 44  1  0  0  0  0
 45 40  1  0  0  0  0
 48 47  1  0  0  0  0
M  END
>  <minimizedAffinity>
-5.24286652

$$$$

 OpenBabel03252509063D

 48 50  0  0  1  0  0  0  0  0999 V2000
   37.6560   30.4950   41.6720 N   0  0  0  0  0  0  0  0  0  0  0  0
   37.3230   29.2570   42.2670 C   0  0  0  0  0  0  0  0  0  0  0  0
   38.4300   28.2170   42.1990 C   0  0  0  0  0  0  0  0  0  0  0  0
   39.8180   28.7990   42.3240 C   0  0  0  0  0  0  0  0  0  0  0  0
   39.7790   30.2960   42.5690 C   0  0  0  0  0  0  0  0  0  0  0  0
   38.9430   30.8360   41.3380 C   0  0  2  0  0  0  0  0  0  0  0  0
   36.4230   28.7660   41.8860 H   0  0  0  0  0  0  0  0  0  0  0  0
   37.1320   29.4400   43.3470 H   0  0  0  0  0  0  0  0  0  0  0  0
   38.2110   27.4540   42.9750 H   0  0  0  0  0  0  0  0  0  0  0  0
   38.3210   27.7030   41.2140 H   0  0  0  0  0  0  0  0  0  0  0  0
   40.4040   28.6190   41.4080 H   0  0  0  0  0  0  0  0  0  0  0  0
   40.3780   28.3450   43.1630 H   0  0  0  0  0  0  0  0  0  0  0  0
   39.2610   30.5750   43.4850 H   0  0  0  0  0  0  0  0  0  0  0  0
   40.8080   30.6700   42.4560 H   0  0  0  0  0  0  0  0  0  0  0  0
   39.3810   30.3780   40.4300 H   0  0  0  0  0  0  0  0  0  0  0  0
   36.5700   31.1220   40.9620 C   0  0  0  0  0  0  0  0  0  0  0  0
   37.0430   31.7190   40.1280 H   0  0  0  0  0  0  0  0  0  0  0  0
   35.9900   31.7880   41.6100 H   0  0  0  0  0  0  0  0  0  0  0  0
   35.7620   30.0550   40.3180 C   0  0  0  0  0  0  0  0  0  0  0  0
   35.7930   29.0690   40.8290 H   0  0  0  0  0  0  0  0  0  0  0  0
   34.6690   30.3160   40.2880 H   0  0  0  0  0  0  0  0  0  0  0  0
   36.1350   28.6280   36.8670 C   0  0  0  0  0  0  0  0  0  0  0  0
   35.7670   28.7890   38.2190 C   0  0  0  0  0  0  0  0  0  0  0  0
   36.1620   29.9120   38.8990 C   0  0  0  0  0  0  0  0  0  0  0  0
   36.8830   30.8040   38.2290 N   0  0  0  0  0  0  0  0  0  0  0  0
   37.2390   30.6670   36.9500 C   0  0  0  0  0  0  0  0  0  0  0  0
   36.8690   29.5730   36.2460 N   0  0  0  0  0  0  0  0  0  0  0  0
   35.7730   27.7020   36.4140 H   0  0  0  0  0  0  0  0  0  0  0  0
   35.1780   28.0420   38.7330 H   0  0  0  0  0  0  0  0  0  0  0  0
   37.8310   31.4030   36.4090 H   0  0  0  0  0  0  0  0  0  0  0  0
   39.1990   32.1930   41.4330 O   0  0  0  0  0  0  0  0  0  0  0  0
   40.7060   34.1270   40.3880 O   0  0  0  0  0  0  0  0  0  0  0  0
   40.0480   32.7790   40.1030 P   0  0  2  0  0  0  0  0  0  0  0  0
   38.8570   33.1040   38.9100 O   0  0  0  0  0  0  0  0  0  0  0  0
   38.8030   32.3480   38.2730 H   0  0  0  0  0  0  0  0  0  0  0  0
   41.1200   31.6670   39.4660 O   0  0  0  0  0  0  0  0  0  0  0  0
   42.2950   31.7250   40.1870 C   0  0  0  0  0  0  0  0  0  0  0  0
   42.4970   30.7020   40.6110 H   0  0  0  0  0  0  0  0  0  0  0  0
   42.3320   32.4520   40.9930 H   0  0  0  0  0  0  0  0  0  0  0  0
   43.5270   33.4270   37.3610 C   0  0  2  0  0  3  0  0  0  0  0  0
   42.8910   32.1380   37.7920 C   0  0  0  0  0  3  0  0  0  0  0  0
   41.7850   32.1260   37.7260 H   0  0  0  0  0  0  0  0  0  0  0  0
   43.4340   31.9350   39.1780 C   0  0  1  0  0  3  0  0  0  0  0  0
   44.1990   33.0230   39.5050 O   0  0  0  0  0  0  0  0  0  0  0  0
   43.8190   34.0820   38.6960 C   0  0  0  0  0  3  0  0  0  0  0  0
   44.6520   34.8220   38.6200 H   0  0  0  0  0  0  0  0  0  0  0  0
   42.5970   34.1610   36.6280 O   0  0  0  0  0  0  0  0  0  0  0  0
   41.6870   33.9540   37.0060 H   0  0  0  0  0  0  0  0  0  0  0  0
  1  2  1  0  0  0  0
  2  8  1  0  0  0  0
  3  2  1  0  0  0  0
  3  4  1  0  0  0  0
  3  9  1  0  0  0  0
  4  5  1  0  0  0  0
  4 12  1  0  0  0  0
  5 13  1  0  0  0  0
  6 15  1  6  0  0  0
  6 31  1  0  0  0  0
  6  1  1  0  0  0  0
  6  5  1  0  0  0  0
  7  2  1  0  0  0  0
 10  3  1  0  0  0  0
 11  4  1  0  0  0  0
 14  5  1  0  0  0  0
 16 18  1  0  0  0  0
 16  1  1  0  0  0  0
 17 16  1  0  0  0  0
 19 20  1  0  0  0  0
 19 16  1  0  0  0  0
 21 19  1  0  0  0  0
 22 23  1  0  0  0  0
 23 29  1  0  0  0  0
 23 24  2  0  0  0  0
 24 19  1  0  0  0  0
 25 24  1  0  0  0  0
 26 25  2  0  0  0  0
 27 22  2  0  0  0  0
 27 26  1  0  0  0  0
 28 22  1  0  0  0  0
 30 26  1  0  0  0  0
 33 32  2  1  0  0  0
 33 31  1  0  0  0  0
 34 33  1  0  0  0  0
 35 34  1  0  0  0  0
 36 33  1  0  0  0  0
 36 37  1  0  0  0  0
 37 38  1  0  0  0  0
 37 39  1  0  0  0  0
 40 47  1  6  0  0  0
 40 41  1  0  0  0  0
 40 45  1  0  0  0  0
 41 43  1  0  0  0  0
 42 41  1  0  0  0  0
 43 44  1  0  0  0  0
 43 37  1  1  0  0  0
 45 44  1  0  0  0  0
 46 45  1  0  0  0  0
 47 48  1  0  0  0  0
M  END
>  <minimizedAffinity>
-5.22633839

$$$$

 OpenBabel03252509063D

 48 50  0  0  1  0  0  0  0  0999 V2000
   37.6920   28.2660   42.6980 N   0  0  0  0  0  0  0  0  0  0  0  0
   36.9300   27.0770   42.7170 C   0  0  0  0  0  0  0  0  0  0  0  0
   37.6960   25.8420   42.2670 C   0  0  0  0  0  0  0  0  0  0  0  0
   39.1510   25.8490   42.6720 C   0  0  0  0  0  0  0  0  0  0  0  0
   39.4930   27.0660   43.5120 C   0  0  0  0  0  0  0  0  0  0  0  0
   39.0590   28.2730   42.5830 C   0  0  2  0  0  0  0  0  0  0  0  0
   36.0050   27.0870   42.1340 H   0  0  0  0  0  0  0  0  0  0  0  0
   36.6220   26.8860   43.7680 H   0  0  0  0  0  0  0  0  0  0  0  0
   37.1470   24.9580   42.6490 H   0  0  0  0  0  0  0  0  0  0  0  0
   37.6130   25.8060   41.1540 H   0  0  0  0  0  0  0  0  0  0  0  0
   39.8070   25.8510   41.7860 H   0  0  0  0  0  0  0  0  0  0  0  0
   39.4140   24.9550   43.2690 H   0  0  0  0  0  0  0  0  0  0  0  0
   38.9310   27.1280   44.4410 H   0  0  0  0  0  0  0  0  0  0  0  0
   40.5900   27.1000   43.6020 H   0  0  0  0  0  0  0  0  0  0  0  0
   39.4960   28.0790   41.5840 H   0  0  0  0  0  0  0  0  0  0  0  0
   36.9580   29.4310   42.2710 C   0  0  0  0  0  0  0  0  0  0  0  0
   37.7330   30.2120   42.0120 H   0  0  0  0  0  0  0  0  0  0  0  0
   36.3010   29.8120   43.0600 H   0  0  0  0  0  0  0  0  0  0  0  0
   36.2530   29.0950   41.0090 C   0  0  0  0  0  0  0  0  0  0  0  0
   36.4070   28.0570   40.6450 H   0  0  0  0  0  0  0  0  0  0  0  0
   35.1370   29.1870   41.1140 H   0  0  0  0  0  0  0  0  0  0  0  0
   37.1750   32.3220   39.3290 C   0  0  0  0  0  0  0  0  0  0  0  0
   36.8240   31.3750   40.3120 C   0  0  0  0  0  0  0  0  0  0  0  0
   36.6210   30.0690   39.9540 C   0  0  0  0  0  0  0  0  0  0  0  0
   36.7710   29.7620   38.6700 N   0  0  0  0  0  0  0  0  0  0  0  0
   37.1030   30.6450   37.7260 C   0  0  0  0  0  0  0  0  0  0  0  0
   37.3110   31.9440   38.0420 N   0  0  0  0  0  0  0  0  0  0  0  0
   37.3150   33.3340   39.7130 H   0  0  0  0  0  0  0  0  0  0  0  0
   36.7110   31.6600   41.3500 H   0  0  0  0  0  0  0  0  0  0  0  0
   37.2230   30.3850   36.6750 H   0  0  0  0  0  0  0  0  0  0  0  0
   39.6670   29.3290   43.2400 O   0  0  0  0  0  0  0  0  0  0  0  0
   41.9460   29.1870   41.8650 O   0  0  0  0  0  0  0  0  0  0  0  0
   40.8040   30.1130   42.2770 P   0  0  2  0  0  0  0  0  0  0  0  0
   41.5260   31.2920   43.2940 O   0  0  0  0  0  0  0  0  0  0  0  0
   41.1040   32.1740   43.1410 H   0  0  0  0  0  0  0  0  0  0  0  0
   40.1240   30.9080   40.9740 O   0  0  0  0  0  0  0  0  0  0  0  0
   40.8260   32.0760   40.7570 C   0  0  0  0  0  0  0  0  0  0  0  0
   41.5860   32.1870   41.5790 H   0  0  0  0  0  0  0  0  0  0  0  0
   40.2390   32.9890   40.6980 H   0  0  0  0  0  0  0  0  0  0  0  0
   41.0870   32.2370   37.2490 C   0  0  2  0  0  3  0  0  0  0  0  0
   40.8490   31.2830   38.3830 C   0  0  0  0  0  3  0  0  0  0  0  0
   39.7820   31.1280   38.6380 H   0  0  0  0  0  0  0  0  0  0  0  0
   41.6760   31.8640   39.4960 C   0  0  1  0  0  3  0  0  0  0  0  0
   42.2250   33.0380   39.0570 O   0  0  0  0  0  0  0  0  0  0  0  0
   41.4710   33.5010   37.9900 C   0  0  0  0  0  3  0  0  0  0  0  0
   42.0880   34.1810   37.3550 H   0  0  0  0  0  0  0  0  0  0  0  0
   39.8950   32.4020   36.5470 O   0  0  0  0  0  0  0  0  0  0  0  0
   39.1430   32.3230   37.2130 H   0  0  0  0  0  0  0  0  0  0  0  0
  1  2  1  0  0  0  0
  2  8  1  0  0  0  0
  3  9  1  0  0  0  0
  3  4  1  0  0  0  0
  3  2  1  0  0  0  0
  4 12  1  0  0  0  0
  4  5  1  0  0  0  0
  5 14  1  0  0  0  0
  5 13  1  0  0  0  0
  6 15  1  6  0  0  0
  6  1  1  0  0  0  0
  6 31  1  0  0  0  0
  6  5  1  0  0  0  0
  7  2  1  0  0  0  0
 10  3  1  0  0  0  0
 11  4  1  0  0  0  0
 16  1  1  0  0  0  0
 16 18  1  0  0  0  0
 17 16  1  0  0  0  0
 19 21  1  0  0  0  0
 19 16  1  0  0  0  0
 20 19  1  0  0  0  0
 22 28  1  0  0  0  0
 22 23  1  0  0  0  0
 23 29  1  0  0  0  0
 24 23  2  0  0  0  0
 24 19  1  0  0  0  0
 25 24  1  0  0  0  0
 26 27  1  0  0  0  0
 26 25  2  0  0  0  0
 27 22  2  0  0  0  0
 30 26  1  0  0  0  0
 33 32  2  6  0  0  0
 33 31  1  0  0  0  0
 33 34  1  0  0  0  0
 35 34  1  0  0  0  0
 36 33  1  0  0  0  0
 37 36  1  0  0  0  0
 37 38  1  0  0  0  0
 39 37  1  0  0  0  0
 40 47  1  1  0  0  0
 40 45  1  0  0  0  0
 40 41  1  0  0  0  0
 41 42  1  0  0  0  0
 41 43  1  0  0  0  0
 43 37  1  1  0  0  0
 44 43  1  0  0  0  0
 45 44  1  0  0  0  0
 46 45  1  0  0  0  0
 47 48  1  0  0  0  0
M  END
>  <minimizedAffinity>
-5.2238307

$$$$

 OpenBabel03252509063D

 48 50  0  0  1  0  0  0  0  0999 V2000
   38.2410   25.6510   41.8700 N   0  0  0  0  0  0  0  0  0  0  0  0
   38.9940   24.5770   42.3940 C   0  0  0  0  0  0  0  0  0  0  0  0
   40.3300   24.9890   42.9930 C   0  0  0  0  0  0  0  0  0  0  0  0
   40.2980   26.3340   43.6790 C   0  0  0  0  0  0  0  0  0  0  0  0
   38.9040   26.9320   43.6780 C   0  0  0  0  0  0  0  0  0  0  0  0
   38.5320   26.9650   42.1390 C   0  0  2  0  0  0  0  0  0  0  0  0
   39.2130   23.7580   41.7030 H   0  0  0  0  0  0  0  0  0  0  0  0
   38.4080   24.1230   43.2220 H   0  0  0  0  0  0  0  0  0  0  0  0
   40.6540   24.1690   43.6660 H   0  0  0  0  0  0  0  0  0  0  0  0
   41.0610   25.0110   42.1500 H   0  0  0  0  0  0  0  0  0  0  0  0
   40.9750   27.0460   43.1790 H   0  0  0  0  0  0  0  0  0  0  0  0
   40.6230   26.2630   44.7340 H   0  0  0  0  0  0  0  0  0  0  0  0
   38.1670   26.3220   44.1960 H   0  0  0  0  0  0  0  0  0  0  0  0
   38.9980   27.9760   44.0150 H   0  0  0  0  0  0  0  0  0  0  0  0
   39.3920   27.4240   41.6140 H   0  0  0  0  0  0  0  0  0  0  0  0
   37.5280   25.3380   40.6570 C   0  0  0  0  0  0  0  0  0  0  0  0
   38.2780   24.8430   39.9720 H   0  0  0  0  0  0  0  0  0  0  0  0
   37.1270   26.2360   40.1750 H   0  0  0  0  0  0  0  0  0  0  0  0
   36.5010   24.3140   40.9760 C   0  0  0  0  0  0  0  0  0  0  0  0
   36.7510   23.6460   41.8270 H   0  0  0  0  0  0  0  0  0  0  0  0
   35.5210   24.7810   41.2710 H   0  0  0  0  0  0  0  0  0  0  0  0
   36.9350   22.5470   37.6940 C   0  0  0  0  0  0  0  0  0  0  0  0
   37.1970   23.3040   38.8530 C   0  0  0  0  0  0  0  0  0  0  0  0
   36.1970   23.5150   39.7660 C   0  0  0  0  0  0  0  0  0  0  0  0
   35.0100   22.9800   39.4990 N   0  0  0  0  0  0  0  0  0  0  0  0
   34.7450   22.2610   38.4070 C   0  0  0  0  0  0  0  0  0  0  0  0
   35.7070   22.0310   37.4840 N   0  0  0  0  0  0  0  0  0  0  0  0
   37.7940   22.4350   37.0300 H   0  0  0  0  0  0  0  0  0  0  0  0
   38.1770   23.7250   39.0390 H   0  0  0  0  0  0  0  0  0  0  0  0
   33.7690   21.8260   38.1960 H   0  0  0  0  0  0  0  0  0  0  0  0
   37.4180   27.7860   42.1660 O   0  0  0  0  0  0  0  0  0  0  0  0
   38.7040   30.0420   42.7680 O   0  0  0  0  0  0  0  0  0  0  0  0
   37.7840   29.3750   41.7470 P   0  0  2  0  0  0  0  0  0  0  0  0
   36.2990   30.2290   41.8560 O   0  0  0  0  0  0  0  0  0  0  0  0
   35.8910   30.3120   40.9580 H   0  0  0  0  0  0  0  0  0  0  0  0
   38.3490   29.5290   40.1820 O   0  0  0  0  0  0  0  0  0  0  0  0
   39.6560   29.9700   40.2270 C   0  0  0  0  0  0  0  0  0  0  0  0
   40.2660   29.3290   39.5320 H   0  0  0  0  0  0  0  0  0  0  0  0
   40.1300   29.9770   41.2040 H   0  0  0  0  0  0  0  0  0  0  0  0
   38.1010   33.0890   39.7210 C   0  0  2  0  0  3  0  0  0  0  0  0
   38.3200   31.7490   39.0800 C   0  0  0  0  0  3  0  0  0  0  0  0
   37.5280   31.0030   39.2900 H   0  0  0  0  0  0  0  0  0  0  0  0
   39.6870   31.3570   39.5690 C   0  0  1  0  0  3  0  0  0  0  0  0
   40.1250   32.3170   40.4410 O   0  0  0  0  0  0  0  0  0  0  0  0
   39.0220   33.0060   40.9210 C   0  0  0  0  0  3  0  0  0  0  0  0
   39.3310   34.0190   41.2750 H   0  0  0  0  0  0  0  0  0  0  0  0
   36.7670   33.1840   40.1100 O   0  0  0  0  0  0  0  0  0  0  0  0
   36.4630   32.2590   40.3660 H   0  0  0  0  0  0  0  0  0  0  0  0
  1  6  1  0  0  0  0
  1  2  1  0  0  0  0
  2  3  1  0  0  0  0
  2  8  1  0  0  0  0
  3  9  1  0  0  0  0
  3  4  1  0  0  0  0
  4 12  1  0  0  0  0
  5  4  1  0  0  0  0
  5 14  1  0  0  0  0
  5 13  1  0  0  0  0
  6 15  1  6  0  0  0
  6 31  1  0  0  0  0
  6  5  1  0  0  0  0
  7  2  1  0  0  0  0
 10  3  1  0  0  0  0
 11  4  1  0  0  0  0
 16 19  1  0  0  0  0
 16  1  1  0  0  0  0
 17 16  1  0  0  0  0
 18 16  1  0  0  0  0
 19 21  1  0  0  0  0
 19 20  1  0  0  0  0
 22 23  1  0  0  0  0
 23 29  1  0  0  0  0
 23 24  2  0  0  0  0
 24 19  1  0  0  0  0
 25 24  1  0  0  0  0
 26 25  2  0  0  0  0
 27 22  2  0  0  0  0
 27 26  1  0  0  0  0
 28 22  1  0  0  0  0
 30 26  1  0  0  0  0
 33 34  1  0  0  0  0
 33 31  1  0  0  0  0
 33 32  2  1  0  0  0
 35 34  1  0  0  0  0
 36 37  1  0  0  0  0
 36 33  1  0  0  0  0
 37 39  1  0  0  0  0
 38 37  1  0  0  0  0
 40 47  1  1  0  0  0
 40 45  1  0  0  0  0
 41 42  1  0  0  0  0
 41 43  1  0  0  0  0
 41 40  1  0  0  0  0
 43 37  1  1  0  0  0
 43 44  1  0  0  0  0
 44 45  1  0  0  0  0
 45 46  1  0  0  0  0
 47 48  1  0  0  0  0
M  END
>  <minimizedAffinity>
-5.22043085

$$$$
