
 OpenBabel03252509043D

 48 50  0  0  1  0  0  0  0  0999 V2000
   46.5720   34.5400   43.6040 N   0  0  0  0  0  0  0  0  0  0  0  0
   46.0820   35.5320   42.7260 C   0  0  0  0  0  0  0  0  0  0  0  0
   44.5670   35.6680   42.7270 C   0  0  0  0  0  0  0  0  0  0  0  0
   43.9380   35.4360   44.0800 C   0  0  0  0  0  0  0  0  0  0  0  0
   44.9850   35.1950   45.1520 C   0  0  0  0  0  0  0  0  0  0  0  0
   45.8010   33.9640   44.5820 C   0  0  2  0  0  0  0  0  0  0  0  0
   46.3750   35.4370   41.6770 H   0  0  0  0  0  0  0  0  0  0  0  0
   46.4830   36.5130   43.0630 H   0  0  0  0  0  0  0  0  0  0  0  0
   44.3270   36.6660   42.3050 H   0  0  0  0  0  0  0  0  0  0  0  0
   44.1810   34.9170   41.9960 H   0  0  0  0  0  0  0  0  0  0  0  0
   43.2660   34.5620   44.0580 H   0  0  0  0  0  0  0  0  0  0  0  0
   43.3310   36.3030   44.4040 H   0  0  0  0  0  0  0  0  0  0  0  0
   45.6700   36.0300   45.2870 H   0  0  0  0  0  0  0  0  0  0  0  0
   44.4540   34.8480   46.0520 H   0  0  0  0  0  0  0  0  0  0  0  0
   45.0570   33.2040   44.2750 H   0  0  0  0  0  0  0  0  0  0  0  0
   47.6990   33.8020   43.0900 C   0  0  0  0  0  0  0  0  0  0  0  0
   48.1780   33.3000   43.9820 H   0  0  0  0  0  0  0  0  0  0  0  0
   48.4280   34.4580   42.6020 H   0  0  0  0  0  0  0  0  0  0  0  0
   47.1820   32.7180   42.2170 C   0  0  0  0  0  0  0  0  0  0  0  0
   47.3560   31.6870   42.5930 H   0  0  0  0  0  0  0  0  0  0  0  0
   46.0670   32.7800   42.0860 H   0  0  0  0  0  0  0  0  0  0  0  0
   49.0640   31.9780   39.0550 C   0  0  0  0  0  0  0  0  0  0  0  0
   48.5220   31.8610   40.3510 C   0  0  0  0  0  0  0  0  0  0  0  0
   47.7380   32.8670   40.8510 C   0  0  0  0  0  0  0  0  0  0  0  0
   47.5280   33.9190   40.0670 N   0  0  0  0  0  0  0  0  0  0  0  0
   48.0320   34.0450   38.8380 C   0  0  0  0  0  0  0  0  0  0  0  0
   48.8100   33.0730   38.3100 N   0  0  0  0  0  0  0  0  0  0  0  0
   49.6730   31.1250   38.7480 H   0  0  0  0  0  0  0  0  0  0  0  0
   48.7140   30.9890   40.9630 H   0  0  0  0  0  0  0  0  0  0  0  0
   47.8550   34.9110   38.2020 H   0  0  0  0  0  0  0  0  0  0  0  0
   46.5170   33.5930   45.7070 O   0  0  0  0  0  0  0  0  0  0  0  0
   45.6450   31.1720   45.0120 O   0  0  0  0  0  0  0  0  0  0  0  0
   46.2140   32.0010   46.1620 P   0  0  2  0  0  0  0  0  0  0  0  0
   44.9500   32.0910   47.3200 O   0  0  0  0  0  0  0  0  0  0  0  0
   45.3280   32.0550   48.2340 H   0  0  0  0  0  0  0  0  0  0  0  0
   47.5250   31.2660   46.8920 O   0  0  0  0  0  0  0  0  0  0  0  0
   47.6470   29.9850   46.3920 C   0  0  0  0  0  0  0  0  0  0  0  0
   47.7120   30.0510   45.2700 H   0  0  0  0  0  0  0  0  0  0  0  0
   46.8590   29.2860   46.6560 H   0  0  0  0  0  0  0  0  0  0  0  0
   49.5570   27.6080   48.1520 C   0  0  2  0  0  3  0  0  0  0  0  0
   49.0200   29.0070   48.2400 C   0  0  0  0  0  3  0  0  0  0  0  0
   48.0360   29.0920   48.7420 H   0  0  0  0  0  0  0  0  0  0  0  0
   49.0310   29.4670   46.8100 C   0  0  1  0  0  3  0  0  0  0  0  0
   49.4340   28.4220   46.0240 O   0  0  0  0  0  0  0  0  0  0  0  0
   49.2200   27.2440   46.7210 C   0  0  0  0  0  3  0  0  0  0  0  0
   49.8920   26.4430   46.3290 H   0  0  0  0  0  0  0  0  0  0  0  0
   48.8650   26.8070   49.0570 O   0  0  0  0  0  0  0  0  0  0  0  0
   47.9240   27.1630   49.1140 H   0  0  0  0  0  0  0  0  0  0  0  0
  1  6  1  0  0  0  0
  2  3  1  0  0  0  0
  2  8  1  0  0  0  0
  2  1  1  0  0  0  0
  3  4  1  0  0  0  0
  4 12  1  0  0  0  0
  4  5  1  0  0  0  0
  5 13  1  0  0  0  0
  5 14  1  0  0  0  0
  6 15  1  6  0  0  0
  6  5  1  0  0  0  0
  6 31  1  0  0  0  0
  7  2  1  0  0  0  0
  9  3  1  0  0  0  0
 10  3  1  0  0  0  0
 11  4  1  0  0  0  0
 16  1  1  0  0  0  0
 16 17  1  0  0  0  0
 18 16  1  0  0  0  0
 19 20  1  0  0  0  0
 19 16  1  0  0  0  0
 21 19  1  0  0  0  0
 22 23  1  0  0  0  0
 23 24  2  0  0  0  0
 23 29  1  0  0  0  0
 24 19  1  0  0  0  0
 25 24  1  0  0  0  0
 26 25  2  0  0  0  0
 27 26  1  0  0  0  0
 27 22  2  0  0  0  0
 28 22  1  0  0  0  0
 30 26  1  0  0  0  0
 31 33  1  0  0  0  0
 33 32  2  6  0  0  0
 33 36  1  0  0  0  0
 33 34  1  0  0  0  0
 34 35  1  0  0  0  0
 37 39  1  0  0  0  0
 37 36  1  0  0  0  0
 38 37  1  0  0  0  0
 40 41  1  0  0  0  0
 40 47  1  1  0  0  0
 41 42  1  0  0  0  0
 43 37  1  6  0  0  0
 43 41  1  0  0  0  0
 44 45  1  0  0  0  0
 44 43  1  0  0  0  0
 45 40  1  0  0  0  0
 46 45  1  0  0  0  0
 47 48  1  0  0  0  0
M  END
>  <minimizedAffinity>
-4.34173203

>  <minimizedRMSD>
1.53113925

$$$$
