
 OpenBabel03242520363D

 35 38  0  0  1  0  0  0  0  0999 V2000
   46.7080   32.7260   42.3840 C   0  0  0  0  0  0  0  0  0  0  0  0
   47.9640   32.5720   41.6850 C   0  0  0  0  0  0  0  0  0  0  0  0
   48.9130   31.7770   42.2750 C   0  0  0  0  0  0  0  0  0  0  0  0
   48.6500   31.1790   43.4630 N   0  0  0  0  0  0  0  0  0  0  0  0
   47.4650   31.3440   44.0900 C   0  0  0  0  0  0  0  0  0  0  0  0
   46.4970   32.1210   43.5430 N   0  0  0  0  0  0  0  0  0  0  0  0
   45.9490   33.3480   41.9330 H   0  0  0  0  0  0  0  0  0  0  0  0
   49.8540   31.6420   41.7850 H   0  0  0  0  0  0  0  0  0  0  0  0
   48.2250   33.2580   40.3950 C   0  0  1  0  0  0  0  0  0  0  0  0
   47.3500   34.2700   39.8910 C   0  0  0  0  0  0  0  0  0  0  0  0
   48.6260   34.7460   40.4540 C   0  0  1  0  0  0  0  0  0  0  0  0
   48.9330   32.6830   39.7580 H   0  0  0  0  0  0  0  0  0  0  0  0
   47.1830   34.2860   38.7740 H   0  0  0  0  0  0  0  0  0  0  0  0
   46.4390   34.5590   40.4250 H   0  0  0  0  0  0  0  0  0  0  0  0
   49.3580   35.1120   39.6800 H   0  0  0  0  0  0  0  0  0  0  0  0
   48.7480   35.4440   41.7500 C   0  0  0  0  0  0  0  0  0  0  0  0
   49.3430   36.6880   41.6150 F   0  0  0  0  0  0  0  0  0  0  0  0
   49.4670   34.6950   42.6820 F   0  0  0  0  0  0  0  0  0  0  0  0
   47.4720   35.6630   42.2190 F   0  0  0  0  0  0  0  0  0  0  0  0
   47.2450   30.6530   45.3960 C   0  0  2  0  0  0  0  0  0  0  0  0
   46.3410   29.4400   45.2760 C   0  0  0  0  0  0  0  0  0  0  0  0
   45.8890   30.6660   46.0160 C   0  0  1  0  0  0  0  0  0  0  0  0
   48.1190   30.6120   46.0540 H   0  0  0  0  0  0  0  0  0  0  0  0
   45.7990   29.2590   44.3350 H   0  0  0  0  0  0  0  0  0  0  0  0
   46.5650   28.5320   45.8610 H   0  0  0  0  0  0  0  0  0  0  0  0
   45.1870   31.3820   45.5230 H   0  0  0  0  0  0  0  0  0  0  0  0
   44.7690   31.3880   48.1520 C   0  0  1  0  0  0  0  0  0  0  0  0
   45.8740   30.5490   47.4990 C   0  0  2  0  0  0  0  0  0  0  0  0
   47.0640   31.2160   48.1620 C   0  0  0  0  0  0  0  0  0  0  0  0
   47.9960   30.6250   48.0620 H   0  0  0  0  0  0  0  0  0  0  0  0
   46.7140   31.4940   49.4590 O   0  0  0  0  0  0  0  0  0  0  0  0
   45.3370   31.3870   49.5780 C   0  0  0  0  0  0  0  0  0  0  0  0
   45.1470   30.3620   49.9720 H   0  0  0  0  0  0  0  0  0  0  0  0
   44.7850   32.6950   47.7160 O   0  0  0  0  0  0  0  0  0  0  0  0
   44.2520   32.8460   46.8920 H   0  0  0  0  0  0  0  0  0  0  0  0
  1  6  1  0  0  0  0
  2  3  1  0  0  0  0
  2  1  2  0  0  0  0
  3  4  2  0  0  0  0
  4  5  1  0  0  0  0
  5 20  1  0  0  0  0
  6  5  2  0  0  0  0
  7  1  1  0  0  0  0
  8  3  1  0  0  0  0
  9 12  1  6  0  0  0
  9 11  1  0  0  0  0
  9  2  1  0  0  0  0
 10  9  1  0  0  0  0
 10 14  1  0  0  0  0
 10 11  1  0  0  0  0
 11 15  1  6  0  0  0
 11 16  1  0  0  0  0
 13 10  1  0  0  0  0
 16 19  1  0  0  0  0
 16 18  1  0  0  0  0
 17 16  1  0  0  0  0
 20 22  1  0  0  0  0
 20 23  1  1  0  0  0
 21 20  1  0  0  0  0
 21 25  1  0  0  0  0
 21 22  1  0  0  0  0
 22 26  1  6  0  0  0
 22 28  1  0  0  0  0
 24 21  1  0  0  0  0
 27 34  1  6  0  0  0
 27 32  1  0  0  0  0
 28 27  1  0  0  0  0
 28 29  1  1  0  0  0
 29 31  1  0  0  0  0
 30 29  1  0  0  0  0
 31 32  1  0  0  0  0
 32 33  1  0  0  0  0
 35 34  1  0  0  0  0
M  END
>  <minimizedAffinity>
-5.54537773

>  <minimizedRMSD>
2.1709125

$$$$
