
 OpenBabel03252509043D

 48 50  0  0  1  0  0  0  0  0999 V2000
   46.7210   34.3490   43.4970 N   0  0  0  0  0  0  0  0  0  0  0  0
   46.4790   34.9580   42.2450 C   0  0  0  0  0  0  0  0  0  0  0  0
   45.0120   35.0020   41.8490 C   0  0  0  0  0  0  0  0  0  0  0  0
   44.0740   35.2070   43.0150 C   0  0  0  0  0  0  0  0  0  0  0  0
   44.8310   35.4010   44.3160 C   0  0  0  0  0  0  0  0  0  0  0  0
   45.7250   34.0970   44.4060 C   0  0  2  0  0  0  0  0  0  0  0  0
   47.0100   34.5300   41.3900 H   0  0  0  0  0  0  0  0  0  0  0  0
   46.8170   36.0150   42.3100 H   0  0  0  0  0  0  0  0  0  0  0  0
   44.9060   35.7840   41.0680 H   0  0  0  0  0  0  0  0  0  0  0  0
   44.7890   34.0280   41.3500 H   0  0  0  0  0  0  0  0  0  0  0  0
   43.4030   34.3410   43.1380 H   0  0  0  0  0  0  0  0  0  0  0  0
   43.4330   36.0980   42.8740 H   0  0  0  0  0  0  0  0  0  0  0  0
   45.4890   36.2680   44.3130 H   0  0  0  0  0  0  0  0  0  0  0  0
   44.0940   35.3500   45.1320 H   0  0  0  0  0  0  0  0  0  0  0  0
   45.0530   33.2380   44.2140 H   0  0  0  0  0  0  0  0  0  0  0  0
   47.9160   33.5440   43.5420 C   0  0  0  0  0  0  0  0  0  0  0  0
   48.0250   33.2050   44.6140 H   0  0  0  0  0  0  0  0  0  0  0  0
   48.8030   34.1140   43.2440 H   0  0  0  0  0  0  0  0  0  0  0  0
   47.6820   32.3240   42.7290 C   0  0  0  0  0  0  0  0  0  0  0  0
   47.4660   31.4040   43.3140 H   0  0  0  0  0  0  0  0  0  0  0  0
   46.7920   32.4350   42.0510 H   0  0  0  0  0  0  0  0  0  0  0  0
   51.2010   32.1790   41.4340 C   0  0  0  0  0  0  0  0  0  0  0  0
   50.0910   32.3850   42.2780 C   0  0  0  0  0  0  0  0  0  0  0  0
   48.8310   32.0980   41.8220 C   0  0  0  0  0  0  0  0  0  0  0  0
   48.7260   31.6310   40.5820 N   0  0  0  0  0  0  0  0  0  0  0  0
   49.7670   31.4300   39.7710 C   0  0  0  0  0  0  0  0  0  0  0  0
   51.0250   31.7020   40.1860 N   0  0  0  0  0  0  0  0  0  0  0  0
   52.1600   32.4370   41.8880 H   0  0  0  0  0  0  0  0  0  0  0  0
   50.2130   32.7670   43.2830 H   0  0  0  0  0  0  0  0  0  0  0  0
   49.6720   31.0470   38.7560 H   0  0  0  0  0  0  0  0  0  0  0  0
   46.1440   34.1680   45.7230 O   0  0  0  0  0  0  0  0  0  0  0  0
   45.5620   31.5700   45.5810 O   0  0  0  0  0  0  0  0  0  0  0  0
   46.0090   32.6900   46.5180 P   0  0  2  0  0  0  0  0  0  0  0  0
   44.7160   32.8880   47.6310 O   0  0  0  0  0  0  0  0  0  0  0  0
   45.0740   33.0970   48.5300 H   0  0  0  0  0  0  0  0  0  0  0  0
   47.3770   32.2860   47.3900 O   0  0  0  0  0  0  0  0  0  0  0  0
   47.7710   31.0150   47.0250 C   0  0  0  0  0  0  0  0  0  0  0  0
   48.8340   31.0700   46.6600 H   0  0  0  0  0  0  0  0  0  0  0  0
   47.1660   30.5190   46.2720 H   0  0  0  0  0  0  0  0  0  0  0  0
   49.7960   29.5220   49.4890 C   0  0  2  0  0  3  0  0  0  0  0  0
   49.0150   29.2170   48.2440 C   0  0  0  0  0  3  0  0  0  0  0  0
   49.6030   29.2720   47.3060 H   0  0  0  0  0  0  0  0  0  0  0  0
   47.8690   30.1870   48.3150 C   0  0  1  0  0  3  0  0  0  0  0  0
   48.0470   30.9850   49.4120 O   0  0  0  0  0  0  0  0  0  0  0  0
   49.3880   30.9540   49.7610 C   0  0  0  0  0  3  0  0  0  0  0  0
   49.5070   31.2210   50.8390 H   0  0  0  0  0  0  0  0  0  0  0  0
   51.1550   29.4270   49.1970 O   0  0  0  0  0  0  0  0  0  0  0  0
   51.2770   29.7160   48.2390 H   0  0  0  0  0  0  0  0  0  0  0  0
  1 16  1  0  0  0  0
  1  6  1  0  0  0  0
  2  8  1  0  0  0  0
  2  1  1  0  0  0  0
  3  2  1  0  0  0  0
  3  4  1  0  0  0  0
  4 11  1  0  0  0  0
  4  5  1  0  0  0  0
  5  6  1  0  0  0  0
  5 14  1  0  0  0  0
  6 15  1  6  0  0  0
  6 31  1  0  0  0  0
  7  2  1  0  0  0  0
  9  3  1  0  0  0  0
 10  3  1  0  0  0  0
 12  4  1  0  0  0  0
 13  5  1  0  0  0  0
 16 17  1  0  0  0  0
 18 16  1  0  0  0  0
 19 20  1  0  0  0  0
 19 16  1  0  0  0  0
 21 19  1  0  0  0  0
 22 28  1  0  0  0  0
 22 23  1  0  0  0  0
 23 29  1  0  0  0  0
 24 23  2  0  0  0  0
 24 19  1  0  0  0  0
 25 24  1  0  0  0  0
 26 27  1  0  0  0  0
 26 25  2  0  0  0  0
 27 22  2  0  0  0  0
 30 26  1  0  0  0  0
 31 33  1  0  0  0  0
 33 32  2  6  0  0  0
 33 36  1  0  0  0  0
 33 34  1  0  0  0  0
 34 35  1  0  0  0  0
 37 36  1  0  0  0  0
 38 37  1  0  0  0  0
 39 37  1  0  0  0  0
 40 47  1  6  0  0  0
 40 45  1  0  0  0  0
 41 43  1  0  0  0  0
 41 40  1  0  0  0  0
 42 41  1  0  0  0  0
 43 37  1  6  0  0  0
 43 44  1  0  0  0  0
 44 45  1  0  0  0  0
 45 46  1  0  0  0  0
 48 47  1  0  0  0  0
M  END
>  <minimizedAffinity>
-4.89760017

>  <minimizedRMSD>
3.35738516

$$$$
