
     RDKit          3D

 29 31  0  0  0  0  0  0  0  0999 V2000
   44.6318   35.9362   44.3457 C   0  0  0  0  0  0  0  0  0  0  0  0
   45.3469   35.9233   43.1354 C   0  0  0  0  0  0  0  0  0  0  0  0
   46.2649   34.8962   42.9999 C   0  0  0  0  0  0  0  0  0  0  0  0
   46.4232   33.9790   44.0141 N   0  0  0  0  0  0  0  0  0  0  0  0
   45.7086   34.0362   45.1603 C   0  0  0  0  0  0  0  0  0  0  0  0
   44.8088   35.0329   45.3083 N   0  0  0  0  0  0  0  0  0  0  0  0
   47.0916   34.7478   41.7495 C   0  0  1  0  0  0  0  0  0  0  0  0
   48.4026   35.4991   41.8280 C   0  0  0  0  0  0  0  0  0  0  0  0
   48.3186   33.9634   41.8168 C   0  0  2  0  0  0  0  0  0  0  0  0
   43.8982   36.7216   44.5050 H   0  0  0  0  0  0  0  0  0  0  0  0
   45.2073   36.6521   42.3520 H   0  0  0  0  0  0  0  0  0  0  0  0
   45.9909   33.2231   45.8149 H   0  0  0  0  0  0  0  0  0  0  0  0
   46.5268   34.8196   40.7987 H   0  0  0  0  0  0  0  0  0  0  0  0
   48.6505   36.0451   40.9176 H   0  0  0  0  0  0  0  0  0  0  0  0
   48.6486   36.0151   42.7739 H   0  0  0  0  0  0  0  0  0  0  0  0
   48.5515   33.5511   42.8504 H   0  0  0  0  0  0  0  0  0  0  0  0
   47.0219   32.1630   39.5498 O   0  0  0  0  0  0  0  0  0  0  0  0
   48.0495   31.9425   40.4519 C   0  0  2  0  0  0  0  0  0  0  0  0
   48.8765   33.1899   40.6773 C   0  0  2  0  0  0  0  0  0  0  0  0
   50.2504   32.6135   40.8734 C   0  0  2  0  0  0  0  0  0  0  0  0
   50.4808   32.2607   41.8816 H   0  0  0  0  0  0  0  0  0  0  0  0
   50.3254   31.4889   40.0565 O   0  0  0  0  0  0  0  0  0  0  0  0
   49.0514   30.9831   39.9063 C   0  0  1  0  0  0  0  0  0  0  0  0
   48.9792   30.0480   40.5096 H   0  0  0  0  0  0  0  0  0  0  0  0
   46.6235   31.2771   39.3522 H   0  0  0  0  0  0  0  0  0  0  0  0
   47.6019   31.6304   41.4181 H   0  0  0  0  0  0  0  0  0  0  0  0
   48.8986   33.7648   39.7172 H   0  0  0  0  0  0  0  0  0  0  0  0
   51.0510   33.3083   40.5521 H   0  0  0  0  0  0  0  0  0  0  0  0
   48.8032   30.7267   38.8641 H   0  0  0  0  0  0  0  0  0  0  0  0
  1  6  2  0
  2  1  1  0
  3  2  2  0
  3  4  1  0
  4  5  2  0
  5  6  1  0
  7  8  1  0
  7  9  1  0
  7  3  1  0
  8  9  1  0
  1 10  1  0
  2 11  1  0
  5 12  1  0
  7 13  1  6
  8 14  1  0
  8 15  1  0
  9 16  1  1
 17 18  1  0
 18 19  1  0
 19 20  1  0
 20 21  1  1
 20 22  1  0
 22 23  1  0
 23 24  1  1
 23 18  1  0
 17 25  1  0
 18 26  1  1
 19 27  1  6
 20 28  1  0
 23 29  1  0
  9 19  1  0
M  ISO  8  10  14  11  14  12  14  13  13  14  13  15  13  16  13  21  15
M  ISO  1  24  16
M  END
>  <DihAtoms>  (1) 
6,8,18,17

>  <DihDeg>  (1) 
-179.14632501915938

$$$$
