
 OpenBabel03242521313D

 47 50  0  0  1  0  0  0  0  0999 V2000
   38.3380   29.1160   40.4140 C   0  0  1  0  0  0  0  0  0  0  0  0
   37.3410   27.9990   40.1260 C   0  0  2  0  0  0  0  0  0  0  0  0
   36.0920   28.2910   40.5990 O   0  0  0  0  0  0  0  0  0  0  0  0
   35.5840   29.3010   39.8310 C   0  0  0  0  0  0  0  0  0  0  0  0
   36.3090   30.5740   40.1480 C   0  0  2  0  0  0  0  0  0  0  0  0
   37.8200   30.4710   40.1870 C   0  0  2  0  0  0  0  0  0  0  0  0
   39.1870   28.9560   39.6820 H   0  0  0  0  0  0  0  0  0  0  0  0
   37.3830   27.8570   39.0130 H   0  0  0  0  0  0  0  0  0  0  0  0
   34.5180   29.4830   39.9420 H   0  0  0  0  0  0  0  0  0  0  0  0
   35.8160   29.0360   38.7580 H   0  0  0  0  0  0  0  0  0  0  0  0
   35.9760   31.2860   39.3700 H   0  0  0  0  0  0  0  0  0  0  0  0
   38.1120   31.1340   41.0270 H   0  0  0  0  0  0  0  0  0  0  0  0
   37.4520   24.7740   42.1160 C   0  0  0  0  0  0  0  0  0  0  0  0
   36.9650   25.9700   41.5760 C   0  0  0  0  0  0  0  0  0  0  0  0
   37.8100   26.7340   40.7060 C   0  0  0  0  0  0  0  0  0  0  0  0
   39.0500   26.2740   40.4370 N   0  0  0  0  0  0  0  0  0  0  0  0
   39.4880   25.0940   40.9910 C   0  0  0  0  0  0  0  0  0  0  0  0
   38.6950   24.3540   41.8220 N   0  0  0  0  0  0  0  0  0  0  0  0
   36.8470   24.1750   42.7720 H   0  0  0  0  0  0  0  0  0  0  0  0
   35.9650   26.3220   41.8040 H   0  0  0  0  0  0  0  0  0  0  0  0
   40.4990   24.7950   40.7250 H   0  0  0  0  0  0  0  0  0  0  0  0
   38.9360   28.9710   41.6560 O   0  0  0  0  0  0  0  0  0  0  0  0
   39.7460   28.4130   41.6500 H   0  0  0  0  0  0  0  0  0  0  0  0
   35.8200   30.9730   41.4030 O   0  0  0  0  0  0  0  0  0  0  0  0
   34.9100   31.2990   41.2480 H   0  0  0  0  0  0  0  0  0  0  0  0
   38.3340   31.1040   39.0480 O   0  0  0  0  0  0  0  0  0  0  0  0
   38.8260   33.3990   38.9110 N   0  0  0  0  0  0  0  0  0  0  0  0
   37.8060   33.6580   39.9350 C   0  0  0  0  0  0  0  0  0  0  0  0
   38.6490   33.5120   41.1810 C   0  0  0  0  0  0  0  0  0  0  0  0
   39.4120   32.2530   40.8350 C   0  0  0  0  0  0  0  0  0  0  0  0
   39.2510   32.0800   39.3030 C   0  0  1  0  0  0  0  0  0  0  0  0
   38.3960   33.4190   37.9550 H   0  0  0  0  0  0  0  0  0  0  0  0
   36.9700   32.9610   39.9010 H   0  0  0  0  0  0  0  0  0  0  0  0
   37.5270   34.7180   39.8450 H   0  0  0  0  0  0  0  0  0  0  0  0
   39.2600   34.3910   41.3650 H   0  0  0  0  0  0  0  0  0  0  0  0
   37.9930   33.2750   42.0700 H   0  0  0  0  0  0  0  0  0  0  0  0
   38.9470   31.3710   41.2910 H   0  0  0  0  0  0  0  0  0  0  0  0
   40.4310   32.4060   41.1530 H   0  0  0  0  0  0  0  0  0  0  0  0
   40.9550   32.0520   37.4140 C   0  0  1  0  0  3  0  0  0  0  0  0
   40.6660   31.9080   38.8620 C   0  0  2  0  0  3  0  0  0  0  0  0
   41.1100   30.5060   39.2150 C   0  0  0  0  0  3  0  0  0  0  0  0
   42.0240   30.4690   39.8490 H   0  0  0  0  0  0  0  0  0  0  0  0
   41.4480   29.8680   38.0370 O   0  0  0  0  0  0  0  0  0  0  0  0
   41.7530   30.8150   37.0740 C   0  0  0  0  0  3  0  0  0  0  0  0
   42.8510   30.9720   37.0930 H   0  0  0  0  0  0  0  0  0  0  0  0
   39.8290   32.1810   36.6040 O   0  0  0  0  0  0  0  0  0  0  0  0
   39.8940   32.9450   35.9640 H   0  0  0  0  0  0  0  0  0  0  0  0
  1  7  1  6  0  0  0
  1 22  1  0  0  0  0
  2  8  1  6  0  0  0
  2  1  1  0  0  0  0
  2  3  1  0  0  0  0
  2 15  1  0  0  0  0
  4  9  1  0  0  0  0
  4  5  1  0  0  0  0
  4  3  1  0  0  0  0
  5 11  1  6  0  0  0
  5  6  1  0  0  0  0
  5 24  1  0  0  0  0
  6  1  1  0  0  0  0
  6 12  1  1  0  0  0
 10  4  1  0  0  0  0
 13 19  1  0  0  0  0
 14 20  1  0  0  0  0
 14 13  2  0  0  0  0
 15 14  1  0  0  0  0
 16 15  2  0  0  0  0
 16 17  1  0  0  0  0
 17 18  2  0  0  0  0
 18 13  1  0  0  0  0
 21 17  1  0  0  0  0
 23 22  1  0  0  0  0
 25 24  1  0  0  0  0
 26  6  1  0  0  0  0
 27 31  1  0  0  0  0
 27 28  1  0  0  0  0
 28 29  1  0  0  0  0
 29 35  1  0  0  0  0
 29 36  1  0  0  0  0
 30 38  1  0  0  0  0
 30 29  1  0  0  0  0
 30 37  1  0  0  0  0
 31 26  1  6  0  0  0
 31 30  1  0  0  0  0
 32 27  1  0  0  0  0
 33 28  1  0  0  0  0
 34 28  1  0  0  0  0
 39 46  1  6  0  0  0
 39 40  1  0  0  0  0
 40 41  1  6  0  0  0
 40 31  1  0  0  0  0
 41 42  1  0  0  0  0
 43 41  1  0  0  0  0
 44 45  1  0  0  0  0
 44 39  1  0  0  0  0
 44 43  1  0  0  0  0
 47 46  1  0  0  0  0
M  END
>  <minimizedAffinity>
-6.1758647

$$$$

 OpenBabel03242521313D

 47 50  0  0  1  0  0  0  0  0999 V2000
   39.2140   31.1580   40.5900 C   0  0  1  0  0  0  0  0  0  0  0  0
   39.4780   32.6560   40.7030 C   0  0  2  0  0  0  0  0  0  0  0  0
   38.9570   33.3500   39.6480 O   0  0  0  0  0  0  0  0  0  0  0  0
   37.5960   33.3140   39.7590 C   0  0  0  0  0  0  0  0  0  0  0  0
   37.1120   31.9300   39.4500 C   0  0  2  0  0  0  0  0  0  0  0  0
   37.8610   30.8080   40.1410 C   0  0  2  0  0  0  0  0  0  0  0  0
   39.3340   30.7520   41.6400 H   0  0  0  0  0  0  0  0  0  0  0  0
   39.0450   32.9480   41.6980 H   0  0  0  0  0  0  0  0  0  0  0  0
   37.0540   34.0100   39.1230 H   0  0  0  0  0  0  0  0  0  0  0  0
   37.3570   33.5230   40.8430 H   0  0  0  0  0  0  0  0  0  0  0  0
   36.0450   31.9360   39.7390 H   0  0  0  0  0  0  0  0  0  0  0  0
   37.9100   30.0070   39.3760 H   0  0  0  0  0  0  0  0  0  0  0  0
   42.9210   34.1310   40.1210 C   0  0  0  0  0  0  0  0  0  0  0  0
   41.5430   33.9220   40.0000 C   0  0  0  0  0  0  0  0  0  0  0  0
   40.9200   32.9140   40.8070 C   0  0  0  0  0  0  0  0  0  0  0  0
   41.6860   32.1990   41.6570 N   0  0  0  0  0  0  0  0  0  0  0  0
   43.0370   32.4370   41.7430 C   0  0  0  0  0  0  0  0  0  0  0  0
   43.6460   33.3940   40.9810 N   0  0  0  0  0  0  0  0  0  0  0  0
   43.4220   34.8780   39.5320 H   0  0  0  0  0  0  0  0  0  0  0  0
   40.9450   34.5070   39.3100 H   0  0  0  0  0  0  0  0  0  0  0  0
   43.5810   31.8180   42.4520 H   0  0  0  0  0  0  0  0  0  0  0  0
   40.2040   30.5100   39.8660 O   0  0  0  0  0  0  0  0  0  0  0  0
   40.9690   30.2120   40.4080 H   0  0  0  0  0  0  0  0  0  0  0  0
   37.2310   31.8010   38.0570 O   0  0  0  0  0  0  0  0  0  0  0  0
   36.5160   32.3490   37.6730 H   0  0  0  0  0  0  0  0  0  0  0  0
   37.0370   30.2820   41.1440 O   0  0  0  0  0  0  0  0  0  0  0  0
   35.2970   28.7010   41.1500 N   0  0  0  0  0  0  0  0  0  0  0  0
   34.7610   29.3170   39.9290 C   0  0  0  0  0  0  0  0  0  0  0  0
   35.5240   28.5310   38.8880 C   0  0  0  0  0  0  0  0  0  0  0  0
   36.9090   28.5690   39.4930 C   0  0  0  0  0  0  0  0  0  0  0  0
   36.7000   28.9710   40.9760 C   0  0  1  0  0  0  0  0  0  0  0  0
   34.8950   29.1670   41.9990 H   0  0  0  0  0  0  0  0  0  0  0  0
   34.9400   30.3900   39.8710 H   0  0  0  0  0  0  0  0  0  0  0  0
   33.7040   29.0210   39.8610 H   0  0  0  0  0  0  0  0  0  0  0  0
   35.1060   27.5390   38.7390 H   0  0  0  0  0  0  0  0  0  0  0  0
   35.5640   29.1080   37.9170 H   0  0  0  0  0  0  0  0  0  0  0  0
   37.5150   29.3640   39.0450 H   0  0  0  0  0  0  0  0  0  0  0  0
   37.3350   27.5870   39.3630 H   0  0  0  0  0  0  0  0  0  0  0  0
   37.7380   28.1170   43.1360 C   0  0  1  0  0  3  0  0  0  0  0  0
   37.4610   27.9080   41.6940 C   0  0  2  0  0  3  0  0  0  0  0  0
   38.8210   27.7720   41.0470 C   0  0  0  0  0  3  0  0  0  0  0  0
   39.0520   26.7410   40.6950 H   0  0  0  0  0  0  0  0  0  0  0  0
   39.7700   28.0580   42.0100 O   0  0  0  0  0  0  0  0  0  0  0  0
   39.2220   27.8630   43.2660 C   0  0  0  0  0  3  0  0  0  0  0  0
   39.4720   26.8300   43.5850 H   0  0  0  0  0  0  0  0  0  0  0  0
   37.3840   29.3740   43.6210 O   0  0  0  0  0  0  0  0  0  0  0  0
   36.8470   29.3310   44.4630 H   0  0  0  0  0  0  0  0  0  0  0  0
  1  2  1  0  0  0  0
  1  7  1  1  0  0  0
  2 15  1  0  0  0  0
  2  8  1  1  0  0  0
  3  4  1  0  0  0  0
  3  2  1  0  0  0  0
  4 10  1  0  0  0  0
  5 11  1  1  0  0  0
  5  4  1  0  0  0  0
  5  6  1  0  0  0  0
  6 12  1  6  0  0  0
  6  1  1  0  0  0  0
  6 26  1  0  0  0  0
  9  4  1  0  0  0  0
 13 18  1  0  0  0  0
 14 13  2  0  0  0  0
 14 15  1  0  0  0  0
 15 16  2  0  0  0  0
 16 17  1  0  0  0  0
 17 21  1  0  0  0  0
 18 17  2  0  0  0  0
 19 13  1  0  0  0  0
 20 14  1  0  0  0  0
 22 23  1  0  0  0  0
 22  1  1  0  0  0  0
 24  5  1  0  0  0  0
 25 24  1  0  0  0  0
 27 32  1  0  0  0  0
 28 27  1  0  0  0  0
 29 30  1  0  0  0  0
 29 28  1  0  0  0  0
 30 31  1  0  0  0  0
 31 26  1  1  0  0  0
 31 27  1  0  0  0  0
 31 40  1  0  0  0  0
 33 28  1  0  0  0  0
 34 28  1  0  0  0  0
 35 29  1  0  0  0  0
 36 29  1  0  0  0  0
 37 30  1  0  0  0  0
 38 30  1  0  0  0  0
 39 44  1  0  0  0  0
 39 46  1  6  0  0  0
 40 41  1  6  0  0  0
 40 39  1  0  0  0  0
 41 43  1  0  0  0  0
 42 41  1  0  0  0  0
 43 44  1  0  0  0  0
 44 45  1  0  0  0  0
 46 47  1  0  0  0  0
M  END
>  <minimizedAffinity>
-5.88950157

$$$$

 OpenBabel03242521313D

 47 50  0  0  1  0  0  0  0  0999 V2000
   39.4210   31.1460   40.5720 C   0  0  1  0  0  0  0  0  0  0  0  0
   39.5870   32.6620   40.5940 C   0  0  2  0  0  0  0  0  0  0  0  0
   38.8510   33.2730   39.6170 O   0  0  0  0  0  0  0  0  0  0  0  0
   37.5320   33.1480   39.9520 C   0  0  0  0  0  0  0  0  0  0  0  0
   37.1100   31.7210   39.7700 C   0  0  2  0  0  0  0  0  0  0  0  0
   38.0420   30.6850   40.3630 C   0  0  2  0  0  0  0  0  0  0  0  0
   39.7390   30.7940   41.6000 H   0  0  0  0  0  0  0  0  0  0  0  0
   39.2990   32.9660   41.6360 H   0  0  0  0  0  0  0  0  0  0  0  0
   36.8440   33.7770   39.3920 H   0  0  0  0  0  0  0  0  0  0  0  0
   37.4560   33.3860   41.0530 H   0  0  0  0  0  0  0  0  0  0  0  0
   36.1060   31.6660   40.2300 H   0  0  0  0  0  0  0  0  0  0  0  0
   38.0270   29.8570   39.6250 H   0  0  0  0  0  0  0  0  0  0  0  0
   42.8020   34.1590   39.2540 C   0  0  0  0  0  0  0  0  0  0  0  0
   41.4420   33.8450   39.3610 C   0  0  0  0  0  0  0  0  0  0  0  0
   41.0030   33.0230   40.4510 C   0  0  0  0  0  0  0  0  0  0  0  0
   41.9170   32.5770   41.3370 N   0  0  0  0  0  0  0  0  0  0  0  0
   43.2440   32.9100   41.1930 C   0  0  0  0  0  0  0  0  0  0  0  0
   43.6790   33.6930   40.1610 N   0  0  0  0  0  0  0  0  0  0  0  0
   43.1670   34.7730   38.4510 H   0  0  0  0  0  0  0  0  0  0  0  0
   40.7220   34.2130   38.6380 H   0  0  0  0  0  0  0  0  0  0  0  0
   43.9150   32.5100   41.9490 H   0  0  0  0  0  0  0  0  0  0  0  0
   40.3260   30.5370   39.7160 O   0  0  0  0  0  0  0  0  0  0  0  0
   41.1880   30.3160   40.1330 H   0  0  0  0  0  0  0  0  0  0  0  0
   37.0110   31.5420   38.3800 O   0  0  0  0  0  0  0  0  0  0  0  0
   36.2050   32.0210   38.1020 H   0  0  0  0  0  0  0  0  0  0  0  0
   37.4340   30.1470   41.5040 O   0  0  0  0  0  0  0  0  0  0  0  0
   38.6200   28.1190   41.3930 N   0  0  0  0  0  0  0  0  0  0  0  0
   39.1940   28.4070   42.7130 C   0  0  0  0  0  0  0  0  0  0  0  0
   38.1360   27.7840   43.5950 C   0  0  0  0  0  0  0  0  0  0  0  0
   36.8890   28.3090   42.9190 C   0  0  0  0  0  0  0  0  0  0  0  0
   37.3490   28.7860   41.5170 C   0  0  1  0  0  0  0  0  0  0  0  0
   39.2210   28.5300   40.6380 H   0  0  0  0  0  0  0  0  0  0  0  0
   39.3360   29.4700   42.9030 H   0  0  0  0  0  0  0  0  0  0  0  0
   40.1040   27.7960   42.8040 H   0  0  0  0  0  0  0  0  0  0  0  0
   38.2240   26.7020   43.6350 H   0  0  0  0  0  0  0  0  0  0  0  0
   38.1750   28.2370   44.6290 H   0  0  0  0  0  0  0  0  0  0  0  0
   36.5060   29.1980   43.4320 H   0  0  0  0  0  0  0  0  0  0  0  0
   36.1810   27.4960   42.8930 H   0  0  0  0  0  0  0  0  0  0  0  0
   36.7900   27.8630   39.2140 C   0  0  1  0  0  3  0  0  0  0  0  0
   36.3810   28.0900   40.6210 C   0  0  2  0  0  3  0  0  0  0  0  0
   35.1220   28.9240   40.5370 C   0  0  0  0  0  3  0  0  0  0  0  0
   34.1970   28.3740   40.8250 H   0  0  0  0  0  0  0  0  0  0  0  0
   34.9460   29.2800   39.2140 O   0  0  0  0  0  0  0  0  0  0  0  0
   35.6240   28.3830   38.4040 C   0  0  0  0  0  3  0  0  0  0  0  0
   34.9050   27.5950   38.1000 H   0  0  0  0  0  0  0  0  0  0  0  0
   37.9870   28.4750   38.8480 O   0  0  0  0  0  0  0  0  0  0  0  0
   38.6150   27.8550   38.3800 H   0  0  0  0  0  0  0  0  0  0  0  0
  1  2  1  0  0  0  0
  1  7  1  1  0  0  0
  2  8  1  1  0  0  0
  3  4  1  0  0  0  0
  3  2  1  0  0  0  0
  4 10  1  0  0  0  0
  5  4  1  0  0  0  0
  5 11  1  1  0  0  0
  5  6  1  0  0  0  0
  6 12  1  6  0  0  0
  6  1  1  0  0  0  0
  6 26  1  0  0  0  0
  9  4  1  0  0  0  0
 13 14  2  0  0  0  0
 13 18  1  0  0  0  0
 14 15  1  0  0  0  0
 15  2  1  0  0  0  0
 15 16  2  0  0  0  0
 17 16  1  0  0  0  0
 17 21  1  0  0  0  0
 18 17  2  0  0  0  0
 19 13  1  0  0  0  0
 20 14  1  0  0  0  0
 22 23  1  0  0  0  0
 22  1  1  0  0  0  0
 24  5  1  0  0  0  0
 25 24  1  0  0  0  0
 27 31  1  0  0  0  0
 27 28  1  0  0  0  0
 28 34  1  0  0  0  0
 28 33  1  0  0  0  0
 28 29  1  0  0  0  0
 29 35  1  0  0  0  0
 29 36  1  0  0  0  0
 30 37  1  0  0  0  0
 30 29  1  0  0  0  0
 31 26  1  6  0  0  0
 31 30  1  0  0  0  0
 32 27  1  0  0  0  0
 38 30  1  0  0  0  0
 39 46  1  6  0  0  0
 39 40  1  0  0  0  0
 40 41  1  6  0  0  0
 40 31  1  0  0  0  0
 41 42  1  0  0  0  0
 43 41  1  0  0  0  0
 44 39  1  0  0  0  0
 44 43  1  0  0  0  0
 45 44  1  0  0  0  0
 47 46  1  0  0  0  0
M  END
>  <minimizedAffinity>
-5.52187967

$$$$

 OpenBabel03242521313D

 47 50  0  0  1  0  0  0  0  0999 V2000
   38.0810   28.1820   40.6530 C   0  0  1  0  0  0  0  0  0  0  0  0
   37.2350   27.2050   41.4620 C   0  0  2  0  0  0  0  0  0  0  0  0
   37.9020   26.7340   42.5580 O   0  0  0  0  0  0  0  0  0  0  0  0
   38.0290   27.7670   43.4430 C   0  0  0  0  0  0  0  0  0  0  0  0
   39.0250   28.7520   42.9110 C   0  0  2  0  0  0  0  0  0  0  0  0
   38.8410   29.1460   41.4590 C   0  0  2  0  0  0  0  0  0  0  0  0
   37.3440   28.7760   40.0310 H   0  0  0  0  0  0  0  0  0  0  0  0
   36.2990   27.7750   41.7100 H   0  0  0  0  0  0  0  0  0  0  0  0
   38.3340   27.4880   44.4480 H   0  0  0  0  0  0  0  0  0  0  0  0
   37.0260   28.2840   43.4780 H   0  0  0  0  0  0  0  0  0  0  0  0
   38.9330   29.6300   43.5780 H   0  0  0  0  0  0  0  0  0  0  0  0
   39.8770   29.2310   41.0720 H   0  0  0  0  0  0  0  0  0  0  0  0
   36.5100   23.6890   40.2450 C   0  0  0  0  0  0  0  0  0  0  0  0
   36.9220   24.7320   41.0820 C   0  0  0  0  0  0  0  0  0  0  0  0
   36.8040   26.0830   40.6190 C   0  0  0  0  0  0  0  0  0  0  0  0
   36.2990   26.3050   39.3870 N   0  0  0  0  0  0  0  0  0  0  0  0
   35.9070   25.2500   38.5970 C   0  0  0  0  0  0  0  0  0  0  0  0
   36.0120   23.9560   39.0240 N   0  0  0  0  0  0  0  0  0  0  0  0
   36.5840   22.6640   40.5590 H   0  0  0  0  0  0  0  0  0  0  0  0
   37.3260   24.5330   42.0690 H   0  0  0  0  0  0  0  0  0  0  0  0
   35.5110   25.5140   37.6200 H   0  0  0  0  0  0  0  0  0  0  0  0
   38.8660   27.5340   39.7110 O   0  0  0  0  0  0  0  0  0  0  0  0
   38.4200   27.3900   38.8460 H   0  0  0  0  0  0  0  0  0  0  0  0
   40.2770   28.1420   43.0900 O   0  0  0  0  0  0  0  0  0  0  0  0
   40.4600   28.1780   44.0510 H   0  0  0  0  0  0  0  0  0  0  0  0
   38.3440   30.4550   41.4170 O   0  0  0  0  0  0  0  0  0  0  0  0
   38.3480   31.0300   39.1380 N   0  0  0  0  0  0  0  0  0  0  0  0
   37.0200   31.6340   39.3090 C   0  0  0  0  0  0  0  0  0  0  0  0
   37.4240   33.0360   39.7040 C   0  0  0  0  0  0  0  0  0  0  0  0
   38.5100   32.7230   40.7080 C   0  0  0  0  0  0  0  0  0  0  0  0
   38.8960   31.2440   40.4520 C   0  0  1  0  0  0  0  0  0  0  0  0
   38.2570   30.0140   38.8960 H   0  0  0  0  0  0  0  0  0  0  0  0
   36.4120   31.1360   40.0630 H   0  0  0  0  0  0  0  0  0  0  0  0
   36.5640   31.6880   38.3100 H   0  0  0  0  0  0  0  0  0  0  0  0
   37.7370   33.6260   38.8470 H   0  0  0  0  0  0  0  0  0  0  0  0
   36.5820   33.5410   40.2630 H   0  0  0  0  0  0  0  0  0  0  0  0
   38.1230   32.7630   41.7330 H   0  0  0  0  0  0  0  0  0  0  0  0
   39.3120   33.4220   40.5310 H   0  0  0  0  0  0  0  0  0  0  0  0
   41.1670   31.5670   41.5520 C   0  0  1  0  0  3  0  0  0  0  0  0
   40.3790   31.3310   40.3180 C   0  0  2  0  0  3  0  0  0  0  0  0
   40.7100   32.4950   39.4110 C   0  0  0  0  0  3  0  0  0  0  0  0
   41.3340   32.2190   38.5310 H   0  0  0  0  0  0  0  0  0  0  0  0
   41.4700   33.3890   40.1410 O   0  0  0  0  0  0  0  0  0  0  0  0
   42.0720   32.7230   41.1950 C   0  0  0  0  0  3  0  0  0  0  0  0
   43.0840   32.4120   40.8630 H   0  0  0  0  0  0  0  0  0  0  0  0
   40.4050   31.8380   42.6870 O   0  0  0  0  0  0  0  0  0  0  0  0
   40.6730   31.2880   43.4770 H   0  0  0  0  0  0  0  0  0  0  0  0
  1  7  1  6  0  0  0
  1  6  1  0  0  0  0
  1  2  1  0  0  0  0
  2  8  1  1  0  0  0
  2  3  1  0  0  0  0
  3  4  1  0  0  0  0
  4 10  1  0  0  0  0
  4  9  1  0  0  0  0
  5 24  1  0  0  0  0
  5  4  1  0  0  0  0
  5 11  1  1  0  0  0
  6 12  1  6  0  0  0
  6  5  1  0  0  0  0
 13 19  1  0  0  0  0
 13 14  1  0  0  0  0
 14 20  1  0  0  0  0
 15 14  2  0  0  0  0
 15  2  1  0  0  0  0
 16 15  1  0  0  0  0
 17 18  1  0  0  0  0
 17 16  2  0  0  0  0
 18 13  2  0  0  0  0
 21 17  1  0  0  0  0
 22  1  1  0  0  0  0
 23 22  1  0  0  0  0
 24 25  1  0  0  0  0
 26  6  1  0  0  0  0
 27 28  1  0  0  0  0
 27 31  1  0  0  0  0
 28 29  1  0  0  0  0
 28 33  1  0  0  0  0
 29 36  1  0  0  0  0
 29 30  1  0  0  0  0
 30 37  1  0  0  0  0
 31 30  1  0  0  0  0
 31 26  1  1  0  0  0
 32 27  1  0  0  0  0
 34 28  1  0  0  0  0
 35 29  1  0  0  0  0
 38 30  1  0  0  0  0
 39 46  1  1  0  0  0
 40 41  1  6  0  0  0
 40 31  1  0  0  0  0
 40 39  1  0  0  0  0
 41 43  1  0  0  0  0
 42 41  1  0  0  0  0
 43 44  1  0  0  0  0
 44 39  1  0  0  0  0
 45 44  1  0  0  0  0
 46 47  1  0  0  0  0
M  END
>  <minimizedAffinity>
-5.48037004

$$$$

 OpenBabel03242521313D

 47 50  0  0  1  0  0  0  0  0999 V2000
   38.5090   29.0750   41.0980 C   0  0  1  0  0  0  0  0  0  0  0  0
   37.3660   30.0800   41.2060 C   0  0  2  0  0  0  0  0  0  0  0  0
   36.2860   29.7110   40.4550 O   0  0  0  0  0  0  0  0  0  0  0  0
   35.7260   28.6120   41.0430 C   0  0  0  0  0  0  0  0  0  0  0  0
   36.6260   27.4310   40.8380 C   0  0  2  0  0  0  0  0  0  0  0  0
   38.0920   27.6680   41.1420 C   0  0  2  0  0  0  0  0  0  0  0  0
   39.1580   29.2590   42.0070 H   0  0  0  0  0  0  0  0  0  0  0  0
   37.1510   30.1510   42.3070 H   0  0  0  0  0  0  0  0  0  0  0  0
   34.7330   28.3460   40.6890 H   0  0  0  0  0  0  0  0  0  0  0  0
   35.6920   28.8240   42.1520 H   0  0  0  0  0  0  0  0  0  0  0  0
   36.2050   26.6430   41.4890 H   0  0  0  0  0  0  0  0  0  0  0  0
   38.6240   27.0900   40.3590 H   0  0  0  0  0  0  0  0  0  0  0  0
   37.4910   33.5000   39.5770 C   0  0  0  0  0  0  0  0  0  0  0  0
   37.0180   32.2360   39.9450 C   0  0  0  0  0  0  0  0  0  0  0  0
   37.8220   31.4160   40.8040 C   0  0  0  0  0  0  0  0  0  0  0  0
   39.0110   31.8920   41.2280 N   0  0  0  0  0  0  0  0  0  0  0  0
   39.4370   33.1410   40.8400 C   0  0  0  0  0  0  0  0  0  0  0  0
   38.6830   33.9350   40.0230 N   0  0  0  0  0  0  0  0  0  0  0  0
   36.9150   34.1420   38.9350 H   0  0  0  0  0  0  0  0  0  0  0  0
   36.0590   31.8710   39.5940 H   0  0  0  0  0  0  0  0  0  0  0  0
   40.4070   33.4490   41.2250 H   0  0  0  0  0  0  0  0  0  0  0  0
   39.3450   29.3540   40.0280 O   0  0  0  0  0  0  0  0  0  0  0  0
   40.0750   29.9790   40.2390 H   0  0  0  0  0  0  0  0  0  0  0  0
   36.4640   27.0760   39.4890 O   0  0  0  0  0  0  0  0  0  0  0  0
   35.5800   26.6620   39.4220 H   0  0  0  0  0  0  0  0  0  0  0  0
   38.4060   27.0080   42.3360 O   0  0  0  0  0  0  0  0  0  0  0  0
   40.5570   26.5160   41.5240 N   0  0  0  0  0  0  0  0  0  0  0  0
   41.1210   27.4320   42.5230 C   0  0  0  0  0  0  0  0  0  0  0  0
   41.2970   26.4740   43.6790 C   0  0  0  0  0  0  0  0  0  0  0  0
   39.9670   25.7570   43.6300 C   0  0  0  0  0  0  0  0  0  0  0  0
   39.3840   26.0640   42.2260 C   0  0  1  0  0  0  0  0  0  0  0  0
   40.3270   27.0370   40.6430 H   0  0  0  0  0  0  0  0  0  0  0  0
   40.4690   28.2720   42.7590 H   0  0  0  0  0  0  0  0  0  0  0  0
   42.1240   27.7110   42.1680 H   0  0  0  0  0  0  0  0  0  0  0  0
   42.1730   25.8430   43.5560 H   0  0  0  0  0  0  0  0  0  0  0  0
   41.3370   27.0440   44.6540 H   0  0  0  0  0  0  0  0  0  0  0  0
   39.2610   26.1810   44.3520 H   0  0  0  0  0  0  0  0  0  0  0  0
   40.1680   24.7110   43.7990 H   0  0  0  0  0  0  0  0  0  0  0  0
   39.0450   24.4920   40.2560 C   0  0  1  0  0  3  0  0  0  0  0  0
   39.0500   24.7000   41.7250 C   0  0  2  0  0  3  0  0  0  0  0  0
   37.6500   24.3520   42.1770 C   0  0  0  0  0  3  0  0  0  0  0  0
   37.5870   23.4060   42.7610 H   0  0  0  0  0  0  0  0  0  0  0  0
   36.8870   24.1430   41.0450 O   0  0  0  0  0  0  0  0  0  0  0  0
   37.7170   23.8220   39.9850 C   0  0  0  0  0  3  0  0  0  0  0  0
   37.7790   22.7160   39.9290 H   0  0  0  0  0  0  0  0  0  0  0  0
   39.2030   25.6520   39.5020 O   0  0  0  0  0  0  0  0  0  0  0  0
   39.9010   25.5650   38.7930 H   0  0  0  0  0  0  0  0  0  0  0  0
  1  6  1  0  0  0  0
  1  2  1  0  0  0  0
  1  7  1  1  0  0  0
  2  8  1  1  0  0  0
  3  4  1  0  0  0  0
  3  2  1  0  0  0  0
  4 10  1  0  0  0  0
  5  4  1  0  0  0  0
  5  6  1  0  0  0  0
  5 11  1  1  0  0  0
  6 12  1  6  0  0  0
  6 26  1  0  0  0  0
  9  4  1  0  0  0  0
 13 14  2  0  0  0  0
 13 18  1  0  0  0  0
 14 15  1  0  0  0  0
 15  2  1  0  0  0  0
 15 16  2  0  0  0  0
 17 21  1  0  0  0  0
 17 16  1  0  0  0  0
 18 17  2  0  0  0  0
 19 13  1  0  0  0  0
 20 14  1  0  0  0  0
 22 23  1  0  0  0  0
 22  1  1  0  0  0  0
 24  5  1  0  0  0  0
 25 24  1  0  0  0  0
 27 31  1  0  0  0  0
 27 28  1  0  0  0  0
 28 33  1  0  0  0  0
 28 29  1  0  0  0  0
 29 36  1  0  0  0  0
 30 29  1  0  0  0  0
 30 38  1  0  0  0  0
 30 37  1  0  0  0  0
 31 26  1  6  0  0  0
 31 30  1  0  0  0  0
 32 27  1  0  0  0  0
 34 28  1  0  0  0  0
 35 29  1  0  0  0  0
 39 46  1  6  0  0  0
 39 40  1  0  0  0  0
 40 41  1  6  0  0  0
 40 31  1  0  0  0  0
 41 42  1  0  0  0  0
 43 41  1  0  0  0  0
 44 39  1  0  0  0  0
 44 43  1  0  0  0  0
 45 44  1  0  0  0  0
 47 46  1  0  0  0  0
M  END
>  <minimizedAffinity>
-5.47902441

$$$$

 OpenBabel03242521313D

 47 50  0  0  1  0  0  0  0  0999 V2000
   36.7040   27.9560   38.8000 C   0  0  1  0  0  0  0  0  0  0  0  0
   35.8520   26.8590   38.1690 C   0  0  2  0  0  0  0  0  0  0  0  0
   36.4110   25.6220   38.3270 O   0  0  0  0  0  0  0  0  0  0  0  0
   36.3260   25.2930   39.6500 C   0  0  0  0  0  0  0  0  0  0  0  0
   37.2880   26.1360   40.4310 C   0  0  2  0  0  0  0  0  0  0  0  0
   37.2600   27.6180   40.1160 C   0  0  2  0  0  0  0  0  0  0  0  0
   36.0020   28.8330   38.9490 H   0  0  0  0  0  0  0  0  0  0  0  0
   34.8440   26.9670   38.6520 H   0  0  0  0  0  0  0  0  0  0  0  0
   36.5220   24.2500   39.8870 H   0  0  0  0  0  0  0  0  0  0  0  0
   35.2840   25.5710   39.9830 H   0  0  0  0  0  0  0  0  0  0  0  0
   37.0300   25.9470   41.4890 H   0  0  0  0  0  0  0  0  0  0  0  0
   38.3260   27.9230   40.1670 H   0  0  0  0  0  0  0  0  0  0  0  0
   35.6290   26.4080   34.4120 C   0  0  0  0  0  0  0  0  0  0  0  0
   35.8310   26.1040   35.7630 C   0  0  0  0  0  0  0  0  0  0  0  0
   35.6410   27.1340   36.7430 C   0  0  0  0  0  0  0  0  0  0  0  0
   35.2730   28.3640   36.3280 N   0  0  0  0  0  0  0  0  0  0  0  0
   35.0860   28.6180   34.9890 C   0  0  0  0  0  0  0  0  0  0  0  0
   35.2630   27.6480   34.0430 N   0  0  0  0  0  0  0  0  0  0  0  0
   35.7620   25.6610   33.6500 H   0  0  0  0  0  0  0  0  0  0  0  0
   36.1270   25.1090   36.0770 H   0  0  0  0  0  0  0  0  0  0  0  0
   34.7910   29.6340   34.7390 H   0  0  0  0  0  0  0  0  0  0  0  0
   37.6610   28.4410   37.9210 O   0  0  0  0  0  0  0  0  0  0  0  0
   37.3470   29.1780   37.3510 H   0  0  0  0  0  0  0  0  0  0  0  0
   38.5570   25.6060   40.1450 O   0  0  0  0  0  0  0  0  0  0  0  0
   38.6090   24.7550   40.6240 H   0  0  0  0  0  0  0  0  0  0  0  0
   36.6550   28.2850   41.1890 O   0  0  0  0  0  0  0  0  0  0  0  0
   37.2290   29.1220   43.3090 N   0  0  0  0  0  0  0  0  0  0  0  0
   37.7220   27.7890   43.6790 C   0  0  0  0  0  0  0  0  0  0  0  0
   39.1520   27.9030   43.2050 C   0  0  0  0  0  0  0  0  0  0  0  0
   38.9300   28.5390   41.8510 C   0  0  0  0  0  0  0  0  0  0  0  0
   37.4860   29.1040   41.8930 C   0  0  1  0  0  0  0  0  0  0  0  0
   36.2090   29.2070   43.5350 H   0  0  0  0  0  0  0  0  0  0  0  0
   37.1770   26.9770   43.2010 H   0  0  0  0  0  0  0  0  0  0  0  0
   37.7390   27.7500   44.7780 H   0  0  0  0  0  0  0  0  0  0  0  0
   39.7660   28.4760   43.8940 H   0  0  0  0  0  0  0  0  0  0  0  0
   39.5870   26.8750   43.0270 H   0  0  0  0  0  0  0  0  0  0  0  0
   38.9380   27.7860   41.0540 H   0  0  0  0  0  0  0  0  0  0  0  0
   39.6910   29.2930   41.7290 H   0  0  0  0  0  0  0  0  0  0  0  0
   36.5050   31.2710   40.9930 C   0  0  1  0  0  3  0  0  0  0  0  0
   37.6950   30.5130   41.4510 C   0  0  2  0  0  3  0  0  0  0  0  0
   38.6390   30.5100   40.2700 C   0  0  0  0  0  3  0  0  0  0  0  0
   39.5430   31.1450   40.4130 H   0  0  0  0  0  0  0  0  0  0  0  0
   37.9650   31.0600   39.1960 O   0  0  0  0  0  0  0  0  0  0  0  0
   36.9280   31.8500   39.6620 C   0  0  0  0  0  3  0  0  0  0  0  0
   37.3040   32.8920   39.7280 H   0  0  0  0  0  0  0  0  0  0  0  0
   35.3400   30.5170   40.8810 O   0  0  0  0  0  0  0  0  0  0  0  0
   34.5540   30.9440   41.3250 H   0  0  0  0  0  0  0  0  0  0  0  0
  1  7  1  1  0  0  0
  1  6  1  0  0  0  0
  2  3  1  0  0  0  0
  2  8  1  1  0  0  0
  2  1  1  0  0  0  0
  3  4  1  0  0  0  0
  4  9  1  0  0  0  0
  4 10  1  0  0  0  0
  4  5  1  0  0  0  0
  5 11  1  1  0  0  0
  6 12  1  6  0  0  0
  6  5  1  0  0  0  0
  6 26  1  0  0  0  0
 13 14  1  0  0  0  0
 14 20  1  0  0  0  0
 14 15  2  0  0  0  0
 15  2  1  0  0  0  0
 16 15  1  0  0  0  0
 17 16  2  0  0  0  0
 18 13  2  0  0  0  0
 18 17  1  0  0  0  0
 19 13  1  0  0  0  0
 21 17  1  0  0  0  0
 22  1  1  0  0  0  0
 23 22  1  0  0  0  0
 24  5  1  0  0  0  0
 24 25  1  0  0  0  0
 27 32  1  0  0  0  0
 27 28  1  0  0  0  0
 28 34  1  0  0  0  0
 29 28  1  0  0  0  0
 29 35  1  0  0  0  0
 30 31  1  0  0  0  0
 30 29  1  0  0  0  0
 31 26  1  6  0  0  0
 31 27  1  0  0  0  0
 33 28  1  0  0  0  0
 36 29  1  0  0  0  0
 37 30  1  0  0  0  0
 38 30  1  0  0  0  0
 39 46  1  6  0  0  0
 39 40  1  0  0  0  0
 40 41  1  6  0  0  0
 40 31  1  0  0  0  0
 41 42  1  0  0  0  0
 43 44  1  0  0  0  0
 43 41  1  0  0  0  0
 44 45  1  0  0  0  0
 44 39  1  0  0  0  0
 46 47  1  0  0  0  0
M  END
>  <minimizedAffinity>
-5.39908314

$$$$

 OpenBabel03242521313D

 47 50  0  0  1  0  0  0  0  0999 V2000
   39.2260   28.9840   41.4490 C   0  0  1  0  0  0  0  0  0  0  0  0
   40.0170   28.5320   42.6710 C   0  0  2  0  0  0  0  0  0  0  0  0
   41.3000   29.0010   42.6540 O   0  0  0  0  0  0  0  0  0  0  0  0
   41.2510   30.3510   42.8580 C   0  0  0  0  0  0  0  0  0  0  0  0
   40.6940   31.0140   41.6350 C   0  0  2  0  0  0  0  0  0  0  0  0
   39.4370   30.3860   41.0680 C   0  0  2  0  0  0  0  0  0  0  0  0
   38.1360   28.8780   41.7390 H   0  0  0  0  0  0  0  0  0  0  0  0
   39.4140   28.8880   43.5500 H   0  0  0  0  0  0  0  0  0  0  0  0
   42.2010   30.8250   43.0960 H   0  0  0  0  0  0  0  0  0  0  0  0
   40.5180   30.5230   43.7000 H   0  0  0  0  0  0  0  0  0  0  0  0
   40.5150   32.0620   41.9420 H   0  0  0  0  0  0  0  0  0  0  0  0
   39.5700   30.4650   39.9690 H   0  0  0  0  0  0  0  0  0  0  0  0
   41.1950   24.9600   43.1470 C   0  0  0  0  0  0  0  0  0  0  0  0
   41.2280   26.3570   43.0790 C   0  0  0  0  0  0  0  0  0  0  0  0
   40.0220   27.0670   42.7620 C   0  0  0  0  0  0  0  0  0  0  0  0
   38.8940   26.3610   42.5400 N   0  0  0  0  0  0  0  0  0  0  0  0
   38.9080   24.9880   42.6160 C   0  0  0  0  0  0  0  0  0  0  0  0
   40.0470   24.2970   42.9170 N   0  0  0  0  0  0  0  0  0  0  0  0
   42.0790   24.3960   43.3810 H   0  0  0  0  0  0  0  0  0  0  0  0
   42.1450   26.9070   43.2610 H   0  0  0  0  0  0  0  0  0  0  0  0
   37.9570   24.4960   42.4230 H   0  0  0  0  0  0  0  0  0  0  0  0
   39.3730   28.1100   40.3820 O   0  0  0  0  0  0  0  0  0  0  0  0
   38.7270   27.3690   40.3770 H   0  0  0  0  0  0  0  0  0  0  0  0
   41.7280   30.9640   40.6860 O   0  0  0  0  0  0  0  0  0  0  0  0
   42.3950   31.6180   40.9770 H   0  0  0  0  0  0  0  0  0  0  0  0
   38.3570   31.2320   41.3500 O   0  0  0  0  0  0  0  0  0  0  0  0
   37.3750   33.1830   40.4800 N   0  0  0  0  0  0  0  0  0  0  0  0
   38.6810   33.8500   40.5560 C   0  0  0  0  0  0  0  0  0  0  0  0
   39.2390   33.4790   39.2010 C   0  0  0  0  0  0  0  0  0  0  0  0
   38.8740   32.0120   39.1590 C   0  0  0  0  0  0  0  0  0  0  0  0
   37.7950   31.8240   40.2570 C   0  0  1  0  0  0  0  0  0  0  0  0
   36.8520   33.3040   41.3800 H   0  0  0  0  0  0  0  0  0  0  0  0
   39.2990   33.5000   41.3820 H   0  0  0  0  0  0  0  0  0  0  0  0
   38.4860   34.9320   40.5510 H   0  0  0  0  0  0  0  0  0  0  0  0
   38.8160   34.0880   38.4060 H   0  0  0  0  0  0  0  0  0  0  0  0
   40.3670   33.5460   39.2130 H   0  0  0  0  0  0  0  0  0  0  0  0
   39.7220   31.3850   39.4550 H   0  0  0  0  0  0  0  0  0  0  0  0
   38.5210   31.8050   38.1610 H   0  0  0  0  0  0  0  0  0  0  0  0
   35.6680   30.4300   40.2990 C   0  0  1  0  0  3  0  0  0  0  0  0
   36.7100   31.1290   39.5080 C   0  0  2  0  0  3  0  0  0  0  0  0
   37.3350   30.0550   38.6450 C   0  0  0  0  0  3  0  0  0  0  0  0
   37.0860   30.1440   37.5640 H   0  0  0  0  0  0  0  0  0  0  0  0
   36.8130   28.8410   39.0490 O   0  0  0  0  0  0  0  0  0  0  0  0
   35.6020   29.0510   39.6840 C   0  0  0  0  0  3  0  0  0  0  0  0
   34.8000   28.9390   38.9250 H   0  0  0  0  0  0  0  0  0  0  0  0
   35.9160   30.3740   41.6690 O   0  0  0  0  0  0  0  0  0  0  0  0
   35.1320   30.6570   42.2190 H   0  0  0  0  0  0  0  0  0  0  0  0
  1  7  1  1  0  0  0
  1  2  1  0  0  0  0
  2 15  1  0  0  0  0
  2  8  1  1  0  0  0
  3  2  1  0  0  0  0
  3  4  1  0  0  0  0
  4  9  1  0  0  0  0
  4 10  1  0  0  0  0
  5 11  1  1  0  0  0
  5  4  1  0  0  0  0
  6 12  1  6  0  0  0
  6 26  1  0  0  0  0
  6  1  1  0  0  0  0
  6  5  1  0  0  0  0
 13 19  1  0  0  0  0
 14 13  1  0  0  0  0
 14 20  1  0  0  0  0
 15 14  2  0  0  0  0
 16 17  2  0  0  0  0
 16 15  1  0  0  0  0
 17 18  1  0  0  0  0
 18 13  2  0  0  0  0
 21 17  1  0  0  0  0
 22  1  1  0  0  0  0
 23 22  1  0  0  0  0
 24 25  1  0  0  0  0
 24  5  1  0  0  0  0
 27 28  1  0  0  0  0
 27 32  1  0  0  0  0
 28 33  1  0  0  0  0
 29 36  1  0  0  0  0
 29 28  1  0  0  0  0
 30 29  1  0  0  0  0
 30 37  1  0  0  0  0
 30 31  1  0  0  0  0
 31 27  1  0  0  0  0
 31 26  1  1  0  0  0
 34 28  1  0  0  0  0
 35 29  1  0  0  0  0
 38 30  1  0  0  0  0
 39 46  1  1  0  0  0
 40 41  1  6  0  0  0
 40 31  1  0  0  0  0
 40 39  1  0  0  0  0
 41 43  1  0  0  0  0
 42 41  1  0  0  0  0
 43 44  1  0  0  0  0
 44 39  1  0  0  0  0
 45 44  1  0  0  0  0
 46 47  1  0  0  0  0
M  END
>  <minimizedAffinity>
-5.3807292

$$$$

 OpenBabel03242521313D

 47 50  0  0  1  0  0  0  0  0999 V2000
   38.2050   28.0000   40.7600 C   0  0  1  0  0  0  0  0  0  0  0  0
   37.2660   27.0500   41.4960 C   0  0  2  0  0  0  0  0  0  0  0  0
   37.8550   26.4970   42.5980 O   0  0  0  0  0  0  0  0  0  0  0  0
   38.0090   27.4870   43.5270 C   0  0  0  0  0  0  0  0  0  0  0  0
   39.0870   28.4250   43.0740 C   0  0  2  0  0  0  0  0  0  0  0  0
   38.9900   28.8820   41.6330 C   0  0  2  0  0  0  0  0  0  0  0  0
   37.5340   28.6610   40.1330 H   0  0  0  0  0  0  0  0  0  0  0  0
   36.3580   27.6690   41.7280 H   0  0  0  0  0  0  0  0  0  0  0  0
   38.2530   27.1530   44.5330 H   0  0  0  0  0  0  0  0  0  0  0  0
   37.0400   28.0660   43.5430 H   0  0  0  0  0  0  0  0  0  0  0  0
   39.0220   29.2820   43.7710 H   0  0  0  0  0  0  0  0  0  0  0  0
   40.0440   28.9150   41.2910 H   0  0  0  0  0  0  0  0  0  0  0  0
   36.3650   23.6350   40.1180 C   0  0  0  0  0  0  0  0  0  0  0  0
   36.8050   24.6180   41.0120 C   0  0  0  0  0  0  0  0  0  0  0  0
   36.8020   25.9900   40.5930 C   0  0  0  0  0  0  0  0  0  0  0  0
   36.3740   26.2860   39.3480 N   0  0  0  0  0  0  0  0  0  0  0  0
   35.9500   25.2880   38.5030 C   0  0  0  0  0  0  0  0  0  0  0  0
   35.9460   23.9770   38.8870 N   0  0  0  0  0  0  0  0  0  0  0  0
   36.3530   22.5970   40.3980 H   0  0  0  0  0  0  0  0  0  0  0  0
   37.1460   24.3590   42.0080 H   0  0  0  0  0  0  0  0  0  0  0  0
   35.6210   25.6120   37.5180 H   0  0  0  0  0  0  0  0  0  0  0  0
   38.9870   27.3360   39.8260 O   0  0  0  0  0  0  0  0  0  0  0  0
   38.5710   27.2530   38.9390 H   0  0  0  0  0  0  0  0  0  0  0  0
   40.2900   27.7300   43.2800 O   0  0  0  0  0  0  0  0  0  0  0  0
   40.4340   27.7190   44.2480 H   0  0  0  0  0  0  0  0  0  0  0  0
   38.5780   30.2210   41.6220 O   0  0  0  0  0  0  0  0  0  0  0  0
   39.9550   32.1060   41.9010 N   0  0  0  0  0  0  0  0  0  0  0  0
   40.8430   31.3060   42.7540 C   0  0  0  0  0  0  0  0  0  0  0  0
   41.7670   30.7390   41.7010 C   0  0  0  0  0  0  0  0  0  0  0  0
   40.7540   30.3250   40.6570 C   0  0  0  0  0  0  0  0  0  0  0  0
   39.4510   31.0810   41.0250 C   0  0  1  0  0  0  0  0  0  0  0  0
   39.2020   32.5520   42.4790 H   0  0  0  0  0  0  0  0  0  0  0  0
   40.3220   30.5380   43.3230 H   0  0  0  0  0  0  0  0  0  0  0  0
   41.4260   32.0150   43.3600 H   0  0  0  0  0  0  0  0  0  0  0  0
   42.5050   31.4660   41.3720 H   0  0  0  0  0  0  0  0  0  0  0  0
   42.2620   29.7980   42.0830 H   0  0  0  0  0  0  0  0  0  0  0  0
   40.5180   29.2580   40.7360 H   0  0  0  0  0  0  0  0  0  0  0  0
   41.1620   30.5990   39.6970 H   0  0  0  0  0  0  0  0  0  0  0  0
   37.7670   32.3840   39.6330 C   0  0  1  0  0  3  0  0  0  0  0  0
   39.0930   31.7260   39.7290 C   0  0  2  0  0  3  0  0  0  0  0  0
   39.0850   30.6650   38.6520 C   0  0  0  0  0  3  0  0  0  0  0  0
   39.7560   30.8900   37.7920 H   0  0  0  0  0  0  0  0  0  0  0  0
   37.8090   30.6160   38.1250 O   0  0  0  0  0  0  0  0  0  0  0  0
   37.1670   31.8190   38.3660 C   0  0  0  0  0  3  0  0  0  0  0  0
   37.3150   32.4640   37.4760 H   0  0  0  0  0  0  0  0  0  0  0  0
   36.9360   32.1840   40.7330 O   0  0  0  0  0  0  0  0  0  0  0  0
   36.5360   33.0310   41.0790 H   0  0  0  0  0  0  0  0  0  0  0  0
  1  7  1  6  0  0  0
  1  2  1  0  0  0  0
  1  6  1  0  0  0  0
  2  8  1  1  0  0  0
  2  3  1  0  0  0  0
  3  4  1  0  0  0  0
  4 10  1  0  0  0  0
  4  9  1  0  0  0  0
  5 24  1  0  0  0  0
  5  4  1  0  0  0  0
  5 11  1  1  0  0  0
  6 12  1  6  0  0  0
  6  5  1  0  0  0  0
 13 19  1  0  0  0  0
 13 14  1  0  0  0  0
 14 20  1  0  0  0  0
 15 14  2  0  0  0  0
 15  2  1  0  0  0  0
 16 15  1  0  0  0  0
 17 18  1  0  0  0  0
 17 16  2  0  0  0  0
 18 13  2  0  0  0  0
 21 17  1  0  0  0  0
 22  1  1  0  0  0  0
 23 22  1  0  0  0  0
 24 25  1  0  0  0  0
 26  6  1  0  0  0  0
 27 32  1  0  0  0  0
 27 28  1  0  0  0  0
 28 33  1  0  0  0  0
 28 34  1  0  0  0  0
 29 36  1  0  0  0  0
 29 28  1  0  0  0  0
 30 37  1  0  0  0  0
 30 31  1  0  0  0  0
 30 29  1  0  0  0  0
 31 26  1  1  0  0  0
 31 27  1  0  0  0  0
 35 29  1  0  0  0  0
 38 30  1  0  0  0  0
 39 40  1  0  0  0  0
 39 46  1  1  0  0  0
 40 41  1  6  0  0  0
 40 31  1  0  0  0  0
 42 41  1  0  0  0  0
 43 44  1  0  0  0  0
 43 41  1  0  0  0  0
 44 39  1  0  0  0  0
 45 44  1  0  0  0  0
 46 47  1  0  0  0  0
M  END
>  <minimizedAffinity>
-5.36034441

$$$$

 OpenBabel03242521313D

 47 50  0  0  1  0  0  0  0  0999 V2000
   40.7490   30.0190   38.7270 C   0  0  1  0  0  0  0  0  0  0  0  0
   42.0460   30.0200   37.9240 C   0  0  2  0  0  0  0  0  0  0  0  0
   41.9330   30.7420   36.7690 O   0  0  0  0  0  0  0  0  0  0  0  0
   41.8360   32.0610   37.1120 C   0  0  0  0  0  0  0  0  0  0  0  0
   40.4940   32.3120   37.7310 C   0  0  2  0  0  0  0  0  0  0  0  0
   40.0720   31.3200   38.7960 C   0  0  2  0  0  0  0  0  0  0  0  0
   41.0500   29.7430   39.7830 H   0  0  0  0  0  0  0  0  0  0  0  0
   42.8210   30.4150   38.6340 H   0  0  0  0  0  0  0  0  0  0  0  0
   41.9690   32.7690   36.2970 H   0  0  0  0  0  0  0  0  0  0  0  0
   42.6160   32.2440   37.9080 H   0  0  0  0  0  0  0  0  0  0  0  0
   40.5630   33.3350   38.1430 H   0  0  0  0  0  0  0  0  0  0  0  0
   38.9830   31.1900   38.6250 H   0  0  0  0  0  0  0  0  0  0  0  0
   43.7970   26.6620   38.0940 C   0  0  0  0  0  0  0  0  0  0  0  0
   43.4260   27.9700   38.4270 C   0  0  0  0  0  0  0  0  0  0  0  0
   42.4560   28.6450   37.6140 C   0  0  0  0  0  0  0  0  0  0  0  0
   41.9340   27.9950   36.5530 N   0  0  0  0  0  0  0  0  0  0  0  0
   42.3290   26.7100   36.2620 C   0  0  0  0  0  0  0  0  0  0  0  0
   43.2510   26.0530   37.0260 N   0  0  0  0  0  0  0  0  0  0  0  0
   44.5210   26.1260   38.6800 H   0  0  0  0  0  0  0  0  0  0  0  0
   43.8570   28.4750   39.2840 H   0  0  0  0  0  0  0  0  0  0  0  0
   41.8610   26.2590   35.3900 H   0  0  0  0  0  0  0  0  0  0  0  0
   39.9010   28.9910   38.3420 O   0  0  0  0  0  0  0  0  0  0  0  0
   40.0550   28.1440   38.8160 H   0  0  0  0  0  0  0  0  0  0  0  0
   39.5850   32.2860   36.6610 O   0  0  0  0  0  0  0  0  0  0  0  0
   39.7290   33.1160   36.1630 H   0  0  0  0  0  0  0  0  0  0  0  0
   40.1560   31.9500   40.0440 O   0  0  0  0  0  0  0  0  0  0  0  0
   38.7570   33.3400   41.3240 N   0  0  0  0  0  0  0  0  0  0  0  0
   38.5140   34.1600   40.1310 C   0  0  0  0  0  0  0  0  0  0  0  0
   37.3240   33.4290   39.5540 C   0  0  0  0  0  0  0  0  0  0  0  0
   37.7990   32.0000   39.6970 C   0  0  0  0  0  0  0  0  0  0  0  0
   38.9710   32.0550   40.7110 C   0  0  1  0  0  0  0  0  0  0  0  0
   39.6010   33.6900   41.8400 H   0  0  0  0  0  0  0  0  0  0  0  0
   39.3630   34.1980   39.4500 H   0  0  0  0  0  0  0  0  0  0  0  0
   38.1620   35.1400   40.4850 H   0  0  0  0  0  0  0  0  0  0  0  0
   36.4040   33.6690   40.0800 H   0  0  0  0  0  0  0  0  0  0  0  0
   37.2320   33.6450   38.4480 H   0  0  0  0  0  0  0  0  0  0  0  0
   38.2270   31.6300   38.7580 H   0  0  0  0  0  0  0  0  0  0  0  0
   36.9550   31.4210   40.0360 H   0  0  0  0  0  0  0  0  0  0  0  0
   39.6410   30.4370   42.5560 C   0  0  1  0  0  3  0  0  0  0  0  0
   38.5750   31.0080   41.6970 C   0  0  2  0  0  3  0  0  0  0  0  0
   38.0050   29.8300   40.9400 C   0  0  0  0  0  3  0  0  0  0  0  0
   36.9770   29.5450   41.2590 H   0  0  0  0  0  0  0  0  0  0  0  0
   38.7980   28.7330   41.2190 O   0  0  0  0  0  0  0  0  0  0  0  0
   39.4670   28.9430   42.4120 C   0  0  0  0  0  3  0  0  0  0  0  0
   38.8620   28.4840   43.2220 H   0  0  0  0  0  0  0  0  0  0  0  0
   40.9330   30.8410   42.2280 O   0  0  0  0  0  0  0  0  0  0  0  0
   41.4560   31.1570   43.0190 H   0  0  0  0  0  0  0  0  0  0  0  0
  1  6  1  0  0  0  0
  1  7  1  1  0  0  0
  2  8  1  1  0  0  0
  2  1  1  0  0  0  0
  3  4  1  0  0  0  0
  3  2  1  0  0  0  0
  4  5  1  0  0  0  0
  4 10  1  0  0  0  0
  5 11  1  1  0  0  0
  5  6  1  0  0  0  0
  6 12  1  6  0  0  0
  6 26  1  0  0  0  0
  9  4  1  0  0  0  0
 13 14  1  0  0  0  0
 13 19  1  0  0  0  0
 14 20  1  0  0  0  0
 15  2  1  0  0  0  0
 15 14  2  0  0  0  0
 16 15  1  0  0  0  0
 17 16  2  0  0  0  0
 17 18  1  0  0  0  0
 18 13  2  0  0  0  0
 21 17  1  0  0  0  0
 22  1  1  0  0  0  0
 22 23  1  0  0  0  0
 24  5  1  0  0  0  0
 25 24  1  0  0  0  0
 27 32  1  0  0  0  0
 28 34  1  0  0  0  0
 28 27  1  0  0  0  0
 29 30  1  0  0  0  0
 29 35  1  0  0  0  0
 29 28  1  0  0  0  0
 30 38  1  0  0  0  0
 30 31  1  0  0  0  0
 31 26  1  6  0  0  0
 31 27  1  0  0  0  0
 31 40  1  0  0  0  0
 33 28  1  0  0  0  0
 36 29  1  0  0  0  0
 37 30  1  0  0  0  0
 39 46  1  6  0  0  0
 40 41  1  6  0  0  0
 40 39  1  0  0  0  0
 41 43  1  0  0  0  0
 41 42  1  0  0  0  0
 43 44  1  0  0  0  0
 44 39  1  0  0  0  0
 44 45  1  0  0  0  0
 46 47  1  0  0  0  0
M  END
>  <minimizedAffinity>
-5.31529284

$$$$
