
     RDKit          3D

 29 30  0  0  0  0  0  0  0  0999 V2000
   44.6896   35.5197   43.6217 C   0  0  0  0  0  0  0  0  0  0  0  0
   43.9429   35.4280   42.4307 C   0  0  0  0  0  0  0  0  0  0  0  0
   43.7809   34.1697   41.8278 C   0  0  0  0  0  0  0  0  0  0  0  0
   44.3616   33.0992   42.4364 N   0  0  0  0  0  0  0  0  0  0  0  0
   45.0700   33.2287   43.5782 C   0  0  0  0  0  0  0  0  0  0  0  0
   45.2230   34.4226   44.1492 N   0  0  0  0  0  0  0  0  0  0  0  0
   44.8316   36.8447   44.2120 C   0  0  0  0  0  0  0  0  0  0  0  0
   45.2555   37.8411   43.4537 C   0  0  0  0  0  0  0  0  0  0  0  0
   45.4258   39.2123   43.9763 C   0  0  0  0  0  0  0  0  0  0  0  0
   43.5003   36.3210   41.9881 H   0  0  0  0  0  0  0  0  0  0  0  0
   43.2122   34.0715   40.9126 H   0  0  0  0  0  0  0  0  0  0  0  0
   45.5296   32.3891   44.0620 H   0  0  0  0  0  0  0  0  0  0  0  0
   44.6127   37.1007   45.2593 H   0  0  0  0  0  0  0  0  0  0  0  0
   45.5056   37.7309   42.4126 H   0  0  0  0  0  0  0  0  0  0  0  0
   45.0943   39.3460   45.0217 H   0  0  0  0  0  0  0  0  0  0  0  0
   44.8485   39.8757   43.2718 H   0  0  0  0  0  0  0  0  0  0  0  0
   49.7007   37.6012   44.1465 O   0  0  0  0  0  0  0  0  0  0  0  0
   49.0234   38.8174   44.0749 C   0  0  1  0  0  0  0  0  0  0  0  0
   47.7633   38.6551   43.2139 C   0  0  1  0  0  0  0  0  0  0  0  0
   47.9689   38.7922   42.1460 H   0  0  0  0  0  0  0  0  0  0  0  0
   46.8768   39.6795   43.8359 C   0  0  2  0  0  0  0  0  0  0  0  0
   47.4059   40.0758   45.0347 O   0  0  0  0  0  0  0  0  0  0  0  0
   48.4099   39.2115   45.3959 C   0  0  2  0  0  0  0  0  0  0  0  0
   49.1460   39.7163   46.0580 H   0  0  0  0  0  0  0  0  0  0  0  0
   50.3142   37.5920   44.9191 H   0  0  0  0  0  0  0  0  0  0  0  0
   49.6414   39.6477   43.6886 H   0  0  0  0  0  0  0  0  0  0  0  0
   47.3677   37.6364   43.4216 H   0  0  0  0  0  0  0  0  0  0  0  0
   46.8538   40.5780   43.1621 H   0  0  0  0  0  0  0  0  0  0  0  0
   48.0003   38.2807   45.8809 H   0  0  0  0  0  0  0  0  0  0  0  0
  1  6  1  0
  1  7  1  0
  2  1  2  0
  3  2  1  0
  3  4  2  0
  4  5  1  0
  5  6  2  0
  8  9  1  0
  8  7  2  0
  2 10  1  0
  3 11  1  0
  5 12  1  0
  7 13  1  0
  8 14  1  0
  9 15  1  0
  9 16  1  0
 17 18  1  0
 18 19  1  0
 19 20  1  6
 19 21  1  0
 21 22  1  0
 22 23  1  0
 23 24  1  1
 23 18  1  0
 17 25  1  0
 18 26  1  6
 19 27  1  0
 21 28  1  6
 23 29  1  0
  9 21  1  0
M  ISO  7  10  14  11  14  12  14  15   8  16   8  20   8  24  16
M  END
>  <DihAtoms>  (1) 
7,8,20,18

>  <DihDeg>  (1) 
-60.00613199770404

$$$$
