REMARK  Name = 
REMARK  9 active torsions:
REMARK  status: ('A' for Active; 'I' for Inactive)
REMARK    1  A    between atoms: C_1  and  C_5
REMARK    2  A    between atoms: C_1  and  C_15
REMARK    3  A    between atoms: C_9  and  O_10
REMARK    4  A    between atoms: O_10  and  P_12
REMARK    5  A    between atoms: P_12  and  O_13
REMARK    6  A    between atoms: P_12  and  O_14
REMARK    7  A    between atoms: C_16  and  C_21
REMARK    8  A    between atoms: C_23  and  C_37
REMARK    9  A    between atoms: O_35  and  C_36
REMARK                            x       y       z     vdW  Elec       q    Type
REMARK                         _______ _______ _______ _____ _____    ______ ____
ROOT
ATOM      1  C   UNL     1      47.396  32.788  43.964  0.00  0.00    +0.000 A 
ATOM      2  C   UNL     1      48.255  33.299  43.088  0.00  0.00    +0.000 A 
ATOM      3  C   UNL     1      49.078  32.371  42.484  0.00  0.00    +0.000 A 
ATOM      4  N   UNL     1      48.935  31.022  42.842  0.00  0.00    +0.000 NA
ATOM      5  C   UNL     1      48.072  30.585  43.713  0.00  0.00    +0.000 A 
ATOM      6  N   UNL     1      47.229  31.482  44.339  0.00  0.00    +0.000 NA
ATOM      7  H   UNL     1      49.853  32.522  41.747  0.00  0.00    +0.000 HD
ATOM      8  H   UNL     1      48.066  29.507  43.901  0.00  0.00    +0.000 HD
ENDROOT
BRANCH   2   9
ATOM      9  C   UNL     1      48.485  34.665  42.801  0.00  0.00    +0.000 C 
ATOM     10  C   UNL     1      49.531  35.238  42.147  0.00  0.00    +0.000 C 
ATOM     11  C   UNL     1      48.263  35.190  41.353  0.00  0.00    +0.000 C 
ATOM     12  H   UNL     1      48.058  35.333  43.599  0.00  0.00    +0.000 HD
ATOM     13  H   UNL     1      50.389  34.587  41.801  0.00  0.00    +0.000 HD
ATOM     14  H   UNL     1      49.931  36.271  42.255  0.00  0.00    +0.000 HD
ATOM     15  H   UNL     1      47.639  36.107  41.306  0.00  0.00    +0.000 HD
BRANCH  11  17
ATOM     16  C   UNL     1      46.959  33.798  39.684  0.00  0.00    +0.000 C 
ATOM     17  C   UNL     1      48.266  34.337  40.171  0.00  0.00    +0.000 C 
ATOM     18  C   UNL     1      48.711  35.190  39.007  0.00  0.00    +0.000 C 
ATOM     19  H   UNL     1      49.356  36.020  39.364  0.00  0.00    +0.000 HD
ATOM     20  O   UNL     1      47.535  35.710  38.515  0.00  0.00    +0.000 OA
ATOM     21  C   UNL     1      46.638  34.638  38.491  0.00  0.00    +0.000 C 
ATOM     22  H   UNL     1      45.595  34.981  38.566  0.00  0.00    +0.000 HD
BRANCH  16  23
ATOM     23  O   UNL     1      47.187  32.489  39.211  0.00  0.00    +0.000 OA
ATOM     24  H   UNL     1      47.174  32.428  38.230  0.00  0.00    +0.000 HD
ENDBRANCH  16  23
ENDBRANCH  11  17
ENDBRANCH   2   9
BRANCH   1  25
ATOM     25  C   UNL     1      46.353  33.529  44.705  0.00  0.00    +0.000 C 
ATOM     26  O   UNL     1      45.800  33.908  45.697  0.00  0.00    +0.000 OA
BRANCH  25  29
ATOM     27 CL   UNL     1      44.490  31.804  42.948  0.00  0.00    +0.000 Cl
ATOM     28  C   UNL     1      44.559  33.555  42.819  0.00  0.00    +0.000 A 
ATOM     29  C   UNL     1      45.458  34.199  43.709  0.00  0.00    +0.000 A 
ATOM     30  C   UNL     1      45.416  35.561  43.516  0.00  0.00    +0.000 A 
ATOM     31  C   UNL     1      44.709  36.301  42.674  0.00  0.00    +0.000 A 
ATOM     32  C   UNL     1      43.860  35.605  41.840  0.00  0.00    +0.000 A 
ATOM     33  C   UNL     1      43.779  34.246  41.907  0.00  0.00    +0.000 A 
ATOM     34  H   UNL     1      46.052  36.195  44.178  0.00  0.00    +0.000 HD
ATOM     35  H   UNL     1      44.747  37.386  42.593  0.00  0.00    +0.000 HD
ATOM     36  H   UNL     1      43.253  36.186  41.122  0.00  0.00    +0.000 HD
BRANCH  33  37
ATOM     37  O   UNL     1      42.897  33.674  41.029  0.00  0.00    +0.000 OA
BRANCH  37  39
ATOM     38  O   UNL     1      40.620  33.073  39.874  0.00  0.00    +0.000 OA
ATOM     39  P   UNL     1      41.249  33.321  41.223  0.00  0.00    +0.000 P 
BRANCH  39  40
ATOM     40  O   UNL     1      41.079  31.973  42.236  0.00  0.00    +0.000 OA
ATOM     41  H   UNL     1      41.217  32.221  43.169  0.00  0.00    +0.000 HD
ENDBRANCH  39  40
BRANCH  39  42
ATOM     42  O   UNL     1      40.436  34.583  42.008  0.00  0.00    +0.000 OA
ATOM     43  H   UNL     1      39.562  34.240  42.330  0.00  0.00    +0.000 HD
ENDBRANCH  39  42
ENDBRANCH  37  39
ENDBRANCH  33  37
ENDBRANCH  25  29
ENDBRANCH   1  25
TORSDOF 9
