
 OpenBabel03242518413D

 39 42  0  0  1  0  0  0  0  0999 V2000
   37.0870   31.9860   40.4810 O   0  0  0  0  0  0  0  0  0  0  0  0
   36.6340   30.6770   40.7960 C   0  0  0  0  0  0  0  0  0  0  0  0
   35.6130   29.8800   40.2540 C   0  0  0  0  0  0  0  0  0  0  0  0
   35.5870   28.6790   40.9280 C   0  0  0  0  0  0  0  0  0  0  0  0
   36.5830   28.7890   41.8440 C   0  0  0  0  0  0  0  0  0  0  0  0
   37.1970   29.9560   41.7710 O   0  0  0  0  0  0  0  0  0  0  0  0
   35.0200   30.2780   39.4370 H   0  0  0  0  0  0  0  0  0  0  0  0
   34.8890   27.9000   40.6920 H   0  0  0  0  0  0  0  0  0  0  0  0
   36.9440   27.7360   42.8170 C   0  0  2  0  0  0  0  0  0  0  0  0
   36.9650   28.0270   44.2500 C   0  0  0  0  0  0  0  0  0  0  0  0
   38.2800   28.0160   43.5580 C   0  0  1  0  0  0  0  0  0  0  0  0
   36.7840   26.6900   42.4980 H   0  0  0  0  0  0  0  0  0  0  0  0
   36.6250   29.0430   44.5940 H   0  0  0  0  0  0  0  0  0  0  0  0
   36.7250   27.2620   45.0190 H   0  0  0  0  0  0  0  0  0  0  0  0
   38.8160   28.9210   43.2770 H   0  0  0  0  0  0  0  0  0  0  0  0
   40.4960   26.8970   43.6470 C   0  0  0  0  0  0  0  0  0  0  0  0
   41.1130   27.9680   43.3760 O   0  0  0  0  0  0  0  0  0  0  0  0
   39.0840   26.8100   43.7370 N   0  0  0  0  0  0  0  0  0  0  0  0
   41.1300   26.0140   43.8130 H   0  0  0  0  0  0  0  0  0  0  0  0
   38.6460   25.8890   43.9290 H   0  0  0  0  0  0  0  0  0  0  0  0
   38.1290   32.1220   39.5330 C   0  0  0  0  0  0  0  0  0  0  0  0
   38.2450   31.1920   38.6830 O   0  0  0  0  0  0  0  0  0  0  0  0
   38.9310   33.2910   39.6400 C   0  0  0  0  0  0  0  0  0  0  0  0
   38.3560   34.3620   40.2430 C   0  0  0  0  0  0  0  0  0  0  0  0
   39.0860   35.5390   40.3800 C   0  0  0  0  0  0  0  0  0  0  0  0
   40.3480   35.5640   39.9010 N   0  0  0  0  0  0  0  0  0  0  0  0
   40.8860   34.4940   39.3120 C   0  0  0  0  0  0  0  0  0  0  0  0
   40.1620   33.3890   39.1990 N   0  0  0  0  0  0  0  0  0  0  0  0
   37.3330   34.3580   40.6360 H   0  0  0  0  0  0  0  0  0  0  0  0
   38.6730   36.4170   40.8530 H   0  0  0  0  0  0  0  0  0  0  0  0
   42.2930   33.7790   37.4590 C   0  0  2  0  0  3  0  0  0  0  0  0
   42.2740   34.5150   38.7840 C   0  0  2  0  0  3  0  0  0  0  0  0
   43.2490   33.7310   39.6000 C   0  0  0  0  0  3  0  0  0  0  0  0
   43.0960   33.7980   40.6940 H   0  0  0  0  0  0  0  0  0  0  0  0
   43.1100   32.4250   39.1690 O   0  0  0  0  0  0  0  0  0  0  0  0
   42.7930   32.4250   37.8320 C   0  0  0  0  0  3  0  0  0  0  0  0
   43.6220   32.1410   37.1540 H   0  0  0  0  0  0  0  0  0  0  0  0
   43.2390   34.4360   36.6550 O   0  0  0  0  0  0  0  0  0  0  0  0
   44.1340   34.2470   37.0120 H   0  0  0  0  0  0  0  0  0  0  0  0
  1  2  1  0  0  0  0
  2  6  1  0  0  0  0
  3  2  2  0  0  0  0
  3  4  1  0  0  0  0
  4  5  2  0  0  0  0
  5  9  1  0  0  0  0
  6  5  1  0  0  0  0
  7  3  1  0  0  0  0
  8  4  1  0  0  0  0
  9 12  1  6  0  0  0
  9 11  1  0  0  0  0
  9 10  1  0  0  0  0
 10 13  1  0  0  0  0
 10 14  1  0  0  0  0
 11 15  1  6  0  0  0
 11 18  1  0  0  0  0
 11 10  1  0  0  0  0
 16 18  1  0  0  0  0
 16 19  1  0  0  0  0
 17 16  2  0  0  0  0
 18 20  1  0  0  0  0
 21 23  1  0  0  0  0
 21  1  1  0  0  0  0
 22 21  2  0  0  0  0
 23 24  1  0  0  0  0
 24 25  2  0  0  0  0
 24 29  1  0  0  0  0
 25 30  1  0  0  0  0
 26 25  1  0  0  0  0
 27 26  2  0  0  0  0
 28 27  1  0  0  0  0
 28 23  2  0  0  0  0
 31 38  1  6  0  0  0
 31 36  1  0  0  0  0
 31 32  1  0  0  0  0
 32 27  1  1  0  0  0
 32 33  1  0  0  0  0
 33 34  1  0  0  0  0
 35 33  1  0  0  0  0
 36 35  1  0  0  0  0
 37 36  1  0  0  0  0
 38 39  1  0  0  0  0
M  END
>  <minimizedAffinity>
-6.94577408

$$$$

 OpenBabel03242518413D

 39 42  0  0  1  0  0  0  0  0999 V2000
   38.4960   33.2670   40.7640 O   0  0  0  0  0  0  0  0  0  0  0  0
   39.5210   34.1370   40.3060 C   0  0  0  0  0  0  0  0  0  0  0  0
   39.8860   35.4390   40.6840 C   0  0  0  0  0  0  0  0  0  0  0  0
   40.9610   35.8360   39.9200 C   0  0  0  0  0  0  0  0  0  0  0  0
   41.2080   34.7700   39.1150 C   0  0  0  0  0  0  0  0  0  0  0  0
   40.3670   33.7760   39.3370 O   0  0  0  0  0  0  0  0  0  0  0  0
   39.3210   35.9320   41.4690 H   0  0  0  0  0  0  0  0  0  0  0  0
   41.4220   36.7970   40.0260 H   0  0  0  0  0  0  0  0  0  0  0  0
   42.2840   34.7190   38.1020 C   0  0  2  0  0  0  0  0  0  0  0  0
   42.6270   33.4550   37.4490 C   0  0  0  0  0  0  0  0  0  0  0  0
   43.5160   33.8900   38.5570 C   0  0  1  0  0  0  0  0  0  0  0  0
   42.5090   35.6610   37.5710 H   0  0  0  0  0  0  0  0  0  0  0  0
   42.0020   32.5480   37.6790 H   0  0  0  0  0  0  0  0  0  0  0  0
   43.0060   33.4060   36.4060 H   0  0  0  0  0  0  0  0  0  0  0  0
   43.4780   33.4640   39.5570 H   0  0  0  0  0  0  0  0  0  0  0  0
   45.8220   34.6310   39.1080 C   0  0  0  0  0  0  0  0  0  0  0  0
   45.7090   34.2790   40.3190 O   0  0  0  0  0  0  0  0  0  0  0  0
   44.7810   34.5020   38.1560 N   0  0  0  0  0  0  0  0  0  0  0  0
   46.7980   35.0550   38.8280 H   0  0  0  0  0  0  0  0  0  0  0  0
   44.9350   34.8450   37.1890 H   0  0  0  0  0  0  0  0  0  0  0  0
   37.4740   32.9030   39.8560 C   0  0  0  0  0  0  0  0  0  0  0  0
   36.9370   33.8440   39.2020 O   0  0  0  0  0  0  0  0  0  0  0  0
   37.1620   31.5180   39.7770 C   0  0  0  0  0  0  0  0  0  0  0  0
   36.9930   31.0110   38.5290 C   0  0  0  0  0  0  0  0  0  0  0  0
   36.6850   29.6620   38.3800 C   0  0  0  0  0  0  0  0  0  0  0  0
   36.5670   28.9080   39.4940 N   0  0  0  0  0  0  0  0  0  0  0  0
   36.7390   29.4370   40.7080 C   0  0  0  0  0  0  0  0  0  0  0  0
   37.0320   30.7260   40.8130 N   0  0  0  0  0  0  0  0  0  0  0  0
   37.0840   31.6090   37.6160 H   0  0  0  0  0  0  0  0  0  0  0  0
   36.5410   29.2120   37.4090 H   0  0  0  0  0  0  0  0  0  0  0  0
   37.6200   29.1110   42.9520 C   0  0  2  0  0  3  0  0  0  0  0  0
   36.6120   28.6140   41.9370 C   0  0  2  0  0  3  0  0  0  0  0  0
   37.0130   27.1860   41.7590 C   0  0  0  0  0  3  0  0  0  0  0  0
   36.7210   26.7410   40.7890 H   0  0  0  0  0  0  0  0  0  0  0  0
   38.3880   27.1790   41.9030 O   0  0  0  0  0  0  0  0  0  0  0  0
   38.7490   28.1480   42.8060 C   0  0  0  0  0  3  0  0  0  0  0  0
   39.0410   27.7710   43.8060 H   0  0  0  0  0  0  0  0  0  0  0  0
   37.0190   28.9590   44.2140 O   0  0  0  0  0  0  0  0  0  0  0  0
   36.9700   28.0010   44.4210 H   0  0  0  0  0  0  0  0  0  0  0  0
  2  3  2  0  0  0  0
  2  1  1  0  0  0  0
  3  7  1  0  0  0  0
  4  8  1  0  0  0  0
  4  3  1  0  0  0  0
  5  6  1  0  0  0  0
  5  4  2  0  0  0  0
  6  2  1  0  0  0  0
  9 12  1  6  0  0  0
  9 11  1  0  0  0  0
  9  5  1  0  0  0  0
 10 13  1  0  0  0  0
 10  9  1  0  0  0  0
 10 11  1  0  0  0  0
 11 15  1  1  0  0  0
 14 10  1  0  0  0  0
 16 17  2  0  0  0  0
 18 11  1  0  0  0  0
 18 16  1  0  0  0  0
 19 16  1  0  0  0  0
 20 18  1  0  0  0  0
 21  1  1  0  0  0  0
 22 21  2  0  0  0  0
 23 21  1  0  0  0  0
 23 28  1  0  0  0  0
 24 23  2  0  0  0  0
 25 24  1  0  0  0  0
 25 26  2  0  0  0  0
 26 27  1  0  0  0  0
 27 28  2  0  0  0  0
 29 24  1  0  0  0  0
 30 25  1  0  0  0  0
 31 38  1  1  0  0  0
 32 27  1  6  0  0  0
 32 31  1  0  0  0  0
 33 35  1  0  0  0  0
 33 32  1  0  0  0  0
 34 33  1  0  0  0  0
 35 36  1  0  0  0  0
 36 31  1  0  0  0  0
 36 37  1  0  0  0  0
 38 39  1  0  0  0  0
M  END
>  <minimizedAffinity>
-6.66112518

$$$$

 OpenBabel03242518413D

 39 42  0  0  1  0  0  0  0  0999 V2000
   38.2530   29.2310   43.0960 O   0  0  0  0  0  0  0  0  0  0  0  0
   37.4800   29.7330   42.0160 C   0  0  0  0  0  0  0  0  0  0  0  0
   36.3720   29.2100   41.3310 C   0  0  0  0  0  0  0  0  0  0  0  0
   35.9960   30.1040   40.3520 C   0  0  0  0  0  0  0  0  0  0  0  0
   36.8800   31.1260   40.4780 C   0  0  0  0  0  0  0  0  0  0  0  0
   37.7500   30.9130   41.4490 O   0  0  0  0  0  0  0  0  0  0  0  0
   35.9800   28.2440   41.6340 H   0  0  0  0  0  0  0  0  0  0  0  0
   35.1690   29.9260   39.6950 H   0  0  0  0  0  0  0  0  0  0  0  0
   36.8820   32.3390   39.6320 C   0  0  2  0  0  0  0  0  0  0  0  0
   37.7080   32.3990   38.4260 C   0  0  0  0  0  0  0  0  0  0  0  0
   38.2450   33.0840   39.6300 C   0  0  1  0  0  0  0  0  0  0  0  0
   35.9850   32.9810   39.6840 H   0  0  0  0  0  0  0  0  0  0  0  0
   38.2750   31.4760   38.1200 H   0  0  0  0  0  0  0  0  0  0  0  0
   37.4120   32.9830   37.5280 H   0  0  0  0  0  0  0  0  0  0  0  0
   39.0320   32.6670   40.2540 H   0  0  0  0  0  0  0  0  0  0  0  0
   39.1330   35.3370   40.1830 C   0  0  0  0  0  0  0  0  0  0  0  0
   40.1980   34.8610   40.6740 O   0  0  0  0  0  0  0  0  0  0  0  0
   38.0880   34.5360   39.6600 N   0  0  0  0  0  0  0  0  0  0  0  0
   39.0600   36.4350   40.1860 H   0  0  0  0  0  0  0  0  0  0  0  0
   37.2280   34.9970   39.3050 H   0  0  0  0  0  0  0  0  0  0  0  0
   37.7830   28.0820   43.7760 C   0  0  0  0  0  0  0  0  0  0  0  0
   36.8990   28.2720   44.6620 O   0  0  0  0  0  0  0  0  0  0  0  0
   38.3560   26.8400   43.3900 C   0  0  0  0  0  0  0  0  0  0  0  0
   39.6230   26.6050   43.8140 C   0  0  0  0  0  0  0  0  0  0  0  0
   40.2450   25.4070   43.4710 C   0  0  0  0  0  0  0  0  0  0  0  0
   39.5520   24.5220   42.7230 N   0  0  0  0  0  0  0  0  0  0  0  0
   38.3060   24.7830   42.3210 C   0  0  0  0  0  0  0  0  0  0  0  0
   37.7450   25.9340   42.6660 N   0  0  0  0  0  0  0  0  0  0  0  0
   40.1990   27.3130   44.4210 H   0  0  0  0  0  0  0  0  0  0  0  0
   41.2510   25.1750   43.7850 H   0  0  0  0  0  0  0  0  0  0  0  0
   38.5170   23.0120   40.6650 C   0  0  2  0  0  3  0  0  0  0  0  0
   37.5380   23.8130   41.4980 C   0  0  2  0  0  3  0  0  0  0  0  0
   36.6750   24.4470   40.4560 C   0  0  0  0  0  3  0  0  0  0  0  0
   36.1790   25.3840   40.7740 H   0  0  0  0  0  0  0  0  0  0  0  0
   37.5170   24.6820   39.3860 O   0  0  0  0  0  0  0  0  0  0  0  0
   38.4680   23.6930   39.3390 C   0  0  0  0  0  3  0  0  0  0  0  0
   38.3190   22.9360   38.5440 H   0  0  0  0  0  0  0  0  0  0  0  0
   37.9810   21.7180   40.5610 O   0  0  0  0  0  0  0  0  0  0  0  0
   37.1930   21.7540   39.9770 H   0  0  0  0  0  0  0  0  0  0  0  0
  1 21  1  0  0  0  0
  2  1  1  0  0  0  0
  3  7  1  0  0  0  0
  3  2  2  0  0  0  0
  4  5  2  0  0  0  0
  4  3  1  0  0  0  0
  5  6  1  0  0  0  0
  6  2  1  0  0  0  0
  8  4  1  0  0  0  0
  9 12  1  1  0  0  0
  9  5  1  0  0  0  0
 10 11  1  0  0  0  0
 10  9  1  0  0  0  0
 11  9  1  0  0  0  0
 11 18  1  0  0  0  0
 11 15  1  1  0  0  0
 13 10  1  0  0  0  0
 14 10  1  0  0  0  0
 16 19  1  0  0  0  0
 16 17  2  0  0  0  0
 18 16  1  0  0  0  0
 20 18  1  0  0  0  0
 21 22  2  0  0  0  0
 23 21  1  0  0  0  0
 23 24  1  0  0  0  0
 24 29  1  0  0  0  0
 25 30  1  0  0  0  0
 25 24  2  0  0  0  0
 26 25  1  0  0  0  0
 27 28  1  0  0  0  0
 27 26  2  0  0  0  0
 28 23  2  0  0  0  0
 31 38  1  6  0  0  0
 31 32  1  0  0  0  0
 32 27  1  6  0  0  0
 33 34  1  0  0  0  0
 33 32  1  0  0  0  0
 35 33  1  0  0  0  0
 36 35  1  0  0  0  0
 36 31  1  0  0  0  0
 37 36  1  0  0  0  0
 39 38  1  0  0  0  0
M  END
>  <minimizedAffinity>
-6.53586483

$$$$

 OpenBabel03242518413D

 39 42  0  0  1  0  0  0  0  0999 V2000
   36.4620   31.4200   40.6730 O   0  0  0  0  0  0  0  0  0  0  0  0
   36.6700   30.1410   41.2530 C   0  0  0  0  0  0  0  0  0  0  0  0
   35.9420   28.9430   41.1720 C   0  0  0  0  0  0  0  0  0  0  0  0
   36.5790   27.9880   41.9330 C   0  0  0  0  0  0  0  0  0  0  0  0
   37.6590   28.6340   42.4430 C   0  0  0  0  0  0  0  0  0  0  0  0
   37.7150   29.8930   42.0480 O   0  0  0  0  0  0  0  0  0  0  0  0
   35.0410   28.9210   40.5680 H   0  0  0  0  0  0  0  0  0  0  0  0
   36.2120   26.9860   42.0280 H   0  0  0  0  0  0  0  0  0  0  0  0
   38.6600   28.0130   43.3380 C   0  0  2  0  0  0  0  0  0  0  0  0
   40.0900   28.1680   43.0710 C   0  0  0  0  0  0  0  0  0  0  0  0
   39.4740   26.8800   42.6570 C   0  0  1  0  0  0  0  0  0  0  0  0
   38.3400   27.8160   44.3770 H   0  0  0  0  0  0  0  0  0  0  0  0
   40.4060   28.8310   42.2190 H   0  0  0  0  0  0  0  0  0  0  0  0
   40.8480   28.1960   43.8820 H   0  0  0  0  0  0  0  0  0  0  0  0
   39.2180   26.6440   41.6270 H   0  0  0  0  0  0  0  0  0  0  0  0
   39.6170   24.4290   43.0350 C   0  0  0  0  0  0  0  0  0  0  0  0
   39.2990   24.1670   41.8380 O   0  0  0  0  0  0  0  0  0  0  0  0
   39.7080   25.7460   43.5480 N   0  0  0  0  0  0  0  0  0  0  0  0
   39.8220   23.5560   43.6720 H   0  0  0  0  0  0  0  0  0  0  0  0
   39.9410   25.8820   44.5500 H   0  0  0  0  0  0  0  0  0  0  0  0
   37.1890   31.7500   39.5040 C   0  0  0  0  0  0  0  0  0  0  0  0
   36.8750   31.1260   38.4480 O   0  0  0  0  0  0  0  0  0  0  0  0
   38.1940   32.7450   39.6440 C   0  0  0  0  0  0  0  0  0  0  0  0
   37.7670   33.9850   39.9920 C   0  0  0  0  0  0  0  0  0  0  0  0
   38.6990   35.0080   40.1450 C   0  0  0  0  0  0  0  0  0  0  0  0
   40.0010   34.7180   39.9390 N   0  0  0  0  0  0  0  0  0  0  0  0
   40.3900   33.4880   39.5960 C   0  0  0  0  0  0  0  0  0  0  0  0
   39.4750   32.5380   39.4590 N   0  0  0  0  0  0  0  0  0  0  0  0
   36.7140   34.2370   40.1630 H   0  0  0  0  0  0  0  0  0  0  0  0
   38.4080   36.0100   40.4210 H   0  0  0  0  0  0  0  0  0  0  0  0
   42.5040   34.3870   38.7930 C   0  0  2  0  0  3  0  0  0  0  0  0
   41.8210   33.1630   39.3680 C   0  0  2  0  0  3  0  0  0  0  0  0
   42.0520   32.1380   38.3050 C   0  0  0  0  0  3  0  0  0  0  0  0
   41.3110   31.3160   38.2870 H   0  0  0  0  0  0  0  0  0  0  0  0
   42.0270   32.8420   37.1160 O   0  0  0  0  0  0  0  0  0  0  0  0
   42.5330   34.1010   37.3300 C   0  0  0  0  0  3  0  0  0  0  0  0
   43.5590   34.2650   36.9440 H   0  0  0  0  0  0  0  0  0  0  0  0
   43.8110   34.3890   39.3080 O   0  0  0  0  0  0  0  0  0  0  0  0
   44.3110   33.6560   38.8890 H   0  0  0  0  0  0  0  0  0  0  0  0
  1  2  1  0  0  0  0
  2  6  1  0  0  0  0
  3  2  2  0  0  0  0
  3  4  1  0  0  0  0
  4  8  1  0  0  0  0
  4  5  2  0  0  0  0
  5  9  1  0  0  0  0
  6  5  1  0  0  0  0
  7  3  1  0  0  0  0
  9 12  1  1  0  0  0
 10  9  1  0  0  0  0
 10 14  1  0  0  0  0
 11 15  1  6  0  0  0
 11 10  1  0  0  0  0
 11  9  1  0  0  0  0
 11 18  1  0  0  0  0
 13 10  1  0  0  0  0
 16 18  1  0  0  0  0
 16 19  1  0  0  0  0
 17 16  2  0  0  0  0
 18 20  1  0  0  0  0
 21 23  1  0  0  0  0
 21  1  1  0  0  0  0
 22 21  2  0  0  0  0
 23 24  1  0  0  0  0
 24 25  2  0  0  0  0
 24 29  1  0  0  0  0
 25 30  1  0  0  0  0
 26 25  1  0  0  0  0
 27 26  2  0  0  0  0
 28 27  1  0  0  0  0
 28 23  2  0  0  0  0
 31 38  1  1  0  0  0
 31 32  1  0  0  0  0
 32 27  1  6  0  0  0
 33 32  1  0  0  0  0
 34 33  1  0  0  0  0
 35 36  1  0  0  0  0
 35 33  1  0  0  0  0
 36 31  1  0  0  0  0
 37 36  1  0  0  0  0
 39 38  1  0  0  0  0
M  END
>  <minimizedAffinity>
-6.30030489

$$$$

 OpenBabel03242518413D

 39 42  0  0  1  0  0  0  0  0999 V2000
   36.8810   32.1190   40.6720 O   0  0  0  0  0  0  0  0  0  0  0  0
   36.5130   30.7580   40.8400 C   0  0  0  0  0  0  0  0  0  0  0  0
   35.6390   29.9250   40.1230 C   0  0  0  0  0  0  0  0  0  0  0  0
   35.6410   28.6770   40.7060 C   0  0  0  0  0  0  0  0  0  0  0  0
   36.5090   28.7960   41.7440 C   0  0  0  0  0  0  0  0  0  0  0  0
   37.0200   30.0110   41.8260 O   0  0  0  0  0  0  0  0  0  0  0  0
   35.1120   30.3360   39.2680 H   0  0  0  0  0  0  0  0  0  0  0  0
   35.0480   27.8650   40.3340 H   0  0  0  0  0  0  0  0  0  0  0  0
   36.8460   27.7030   42.6810 C   0  0  2  0  0  0  0  0  0  0  0  0
   37.3800   28.0040   44.0090 C   0  0  0  0  0  0  0  0  0  0  0  0
   38.3670   27.5950   42.9770 C   0  0  1  0  0  0  0  0  0  0  0  0
   36.3170   26.7440   42.5340 H   0  0  0  0  0  0  0  0  0  0  0  0
   37.4510   29.0820   44.3240 H   0  0  0  0  0  0  0  0  0  0  0  0
   37.1840   27.3580   44.8910 H   0  0  0  0  0  0  0  0  0  0  0  0
   39.0180   28.2970   42.4600 H   0  0  0  0  0  0  0  0  0  0  0  0
   40.0260   25.9100   43.7390 C   0  0  0  0  0  0  0  0  0  0  0  0
   40.7600   26.7900   44.2760 O   0  0  0  0  0  0  0  0  0  0  0  0
   38.8260   26.2100   43.0470 N   0  0  0  0  0  0  0  0  0  0  0  0
   40.3780   24.8730   43.8400 H   0  0  0  0  0  0  0  0  0  0  0  0
   38.2930   25.4380   42.6020 H   0  0  0  0  0  0  0  0  0  0  0  0
   37.7240   32.4540   39.5870 C   0  0  0  0  0  0  0  0  0  0  0  0
   37.4440   31.9280   38.4700 O   0  0  0  0  0  0  0  0  0  0  0  0
   38.7940   33.3470   39.8690 C   0  0  0  0  0  0  0  0  0  0  0  0
   38.4500   34.6360   40.1210 C   0  0  0  0  0  0  0  0  0  0  0  0
   39.4490   35.5630   40.4050 C   0  0  0  0  0  0  0  0  0  0  0  0
   40.7300   35.1350   40.4160 N   0  0  0  0  0  0  0  0  0  0  0  0
   41.0350   33.8610   40.1630 C   0  0  0  0  0  0  0  0  0  0  0  0
   40.0590   33.0040   39.8970 N   0  0  0  0  0  0  0  0  0  0  0  0
   37.4160   34.9980   40.1150 H   0  0  0  0  0  0  0  0  0  0  0  0
   39.2260   36.5980   40.6120 H   0  0  0  0  0  0  0  0  0  0  0  0
   42.4850   32.0360   40.8640 C   0  0  2  0  0  3  0  0  0  0  0  0
   42.4420   33.3840   40.1740 C   0  0  2  0  0  3  0  0  0  0  0  0
   43.3580   34.2070   41.0210 C   0  0  0  0  0  3  0  0  0  0  0  0
   43.1670   35.2960   40.9850 H   0  0  0  0  0  0  0  0  0  0  0  0
   43.1890   33.7250   42.3050 O   0  0  0  0  0  0  0  0  0  0  0  0
   42.9230   32.3790   42.2470 C   0  0  0  0  0  3  0  0  0  0  0  0
   43.7660   31.7220   42.5390 H   0  0  0  0  0  0  0  0  0  0  0  0
   43.4830   31.2900   40.2150 O   0  0  0  0  0  0  0  0  0  0  0  0
   44.3570   31.6720   40.4490 H   0  0  0  0  0  0  0  0  0  0  0  0
  1  2  1  0  0  0  0
  2  6  1  0  0  0  0
  3  4  1  0  0  0  0
  3  2  2  0  0  0  0
  4  5  2  0  0  0  0
  5  6  1  0  0  0  0
  5  9  1  0  0  0  0
  7  3  1  0  0  0  0
  8  4  1  0  0  0  0
  9 12  1  6  0  0  0
  9 11  1  0  0  0  0
  9 10  1  0  0  0  0
 10 13  1  0  0  0  0
 10 14  1  0  0  0  0
 11 15  1  6  0  0  0
 11 18  1  0  0  0  0
 11 10  1  0  0  0  0
 16 19  1  0  0  0  0
 16 17  2  0  0  0  0
 18 16  1  0  0  0  0
 20 18  1  0  0  0  0
 21 23  1  0  0  0  0
 21  1  1  0  0  0  0
 22 21  2  0  0  0  0
 23 28  2  0  0  0  0
 23 24  1  0  0  0  0
 24 25  2  0  0  0  0
 25 26  1  0  0  0  0
 25 30  1  0  0  0  0
 27 26  2  0  0  0  0
 28 27  1  0  0  0  0
 29 24  1  0  0  0  0
 31 38  1  6  0  0  0
 31 36  1  0  0  0  0
 32 27  1  1  0  0  0
 32 31  1  0  0  0  0
 32 33  1  0  0  0  0
 33 35  1  0  0  0  0
 34 33  1  0  0  0  0
 36 35  1  0  0  0  0
 36 37  1  0  0  0  0
 38 39  1  0  0  0  0
M  END
>  <minimizedAffinity>
-6.26990652

$$$$

 OpenBabel03242518413D

 39 42  0  0  1  0  0  0  0  0999 V2000
   35.5210   28.0480   38.8070 O   0  0  0  0  0  0  0  0  0  0  0  0
   36.1600   29.3050   38.6380 C   0  0  0  0  0  0  0  0  0  0  0  0
   36.6840   29.9480   37.5050 C   0  0  0  0  0  0  0  0  0  0  0  0
   37.2010   31.1660   37.8880 C   0  0  0  0  0  0  0  0  0  0  0  0
   36.9720   31.2180   39.2260 C   0  0  0  0  0  0  0  0  0  0  0  0
   36.3640   30.1320   39.6680 O   0  0  0  0  0  0  0  0  0  0  0  0
   36.6230   29.4450   36.5450 H   0  0  0  0  0  0  0  0  0  0  0  0
   37.6580   31.8430   37.1950 H   0  0  0  0  0  0  0  0  0  0  0  0
   37.3560   32.3510   40.0960 C   0  0  2  0  0  0  0  0  0  0  0  0
   37.3350   33.7200   39.5820 C   0  0  0  0  0  0  0  0  0  0  0  0
   38.6630   33.0570   39.6440 C   0  0  1  0  0  0  0  0  0  0  0  0
   37.2460   32.1980   41.1850 H   0  0  0  0  0  0  0  0  0  0  0  0
   36.9460   33.8940   38.5410 H   0  0  0  0  0  0  0  0  0  0  0  0
   37.1110   34.5960   40.2280 H   0  0  0  0  0  0  0  0  0  0  0  0
   39.1660   32.6440   38.7710 H   0  0  0  0  0  0  0  0  0  0  0  0
   40.4580   34.4790   40.6070 C   0  0  0  0  0  0  0  0  0  0  0  0
   40.6420   35.0890   39.5130 O   0  0  0  0  0  0  0  0  0  0  0  0
   39.5130   33.4350   40.7690 N   0  0  0  0  0  0  0  0  0  0  0  0
   41.0870   34.8100   41.4460 H   0  0  0  0  0  0  0  0  0  0  0  0
   39.4420   32.9570   41.6880 H   0  0  0  0  0  0  0  0  0  0  0  0
   36.3140   26.8790   38.7190 C   0  0  0  0  0  0  0  0  0  0  0  0
   36.6520   26.5120   37.5560 O   0  0  0  0  0  0  0  0  0  0  0  0
   36.6440   26.2440   39.9470 C   0  0  0  0  0  0  0  0  0  0  0  0
   36.5900   24.8880   39.9560 C   0  0  0  0  0  0  0  0  0  0  0  0
   36.9000   24.2030   41.1270 C   0  0  0  0  0  0  0  0  0  0  0  0
   37.2450   24.9240   42.2140 N   0  0  0  0  0  0  0  0  0  0  0  0
   37.2870   26.2580   42.1740 C   0  0  0  0  0  0  0  0  0  0  0  0
   36.9860   26.8790   41.0420 N   0  0  0  0  0  0  0  0  0  0  0  0
   36.3120   24.2880   39.0820 H   0  0  0  0  0  0  0  0  0  0  0  0
   36.8720   23.1250   41.1830 H   0  0  0  0  0  0  0  0  0  0  0  0
   37.5290   28.5260   43.0220 C   0  0  2  0  0  3  0  0  0  0  0  0
   37.6660   27.0580   43.3680 C   0  0  2  0  0  3  0  0  0  0  0  0
   39.1080   26.9490   43.7420 C   0  0  0  0  0  3  0  0  0  0  0  0
   39.5430   25.9390   43.6200 H   0  0  0  0  0  0  0  0  0  0  0  0
   39.7590   27.8600   42.9300 O   0  0  0  0  0  0  0  0  0  0  0  0
   38.9280   28.9290   42.7010 C   0  0  0  0  0  3  0  0  0  0  0  0
   39.1830   29.8500   43.2630 H   0  0  0  0  0  0  0  0  0  0  0  0
   37.1010   29.1710   44.1950 O   0  0  0  0  0  0  0  0  0  0  0  0
   37.8450   29.1760   44.8350 H   0  0  0  0  0  0  0  0  0  0  0  0
  2  1  1  0  0  0  0
  2  6  1  0  0  0  0
  3  4  1  0  0  0  0
  3  2  2  0  0  0  0
  4  5  2  0  0  0  0
  5  6  1  0  0  0  0
  5  9  1  0  0  0  0
  7  3  1  0  0  0  0
  8  4  1  0  0  0  0
  9 12  1  1  0  0  0
 10 11  1  0  0  0  0
 10  9  1  0  0  0  0
 10 14  1  0  0  0  0
 11 15  1  6  0  0  0
 11  9  1  0  0  0  0
 11 18  1  0  0  0  0
 13 10  1  0  0  0  0
 16 18  1  0  0  0  0
 16 19  1  0  0  0  0
 17 16  2  0  0  0  0
 18 20  1  0  0  0  0
 21  1  1  0  0  0  0
 21 23  1  0  0  0  0
 22 21  2  0  0  0  0
 23 24  2  0  0  0  0
 23 28  1  0  0  0  0
 24 25  1  0  0  0  0
 25 30  1  0  0  0  0
 25 26  2  0  0  0  0
 27 26  1  0  0  0  0
 28 27  2  0  0  0  0
 29 24  1  0  0  0  0
 31 32  1  0  0  0  0
 31 38  1  1  0  0  0
 32 27  1  6  0  0  0
 32 33  1  0  0  0  0
 34 33  1  0  0  0  0
 35 33  1  0  0  0  0
 36 35  1  0  0  0  0
 36 31  1  0  0  0  0
 36 37  1  0  0  0  0
 38 39  1  0  0  0  0
M  END
>  <minimizedAffinity>
-6.25202656

$$$$

 OpenBabel03242518413D

 39 42  0  0  1  0  0  0  0  0999 V2000
   38.8460   27.8460   43.3620 O   0  0  0  0  0  0  0  0  0  0  0  0
   38.9770   26.4630   43.0670 C   0  0  0  0  0  0  0  0  0  0  0  0
   39.9090   25.4980   43.4820 C   0  0  0  0  0  0  0  0  0  0  0  0
   39.5840   24.2920   42.8990 C   0  0  0  0  0  0  0  0  0  0  0  0
   38.4790   24.5670   42.1610 C   0  0  0  0  0  0  0  0  0  0  0  0
   38.1210   25.8350   42.2550 O   0  0  0  0  0  0  0  0  0  0  0  0
   40.7040   25.7980   44.1560 H   0  0  0  0  0  0  0  0  0  0  0  0
   40.1520   23.3990   43.0670 H   0  0  0  0  0  0  0  0  0  0  0  0
   37.7540   23.5730   41.3390 C   0  0  2  0  0  0  0  0  0  0  0  0
   38.4850   22.6910   40.4280 C   0  0  0  0  0  0  0  0  0  0  0  0
   37.8190   23.8700   39.8160 C   0  0  1  0  0  0  0  0  0  0  0  0
   36.7740   23.2350   41.7200 H   0  0  0  0  0  0  0  0  0  0  0  0
   39.6090   22.7360   40.4290 H   0  0  0  0  0  0  0  0  0  0  0  0
   38.1410   21.6620   40.1910 H   0  0  0  0  0  0  0  0  0  0  0  0
   38.3530   24.7690   39.5150 H   0  0  0  0  0  0  0  0  0  0  0  0
   35.7900   24.6940   38.6440 C   0  0  0  0  0  0  0  0  0  0  0  0
   36.1270   25.9050   38.7880 O   0  0  0  0  0  0  0  0  0  0  0  0
   36.5510   23.6070   39.1410 N   0  0  0  0  0  0  0  0  0  0  0  0
   34.8490   24.5260   38.1000 H   0  0  0  0  0  0  0  0  0  0  0  0
   36.1940   22.6410   39.0140 H   0  0  0  0  0  0  0  0  0  0  0  0
   37.5410   28.3850   43.4700 C   0  0  0  0  0  0  0  0  0  0  0  0
   36.9420   28.1980   44.5700 O   0  0  0  0  0  0  0  0  0  0  0  0
   37.0470   29.0770   42.3320 C   0  0  0  0  0  0  0  0  0  0  0  0
   36.0820   28.4450   41.6170 C   0  0  0  0  0  0  0  0  0  0  0  0
   35.5530   29.0660   40.4890 C   0  0  0  0  0  0  0  0  0  0  0  0
   36.0290   30.2840   40.1520 N   0  0  0  0  0  0  0  0  0  0  0  0
   36.9790   30.8800   40.8760 C   0  0  0  0  0  0  0  0  0  0  0  0
   37.4600   30.2590   41.9450 N   0  0  0  0  0  0  0  0  0  0  0  0
   35.6860   27.4560   41.8760 H   0  0  0  0  0  0  0  0  0  0  0  0
   34.7850   28.6040   39.8880 H   0  0  0  0  0  0  0  0  0  0  0  0
   37.4010   32.3820   39.0090 C   0  0  2  0  0  3  0  0  0  0  0  0
   37.5060   32.2200   40.5110 C   0  0  2  0  0  3  0  0  0  0  0  0
   38.9710   32.3850   40.7500 C   0  0  0  0  0  3  0  0  0  0  0  0
   39.3480   31.8990   41.6700 H   0  0  0  0  0  0  0  0  0  0  0  0
   39.5800   31.8460   39.6320 O   0  0  0  0  0  0  0  0  0  0  0  0
   38.7790   32.0620   38.5380 C   0  0  0  0  0  3  0  0  0  0  0  0
   39.1270   32.8600   37.8520 H   0  0  0  0  0  0  0  0  0  0  0  0
   37.1170   33.7390   38.7760 O   0  0  0  0  0  0  0  0  0  0  0  0
   37.9190   34.2640   38.9870 H   0  0  0  0  0  0  0  0  0  0  0  0
  1 21  1  0  0  0  0
  2  1  1  0  0  0  0
  2  3  2  0  0  0  0
  3  7  1  0  0  0  0
  4  8  1  0  0  0  0
  4  3  1  0  0  0  0
  5  6  1  0  0  0  0
  5  4  2  0  0  0  0
  6  2  1  0  0  0  0
  9 12  1  1  0  0  0
  9  5  1  0  0  0  0
 10 13  1  0  0  0  0
 10  9  1  0  0  0  0
 11 15  1  6  0  0  0
 11 10  1  0  0  0  0
 11  9  1  0  0  0  0
 14 10  1  0  0  0  0
 16 17  2  0  0  0  0
 16 18  1  0  0  0  0
 18 11  1  0  0  0  0
 19 16  1  0  0  0  0
 20 18  1  0  0  0  0
 21 22  2  0  0  0  0
 23 21  1  0  0  0  0
 24 29  1  0  0  0  0
 24 23  2  0  0  0  0
 25 24  1  0  0  0  0
 26 25  2  0  0  0  0
 26 27  1  0  0  0  0
 27 28  2  0  0  0  0
 28 23  1  0  0  0  0
 30 25  1  0  0  0  0
 31 38  1  1  0  0  0
 31 32  1  0  0  0  0
 32 33  1  0  0  0  0
 32 27  1  6  0  0  0
 33 34  1  0  0  0  0
 35 33  1  0  0  0  0
 36 31  1  0  0  0  0
 36 35  1  0  0  0  0
 37 36  1  0  0  0  0
 38 39  1  0  0  0  0
M  END
>  <minimizedAffinity>
-6.06129646

$$$$

 OpenBabel03242518413D

 39 42  0  0  1  0  0  0  0  0999 V2000
   38.2720   33.0620   40.7380 O   0  0  0  0  0  0  0  0  0  0  0  0
   39.2680   33.9980   40.3550 C   0  0  0  0  0  0  0  0  0  0  0  0
   39.5600   35.2960   40.8030 C   0  0  0  0  0  0  0  0  0  0  0  0
   40.6400   35.7750   40.0940 C   0  0  0  0  0  0  0  0  0  0  0  0
   40.9610   34.7610   39.2510 C   0  0  0  0  0  0  0  0  0  0  0  0
   40.1610   33.7200   39.4000 O   0  0  0  0  0  0  0  0  0  0  0  0
   38.9480   35.7260   41.5900 H   0  0  0  0  0  0  0  0  0  0  0  0
   41.0520   36.7510   40.2590 H   0  0  0  0  0  0  0  0  0  0  0  0
   42.0700   34.8050   38.2740 C   0  0  2  0  0  0  0  0  0  0  0  0
   42.5150   33.5830   37.6030 C   0  0  0  0  0  0  0  0  0  0  0  0
   43.3390   34.0460   38.7500 C   0  0  1  0  0  0  0  0  0  0  0  0
   42.2510   35.7730   37.7730 H   0  0  0  0  0  0  0  0  0  0  0  0
   41.9430   32.6330   37.7890 H   0  0  0  0  0  0  0  0  0  0  0  0
   42.9300   33.5860   36.5720 H   0  0  0  0  0  0  0  0  0  0  0  0
   43.2960   33.5920   39.7380 H   0  0  0  0  0  0  0  0  0  0  0  0
   45.8180   34.0990   38.6000 C   0  0  0  0  0  0  0  0  0  0  0  0
   45.9310   32.9410   39.0980 O   0  0  0  0  0  0  0  0  0  0  0  0
   44.5730   34.7480   38.4070 N   0  0  0  0  0  0  0  0  0  0  0  0
   46.7620   34.5880   38.3170 H   0  0  0  0  0  0  0  0  0  0  0  0
   44.5600   35.7120   38.0240 H   0  0  0  0  0  0  0  0  0  0  0  0
   38.0940   31.9100   39.9360 C   0  0  0  0  0  0  0  0  0  0  0  0
   37.3450   32.0360   38.9240 O   0  0  0  0  0  0  0  0  0  0  0  0
   38.7760   30.7360   40.3560 C   0  0  0  0  0  0  0  0  0  0  0  0
   39.7120   30.2470   39.5030 C   0  0  0  0  0  0  0  0  0  0  0  0
   40.4170   29.0990   39.8520 C   0  0  0  0  0  0  0  0  0  0  0  0
   40.1370   28.5150   41.0360 N   0  0  0  0  0  0  0  0  0  0  0  0
   39.2100   29.0200   41.8540 C   0  0  0  0  0  0  0  0  0  0  0  0
   38.5570   30.1150   41.4900 N   0  0  0  0  0  0  0  0  0  0  0  0
   39.9510   30.7090   38.5380 H   0  0  0  0  0  0  0  0  0  0  0  0
   41.1710   28.6730   39.2070 H   0  0  0  0  0  0  0  0  0  0  0  0
   39.2110   26.9040   43.0560 C   0  0  2  0  0  3  0  0  0  0  0  0
   38.8970   28.3820   43.1590 C   0  0  2  0  0  3  0  0  0  0  0  0
   37.4430   28.3780   43.5020 C   0  0  0  0  0  3  0  0  0  0  0  0
   36.8970   29.2970   43.2150 H   0  0  0  0  0  0  0  0  0  0  0  0
   36.9230   27.2790   42.8450 O   0  0  0  0  0  0  0  0  0  0  0  0
   37.8770   26.2930   42.7970 C   0  0  0  0  0  3  0  0  0  0  0  0
   37.7160   25.4500   43.4990 H   0  0  0  0  0  0  0  0  0  0  0  0
   39.6820   26.5110   44.3200 O   0  0  0  0  0  0  0  0  0  0  0  0
   38.9280   26.5210   44.9490 H   0  0  0  0  0  0  0  0  0  0  0  0
  2  1  1  0  0  0  0
  2  3  2  0  0  0  0
  3  7  1  0  0  0  0
  4  8  1  0  0  0  0
  4  3  1  0  0  0  0
  5  6  1  0  0  0  0
  5  4  2  0  0  0  0
  6  2  1  0  0  0  0
  9 12  1  6  0  0  0
  9 11  1  0  0  0  0
  9  5  1  0  0  0  0
 10 13  1  0  0  0  0
 10  9  1  0  0  0  0
 10 11  1  0  0  0  0
 11 15  1  1  0  0  0
 14 10  1  0  0  0  0
 16 17  2  0  0  0  0
 18 16  1  0  0  0  0
 18 11  1  0  0  0  0
 19 16  1  0  0  0  0
 20 18  1  0  0  0  0
 21 23  1  0  0  0  0
 21  1  1  0  0  0  0
 22 21  2  0  0  0  0
 23 28  1  0  0  0  0
 24 25  1  0  0  0  0
 24 23  2  0  0  0  0
 25 26  2  0  0  0  0
 26 27  1  0  0  0  0
 28 27  2  0  0  0  0
 29 24  1  0  0  0  0
 30 25  1  0  0  0  0
 31 32  1  0  0  0  0
 31 38  1  1  0  0  0
 32 27  1  6  0  0  0
 32 33  1  0  0  0  0
 34 33  1  0  0  0  0
 35 33  1  0  0  0  0
 36 35  1  0  0  0  0
 36 31  1  0  0  0  0
 36 37  1  0  0  0  0
 38 39  1  0  0  0  0
M  END
>  <minimizedAffinity>
-5.89569664

$$$$

 OpenBabel03242518413D

 39 42  0  0  1  0  0  0  0  0999 V2000
   38.1150   29.5560   39.3190 O   0  0  0  0  0  0  0  0  0  0  0  0
   37.9340   30.9610   39.4160 C   0  0  0  0  0  0  0  0  0  0  0  0
   37.0270   31.8360   38.7970 C   0  0  0  0  0  0  0  0  0  0  0  0
   37.2770   33.1160   39.2390 C   0  0  0  0  0  0  0  0  0  0  0  0
   38.3150   32.9720   40.1020 C   0  0  0  0  0  0  0  0  0  0  0  0
   38.7030   31.7140   40.2080 O   0  0  0  0  0  0  0  0  0  0  0  0
   36.3000   31.4270   38.1030 H   0  0  0  0  0  0  0  0  0  0  0  0
   36.7100   33.9630   38.9070 H   0  0  0  0  0  0  0  0  0  0  0  0
   38.9490   34.0870   40.8400 C   0  0  2  0  0  0  0  0  0  0  0  0
   39.0250   35.4210   40.2450 C   0  0  0  0  0  0  0  0  0  0  0  0
   40.2590   34.5950   40.1780 C   0  0  1  0  0  0  0  0  0  0  0  0
   38.9700   34.0030   41.9420 H   0  0  0  0  0  0  0  0  0  0  0  0
   38.5220   35.5930   39.2530 H   0  0  0  0  0  0  0  0  0  0  0  0
   38.9990   36.3490   40.8560 H   0  0  0  0  0  0  0  0  0  0  0  0
   40.5850   34.0800   39.2780 H   0  0  0  0  0  0  0  0  0  0  0  0
   42.6390   34.5600   40.8890 C   0  0  0  0  0  0  0  0  0  0  0  0
   43.0010   33.9360   39.8500 O   0  0  0  0  0  0  0  0  0  0  0  0
   41.2930   34.9150   41.1590 N   0  0  0  0  0  0  0  0  0  0  0  0
   43.4450   34.8200   41.5910 H   0  0  0  0  0  0  0  0  0  0  0  0
   41.0670   35.3970   42.0490 H   0  0  0  0  0  0  0  0  0  0  0  0
   37.2190   28.7160   40.0220 C   0  0  0  0  0  0  0  0  0  0  0  0
   36.1290   28.4410   39.4410 O   0  0  0  0  0  0  0  0  0  0  0  0
   37.6410   28.2740   41.3060 C   0  0  0  0  0  0  0  0  0  0  0  0
   36.6570   27.9280   42.1750 C   0  0  0  0  0  0  0  0  0  0  0  0
   37.0010   27.4870   43.4500 C   0  0  0  0  0  0  0  0  0  0  0  0
   38.3110   27.4220   43.7690 N   0  0  0  0  0  0  0  0  0  0  0  0
   39.2550   27.7690   42.8910 C   0  0  0  0  0  0  0  0  0  0  0  0
   38.8920   28.1850   41.6860 N   0  0  0  0  0  0  0  0  0  0  0  0
   35.5900   27.9770   41.9320 H   0  0  0  0  0  0  0  0  0  0  0  0
   36.2550   27.2010   44.1760 H   0  0  0  0  0  0  0  0  0  0  0  0
   41.4660   27.2870   41.9970 C   0  0  2  0  0  3  0  0  0  0  0  0
   40.6980   27.6990   43.2360 C   0  0  2  0  0  3  0  0  0  0  0  0
   41.0410   26.6130   44.2030 C   0  0  0  0  0  3  0  0  0  0  0  0
   40.2960   26.4540   45.0050 H   0  0  0  0  0  0  0  0  0  0  0  0
   41.1750   25.4740   43.4310 O   0  0  0  0  0  0  0  0  0  0  0  0
   41.6720   25.8240   42.1990 C   0  0  0  0  0  3  0  0  0  0  0  0
   42.7400   25.5780   42.0370 H   0  0  0  0  0  0  0  0  0  0  0  0
   42.7000   27.9570   42.0550 O   0  0  0  0  0  0  0  0  0  0  0  0
   43.2360   27.5590   42.7750 H   0  0  0  0  0  0  0  0  0  0  0  0
  1  2  1  0  0  0  0
  1 21  1  0  0  0  0
  2  6  1  0  0  0  0
  3  4  1  0  0  0  0
  3  2  2  0  0  0  0
  4  5  2  0  0  0  0
  5  6  1  0  0  0  0
  5  9  1  0  0  0  0
  7  3  1  0  0  0  0
  8  4  1  0  0  0  0
  9 12  1  1  0  0  0
 10  9  1  0  0  0  0
 10 14  1  0  0  0  0
 11 15  1  6  0  0  0
 11 10  1  0  0  0  0
 11  9  1  0  0  0  0
 11 18  1  0  0  0  0
 13 10  1  0  0  0  0
 16 18  1  0  0  0  0
 16 19  1  0  0  0  0
 17 16  2  0  0  0  0
 18 20  1  0  0  0  0
 21 23  1  0  0  0  0
 22 21  2  0  0  0  0
 23 28  2  0  0  0  0
 23 24  1  0  0  0  0
 24 25  2  0  0  0  0
 25 26  1  0  0  0  0
 25 30  1  0  0  0  0
 27 26  2  0  0  0  0
 28 27  1  0  0  0  0
 29 24  1  0  0  0  0
 31 38  1  1  0  0  0
 31 36  1  0  0  0  0
 31 32  1  0  0  0  0
 32 27  1  6  0  0  0
 32 33  1  0  0  0  0
 33 34  1  0  0  0  0
 35 33  1  0  0  0  0
 36 35  1  0  0  0  0
 37 36  1  0  0  0  0
 38 39  1  0  0  0  0
M  END
>  <minimizedAffinity>
-5.84404135

$$$$
