
 OpenBabel03252508293D

 39 42  0  0  1  0  0  0  0  0999 V2000
   42.6420   34.0400   38.2770 N   0  0  0  0  0  0  0  0  0  0  0  0
   43.9590   33.3990   38.1950 C   0  0  2  0  0  0  0  0  0  0  0  0
   43.8830   32.0240   37.6300 C   0  0  0  0  0  0  0  0  0  0  0  0
   42.6010   31.7410   37.0270 N   0  0  0  0  0  0  0  0  0  0  0  0
   41.4760   32.0580   37.8300 C   0  0  0  0  0  0  0  0  0  0  0  0
   41.7810   33.0620   38.9250 C   0  0  2  0  0  0  0  0  0  0  0  0
   42.7410   34.9150   38.7840 H   0  0  0  0  0  0  0  0  0  0  0  0
   44.6150   34.0950   37.6150 H   0  0  0  0  0  0  0  0  0  0  0  0
   44.6420   31.9540   36.8230 H   0  0  0  0  0  0  0  0  0  0  0  0
   43.9540   31.1910   38.3510 H   0  0  0  0  0  0  0  0  0  0  0  0
   42.5320   31.9390   36.0240 H   0  0  0  0  0  0  0  0  0  0  0  0
   41.1270   31.0740   38.2520 H   0  0  0  0  0  0  0  0  0  0  0  0
   40.7210   32.5140   37.1470 H   0  0  0  0  0  0  0  0  0  0  0  0
   42.3620   32.5050   39.6900 H   0  0  0  0  0  0  0  0  0  0  0  0
   44.9020   33.6600   41.6630 C   0  0  0  0  0  0  0  0  0  0  0  0
   45.7100   32.6280   41.1700 C   0  0  0  0  0  0  0  0  0  0  0  0
   45.4460   32.4310   39.8270 C   0  0  0  0  0  0  0  0  0  0  0  0
   44.5030   33.3240   39.5370 N   0  0  0  0  0  0  0  0  0  0  0  0
   44.1890   34.0370   40.6020 N   0  0  0  0  0  0  0  0  0  0  0  0
   46.4050   32.1420   41.8760 H   0  0  0  0  0  0  0  0  0  0  0  0
   46.0780   31.6370   39.4450 H   0  0  0  0  0  0  0  0  0  0  0  0
   45.3790   34.0350   45.3760 C   0  0  0  0  0  0  0  0  0  0  0  0
   45.4330   33.4110   44.0900 C   0  0  0  0  0  0  0  0  0  0  0  0
   44.9090   34.1580   43.0400 C   0  0  0  0  0  0  0  0  0  0  0  0
   44.3940   35.3860   43.2670 N   0  0  0  0  0  0  0  0  0  0  0  0
   44.3640   35.9410   44.5040 C   0  0  0  0  0  0  0  0  0  0  0  0
   44.8550   35.2570   45.5300 N   0  0  0  0  0  0  0  0  0  0  0  0
   45.7820   33.4680   46.2020 H   0  0  0  0  0  0  0  0  0  0  0  0
   45.8400   32.4390   43.9150 H   0  0  0  0  0  0  0  0  0  0  0  0
   43.9360   36.9180   44.5740 H   0  0  0  0  0  0  0  0  0  0  0  0
   40.5460   33.8200   41.0020 C   0  0  2  0  0  0  0  0  0  0  0  0
   40.5920   33.6830   39.5260 C   0  0  1  0  0  0  0  0  0  0  0  0
   40.4470   35.1220   39.0970 C   0  0  0  0  0  0  0  0  0  0  0  0
   40.9200   35.3570   38.1490 H   0  0  0  0  0  0  0  0  0  0  0  0
   41.2290   35.7680   40.0840 O   0  0  0  0  0  0  0  0  0  0  0  0
   40.5950   35.3240   41.2270 C   0  0  0  0  0  0  0  0  0  0  0  0
   39.5800   35.7730   41.2610 H   0  0  0  0  0  0  0  0  0  0  0  0
   41.5260   33.2680   41.7490 O   0  0  0  0  0  0  0  0  0  0  0  0
   41.1800   32.4680   42.2290 H   0  0  0  0  0  0  0  0  0  0  0  0
  1  7  1  0  0  0  0
  1  6  1  0  0  0  0
  2  8  1  6  0  0  0
  2  1  1  0  0  0  0
  2 18  1  0  0  0  0
  3  2  1  0  0  0  0
  3 10  1  0  0  0  0
  4  3  1  0  0  0  0
  4  5  1  0  0  0  0
  5 12  1  0  0  0  0
  5  6  1  0  0  0  0
  6 32  1  0  0  0  0
  6 14  1  1  0  0  0
  9  3  1  0  0  0  0
 11  4  1  0  0  0  0
 13  5  1  0  0  0  0
 15 24  1  0  0  0  0
 16 15  1  0  0  0  0
 16 20  1  0  0  0  0
 17 16  2  0  0  0  0
 18 17  1  0  0  0  0
 18 19  1  0  0  0  0
 19 15  2  0  0  0  0
 21 17  1  0  0  0  0
 22 27  1  0  0  0  0
 22 28  1  0  0  0  0
 23 22  2  0  0  0  0
 24 25  2  0  0  0  0
 24 23  1  0  0  0  0
 25 26  1  0  0  0  0
 26 30  1  0  0  0  0
 26 27  2  0  0  0  0
 29 23  1  0  0  0  0
 31 36  1  0  0  0  0
 31 38  1  1  0  0  0
 32 33  1  6  0  0  0
 32 31  1  0  0  0  0
 33 35  1  0  0  0  0
 34 33  1  0  0  0  0
 35 36  1  0  0  0  0
 36 37  1  0  0  0  0
 38 39  1  0  0  0  0
M  END
>  <minimizedAffinity>
-5.64697599

>  <minimizedRMSD>
4.25465393

$$$$
