
 OpenBabel03242523463D

 19 20  0  0  1  0  0  0  0  0999 V2000
   44.8360   35.0510   44.4470 C   0  0  0  0  0  0  0  0  0  0  0  0
   45.5600   34.8860   43.2480 C   0  0  0  0  0  0  0  0  0  0  0  0
   46.6540   34.0050   43.2910 C   0  0  0  0  0  0  0  0  0  0  0  0
   46.9440   33.3740   44.4580 N   0  0  0  0  0  0  0  0  0  0  0  0
   46.2200   33.5670   45.5730 C   0  0  0  0  0  0  0  0  0  0  0  0
   45.1760   34.3930   45.5760 N   0  0  0  0  0  0  0  0  0  0  0  0
   45.3130   35.3910   42.3510 H   0  0  0  0  0  0  0  0  0  0  0  0
   46.4890   33.0430   46.4780 H   0  0  0  0  0  0  0  0  0  0  0  0
   47.7250   35.0010   41.2770 C   0  0  2  0  0  3  0  0  0  0  0  0
   47.4790   33.7590   42.1000 C   0  0  2  0  0  3  0  0  0  0  0  0
   46.7910   32.9110   41.0410 C   0  0  0  0  0  3  0  0  0  0  0  0
   45.7580   33.3160   40.9540 H   0  0  0  0  0  0  0  0  0  0  0  0
   47.5490   33.1120   39.9020 O   0  0  0  0  0  0  0  0  0  0  0  0
   48.1450   34.3510   39.9600 C   0  0  0  0  0  3  0  0  0  0  0  0
   49.2550   34.2400   40.0110 H   0  0  0  0  0  0  0  0  0  0  0  0
   48.7070   35.7980   41.8280 O   0  0  0  0  0  0  0  0  0  0  0  0
   48.6040   36.7470   41.6260 H   0  0  0  0  0  0  0  0  0  0  0  0
   43.7710   35.9030   44.4200 O   0  0  0  0  0  0  0  0  0  0  0  0
   43.8500   36.7700   44.9380 H   0  0  0  0  0  0  0  0  0  0  0  0
  1  6  1  0  0  0  0
  2  3  1  0  0  0  0
  2  1  2  0  0  0  0
  3  4  2  0  0  0  0
  4  5  1  0  0  0  0
  5  6  2  0  0  0  0
  5  8  1  0  0  0  0
  7  2  1  0  0  0  0
  9 16  1  1  0  0  0
  9 10  1  0  0  0  0
 10  3  1  1  0  0  0
 11 10  1  0  0  0  0
 12 11  1  0  0  0  0
 13 14  1  0  0  0  0
 13 11  1  0  0  0  0
 14 15  1  0  0  0  0
 14  9  1  0  0  0  0
 17 16  1  0  0  0  0
 18  1  1  0  0  0  0
 18 19  1  0  0  0  0
M  END
>  <minimizedAffinity>
-4.37302208

>  <minimizedRMSD>
1.45294607

$$$$
