
 OpenBabel03242520243D

 24 25  0  0  1  0  0  0  0  0999 V2000
   45.4390   34.1940   44.9740 C   0  0  0  0  0  0  0  0  0  0  0  0
   46.0230   34.0960   43.6920 C   0  0  0  0  0  0  0  0  0  0  0  0
   47.0870   33.2220   43.5220 C   0  0  0  0  0  0  0  0  0  0  0  0
   47.5190   32.5030   44.5850 N   0  0  0  0  0  0  0  0  0  0  0  0
   46.9600   32.6030   45.7970 C   0  0  0  0  0  0  0  0  0  0  0  0
   45.9200   33.4450   46.0030 N   0  0  0  0  0  0  0  0  0  0  0  0
   44.6080   34.8670   45.1400 H   0  0  0  0  0  0  0  0  0  0  0  0
   47.4220   31.9610   46.5370 H   0  0  0  0  0  0  0  0  0  0  0  0
   44.4100   34.2290   41.8210 C   0  0  2  0  0  0  0  0  0  0  0  0
   45.5450   34.8770   42.5510 C   0  0  1  0  0  0  0  0  0  0  0  0
   44.9640   36.1750   43.0040 C   0  0  0  0  0  0  0  0  0  0  0  0
   45.3380   36.9990   42.3290 H   0  0  0  0  0  0  0  0  0  0  0  0
   43.5750   36.0620   42.8550 O   0  0  0  0  0  0  0  0  0  0  0  0
   43.3840   35.3060   41.7020 C   0  0  0  0  0  0  0  0  0  0  0  0
   43.4980   35.9370   40.7970 H   0  0  0  0  0  0  0  0  0  0  0  0
   43.8870   33.1380   42.5150 O   0  0  0  0  0  0  0  0  0  0  0  0
   44.0990   32.2640   42.1090 H   0  0  0  0  0  0  0  0  0  0  0  0
   47.6540   33.1320   42.2550 O   0  0  0  0  0  0  0  0  0  0  0  0
   50.1920   32.8500   41.6100 O   0  0  0  0  0  0  0  0  0  0  0  0
   49.1390   33.9080   41.9370 P   0  0  0  0  0  0  0  0  0  0  0  0
   48.9260   34.9790   40.6740 O   0  0  0  0  0  0  0  0  0  0  0  0
   49.1460   35.9110   40.9850 H   0  0  0  0  0  0  0  0  0  0  0  0
   49.6200   34.6770   43.3700 O   0  0  0  0  0  0  0  0  0  0  0  0
   50.1920   34.0750   43.9090 H   0  0  0  0  0  0  0  0  0  0  0  0
  1  7  1  0  0  0  0
  1  6  1  0  0  0  0
  2  1  2  0  0  0  0
  3  2  1  0  0  0  0
  3  4  2  0  0  0  0
  4  5  1  0  0  0  0
  5  6  2  0  0  0  0
  5  8  1  0  0  0  0
  9 16  1  1  0  0  0
  9 10  1  0  0  0  0
 10 11  1  0  0  0  0
 10  2  1  1  0  0  0
 12 11  1  0  0  0  0
 13 11  1  0  0  0  0
 14  9  1  0  0  0  0
 14 13  1  0  0  0  0
 15 14  1  0  0  0  0
 17 16  1  0  0  0  0
 18  3  1  0  0  0  0
 19 20  2  0  0  0  0
 20 18  1  0  0  0  0
 20 23  1  0  0  0  0
 21 22  1  0  0  0  0
 21 20  1  0  0  0  0
 23 24  1  0  0  0  0
M  END
>  <minimizedAffinity>
-4.66847992

>  <minimizedRMSD>
2.1681428

$$$$
