
 OpenBabel03242517133D

 23 24  0  0  1  0  0  0  0  0999 V2000
   43.5850   35.7750   41.2760 C   0  0  0  0  0  0  0  0  0  0  0  0
   44.3260   35.9750   40.4890 H   0  0  0  0  0  0  0  0  0  0  0  0
   43.2580   36.7420   41.7070 H   0  0  0  0  0  0  0  0  0  0  0  0
   40.8450   33.3440   41.0830 C   0  0  1  0  0  3  0  0  0  0  0  0
   42.3550   33.6020   41.1730 C   0  0  0  0  0  3  0  0  0  0  0  0
   42.8660   32.8630   40.5500 H   0  0  0  0  0  0  0  0  0  0  0  0
   42.4100   35.0110   40.6650 C   0  0  1  0  0  3  0  0  0  0  0  0
   41.2200   35.6350   40.9890 O   0  0  0  0  0  0  0  0  0  0  0  0
   40.3790   34.7160   41.5860 C   0  0  0  0  0  3  0  0  0  0  0  0
   39.3290   34.8940   41.3440 H   0  0  0  0  0  0  0  0  0  0  0  0
   40.4700   33.2620   39.7570 O   0  0  0  0  0  0  0  0  0  0  0  0
   40.9320   32.5570   39.2360 H   0  0  0  0  0  0  0  0  0  0  0  0
   45.0490   35.1860   43.1840 C   0  0  0  0  0  3  0  0  0  0  0  0
   44.1350   34.8460   42.3090 C   0  0  0  0  0  3  0  0  0  0  0  0
   45.1770   34.3220   45.5270 C   0  0  0  0  0  0  0  0  0  0  0  0
   45.6200   34.3340   44.2060 C   0  0  0  0  0  0  0  0  0  0  0  0
   46.6640   33.4780   43.8730 C   0  0  0  0  0  0  0  0  0  0  0  0
   47.2070   32.6680   44.8450 N   0  0  0  0  0  0  0  0  0  0  0  0
   46.7410   32.6930   46.1120 C   0  0  0  0  0  0  0  0  0  0  0  0
   45.7320   33.5190   46.4390 N   0  0  0  0  0  0  0  0  0  0  0  0
   44.3640   34.9810   45.8090 H   0  0  0  0  0  0  0  0  0  0  0  0
   47.0460   33.4510   42.8560 H   0  0  0  0  0  0  0  0  0  0  0  0
   47.2810   31.9950   46.7400 H   0  0  0  0  0  0  0  0  0  0  0  0
  1  3  1  0  0  0  0
  1 14  1  0  0  0  0
  2  1  1  0  0  0  0
  4 11  1  6  0  0  0
  4  5  1  0  0  0  0
  4  9  1  0  0  0  0
  6  5  1  0  0  0  0
  7  8  1  0  0  0  0
  7  5  1  0  0  0  0
  7  1  1  1  0  0  0
  8  9  1  0  0  0  0
 10  9  1  0  0  0  0
 12 11  1  0  0  0  0
 13 16  1  0  0  0  0
 14 13  2  0  0  0  0
 15 21  1  0  0  0  0
 15 20  1  0  0  0  0
 16 15  2  0  0  0  0
 17 16  1  0  0  0  0
 17 18  2  0  0  0  0
 18 19  1  0  0  0  0
 19 20  2  0  0  0  0
 19 23  1  0  0  0  0
 22 17  1  0  0  0  0
M  END
>  <minimizedAffinity>
-4.0709548

>  <minimizedRMSD>
3.07937312

$$$$
