
     RDKit          3D

 43 46  0  0  0  0  0  0  0  0999 V2000
   45.6307   34.6193   42.0408 C   0  0  0  0  0  0  0  0  0  0  0  0
   44.9014   35.6584   42.6321 C   0  0  0  0  0  0  0  0  0  0  0  0
   43.5567   35.5047   42.3439 C   0  0  0  0  0  0  0  0  0  0  0  0
   43.4979   34.4039   41.5999 N   0  0  0  0  0  0  0  0  0  0  0  0
   44.7009   33.8900   41.4247 N   0  0  0  0  0  0  0  0  0  0  0  0
   49.3557   35.1455   41.9808 C   0  0  0  0  0  0  0  0  0  0  0  0
   47.9696   35.4662   41.8288 C   0  0  0  0  0  0  0  0  0  0  0  0
   47.0807   34.4406   42.1359 C   0  0  0  0  0  0  0  0  0  0  0  0
   47.5423   33.2385   42.5463 N   0  0  0  0  0  0  0  0  0  0  0  0
   48.8662   32.9774   42.6767 C   0  0  0  0  0  0  0  0  0  0  0  0
   49.7434   33.9309   42.3929 N   0  0  0  0  0  0  0  0  0  0  0  0
   42.3552   33.7526   39.6425 N   0  0  0  0  0  0  0  0  0  0  0  0
   42.2231   33.9366   41.0914 C   0  0  2  0  0  0  0  0  0  0  0  0
   41.1717   34.9309   41.4408 C   0  0  0  0  0  0  0  0  0  0  0  0
   40.3305   35.2696   40.3157 N   0  0  0  0  0  0  0  0  0  0  0  0
   41.0261   35.6120   39.1280 C   0  0  0  0  0  0  0  0  0  0  0  0
   42.4518   35.0969   39.0938 C   0  0  2  0  0  0  0  0  0  0  0  0
   45.4628   36.4115   43.2112 H   0  0  0  0  0  0  0  0  0  0  0  0
   42.9928   36.3061   42.8090 H   0  0  0  0  0  0  0  0  0  0  0  0
   50.0587   35.9297   41.7468 H   0  0  0  0  0  0  0  0  0  0  0  0
   47.6111   36.4181   41.5039 H   0  0  0  0  0  0  0  0  0  0  0  0
   49.1226   31.9935   43.0086 H   0  0  0  0  0  0  0  0  0  0  0  0
   43.1647   33.1655   39.4639 H   0  0  0  0  0  0  0  0  0  0  0  0
   42.0515   32.9200   41.5260 H   0  0  0  0  0  0  0  0  0  0  0  0
   40.5157   34.4671   42.2064 H   0  0  0  0  0  0  0  0  0  0  0  0
   41.5236   35.9353   41.7376 H   0  0  0  0  0  0  0  0  0  0  0  0
   39.4799   34.7080   40.2164 H   0  0  0  0  0  0  0  0  0  0  0  0
   40.9867   36.7370   39.0761 H   0  0  0  0  0  0  0  0  0  0  0  0
   40.4675   35.1330   38.2895 H   0  0  0  0  0  0  0  0  0  0  0  0
   43.0214   35.7441   39.7949 H   0  0  0  0  0  0  0  0  0  0  0  0
   41.0692   34.0345   36.8485 O   0  0  0  0  0  0  0  0  0  0  0  0
   42.2732   34.6008   36.6166 C   0  0  2  0  0  0  0  0  0  0  0  0
   43.0688   35.1090   37.7595 C   0  0  1  0  0  0  0  0  0  0  0  0
   43.3633   36.5174   37.3036 C   0  0  1  0  0  0  0  0  0  0  0  0
   43.4926   37.2311   38.1102 H   0  0  0  0  0  0  0  0  0  0  0  0
   42.1331   36.8552   36.6900 O   0  0  0  0  0  0  0  0  0  0  0  0
   42.0369   35.8371   35.7619 C   0  0  1  0  0  0  0  0  0  0  0  0
   42.8367   35.9785   35.0044 H   0  0  0  0  0  0  0  0  0  0  0  0
   41.1224   33.0500   36.7115 H   0  0  0  0  0  0  0  0  0  0  0  0
   42.8795   33.9198   35.9599 H   0  0  0  0  0  0  0  0  0  0  0  0
   44.0399   34.5741   37.7812 H   0  0  0  0  0  0  0  0  0  0  0  0
   44.1868   36.5501   36.5586 H   0  0  0  0  0  0  0  0  0  0  0  0
   41.0433   35.8031   35.2788 H   0  0  0  0  0  0  0  0  0  0  0  0
  1  8  1  0
  1  2  1  0
  3  2  2  0
  4  3  1  0
  5  4  1  0
  5  1  2  0
  6 11  2  0
  7  6  1  0
  7  8  2  0
  8  9  1  0
  9 10  2  0
 11 10  1  0
 12 13  1  0
 13 14  1  0
 13  4  1  0
 15 14  1  0
 16 15  1  0
 17 16  1  0
 17 12  1  0
  2 18  1  0
  3 19  1  0
  6 20  1  0
  7 21  1  0
 10 22  1  0
 12 23  1  0
 13 24  1  1
 14 25  1  0
 14 26  1  0
 15 27  1  0
 16 28  1  0
 16 29  1  0
 17 30  1  1
 31 32  1  0
 32 33  1  0
 33 34  1  0
 34 35  1  1
 34 36  1  0
 36 37  1  0
 37 38  1  6
 37 32  1  0
 31 39  1  0
 32 40  1  6
 33 41  1  1
 34 42  1  0
 37 43  1  0
 17 33  1  0
M  ISO  8  18  14  19  14  20  14  21  14  22  14  23   5  24  13  25  13
M  ISO  7  26  13  27   5  28  13  29  13  30  13  35  15  38  16
M  END
>  <DihAtoms>  (1) 
15,16,32,31

>  <DihDeg>  (1) 
59.71970486837985

$$$$
