
 OpenBabel03242518463D

 45 48  0  0  1  0  0  0  0  0999 V2000
   47.4620   33.0840   44.3940 C   0  0  2  0  0  0  0  0  0  0  0  0
   47.3320   33.4160   42.9530 C   0  0  1  0  0  0  0  0  0  0  0  0
   47.2200   32.1690   42.0760 C   0  0  0  0  0  0  0  0  0  0  0  0
   48.3450   31.4130   42.4210 O   0  0  0  0  0  0  0  0  0  0  0  0
   48.2060   30.8350   43.6640 C   0  0  0  0  0  0  0  0  0  0  0  0
   47.2780   31.5670   44.5800 C   0  0  1  0  0  0  0  0  0  0  0  0
   48.4880   33.3000   44.7510 H   0  0  0  0  0  0  0  0  0  0  0  0
   48.2510   33.9770   42.6310 H   0  0  0  0  0  0  0  0  0  0  0  0
   46.2780   31.6440   42.2270 H   0  0  0  0  0  0  0  0  0  0  0  0
   47.3470   32.4990   41.0250 H   0  0  0  0  0  0  0  0  0  0  0  0
   47.7870   29.7960   43.5330 H   0  0  0  0  0  0  0  0  0  0  0  0
   49.2080   30.6790   44.1430 H   0  0  0  0  0  0  0  0  0  0  0  0
   46.2200   31.3610   44.3180 H   0  0  0  0  0  0  0  0  0  0  0  0
   45.0170   36.2520   42.7910 C   0  0  0  0  0  0  0  0  0  0  0  0
   43.9640   35.7920   41.9480 C   0  0  0  0  0  0  0  0  0  0  0  0
   44.1060   34.4720   41.4550 C   0  0  0  0  0  0  0  0  0  0  0  0
   45.1950   33.7490   41.8000 N   0  0  0  0  0  0  0  0  0  0  0  0
   46.1600   34.2430   42.6030 C   0  0  0  0  0  0  0  0  0  0  0  0
   46.0650   35.4960   43.0960 N   0  0  0  0  0  0  0  0  0  0  0  0
   43.1250   36.4200   41.7140 H   0  0  0  0  0  0  0  0  0  0  0  0
   43.3140   34.1140   40.8160 H   0  0  0  0  0  0  0  0  0  0  0  0
   44.8900   37.5180   43.2700 O   0  0  0  0  0  0  0  0  0  0  0  0
   44.0450   37.8380   43.7290 H   0  0  0  0  0  0  0  0  0  0  0  0
   46.5320   33.7340   45.2110 O   0  0  0  0  0  0  0  0  0  0  0  0
   45.6250   33.4500   44.9160 H   0  0  0  0  0  0  0  0  0  0  0  0
   47.4860   31.3030   45.9150 O   0  0  0  0  0  0  0  0  0  0  0  0
   46.3950   28.8350   45.8840 F   0  0  0  0  0  0  0  0  0  0  0  0
   46.2050   29.7420   46.8640 C   0  0  0  0  0  0  0  0  0  0  0  0
   46.7320   31.0150   46.9600 C   0  0  0  0  0  0  0  0  0  0  0  0
   46.3790   31.7140   48.1020 C   0  0  0  0  0  0  0  0  0  0  0  0
   45.5630   31.2420   49.1140 C   0  0  0  0  0  0  0  0  0  0  0  0
   45.0660   29.9620   48.9590 C   0  0  0  0  0  0  0  0  0  0  0  0
   45.3740   29.2000   47.8460 C   0  0  0  0  0  0  0  0  0  0  0  0
   46.8340   32.7190   48.1140 H   0  0  0  0  0  0  0  0  0  0  0  0
   45.3790   31.9080   49.9440 H   0  0  0  0  0  0  0  0  0  0  0  0
   44.4450   29.6890   49.7990 H   0  0  0  0  0  0  0  0  0  0  0  0
   45.8110   26.7350   47.6560 C   0  0  2  0  0  0  0  0  0  0  0  0
   44.7880   27.8400   47.7800 C   0  0  2  0  0  0  0  0  0  0  0  0
   44.0060   27.6070   46.5360 C   0  0  0  0  0  0  0  0  0  0  0  0
   43.0640   28.1440   46.4390 H   0  0  0  0  0  0  0  0  0  0  0  0
   43.7290   26.2270   46.6830 O   0  0  0  0  0  0  0  0  0  0  0  0
   44.9440   25.6430   47.0200 C   0  0  0  0  0  0  0  0  0  0  0  0
   45.4080   25.1690   46.1560 H   0  0  0  0  0  0  0  0  0  0  0  0
   46.2490   26.2370   48.8690 O   0  0  0  0  0  0  0  0  0  0  0  0
   47.1000   26.7290   49.1010 H   0  0  0  0  0  0  0  0  0  0  0  0
  1  6  1  0  0  0  0
  1  7  1  1  0  0  0
  1 24  1  0  0  0  0
  2  8  1  6  0  0  0
  2  1  1  0  0  0  0
  3  9  1  0  0  0  0
  3  4  1  0  0  0  0
  3  2  1  0  0  0  0
  4  5  1  0  0  0  0
  5 12  1  0  0  0  0
  5  6  1  0  0  0  0
  6 13  1  6  0  0  0
  6 26  1  0  0  0  0
 10  3  1  0  0  0  0
 11  5  1  0  0  0  0
 14 19  1  0  0  0  0
 14 22  1  0  0  0  0
 15 14  2  0  0  0  0
 16 17  2  0  0  0  0
 16 15  1  0  0  0  0
 17 18  1  0  0  0  0
 18  2  1  0  0  0  0
 18 19  2  0  0  0  0
 20 15  1  0  0  0  0
 21 16  1  0  0  0  0
 22 23  1  0  0  0  0
 25 24  1  0  0  0  0
 26 29  1  0  0  0  0
 27 28  1  0  0  0  0
 28 29  2  0  0  0  0
 28 33  1  0  0  0  0
 29 30  1  0  0  0  0
 30 34  1  0  0  0  0
 30 31  2  0  0  0  0
 31 35  1  0  0  0  0
 32 31  1  0  0  0  0
 32 36  1  0  0  0  0
 33 32  2  0  0  0  0
 37 38  1  0  0  0  0
 37 44  1  1  0  0  0
 38 33  1  6  0  0  0
 39 41  1  0  0  0  0
 39 38  1  0  0  0  0
 40 39  1  0  0  0  0
 41 42  1  0  0  0  0
 42 37  1  0  0  0  0
 43 42  1  0  0  0  0
 44 45  1  0  0  0  0
M  END
>  <minimizedAffinity>
-5.90360165

>  <minimizedRMSD>
0.706486106

$$$$
