
 OpenBabel03252504373D

 23 24  0  0  1  0  0  0  0  0999 V2000
   47.2890   33.5470   44.0410 C   0  0  0  0  0  0  0  0  0  0  0  0
   47.7120   34.2470   44.7850 H   0  0  0  0  0  0  0  0  0  0  0  0
   47.0730   32.5410   44.4980 H   0  0  0  0  0  0  0  0  0  0  0  0
   44.7720   36.0700   43.4060 C   0  0  1  0  0  3  0  0  0  0  0  0
   45.9980   35.3450   42.8360 C   0  0  0  0  0  3  0  0  0  0  0  0
   45.9620   35.2650   41.7430 H   0  0  0  0  0  0  0  0  0  0  0  0
   45.9210   34.0570   43.5790 C   0  0  2  0  0  3  0  0  0  0  0  0
   45.0430   34.1820   44.6220 O   0  0  0  0  0  0  0  0  0  0  0  0
   44.7420   35.5080   44.8060 C   0  0  0  0  0  3  0  0  0  0  0  0
   43.7410   35.6260   45.2750 H   0  0  0  0  0  0  0  0  0  0  0  0
   44.9940   37.4470   43.3910 O   0  0  0  0  0  0  0  0  0  0  0  0
   44.3830   37.9020   44.0190 H   0  0  0  0  0  0  0  0  0  0  0  0
   48.7900   32.1190   42.7300 C   0  0  0  0  0  3  0  0  0  0  0  0
   48.1720   33.2760   42.8890 C   0  0  0  0  0  3  0  0  0  0  0  0
   49.6460   31.9290   41.5660 C   0  0  0  0  0  0  0  0  0  0  0  0
   51.0340   31.8670   41.7980 C   0  0  0  0  0  0  0  0  0  0  0  0
   51.8960   31.6850   40.7040 C   0  0  0  0  0  0  0  0  0  0  0  0
   51.3350   31.5770   39.4680 N   0  0  0  0  0  0  0  0  0  0  0  0
   49.9980   31.6420   39.2880 C   0  0  0  0  0  0  0  0  0  0  0  0
   49.1810   31.8150   40.3270 N   0  0  0  0  0  0  0  0  0  0  0  0
   51.4290   31.9600   42.8100 H   0  0  0  0  0  0  0  0  0  0  0  0
   52.9670   31.6340   40.8550 H   0  0  0  0  0  0  0  0  0  0  0  0
   49.5490   31.5580   38.3170 H   0  0  0  0  0  0  0  0  0  0  0  0
  1  3  1  0  0  0  0
  1  2  1  0  0  0  0
  4 11  1  1  0  0  0
  4  9  1  0  0  0  0
  5  4  1  0  0  0  0
  5  7  1  0  0  0  0
  6  5  1  0  0  0  0
  7  1  1  1  0  0  0
  7  8  1  0  0  0  0
  8  9  1  0  0  0  0
  9 10  1  0  0  0  0
 11 12  1  0  0  0  0
 13 14  2  0  0  0  0
 14  1  1  0  0  0  0
 15 16  1  0  0  0  0
 15 13  1  0  0  0  0
 16 21  1  0  0  0  0
 17 22  1  0  0  0  0
 17 16  2  0  0  0  0
 18 17  1  0  0  0  0
 19 18  2  0  0  0  0
 19 20  1  0  0  0  0
 20 15  2  0  0  0  0
 23 19  1  0  0  0  0
M  END
>  <minimizedAffinity>
-4.13206673

>  <minimizedRMSD>
6.31603956

$$$$
