
 OpenBabel03252507573D

 27 29  0  0  1  0  0  0  0  0999 V2000
   46.6780   32.4870   45.8910 C   0  0  1  0  0  0  0  0  0  0  0  0
   47.0710   32.7950   47.3000 C   0  0  0  0  0  0  0  0  0  0  0  0
   45.7110   32.2770   47.0180 C   0  0  2  0  0  0  0  0  0  0  0  0
   47.2010   31.6890   45.3610 H   0  0  0  0  0  0  0  0  0  0  0  0
   47.2040   33.8640   47.5850 H   0  0  0  0  0  0  0  0  0  0  0  0
   47.8970   32.1730   47.6930 H   0  0  0  0  0  0  0  0  0  0  0  0
   44.8900   33.0400   47.1640 H   0  0  0  0  0  0  0  0  0  0  0  0
   46.6440   34.7520   43.0050 C   0  0  0  0  0  0  0  0  0  0  0  0
   45.5590   35.6020   43.2720 C   0  0  0  0  0  0  0  0  0  0  0  0
   44.8260   35.3880   44.4670 C   0  0  0  0  0  0  0  0  0  0  0  0
   45.2210   34.3720   45.2800 N   0  0  0  0  0  0  0  0  0  0  0  0
   46.2850   33.5870   44.9550 C   0  0  0  0  0  0  0  0  0  0  0  0
   46.9960   33.7540   43.8480 N   0  0  0  0  0  0  0  0  0  0  0  0
   45.2570   36.4050   42.6170 H   0  0  0  0  0  0  0  0  0  0  0  0
   43.9830   36.0080   44.7280 H   0  0  0  0  0  0  0  0  0  0  0  0
   47.3210   35.0460   41.7850 C   0  0  0  0  0  0  0  0  0  0  0  0
   48.4300   35.6530   41.6850 O   0  0  0  0  0  0  0  0  0  0  0  0
   46.8550   34.7270   40.8560 H   0  0  0  0  0  0  0  0  0  0  0  0
   45.9960   30.2080   48.4450 C   0  0  2  0  0  3  0  0  0  0  0  0
   45.2580   30.8980   47.3520 C   0  0  2  0  0  3  0  0  0  0  0  0
   45.4700   29.9520   46.1890 C   0  0  0  0  0  3  0  0  0  0  0  0
   44.7680   29.1160   46.1970 H   0  0  0  0  0  0  0  0  0  0  0  0
   46.7990   29.5630   46.3510 O   0  0  0  0  0  0  0  0  0  0  0  0
   47.0550   29.4340   47.6970 C   0  0  0  0  0  3  0  0  0  0  0  0
   46.9730   28.3420   47.9350 H   0  0  0  0  0  0  0  0  0  0  0  0
   45.1670   29.2910   49.1300 O   0  0  0  0  0  0  0  0  0  0  0  0
   44.4590   28.9230   48.5730 H   0  0  0  0  0  0  0  0  0  0  0  0
  1  4  1  6  0  0  0
  1  3  1  0  0  0  0
  1  2  1  0  0  0  0
  2  5  1  0  0  0  0
  2  6  1  0  0  0  0
  3  7  1  1  0  0  0
  3  2  1  0  0  0  0
  3 20  1  0  0  0  0
  8  9  2  0  0  0  0
  8 13  1  0  0  0  0
  9 10  1  0  0  0  0
 10 15  1  0  0  0  0
 10 11  2  0  0  0  0
 12 11  1  0  0  0  0
 12  1  1  0  0  0  0
 13 12  2  0  0  0  0
 14  9  1  0  0  0  0
 16  8  1  0  0  0  0
 17 16  2  0  0  0  0
 18 16  1  0  0  0  0
 19 26  1  6  0  0  0
 20 21  1  6  0  0  0
 20 19  1  0  0  0  0
 21 22  1  0  0  0  0
 21 23  1  0  0  0  0
 23 24  1  0  0  0  0
 24 25  1  0  0  0  0
 24 19  1  0  0  0  0
 27 26  1  0  0  0  0
M  END
>  <minimizedAffinity>
-4.75151348

>  <minimizedRMSD>
1.32822013

$$$$
