
 OpenBabel03242518423D

 19 20  0  0  1  0  0  0  0  0999 V2000
   45.1730   34.4250   45.4010 C   0  0  0  0  0  0  0  0  0  0  0  0
   45.8300   34.2830   44.1660 C   0  0  0  0  0  0  0  0  0  0  0  0
   46.8460   33.3080   44.1000 C   0  0  0  0  0  0  0  0  0  0  0  0
   47.1260   32.5780   45.2030 N   0  0  0  0  0  0  0  0  0  0  0  0
   46.4600   32.7580   46.3650 C   0  0  0  0  0  0  0  0  0  0  0  0
   45.4930   33.6670   46.4730 N   0  0  0  0  0  0  0  0  0  0  0  0
   45.5790   34.8840   43.3100 H   0  0  0  0  0  0  0  0  0  0  0  0
   47.3610   33.1880   43.1560 H   0  0  0  0  0  0  0  0  0  0  0  0
   46.4330   30.4800   47.3980 C   0  0  1  0  0  0  0  0  0  0  0  0
   46.8040   31.9300   47.5560 C   0  0  2  0  0  0  0  0  0  0  0  0
   45.8800   32.3620   48.6770 C   0  0  0  0  0  0  0  0  0  0  0  0
   46.2210   31.9750   49.6510 H   0  0  0  0  0  0  0  0  0  0  0  0
   44.6790   31.7510   48.2860 O   0  0  0  0  0  0  0  0  0  0  0  0
   45.0440   30.4460   47.9960 C   0  0  0  0  0  0  0  0  0  0  0  0
   45.0650   29.8670   48.9340 H   0  0  0  0  0  0  0  0  0  0  0  0
   46.4740   30.0380   46.0980 O   0  0  0  0  0  0  0  0  0  0  0  0
   45.8350   29.3210   45.8900 H   0  0  0  0  0  0  0  0  0  0  0  0
   44.1760   35.3770   45.4770 O   0  0  0  0  0  0  0  0  0  0  0  0
   44.3160   36.3580   45.7090 H   0  0  0  0  0  0  0  0  0  0  0  0
  1 18  1  0  0  0  0
  1  6  1  0  0  0  0
  2  1  2  0  0  0  0
  3  2  1  0  0  0  0
  3  4  2  0  0  0  0
  4  5  1  0  0  0  0
  5  6  2  0  0  0  0
  7  2  1  0  0  0  0
  8  3  1  0  0  0  0
  9 16  1  6  0  0  0
  9 10  1  0  0  0  0
  9 14  1  0  0  0  0
 10  5  1  6  0  0  0
 10 11  1  0  0  0  0
 11 12  1  0  0  0  0
 13 11  1  0  0  0  0
 14 13  1  0  0  0  0
 14 15  1  0  0  0  0
 17 16  1  0  0  0  0
 18 19  1  0  0  0  0
M  END
>  <minimizedAffinity>
-4.44838715

>  <minimizedRMSD>
1.8032757

$$$$
