
 OpenBabel03252505303D

 27 28  0  0  1  0  0  0  0  0999 V2000
   46.6530   31.4780   48.8150 O   0  0  0  0  0  0  0  0  0  0  0  0
   45.7410   31.8310   47.6280 P   0  0  1  0  0  0  0  0  0  0  0  0
   44.3860   32.6830   48.1240 O   0  0  0  0  0  0  0  0  0  0  0  0
   44.6250   33.5890   48.4900 H   0  0  0  0  0  0  0  0  0  0  0  0
   46.6760   32.7400   46.5360 O   0  0  0  0  0  0  0  0  0  0  0  0
   44.6470   35.2620   45.0970 C   0  0  0  0  0  0  0  0  0  0  0  0
   45.1270   35.4160   43.7730 C   0  0  0  0  0  0  0  0  0  0  0  0
   46.2110   34.5740   43.4200 C   0  0  0  0  0  0  0  0  0  0  0  0
   46.6870   33.7120   44.3560 N   0  0  0  0  0  0  0  0  0  0  0  0
   46.1860   33.6190   45.5880 C   0  0  0  0  0  0  0  0  0  0  0  0
   45.1600   34.3980   45.9650 N   0  0  0  0  0  0  0  0  0  0  0  0
   43.8100   35.9170   45.3590 H   0  0  0  0  0  0  0  0  0  0  0  0
   44.6950   36.1270   43.0800 H   0  0  0  0  0  0  0  0  0  0  0  0
   46.6230   34.6430   42.4220 H   0  0  0  0  0  0  0  0  0  0  0  0
   45.2540   30.3750   46.9560 O   0  0  0  0  0  0  0  0  0  0  0  0
   45.3550   29.3930   47.9150 C   0  0  0  0  0  0  0  0  0  0  0  0
   44.4660   29.4620   48.5720 H   0  0  0  0  0  0  0  0  0  0  0  0
   46.2360   29.6140   48.5500 H   0  0  0  0  0  0  0  0  0  0  0  0
   45.4710   25.8610   48.3750 C   0  0  1  0  0  3  0  0  0  0  0  0
   44.6150   27.0600   48.0500 C   0  0  0  0  0  3  0  0  0  0  0  0
   43.6790   26.8050   47.5100 H   0  0  0  0  0  0  0  0  0  0  0  0
   45.5160   28.0080   47.3320 C   0  0  2  0  0  3  0  0  0  0  0  0
   46.8230   27.5870   47.5480 O   0  0  0  0  0  0  0  0  0  0  0  0
   46.7980   26.2440   47.8080 C   0  0  0  0  0  3  0  0  0  0  0  0
   46.9610   25.6930   46.8400 H   0  0  0  0  0  0  0  0  0  0  0  0
   45.5820   25.6340   49.7570 O   0  0  0  0  0  0  0  0  0  0  0  0
   44.6800   25.7410   50.1960 H   0  0  0  0  0  0  0  0  0  0  0  0
  2  3  1  0  0  0  0
  2  1  2  1  0  0  0
  3  4  1  0  0  0  0
  5  2  1  0  0  0  0
  6 12  1  0  0  0  0
  6 11  1  0  0  0  0
  7  6  2  0  0  0  0
  8  7  1  0  0  0  0
  8  9  2  0  0  0  0
  9 10  1  0  0  0  0
 10 11  2  0  0  0  0
 10  5  1  0  0  0  0
 13  7  1  0  0  0  0
 14  8  1  0  0  0  0
 15  2  1  0  0  0  0
 15 16  1  0  0  0  0
 16 18  1  0  0  0  0
 16 17  1  0  0  0  0
 19 26  1  1  0  0  0
 20 19  1  0  0  0  0
 21 20  1  0  0  0  0
 22 23  1  0  0  0  0
 22 16  1  1  0  0  0
 22 20  1  0  0  0  0
 23 24  1  0  0  0  0
 24 19  1  0  0  0  0
 25 24  1  0  0  0  0
 26 27  1  0  0  0  0
M  END
>  <minimizedAffinity>
-4.76120472

>  <minimizedRMSD>
1.2449646

$$$$
