
 OpenBabel03242518483D

 45 48  0  0  1  0  0  0  0  0999 V2000
   39.6980   30.7490   40.0510 C   0  0  2  0  0  0  0  0  0  0  0  0
   39.5210   32.0210   39.3060 C   0  0  1  0  0  0  0  0  0  0  0  0
   38.5080   32.9510   39.9740 C   0  0  0  0  0  0  0  0  0  0  0  0
   37.3600   32.1630   40.1000 O   0  0  0  0  0  0  0  0  0  0  0  0
   37.4990   31.2190   41.0950 C   0  0  0  0  0  0  0  0  0  0  0  0
   38.9150   30.8270   41.3750 C   0  0  1  0  0  0  0  0  0  0  0  0
   39.2440   29.9070   39.4920 H   0  0  0  0  0  0  0  0  0  0  0  0
   39.1380   31.7830   38.2770 H   0  0  0  0  0  0  0  0  0  0  0  0
   38.8740   33.3440   40.9210 H   0  0  0  0  0  0  0  0  0  0  0  0
   38.2820   33.7600   39.2490 H   0  0  0  0  0  0  0  0  0  0  0  0
   37.0800   31.6420   42.0530 H   0  0  0  0  0  0  0  0  0  0  0  0
   36.8650   30.3200   40.8800 H   0  0  0  0  0  0  0  0  0  0  0  0
   39.4290   31.6030   41.9780 H   0  0  0  0  0  0  0  0  0  0  0  0
   42.2470   33.9110   37.7500 C   0  0  0  0  0  0  0  0  0  0  0  0
   43.0400   34.3470   38.8510 C   0  0  0  0  0  0  0  0  0  0  0  0
   42.5800   33.9520   40.1310 C   0  0  0  0  0  0  0  0  0  0  0  0
   41.4540   33.2110   40.2320 N   0  0  0  0  0  0  0  0  0  0  0  0
   40.7460   32.8310   39.1480 C   0  0  0  0  0  0  0  0  0  0  0  0
   41.1480   33.1840   37.9090 N   0  0  0  0  0  0  0  0  0  0  0  0
   43.9260   34.9350   38.7000 H   0  0  0  0  0  0  0  0  0  0  0  0
   43.1730   34.2760   40.9720 H   0  0  0  0  0  0  0  0  0  0  0  0
   42.6810   34.2850   36.5160 O   0  0  0  0  0  0  0  0  0  0  0  0
   43.6360   34.1330   36.2120 H   0  0  0  0  0  0  0  0  0  0  0  0
   41.0290   30.4510   40.3550 O   0  0  0  0  0  0  0  0  0  0  0  0
   41.3770   31.1870   40.9270 H   0  0  0  0  0  0  0  0  0  0  0  0
   39.0450   29.6010   41.9850 O   0  0  0  0  0  0  0  0  0  0  0  0
   39.2330   27.3650   40.4860 F   0  0  0  0  0  0  0  0  0  0  0  0
   38.3840   27.5210   41.5230 C   0  0  0  0  0  0  0  0  0  0  0  0
   38.2340   28.6220   42.3420 C   0  0  0  0  0  0  0  0  0  0  0  0
   37.2930   28.4840   43.3490 C   0  0  0  0  0  0  0  0  0  0  0  0
   36.5210   27.3590   43.5790 C   0  0  0  0  0  0  0  0  0  0  0  0
   36.7170   26.2910   42.7250 C   0  0  0  0  0  0  0  0  0  0  0  0
   37.6390   26.3520   41.6950 C   0  0  0  0  0  0  0  0  0  0  0  0
   37.2250   29.3970   43.9640 H   0  0  0  0  0  0  0  0  0  0  0  0
   35.8280   27.4030   44.4060 H   0  0  0  0  0  0  0  0  0  0  0  0
   36.0710   25.4670   42.9880 H   0  0  0  0  0  0  0  0  0  0  0  0
   36.4750   24.7080   40.1980 C   0  0  2  0  0  3  0  0  0  0  0  0
   37.7700   25.1510   40.8380 C   0  0  2  0  0  3  0  0  0  0  0  0
   38.1090   23.9240   41.6080 C   0  0  0  0  0  3  0  0  0  0  0  0
   39.1090   23.8720   42.0350 H   0  0  0  0  0  0  0  0  0  0  0  0
   38.0030   22.9590   40.5790 O   0  0  0  0  0  0  0  0  0  0  0  0
   36.7980   23.2320   39.9440 C   0  0  0  0  0  3  0  0  0  0  0  0
   36.0140   22.5520   40.2740 H   0  0  0  0  0  0  0  0  0  0  0  0
   36.2340   25.2800   38.9630 O   0  0  0  0  0  0  0  0  0  0  0  0
   35.6510   26.0890   39.1190 H   0  0  0  0  0  0  0  0  0  0  0  0
  1  7  1  6  0  0  0
  1 24  1  0  0  0  0
  1  6  1  0  0  0  0
  2  8  1  6  0  0  0
  2  3  1  0  0  0  0
  2  1  1  0  0  0  0
  3  4  1  0  0  0  0
  3  9  1  0  0  0  0
  4  5  1  0  0  0  0
  5  6  1  0  0  0  0
  5 11  1  0  0  0  0
  6 13  1  1  0  0  0
  6 26  1  0  0  0  0
 10  3  1  0  0  0  0
 12  5  1  0  0  0  0
 14 19  2  0  0  0  0
 14 15  1  0  0  0  0
 15 16  2  0  0  0  0
 16 17  1  0  0  0  0
 16 21  1  0  0  0  0
 18  2  1  0  0  0  0
 18 17  2  0  0  0  0
 19 18  1  0  0  0  0
 20 15  1  0  0  0  0
 22 14  1  0  0  0  0
 23 22  1  0  0  0  0
 24 25  1  0  0  0  0
 26 29  1  0  0  0  0
 27 28  1  0  0  0  0
 28 33  2  0  0  0  0
 28 29  1  0  0  0  0
 29 30  2  0  0  0  0
 30 31  1  0  0  0  0
 30 34  1  0  0  0  0
 31 35  1  0  0  0  0
 32 36  1  0  0  0  0
 32 31  2  0  0  0  0
 33 32  1  0  0  0  0
 37 44  1  6  0  0  0
 37 38  1  0  0  0  0
 38 39  1  0  0  0  0
 38 33  1  1  0  0  0
 39 40  1  0  0  0  0
 41 39  1  0  0  0  0
 42 37  1  0  0  0  0
 42 43  1  0  0  0  0
 42 41  1  0  0  0  0
 44 45  1  0  0  0  0
M  END
>  <minimizedAffinity>
-6.73002815

$$$$

 OpenBabel03242518483D

 45 48  0  0  1  0  0  0  0  0999 V2000
   39.3300   31.6210   39.3200 C   0  0  2  0  0  0  0  0  0  0  0  0
   39.6770   33.0640   39.2870 C   0  0  1  0  0  0  0  0  0  0  0  0
   38.8280   33.8900   40.2530 C   0  0  0  0  0  0  0  0  0  0  0  0
   37.5120   33.5790   39.8960 O   0  0  0  0  0  0  0  0  0  0  0  0
   37.1620   32.3110   40.3050 C   0  0  0  0  0  0  0  0  0  0  0  0
   38.3170   31.3730   40.4540 C   0  0  1  0  0  0  0  0  0  0  0  0
   38.8060   31.3270   38.3900 H   0  0  0  0  0  0  0  0  0  0  0  0
   39.4890   33.4540   38.2500 H   0  0  0  0  0  0  0  0  0  0  0  0
   39.0610   33.6710   41.2940 H   0  0  0  0  0  0  0  0  0  0  0  0
   38.9990   34.9580   40.0060 H   0  0  0  0  0  0  0  0  0  0  0  0
   36.6650   32.3830   41.3150 H   0  0  0  0  0  0  0  0  0  0  0  0
   36.3750   31.8810   39.6320 H   0  0  0  0  0  0  0  0  0  0  0  0
   38.8690   31.5710   41.3950 H   0  0  0  0  0  0  0  0  0  0  0  0
   42.6690   33.8290   41.2590 C   0  0  0  0  0  0  0  0  0  0  0  0
   43.6990   33.9740   40.2840 C   0  0  0  0  0  0  0  0  0  0  0  0
   43.2980   33.7960   38.9380 C   0  0  0  0  0  0  0  0  0  0  0  0
   42.0060   33.5070   38.6630 N   0  0  0  0  0  0  0  0  0  0  0  0
   41.0770   33.3810   39.6340 C   0  0  0  0  0  0  0  0  0  0  0  0
   41.4150   33.5430   40.9300 N   0  0  0  0  0  0  0  0  0  0  0  0
   44.7080   34.2060   40.5720 H   0  0  0  0  0  0  0  0  0  0  0  0
   44.0700   33.9040   38.1920 H   0  0  0  0  0  0  0  0  0  0  0  0
   43.0440   33.9990   42.5550 O   0  0  0  0  0  0  0  0  0  0  0  0
   43.5660   34.8120   42.8620 H   0  0  0  0  0  0  0  0  0  0  0  0
   40.4260   30.7800   39.5310 O   0  0  0  0  0  0  0  0  0  0  0  0
   40.8190   31.0160   40.4140 H   0  0  0  0  0  0  0  0  0  0  0  0
   37.9690   30.0430   40.3900 O   0  0  0  0  0  0  0  0  0  0  0  0
   38.2670   27.5380   39.4310 F   0  0  0  0  0  0  0  0  0  0  0  0
   37.8780   27.8340   40.6880 C   0  0  0  0  0  0  0  0  0  0  0  0
   37.7120   29.0810   41.2570 C   0  0  0  0  0  0  0  0  0  0  0  0
   37.3240   29.0750   42.5870 C   0  0  0  0  0  0  0  0  0  0  0  0
   37.1000   27.9470   43.3540 C   0  0  0  0  0  0  0  0  0  0  0  0
   37.2810   26.7290   42.7280 C   0  0  0  0  0  0  0  0  0  0  0  0
   37.6680   26.6520   41.4010 C   0  0  0  0  0  0  0  0  0  0  0  0
   37.2120   30.1020   42.9760 H   0  0  0  0  0  0  0  0  0  0  0  0
   36.8010   28.1050   44.3800 H   0  0  0  0  0  0  0  0  0  0  0  0
   37.0830   25.9150   43.4090 H   0  0  0  0  0  0  0  0  0  0  0  0
   36.5740   24.7260   40.2200 C   0  0  2  0  0  3  0  0  0  0  0  0
   37.8350   25.2960   40.8280 C   0  0  2  0  0  3  0  0  0  0  0  0
   38.1140   24.2610   41.8600 C   0  0  0  0  0  3  0  0  0  0  0  0
   39.0870   24.3020   42.3470 H   0  0  0  0  0  0  0  0  0  0  0  0
   38.0570   23.0990   41.0550 O   0  0  0  0  0  0  0  0  0  0  0  0
   36.8940   23.2290   40.3050 C   0  0  0  0  0  3  0  0  0  0  0  0
   36.0840   22.6350   40.7250 H   0  0  0  0  0  0  0  0  0  0  0  0
   36.4130   25.0220   38.8800 O   0  0  0  0  0  0  0  0  0  0  0  0
   35.8310   25.8450   38.8260 H   0  0  0  0  0  0  0  0  0  0  0  0
  1  7  1  6  0  0  0
  1 24  1  0  0  0  0
  1  6  1  0  0  0  0
  2  8  1  6  0  0  0
  2  1  1  0  0  0  0
  2 18  1  0  0  0  0
  2  3  1  0  0  0  0
  3  9  1  0  0  0  0
  4  3  1  0  0  0  0
  4  5  1  0  0  0  0
  5  6  1  0  0  0  0
  5 11  1  0  0  0  0
  6 13  1  1  0  0  0
 10  3  1  0  0  0  0
 12  5  1  0  0  0  0
 14 22  1  0  0  0  0
 15 20  1  0  0  0  0
 15 14  2  0  0  0  0
 16 15  1  0  0  0  0
 17 16  2  0  0  0  0
 17 18  1  0  0  0  0
 18 19  2  0  0  0  0
 19 14  1  0  0  0  0
 21 16  1  0  0  0  0
 22 23  1  0  0  0  0
 24 25  1  0  0  0  0
 26  6  1  0  0  0  0
 26 29  1  0  0  0  0
 27 28  1  0  0  0  0
 28 29  2  0  0  0  0
 28 33  1  0  0  0  0
 29 30  1  0  0  0  0
 30 34  1  0  0  0  0
 30 31  2  0  0  0  0
 31 35  1  0  0  0  0
 32 31  1  0  0  0  0
 32 36  1  0  0  0  0
 33 32  2  0  0  0  0
 37 44  1  6  0  0  0
 37 42  1  0  0  0  0
 37 38  1  0  0  0  0
 38 33  1  1  0  0  0
 38 39  1  0  0  0  0
 39 40  1  0  0  0  0
 41 39  1  0  0  0  0
 42 43  1  0  0  0  0
 42 41  1  0  0  0  0
 45 44  1  0  0  0  0
M  END
>  <minimizedAffinity>
-6.38088417

$$$$

 OpenBabel03242518483D

 45 48  0  0  1  0  0  0  0  0999 V2000
   38.0500   28.7340   42.2030 C   0  0  2  0  0  0  0  0  0  0  0  0
   37.1060   27.6250   41.9130 C   0  0  1  0  0  0  0  0  0  0  0  0
   36.2000   27.9300   40.7200 C   0  0  0  0  0  0  0  0  0  0  0  0
   35.6090   29.1530   41.0500 O   0  0  0  0  0  0  0  0  0  0  0  0
   36.5020   30.1960   40.9350 C   0  0  0  0  0  0  0  0  0  0  0  0
   37.9350   29.7980   41.0960 C   0  0  1  0  0  0  0  0  0  0  0  0
   37.7620   29.2520   43.1390 H   0  0  0  0  0  0  0  0  0  0  0  0
   36.4480   27.4710   42.8090 H   0  0  0  0  0  0  0  0  0  0  0  0
   36.7500   27.9510   39.7800 H   0  0  0  0  0  0  0  0  0  0  0  0
   35.4000   27.1620   40.7140 H   0  0  0  0  0  0  0  0  0  0  0  0
   36.4000   30.6450   39.9050 H   0  0  0  0  0  0  0  0  0  0  0  0
   36.2320   31.0280   41.6360 H   0  0  0  0  0  0  0  0  0  0  0  0
   38.3160   29.3120   40.1760 H   0  0  0  0  0  0  0  0  0  0  0  0
   38.9750   24.4980   42.3000 C   0  0  0  0  0  0  0  0  0  0  0  0
   38.9250   23.9010   41.0070 C   0  0  0  0  0  0  0  0  0  0  0  0
   38.2210   24.6340   40.0210 C   0  0  0  0  0  0  0  0  0  0  0  0
   37.6560   25.8170   40.3510 N   0  0  0  0  0  0  0  0  0  0  0  0
   37.7390   26.3290   41.5970 C   0  0  0  0  0  0  0  0  0  0  0  0
   38.4000   25.6640   42.5670 N   0  0  0  0  0  0  0  0  0  0  0  0
   39.3970   22.9560   40.8120 H   0  0  0  0  0  0  0  0  0  0  0  0
   38.1780   24.1920   39.0380 H   0  0  0  0  0  0  0  0  0  0  0  0
   39.6490   23.8010   43.2540 O   0  0  0  0  0  0  0  0  0  0  0  0
   40.5890   23.4520   43.1040 H   0  0  0  0  0  0  0  0  0  0  0  0
   39.3870   28.3330   42.2770 O   0  0  0  0  0  0  0  0  0  0  0  0
   39.6340   27.9500   41.3930 H   0  0  0  0  0  0  0  0  0  0  0  0
   38.7660   30.8340   41.4540 O   0  0  0  0  0  0  0  0  0  0  0  0
   41.1800   30.8020   40.2470 F   0  0  0  0  0  0  0  0  0  0  0  0
   40.3850   31.8870   40.3370 C   0  0  0  0  0  0  0  0  0  0  0  0
   39.1390   31.9850   40.9250 C   0  0  0  0  0  0  0  0  0  0  0  0
   38.5440   33.2330   40.8410 C   0  0  0  0  0  0  0  0  0  0  0  0
   39.0930   34.3460   40.2320 C   0  0  0  0  0  0  0  0  0  0  0  0
   40.3420   34.1850   39.6630 C   0  0  0  0  0  0  0  0  0  0  0  0
   41.0010   32.9690   39.7050 C   0  0  0  0  0  0  0  0  0  0  0  0
   37.5540   33.2390   41.3290 H   0  0  0  0  0  0  0  0  0  0  0  0
   38.5050   35.2520   40.2480 H   0  0  0  0  0  0  0  0  0  0  0  0
   40.6800   35.1080   39.2150 H   0  0  0  0  0  0  0  0  0  0  0  0
   43.3490   33.8550   39.6590 C   0  0  2  0  0  3  0  0  0  0  0  0
   42.3350   32.9060   39.0640 C   0  0  2  0  0  3  0  0  0  0  0  0
   42.3250   33.3900   37.6570 C   0  0  0  0  0  3  0  0  0  0  0  0
   41.8150   32.7650   36.9260 H   0  0  0  0  0  0  0  0  0  0  0  0
   43.7140   33.3650   37.3860 O   0  0  0  0  0  0  0  0  0  0  0  0
   44.3110   33.9920   38.4740 C   0  0  0  0  0  3  0  0  0  0  0  0
   44.5710   35.0230   38.2420 H   0  0  0  0  0  0  0  0  0  0  0  0
   44.0800   33.3150   40.7020 O   0  0  0  0  0  0  0  0  0  0  0  0
   43.6180   33.5850   41.5580 H   0  0  0  0  0  0  0  0  0  0  0  0
  1 24  1  0  0  0  0
  1  7  1  1  0  0  0
  2  1  1  0  0  0  0
  2  8  1  1  0  0  0
  3  4  1  0  0  0  0
  3  2  1  0  0  0  0
  5  4  1  0  0  0  0
  5  6  1  0  0  0  0
  5 12  1  0  0  0  0
  6 13  1  6  0  0  0
  6 26  1  0  0  0  0
  6  1  1  0  0  0  0
  9  3  1  0  0  0  0
 10  3  1  0  0  0  0
 11  5  1  0  0  0  0
 14 19  1  0  0  0  0
 14 22  1  0  0  0  0
 15 14  2  0  0  0  0
 16 17  2  0  0  0  0
 16 15  1  0  0  0  0
 17 18  1  0  0  0  0
 18  2  1  0  0  0  0
 18 19  2  0  0  0  0
 20 15  1  0  0  0  0
 21 16  1  0  0  0  0
 23 22  1  0  0  0  0
 25 24  1  0  0  0  0
 27 28  1  0  0  0  0
 28 29  1  0  0  0  0
 29 26  1  0  0  0  0
 30 29  2  0  0  0  0
 30 34  1  0  0  0  0
 31 35  1  0  0  0  0
 31 30  1  0  0  0  0
 32 33  1  0  0  0  0
 32 31  2  0  0  0  0
 33 28  2  0  0  0  0
 36 32  1  0  0  0  0
 37 44  1  1  0  0  0
 38 37  1  0  0  0  0
 38 33  1  1  0  0  0
 39 38  1  0  0  0  0
 40 39  1  0  0  0  0
 41 39  1  0  0  0  0
 41 42  1  0  0  0  0
 42 37  1  0  0  0  0
 43 42  1  0  0  0  0
 44 45  1  0  0  0  0
M  END
>  <minimizedAffinity>
-6.17575979

$$$$

 OpenBabel03242518483D

 45 48  0  0  1  0  0  0  0  0999 V2000
   37.2680   28.6680   40.3650 C   0  0  2  0  0  0  0  0  0  0  0  0
   37.0860   29.7750   41.3370 C   0  0  1  0  0  0  0  0  0  0  0  0
   37.6390   29.4310   42.7210 C   0  0  0  0  0  0  0  0  0  0  0  0
   37.0030   28.2310   43.0500 O   0  0  0  0  0  0  0  0  0  0  0  0
   37.5110   27.1730   42.3270 C   0  0  0  0  0  0  0  0  0  0  0  0
   38.1170   27.5600   41.0160 C   0  0  1  0  0  0  0  0  0  0  0  0
   36.2960   28.1920   40.1330 H   0  0  0  0  0  0  0  0  0  0  0  0
   35.9860   29.9740   41.4510 H   0  0  0  0  0  0  0  0  0  0  0  0
   38.7260   29.3640   42.7240 H   0  0  0  0  0  0  0  0  0  0  0  0
   37.2700   30.2090   43.4200 H   0  0  0  0  0  0  0  0  0  0  0  0
   38.3260   26.6820   42.9340 H   0  0  0  0  0  0  0  0  0  0  0  0
   36.7360   26.3740   42.1950 H   0  0  0  0  0  0  0  0  0  0  0  0
   39.1230   28.0020   41.1610 H   0  0  0  0  0  0  0  0  0  0  0  0
   37.5960   33.1220   39.9380 C   0  0  0  0  0  0  0  0  0  0  0  0
   38.9460   33.4350   40.2700 C   0  0  0  0  0  0  0  0  0  0  0  0
   39.6470   32.4360   40.9890 C   0  0  0  0  0  0  0  0  0  0  0  0
   39.0170   31.2840   41.3090 N   0  0  0  0  0  0  0  0  0  0  0  0
   37.7340   31.0480   40.9660 C   0  0  0  0  0  0  0  0  0  0  0  0
   37.0290   31.9720   40.2800 N   0  0  0  0  0  0  0  0  0  0  0  0
   39.3860   34.3720   39.9840 H   0  0  0  0  0  0  0  0  0  0  0  0
   40.6700   32.6630   41.2450 H   0  0  0  0  0  0  0  0  0  0  0  0
   36.9150   34.0750   39.2470 O   0  0  0  0  0  0  0  0  0  0  0  0
   37.2870   34.4990   38.4050 H   0  0  0  0  0  0  0  0  0  0  0  0
   37.9010   29.0540   39.1800 O   0  0  0  0  0  0  0  0  0  0  0  0
   38.8040   29.3960   39.4210 H   0  0  0  0  0  0  0  0  0  0  0  0
   38.1880   26.5290   40.1070 O   0  0  0  0  0  0  0  0  0  0  0  0
   35.8420   25.9550   38.9030 F   0  0  0  0  0  0  0  0  0  0  0  0
   36.6550   25.0390   39.4680 C   0  0  0  0  0  0  0  0  0  0  0  0
   37.8690   25.2470   40.0910 C   0  0  0  0  0  0  0  0  0  0  0  0
   38.4960   24.1040   40.5590 C   0  0  0  0  0  0  0  0  0  0  0  0
   38.0050   22.8160   40.4490 C   0  0  0  0  0  0  0  0  0  0  0  0
   36.7850   22.6730   39.8160 C   0  0  0  0  0  0  0  0  0  0  0  0
   36.0970   23.7670   39.3210 C   0  0  0  0  0  0  0  0  0  0  0  0
   39.4580   24.3430   41.0440 H   0  0  0  0  0  0  0  0  0  0  0  0
   38.6110   22.0240   40.8640 H   0  0  0  0  0  0  0  0  0  0  0  0
   36.4920   21.6340   39.7800 H   0  0  0  0  0  0  0  0  0  0  0  0
   34.0380   22.3330   39.2430 C   0  0  2  0  0  3  0  0  0  0  0  0
   34.7980   23.5020   38.6600 C   0  0  2  0  0  3  0  0  0  0  0  0
   34.9480   23.0350   37.2550 C   0  0  0  0  0  3  0  0  0  0  0  0
   35.3010   23.7660   36.5290 H   0  0  0  0  0  0  0  0  0  0  0  0
   33.6010   22.7190   36.9630 O   0  0  0  0  0  0  0  0  0  0  0  0
   33.1580   21.9660   38.0440 C   0  0  0  0  0  3  0  0  0  0  0  0
   33.1630   20.9020   37.8120 H   0  0  0  0  0  0  0  0  0  0  0  0
   33.1820   22.6770   40.2720 O   0  0  0  0  0  0  0  0  0  0  0  0
   33.6830   22.5290   41.1370 H   0  0  0  0  0  0  0  0  0  0  0  0
  1  7  1  6  0  0  0
  1  6  1  0  0  0  0
  1  2  1  0  0  0  0
  2  8  1  1  0  0  0
  2  3  1  0  0  0  0
  3  9  1  0  0  0  0
  3  4  1  0  0  0  0
  3 10  1  0  0  0  0
  5 11  1  0  0  0  0
  5  4  1  0  0  0  0
  6 13  1  1  0  0  0
  6  5  1  0  0  0  0
 12  5  1  0  0  0  0
 14 15  2  0  0  0  0
 14 19  1  0  0  0  0
 15 16  1  0  0  0  0
 16 21  1  0  0  0  0
 16 17  2  0  0  0  0
 18 17  1  0  0  0  0
 18  2  1  0  0  0  0
 19 18  2  0  0  0  0
 20 15  1  0  0  0  0
 22 14  1  0  0  0  0
 23 22  1  0  0  0  0
 24 25  1  0  0  0  0
 24  1  1  0  0  0  0
 26  6  1  0  0  0  0
 27 28  1  0  0  0  0
 28 29  1  0  0  0  0
 29 26  1  0  0  0  0
 29 30  2  0  0  0  0
 30 34  1  0  0  0  0
 31 30  1  0  0  0  0
 31 35  1  0  0  0  0
 32 31  2  0  0  0  0
 33 28  2  0  0  0  0
 33 32  1  0  0  0  0
 36 32  1  0  0  0  0
 37 44  1  1  0  0  0
 38 37  1  0  0  0  0
 38 33  1  1  0  0  0
 39 38  1  0  0  0  0
 40 39  1  0  0  0  0
 41 39  1  0  0  0  0
 41 42  1  0  0  0  0
 42 37  1  0  0  0  0
 43 42  1  0  0  0  0
 44 45  1  0  0  0  0
M  END
>  <minimizedAffinity>
-6.05292749

$$$$

 OpenBabel03242518483D

 45 48  0  0  1  0  0  0  0  0999 V2000
   37.4890   27.2200   40.4030 C   0  0  2  0  0  0  0  0  0  0  0  0
   37.8820   25.9050   40.9680 C   0  0  1  0  0  0  0  0  0  0  0  0
   37.2910   25.6690   42.3580 C   0  0  0  0  0  0  0  0  0  0  0  0
   37.6990   26.7860   43.0930 O   0  0  0  0  0  0  0  0  0  0  0  0
   36.9980   27.9150   42.7310 C   0  0  0  0  0  0  0  0  0  0  0  0
   36.4580   27.8820   41.3360 C   0  0  1  0  0  0  0  0  0  0  0  0
   38.3550   27.9100   40.3880 H   0  0  0  0  0  0  0  0  0  0  0  0
   39.0010   25.8770   41.0650 H   0  0  0  0  0  0  0  0  0  0  0  0
   36.2110   25.5370   42.3280 H   0  0  0  0  0  0  0  0  0  0  0  0
   37.8040   24.7820   42.7830 H   0  0  0  0  0  0  0  0  0  0  0  0
   36.1120   28.0250   43.4230 H   0  0  0  0  0  0  0  0  0  0  0  0
   37.6110   28.8370   42.9060 H   0  0  0  0  0  0  0  0  0  0  0  0
   35.5520   27.2470   41.2780 H   0  0  0  0  0  0  0  0  0  0  0  0
   35.8150   23.2510   39.5170 C   0  0  0  0  0  0  0  0  0  0  0  0
   36.7130   22.5340   38.6740 C   0  0  0  0  0  0  0  0  0  0  0  0
   38.0440   23.0170   38.6450 C   0  0  0  0  0  0  0  0  0  0  0  0
   38.3750   24.0940   39.3910 N   0  0  0  0  0  0  0  0  0  0  0  0
   37.4760   24.7320   40.1690 C   0  0  0  0  0  0  0  0  0  0  0  0
   36.1970   24.3050   40.2280 N   0  0  0  0  0  0  0  0  0  0  0  0
   36.3830   21.6830   38.1060 H   0  0  0  0  0  0  0  0  0  0  0  0
   38.7320   22.4810   38.0100 H   0  0  0  0  0  0  0  0  0  0  0  0
   34.5350   22.7940   39.5520 O   0  0  0  0  0  0  0  0  0  0  0  0
   34.3150   21.8200   39.7250 H   0  0  0  0  0  0  0  0  0  0  0  0
   36.9250   27.1420   39.1260 O   0  0  0  0  0  0  0  0  0  0  0  0
   36.1030   26.5850   39.1960 H   0  0  0  0  0  0  0  0  0  0  0  0
   36.1890   29.1260   40.8120 O   0  0  0  0  0  0  0  0  0  0  0  0
   38.2400   30.5850   41.7840 F   0  0  0  0  0  0  0  0  0  0  0  0
   37.7890   30.6520   40.5150 C   0  0  0  0  0  0  0  0  0  0  0  0
   36.7580   29.9370   39.9390 C   0  0  0  0  0  0  0  0  0  0  0  0
   36.5350   30.2010   38.5970 C   0  0  0  0  0  0  0  0  0  0  0  0
   37.2480   31.1000   37.8260 C   0  0  0  0  0  0  0  0  0  0  0  0
   38.2660   31.7860   38.4600 C   0  0  0  0  0  0  0  0  0  0  0  0
   38.5510   31.5770   39.7980 C   0  0  0  0  0  0  0  0  0  0  0  0
   35.7010   29.5960   38.2030 H   0  0  0  0  0  0  0  0  0  0  0  0
   36.9550   31.1970   36.7910 H   0  0  0  0  0  0  0  0  0  0  0  0
   38.7590   32.4600   37.7740 H   0  0  0  0  0  0  0  0  0  0  0  0
   39.4330   33.8580   40.3640 C   0  0  2  0  0  3  0  0  0  0  0  0
   39.6630   32.3650   40.3790 C   0  0  2  0  0  3  0  0  0  0  0  0
   40.9110   32.2880   39.5720 C   0  0  0  0  0  3  0  0  0  0  0  0
   41.4340   31.3340   39.5650 H   0  0  0  0  0  0  0  0  0  0  0  0
   41.7020   33.2360   40.2630 O   0  0  0  0  0  0  0  0  0  0  0  0
   40.8840   34.3490   40.4230 C   0  0  0  0  0  3  0  0  0  0  0  0
   41.1130   35.1160   39.6850 H   0  0  0  0  0  0  0  0  0  0  0  0
   38.8050   34.3410   41.4970 O   0  0  0  0  0  0  0  0  0  0  0  0
   37.8180   34.3860   41.2920 H   0  0  0  0  0  0  0  0  0  0  0  0
  1  7  1  6  0  0  0
  1  2  1  0  0  0  0
  1  6  1  0  0  0  0
  2  8  1  1  0  0  0
  2  3  1  0  0  0  0
  3 10  1  0  0  0  0
  3  4  1  0  0  0  0
  5 12  1  0  0  0  0
  5  4  1  0  0  0  0
  5 11  1  0  0  0  0
  6 13  1  6  0  0  0
  6  5  1  0  0  0  0
  9  3  1  0  0  0  0
 14 22  1  0  0  0  0
 14 19  1  0  0  0  0
 15 14  2  0  0  0  0
 16 15  1  0  0  0  0
 16 17  2  0  0  0  0
 17 18  1  0  0  0  0
 18 19  2  0  0  0  0
 18  2  1  0  0  0  0
 20 15  1  0  0  0  0
 21 16  1  0  0  0  0
 22 23  1  0  0  0  0
 24 25  1  0  0  0  0
 24  1  1  0  0  0  0
 26  6  1  0  0  0  0
 28 27  1  0  0  0  0
 29 28  1  0  0  0  0
 29 26  1  0  0  0  0
 30 29  2  0  0  0  0
 31 32  2  0  0  0  0
 31 30  1  0  0  0  0
 32 33  1  0  0  0  0
 33 28  2  0  0  0  0
 34 30  1  0  0  0  0
 35 31  1  0  0  0  0
 36 32  1  0  0  0  0
 37 38  1  0  0  0  0
 37 42  1  0  0  0  0
 37 44  1  1  0  0  0
 38 33  1  6  0  0  0
 39 41  1  0  0  0  0
 39 38  1  0  0  0  0
 40 39  1  0  0  0  0
 41 42  1  0  0  0  0
 43 42  1  0  0  0  0
 45 44  1  0  0  0  0
M  END
>  <minimizedAffinity>
-5.97066116

$$$$

 OpenBabel03242518483D

 45 48  0  0  1  0  0  0  0  0999 V2000
   40.1530   31.7490   39.7400 C   0  0  2  0  0  0  0  0  0  0  0  0
   40.6400   32.9020   38.9420 C   0  0  1  0  0  0  0  0  0  0  0  0
   40.3650   34.2410   39.6260 C   0  0  0  0  0  0  0  0  0  0  0  0
   38.9890   34.2180   39.8730 O   0  0  0  0  0  0  0  0  0  0  0  0
   38.6730   33.3610   40.9040 C   0  0  0  0  0  0  0  0  0  0  0  0
   39.6590   32.2550   41.1080 C   0  0  1  0  0  0  0  0  0  0  0  0
   39.2660   31.2920   39.2600 H   0  0  0  0  0  0  0  0  0  0  0  0
   40.1020   32.9070   37.9560 H   0  0  0  0  0  0  0  0  0  0  0  0
   40.9670   34.3740   40.5240 H   0  0  0  0  0  0  0  0  0  0  0  0
   40.5590   35.0350   38.8770 H   0  0  0  0  0  0  0  0  0  0  0  0
   38.6390   33.9520   41.8650 H   0  0  0  0  0  0  0  0  0  0  0  0
   37.6340   32.9590   40.7810 H   0  0  0  0  0  0  0  0  0  0  0  0
   40.5630   32.6230   41.6330 H   0  0  0  0  0  0  0  0  0  0  0  0
   43.8440   32.2720   37.2800 C   0  0  0  0  0  0  0  0  0  0  0  0
   44.8030   32.8990   38.1270 C   0  0  0  0  0  0  0  0  0  0  0  0
   44.2800   33.5350   39.2790 C   0  0  0  0  0  0  0  0  0  0  0  0
   42.9470   33.5120   39.5010 N   0  0  0  0  0  0  0  0  0  0  0  0
   42.0890   32.9010   38.6580 C   0  0  0  0  0  0  0  0  0  0  0  0
   42.5440   32.2820   37.5490 N   0  0  0  0  0  0  0  0  0  0  0  0
   45.8510   32.8790   37.8900 H   0  0  0  0  0  0  0  0  0  0  0  0
   44.9980   34.0120   39.9270 H   0  0  0  0  0  0  0  0  0  0  0  0
   44.3360   31.6580   36.1710 O   0  0  0  0  0  0  0  0  0  0  0  0
   45.1010   30.9930   36.2170 H   0  0  0  0  0  0  0  0  0  0  0  0
   41.1230   30.7690   39.9690 O   0  0  0  0  0  0  0  0  0  0  0  0
   41.8650   31.1950   40.4760 H   0  0  0  0  0  0  0  0  0  0  0  0
   39.1470   31.1650   41.7730 O   0  0  0  0  0  0  0  0  0  0  0  0
   39.8450   28.6010   42.2470 F   0  0  0  0  0  0  0  0  0  0  0  0
   38.6290   28.9950   41.8150 C   0  0  0  0  0  0  0  0  0  0  0  0
   38.1910   30.2790   41.5590 C   0  0  0  0  0  0  0  0  0  0  0  0
   36.8730   30.3810   41.1450 C   0  0  0  0  0  0  0  0  0  0  0  0
   36.0000   29.3220   40.9760 C   0  0  0  0  0  0  0  0  0  0  0  0
   36.4980   28.0620   41.2460 C   0  0  0  0  0  0  0  0  0  0  0  0
   37.8040   27.8780   41.6650 C   0  0  0  0  0  0  0  0  0  0  0  0
   36.5900   31.4310   40.9600 H   0  0  0  0  0  0  0  0  0  0  0  0
   34.9990   29.5610   40.6470 H   0  0  0  0  0  0  0  0  0  0  0  0
   35.7410   27.3080   41.0850 H   0  0  0  0  0  0  0  0  0  0  0  0
   38.8010   25.7780   40.7180 C   0  0  2  0  0  3  0  0  0  0  0  0
   38.2360   26.4860   41.9280 C   0  0  2  0  0  3  0  0  0  0  0  0
   37.1020   25.5790   42.2500 C   0  0  0  0  0  3  0  0  0  0  0  0
   36.6090   25.7300   43.2090 H   0  0  0  0  0  0  0  0  0  0  0  0
   37.7870   24.3410   42.2830 O   0  0  0  0  0  0  0  0  0  0  0  0
   38.5620   24.3210   41.1300 C   0  0  0  0  0  3  0  0  0  0  0  0
   38.0960   23.7200   40.3500 H   0  0  0  0  0  0  0  0  0  0  0  0
   40.1660   25.9280   40.5650 O   0  0  0  0  0  0  0  0  0  0  0  0
   40.3100   26.7030   39.9340 H   0  0  0  0  0  0  0  0  0  0  0  0
  1  7  1  6  0  0  0
  1 24  1  0  0  0  0
  1  6  1  0  0  0  0
  2  8  1  6  0  0  0
  2  3  1  0  0  0  0
  2  1  1  0  0  0  0
  3  4  1  0  0  0  0
  3  9  1  0  0  0  0
  4  5  1  0  0  0  0
  5  6  1  0  0  0  0
  5 11  1  0  0  0  0
  6 13  1  1  0  0  0
  6 26  1  0  0  0  0
 10  3  1  0  0  0  0
 12  5  1  0  0  0  0
 14 19  2  0  0  0  0
 14 15  1  0  0  0  0
 15 16  2  0  0  0  0
 16 17  1  0  0  0  0
 16 21  1  0  0  0  0
 18  2  1  0  0  0  0
 18 17  2  0  0  0  0
 19 18  1  0  0  0  0
 20 15  1  0  0  0  0
 22 23  1  0  0  0  0
 22 14  1  0  0  0  0
 24 25  1  0  0  0  0
 28 27  1  0  0  0  0
 29 26  1  0  0  0  0
 29 28  2  0  0  0  0
 30 29  1  0  0  0  0
 31 30  2  0  0  0  0
 31 32  1  0  0  0  0
 32 33  2  0  0  0  0
 33 28  1  0  0  0  0
 34 30  1  0  0  0  0
 35 31  1  0  0  0  0
 36 32  1  0  0  0  0
 37 44  1  1  0  0  0
 37 42  1  0  0  0  0
 37 38  1  0  0  0  0
 38 33  1  6  0  0  0
 38 39  1  0  0  0  0
 39 41  1  0  0  0  0
 39 40  1  0  0  0  0
 42 41  1  0  0  0  0
 43 42  1  0  0  0  0
 45 44  1  0  0  0  0
M  END
>  <minimizedAffinity>
-5.91952229

$$$$

 OpenBabel03242518483D

 45 48  0  0  1  0  0  0  0  0999 V2000
   36.8790   28.3960   40.5880 C   0  0  2  0  0  0  0  0  0  0  0  0
   36.8620   29.4300   41.6530 C   0  0  1  0  0  0  0  0  0  0  0  0
   37.4830   28.9320   42.9580 C   0  0  0  0  0  0  0  0  0  0  0  0
   36.7740   27.7620   43.2450 O   0  0  0  0  0  0  0  0  0  0  0  0
   37.1380   26.7300   42.4060 C   0  0  0  0  0  0  0  0  0  0  0  0
   37.6770   27.1750   41.0840 C   0  0  1  0  0  0  0  0  0  0  0  0
   35.8550   28.0180   40.3990 H   0  0  0  0  0  0  0  0  0  0  0  0
   35.7940   29.7050   41.8680 H   0  0  0  0  0  0  0  0  0  0  0  0
   38.5580   28.7810   42.8700 H   0  0  0  0  0  0  0  0  0  0  0  0
   37.2340   29.6760   43.7420 H   0  0  0  0  0  0  0  0  0  0  0  0
   37.9510   26.1300   42.9070 H   0  0  0  0  0  0  0  0  0  0  0  0
   36.2900   26.0080   42.2760 H   0  0  0  0  0  0  0  0  0  0  0  0
   38.7240   27.5240   41.1810 H   0  0  0  0  0  0  0  0  0  0  0  0
   37.5730   32.7920   40.3830 C   0  0  0  0  0  0  0  0  0  0  0  0
   38.9400   33.0090   40.7220 C   0  0  0  0  0  0  0  0  0  0  0  0
   39.5800   31.9430   41.4000 C   0  0  0  0  0  0  0  0  0  0  0  0
   38.8810   30.8200   41.6780 N   0  0  0  0  0  0  0  0  0  0  0  0
   37.5850   30.6760   41.3300 C   0  0  0  0  0  0  0  0  0  0  0  0
   36.9370   31.6670   40.6820 N   0  0  0  0  0  0  0  0  0  0  0  0
   39.4360   33.9290   40.4710 H   0  0  0  0  0  0  0  0  0  0  0  0
   40.6150   32.0970   41.6610 H   0  0  0  0  0  0  0  0  0  0  0  0
   36.9500   33.8110   39.7310 O   0  0  0  0  0  0  0  0  0  0  0  0
   37.3460   34.2440   38.9050 H   0  0  0  0  0  0  0  0  0  0  0  0
   37.4530   28.8270   39.3900 O   0  0  0  0  0  0  0  0  0  0  0  0
   38.3970   29.0770   39.5830 H   0  0  0  0  0  0  0  0  0  0  0  0
   37.5940   26.2200   40.0970 O   0  0  0  0  0  0  0  0  0  0  0  0
   36.3730   26.6240   37.7240 F   0  0  0  0  0  0  0  0  0  0  0  0
   36.1470   25.5660   38.5300 C   0  0  0  0  0  0  0  0  0  0  0  0
   36.7330   25.2820   39.7470 C   0  0  0  0  0  0  0  0  0  0  0  0
   36.3180   24.1010   40.3400 C   0  0  0  0  0  0  0  0  0  0  0  0
   35.3890   23.2210   39.8150 C   0  0  0  0  0  0  0  0  0  0  0  0
   34.8360   23.5630   38.5950 C   0  0  0  0  0  0  0  0  0  0  0  0
   35.2010   24.7260   37.9400 C   0  0  0  0  0  0  0  0  0  0  0  0
   36.8250   23.9360   41.3050 H   0  0  0  0  0  0  0  0  0  0  0  0
   35.1670   22.3390   40.3960 H   0  0  0  0  0  0  0  0  0  0  0  0
   34.1270   22.8140   38.2730 H   0  0  0  0  0  0  0  0  0  0  0  0
   33.0880   25.3680   36.7460 C   0  0  2  0  0  3  0  0  0  0  0  0
   34.5480   24.9960   36.6370 C   0  0  2  0  0  3  0  0  0  0  0  0
   34.4410   23.7830   35.7810 C   0  0  0  0  0  3  0  0  0  0  0  0
   35.3680   23.3900   35.3670 H   0  0  0  0  0  0  0  0  0  0  0  0
   33.6580   24.3050   34.7240 O   0  0  0  0  0  0  0  0  0  0  0  0
   32.6110   24.9790   35.3430 C   0  0  0  0  0  3  0  0  0  0  0  0
   31.7020   24.3790   35.3440 H   0  0  0  0  0  0  0  0  0  0  0  0
   32.8630   26.7260   36.8790 O   0  0  0  0  0  0  0  0  0  0  0  0
   32.7820   26.9170   37.8670 H   0  0  0  0  0  0  0  0  0  0  0  0
  1  7  1  6  0  0  0
  1  6  1  0  0  0  0
  1  2  1  0  0  0  0
  2  8  1  1  0  0  0
  2  3  1  0  0  0  0
  3  4  1  0  0  0  0
  3 10  1  0  0  0  0
  5 11  1  0  0  0  0
  5  4  1  0  0  0  0
  6 13  1  1  0  0  0
  6  5  1  0  0  0  0
  9  3  1  0  0  0  0
 12  5  1  0  0  0  0
 14 19  2  0  0  0  0
 14 15  1  0  0  0  0
 15 16  2  0  0  0  0
 16 21  1  0  0  0  0
 16 17  1  0  0  0  0
 18  2  1  0  0  0  0
 18 17  2  0  0  0  0
 19 18  1  0  0  0  0
 20 15  1  0  0  0  0
 22 14  1  0  0  0  0
 23 22  1  0  0  0  0
 24 25  1  0  0  0  0
 24  1  1  0  0  0  0
 26  6  1  0  0  0  0
 27 28  1  0  0  0  0
 28 29  1  0  0  0  0
 29 26  1  0  0  0  0
 29 30  2  0  0  0  0
 30 34  1  0  0  0  0
 31 30  1  0  0  0  0
 31 35  1  0  0  0  0
 32 31  2  0  0  0  0
 33 28  2  0  0  0  0
 33 32  1  0  0  0  0
 36 32  1  0  0  0  0
 37 44  1  6  0  0  0
 38 37  1  0  0  0  0
 38 33  1  1  0  0  0
 39 38  1  0  0  0  0
 40 39  1  0  0  0  0
 41 42  1  0  0  0  0
 41 39  1  0  0  0  0
 42 43  1  0  0  0  0
 42 37  1  0  0  0  0
 44 45  1  0  0  0  0
M  END
>  <minimizedAffinity>
-5.87935019

$$$$

 OpenBabel03242518483D

 45 48  0  0  1  0  0  0  0  0999 V2000
   38.8120   30.1240   40.3940 C   0  0  2  0  0  0  0  0  0  0  0  0
   38.3800   31.3220   39.6320 C   0  0  1  0  0  0  0  0  0  0  0  0
   37.1920   32.0290   40.2840 C   0  0  0  0  0  0  0  0  0  0  0  0
   36.2320   31.0220   40.4180 O   0  0  0  0  0  0  0  0  0  0  0  0
   36.5580   30.1400   41.4240 C   0  0  0  0  0  0  0  0  0  0  0  0
   38.0230   30.0540   41.7140 C   0  0  1  0  0  0  0  0  0  0  0  0
   38.5470   29.1990   39.8450 H   0  0  0  0  0  0  0  0  0  0  0  0
   38.0600   30.9970   38.6050 H   0  0  0  0  0  0  0  0  0  0  0  0
   37.4620   32.5020   41.2270 H   0  0  0  0  0  0  0  0  0  0  0  0
   36.8070   32.7650   39.5480 H   0  0  0  0  0  0  0  0  0  0  0  0
   36.0550   30.4780   42.3760 H   0  0  0  0  0  0  0  0  0  0  0  0
   36.1260   29.1260   41.2190 H   0  0  0  0  0  0  0  0  0  0  0  0
   38.3600   30.9270   42.3090 H   0  0  0  0  0  0  0  0  0  0  0  0
   41.0720   33.3330   38.1700 C   0  0  0  0  0  0  0  0  0  0  0  0
   41.3410   34.3230   39.1590 C   0  0  0  0  0  0  0  0  0  0  0  0
   40.5510   34.2480   40.3310 C   0  0  0  0  0  0  0  0  0  0  0  0
   39.6180   33.2760   40.4420 N   0  0  0  0  0  0  0  0  0  0  0  0
   39.4100   32.3670   39.4670 C   0  0  0  0  0  0  0  0  0  0  0  0
   40.1410   32.4010   38.3330 N   0  0  0  0  0  0  0  0  0  0  0  0
   42.0990   35.0690   39.0060 H   0  0  0  0  0  0  0  0  0  0  0  0
   40.7480   34.9930   41.0870 H   0  0  0  0  0  0  0  0  0  0  0  0
   41.8250   33.3960   37.0390 O   0  0  0  0  0  0  0  0  0  0  0  0
   42.8370   33.4500   37.0690 H   0  0  0  0  0  0  0  0  0  0  0  0
   40.1750   30.1130   40.7060 O   0  0  0  0  0  0  0  0  0  0  0  0
   40.3590   30.9120   41.2700 H   0  0  0  0  0  0  0  0  0  0  0  0
   38.4010   28.8890   42.3410 O   0  0  0  0  0  0  0  0  0  0  0  0
   36.8730   27.0510   41.0890 F   0  0  0  0  0  0  0  0  0  0  0  0
   38.1820   26.8910   41.3720 C   0  0  0  0  0  0  0  0  0  0  0  0
   39.0330   27.7820   41.9970 C   0  0  0  0  0  0  0  0  0  0  0  0
   40.3420   27.3500   42.1310 C   0  0  0  0  0  0  0  0  0  0  0  0
   40.8370   26.1340   41.6980 C   0  0  0  0  0  0  0  0  0  0  0  0
   39.9360   25.2860   41.0820 C   0  0  0  0  0  0  0  0  0  0  0  0
   38.6110   25.6450   40.9100 C   0  0  0  0  0  0  0  0  0  0  0  0
   40.9650   28.1090   42.6370 H   0  0  0  0  0  0  0  0  0  0  0  0
   41.8840   25.9400   41.8750 H   0  0  0  0  0  0  0  0  0  0  0  0
   40.4190   24.3680   40.7820 H   0  0  0  0  0  0  0  0  0  0  0  0
   38.3210   23.2760   40.1340 C   0  0  2  0  0  3  0  0  0  0  0  0
   37.7300   24.6630   40.2360 C   0  0  2  0  0  3  0  0  0  0  0  0
   37.5260   24.9620   38.7930 C   0  0  0  0  0  3  0  0  0  0  0  0
   36.9270   25.8390   38.5530 H   0  0  0  0  0  0  0  0  0  0  0  0
   36.8110   23.8040   38.4070 O   0  0  0  0  0  0  0  0  0  0  0  0
   37.5260   22.7380   38.9390 C   0  0  0  0  0  3  0  0  0  0  0  0
   38.1480   22.2620   38.1820 H   0  0  0  0  0  0  0  0  0  0  0  0
   38.0250   22.4580   41.2080 O   0  0  0  0  0  0  0  0  0  0  0  0
   38.7980   22.5260   41.8540 H   0  0  0  0  0  0  0  0  0  0  0  0
  1  7  1  6  0  0  0
  1 24  1  0  0  0  0
  1  6  1  0  0  0  0
  2  8  1  6  0  0  0
  2  3  1  0  0  0  0
  2  1  1  0  0  0  0
  3  4  1  0  0  0  0
  3  9  1  0  0  0  0
  4  5  1  0  0  0  0
  5  6  1  0  0  0  0
  5 11  1  0  0  0  0
  6 13  1  1  0  0  0
  6 26  1  0  0  0  0
 10  3  1  0  0  0  0
 12  5  1  0  0  0  0
 14 19  2  0  0  0  0
 14 15  1  0  0  0  0
 15 16  2  0  0  0  0
 16 17  1  0  0  0  0
 16 21  1  0  0  0  0
 18  2  1  0  0  0  0
 18 17  2  0  0  0  0
 19 18  1  0  0  0  0
 20 15  1  0  0  0  0
 22 23  1  0  0  0  0
 22 14  1  0  0  0  0
 24 25  1  0  0  0  0
 27 28  1  0  0  0  0
 28 29  1  0  0  0  0
 29 30  2  0  0  0  0
 29 26  1  0  0  0  0
 30 34  1  0  0  0  0
 31 35  1  0  0  0  0
 31 30  1  0  0  0  0
 32 31  2  0  0  0  0
 33 32  1  0  0  0  0
 33 28  2  0  0  0  0
 36 32  1  0  0  0  0
 37 38  1  0  0  0  0
 37 44  1  1  0  0  0
 38 33  1  6  0  0  0
 39 38  1  0  0  0  0
 40 39  1  0  0  0  0
 41 39  1  0  0  0  0
 41 42  1  0  0  0  0
 42 37  1  0  0  0  0
 43 42  1  0  0  0  0
 44 45  1  0  0  0  0
M  END
>  <minimizedAffinity>
-5.85308504

$$$$

 OpenBabel03242518483D

 45 48  0  0  1  0  0  0  0  0999 V2000
   38.4190   30.6440   38.9030 C   0  0  2  0  0  0  0  0  0  0  0  0
   38.7260   32.0680   39.1860 C   0  0  1  0  0  0  0  0  0  0  0  0
   38.3160   32.4830   40.5990 C   0  0  0  0  0  0  0  0  0  0  0  0
   36.9650   32.1310   40.6750 O   0  0  0  0  0  0  0  0  0  0  0  0
   36.8000   30.7670   40.7760 C   0  0  0  0  0  0  0  0  0  0  0  0
   37.9240   29.9690   40.1960 C   0  0  1  0  0  0  0  0  0  0  0  0
   37.5760   30.5630   38.1900 H   0  0  0  0  0  0  0  0  0  0  0  0
   38.1500   32.7090   38.4640 H   0  0  0  0  0  0  0  0  0  0  0  0
   38.9330   32.0100   41.3610 H   0  0  0  0  0  0  0  0  0  0  0  0
   38.3780   33.5890   40.6450 H   0  0  0  0  0  0  0  0  0  0  0  0
   36.7330   30.4930   41.8690 H   0  0  0  0  0  0  0  0  0  0  0  0
   35.8150   30.4530   40.3440 H   0  0  0  0  0  0  0  0  0  0  0  0
   38.7960   29.9580   40.8790 H   0  0  0  0  0  0  0  0  0  0  0  0
   41.8690   33.3640   37.8200 C   0  0  0  0  0  0  0  0  0  0  0  0
   42.8190   33.1300   38.8550 C   0  0  0  0  0  0  0  0  0  0  0  0
   42.3130   32.5110   40.0230 C   0  0  0  0  0  0  0  0  0  0  0  0
   41.0020   32.1880   40.0880 N   0  0  0  0  0  0  0  0  0  0  0  0
   40.1500   32.4380   39.0710 C   0  0  0  0  0  0  0  0  0  0  0  0
   40.5910   33.0270   37.9390 N   0  0  0  0  0  0  0  0  0  0  0  0
   43.8490   33.4120   38.7380 H   0  0  0  0  0  0  0  0  0  0  0  0
   43.0250   32.3280   40.8130 H   0  0  0  0  0  0  0  0  0  0  0  0
   42.3450   33.9590   36.6930 O   0  0  0  0  0  0  0  0  0  0  0  0
   43.1640   33.6130   36.2060 H   0  0  0  0  0  0  0  0  0  0  0  0
   39.5110   29.9130   38.4280 O   0  0  0  0  0  0  0  0  0  0  0  0
   40.2160   29.9370   39.1300 H   0  0  0  0  0  0  0  0  0  0  0  0
   37.5780   28.6790   39.8620 O   0  0  0  0  0  0  0  0  0  0  0  0
   37.2750   26.5070   38.2900 F   0  0  0  0  0  0  0  0  0  0  0  0
   37.2280   26.4870   39.6380 C   0  0  0  0  0  0  0  0  0  0  0  0
   37.3830   27.5460   40.5110 C   0  0  0  0  0  0  0  0  0  0  0  0
   37.3080   27.2170   41.8550 C   0  0  0  0  0  0  0  0  0  0  0  0
   37.0960   25.9480   42.3620 C   0  0  0  0  0  0  0  0  0  0  0  0
   36.9470   24.9320   41.4370 C   0  0  0  0  0  0  0  0  0  0  0  0
   37.0100   25.1800   40.0770 C   0  0  0  0  0  0  0  0  0  0  0  0
   37.4400   28.1070   42.4930 H   0  0  0  0  0  0  0  0  0  0  0  0
   37.0630   25.8500   43.4360 H   0  0  0  0  0  0  0  0  0  0  0  0
   36.7880   23.9850   41.9320 H   0  0  0  0  0  0  0  0  0  0  0  0
   35.9060   22.9560   39.7080 C   0  0  2  0  0  3  0  0  0  0  0  0
   36.8380   24.0180   39.1740 C   0  0  2  0  0  3  0  0  0  0  0  0
   38.0820   23.2150   39.0200 C   0  0  0  0  0  3  0  0  0  0  0  0
   38.8980   23.6750   38.4650 H   0  0  0  0  0  0  0  0  0  0  0  0
   37.5750   22.1310   38.2670 O   0  0  0  0  0  0  0  0  0  0  0  0
   36.4120   21.7410   38.9220 C   0  0  0  0  0  3  0  0  0  0  0  0
   36.5840   20.8630   39.5430 H   0  0  0  0  0  0  0  0  0  0  0  0
   34.5840   23.1370   39.3500 O   0  0  0  0  0  0  0  0  0  0  0  0
   34.1360   23.6310   40.1080 H   0  0  0  0  0  0  0  0  0  0  0  0
  1  7  1  6  0  0  0
  1  2  1  0  0  0  0
  1  6  1  0  0  0  0
  2  8  1  6  0  0  0
  2  3  1  0  0  0  0
  3 10  1  0  0  0  0
  3  4  1  0  0  0  0
  3  9  1  0  0  0  0
  4  5  1  0  0  0  0
  5 11  1  0  0  0  0
  6  5  1  0  0  0  0
  6 13  1  1  0  0  0
 12  5  1  0  0  0  0
 14 19  2  0  0  0  0
 14 15  1  0  0  0  0
 15 16  2  0  0  0  0
 16 17  1  0  0  0  0
 16 21  1  0  0  0  0
 18  2  1  0  0  0  0
 18 17  2  0  0  0  0
 19 18  1  0  0  0  0
 20 15  1  0  0  0  0
 22 14  1  0  0  0  0
 23 22  1  0  0  0  0
 24  1  1  0  0  0  0
 24 25  1  0  0  0  0
 26  6  1  0  0  0  0
 26 29  1  0  0  0  0
 27 28  1  0  0  0  0
 28 33  2  0  0  0  0
 28 29  1  0  0  0  0
 29 30  2  0  0  0  0
 30 31  1  0  0  0  0
 30 34  1  0  0  0  0
 31 35  1  0  0  0  0
 32 36  1  0  0  0  0
 32 31  2  0  0  0  0
 33 32  1  0  0  0  0
 37 44  1  6  0  0  0
 38 37  1  0  0  0  0
 38 33  1  1  0  0  0
 39 38  1  0  0  0  0
 40 39  1  0  0  0  0
 41 42  1  0  0  0  0
 41 39  1  0  0  0  0
 42 43  1  0  0  0  0
 42 37  1  0  0  0  0
 44 45  1  0  0  0  0
M  END
>  <minimizedAffinity>
-5.7815423

$$$$
