
 OpenBabel03242512473D

 30 32  0  0  1  0  0  0  0  0999 V2000
   47.3230   34.5800   42.5670 N   0  0  0  0  0  0  0  0  0  0  0  0
   48.7520   34.3370   42.6450 C   0  0  0  0  0  0  0  0  0  0  0  0
   49.1940   35.3070   41.5740 C   0  0  0  0  0  0  0  0  0  0  0  0
   48.2790   34.8740   40.4350 C   0  0  0  0  0  0  0  0  0  0  0  0
   47.0010   34.6130   41.1510 C   0  0  1  0  0  0  0  0  0  0  0  0
   49.1480   34.6110   43.6470 H   0  0  0  0  0  0  0  0  0  0  0  0
   49.0460   33.3350   42.3310 H   0  0  0  0  0  0  0  0  0  0  0  0
   50.2650   35.1460   41.3400 H   0  0  0  0  0  0  0  0  0  0  0  0
   48.9330   36.3350   41.8690 H   0  0  0  0  0  0  0  0  0  0  0  0
   48.6920   34.0270   39.8680 H   0  0  0  0  0  0  0  0  0  0  0  0
   48.2430   35.7280   39.7300 H   0  0  0  0  0  0  0  0  0  0  0  0
   46.3140   35.4510   40.9860 H   0  0  0  0  0  0  0  0  0  0  0  0
   44.4720   35.8290   44.6060 C   0  0  0  0  0  0  0  0  0  0  0  0
   45.3750   35.7570   43.5360 C   0  0  0  0  0  0  0  0  0  0  0  0
   46.3550   34.7620   43.5780 C   0  0  0  0  0  0  0  0  0  0  0  0
   46.3860   33.9110   44.6540 N   0  0  0  0  0  0  0  0  0  0  0  0
   45.4930   34.0110   45.6740 C   0  0  0  0  0  0  0  0  0  0  0  0
   44.5360   34.9760   45.6420 N   0  0  0  0  0  0  0  0  0  0  0  0
   43.7620   36.6300   44.4720 H   0  0  0  0  0  0  0  0  0  0  0  0
   45.3650   36.4190   42.6810 H   0  0  0  0  0  0  0  0  0  0  0  0
   45.5190   33.3410   46.5180 H   0  0  0  0  0  0  0  0  0  0  0  0
   45.5840   33.3010   39.5110 C   0  0  1  0  0  0  0  0  0  0  0  0
   46.2960   33.3590   40.8250 C   0  0  1  0  0  0  0  0  0  0  0  0
   47.1370   32.1290   40.7340 C   0  0  0  0  0  0  0  0  0  0  0  0
   47.3920   31.8090   41.7600 H   0  0  0  0  0  0  0  0  0  0  0  0
   46.3210   31.1720   40.1750 O   0  0  0  0  0  0  0  0  0  0  0  0
   45.2940   31.7940   39.4900 C   0  0  0  0  0  0  0  0  0  0  0  0
   45.1430   31.4000   38.4850 H   0  0  0  0  0  0  0  0  0  0  0  0
   44.3750   33.9910   39.6170 O   0  0  0  0  0  0  0  0  0  0  0  0
   43.8990   33.6420   40.4090 H   0  0  0  0  0  0  0  0  0  0  0  0
  1  2  1  0  0  0  0
  1 15  1  0  0  0  0
  2  6  1  0  0  0  0
  3  9  1  0  0  0  0
  3  2  1  0  0  0  0
  4  5  1  0  0  0  0
  4  3  1  0  0  0  0
  5 12  1  6  0  0  0
  5  1  1  0  0  0  0
  7  2  1  0  0  0  0
  8  3  1  0  0  0  0
 10  4  1  0  0  0  0
 11  4  1  0  0  0  0
 13 18  1  0  0  0  0
 14 15  1  0  0  0  0
 14 13  2  0  0  0  0
 15 16  2  0  0  0  0
 16 17  1  0  0  0  0
 17 21  1  0  0  0  0
 18 17  2  0  0  0  0
 19 13  1  0  0  0  0
 20 14  1  0  0  0  0
 22 29  1  1  0  0  0
 22 23  1  0  0  0  0
 23 24  1  6  0  0  0
 23  5  1  0  0  0  0
 24 25  1  0  0  0  0
 26 24  1  0  0  0  0
 27 22  1  0  0  0  0
 27 26  1  0  0  0  0
 28 27  1  0  0  0  0
 29 30  1  0  0  0  0
M  END
>  <minimizedAffinity>
-4.82465458

>  <minimizedRMSD>
1.29447412

$$$$
