
 OpenBabel03252507073D

 24 25  0  0  1  0  0  0  0  0999 V2000
   44.6710   35.9600   44.5950 C   0  0  0  0  0  0  0  0  0  0  0  0
   45.3070   36.0160   43.3320 C   0  0  0  0  0  0  0  0  0  0  0  0
   46.1030   34.9270   42.9790 C   0  0  0  0  0  0  0  0  0  0  0  0
   46.2300   33.8890   43.8380 N   0  0  0  0  0  0  0  0  0  0  0  0
   45.6070   33.8710   45.0330 C   0  0  0  0  0  0  0  0  0  0  0  0
   44.8280   34.9060   45.4090 N   0  0  0  0  0  0  0  0  0  0  0  0
   44.0340   36.7760   44.9320 H   0  0  0  0  0  0  0  0  0  0  0  0
   45.1280   36.8970   42.7390 H   0  0  0  0  0  0  0  0  0  0  0  0
   46.1420   31.4490   45.3710 C   0  0  1  0  0  3  0  0  0  0  0  0
   45.7190   32.7650   45.9910 C   0  0  1  0  0  3  0  0  0  0  0  0
   46.9240   32.9630   46.9200 C   0  0  0  0  0  3  0  0  0  0  0  0
   46.6020   33.6220   47.7530 H   0  0  0  0  0  0  0  0  0  0  0  0
   47.3520   31.7250   47.3010 O   0  0  0  0  0  0  0  0  0  0  0  0
   46.6110   30.7540   46.6490 C   0  0  0  0  0  3  0  0  0  0  0  0
   45.6870   30.5910   47.2610 H   0  0  0  0  0  0  0  0  0  0  0  0
   45.1200   30.7810   44.7400 O   0  0  0  0  0  0  0  0  0  0  0  0
   44.9490   29.9120   45.1840 H   0  0  0  0  0  0  0  0  0  0  0  0
   46.7250   34.9860   41.7420 O   0  0  0  0  0  0  0  0  0  0  0  0
   48.6390   33.3350   40.9420 O   0  0  0  0  0  0  0  0  0  0  0  0
   48.4090   34.6860   41.6200 P   0  0  0  0  0  0  0  0  0  0  0  0
   49.1200   35.9300   40.7730 O   0  0  0  0  0  0  0  0  0  0  0  0
   48.5950   36.7440   40.8980 H   0  0  0  0  0  0  0  0  0  0  0  0
   49.0090   34.5850   43.2030 O   0  0  0  0  0  0  0  0  0  0  0  0
   49.5850   35.3460   43.4380 H   0  0  0  0  0  0  0  0  0  0  0  0
  1  7  1  0  0  0  0
  1  6  1  0  0  0  0
  2  1  2  0  0  0  0
  3  2  1  0  0  0  0
  3  4  2  0  0  0  0
  4  5  1  0  0  0  0
  5  6  2  0  0  0  0
  8  2  1  0  0  0  0
  9 16  1  1  0  0  0
  9 10  1  0  0  0  0
  9 14  1  0  0  0  0
 10  5  1  6  0  0  0
 10 11  1  0  0  0  0
 11 13  1  0  0  0  0
 11 12  1  0  0  0  0
 14 15  1  0  0  0  0
 14 13  1  0  0  0  0
 16 17  1  0  0  0  0
 18  3  1  0  0  0  0
 19 20  2  0  0  0  0
 20 18  1  0  0  0  0
 20 23  1  0  0  0  0
 21 22  1  0  0  0  0
 21 20  1  0  0  0  0
 23 24  1  0  0  0  0
M  END
>  <minimizedAffinity>
-5.31583786

>  <minimizedRMSD>
0.614825428

$$$$
