
 OpenBabel03242517133D

 23 24  0  0  1  0  0  0  0  0999 V2000
   42.5860   35.1690   39.7720 C   0  0  0  0  0  0  0  0  0  0  0  0
   43.3620   34.8890   39.0460 H   0  0  0  0  0  0  0  0  0  0  0  0
   42.3870   36.2540   39.6740 H   0  0  0  0  0  0  0  0  0  0  0  0
   39.0520   34.5010   39.0460 C   0  0  1  0  0  3  0  0  0  0  0  0
   40.1060   35.0180   40.0370 C   0  0  0  0  0  3  0  0  0  0  0  0
   39.8110   34.7040   41.0430 H   0  0  0  0  0  0  0  0  0  0  0  0
   41.3280   34.3450   39.4930 C   0  0  1  0  0  3  0  0  0  0  0  0
   41.1630   34.1840   38.1290 O   0  0  0  0  0  0  0  0  0  0  0  0
   39.9010   34.6210   37.7730 C   0  0  0  0  0  3  0  0  0  0  0  0
   39.4740   34.0400   36.9550 H   0  0  0  0  0  0  0  0  0  0  0  0
   38.8440   33.1540   39.2560 O   0  0  0  0  0  0  0  0  0  0  0  0
   38.5450   32.9160   40.1700 H   0  0  0  0  0  0  0  0  0  0  0  0
   44.0380   35.2560   41.7750 C   0  0  0  0  0  3  0  0  0  0  0  0
   42.9820   34.7830   41.1600 C   0  0  0  0  0  3  0  0  0  0  0  0
   44.2960   35.7650   44.2100 C   0  0  0  0  0  0  0  0  0  0  0  0
   44.4720   34.9210   43.1150 C   0  0  0  0  0  0  0  0  0  0  0  0
   45.1010   33.7010   43.3430 C   0  0  0  0  0  0  0  0  0  0  0  0
   45.5150   33.3840   44.6160 N   0  0  0  0  0  0  0  0  0  0  0  0
   45.3190   34.2360   45.6450 C   0  0  0  0  0  0  0  0  0  0  0  0
   44.7130   35.4170   45.4310 N   0  0  0  0  0  0  0  0  0  0  0  0
   43.8080   36.7200   44.0570 H   0  0  0  0  0  0  0  0  0  0  0  0
   45.2630   33.0080   42.5210 H   0  0  0  0  0  0  0  0  0  0  0  0
   45.7050   33.8260   46.5700 H   0  0  0  0  0  0  0  0  0  0  0  0
  1 14  1  0  0  0  0
  2  1  1  0  0  0  0
  3  1  1  0  0  0  0
  4 11  1  1  0  0  0
  4  5  1  0  0  0  0
  5  6  1  0  0  0  0
  7  1  1  6  0  0  0
  7  5  1  0  0  0  0
  8  7  1  0  0  0  0
  9  8  1  0  0  0  0
  9  4  1  0  0  0  0
 10  9  1  0  0  0  0
 11 12  1  0  0  0  0
 13 16  1  0  0  0  0
 14 13  2  0  0  0  0
 15 20  1  0  0  0  0
 16 17  1  0  0  0  0
 16 15  2  0  0  0  0
 17 18  2  0  0  0  0
 18 19  1  0  0  0  0
 19 23  1  0  0  0  0
 20 19  2  0  0  0  0
 21 15  1  0  0  0  0
 22 17  1  0  0  0  0
M  END
>  <minimizedAffinity>
-4.57532024

>  <minimizedRMSD>
1.89499891

$$$$
