
 OpenBabel03242518583D

 25 27  0  0  1  0  0  0  0  0999 V2000
   46.6370   34.0850   43.2560 C   0  0  1  0  0  0  0  0  0  0  0  0
   48.0960   34.5530   43.0080 C   0  0  0  0  0  0  0  0  0  0  0  0
   47.3470   33.7010   42.0560 C   0  0  2  0  0  0  0  0  0  0  0  0
   45.8760   34.9010   43.2080 H   0  0  0  0  0  0  0  0  0  0  0  0
   48.8880   34.1110   43.6400 H   0  0  0  0  0  0  0  0  0  0  0  0
   48.1840   35.6470   42.8530 H   0  0  0  0  0  0  0  0  0  0  0  0
   47.7950   32.6710   41.9350 H   0  0  0  0  0  0  0  0  0  0  0  0
   46.5020   33.2160   44.4480 C   0  0  0  0  0  0  0  0  0  0  0  0
   46.8820   31.8640   44.3160 C   0  0  0  0  0  0  0  0  0  0  0  0
   46.7660   31.0140   45.4330 C   0  0  0  0  0  0  0  0  0  0  0  0
   46.2840   31.5730   46.5990 N   0  0  0  0  0  0  0  0  0  0  0  0
   45.9350   32.8830   46.6670 C   0  0  0  0  0  0  0  0  0  0  0  0
   46.0440   33.7000   45.6000 N   0  0  0  0  0  0  0  0  0  0  0  0
   47.2560   31.4380   43.4040 H   0  0  0  0  0  0  0  0  0  0  0  0
   47.0350   29.9680   45.4150 H   0  0  0  0  0  0  0  0  0  0  0  0
   45.5660   33.2140   47.6440 H   0  0  0  0  0  0  0  0  0  0  0  0
   48.1500   34.2600   39.7990 C   0  0  2  0  0  3  0  0  0  0  0  0
   46.9760   34.3370   40.7470 C   0  0  1  0  0  3  0  0  0  0  0  0
   45.9090   33.5530   40.0180 C   0  0  0  0  0  3  0  0  0  0  0  0
   45.1020   34.2350   39.6690 H   0  0  0  0  0  0  0  0  0  0  0  0
   46.4890   32.9270   38.9410 O   0  0  0  0  0  0  0  0  0  0  0  0
   47.5580   33.7090   38.5260 C   0  0  0  0  0  3  0  0  0  0  0  0
   48.2690   32.9910   38.0300 H   0  0  0  0  0  0  0  0  0  0  0  0
   49.1110   33.3650   40.2380 O   0  0  0  0  0  0  0  0  0  0  0  0
   48.8890   32.4480   39.9570 H   0  0  0  0  0  0  0  0  0  0  0  0
  1  4  1  6  0  0  0
  1  8  1  0  0  0  0
  2  1  1  0  0  0  0
  2  5  1  0  0  0  0
  3  7  1  6  0  0  0
  3  2  1  0  0  0  0
  3  1  1  0  0  0  0
  6  2  1  0  0  0  0
  8 13  1  0  0  0  0
  9  8  2  0  0  0  0
  9 10  1  0  0  0  0
 10 11  2  0  0  0  0
 11 12  1  0  0  0  0
 12 16  1  0  0  0  0
 13 12  2  0  0  0  0
 14  9  1  0  0  0  0
 15 10  1  0  0  0  0
 17 24  1  1  0  0  0
 17 18  1  0  0  0  0
 18 19  1  6  0  0  0
 18  3  1  0  0  0  0
 20 19  1  0  0  0  0
 21 19  1  0  0  0  0
 22 21  1  0  0  0  0
 22 17  1  0  0  0  0
 23 22  1  0  0  0  0
 25 24  1  0  0  0  0
M  END
>  <minimizedAffinity>
-3.85654283

>  <minimizedRMSD>
3.64703083

$$$$
