
     RDKit          3D

 28 29  0  0  0  0  0  0  0  0999 V2000
   44.5765   35.9808   44.5146 C   0  0  0  0  0  0  0  0  0  0  0  0
   45.2168   36.0007   43.2529 C   0  0  0  0  0  0  0  0  0  0  0  0
   46.0993   34.9573   42.9767 C   0  0  0  0  0  0  0  0  0  0  0  0
   46.2999   33.9941   43.9054 N   0  0  0  0  0  0  0  0  0  0  0  0
   45.6723   34.0076   45.0969 C   0  0  0  0  0  0  0  0  0  0  0  0
   44.8110   35.0014   45.4000 N   0  0  0  0  0  0  0  0  0  0  0  0
   46.7243   34.9809   41.7398 O   0  0  0  0  0  0  0  0  0  0  0  0
   48.6438   33.3264   40.9628 O   0  0  0  0  0  0  0  0  0  0  0  0
   48.4088   34.6810   41.6314 P   0  0  0  0  0  0  0  0  0  0  0  0
   49.1245   35.9206   40.7816 O   0  0  0  0  0  0  0  0  0  0  0  0
   48.9977   34.5903   43.2188 O   0  0  0  0  0  0  0  0  0  0  0  0
   43.8754   36.7659   44.7939 H   0  0  0  0  0  0  0  0  0  0  0  0
   44.9730   36.8226   42.6005 H   0  0  0  0  0  0  0  0  0  0  0  0
   48.5979   36.7349   40.8979 H   0  0  0  0  0  0  0  0  0  0  0  0
   49.5720   35.3535   43.4526 H   0  0  0  0  0  0  0  0  0  0  0  0
   44.8264   33.8880   48.1206 O   0  0  0  0  0  0  0  0  0  0  0  0
   44.7470   32.9168   47.1504 C   0  0  1  0  0  0  0  0  0  0  0  0
   45.8634   32.9822   46.1289 C   0  0  1  0  0  0  0  0  0  0  0  0
   45.7011   31.5743   45.5406 C   0  0  2  0  0  0  0  0  0  0  0  0
   46.6752   31.2787   45.0995 H   0  0  0  0  0  0  0  0  0  0  0  0
   45.2563   30.7630   46.5430 O   0  0  0  0  0  0  0  0  0  0  0  0
   45.0305   31.5132   47.6861 C   0  0  1  0  0  0  0  0  0  0  0  0
   46.0129   31.5859   48.2198 H   0  0  0  0  0  0  0  0  0  0  0  0
   44.9537   33.4759   49.0130 H   0  0  0  0  0  0  0  0  0  0  0  0
   43.7509   32.8504   46.6832 H   0  0  0  0  0  0  0  0  0  0  0  0
   46.8189   33.0551   46.6732 H   0  0  0  0  0  0  0  0  0  0  0  0
   44.9635   31.7005   44.7086 H   0  0  0  0  0  0  0  0  0  0  0  0
   44.2099   31.1283   48.3201 H   0  0  0  0  0  0  0  0  0  0  0  0
  1  6  2  0
  2  1  1  0
  3  2  2  0
  3  4  1  0
  4  5  2  0
  5  6  1  0
  7  3  1  0
  8  9  2  0
  9  7  1  0
  9 11  1  0
 10  9  1  0
  1 12  1  0
  2 13  1  0
 10 14  1  0
 11 15  1  0
 16 17  1  0
 17 18  1  0
 18 19  1  0
 19 20  1  6
 19 21  1  0
 21 22  1  0
 22 23  1  1
 22 17  1  0
 16 24  1  0
 17 25  1  6
 18 26  1  1
 19 27  1  0
 22 28  1  0
  5 18  1  0
M  ISO  6  12  14  13  14  14   3  15   3  20  15  23  16
M  END
>  <DihAtoms>  (1) 
3,4,17,16

>  <DihDeg>  (1) 
125.11983587955643

$$$$
