
 OpenBabel03242521463D

 47 50  0  0  1  0  0  0  0  0999 V2000
   44.9960   36.9600   42.9130 C   0  0  0  0  0  0  0  0  0  0  0  0
   44.0650   36.7060   42.3760 H   0  0  0  0  0  0  0  0  0  0  0  0
   45.8420   37.1900   42.2490 H   0  0  0  0  0  0  0  0  0  0  0  0
   45.3790   35.7690   43.7640 C   0  0  0  0  0  0  0  0  0  0  0  0
   46.4010   34.9270   43.3050 C   0  0  0  0  0  0  0  0  0  0  0  0
   46.7800   33.8200   44.0860 C   0  0  0  0  0  0  0  0  0  0  0  0
   46.1420   33.6280   45.2250 N   0  0  0  0  0  0  0  0  0  0  0  0
   45.1560   34.4490   45.6570 C   0  0  0  0  0  0  0  0  0  0  0  0
   44.7720   35.5190   44.9290 N   0  0  0  0  0  0  0  0  0  0  0  0
   46.8390   35.1910   42.3640 H   0  0  0  0  0  0  0  0  0  0  0  0
   44.6590   34.2450   46.6090 H   0  0  0  0  0  0  0  0  0  0  0  0
   48.8630   33.7000   42.7300 C   0  0  2  0  0  0  0  0  0  0  0  0
   47.8460   33.0010   43.5340 C   0  0  2  0  0  0  0  0  0  0  0  0
   47.3890   31.9960   42.6090 O   0  0  0  0  0  0  0  0  0  0  0  0
   48.6100   31.4370   42.2380 C   0  0  0  0  0  0  0  0  0  0  0  0
   49.6820   32.4680   42.2820 C   0  0  1  0  0  0  0  0  0  0  0  0
   48.4520   34.1100   41.7790 H   0  0  0  0  0  0  0  0  0  0  0  0
   48.3390   32.3900   44.3370 H   0  0  0  0  0  0  0  0  0  0  0  0
   48.5520   30.9330   41.2700 H   0  0  0  0  0  0  0  0  0  0  0  0
   48.8680   30.6430   42.9880 H   0  0  0  0  0  0  0  0  0  0  0  0
   50.4370   32.3200   43.0890 H   0  0  0  0  0  0  0  0  0  0  0  0
   49.5840   34.6450   43.3700 O   0  0  0  0  0  0  0  0  0  0  0  0
   49.3280   35.5570   43.0780 H   0  0  0  0  0  0  0  0  0  0  0  0
   50.2670   32.7490   41.0420 O   0  0  0  0  0  0  0  0  0  0  0  0
   51.2160   32.5390   41.1410 H   0  0  0  0  0  0  0  0  0  0  0  0
   45.4110   39.3090   43.9090 C   0  0  0  0  0  0  0  0  0  0  0  0
   46.2830   39.5180   43.0060 O   0  0  0  0  0  0  0  0  0  0  0  0
   44.7470   38.0560   43.8340 N   0  0  0  0  0  0  0  0  0  0  0  0
   43.9720   37.9050   44.5440 H   0  0  0  0  0  0  0  0  0  0  0  0
   45.0890   40.2610   44.9590 C   0  0  0  0  0  0  0  0  0  0  0  0
   44.9870   39.8400   46.2440 C   0  0  0  0  0  0  0  0  0  0  0  0
   44.6760   40.8100   47.1910 C   0  0  0  0  0  0  0  0  0  0  0  0
   44.4700   42.1530   46.8930 C   0  0  0  0  0  0  0  0  0  0  0  0
   44.5900   42.4920   45.5810 C   0  0  0  0  0  0  0  0  0  0  0  0
   44.8880   41.5700   44.6670 N   0  0  0  0  0  0  0  0  0  0  0  0
   45.1340   38.8070   46.5620 H   0  0  0  0  0  0  0  0  0  0  0  0
   44.5800   40.5290   48.2490 H   0  0  0  0  0  0  0  0  0  0  0  0
   44.2300   42.8680   47.6680 H   0  0  0  0  0  0  0  0  0  0  0  0
   44.5470   44.8140   46.3320 C   0  0  1  0  0  3  0  0  0  0  0  0
   44.3910   43.9140   45.1290 C   0  0  1  0  0  3  0  0  0  0  0  0
   45.4940   44.3680   44.2350 C   0  0  0  0  0  3  0  0  0  0  0  0
   45.8250   43.5550   43.5500 H   0  0  0  0  0  0  0  0  0  0  0  0
   46.5080   44.8660   45.0390 O   0  0  0  0  0  0  0  0  0  0  0  0
   45.9420   45.3110   46.2060 C   0  0  0  0  0  3  0  0  0  0  0  0
   46.5270   45.0380   47.1240 H   0  0  0  0  0  0  0  0  0  0  0  0
   43.6640   45.8940   46.2110 O   0  0  0  0  0  0  0  0  0  0  0  0
   44.1290   46.6920   45.8310 H   0  0  0  0  0  0  0  0  0  0  0  0
  1  4  1  0  0  0  0
  1 28  1  0  0  0  0
  2  1  1  0  0  0  0
  3  1  1  0  0  0  0
  4  9  1  0  0  0  0
  5  4  2  0  0  0  0
  5  6  1  0  0  0  0
  6  7  2  0  0  0  0
  7  8  1  0  0  0  0
  8 11  1  0  0  0  0
  9  8  2  0  0  0  0
 10  5  1  0  0  0  0
 12 17  1  6  0  0  0
 12 22  1  0  0  0  0
 12 13  1  0  0  0  0
 13  6  1  0  0  0  0
 13 18  1  1  0  0  0
 14 13  1  0  0  0  0
 15 16  1  0  0  0  0
 15 14  1  0  0  0  0
 15 20  1  0  0  0  0
 16 12  1  0  0  0  0
 16 21  1  1  0  0  0
 19 15  1  0  0  0  0
 23 22  1  0  0  0  0
 24 25  1  0  0  0  0
 24 16  1  0  0  0  0
 26 30  1  0  0  0  0
 27 26  2  0  0  0  0
 28 26  1  0  0  0  0
 28 29  1  0  0  0  0
 30 31  1  0  0  0  0
 31 36  1  0  0  0  0
 31 32  2  0  0  0  0
 32 37  1  0  0  0  0
 33 32  1  0  0  0  0
 33 38  1  0  0  0  0
 34 33  2  0  0  0  0
 35 30  2  0  0  0  0
 35 34  1  0  0  0  0
 39 46  1  6  0  0  0
 40 34  1  1  0  0  0
 40 39  1  0  0  0  0
 41 43  1  0  0  0  0
 41 40  1  0  0  0  0
 42 41  1  0  0  0  0
 43 44  1  0  0  0  0
 44 39  1  0  0  0  0
 44 45  1  0  0  0  0
 47 46  1  0  0  0  0
M  END
>  <minimizedAffinity>
-0.785075665

>  <minimizedRMSD>
0.514231145

$$$$
