
 OpenBabel03242523223D

 43 46  0  0  1  0  0  0  0  0999 V2000
   47.2960   32.9320   43.8850 C   0  0  0  0  0  0  0  0  0  0  0  0
   48.0020   33.2030   42.7910 C   0  0  0  0  0  0  0  0  0  0  0  0
   48.8660   32.2000   42.4040 C   0  0  0  0  0  0  0  0  0  0  0  0
   48.9160   31.0300   43.1760 N   0  0  0  0  0  0  0  0  0  0  0  0
   48.1980   30.8270   44.2430 C   0  0  0  0  0  0  0  0  0  0  0  0
   47.3200   31.8060   44.6630 N   0  0  0  0  0  0  0  0  0  0  0  0
   49.5440   32.1680   41.5630 H   0  0  0  0  0  0  0  0  0  0  0  0
   48.3360   29.8690   44.7540 H   0  0  0  0  0  0  0  0  0  0  0  0
   48.0420   34.4190   42.0690 C   0  0  1  0  0  0  0  0  0  0  0  0
   48.8650   34.7810   41.0480 C   0  0  0  0  0  0  0  0  0  0  0  0
   47.4630   34.4700   40.6260 C   0  0  1  0  0  0  0  0  0  0  0  0
   47.7440   35.2920   42.7120 H   0  0  0  0  0  0  0  0  0  0  0  0
   49.6800   34.0690   40.7170 H   0  0  0  0  0  0  0  0  0  0  0  0
   49.1860   35.8040   40.7490 H   0  0  0  0  0  0  0  0  0  0  0  0
   46.7650   35.3180   40.4600 H   0  0  0  0  0  0  0  0  0  0  0  0
   46.0360   33.2010   38.9590 C   0  0  1  0  0  3  0  0  0  0  0  0
   47.2810   33.2960   39.7820 C   0  0  1  0  0  3  0  0  0  0  0  0
   48.3580   33.3380   38.7220 C   0  0  0  0  0  3  0  0  0  0  0  0
   49.2430   33.8920   39.0980 H   0  0  0  0  0  0  0  0  0  0  0  0
   47.7780   34.0490   37.6970 O   0  0  0  0  0  0  0  0  0  0  0  0
   46.4840   33.5370   37.5740 C   0  0  0  0  0  3  0  0  0  0  0  0
   45.7930   34.2800   37.1450 H   0  0  0  0  0  0  0  0  0  0  0  0
   45.6380   31.8490   38.9410 O   0  0  0  0  0  0  0  0  0  0  0  0
   45.8150   31.4070   38.0820 H   0  0  0  0  0  0  0  0  0  0  0  0
   46.2500   33.7850   44.4870 C   0  0  0  0  0  0  0  0  0  0  0  0
   45.7320   34.3810   45.3870 O   0  0  0  0  0  0  0  0  0  0  0  0
   44.5380   31.5320   43.2530 Cl  0  0  0  0  0  0  0  0  0  0  0  0
   44.4020   33.2090   42.7460 C   0  0  0  0  0  0  0  0  0  0  0  0
   45.2510   34.1230   43.4230 C   0  0  0  0  0  0  0  0  0  0  0  0
   45.0480   35.3970   42.9450 C   0  0  0  0  0  0  0  0  0  0  0  0
   44.2330   35.8560   42.0050 C   0  0  0  0  0  0  0  0  0  0  0  0
   43.4420   34.9090   41.3910 C   0  0  0  0  0  0  0  0  0  0  0  0
   43.5190   33.5970   41.7530 C   0  0  0  0  0  0  0  0  0  0  0  0
   45.6290   36.2240   43.4170 H   0  0  0  0  0  0  0  0  0  0  0  0
   44.1450   36.8940   41.6910 H   0  0  0  0  0  0  0  0  0  0  0  0
   42.7490   35.2510   40.6010 H   0  0  0  0  0  0  0  0  0  0  0  0
   42.6790   32.7570   41.0710 O   0  0  0  0  0  0  0  0  0  0  0  0
   40.5250   31.4650   40.3150 O   0  0  0  0  0  0  0  0  0  0  0  0
   41.1290   32.2030   41.4840 P   0  0  0  0  0  0  0  0  0  0  0  0
   41.2350   31.2060   42.8500 O   0  0  0  0  0  0  0  0  0  0  0  0
   41.3470   31.7380   43.6600 H   0  0  0  0  0  0  0  0  0  0  0  0
   40.1160   33.4840   41.9350 O   0  0  0  0  0  0  0  0  0  0  0  0
   39.3280   33.1080   42.4080 H   0  0  0  0  0  0  0  0  0  0  0  0
  1 25  1  0  0  0  0
  1  6  1  0  0  0  0
  2  1  2  0  0  0  0
  3  2  1  0  0  0  0
  3  4  2  0  0  0  0
  4  5  1  0  0  0  0
  5  6  2  0  0  0  0
  5  8  1  0  0  0  0
  7  3  1  0  0  0  0
  9 12  1  1  0  0  0
  9  2  1  0  0  0  0
 10  9  1  0  0  0  0
 11 15  1  6  0  0  0
 11 10  1  0  0  0  0
 11  9  1  0  0  0  0
 13 10  1  0  0  0  0
 14 10  1  0  0  0  0
 16 23  1  6  0  0  0
 16 17  1  0  0  0  0
 17 18  1  6  0  0  0
 17 11  1  0  0  0  0
 18 19  1  0  0  0  0
 20 18  1  0  0  0  0
 21 20  1  0  0  0  0
 21 16  1  0  0  0  0
 22 21  1  0  0  0  0
 24 23  1  0  0  0  0
 25 26  2  0  0  0  0
 28 27  1  0  0  0  0
 28 29  1  0  0  0  0
 29 25  1  0  0  0  0
 30 34  1  0  0  0  0
 30 29  2  0  0  0  0
 31 30  1  0  0  0  0
 32 33  1  0  0  0  0
 32 31  2  0  0  0  0
 33 28  2  0  0  0  0
 35 31  1  0  0  0  0
 36 32  1  0  0  0  0
 37 39  1  0  0  0  0
 37 33  1  0  0  0  0
 38 39  2  0  0  0  0
 39 42  1  0  0  0  0
 39 40  1  0  0  0  0
 40 41  1  0  0  0  0
 42 43  1  0  0  0  0
M  END
>  <minimizedAffinity>
-5.61859751

>  <minimizedRMSD>
1.70981848

$$$$
