
 OpenBabel03252507133D

 42 44  0  0  1  0  0  0  0  0999 V2000
   46.5560   34.7500   41.9620 C   0  0  2  0  0  0  0  0  0  0  0  0
   45.6010   35.4810   42.8790 C   0  0  0  0  0  0  0  0  0  0  0  0
   44.2400   35.4780   42.2340 C   0  0  0  0  0  0  0  0  0  0  0  0
   43.6660   34.2160   42.2620 O   0  0  0  0  0  0  0  0  0  0  0  0
   44.6340   33.2390   42.1720 C   0  0  0  0  0  0  0  0  0  0  0  0
   45.7790   33.6700   41.2700 C   0  0  1  0  0  0  0  0  0  0  0  0
   46.8400   35.4420   41.1430 H   0  0  0  0  0  0  0  0  0  0  0  0
   45.5560   35.0190   43.8630 H   0  0  0  0  0  0  0  0  0  0  0  0
   45.9380   36.5400   42.9220 H   0  0  0  0  0  0  0  0  0  0  0  0
   43.5940   36.0790   42.9440 H   0  0  0  0  0  0  0  0  0  0  0  0
   44.1850   36.0170   41.2980 H   0  0  0  0  0  0  0  0  0  0  0  0
   45.0930   33.1520   43.1860 H   0  0  0  0  0  0  0  0  0  0  0  0
   44.2880   32.2340   41.9180 H   0  0  0  0  0  0  0  0  0  0  0  0
   46.4600   32.7610   41.3540 H   0  0  0  0  0  0  0  0  0  0  0  0
   44.5250   32.6720   39.3310 C   0  0  2  0  0  3  0  0  0  0  0  0
   45.4430   33.7660   39.8590 C   0  0  2  0  0  3  0  0  0  0  0  0
   46.5900   33.4330   38.8930 C   0  0  0  0  0  3  0  0  0  0  0  0
   46.2610   33.6080   37.8440 H   0  0  0  0  0  0  0  0  0  0  0  0
   46.7370   32.0370   39.1160 O   0  0  0  0  0  0  0  0  0  0  0  0
   45.4530   31.5650   38.9170 C   0  0  0  0  0  3  0  0  0  0  0  0
   45.2780   30.6410   39.5330 H   0  0  0  0  0  0  0  0  0  0  0  0
   43.9230   33.1370   38.1630 O   0  0  0  0  0  0  0  0  0  0  0  0
   44.2670   34.0350   37.9340 H   0  0  0  0  0  0  0  0  0  0  0  0
   47.6850   34.3210   42.5790 O   0  0  0  0  0  0  0  0  0  0  0  0
   50.2620   34.7770   42.6000 O   0  0  0  0  0  0  0  0  0  0  0  0
   49.1030   34.4210   41.7480 P   0  0  2  0  0  0  0  0  0  0  0  0
   48.9550   35.6630   40.6110 O   0  0  0  0  0  0  0  0  0  0  0  0
   48.7130   36.5140   41.0620 H   0  0  0  0  0  0  0  0  0  0  0  0
   49.4110   32.9520   40.8980 O   0  0  0  0  0  0  0  0  0  0  0  0
   49.8250   31.3160   42.5450 C   0  0  0  0  0  0  0  0  0  0  0  0
   50.2460   31.9830   41.4180 C   0  0  0  0  0  0  0  0  0  0  0  0
   51.5020   31.6460   40.8530 C   0  0  0  0  0  0  0  0  0  0  0  0
   52.2150   30.6730   41.4710 N   0  0  0  0  0  0  0  0  0  0  0  0
   51.7790   30.0550   42.5500 C   0  0  0  0  0  0  0  0  0  0  0  0
   50.5730   30.3860   43.0840 N   0  0  0  0  0  0  0  0  0  0  0  0
   47.4330   30.7790   42.9690 C   0  0  0  0  0  0  0  0  0  0  0  0
   47.2210   30.3820   41.7630 O   0  0  0  0  0  0  0  0  0  0  0  0
   48.7290   31.2750   43.4470 N   0  0  0  0  0  0  0  0  0  0  0  0
   51.7470   32.2100   39.9860 H   0  0  0  0  0  0  0  0  0  0  0  0
   52.3470   29.2720   43.0510 H   0  0  0  0  0  0  0  0  0  0  0  0
   46.5380   30.6940   43.5660 H   0  0  0  0  0  0  0  0  0  0  0  0
   48.7120   31.5660   44.4420 H   0  0  0  0  0  0  0  0  0  0  0  0
  1  7  1  6  0  0  0
  1 24  1  0  0  0  0
  1  2  1  0  0  0  0
  2  9  1  0  0  0  0
  2  8  1  0  0  0  0
  3  4  1  0  0  0  0
  3  2  1  0  0  0  0
  3 10  1  0  0  0  0
  5  4  1  0  0  0  0
  5 12  1  0  0  0  0
  6 14  1  1  0  0  0
  6  1  1  0  0  0  0
  6  5  1  0  0  0  0
 11  3  1  0  0  0  0
 13  5  1  0  0  0  0
 15 22  1  6  0  0  0
 15 16  1  0  0  0  0
 16 17  1  6  0  0  0
 16  6  1  0  0  0  0
 17 19  1  0  0  0  0
 18 17  1  0  0  0  0
 20 19  1  0  0  0  0
 20 15  1  0  0  0  0
 20 21  1  0  0  0  0
 23 22  1  0  0  0  0
 26 24  1  0  0  0  0
 26 25  2  1  0  0  0
 27 28  1  0  0  0  0
 27 26  1  0  0  0  0
 29 31  1  0  0  0  0
 29 26  1  0  0  0  0
 30 35  1  0  0  0  0
 30 38  1  0  0  0  0
 31 30  2  0  0  0  0
 32 31  1  0  0  0  0
 32 33  2  0  0  0  0
 33 34  1  0  0  0  0
 34 40  1  0  0  0  0
 34 35  2  0  0  0  0
 36 38  1  0  0  0  0
 36 41  1  0  0  0  0
 37 36  2  0  0  0  0
 38 42  1  0  0  0  0
 39 32  1  0  0  0  0
M  END
>  <minimizedAffinity>
-4.45449018

>  <minimizedRMSD>
0.943253458

$$$$
