
 OpenBabel03242523233D

 43 46  0  0  1  0  0  0  0  0999 V2000
   47.0010   32.9620   44.1360 C   0  0  0  0  0  0  0  0  0  0  0  0
   47.8090   33.2090   43.1090 C   0  0  0  0  0  0  0  0  0  0  0  0
   48.6790   32.1820   42.8050 C   0  0  0  0  0  0  0  0  0  0  0  0
   48.6310   31.0160   43.5840 N   0  0  0  0  0  0  0  0  0  0  0  0
   47.8150   30.8380   44.5820 C   0  0  0  0  0  0  0  0  0  0  0  0
   46.9270   31.8410   44.9180 N   0  0  0  0  0  0  0  0  0  0  0  0
   49.4290   32.1290   42.0290 H   0  0  0  0  0  0  0  0  0  0  0  0
   47.8830   29.8800   45.1080 H   0  0  0  0  0  0  0  0  0  0  0  0
   47.9440   34.4180   42.3880 C   0  0  1  0  0  0  0  0  0  0  0  0
   48.8210   34.7310   41.3970 C   0  0  0  0  0  0  0  0  0  0  0  0
   47.4190   34.5000   40.9260 C   0  0  1  0  0  0  0  0  0  0  0  0
   47.6730   35.3090   43.0200 H   0  0  0  0  0  0  0  0  0  0  0  0
   49.6050   33.9730   41.0940 H   0  0  0  0  0  0  0  0  0  0  0  0
   49.2100   35.7330   41.1090 H   0  0  0  0  0  0  0  0  0  0  0  0
   46.7770   35.3860   40.7350 H   0  0  0  0  0  0  0  0  0  0  0  0
   46.0560   33.3670   39.1140 C   0  0  1  0  0  3  0  0  0  0  0  0
   47.2000   33.3360   40.0760 C   0  0  1  0  0  3  0  0  0  0  0  0
   48.3900   33.2300   39.1500 C   0  0  0  0  0  3  0  0  0  0  0  0
   49.2850   33.6870   39.6230 H   0  0  0  0  0  0  0  0  0  0  0  0
   48.0210   33.9800   38.0580 O   0  0  0  0  0  0  0  0  0  0  0  0
   46.6980   33.6180   37.7890 C   0  0  0  0  0  3  0  0  0  0  0  0
   46.1520   34.4250   37.2750 H   0  0  0  0  0  0  0  0  0  0  0  0
   45.5070   32.0680   39.0620 O   0  0  0  0  0  0  0  0  0  0  0  0
   45.7310   31.5910   38.2320 H   0  0  0  0  0  0  0  0  0  0  0  0
   45.9260   33.8440   44.6380 C   0  0  0  0  0  0  0  0  0  0  0  0
   45.3380   34.4490   45.4880 O   0  0  0  0  0  0  0  0  0  0  0  0
   44.4530   31.6310   43.0670 Cl  0  0  0  0  0  0  0  0  0  0  0  0
   44.3240   33.3340   42.6510 C   0  0  0  0  0  0  0  0  0  0  0  0
   45.0540   34.2240   43.4820 C   0  0  0  0  0  0  0  0  0  0  0  0
   44.8680   35.5200   43.0600 C   0  0  0  0  0  0  0  0  0  0  0  0
   44.1580   36.0180   42.0580 C   0  0  0  0  0  0  0  0  0  0  0  0
   43.4790   35.0920   41.2940 C   0  0  0  0  0  0  0  0  0  0  0  0
   43.5550   33.7620   41.5820 C   0  0  0  0  0  0  0  0  0  0  0  0
   45.3590   36.3300   43.6500 H   0  0  0  0  0  0  0  0  0  0  0  0
   44.0740   37.0720   41.7980 H   0  0  0  0  0  0  0  0  0  0  0  0
   42.8760   35.4670   40.4470 H   0  0  0  0  0  0  0  0  0  0  0  0
   42.8330   32.9470   40.7520 O   0  0  0  0  0  0  0  0  0  0  0  0
   40.7830   31.8060   39.5780 O   0  0  0  0  0  0  0  0  0  0  0  0
   41.2310   32.4060   40.8890 P   0  0  0  0  0  0  0  0  0  0  0  0
   41.1250   31.2760   42.1480 O   0  0  0  0  0  0  0  0  0  0  0  0
   41.1320   31.7220   43.0150 H   0  0  0  0  0  0  0  0  0  0  0  0
   40.1880   33.6680   41.3240 O   0  0  0  0  0  0  0  0  0  0  0  0
   39.3350   33.2730   41.6430 H   0  0  0  0  0  0  0  0  0  0  0  0
  1 25  1  0  0  0  0
  1  6  1  0  0  0  0
  2  1  2  0  0  0  0
  3  2  1  0  0  0  0
  3  4  2  0  0  0  0
  4  5  1  0  0  0  0
  5  6  2  0  0  0  0
  5  8  1  0  0  0  0
  7  3  1  0  0  0  0
  9 12  1  1  0  0  0
  9  2  1  0  0  0  0
 10  9  1  0  0  0  0
 11 15  1  6  0  0  0
 11 10  1  0  0  0  0
 11  9  1  0  0  0  0
 13 10  1  0  0  0  0
 14 10  1  0  0  0  0
 16 23  1  6  0  0  0
 16 17  1  0  0  0  0
 17 18  1  6  0  0  0
 17 11  1  0  0  0  0
 18 19  1  0  0  0  0
 20 18  1  0  0  0  0
 21 20  1  0  0  0  0
 21 16  1  0  0  0  0
 22 21  1  0  0  0  0
 24 23  1  0  0  0  0
 25 26  2  0  0  0  0
 28 27  1  0  0  0  0
 28 29  1  0  0  0  0
 29 25  1  0  0  0  0
 30 29  2  0  0  0  0
 30 34  1  0  0  0  0
 31 30  1  0  0  0  0
 32 33  1  0  0  0  0
 32 31  2  0  0  0  0
 33 28  2  0  0  0  0
 35 31  1  0  0  0  0
 36 32  1  0  0  0  0
 37 39  1  0  0  0  0
 37 33  1  0  0  0  0
 38 39  2  0  0  0  0
 39 42  1  0  0  0  0
 39 40  1  0  0  0  0
 40 41  1  0  0  0  0
 42 43  1  0  0  0  0
M  END
>  <minimizedAffinity>
-5.46150494

>  <minimizedRMSD>
1.42521799

$$$$
