
 OpenBabel03242517143D

 23 24  0  0  1  0  0  0  0  0999 V2000
   42.6070   35.3590   39.7130 C   0  0  0  0  0  0  0  0  0  0  0  0
   43.4750   35.7090   39.1380 H   0  0  0  0  0  0  0  0  0  0  0  0
   41.8550   36.1720   39.7470 H   0  0  0  0  0  0  0  0  0  0  0  0
   40.2890   32.5820   39.0990 C   0  0  1  0  0  3  0  0  0  0  0  0
   41.3240   33.2370   40.0240 C   0  0  0  0  0  3  0  0  0  0  0  0
   41.9300   32.4450   40.4740 H   0  0  0  0  0  0  0  0  0  0  0  0
   42.0430   34.1070   39.0390 C   0  0  1  0  0  3  0  0  0  0  0  0
   41.1480   34.4680   38.0470 O   0  0  0  0  0  0  0  0  0  0  0  0
   39.9440   33.8290   38.2730 C   0  0  0  0  0  3  0  0  0  0  0  0
   39.4330   33.5650   37.3470 H   0  0  0  0  0  0  0  0  0  0  0  0
   40.9260   31.7070   38.2430 O   0  0  0  0  0  0  0  0  0  0  0  0
   41.4350   30.9840   38.6890 H   0  0  0  0  0  0  0  0  0  0  0  0
   44.0190   35.4010   41.7450 C   0  0  0  0  0  3  0  0  0  0  0  0
   43.0130   34.8970   41.0740 C   0  0  0  0  0  3  0  0  0  0  0  0
   44.3140   35.7950   44.1970 C   0  0  0  0  0  0  0  0  0  0  0  0
   44.4600   34.9980   43.0640 C   0  0  0  0  0  0  0  0  0  0  0  0
   45.0640   33.7550   43.2290 C   0  0  0  0  0  0  0  0  0  0  0  0
   45.4840   33.3720   44.4830 N   0  0  0  0  0  0  0  0  0  0  0  0
   45.3180   34.1810   45.5500 C   0  0  0  0  0  0  0  0  0  0  0  0
   44.7360   35.3830   45.3960 N   0  0  0  0  0  0  0  0  0  0  0  0
   43.8470   36.7670   44.0920 H   0  0  0  0  0  0  0  0  0  0  0  0
   45.2010   33.0960   42.3750 H   0  0  0  0  0  0  0  0  0  0  0  0
   45.7050   33.7220   46.4520 H   0  0  0  0  0  0  0  0  0  0  0  0
  1  3  1  0  0  0  0
  1 14  1  0  0  0  0
  2  1  1  0  0  0  0
  4 11  1  6  0  0  0
  4  5  1  0  0  0  0
  5  6  1  0  0  0  0
  7  1  1  1  0  0  0
  7  5  1  0  0  0  0
  8  9  1  0  0  0  0
  8  7  1  0  0  0  0
  9  4  1  0  0  0  0
 10  9  1  0  0  0  0
 11 12  1  0  0  0  0
 13 16  1  0  0  0  0
 14 13  2  0  0  0  0
 15 20  1  0  0  0  0
 16 17  1  0  0  0  0
 16 15  2  0  0  0  0
 17 18  2  0  0  0  0
 18 19  1  0  0  0  0
 19 23  1  0  0  0  0
 20 19  2  0  0  0  0
 21 15  1  0  0  0  0
 22 17  1  0  0  0  0
M  END
>  <minimizedAffinity>
-4.04513407

>  <minimizedRMSD>
0.967484117

$$$$
