
 OpenBabel03252507573D

 27 29  0  0  1  0  0  0  0  0999 V2000
   46.5300   32.5180   46.0060 C   0  0  1  0  0  0  0  0  0  0  0  0
   46.9360   32.7770   47.4200 C   0  0  0  0  0  0  0  0  0  0  0  0
   45.5880   32.2320   47.1360 C   0  0  2  0  0  0  0  0  0  0  0  0
   47.0680   31.7580   45.4350 H   0  0  0  0  0  0  0  0  0  0  0  0
   47.0420   33.8370   47.7490 H   0  0  0  0  0  0  0  0  0  0  0  0
   47.7850   32.1640   47.7750 H   0  0  0  0  0  0  0  0  0  0  0  0
   44.7470   32.9640   47.3260 H   0  0  0  0  0  0  0  0  0  0  0  0
   46.2860   34.8040   43.1460 C   0  0  0  0  0  0  0  0  0  0  0  0
   45.2860   35.7070   43.5370 C   0  0  0  0  0  0  0  0  0  0  0  0
   44.6840   35.5230   44.8080 C   0  0  0  0  0  0  0  0  0  0  0  0
   45.1150   34.4800   45.5690 N   0  0  0  0  0  0  0  0  0  0  0  0
   46.0920   33.6440   45.1230 C   0  0  0  0  0  0  0  0  0  0  0  0
   46.6790   33.7820   43.9410 N   0  0  0  0  0  0  0  0  0  0  0  0
   44.9540   36.5300   42.9220 H   0  0  0  0  0  0  0  0  0  0  0  0
   43.9100   36.1840   45.1650 H   0  0  0  0  0  0  0  0  0  0  0  0
   46.8340   35.0710   41.8580 C   0  0  0  0  0  0  0  0  0  0  0  0
   48.0460   35.3540   41.6150 O   0  0  0  0  0  0  0  0  0  0  0  0
   46.1620   35.0320   41.0020 H   0  0  0  0  0  0  0  0  0  0  0  0
   45.9160   30.1330   48.5090 C   0  0  2  0  0  3  0  0  0  0  0  0
   45.1800   30.8270   47.4170 C   0  0  2  0  0  3  0  0  0  0  0  0
   45.4570   29.9250   46.2330 C   0  0  0  0  0  3  0  0  0  0  0  0
   44.7870   29.0640   46.1980 H   0  0  0  0  0  0  0  0  0  0  0  0
   46.7960   29.5830   46.4190 O   0  0  0  0  0  0  0  0  0  0  0  0
   47.0230   29.4220   47.7680 C   0  0  0  0  0  3  0  0  0  0  0  0
   46.9760   28.3220   47.9710 H   0  0  0  0  0  0  0  0  0  0  0  0
   45.1050   29.1650   49.1440 O   0  0  0  0  0  0  0  0  0  0  0  0
   44.4270   28.7880   48.5580 H   0  0  0  0  0  0  0  0  0  0  0  0
  1  4  1  6  0  0  0
  1  3  1  0  0  0  0
  1  2  1  0  0  0  0
  2  5  1  0  0  0  0
  2  6  1  0  0  0  0
  3  7  1  1  0  0  0
  3 20  1  0  0  0  0
  3  2  1  0  0  0  0
  8  9  2  0  0  0  0
  8 13  1  0  0  0  0
  9 10  1  0  0  0  0
 10 15  1  0  0  0  0
 10 11  2  0  0  0  0
 12 11  1  0  0  0  0
 12  1  1  0  0  0  0
 13 12  2  0  0  0  0
 14  9  1  0  0  0  0
 16  8  1  0  0  0  0
 17 16  2  0  0  0  0
 18 16  1  0  0  0  0
 19 26  1  6  0  0  0
 20 21  1  6  0  0  0
 20 19  1  0  0  0  0
 21 23  1  0  0  0  0
 22 21  1  0  0  0  0
 23 24  1  0  0  0  0
 24 25  1  0  0  0  0
 24 19  1  0  0  0  0
 27 26  1  0  0  0  0
M  END
>  <minimizedAffinity>
-4.74432564

>  <minimizedRMSD>
0.902837515

$$$$
