
 OpenBabel03242520323D

 25 27  0  0  1  0  0  0  0  0999 V2000
   44.5120   35.1300   41.5690 C   0  0  1  0  0  0  0  0  0  0  0  0
   44.6590   34.0420   40.6050 C   0  0  0  0  0  0  0  0  0  0  0  0
   43.2870   34.5000   40.9300 C   0  0  2  0  0  0  0  0  0  0  0  0
   44.6870   36.1890   41.2690 H   0  0  0  0  0  0  0  0  0  0  0  0
   44.9830   33.0650   41.0450 H   0  0  0  0  0  0  0  0  0  0  0  0
   45.1720   34.2470   39.6590 H   0  0  0  0  0  0  0  0  0  0  0  0
   42.7030   33.8660   41.6300 H   0  0  0  0  0  0  0  0  0  0  0  0
   45.3170   33.6520   43.4800 C   0  0  0  0  0  0  0  0  0  0  0  0
   44.7440   34.8720   43.0290 C   0  0  0  0  0  0  0  0  0  0  0  0
   44.3840   35.8290   43.9780 C   0  0  0  0  0  0  0  0  0  0  0  0
   44.6050   35.5320   45.2850 N   0  0  0  0  0  0  0  0  0  0  0  0
   45.1520   34.3660   45.6930 C   0  0  0  0  0  0  0  0  0  0  0  0
   45.5100   33.4200   44.7780 N   0  0  0  0  0  0  0  0  0  0  0  0
   45.5670   32.9660   42.6790 H   0  0  0  0  0  0  0  0  0  0  0  0
   43.9530   36.7600   43.7070 H   0  0  0  0  0  0  0  0  0  0  0  0
   45.3160   34.1600   46.7440 H   0  0  0  0  0  0  0  0  0  0  0  0
   42.4120   34.7180   38.5930 C   0  0  1  0  0  0  0  0  0  0  0  0
   42.4610   35.3000   39.9840 C   0  0  1  0  0  0  0  0  0  0  0  0
   41.0200   35.4320   40.3230 C   0  0  0  0  0  0  0  0  0  0  0  0
   40.7580   35.5030   41.3740 H   0  0  0  0  0  0  0  0  0  0  0  0
   40.3430   34.4220   39.6550 O   0  0  0  0  0  0  0  0  0  0  0  0
   40.9670   34.3080   38.4260 C   0  0  0  0  0  0  0  0  0  0  0  0
   40.4830   34.9230   37.6330 H   0  0  0  0  0  0  0  0  0  0  0  0
   42.7370   35.6640   37.6090 O   0  0  0  0  0  0  0  0  0  0  0  0
   42.8110   36.5780   37.9860 H   0  0  0  0  0  0  0  0  0  0  0  0
  1  4  1  6  0  0  0
  1  9  1  0  0  0  0
  2  3  1  0  0  0  0
  2  5  1  0  0  0  0
  2  1  1  0  0  0  0
  3  1  1  0  0  0  0
  3  7  1  1  0  0  0
  6  2  1  0  0  0  0
  8 13  1  0  0  0  0
  9  8  2  0  0  0  0
  9 10  1  0  0  0  0
 10 11  2  0  0  0  0
 11 12  1  0  0  0  0
 12 16  1  0  0  0  0
 13 12  2  0  0  0  0
 14  8  1  0  0  0  0
 15 10  1  0  0  0  0
 17 24  1  6  0  0  0
 17 18  1  0  0  0  0
 18 19  1  1  0  0  0
 18  3  1  0  0  0  0
 19 20  1  0  0  0  0
 21 19  1  0  0  0  0
 22 17  1  0  0  0  0
 22 21  1  0  0  0  0
 23 22  1  0  0  0  0
 24 25  1  0  0  0  0
M  END
>  <minimizedAffinity>
-4.91687346

>  <minimizedRMSD>
7.38166046

$$$$
