
 OpenBabel03252509043D

 48 50  0  0  1  0  0  0  0  0999 V2000
   46.7210   34.3500   43.4960 N   0  0  0  0  0  0  0  0  0  0  0  0
   46.4800   34.9580   42.2440 C   0  0  0  0  0  0  0  0  0  0  0  0
   45.0120   35.0030   41.8480 C   0  0  0  0  0  0  0  0  0  0  0  0
   44.0750   35.2080   43.0140 C   0  0  0  0  0  0  0  0  0  0  0  0
   44.8310   35.4020   44.3150 C   0  0  0  0  0  0  0  0  0  0  0  0
   45.7240   34.0980   44.4050 C   0  0  2  0  0  0  0  0  0  0  0  0
   47.0100   34.5300   41.3890 H   0  0  0  0  0  0  0  0  0  0  0  0
   46.8170   36.0150   42.3090 H   0  0  0  0  0  0  0  0  0  0  0  0
   44.9060   35.7840   41.0680 H   0  0  0  0  0  0  0  0  0  0  0  0
   44.7890   34.0290   41.3500 H   0  0  0  0  0  0  0  0  0  0  0  0
   43.4030   34.3430   43.1370 H   0  0  0  0  0  0  0  0  0  0  0  0
   43.4340   36.0990   42.8730 H   0  0  0  0  0  0  0  0  0  0  0  0
   45.4890   36.2690   44.3120 H   0  0  0  0  0  0  0  0  0  0  0  0
   44.0930   35.3510   45.1310 H   0  0  0  0  0  0  0  0  0  0  0  0
   45.0520   33.2380   44.2130 H   0  0  0  0  0  0  0  0  0  0  0  0
   47.9160   33.5440   43.5420 C   0  0  0  0  0  0  0  0  0  0  0  0
   48.0240   33.2040   44.6130 H   0  0  0  0  0  0  0  0  0  0  0  0
   48.8030   34.1140   43.2450 H   0  0  0  0  0  0  0  0  0  0  0  0
   47.6820   32.3240   42.7290 C   0  0  0  0  0  0  0  0  0  0  0  0
   47.4650   31.4040   43.3120 H   0  0  0  0  0  0  0  0  0  0  0  0
   46.7920   32.4360   42.0500 H   0  0  0  0  0  0  0  0  0  0  0  0
   51.2020   32.1800   41.4350 C   0  0  0  0  0  0  0  0  0  0  0  0
   50.0910   32.3850   42.2780 C   0  0  0  0  0  0  0  0  0  0  0  0
   48.8310   32.0980   41.8210 C   0  0  0  0  0  0  0  0  0  0  0  0
   48.7270   31.6310   40.5820 N   0  0  0  0  0  0  0  0  0  0  0  0
   49.7680   31.4300   39.7710 C   0  0  0  0  0  0  0  0  0  0  0  0
   51.0260   31.7020   40.1870 N   0  0  0  0  0  0  0  0  0  0  0  0
   52.1600   32.4370   41.8900 H   0  0  0  0  0  0  0  0  0  0  0  0
   50.2120   32.7670   43.2840 H   0  0  0  0  0  0  0  0  0  0  0  0
   49.6740   31.0480   38.7560 H   0  0  0  0  0  0  0  0  0  0  0  0
   46.1430   34.1690   45.7220 O   0  0  0  0  0  0  0  0  0  0  0  0
   45.5620   31.5710   45.5800 O   0  0  0  0  0  0  0  0  0  0  0  0
   46.0090   32.6910   46.5180 P   0  0  2  0  0  0  0  0  0  0  0  0
   44.7170   32.8880   47.6300 O   0  0  0  0  0  0  0  0  0  0  0  0
   45.0750   33.0960   48.5290 H   0  0  0  0  0  0  0  0  0  0  0  0
   47.3770   32.2870   47.3880 O   0  0  0  0  0  0  0  0  0  0  0  0
   47.7710   31.0150   47.0250 C   0  0  0  0  0  0  0  0  0  0  0  0
   48.8330   31.0680   46.6580 H   0  0  0  0  0  0  0  0  0  0  0  0
   47.1640   30.5180   46.2730 H   0  0  0  0  0  0  0  0  0  0  0  0
   49.7970   29.5230   49.4880 C   0  0  2  0  0  3  0  0  0  0  0  0
   49.0150   29.2190   48.2440 C   0  0  0  0  0  3  0  0  0  0  0  0
   49.6020   29.2710   47.3060 H   0  0  0  0  0  0  0  0  0  0  0  0
   47.8690   30.1880   48.3150 C   0  0  1  0  0  3  0  0  0  0  0  0
   48.0490   30.9870   49.4110 O   0  0  0  0  0  0  0  0  0  0  0  0
   49.3900   30.9570   49.7580 C   0  0  0  0  0  3  0  0  0  0  0  0
   49.5110   31.2240   50.8360 H   0  0  0  0  0  0  0  0  0  0  0  0
   51.1560   29.4270   49.1940 O   0  0  0  0  0  0  0  0  0  0  0  0
   51.2760   29.7150   48.2370 H   0  0  0  0  0  0  0  0  0  0  0  0
  1 16  1  0  0  0  0
  1  6  1  0  0  0  0
  2  8  1  0  0  0  0
  2  1  1  0  0  0  0
  3  2  1  0  0  0  0
  3  4  1  0  0  0  0
  4 11  1  0  0  0  0
  4  5  1  0  0  0  0
  5  6  1  0  0  0  0
  5 14  1  0  0  0  0
  6 15  1  6  0  0  0
  6 31  1  0  0  0  0
  7  2  1  0  0  0  0
  9  3  1  0  0  0  0
 10  3  1  0  0  0  0
 12  4  1  0  0  0  0
 13  5  1  0  0  0  0
 16 17  1  0  0  0  0
 18 16  1  0  0  0  0
 19 20  1  0  0  0  0
 19 16  1  0  0  0  0
 21 19  1  0  0  0  0
 22 28  1  0  0  0  0
 22 23  1  0  0  0  0
 23 29  1  0  0  0  0
 24 23  2  0  0  0  0
 24 19  1  0  0  0  0
 25 24  1  0  0  0  0
 26 27  1  0  0  0  0
 26 25  2  0  0  0  0
 27 22  2  0  0  0  0
 30 26  1  0  0  0  0
 31 33  1  0  0  0  0
 33 32  2  6  0  0  0
 33 36  1  0  0  0  0
 33 34  1  0  0  0  0
 34 35  1  0  0  0  0
 37 36  1  0  0  0  0
 38 37  1  0  0  0  0
 39 37  1  0  0  0  0
 40 47  1  6  0  0  0
 40 45  1  0  0  0  0
 41 43  1  0  0  0  0
 41 40  1  0  0  0  0
 42 41  1  0  0  0  0
 43 37  1  6  0  0  0
 43 44  1  0  0  0  0
 44 45  1  0  0  0  0
 45 46  1  0  0  0  0
 48 47  1  0  0  0  0
M  END
>  <minimizedAffinity>
-4.89823151

>  <minimizedRMSD>
3.35834503

$$$$
