
     RDKit          3D

 23 24  0  0  0  0  0  0  0  0999 V2000
   45.0047   35.4814   44.1880 C   0  0  0  0  0  0  0  0  0  0  0  0
   45.9835   34.9295   43.3349 C   0  0  0  0  0  0  0  0  0  0  0  0
   46.7103   33.8371   43.8367 C   0  0  0  0  0  0  0  0  0  0  0  0
   46.4362   33.3833   45.0875 N   0  0  0  0  0  0  0  0  0  0  0  0
   45.4920   33.9461   45.8597 C   0  0  0  0  0  0  0  0  0  0  0  0
   44.7799   34.9834   45.4230 N   0  0  0  0  0  0  0  0  0  0  0  0
   44.2914   36.5423   43.7142 O   0  0  0  0  0  0  0  0  0  0  0  0
   46.1776   35.3023   42.3638 H   0  0  0  0  0  0  0  0  0  0  0  0
   45.3092   33.5511   46.8474 H   0  0  0  0  0  0  0  0  0  0  0  0
   44.4520   37.4458   44.1425 H   0  0  0  0  0  0  0  0  0  0  0  0
   48.9183   31.8163   44.6189 O   0  0  0  0  0  0  0  0  0  0  0  0
   49.0264   32.9252   43.8061 C   0  0  2  0  0  0  0  0  0  0  0  0
   47.7544   33.1844   43.0334 C   0  0  2  0  0  0  0  0  0  0  0  0
   48.3264   34.0687   41.9347 C   0  0  2  0  0  0  0  0  0  0  0  0
   48.4952   35.0633   42.4052 H   0  0  0  0  0  0  0  0  0  0  0  0
   49.5000   33.4362   41.5691 O   0  0  0  0  0  0  0  0  0  0  0  0
   49.9923   32.7259   42.6404 C   0  0  2  0  0  0  0  0  0  0  0  0
   49.9800   31.6328   42.4134 H   0  0  0  0  0  0  0  0  0  0  0  0
   49.4807   31.8563   45.4162 H   0  0  0  0  0  0  0  0  0  0  0  0
   49.3790   33.7832   44.3771 H   0  0  0  0  0  0  0  0  0  0  0  0
   47.4258   32.2042   42.6262 H   0  0  0  0  0  0  0  0  0  0  0  0
   47.6102   34.1357   41.1004 H   0  0  0  0  0  0  0  0  0  0  0  0
   51.0306   32.9801   42.9175 H   0  0  0  0  0  0  0  0  0  0  0  0
  1  6  2  0
  2  3  2  0
  2  1  1  0
  3  4  1  0
  4  5  2  0
  6  5  1  0
  7  1  1  0
  2  8  1  0
  5  9  1  0
  7 10  1  0
 11 12  1  0
 12 13  1  0
 13 14  1  0
 14 15  1  1
 14 16  1  0
 16 17  1  0
 17 18  1  6
 17 12  1  0
 11 19  1  0
 12 20  1  1
 13 21  1  6
 14 22  1  0
 17 23  1  0
  3 13  1  0
M  ISO  5   8  14   9  14  10   3  15  15  18  16
M  END
>  <DihAtoms>  (1) 
1,2,12,11

>  <DihDeg>  (1) 
59.135440461842514

$$$$
