
 OpenBabel03252501153D

 28 30  0  0  1  0  0  0  0  0999 V2000
   37.2190   30.1530   40.3290 C   0  0  1  0  0  0  0  0  0  0  0  0
   36.2060   31.1840   40.7250 C   0  0  0  0  0  0  0  0  0  0  0  0
   37.6910   31.5000   40.6820 C   0  0  2  0  0  0  0  0  0  0  0  0
   37.3520   29.7730   39.3140 H   0  0  0  0  0  0  0  0  0  0  0  0
   35.7370   31.1060   41.7550 H   0  0  0  0  0  0  0  0  0  0  0  0
   35.4960   31.5990   40.0190 H   0  0  0  0  0  0  0  0  0  0  0  0
   38.1700   31.5550   41.7090 H   0  0  0  0  0  0  0  0  0  0  0  0
   37.3610   26.7830   41.9860 C   0  0  0  0  0  0  0  0  0  0  0  0
   37.2030   27.7210   40.9570 C   0  0  0  0  0  0  0  0  0  0  0  0
   37.3720   29.0450   41.3330 C   0  0  0  0  0  0  0  0  0  0  0  0
   37.6710   29.3670   42.6210 N   0  0  0  0  0  0  0  0  0  0  0  0
   37.8110   28.4050   43.5800 C   0  0  0  0  0  0  0  0  0  0  0  0
   37.6530   27.0990   43.2480 N   0  0  0  0  0  0  0  0  0  0  0  0
   36.9720   27.4260   39.9680 H   0  0  0  0  0  0  0  0  0  0  0  0
   38.0480   28.7300   44.5810 H   0  0  0  0  0  0  0  0  0  0  0  0
   37.1980   25.3390   41.6220 C   0  0  0  0  0  0  0  0  0  0  0  0
   36.4570   25.2890   40.4490 F   0  0  0  0  0  0  0  0  0  0  0  0
   36.4620   24.7350   42.6060 F   0  0  0  0  0  0  0  0  0  0  0  0
   38.4070   24.7360   41.3900 F   0  0  0  0  0  0  0  0  0  0  0  0
   38.9110   33.6960   40.2080 C   0  0  2  0  0  3  0  0  0  0  0  0
   38.3210   32.4440   39.7570 C   0  0  1  0  0  3  0  0  0  0  0  0
   39.4160   31.7610   38.9200 C   0  0  0  0  0  3  0  0  0  0  0  0
   39.0360   31.3540   37.9830 H   0  0  0  0  0  0  0  0  0  0  0  0
   40.3060   32.7790   38.6830 O   0  0  0  0  0  0  0  0  0  0  0  0
   40.4050   33.4610   39.9090 C   0  0  0  0  0  3  0  0  0  0  0  0
   40.8780   32.7880   40.6240 H   0  0  0  0  0  0  0  0  0  0  0  0
   38.6810   34.1610   41.4600 O   0  0  0  0  0  0  0  0  0  0  0  0
   39.5570   34.3340   41.9270 H   0  0  0  0  0  0  0  0  0  0  0  0
  1  4  1  6  0  0  0
  1  3  1  0  0  0  0
  1  2  1  0  0  0  0
  1 10  1  0  0  0  0
  2  5  1  0  0  0  0
  3  2  1  0  0  0  0
  3  7  1  1  0  0  0
  6  2  1  0  0  0  0
  8 13  1  0  0  0  0
  9 10  1  0  0  0  0
  9  8  2  0  0  0  0
 10 11  2  0  0  0  0
 11 12  1  0  0  0  0
 12 15  1  0  0  0  0
 13 12  2  0  0  0  0
 14  9  1  0  0  0  0
 16  8  1  0  0  0  0
 16 18  1  0  0  0  0
 17 16  1  0  0  0  0
 19 16  1  0  0  0  0
 20 27  1  1  0  0  0
 21 22  1  1  0  0  0
 21 20  1  0  0  0  0
 21  3  1  0  0  0  0
 23 22  1  0  0  0  0
 24 22  1  0  0  0  0
 24 25  1  0  0  0  0
 25 20  1  0  0  0  0
 25 26  1  0  0  0  0
 27 28  1  0  0  0  0
M  END
>  <minimizedAffinity>
-5.48534918

$$$$

 OpenBabel03252501153D

 28 30  0  0  1  0  0  0  0  0999 V2000
   37.7970   28.4470   43.1920 C   0  0  1  0  0  0  0  0  0  0  0  0
   36.8530   27.3790   43.6560 C   0  0  0  0  0  0  0  0  0  0  0  0
   38.1840   27.0410   43.0050 C   0  0  2  0  0  0  0  0  0  0  0  0
   38.3760   29.0930   43.8540 H   0  0  0  0  0  0  0  0  0  0  0  0
   35.9250   27.1780   43.0360 H   0  0  0  0  0  0  0  0  0  0  0  0
   36.6500   27.2030   44.7050 H   0  0  0  0  0  0  0  0  0  0  0  0
   38.0840   26.6830   41.9340 H   0  0  0  0  0  0  0  0  0  0  0  0
   35.9600   29.4920   40.0840 C   0  0  0  0  0  0  0  0  0  0  0  0
   36.3410   28.6750   41.1560 C   0  0  0  0  0  0  0  0  0  0  0  0
   37.2910   29.2220   42.0070 C   0  0  0  0  0  0  0  0  0  0  0  0
   37.7900   30.4670   41.7790 N   0  0  0  0  0  0  0  0  0  0  0  0
   37.3780   31.2140   40.7140 C   0  0  0  0  0  0  0  0  0  0  0  0
   36.4500   30.7120   39.8610 N   0  0  0  0  0  0  0  0  0  0  0  0
   35.9250   27.7120   41.2970 H   0  0  0  0  0  0  0  0  0  0  0  0
   37.8150   32.1930   40.5920 H   0  0  0  0  0  0  0  0  0  0  0  0
   34.9280   28.9460   39.1460 C   0  0  0  0  0  0  0  0  0  0  0  0
   35.0060   29.6820   37.9710 F   0  0  0  0  0  0  0  0  0  0  0  0
   33.6950   29.1700   39.6960 F   0  0  0  0  0  0  0  0  0  0  0  0
   35.1650   27.6300   38.8420 F   0  0  0  0  0  0  0  0  0  0  0  0
   39.6490   24.9870   43.4170 C   0  0  2  0  0  3  0  0  0  0  0  0
   39.3010   26.3760   43.6800 C   0  0  1  0  0  3  0  0  0  0  0  0
   40.6110   27.1610   43.4980 C   0  0  0  0  0  3  0  0  0  0  0  0
   40.7800   27.8860   44.2950 H   0  0  0  0  0  0  0  0  0  0  0  0
   41.5680   26.1780   43.5240 O   0  0  0  0  0  0  0  0  0  0  0  0
   41.0310   25.1340   42.7500 C   0  0  0  0  0  3  0  0  0  0  0  0
   40.9670   25.4860   41.7200 H   0  0  0  0  0  0  0  0  0  0  0  0
   38.8060   24.1760   42.7330 O   0  0  0  0  0  0  0  0  0  0  0  0
   39.2880   23.7660   41.9490 H   0  0  0  0  0  0  0  0  0  0  0  0
  1  2  1  0  0  0  0
  1  4  1  1  0  0  0
  2  6  1  0  0  0  0
  3  7  1  6  0  0  0
  3  1  1  0  0  0  0
  3  2  1  0  0  0  0
  3 21  1  0  0  0  0
  5  2  1  0  0  0  0
  8  9  1  0  0  0  0
  9 14  1  0  0  0  0
  9 10  2  0  0  0  0
 10  1  1  0  0  0  0
 11 10  1  0  0  0  0
 12 11  2  0  0  0  0
 13  8  2  0  0  0  0
 13 12  1  0  0  0  0
 15 12  1  0  0  0  0
 16 18  1  0  0  0  0
 16  8  1  0  0  0  0
 17 16  1  0  0  0  0
 19 16  1  0  0  0  0
 20 27  1  6  0  0  0
 20 21  1  0  0  0  0
 21 22  1  6  0  0  0
 22 24  1  0  0  0  0
 22 23  1  0  0  0  0
 25 20  1  0  0  0  0
 25 24  1  0  0  0  0
 26 25  1  0  0  0  0
 28 27  1  0  0  0  0
M  END
>  <minimizedAffinity>
-5.40783834

$$$$

 OpenBabel03252501153D

 28 30  0  0  1  0  0  0  0  0999 V2000
   37.7540   28.4480   43.1950 C   0  0  1  0  0  0  0  0  0  0  0  0
   36.8070   27.3930   43.6800 C   0  0  0  0  0  0  0  0  0  0  0  0
   38.1160   27.0370   42.9950 C   0  0  2  0  0  0  0  0  0  0  0  0
   38.3600   29.0830   43.8450 H   0  0  0  0  0  0  0  0  0  0  0  0
   35.8610   27.2080   43.0830 H   0  0  0  0  0  0  0  0  0  0  0  0
   36.6280   27.2160   44.7330 H   0  0  0  0  0  0  0  0  0  0  0  0
   37.9840   26.6850   41.9250 H   0  0  0  0  0  0  0  0  0  0  0  0
   37.2580   31.0580   40.5380 C   0  0  0  0  0  0  0  0  0  0  0  0
   37.8480   30.4130   41.6320 C   0  0  0  0  0  0  0  0  0  0  0  0
   37.2310   29.2340   42.0270 C   0  0  0  0  0  0  0  0  0  0  0  0
   36.1330   28.7740   41.3680 N   0  0  0  0  0  0  0  0  0  0  0  0
   35.6040   29.4500   40.3070 C   0  0  0  0  0  0  0  0  0  0  0  0
   36.1820   30.6060   39.8930 N   0  0  0  0  0  0  0  0  0  0  0  0
   38.7040   30.8060   42.1140 H   0  0  0  0  0  0  0  0  0  0  0  0
   34.7330   29.0300   39.8300 H   0  0  0  0  0  0  0  0  0  0  0  0
   37.8990   32.3290   40.0710 C   0  0  0  0  0  0  0  0  0  0  0  0
   36.9110   33.0900   39.4600 F   0  0  0  0  0  0  0  0  0  0  0  0
   38.8280   32.0090   39.1170 F   0  0  0  0  0  0  0  0  0  0  0  0
   38.4100   33.0530   41.1170 F   0  0  0  0  0  0  0  0  0  0  0  0
   39.6070   24.9840   43.3060 C   0  0  2  0  0  3  0  0  0  0  0  0
   39.2390   26.3530   43.6380 C   0  0  1  0  0  3  0  0  0  0  0  0
   40.5400   27.1640   43.5030 C   0  0  0  0  0  3  0  0  0  0  0  0
   40.6960   27.8490   44.3360 H   0  0  0  0  0  0  0  0  0  0  0  0
   41.5090   26.1930   43.4820 O   0  0  0  0  0  0  0  0  0  0  0  0
   40.9890   25.1840   42.6520 C   0  0  0  0  0  3  0  0  0  0  0  0
   40.9240   25.5870   41.6420 H   0  0  0  0  0  0  0  0  0  0  0  0
   38.7770   24.1990   42.5780 O   0  0  0  0  0  0  0  0  0  0  0  0
   39.2670   23.8350   41.7750 H   0  0  0  0  0  0  0  0  0  0  0  0
  1  2  1  0  0  0  0
  1  4  1  1  0  0  0
  2  6  1  0  0  0  0
  3  7  1  6  0  0  0
  3  1  1  0  0  0  0
  3 21  1  0  0  0  0
  3  2  1  0  0  0  0
  5  2  1  0  0  0  0
  8  9  1  0  0  0  0
  9 10  2  0  0  0  0
  9 14  1  0  0  0  0
 10  1  1  0  0  0  0
 11 10  1  0  0  0  0
 12 11  2  0  0  0  0
 13 12  1  0  0  0  0
 13  8  2  0  0  0  0
 15 12  1  0  0  0  0
 16  8  1  0  0  0  0
 16 19  1  0  0  0  0
 17 16  1  0  0  0  0
 18 16  1  0  0  0  0
 20 27  1  6  0  0  0
 20 21  1  0  0  0  0
 21 22  1  6  0  0  0
 22 23  1  0  0  0  0
 24 22  1  0  0  0  0
 25 20  1  0  0  0  0
 25 24  1  0  0  0  0
 26 25  1  0  0  0  0
 28 27  1  0  0  0  0
M  END
>  <minimizedAffinity>
-5.38671589

$$$$

 OpenBabel03252501153D

 28 30  0  0  1  0  0  0  0  0999 V2000
   37.4520   29.3710   38.5060 C   0  0  1  0  0  0  0  0  0  0  0  0
   36.1590   29.9940   38.0780 C   0  0  0  0  0  0  0  0  0  0  0  0
   37.1550   30.7410   38.9490 C   0  0  2  0  0  0  0  0  0  0  0  0
   38.2980   29.1800   37.8420 H   0  0  0  0  0  0  0  0  0  0  0  0
   35.2050   29.6510   38.5860 H   0  0  0  0  0  0  0  0  0  0  0  0
   35.9600   30.2650   37.0470 H   0  0  0  0  0  0  0  0  0  0  0  0
   36.8420   30.8060   40.0370 H   0  0  0  0  0  0  0  0  0  0  0  0
   37.1270   27.3420   41.6520 C   0  0  0  0  0  0  0  0  0  0  0  0
   37.2850   28.4780   40.8480 C   0  0  0  0  0  0  0  0  0  0  0  0
   37.2800   28.2410   39.4820 C   0  0  0  0  0  0  0  0  0  0  0  0
   37.1290   26.9780   38.9990 N   0  0  0  0  0  0  0  0  0  0  0  0
   36.9800   25.9100   39.8360 C   0  0  0  0  0  0  0  0  0  0  0  0
   36.9790   26.1050   41.1790 N   0  0  0  0  0  0  0  0  0  0  0  0
   37.3980   29.4440   41.2670 H   0  0  0  0  0  0  0  0  0  0  0  0
   36.8650   24.9360   39.3860 H   0  0  0  0  0  0  0  0  0  0  0  0
   37.1150   27.5540   43.1360 C   0  0  0  0  0  0  0  0  0  0  0  0
   37.3680   28.9000   43.3630 F   0  0  0  0  0  0  0  0  0  0  0  0
   38.1500   26.8380   43.6740 F   0  0  0  0  0  0  0  0  0  0  0  0
   35.8930   27.2510   43.6800 F   0  0  0  0  0  0  0  0  0  0  0  0
   37.8460   33.1760   39.3090 C   0  0  2  0  0  3  0  0  0  0  0  0
   37.8910   31.9390   38.5410 C   0  0  1  0  0  3  0  0  0  0  0  0
   39.3880   31.6380   38.3510 C   0  0  0  0  0  3  0  0  0  0  0  0
   39.6310   31.3450   37.3290 H   0  0  0  0  0  0  0  0  0  0  0  0
   39.9870   32.8310   38.6700 O   0  0  0  0  0  0  0  0  0  0  0  0
   39.2990   33.2840   39.8100 C   0  0  0  0  0  3  0  0  0  0  0  0
   39.5170   32.5930   40.6240 H   0  0  0  0  0  0  0  0  0  0  0  0
   36.9250   33.3530   40.2870 O   0  0  0  0  0  0  0  0  0  0  0  0
   37.3860   33.5990   41.1490 H   0  0  0  0  0  0  0  0  0  0  0  0
  1  4  1  6  0  0  0
  1  3  1  0  0  0  0
  1 10  1  0  0  0  0
  2  1  1  0  0  0  0
  2  5  1  0  0  0  0
  2  3  1  0  0  0  0
  3  7  1  1  0  0  0
  6  2  1  0  0  0  0
  8 16  1  0  0  0  0
  9 14  1  0  0  0  0
  9  8  2  0  0  0  0
 10  9  1  0  0  0  0
 11 10  2  0  0  0  0
 11 12  1  0  0  0  0
 12 13  2  0  0  0  0
 13  8  1  0  0  0  0
 15 12  1  0  0  0  0
 16 17  1  0  0  0  0
 16 18  1  0  0  0  0
 16 19  1  0  0  0  0
 20 25  1  0  0  0  0
 20 27  1  1  0  0  0
 21 22  1  1  0  0  0
 21  3  1  0  0  0  0
 21 20  1  0  0  0  0
 22 24  1  0  0  0  0
 23 22  1  0  0  0  0
 24 25  1  0  0  0  0
 25 26  1  0  0  0  0
 27 28  1  0  0  0  0
M  END
>  <minimizedAffinity>
-5.29538202

$$$$

 OpenBabel03252501153D

 28 30  0  0  1  0  0  0  0  0999 V2000
   36.0970   29.6300   40.5230 C   0  0  1  0  0  0  0  0  0  0  0  0
   36.5490   31.0570   40.6010 C   0  0  0  0  0  0  0  0  0  0  0  0
   36.8870   30.1770   39.4090 C   0  0  2  0  0  0  0  0  0  0  0  0
   35.0640   29.3160   40.3610 H   0  0  0  0  0  0  0  0  0  0  0  0
   37.4070   31.3090   41.2990 H   0  0  0  0  0  0  0  0  0  0  0  0
   35.8560   31.8880   40.5420 H   0  0  0  0  0  0  0  0  0  0  0  0
   37.9630   29.8210   39.4020 H   0  0  0  0  0  0  0  0  0  0  0  0
   37.4960   26.6310   42.3020 C   0  0  0  0  0  0  0  0  0  0  0  0
   36.8500   27.3620   41.2970 C   0  0  0  0  0  0  0  0  0  0  0  0
   36.7750   28.7300   41.5170 C   0  0  0  0  0  0  0  0  0  0  0  0
   37.3060   29.2810   42.6430 N   0  0  0  0  0  0  0  0  0  0  0  0
   37.9230   28.5130   43.5870 C   0  0  0  0  0  0  0  0  0  0  0  0
   38.0150   27.1710   43.4050 N   0  0  0  0  0  0  0  0  0  0  0  0
   36.4530   26.8920   40.4360 H   0  0  0  0  0  0  0  0  0  0  0  0
   38.3210   29.0130   44.4550 H   0  0  0  0  0  0  0  0  0  0  0  0
   37.6100   25.1500   42.1010 C   0  0  0  0  0  0  0  0  0  0  0  0
   36.4300   24.5790   42.5590 F   0  0  0  0  0  0  0  0  0  0  0  0
   38.6290   24.6930   42.8920 F   0  0  0  0  0  0  0  0  0  0  0  0
   37.7540   24.8300   40.7760 F   0  0  0  0  0  0  0  0  0  0  0  0
   37.2900   30.5210   36.9090 C   0  0  2  0  0  3  0  0  0  0  0  0
   36.3930   30.3880   38.0470 C   0  0  1  0  0  3  0  0  0  0  0  0
   35.3880   29.2950   37.6410 C   0  0  0  0  0  3  0  0  0  0  0  0
   34.3580   29.5640   37.8770 H   0  0  0  0  0  0  0  0  0  0  0  0
   35.5670   29.1980   36.2840 O   0  0  0  0  0  0  0  0  0  0  0  0
   36.9600   29.2500   36.1020 C   0  0  0  0  0  3  0  0  0  0  0  0
   37.3850   28.3480   36.5420 H   0  0  0  0  0  0  0  0  0  0  0  0
   38.6190   30.7120   37.0900 O   0  0  0  0  0  0  0  0  0  0  0  0
   39.1380   30.0080   36.5870 H   0  0  0  0  0  0  0  0  0  0  0  0
  1  4  1  6  0  0  0
  1  2  1  0  0  0  0
  1 10  1  0  0  0  0
  2  5  1  0  0  0  0
  3  7  1  1  0  0  0
  3  1  1  0  0  0  0
  3  2  1  0  0  0  0
  6  2  1  0  0  0  0
  8 13  1  0  0  0  0
  9 10  1  0  0  0  0
  9  8  2  0  0  0  0
 10 11  2  0  0  0  0
 11 12  1  0  0  0  0
 12 15  1  0  0  0  0
 13 12  2  0  0  0  0
 14  9  1  0  0  0  0
 16  8  1  0  0  0  0
 16 17  1  0  0  0  0
 16 18  1  0  0  0  0
 19 16  1  0  0  0  0
 20 27  1  1  0  0  0
 20 21  1  0  0  0  0
 21 22  1  6  0  0  0
 21  3  1  0  0  0  0
 22 23  1  0  0  0  0
 24 22  1  0  0  0  0
 25 24  1  0  0  0  0
 25 26  1  0  0  0  0
 25 20  1  0  0  0  0
 28 27  1  0  0  0  0
M  END
>  <minimizedAffinity>
-5.25519943

$$$$

 OpenBabel03252501153D

 28 30  0  0  1  0  0  0  0  0999 V2000
   38.7400   29.6240   40.1970 C   0  0  1  0  0  0  0  0  0  0  0  0
   37.7740   29.7630   39.0610 C   0  0  0  0  0  0  0  0  0  0  0  0
   38.0810   30.9230   39.9930 C   0  0  2  0  0  0  0  0  0  0  0  0
   39.8220   29.5340   40.0830 H   0  0  0  0  0  0  0  0  0  0  0  0
   36.7490   29.2890   39.1680 H   0  0  0  0  0  0  0  0  0  0  0  0
   38.0920   29.7410   38.0250 H   0  0  0  0  0  0  0  0  0  0  0  0
   37.2540   31.1310   40.7400 H   0  0  0  0  0  0  0  0  0  0  0  0
   37.6200   26.6400   42.1870 C   0  0  0  0  0  0  0  0  0  0  0  0
   38.0970   27.3650   41.0870 C   0  0  0  0  0  0  0  0  0  0  0  0
   38.2480   28.7280   41.2980 C   0  0  0  0  0  0  0  0  0  0  0  0
   37.9440   29.2790   42.5050 N   0  0  0  0  0  0  0  0  0  0  0  0
   37.4820   28.5180   43.5380 C   0  0  0  0  0  0  0  0  0  0  0  0
   37.3220   27.1810   43.3680 N   0  0  0  0  0  0  0  0  0  0  0  0
   38.3230   26.8940   40.1670 H   0  0  0  0  0  0  0  0  0  0  0  0
   37.2600   29.0190   44.4670 H   0  0  0  0  0  0  0  0  0  0  0  0
   37.4520   25.1620   42.0070 C   0  0  0  0  0  0  0  0  0  0  0  0
   36.3150   24.7860   42.7090 F   0  0  0  0  0  0  0  0  0  0  0  0
   38.5240   24.5400   42.5870 F   0  0  0  0  0  0  0  0  0  0  0  0
   37.2690   24.8300   40.6890 F   0  0  0  0  0  0  0  0  0  0  0  0
   38.1140   33.4620   39.7010 C   0  0  2  0  0  3  0  0  0  0  0  0
   38.7560   32.1600   39.5960 C   0  0  1  0  0  3  0  0  0  0  0  0
   40.1050   32.3170   40.3200 C   0  0  0  0  0  3  0  0  0  0  0  0
   40.9340   31.8830   39.7610 H   0  0  0  0  0  0  0  0  0  0  0  0
   40.2460   33.6790   40.4200 O   0  0  0  0  0  0  0  0  0  0  0  0
   38.9700   34.1460   40.7840 C   0  0  0  0  0  3  0  0  0  0  0  0
   38.7570   33.7760   41.7870 H   0  0  0  0  0  0  0  0  0  0  0  0
   36.7810   33.5630   39.9260 O   0  0  0  0  0  0  0  0  0  0  0  0
   36.6150   34.1410   40.7350 H   0  0  0  0  0  0  0  0  0  0  0  0
  1  4  1  6  0  0  0
  1 10  1  0  0  0  0
  2  5  1  0  0  0  0
  2  3  1  0  0  0  0
  2  1  1  0  0  0  0
  3  1  1  0  0  0  0
  3  7  1  1  0  0  0
  6  2  1  0  0  0  0
  8 13  1  0  0  0  0
  9 10  1  0  0  0  0
  9  8  2  0  0  0  0
 10 11  2  0  0  0  0
 11 12  1  0  0  0  0
 12 15  1  0  0  0  0
 13 12  2  0  0  0  0
 14  9  1  0  0  0  0
 16  8  1  0  0  0  0
 16 18  1  0  0  0  0
 16 17  1  0  0  0  0
 19 16  1  0  0  0  0
 20 27  1  1  0  0  0
 20 25  1  0  0  0  0
 21 20  1  0  0  0  0
 21  3  1  0  0  0  0
 21 22  1  1  0  0  0
 22 24  1  0  0  0  0
 23 22  1  0  0  0  0
 24 25  1  0  0  0  0
 25 26  1  0  0  0  0
 27 28  1  0  0  0  0
M  END
>  <minimizedAffinity>
-5.20325279

$$$$

 OpenBabel03252501153D

 28 30  0  0  1  0  0  0  0  0999 V2000
   37.9800   27.5280   43.0190 C   0  0  1  0  0  0  0  0  0  0  0  0
   36.5350   27.3620   43.3750 C   0  0  0  0  0  0  0  0  0  0  0  0
   37.1590   26.6170   42.2080 C   0  0  2  0  0  0  0  0  0  0  0  0
   38.8130   27.1390   43.6090 H   0  0  0  0  0  0  0  0  0  0  0  0
   35.8180   28.2010   43.1110 H   0  0  0  0  0  0  0  0  0  0  0  0
   36.2150   26.8680   44.2850 H   0  0  0  0  0  0  0  0  0  0  0  0
   36.8760   27.0450   41.1970 H   0  0  0  0  0  0  0  0  0  0  0  0
   37.8950   30.7650   41.1130 C   0  0  0  0  0  0  0  0  0  0  0  0
   37.4710   29.5070   41.5580 C   0  0  0  0  0  0  0  0  0  0  0  0
   38.3120   28.8870   42.4700 C   0  0  0  0  0  0  0  0  0  0  0  0
   39.4580   29.4960   42.8790 N   0  0  0  0  0  0  0  0  0  0  0  0
   39.8180   30.7250   42.4070 C   0  0  0  0  0  0  0  0  0  0  0  0
   39.0190   31.3610   41.5140 N   0  0  0  0  0  0  0  0  0  0  0  0
   36.5690   29.0710   41.2140 H   0  0  0  0  0  0  0  0  0  0  0  0
   40.7400   31.1490   42.7720 H   0  0  0  0  0  0  0  0  0  0  0  0
   37.0110   31.4760   40.1340 C   0  0  0  0  0  0  0  0  0  0  0  0
   35.7110   31.0460   40.3640 F   0  0  0  0  0  0  0  0  0  0  0  0
   37.3660   31.0750   38.8750 F   0  0  0  0  0  0  0  0  0  0  0  0
   37.0490   32.8350   40.3120 F   0  0  0  0  0  0  0  0  0  0  0  0
   36.9710   24.4000   40.9500 C   0  0  2  0  0  3  0  0  0  0  0  0
   37.3300   25.1650   42.1360 C   0  0  1  0  0  3  0  0  0  0  0  0
   38.7770   24.7540   42.4570 C   0  0  0  0  0  3  0  0  0  0  0  0
   38.9310   24.5520   43.5170 H   0  0  0  0  0  0  0  0  0  0  0  0
   38.9480   23.6130   41.7130 O   0  0  0  0  0  0  0  0  0  0  0  0
   38.3480   23.9000   40.4740 C   0  0  0  0  0  3  0  0  0  0  0  0
   38.9380   24.6800   39.9940 H   0  0  0  0  0  0  0  0  0  0  0  0
   36.2300   24.9570   39.9620 O   0  0  0  0  0  0  0  0  0  0  0  0
   36.7100   24.8620   39.0800 H   0  0  0  0  0  0  0  0  0  0  0  0
  1  2  1  0  0  0  0
  1  4  1  1  0  0  0
  2  6  1  0  0  0  0
  3  7  1  6  0  0  0
  3  1  1  0  0  0  0
  3  2  1  0  0  0  0
  5  2  1  0  0  0  0
  8 13  2  0  0  0  0
  8  9  1  0  0  0  0
  9 10  2  0  0  0  0
 10 11  1  0  0  0  0
 10  1  1  0  0  0  0
 12 15  1  0  0  0  0
 12 11  2  0  0  0  0
 13 12  1  0  0  0  0
 14  9  1  0  0  0  0
 16 19  1  0  0  0  0
 16 17  1  0  0  0  0
 16  8  1  0  0  0  0
 18 16  1  0  0  0  0
 20 27  1  6  0  0  0
 20 21  1  0  0  0  0
 21  3  1  0  0  0  0
 21 22  1  6  0  0  0
 22 23  1  0  0  0  0
 24 22  1  0  0  0  0
 25 20  1  0  0  0  0
 25 24  1  0  0  0  0
 26 25  1  0  0  0  0
 28 27  1  0  0  0  0
M  END
>  <minimizedAffinity>
-5.20101166

$$$$

 OpenBabel03252501153D

 28 30  0  0  1  0  0  0  0  0999 V2000
   36.2080   28.5370   39.5260 C   0  0  1  0  0  0  0  0  0  0  0  0
   35.0480   29.3620   39.9930 C   0  0  0  0  0  0  0  0  0  0  0  0
   36.4350   29.9600   39.8220 C   0  0  2  0  0  0  0  0  0  0  0  0
   36.3320   28.1610   38.5090 H   0  0  0  0  0  0  0  0  0  0  0  0
   34.6890   29.2250   41.0600 H   0  0  0  0  0  0  0  0  0  0  0  0
   34.2170   29.6110   39.3450 H   0  0  0  0  0  0  0  0  0  0  0  0
   36.9740   30.1360   40.8030 H   0  0  0  0  0  0  0  0  0  0  0  0
   37.5490   25.4180   41.1380 C   0  0  0  0  0  0  0  0  0  0  0  0
   37.1790   26.2940   40.1090 C   0  0  0  0  0  0  0  0  0  0  0  0
   36.6560   27.5090   40.5270 C   0  0  0  0  0  0  0  0  0  0  0  0
   36.5300   27.7900   41.8530 N   0  0  0  0  0  0  0  0  0  0  0  0
   36.9090   26.8920   42.8090 C   0  0  0  0  0  0  0  0  0  0  0  0
   37.4250   25.6930   42.4360 N   0  0  0  0  0  0  0  0  0  0  0  0
   37.2960   26.0360   39.0900 H   0  0  0  0  0  0  0  0  0  0  0  0
   36.7810   27.1780   43.8410 H   0  0  0  0  0  0  0  0  0  0  0  0
   38.1290   24.0980   40.7320 C   0  0  0  0  0  0  0  0  0  0  0  0
   39.4650   24.1000   41.1100 F   0  0  0  0  0  0  0  0  0  0  0  0
   38.0830   24.0170   39.3660 F   0  0  0  0  0  0  0  0  0  0  0  0
   37.5070   23.0540   41.3670 F   0  0  0  0  0  0  0  0  0  0  0  0
   37.1300   32.3440   39.2170 C   0  0  2  0  0  3  0  0  0  0  0  0
   36.7900   30.9810   38.8340 C   0  0  1  0  0  3  0  0  0  0  0  0
   37.9510   30.5130   37.9390 C   0  0  0  0  0  3  0  0  0  0  0  0
   37.6070   30.0030   37.0390 H   0  0  0  0  0  0  0  0  0  0  0  0
   38.5880   31.6860   37.6190 O   0  0  0  0  0  0  0  0  0  0  0  0
   38.6170   32.4170   38.8210 C   0  0  0  0  0  3  0  0  0  0  0  0
   39.2660   31.8850   39.5150 H   0  0  0  0  0  0  0  0  0  0  0  0
   36.8850   32.7950   40.4710 O   0  0  0  0  0  0  0  0  0  0  0  0
   37.7330   33.1650   40.8720 H   0  0  0  0  0  0  0  0  0  0  0  0
  1  4  1  6  0  0  0
  1  3  1  0  0  0  0
  1  2  1  0  0  0  0
  1 10  1  0  0  0  0
  2  5  1  0  0  0  0
  3  2  1  0  0  0  0
  3  7  1  1  0  0  0
  6  2  1  0  0  0  0
  8 13  1  0  0  0  0
  9 10  1  0  0  0  0
  9  8  2  0  0  0  0
 10 11  2  0  0  0  0
 11 12  1  0  0  0  0
 12 15  1  0  0  0  0
 13 12  2  0  0  0  0
 14  9  1  0  0  0  0
 16 17  1  0  0  0  0
 16  8  1  0  0  0  0
 16 19  1  0  0  0  0
 18 16  1  0  0  0  0
 20 27  1  1  0  0  0
 21 22  1  1  0  0  0
 21 20  1  0  0  0  0
 21  3  1  0  0  0  0
 23 22  1  0  0  0  0
 24 22  1  0  0  0  0
 24 25  1  0  0  0  0
 25 20  1  0  0  0  0
 25 26  1  0  0  0  0
 27 28  1  0  0  0  0
M  END
>  <minimizedAffinity>
-5.1380024

$$$$

 OpenBabel03252501153D

 28 30  0  0  1  0  0  0  0  0999 V2000
   40.2310   29.1970   41.3800 C   0  0  1  0  0  0  0  0  0  0  0  0
   41.0460   29.4280   42.6160 C   0  0  0  0  0  0  0  0  0  0  0  0
   39.5590   29.1220   42.6860 C   0  0  2  0  0  0  0  0  0  0  0  0
   40.3030   28.3090   40.7470 H   0  0  0  0  0  0  0  0  0  0  0  0
   41.3520   30.4920   42.8640 H   0  0  0  0  0  0  0  0  0  0  0  0
   41.8060   28.7310   42.9470 H   0  0  0  0  0  0  0  0  0  0  0  0
   38.9220   30.0300   42.9180 H   0  0  0  0  0  0  0  0  0  0  0  0
   38.7420   32.0350   39.4180 C   0  0  0  0  0  0  0  0  0  0  0  0
   38.7790   30.8820   40.2140 C   0  0  0  0  0  0  0  0  0  0  0  0
   40.0490   30.4300   40.5410 C   0  0  0  0  0  0  0  0  0  0  0  0
   41.1540   31.0910   40.1000 N   0  0  0  0  0  0  0  0  0  0  0  0
   41.0520   32.2100   39.3260 C   0  0  0  0  0  0  0  0  0  0  0  0
   39.8250   32.6810   38.9860 N   0  0  0  0  0  0  0  0  0  0  0  0
   37.8930   30.4010   40.5360 H   0  0  0  0  0  0  0  0  0  0  0  0
   41.9680   32.6840   39.0100 H   0  0  0  0  0  0  0  0  0  0  0  0
   37.3900   32.5650   39.0500 C   0  0  0  0  0  0  0  0  0  0  0  0
   37.3540   33.9010   39.4260 F   0  0  0  0  0  0  0  0  0  0  0  0
   36.4560   31.8970   39.7940 F   0  0  0  0  0  0  0  0  0  0  0  0
   37.1700   32.4960   37.6980 F   0  0  0  0  0  0  0  0  0  0  0  0
   37.5710   27.8160   43.6210 C   0  0  2  0  0  3  0  0  0  0  0  0
   38.9810   27.9100   43.2690 C   0  0  1  0  0  3  0  0  0  0  0  0
   39.2590   26.6780   42.3910 C   0  0  0  0  0  3  0  0  0  0  0  0
   40.1830   26.1670   42.6660 H   0  0  0  0  0  0  0  0  0  0  0  0
   38.1710   25.8760   42.6280 O   0  0  0  0  0  0  0  0  0  0  0  0
   37.0710   26.7530   42.6230 C   0  0  0  0  0  3  0  0  0  0  0  0
   36.9630   27.1420   41.6110 H   0  0  0  0  0  0  0  0  0  0  0  0
   36.7900   28.9230   43.6630 O   0  0  0  0  0  0  0  0  0  0  0  0
   35.9810   28.7930   43.0740 H   0  0  0  0  0  0  0  0  0  0  0  0
  1  4  1  6  0  0  0
  1  2  1  0  0  0  0
  1  3  1  0  0  0  0
  2  3  1  0  0  0  0
  2  5  1  0  0  0  0
  2  6  1  0  0  0  0
  3  7  1  1  0  0  0
  3 21  1  0  0  0  0
  8  9  1  0  0  0  0
  9 14  1  0  0  0  0
  9 10  2  0  0  0  0
 10  1  1  0  0  0  0
 11 10  1  0  0  0  0
 12 11  2  0  0  0  0
 13 12  1  0  0  0  0
 13  8  2  0  0  0  0
 15 12  1  0  0  0  0
 16  8  1  0  0  0  0
 16 17  1  0  0  0  0
 16 18  1  0  0  0  0
 19 16  1  0  0  0  0
 20 27  1  6  0  0  0
 21 22  1  6  0  0  0
 21 20  1  0  0  0  0
 22 24  1  0  0  0  0
 22 23  1  0  0  0  0
 25 24  1  0  0  0  0
 25 20  1  0  0  0  0
 26 25  1  0  0  0  0
 28 27  1  0  0  0  0
M  END
>  <minimizedAffinity>
-5.11135101

$$$$
