
 OpenBabel03252504183D

 38 40  0  0  1  0  0  0  0  0999 V2000
   47.2520   29.7320   45.0630 F   0  0  0  0  0  0  0  0  0  0  0  0
   47.3230   30.5330   46.1770 C   0  0  0  0  0  0  0  0  0  0  0  0
   46.9740   31.8480   46.0960 C   0  0  0  0  0  0  0  0  0  0  0  0
   47.0780   32.5790   47.2750 C   0  0  0  0  0  0  0  0  0  0  0  0
   47.5060   32.0030   48.4400 C   0  0  0  0  0  0  0  0  0  0  0  0
   47.8450   30.6670   48.4580 C   0  0  0  0  0  0  0  0  0  0  0  0
   47.7590   29.8840   47.3010 C   0  0  0  0  0  0  0  0  0  0  0  0
   46.8130   33.6280   47.2580 H   0  0  0  0  0  0  0  0  0  0  0  0
   47.5720   32.6130   49.3330 H   0  0  0  0  0  0  0  0  0  0  0  0
   48.1860   30.1950   49.3780 H   0  0  0  0  0  0  0  0  0  0  0  0
   46.8600   34.0440   43.1820 C   0  0  0  0  0  0  0  0  0  0  0  0
   45.7120   33.6440   42.5020 C   0  0  0  0  0  0  0  0  0  0  0  0
   44.9670   32.5960   43.0690 C   0  0  0  0  0  0  0  0  0  0  0  0
   45.3810   32.0280   44.2220 N   0  0  0  0  0  0  0  0  0  0  0  0
   46.5110   32.4530   44.8460 C   0  0  0  0  0  0  0  0  0  0  0  0
   47.2340   33.4510   44.3240 N   0  0  0  0  0  0  0  0  0  0  0  0
   44.0650   32.2620   42.5650 H   0  0  0  0  0  0  0  0  0  0  0  0
   45.3360   34.3160   41.2580 C   0  0  0  0  0  0  0  0  0  0  0  0
   45.1340   35.6650   41.4780 F   0  0  0  0  0  0  0  0  0  0  0  0
   46.4030   34.2020   40.3700 F   0  0  0  0  0  0  0  0  0  0  0  0
   44.2340   33.8180   40.6420 F   0  0  0  0  0  0  0  0  0  0  0  0
   47.5830   35.0530   42.6430 O   0  0  0  0  0  0  0  0  0  0  0  0
   48.8710   34.9560   42.0640 C   0  0  0  0  0  0  0  0  0  0  0  0
   49.7970   35.2900   43.0540 F   0  0  0  0  0  0  0  0  0  0  0  0
   49.0630   33.7060   41.5580 F   0  0  0  0  0  0  0  0  0  0  0  0
   49.0120   35.9370   41.1030 F   0  0  0  0  0  0  0  0  0  0  0  0
   48.1150   28.4260   47.3100 C   0  0  0  0  0  0  0  0  0  0  0  0
   47.9370   27.9560   46.3240 H   0  0  0  0  0  0  0  0  0  0  0  0
   47.4710   27.9720   48.0870 H   0  0  0  0  0  0  0  0  0  0  0  0
   51.4930   29.4910   48.0810 C   0  0  2  0  0  0  0  0  0  0  0  0
   50.4150   29.2280   47.0220 C   0  0  0  0  0  0  0  0  0  0  0  0
   49.8540   30.1380   46.8110 H   0  0  0  0  0  0  0  0  0  0  0  0
   49.5350   28.1910   47.6900 C   0  0  1  0  0  0  0  0  0  0  0  0
   49.8000   28.3670   49.0330 O   0  0  0  0  0  0  0  0  0  0  0  0
   51.2100   28.3260   49.0390 C   0  0  0  0  0  0  0  0  0  0  0  0
   51.5020   27.4160   48.4840 H   0  0  0  0  0  0  0  0  0  0  0  0
   51.2120   30.6840   48.7570 O   0  0  0  0  0  0  0  0  0  0  0  0
   51.4270   30.4900   49.7230 H   0  0  0  0  0  0  0  0  0  0  0  0
  1  2  1  0  0  0  0
  2  7  1  0  0  0  0
  3  2  2  0  0  0  0
  3  4  1  0  0  0  0
  4  5  2  0  0  0  0
  5  6  1  0  0  0  0
  5  9  1  0  0  0  0
  6 10  1  0  0  0  0
  7 27  1  0  0  0  0
  7  6  2  0  0  0  0
  8  4  1  0  0  0  0
 11 16  1  0  0  0  0
 12 13  1  0  0  0  0
 12 11  2  0  0  0  0
 13 14  2  0  0  0  0
 14 15  1  0  0  0  0
 15  3  1  0  0  0  0
 16 15  2  0  0  0  0
 17 13  1  0  0  0  0
 18 19  1  0  0  0  0
 18 12  1  0  0  0  0
 20 18  1  0  0  0  0
 21 18  1  0  0  0  0
 22 11  1  0  0  0  0
 23 22  1  0  0  0  0
 23 24  1  0  0  0  0
 25 23  1  0  0  0  0
 26 23  1  0  0  0  0
 27 29  1  0  0  0  0
 28 27  1  0  0  0  0
 30 37  1  1  0  0  0
 30 35  1  0  0  0  0
 31 33  1  0  0  0  0
 31 30  1  0  0  0  0
 32 31  1  0  0  0  0
 33 27  1  1  0  0  0
 33 34  1  0  0  0  0
 34 35  1  0  0  0  0
 36 35  1  0  0  0  0
 37 38  1  0  0  0  0
M  END
>  <minimizedAffinity>
-5.57154036

>  <minimizedRMSD>
1.02562404

$$$$
