
 OpenBabel03242511313D

 23 24  0  0  1  0  0  0  0  0999 V2000
   34.5280   28.2910   37.7010 C   0  0  0  0  0  0  0  0  0  0  0  0
   35.0450   28.5400   36.7570 H   0  0  0  0  0  0  0  0  0  0  0  0
   34.2030   27.2120   37.7210 H   0  0  0  0  0  0  0  0  0  0  0  0
   36.0380   29.9270   40.5560 C   0  0  1  0  0  3  0  0  0  0  0  0
   34.8930   29.0180   40.0860 C   0  0  0  0  0  3  0  0  0  0  0  0
   34.5810   28.3090   40.8620 H   0  0  0  0  0  0  0  0  0  0  0  0
   35.5080   28.4150   38.8700 C   0  0  2  0  0  3  0  0  0  0  0  0
   36.6300   29.1200   38.5260 O   0  0  0  0  0  0  0  0  0  0  0  0
   36.6610   30.2970   39.2320 C   0  0  0  0  0  3  0  0  0  0  0  0
   37.7050   30.6570   39.3550 H   0  0  0  0  0  0  0  0  0  0  0  0
   35.5150   31.0330   41.2240 O   0  0  0  0  0  0  0  0  0  0  0  0
   36.1770   31.7620   41.2560 H   0  0  0  0  0  0  0  0  0  0  0  0
   32.4320   29.3470   36.9910 C   0  0  0  0  0  3  0  0  0  0  0  0
   33.3010   29.0760   37.9480 C   0  0  0  0  0  3  0  0  0  0  0  0
   31.2450   30.1290   37.3160 C   0  0  0  0  0  0  0  0  0  0  0  0
   30.8280   31.0810   36.3650 C   0  0  0  0  0  0  0  0  0  0  0  0
   29.6890   31.8570   36.6370 C   0  0  0  0  0  0  0  0  0  0  0  0
   29.0460   31.6410   37.8180 N   0  0  0  0  0  0  0  0  0  0  0  0
   29.4780   30.7180   38.7030 C   0  0  0  0  0  0  0  0  0  0  0  0
   30.5590   29.9830   38.4440 N   0  0  0  0  0  0  0  0  0  0  0  0
   31.3830   31.2110   35.4350 H   0  0  0  0  0  0  0  0  0  0  0  0
   29.3480   32.5950   35.9240 H   0  0  0  0  0  0  0  0  0  0  0  0
   28.9760   30.5430   39.6350 H   0  0  0  0  0  0  0  0  0  0  0  0
  1  3  1  0  0  0  0
  1 14  1  0  0  0  0
  2  1  1  0  0  0  0
  4 11  1  6  0  0  0
  5  4  1  0  0  0  0
  5  6  1  0  0  0  0
  7  1  1  6  0  0  0
  7  5  1  0  0  0  0
  8  7  1  0  0  0  0
  8  9  1  0  0  0  0
  9 10  1  0  0  0  0
  9  4  1  0  0  0  0
 11 12  1  0  0  0  0
 13 15  1  0  0  0  0
 13 14  2  0  0  0  0
 15 20  1  0  0  0  0
 16 17  1  0  0  0  0
 16 15  2  0  0  0  0
 17 18  2  0  0  0  0
 18 19  1  0  0  0  0
 19 23  1  0  0  0  0
 20 19  2  0  0  0  0
 21 16  1  0  0  0  0
 22 17  1  0  0  0  0
M  END
>  <minimizedAffinity>
-4.41072798

$$$$

 OpenBabel03242511313D

 23 24  0  0  1  0  0  0  0  0999 V2000
   39.4310   30.7620   42.4230 C   0  0  0  0  0  0  0  0  0  0  0  0
   40.2640   31.2300   42.9790 H   0  0  0  0  0  0  0  0  0  0  0  0
   38.4350   31.0040   42.8920 H   0  0  0  0  0  0  0  0  0  0  0  0
   37.9410   32.7540   39.7930 C   0  0  1  0  0  3  0  0  0  0  0  0
   38.8630   32.7770   41.0200 C   0  0  0  0  0  3  0  0  0  0  0  0
   39.6400   33.5460   40.9410 H   0  0  0  0  0  0  0  0  0  0  0  0
   39.3480   31.3680   41.0200 C   0  0  2  0  0  3  0  0  0  0  0  0
   38.5710   30.6150   40.1810 O   0  0  0  0  0  0  0  0  0  0  0  0
   37.4480   31.3280   39.8410 C   0  0  0  0  0  3  0  0  0  0  0  0
   37.0520   30.9960   38.8580 H   0  0  0  0  0  0  0  0  0  0  0  0
   36.9110   33.6770   39.9640 O   0  0  0  0  0  0  0  0  0  0  0  0
   36.1570   33.4690   39.3640 H   0  0  0  0  0  0  0  0  0  0  0  0
   38.7370   28.5190   43.1300 C   0  0  0  0  0  3  0  0  0  0  0  0
   39.4910   29.2870   42.3640 C   0  0  0  0  0  3  0  0  0  0  0  0
   38.8560   27.0710   43.0120 C   0  0  0  0  0  0  0  0  0  0  0  0
   39.9450   26.4640   43.6670 C   0  0  0  0  0  0  0  0  0  0  0  0
   40.0980   25.0710   43.5800 C   0  0  0  0  0  0  0  0  0  0  0  0
   39.1740   24.3790   42.8580 N   0  0  0  0  0  0  0  0  0  0  0  0
   38.1440   24.9980   42.2440 C   0  0  0  0  0  0  0  0  0  0  0  0
   38.0000   26.3200   42.3280 N   0  0  0  0  0  0  0  0  0  0  0  0
   40.6560   27.0700   44.2320 H   0  0  0  0  0  0  0  0  0  0  0  0
   40.9260   24.5800   44.0740 H   0  0  0  0  0  0  0  0  0  0  0  0
   37.4120   24.4580   41.6740 H   0  0  0  0  0  0  0  0  0  0  0  0
  1  3  1  0  0  0  0
  1  2  1  0  0  0  0
  4  9  1  0  0  0  0
  4 11  1  1  0  0  0
  4  5  1  0  0  0  0
  5  7  1  0  0  0  0
  6  5  1  0  0  0  0
  7  1  1  1  0  0  0
  8  7  1  0  0  0  0
  9  8  1  0  0  0  0
 10  9  1  0  0  0  0
 12 11  1  0  0  0  0
 14  1  1  0  0  0  0
 14 13  2  0  0  0  0
 15 13  1  0  0  0  0
 15 16  1  0  0  0  0
 16 21  1  0  0  0  0
 17 16  2  0  0  0  0
 17 22  1  0  0  0  0
 18 17  1  0  0  0  0
 19 20  1  0  0  0  0
 19 18  2  0  0  0  0
 20 15  2  0  0  0  0
 23 19  1  0  0  0  0
M  END
>  <minimizedAffinity>
-4.37653065

$$$$

 OpenBabel03242511313D

 23 24  0  0  1  0  0  0  0  0999 V2000
   38.2730   28.2460   43.3660 C   0  0  0  0  0  0  0  0  0  0  0  0
   37.2330   27.9220   43.5510 H   0  0  0  0  0  0  0  0  0  0  0  0
   38.8640   28.3030   44.3230 H   0  0  0  0  0  0  0  0  0  0  0  0
   39.0690   24.8720   42.3240 C   0  0  1  0  0  3  0  0  0  0  0  0
   38.1150   26.0570   42.1260 C   0  0  0  0  0  3  0  0  0  0  0  0
   37.7210   26.1070   41.1050 H   0  0  0  0  0  0  0  0  0  0  0  0
   38.9980   27.1860   42.5320 C   0  0  2  0  0  3  0  0  0  0  0  0
   40.1030   26.6960   43.1760 O   0  0  0  0  0  0  0  0  0  0  0  0
   39.9010   25.3730   43.4800 C   0  0  0  0  0  3  0  0  0  0  0  0
   40.8690   24.8330   43.5560 H   0  0  0  0  0  0  0  0  0  0  0  0
   38.3380   23.7310   42.6520 O   0  0  0  0  0  0  0  0  0  0  0  0
   38.9190   23.0590   43.0800 H   0  0  0  0  0  0  0  0  0  0  0  0
   37.9030   29.8550   41.5530 C   0  0  0  0  0  3  0  0  0  0  0  0
   38.3930   29.5830   42.7490 C   0  0  0  0  0  3  0  0  0  0  0  0
   38.0630   31.1990   41.0130 C   0  0  0  0  0  0  0  0  0  0  0  0
   37.0630   31.6570   40.1320 C   0  0  0  0  0  0  0  0  0  0  0  0
   37.1780   32.9470   39.5880 C   0  0  0  0  0  0  0  0  0  0  0  0
   38.2620   33.6890   39.9480 N   0  0  0  0  0  0  0  0  0  0  0  0
   39.1990   33.2130   40.7940 C   0  0  0  0  0  0  0  0  0  0  0  0
   39.0890   31.9890   41.3100 N   0  0  0  0  0  0  0  0  0  0  0  0
   36.2160   31.0180   39.8800 H   0  0  0  0  0  0  0  0  0  0  0  0
   36.4240   33.3220   38.9100 H   0  0  0  0  0  0  0  0  0  0  0  0
   40.0550   33.7930   41.0810 H   0  0  0  0  0  0  0  0  0  0  0  0
  1  2  1  0  0  0  0
  1  3  1  0  0  0  0
  4 11  1  1  0  0  0
  4  9  1  0  0  0  0
  5  4  1  0  0  0  0
  5  7  1  0  0  0  0
  6  5  1  0  0  0  0
  7  8  1  0  0  0  0
  7  1  1  1  0  0  0
  8  9  1  0  0  0  0
  9 10  1  0  0  0  0
 11 12  1  0  0  0  0
 13 14  2  0  0  0  0
 14  1  1  0  0  0  0
 15 20  1  0  0  0  0
 15 13  1  0  0  0  0
 16 15  2  0  0  0  0
 17 18  2  0  0  0  0
 17 16  1  0  0  0  0
 18 19  1  0  0  0  0
 19 23  1  0  0  0  0
 19 20  2  0  0  0  0
 21 16  1  0  0  0  0
 22 17  1  0  0  0  0
M  END
>  <minimizedAffinity>
-4.36299801

$$$$

 OpenBabel03242511313D

 23 24  0  0  1  0  0  0  0  0999 V2000
   39.3580   33.4750   39.7300 C   0  0  0  0  0  0  0  0  0  0  0  0
   39.3840   34.0970   40.6440 H   0  0  0  0  0  0  0  0  0  0  0  0
   39.0090   34.0680   38.8380 H   0  0  0  0  0  0  0  0  0  0  0  0
   42.3100   33.3320   37.6410 C   0  0  1  0  0  3  0  0  0  0  0  0
   41.5780   34.1260   38.7300 C   0  0  0  0  0  3  0  0  0  0  0  0
   42.2700   34.6570   39.3940 H   0  0  0  0  0  0  0  0  0  0  0  0
   40.7800   33.0410   39.3660 C   0  0  2  0  0  3  0  0  0  0  0  0
   40.7870   31.9330   38.5600 O   0  0  0  0  0  0  0  0  0  0  0  0
   41.2810   32.2750   37.3250 C   0  0  0  0  0  3  0  0  0  0  0  0
   41.7350   31.3940   36.8240 H   0  0  0  0  0  0  0  0  0  0  0  0
   42.5700   34.1610   36.5510 O   0  0  0  0  0  0  0  0  0  0  0  0
   42.7460   33.6250   35.7420 H   0  0  0  0  0  0  0  0  0  0  0  0
   37.4820   32.1120   38.9330 C   0  0  0  0  0  3  0  0  0  0  0  0
   38.4500   32.3130   39.8100 C   0  0  0  0  0  3  0  0  0  0  0  0
   36.6270   30.9410   39.0810 C   0  0  0  0  0  0  0  0  0  0  0  0
   36.1970   30.6250   40.3850 C   0  0  0  0  0  0  0  0  0  0  0  0
   35.3720   29.5050   40.5730 C   0  0  0  0  0  0  0  0  0  0  0  0
   35.0300   28.7800   39.4720 N   0  0  0  0  0  0  0  0  0  0  0  0
   35.4640   29.1150   38.2390 C   0  0  0  0  0  0  0  0  0  0  0  0
   36.2470   30.1790   38.0610 N   0  0  0  0  0  0  0  0  0  0  0  0
   36.5030   31.2430   41.2300 H   0  0  0  0  0  0  0  0  0  0  0  0
   35.0280   29.2400   41.5650 H   0  0  0  0  0  0  0  0  0  0  0  0
   35.1990   28.5480   37.3680 H   0  0  0  0  0  0  0  0  0  0  0  0
  1 14  1  0  0  0  0
  1  2  1  0  0  0  0
  3  1  1  0  0  0  0
  4 11  1  6  0  0  0
  4  5  1  0  0  0  0
  5  7  1  0  0  0  0
  5  6  1  0  0  0  0
  7  1  1  6  0  0  0
  8  7  1  0  0  0  0
  9  4  1  0  0  0  0
  9  8  1  0  0  0  0
 10  9  1  0  0  0  0
 12 11  1  0  0  0  0
 13 15  1  0  0  0  0
 13 14  2  0  0  0  0
 15 16  1  0  0  0  0
 16 17  2  0  0  0  0
 16 21  1  0  0  0  0
 17 22  1  0  0  0  0
 18 17  1  0  0  0  0
 19 18  2  0  0  0  0
 20 19  1  0  0  0  0
 20 15  2  0  0  0  0
 23 19  1  0  0  0  0
M  END
>  <minimizedAffinity>
-4.31585407

$$$$

 OpenBabel03242511313D

 23 24  0  0  1  0  0  0  0  0999 V2000
   36.1620   28.3650   41.4920 C   0  0  0  0  0  0  0  0  0  0  0  0
   36.2290   27.7780   40.5570 H   0  0  0  0  0  0  0  0  0  0  0  0
   35.0900   28.5380   41.7930 H   0  0  0  0  0  0  0  0  0  0  0  0
   38.8380   27.1170   43.5850 C   0  0  1  0  0  3  0  0  0  0  0  0
   37.8550   28.2730   43.3560 C   0  0  0  0  0  3  0  0  0  0  0  0
   37.5710   28.7690   44.2920 H   0  0  0  0  0  0  0  0  0  0  0  0
   36.7570   27.5570   42.6480 C   0  0  2  0  0  3  0  0  0  0  0  0
   37.1990   26.3270   42.2400 O   0  0  0  0  0  0  0  0  0  0  0  0
   38.5650   26.2720   42.3650 C   0  0  0  0  0  3  0  0  0  0  0  0
   38.9070   25.2240   42.5050 H   0  0  0  0  0  0  0  0  0  0  0  0
   40.1430   27.6090   43.6090 O   0  0  0  0  0  0  0  0  0  0  0  0
   40.7890   26.8840   43.4410 H   0  0  0  0  0  0  0  0  0  0  0  0
   37.3410   30.1600   40.3090 C   0  0  0  0  0  3  0  0  0  0  0  0
   36.7700   29.7080   41.4120 C   0  0  0  0  0  3  0  0  0  0  0  0
   37.9200   31.4970   40.3110 C   0  0  0  0  0  0  0  0  0  0  0  0
   37.1310   32.5360   39.7790 C   0  0  0  0  0  0  0  0  0  0  0  0
   37.6500   33.8410   39.7610 C   0  0  0  0  0  0  0  0  0  0  0  0
   38.9010   34.0290   40.2650 N   0  0  0  0  0  0  0  0  0  0  0  0
   39.6260   33.0070   40.7650 C   0  0  0  0  0  0  0  0  0  0  0  0
   39.1330   31.7690   40.7810 N   0  0  0  0  0  0  0  0  0  0  0  0
   36.1340   32.3260   39.3900 H   0  0  0  0  0  0  0  0  0  0  0  0
   37.0640   34.6560   39.3590 H   0  0  0  0  0  0  0  0  0  0  0  0
   40.6130   33.1490   41.1630 H   0  0  0  0  0  0  0  0  0  0  0  0
  1  3  1  0  0  0  0
  2  1  1  0  0  0  0
  4 11  1  6  0  0  0
  5  4  1  0  0  0  0
  5  6  1  0  0  0  0
  7  1  1  6  0  0  0
  7  5  1  0  0  0  0
  8  9  1  0  0  0  0
  8  7  1  0  0  0  0
  9 10  1  0  0  0  0
  9  4  1  0  0  0  0
 12 11  1  0  0  0  0
 13 15  1  0  0  0  0
 13 14  2  0  0  0  0
 14  1  1  0  0  0  0
 15 20  1  0  0  0  0
 16 15  2  0  0  0  0
 17 16  1  0  0  0  0
 17 18  2  0  0  0  0
 18 19  1  0  0  0  0
 19 20  2  0  0  0  0
 19 23  1  0  0  0  0
 21 16  1  0  0  0  0
 22 17  1  0  0  0  0
M  END
>  <minimizedAffinity>
-4.2804575

$$$$

 OpenBabel03242511313D

 23 24  0  0  1  0  0  0  0  0999 V2000
   37.1930   26.7040   42.5850 C   0  0  0  0  0  0  0  0  0  0  0  0
   36.1970   26.7180   43.0640 H   0  0  0  0  0  0  0  0  0  0  0  0
   37.9630   26.2200   43.2500 H   0  0  0  0  0  0  0  0  0  0  0  0
   37.7810   23.6680   40.7030 C   0  0  1  0  0  3  0  0  0  0  0  0
   36.8150   24.3950   41.6490 C   0  0  0  0  0  3  0  0  0  0  0  0
   35.7710   24.1070   41.4790 H   0  0  0  0  0  0  0  0  0  0  0  0
   37.1510   25.8130   41.3410 C   0  0  2  0  0  3  0  0  0  0  0  0
   38.3220   25.8650   40.6330 O   0  0  0  0  0  0  0  0  0  0  0  0
   38.9370   24.6380   40.6840 C   0  0  0  0  0  3  0  0  0  0  0  0
   39.5890   24.4860   39.7980 H   0  0  0  0  0  0  0  0  0  0  0  0
   38.1320   22.4340   41.2480 O   0  0  0  0  0  0  0  0  0  0  0  0
   38.9620   22.0980   40.8360 H   0  0  0  0  0  0  0  0  0  0  0  0
   37.0150   28.9630   41.6500 C   0  0  0  0  0  3  0  0  0  0  0  0
   37.7330   28.0410   42.2650 C   0  0  0  0  0  3  0  0  0  0  0  0
   37.6210   30.2590   41.3690 C   0  0  0  0  0  0  0  0  0  0  0  0
   36.8490   31.1780   40.6310 C   0  0  0  0  0  0  0  0  0  0  0  0
   37.3940   32.4390   40.3370 C   0  0  0  0  0  0  0  0  0  0  0  0
   38.6520   32.7030   40.7880 N   0  0  0  0  0  0  0  0  0  0  0  0
   39.3590   31.7940   41.4920 C   0  0  0  0  0  0  0  0  0  0  0  0
   38.8410   30.5990   41.7700 N   0  0  0  0  0  0  0  0  0  0  0  0
   35.8460   30.9110   40.2960 H   0  0  0  0  0  0  0  0  0  0  0  0
   36.8220   33.1630   39.7730 H   0  0  0  0  0  0  0  0  0  0  0  0
   40.3510   31.9970   41.8500 H   0  0  0  0  0  0  0  0  0  0  0  0
  1  2  1  0  0  0  0
  1  3  1  0  0  0  0
  4 11  1  1  0  0  0
  4  5  1  0  0  0  0
  6  5  1  0  0  0  0
  7  5  1  0  0  0  0
  7  1  1  1  0  0  0
  8  9  1  0  0  0  0
  8  7  1  0  0  0  0
  9  4  1  0  0  0  0
 10  9  1  0  0  0  0
 12 11  1  0  0  0  0
 13 14  2  0  0  0  0
 14  1  1  0  0  0  0
 15 13  1  0  0  0  0
 15 20  1  0  0  0  0
 16 15  2  0  0  0  0
 17 16  1  0  0  0  0
 17 18  2  0  0  0  0
 18 19  1  0  0  0  0
 19 20  2  0  0  0  0
 19 23  1  0  0  0  0
 21 16  1  0  0  0  0
 22 17  1  0  0  0  0
M  END
>  <minimizedAffinity>
-4.25983429

$$$$

 OpenBabel03242511313D

 23 24  0  0  1  0  0  0  0  0999 V2000
   36.9490   31.7960   39.4560 C   0  0  0  0  0  0  0  0  0  0  0  0
   36.0610   32.2980   39.8830 H   0  0  0  0  0  0  0  0  0  0  0  0
   36.7320   31.3690   38.4370 H   0  0  0  0  0  0  0  0  0  0  0  0
   40.0220   33.5560   40.2070 C   0  0  1  0  0  3  0  0  0  0  0  0
   39.4140   32.3180   39.5350 C   0  0  0  0  0  3  0  0  0  0  0  0
   40.0080   31.9750   38.6800 H   0  0  0  0  0  0  0  0  0  0  0  0
   38.0520   32.8280   39.2090 C   0  0  2  0  0  3  0  0  0  0  0  0
   37.8240   33.9940   39.8890 O   0  0  0  0  0  0  0  0  0  0  0  0
   38.7950   34.1580   40.8470 C   0  0  0  0  0  3  0  0  0  0  0  0
   38.9390   35.2340   41.0840 H   0  0  0  0  0  0  0  0  0  0  0  0
   40.9710   33.1610   41.1480 O   0  0  0  0  0  0  0  0  0  0  0  0
   41.1420   33.8860   41.7930 H   0  0  0  0  0  0  0  0  0  0  0  0
   36.7850   30.1790   41.2930 C   0  0  0  0  0  3  0  0  0  0  0  0
   37.4510   30.6620   40.2590 C   0  0  0  0  0  3  0  0  0  0  0  0
   37.3480   29.0590   42.0350 C   0  0  0  0  0  0  0  0  0  0  0  0
   36.5460   27.9060   42.1570 C   0  0  0  0  0  0  0  0  0  0  0  0
   37.0500   26.8020   42.8640 C   0  0  0  0  0  0  0  0  0  0  0  0
   38.2980   26.9100   43.3970 N   0  0  0  0  0  0  0  0  0  0  0  0
   39.0340   28.0330   43.2590 C   0  0  0  0  0  0  0  0  0  0  0  0
   38.5560   29.0800   42.5880 N   0  0  0  0  0  0  0  0  0  0  0  0
   35.5530   27.8760   41.7080 H   0  0  0  0  0  0  0  0  0  0  0  0
   36.4550   25.9050   42.9720 H   0  0  0  0  0  0  0  0  0  0  0  0
   40.0180   28.1250   43.6770 H   0  0  0  0  0  0  0  0  0  0  0  0
  1  2  1  0  0  0  0
  1 14  1  0  0  0  0
  3  1  1  0  0  0  0
  4  9  1  0  0  0  0
  4 11  1  1  0  0  0
  5  4  1  0  0  0  0
  6  5  1  0  0  0  0
  7  1  1  1  0  0  0
  7  5  1  0  0  0  0
  7  8  1  0  0  0  0
  8  9  1  0  0  0  0
  9 10  1  0  0  0  0
 11 12  1  0  0  0  0
 13 15  1  0  0  0  0
 14 13  2  0  0  0  0
 15 16  2  0  0  0  0
 15 20  1  0  0  0  0
 16 17  1  0  0  0  0
 17 22  1  0  0  0  0
 17 18  2  0  0  0  0
 19 18  1  0  0  0  0
 19 23  1  0  0  0  0
 20 19  2  0  0  0  0
 21 16  1  0  0  0  0
M  END
>  <minimizedAffinity>
-4.25724888

$$$$

 OpenBabel03242511313D

 23 24  0  0  1  0  0  0  0  0999 V2000
   35.4490   28.9410   40.6790 C   0  0  0  0  0  0  0  0  0  0  0  0
   34.8120   29.3050   41.5070 H   0  0  0  0  0  0  0  0  0  0  0  0
   34.8500   28.3540   39.9260 H   0  0  0  0  0  0  0  0  0  0  0  0
   38.0430   31.0650   39.3150 C   0  0  1  0  0  3  0  0  0  0  0  0
   37.2040   29.8010   39.0880 C   0  0  0  0  0  3  0  0  0  0  0  0
   37.0300   29.6030   38.0240 H   0  0  0  0  0  0  0  0  0  0  0  0
   35.9920   30.1330   39.8880 C   0  0  2  0  0  3  0  0  0  0  0  0
   36.2550   31.2070   40.6950 O   0  0  0  0  0  0  0  0  0  0  0  0
   37.6080   31.4420   40.7100 C   0  0  0  0  0  3  0  0  0  0  0  0
   37.8210   32.5090   40.9340 H   0  0  0  0  0  0  0  0  0  0  0  0
   39.3990   30.7450   39.2510 O   0  0  0  0  0  0  0  0  0  0  0  0
   39.9400   31.4430   39.6900 H   0  0  0  0  0  0  0  0  0  0  0  0
   36.5970   27.5210   42.3160 C   0  0  0  0  0  3  0  0  0  0  0  0
   36.5410   28.0410   41.1020 C   0  0  0  0  0  3  0  0  0  0  0  0
   37.7080   26.6420   42.6560 C   0  0  0  0  0  0  0  0  0  0  0  0
   37.6490   25.3210   42.1710 C   0  0  0  0  0  0  0  0  0  0  0  0
   38.6990   24.4390   42.4760 C   0  0  0  0  0  0  0  0  0  0  0  0
   39.7260   24.9180   43.2310 N   0  0  0  0  0  0  0  0  0  0  0  0
   39.7450   26.1920   43.6770 C   0  0  0  0  0  0  0  0  0  0  0  0
   38.7490   27.0270   43.3880 N   0  0  0  0  0  0  0  0  0  0  0  0
   36.8000   24.9920   41.5700 H   0  0  0  0  0  0  0  0  0  0  0  0
   38.6780   23.4190   42.1160 H   0  0  0  0  0  0  0  0  0  0  0  0
   40.5520   26.5750   44.2730 H   0  0  0  0  0  0  0  0  0  0  0  0
  1 14  1  0  0  0  0
  1  2  1  0  0  0  0
  3  1  1  0  0  0  0
  4 11  1  1  0  0  0
  4  9  1  0  0  0  0
  5  4  1  0  0  0  0
  5  7  1  0  0  0  0
  6  5  1  0  0  0  0
  7  1  1  1  0  0  0
  7  8  1  0  0  0  0
  8  9  1  0  0  0  0
  9 10  1  0  0  0  0
 11 12  1  0  0  0  0
 13 15  1  0  0  0  0
 14 13  2  0  0  0  0
 15 20  1  0  0  0  0
 16 17  1  0  0  0  0
 16 15  2  0  0  0  0
 17 18  2  0  0  0  0
 18 19  1  0  0  0  0
 19 23  1  0  0  0  0
 20 19  2  0  0  0  0
 21 16  1  0  0  0  0
 22 17  1  0  0  0  0
M  END
>  <minimizedAffinity>
-4.2000947

$$$$

 OpenBabel03242511313D

 23 24  0  0  1  0  0  0  0  0999 V2000
   35.8000   29.2040   39.8230 C   0  0  0  0  0  0  0  0  0  0  0  0
   35.0440   29.5130   40.5690 H   0  0  0  0  0  0  0  0  0  0  0  0
   35.4180   29.3340   38.7710 H   0  0  0  0  0  0  0  0  0  0  0  0
   37.4810   32.4090   39.8010 C   0  0  1  0  0  3  0  0  0  0  0  0
   36.7370   31.3850   40.6690 C   0  0  0  0  0  3  0  0  0  0  0  0
   37.0840   31.3910   41.7090 H   0  0  0  0  0  0  0  0  0  0  0  0
   37.0120   30.1350   39.9060 C   0  0  2  0  0  3  0  0  0  0  0  0
   37.5000   30.4520   38.6660 O   0  0  0  0  0  0  0  0  0  0  0  0
   37.3140   31.7920   38.4340 C   0  0  0  0  0  3  0  0  0  0  0  0
   38.0660   32.1760   37.7130 H   0  0  0  0  0  0  0  0  0  0  0  0
   36.8550   33.6510   39.9020 O   0  0  0  0  0  0  0  0  0  0  0  0
   37.1050   34.2270   39.1430 H   0  0  0  0  0  0  0  0  0  0  0  0
   36.8180   27.3020   40.9890 C   0  0  0  0  0  3  0  0  0  0  0  0
   36.2080   27.7880   39.9220 C   0  0  0  0  0  3  0  0  0  0  0  0
   37.1900   25.8930   41.0090 C   0  0  0  0  0  0  0  0  0  0  0  0
   38.2870   25.5330   41.8160 C   0  0  0  0  0  0  0  0  0  0  0  0
   38.6790   24.1860   41.8660 C   0  0  0  0  0  0  0  0  0  0  0  0
   37.9690   23.2940   41.1220 N   0  0  0  0  0  0  0  0  0  0  0  0
   36.9230   23.6790   40.3600 C   0  0  0  0  0  0  0  0  0  0  0  0
   36.5520   24.9580   40.3140 N   0  0  0  0  0  0  0  0  0  0  0  0
   38.8190   26.2920   42.3920 H   0  0  0  0  0  0  0  0  0  0  0  0
   39.5180   23.8830   42.4780 H   0  0  0  0  0  0  0  0  0  0  0  0
   36.3590   22.9810   39.7710 H   0  0  0  0  0  0  0  0  0  0  0  0
  1 14  1  0  0  0  0
  1  2  1  0  0  0  0
  3  1  1  0  0  0  0
  4 11  1  6  0  0  0
  4  5  1  0  0  0  0
  5  6  1  0  0  0  0
  7  1  1  6  0  0  0
  7  5  1  0  0  0  0
  8  7  1  0  0  0  0
  9  8  1  0  0  0  0
  9  4  1  0  0  0  0
 10  9  1  0  0  0  0
 12 11  1  0  0  0  0
 13 15  1  0  0  0  0
 14 13  2  0  0  0  0
 15 16  1  0  0  0  0
 16 17  2  0  0  0  0
 16 21  1  0  0  0  0
 17 22  1  0  0  0  0
 18 17  1  0  0  0  0
 19 18  2  0  0  0  0
 20 19  1  0  0  0  0
 20 15  2  0  0  0  0
 23 19  1  0  0  0  0
M  END
>  <minimizedAffinity>
-4.15698862

$$$$
