
 OpenBabel03242511003D

 46 49  0  0  1  0  0  0  0  0999 V2000
   45.4760   27.9550   47.7230 C   0  0  0  0  0  0  0  0  0  0  0  0
   44.4620   27.3540   47.1660 C   0  0  0  0  0  0  0  0  0  0  0  0
   45.6470   31.5690   47.0840 C   0  0  0  0  0  0  0  0  0  0  0  0
   45.3920   32.0440   48.3790 C   0  0  0  0  0  0  0  0  0  0  0  0
   45.1640   31.2170   49.4660 C   0  0  0  0  0  0  0  0  0  0  0  0
   45.1950   29.8610   49.2330 C   0  0  0  0  0  0  0  0  0  0  0  0
   45.4480   29.3880   47.9480 C   0  0  0  0  0  0  0  0  0  0  0  0
   45.6600   30.2400   46.9450 N   0  0  0  0  0  0  0  0  0  0  0  0
   45.3690   33.1090   48.5590 H   0  0  0  0  0  0  0  0  0  0  0  0
   44.9750   31.6490   50.4300 H   0  0  0  0  0  0  0  0  0  0  0  0
   45.0160   29.2310   50.0910 H   0  0  0  0  0  0  0  0  0  0  0  0
   44.7660   36.5890   43.8500 C   0  0  0  0  0  0  0  0  0  0  0  0
   45.6630   36.2970   42.8020 C   0  0  0  0  0  0  0  0  0  0  0  0
   46.3160   35.0590   42.8250 C   0  0  0  0  0  0  0  0  0  0  0  0
   46.0680   34.1870   43.8480 N   0  0  0  0  0  0  0  0  0  0  0  0
   45.1940   34.5190   44.8340 C   0  0  0  0  0  0  0  0  0  0  0  0
   44.5470   35.7170   44.8320 N   0  0  0  0  0  0  0  0  0  0  0  0
   45.8730   32.5260   46.0120 C   0  0  0  0  0  0  0  0  0  0  0  0
   46.8730   32.3430   45.2620 O   0  0  0  0  0  0  0  0  0  0  0  0
   44.9470   33.5970   45.8920 N   0  0  0  0  0  0  0  0  0  0  0  0
   44.3030   37.5650   43.7580 H   0  0  0  0  0  0  0  0  0  0  0  0
   45.9040   36.9360   41.9670 H   0  0  0  0  0  0  0  0  0  0  0  0
   47.0230   34.7380   42.0680 H   0  0  0  0  0  0  0  0  0  0  0  0
   44.1190   33.7450   46.5180 H   0  0  0  0  0  0  0  0  0  0  0  0
   44.3300   25.8920   46.8640 C   0  0  0  0  0  0  0  0  0  0  0  0
   45.0670   25.7050   46.0850 H   0  0  0  0  0  0  0  0  0  0  0  0
   44.6610   25.2990   47.7500 H   0  0  0  0  0  0  0  0  0  0  0  0
   44.1020   23.1370   45.7930 Cl  0  0  0  0  0  0  0  0  0  0  0  0
   42.7680   24.2810   45.9140 C   0  0  0  0  0  0  0  0  0  0  0  0
   42.9500   25.5550   46.4270 C   0  0  0  0  0  0  0  0  0  0  0  0
   41.9070   26.4540   46.5240 C   0  0  0  0  0  0  0  0  0  0  0  0
   40.6280   26.0630   46.0890 C   0  0  0  0  0  0  0  0  0  0  0  0
   40.4620   24.7850   45.5780 C   0  0  0  0  0  0  0  0  0  0  0  0
   41.5190   23.8830   45.4840 C   0  0  0  0  0  0  0  0  0  0  0  0
   42.1090   27.4190   46.9260 H   0  0  0  0  0  0  0  0  0  0  0  0
   39.8320   26.7800   46.1750 H   0  0  0  0  0  0  0  0  0  0  0  0
   39.4710   24.5060   45.2510 H   0  0  0  0  0  0  0  0  0  0  0  0
   41.4670   22.4480   43.4520 C   0  0  2  0  0  0  0  0  0  0  0  0
   41.3390   22.5210   44.9390 C   0  0  2  0  0  0  0  0  0  0  0  0
   40.0140   21.9190   45.2120 C   0  0  0  0  0  0  0  0  0  0  0  0
   39.4910   22.5130   45.9890 H   0  0  0  0  0  0  0  0  0  0  0  0
   39.2570   21.9490   44.0680 O   0  0  0  0  0  0  0  0  0  0  0  0
   40.0810   22.1230   42.9850 C   0  0  0  0  0  0  0  0  0  0  0  0
   39.6630   22.8830   42.2750 H   0  0  0  0  0  0  0  0  0  0  0  0
   42.3980   21.5000   43.0280 O   0  0  0  0  0  0  0  0  0  0  0  0
   42.0560   20.5910   43.1520 H   0  0  0  0  0  0  0  0  0  0  0  0
  1  7  1  0  0  0  0
  2  1  2  0  0  0  0
  3  4  1  0  0  0  0
  4  9  1  0  0  0  0
  4  5  2  0  0  0  0
  5 10  1  0  0  0  0
  6  5  1  0  0  0  0
  6 11  1  0  0  0  0
  7  6  2  0  0  0  0
  8  3  2  0  0  0  0
  8  7  1  0  0  0  0
 12 17  1  0  0  0  0
 13 14  1  0  0  0  0
 13 12  2  0  0  0  0
 14 15  2  0  0  0  0
 15 16  1  0  0  0  0
 16 20  1  0  0  0  0
 17 16  2  0  0  0  0
 18  3  1  0  0  0  0
 19 18  2  0  0  0  0
 20 18  1  0  0  0  0
 20 24  1  0  0  0  0
 21 12  1  0  0  0  0
 22 13  1  0  0  0  0
 23 14  1  0  0  0  0
 25  2  1  0  0  0  0
 25 27  1  0  0  0  0
 26 25  1  0  0  0  0
 28 29  1  0  0  0  0
 29 30  1  0  0  0  0
 30 31  2  0  0  0  0
 30 25  1  0  0  0  0
 31 35  1  0  0  0  0
 32 36  1  0  0  0  0
 32 31  1  0  0  0  0
 33 32  2  0  0  0  0
 34 33  1  0  0  0  0
 34 29  2  0  0  0  0
 37 33  1  0  0  0  0
 38 45  1  1  0  0  0
 38 39  1  0  0  0  0
 39 40  1  0  0  0  0
 39 34  1  6  0  0  0
 40 41  1  0  0  0  0
 42 40  1  0  0  0  0
 43 38  1  0  0  0  0
 43 42  1  0  0  0  0
 44 43  1  0  0  0  0
 45 46  1  0  0  0  0
M  END
>  <minimizedAffinity>
-6.23511362

>  <minimizedRMSD>
1.94199479

$$$$
