
 OpenBabel03242513323D

 37 40  0  0  1  0  0  0  0  0999 V2000
   38.3810   31.7310   40.8720 C   0  0  0  0  0  0  0  0  0  0  0  0
   38.5180   32.4640   39.7130 C   0  0  0  0  0  0  0  0  0  0  0  0
   37.6790   32.1490   38.6780 C   0  0  0  0  0  0  0  0  0  0  0  0
   36.7330   31.1440   38.7810 C   0  0  0  0  0  0  0  0  0  0  0  0
   36.6070   30.4240   39.9380 C   0  0  0  0  0  0  0  0  0  0  0  0
   37.4460   30.7130   41.0240 C   0  0  0  0  0  0  0  0  0  0  0  0
   37.7970   32.7350   37.7660 H   0  0  0  0  0  0  0  0  0  0  0  0
   36.1160   30.9680   37.9090 H   0  0  0  0  0  0  0  0  0  0  0  0
   35.8750   29.6370   40.0330 H   0  0  0  0  0  0  0  0  0  0  0  0
   41.6390   34.4140   38.9200 C   0  0  0  0  0  0  0  0  0  0  0  0
   40.6880   33.3870   38.9430 C   0  0  0  0  0  0  0  0  0  0  0  0
   39.5180   33.4960   39.6650 C   0  0  0  0  0  0  0  0  0  0  0  0
   39.3760   34.6660   40.3380 N   0  0  0  0  0  0  0  0  0  0  0  0
   40.2800   35.6610   40.3260 C   0  0  0  0  0  0  0  0  0  0  0  0
   41.4130   35.5260   39.6120 N   0  0  0  0  0  0  0  0  0  0  0  0
   42.5580   34.3190   38.3480 H   0  0  0  0  0  0  0  0  0  0  0  0
   40.8930   32.4900   38.3710 H   0  0  0  0  0  0  0  0  0  0  0  0
   39.9730   36.5130   40.9320 H   0  0  0  0  0  0  0  0  0  0  0  0
   39.2060   32.0070   41.9580 O   0  0  0  0  0  0  0  0  0  0  0  0
   38.8470   32.6230   42.6580 H   0  0  0  0  0  0  0  0  0  0  0  0
   37.3830   30.0370   42.2180 O   0  0  0  0  0  0  0  0  0  0  0  0
   37.8530   28.7940   42.4350 C   0  0  0  0  0  0  0  0  0  0  0  0
   38.9670   28.3810   43.1340 C   0  0  0  0  0  0  0  0  0  0  0  0
   39.2560   27.0520   43.2250 C   0  0  0  0  0  0  0  0  0  0  0  0
   38.3600   26.1580   42.5730 C   0  0  0  0  0  0  0  0  0  0  0  0
   37.1210   27.2600   41.8440 S   0  0  0  0  0  0  0  0  0  0  0  0
   39.6070   29.1120   43.6060 H   0  0  0  0  0  0  0  0  0  0  0  0
   40.0640   26.5790   43.7180 H   0  0  0  0  0  0  0  0  0  0  0  0
   39.2570   24.2880   41.3460 C   0  0  1  0  0  3  0  0  0  0  0  0
   38.2970   24.7280   42.4260 C   0  0  2  0  0  3  0  0  0  0  0  0
   36.9560   24.2980   41.9290 C   0  0  0  0  0  3  0  0  0  0  0  0
   36.3330   25.1880   41.6270 H   0  0  0  0  0  0  0  0  0  0  0  0
   37.1170   23.5590   40.7760 O   0  0  0  0  0  0  0  0  0  0  0  0
   38.4520   23.2550   40.6090 C   0  0  0  0  0  3  0  0  0  0  0  0
   38.7410   22.2350   40.9010 H   0  0  0  0  0  0  0  0  0  0  0  0
   39.5710   25.3410   40.5180 O   0  0  0  0  0  0  0  0  0  0  0  0
   40.4470   25.7410   40.7380 H   0  0  0  0  0  0  0  0  0  0  0  0
  1  6  1  0  0  0  0
  1 19  1  0  0  0  0
  2  1  2  0  0  0  0
  3  4  2  0  0  0  0
  3  2  1  0  0  0  0
  4  5  1  0  0  0  0
  5  9  1  0  0  0  0
  5  6  2  0  0  0  0
  6 21  1  0  0  0  0
  7  3  1  0  0  0  0
  8  4  1  0  0  0  0
 10 11  2  0  0  0  0
 10 15  1  0  0  0  0
 11 12  1  0  0  0  0
 12  2  1  0  0  0  0
 12 13  2  0  0  0  0
 14 13  1  0  0  0  0
 14 18  1  0  0  0  0
 15 14  2  0  0  0  0
 16 10  1  0  0  0  0
 17 11  1  0  0  0  0
 19 20  1  0  0  0  0
 21 22  1  0  0  0  0
 22 23  2  0  0  0  0
 23 24  1  0  0  0  0
 23 27  1  0  0  0  0
 24 28  1  0  0  0  0
 25 24  2  0  0  0  0
 26 22  1  0  0  0  0
 26 25  1  0  0  0  0
 29 36  1  6  0  0  0
 29 30  1  0  0  0  0
 30 25  1  6  0  0  0
 31 30  1  0  0  0  0
 32 31  1  0  0  0  0
 33 31  1  0  0  0  0
 34 33  1  0  0  0  0
 34 35  1  0  0  0  0
 34 29  1  0  0  0  0
 36 37  1  0  0  0  0
M  END
>  <minimizedAffinity>
-6.18564129

$$$$

 OpenBabel03242513323D

 37 40  0  0  1  0  0  0  0  0999 V2000
   40.1680   33.1180   39.3050 C   0  0  0  0  0  0  0  0  0  0  0  0
   40.8960   34.1940   39.7670 C   0  0  0  0  0  0  0  0  0  0  0  0
   40.1870   35.2340   40.3060 C   0  0  0  0  0  0  0  0  0  0  0  0
   38.8070   35.2160   40.3890 C   0  0  0  0  0  0  0  0  0  0  0  0
   38.0960   34.1420   39.9270 C   0  0  0  0  0  0  0  0  0  0  0  0
   38.7800   33.0530   39.3670 C   0  0  0  0  0  0  0  0  0  0  0  0
   40.7740   36.0800   40.6680 H   0  0  0  0  0  0  0  0  0  0  0  0
   38.3370   36.0860   40.8320 H   0  0  0  0  0  0  0  0  0  0  0  0
   37.0200   34.1140   39.9840 H   0  0  0  0  0  0  0  0  0  0  0  0
   44.5690   34.1670   40.5890 C   0  0  0  0  0  0  0  0  0  0  0  0
   43.1780   34.2070   40.7380 C   0  0  0  0  0  0  0  0  0  0  0  0
   42.3290   34.1560   39.6540 C   0  0  0  0  0  0  0  0  0  0  0  0
   42.9520   34.0650   38.4510 N   0  0  0  0  0  0  0  0  0  0  0  0
   44.2860   34.0280   38.2910 C   0  0  0  0  0  0  0  0  0  0  0  0
   45.0900   34.0790   39.3700 N   0  0  0  0  0  0  0  0  0  0  0  0
   45.2310   34.2090   41.4500 H   0  0  0  0  0  0  0  0  0  0  0  0
   42.7750   34.2790   41.7420 H   0  0  0  0  0  0  0  0  0  0  0  0
   44.5800   33.9540   37.2440 H   0  0  0  0  0  0  0  0  0  0  0  0
   40.8340   32.0310   38.7460 O   0  0  0  0  0  0  0  0  0  0  0  0
   41.0300   31.2590   39.3490 H   0  0  0  0  0  0  0  0  0  0  0  0
   38.1410   31.9390   38.8800 O   0  0  0  0  0  0  0  0  0  0  0  0
   37.5980   30.9630   39.6310 C   0  0  0  0  0  0  0  0  0  0  0  0
   36.2840   30.7560   39.9950 C   0  0  0  0  0  0  0  0  0  0  0  0
   35.9560   29.6870   40.7730 C   0  0  0  0  0  0  0  0  0  0  0  0
   37.0240   28.8330   41.1670 C   0  0  0  0  0  0  0  0  0  0  0  0
   38.4780   29.5970   40.4020 S   0  0  0  0  0  0  0  0  0  0  0  0
   35.5200   31.4430   39.6620 H   0  0  0  0  0  0  0  0  0  0  0  0
   35.0060   29.3930   41.1340 H   0  0  0  0  0  0  0  0  0  0  0  0
   37.0320   27.9930   43.4260 C   0  0  1  0  0  3  0  0  0  0  0  0
   37.1140   27.6350   41.9600 C   0  0  2  0  0  3  0  0  0  0  0  0
   38.4540   26.9910   41.8100 C   0  0  0  0  0  3  0  0  0  0  0  0
   39.1590   27.6570   41.2350 H   0  0  0  0  0  0  0  0  0  0  0  0
   39.0260   26.8440   43.0550 O   0  0  0  0  0  0  0  0  0  0  0  0
   38.0840   27.1040   44.0280 C   0  0  0  0  0  3  0  0  0  0  0  0
   37.6380   26.2160   44.5000 H   0  0  0  0  0  0  0  0  0  0  0  0
   37.3470   29.3180   43.6200 O   0  0  0  0  0  0  0  0  0  0  0  0
   36.5410   29.8810   43.7290 H   0  0  0  0  0  0  0  0  0  0  0  0
  1  6  2  0  0  0  0
  1  2  1  0  0  0  0
  2  3  2  0  0  0  0
  3  4  1  0  0  0  0
  3  7  1  0  0  0  0
  4  8  1  0  0  0  0
  5  9  1  0  0  0  0
  5  4  2  0  0  0  0
  6  5  1  0  0  0  0
 10 11  1  0  0  0  0
 10 16  1  0  0  0  0
 11 17  1  0  0  0  0
 12  2  1  0  0  0  0
 12 11  2  0  0  0  0
 13 12  1  0  0  0  0
 14 13  2  0  0  0  0
 14 15  1  0  0  0  0
 15 10  2  0  0  0  0
 18 14  1  0  0  0  0
 19  1  1  0  0  0  0
 19 20  1  0  0  0  0
 21  6  1  0  0  0  0
 21 22  1  0  0  0  0
 22 23  2  0  0  0  0
 22 26  1  0  0  0  0
 23 24  1  0  0  0  0
 24 28  1  0  0  0  0
 24 25  2  0  0  0  0
 26 25  1  0  0  0  0
 27 23  1  0  0  0  0
 29 36  1  6  0  0  0
 29 34  1  0  0  0  0
 30 25  1  6  0  0  0
 30 29  1  0  0  0  0
 31 30  1  0  0  0  0
 31 33  1  0  0  0  0
 32 31  1  0  0  0  0
 33 34  1  0  0  0  0
 34 35  1  0  0  0  0
 36 37  1  0  0  0  0
M  END
>  <minimizedAffinity>
-6.12831879

$$$$

 OpenBabel03242513323D

 37 40  0  0  1  0  0  0  0  0999 V2000
   38.0340   31.6360   40.4970 C   0  0  0  0  0  0  0  0  0  0  0  0
   38.3620   32.3570   39.3690 C   0  0  0  0  0  0  0  0  0  0  0  0
   37.7110   32.0250   38.2110 C   0  0  0  0  0  0  0  0  0  0  0  0
   36.7660   31.0160   38.1650 C   0  0  0  0  0  0  0  0  0  0  0  0
   36.4490   30.3080   39.2920 C   0  0  0  0  0  0  0  0  0  0  0  0
   37.0900   30.6140   40.5010 C   0  0  0  0  0  0  0  0  0  0  0  0
   37.9800   32.6010   37.3240 H   0  0  0  0  0  0  0  0  0  0  0  0
   36.3060   30.8260   37.2020 H   0  0  0  0  0  0  0  0  0  0  0  0
   35.7150   29.5180   39.2710 H   0  0  0  0  0  0  0  0  0  0  0  0
   41.5590   34.3230   39.0770 C   0  0  0  0  0  0  0  0  0  0  0  0
   40.6220   33.2910   38.9510 C   0  0  0  0  0  0  0  0  0  0  0  0
   39.3520   33.3940   39.4770 C   0  0  0  0  0  0  0  0  0  0  0  0
   39.0980   34.5650   40.1160 N   0  0  0  0  0  0  0  0  0  0  0  0
   39.9880   35.5640   40.2470 C   0  0  0  0  0  0  0  0  0  0  0  0
   41.2210   35.4340   39.7220 N   0  0  0  0  0  0  0  0  0  0  0  0
   42.5580   34.2320   38.6590 H   0  0  0  0  0  0  0  0  0  0  0  0
   40.9200   32.3940   38.4210 H   0  0  0  0  0  0  0  0  0  0  0  0
   39.5840   36.4160   40.7940 H   0  0  0  0  0  0  0  0  0  0  0  0
   38.6620   31.9300   41.7030 O   0  0  0  0  0  0  0  0  0  0  0  0
   38.1880   32.5510   42.3240 H   0  0  0  0  0  0  0  0  0  0  0  0
   36.8290   29.9510   41.6750 O   0  0  0  0  0  0  0  0  0  0  0  0
   37.2540   28.7110   41.9790 C   0  0  0  0  0  0  0  0  0  0  0  0
   36.6370   27.7220   42.7160 C   0  0  0  0  0  0  0  0  0  0  0  0
   37.2610   26.5250   42.9000 C   0  0  0  0  0  0  0  0  0  0  0  0
   38.5430   26.3740   42.3020 C   0  0  0  0  0  0  0  0  0  0  0  0
   38.8170   27.9680   41.4860 S   0  0  0  0  0  0  0  0  0  0  0  0
   35.6610   27.9000   43.1430 H   0  0  0  0  0  0  0  0  0  0  0  0
   36.9250   25.6740   43.4330 H   0  0  0  0  0  0  0  0  0  0  0  0
   40.2810   25.2670   43.5520 C   0  0  1  0  0  3  0  0  0  0  0  0
   39.5110   25.3100   42.2530 C   0  0  2  0  0  3  0  0  0  0  0  0
   40.5520   25.5780   41.2150 C   0  0  0  0  0  3  0  0  0  0  0  0
   40.4490   26.6220   40.8010 H   0  0  0  0  0  0  0  0  0  0  0  0
   41.7970   25.5430   41.8040 O   0  0  0  0  0  0  0  0  0  0  0  0
   41.6880   25.0300   43.0800 C   0  0  0  0  0  3  0  0  0  0  0  0
   41.9770   23.9750   43.1890 H   0  0  0  0  0  0  0  0  0  0  0  0
   40.1850   26.4700   44.2130 O   0  0  0  0  0  0  0  0  0  0  0  0
   39.5140   26.4460   44.9380 H   0  0  0  0  0  0  0  0  0  0  0  0
  1  6  1  0  0  0  0
  1 19  1  0  0  0  0
  2 12  1  0  0  0  0
  2  1  2  0  0  0  0
  3  2  1  0  0  0  0
  4  3  2  0  0  0  0
  4  5  1  0  0  0  0
  5  6  2  0  0  0  0
  6 21  1  0  0  0  0
  7  3  1  0  0  0  0
  8  4  1  0  0  0  0
  9  5  1  0  0  0  0
 10 15  1  0  0  0  0
 11 10  2  0  0  0  0
 11 12  1  0  0  0  0
 12 13  2  0  0  0  0
 13 14  1  0  0  0  0
 14 18  1  0  0  0  0
 15 14  2  0  0  0  0
 16 10  1  0  0  0  0
 17 11  1  0  0  0  0
 19 20  1  0  0  0  0
 21 22  1  0  0  0  0
 22 23  2  0  0  0  0
 23 24  1  0  0  0  0
 23 27  1  0  0  0  0
 24 28  1  0  0  0  0
 25 24  2  0  0  0  0
 26 22  1  0  0  0  0
 26 25  1  0  0  0  0
 29 36  1  6  0  0  0
 30 25  1  1  0  0  0
 30 29  1  0  0  0  0
 31 33  1  0  0  0  0
 31 30  1  0  0  0  0
 32 31  1  0  0  0  0
 33 34  1  0  0  0  0
 34 35  1  0  0  0  0
 34 29  1  0  0  0  0
 36 37  1  0  0  0  0
M  END
>  <minimizedAffinity>
-6.09652042

$$$$

 OpenBabel03242513323D

 37 40  0  0  1  0  0  0  0  0999 V2000
   39.3470   31.6480   40.5410 C   0  0  0  0  0  0  0  0  0  0  0  0
   39.2180   32.4630   39.4370 C   0  0  0  0  0  0  0  0  0  0  0  0
   37.9510   32.6550   38.9540 C   0  0  0  0  0  0  0  0  0  0  0  0
   36.8460   32.0650   39.5400 C   0  0  0  0  0  0  0  0  0  0  0  0
   36.9880   31.2580   40.6360 C   0  0  0  0  0  0  0  0  0  0  0  0
   38.2670   31.0330   41.1650 C   0  0  0  0  0  0  0  0  0  0  0  0
   37.8610   33.3020   38.0800 H   0  0  0  0  0  0  0  0  0  0  0  0
   35.8860   32.2760   39.0860 H   0  0  0  0  0  0  0  0  0  0  0  0
   36.1360   30.7900   41.1030 H   0  0  0  0  0  0  0  0  0  0  0  0
   42.1560   33.1870   37.1970 C   0  0  0  0  0  0  0  0  0  0  0  0
   41.0020   32.5890   37.7190 C   0  0  0  0  0  0  0  0  0  0  0  0
   40.4030   33.0500   38.8710 C   0  0  0  0  0  0  0  0  0  0  0  0
   41.0200   34.1150   39.4430 N   0  0  0  0  0  0  0  0  0  0  0  0
   42.1290   34.6990   38.9550 C   0  0  0  0  0  0  0  0  0  0  0  0
   42.6920   34.2260   37.8270 N   0  0  0  0  0  0  0  0  0  0  0  0
   42.6220   32.8160   36.2880 H   0  0  0  0  0  0  0  0  0  0  0  0
   40.5830   31.7420   37.1880 H   0  0  0  0  0  0  0  0  0  0  0  0
   42.4630   35.5380   39.5650 H   0  0  0  0  0  0  0  0  0  0  0  0
   40.6110   31.4160   41.0760 O   0  0  0  0  0  0  0  0  0  0  0  0
   40.8950   31.9940   41.8400 H   0  0  0  0  0  0  0  0  0  0  0  0
   38.4940   30.2370   42.2600 O   0  0  0  0  0  0  0  0  0  0  0  0
   38.0000   28.9970   42.4380 C   0  0  0  0  0  0  0  0  0  0  0  0
   37.3910   28.4380   43.5420 C   0  0  0  0  0  0  0  0  0  0  0  0
   36.9630   27.1460   43.4980 C   0  0  0  0  0  0  0  0  0  0  0  0
   37.1800   26.4420   42.2800 C   0  0  0  0  0  0  0  0  0  0  0  0
   37.9990   27.6670   41.2260 S   0  0  0  0  0  0  0  0  0  0  0  0
   37.2560   29.0280   44.4370 H   0  0  0  0  0  0  0  0  0  0  0  0
   36.4840   26.5780   44.2510 H   0  0  0  0  0  0  0  0  0  0  0  0
   38.0170   24.1820   42.2320 C   0  0  1  0  0  3  0  0  0  0  0  0
   36.8940   25.1070   41.8250 C   0  0  2  0  0  3  0  0  0  0  0  0
   36.8790   25.0400   40.3330 C   0  0  0  0  0  3  0  0  0  0  0  0
   37.2470   26.0050   39.8820 H   0  0  0  0  0  0  0  0  0  0  0  0
   37.7750   24.0790   39.9150 O   0  0  0  0  0  0  0  0  0  0  0  0
   38.1920   23.3370   41.0010 C   0  0  0  0  0  3  0  0  0  0  0  0
   37.7090   22.3560   41.1140 H   0  0  0  0  0  0  0  0  0  0  0  0
   39.1610   24.8970   42.4980 O   0  0  0  0  0  0  0  0  0  0  0  0
   39.3010   25.0310   43.4680 H   0  0  0  0  0  0  0  0  0  0  0  0
  1 19  1  0  0  0  0
  1  6  1  0  0  0  0
  2  1  2  0  0  0  0
  3  2  1  0  0  0  0
  3  4  2  0  0  0  0
  4  5  1  0  0  0  0
  5  9  1  0  0  0  0
  5  6  2  0  0  0  0
  6 21  1  0  0  0  0
  7  3  1  0  0  0  0
  8  4  1  0  0  0  0
 10 11  2  0  0  0  0
 10 15  1  0  0  0  0
 11 12  1  0  0  0  0
 12  2  1  0  0  0  0
 12 13  2  0  0  0  0
 14 13  1  0  0  0  0
 14 18  1  0  0  0  0
 15 14  2  0  0  0  0
 16 10  1  0  0  0  0
 17 11  1  0  0  0  0
 19 20  1  0  0  0  0
 21 22  1  0  0  0  0
 22 23  2  0  0  0  0
 23 27  1  0  0  0  0
 24 23  1  0  0  0  0
 24 28  1  0  0  0  0
 25 24  2  0  0  0  0
 26 25  1  0  0  0  0
 26 22  1  0  0  0  0
 29 36  1  6  0  0  0
 30 29  1  0  0  0  0
 30 25  1  6  0  0  0
 31 30  1  0  0  0  0
 32 31  1  0  0  0  0
 33 31  1  0  0  0  0
 33 34  1  0  0  0  0
 34 35  1  0  0  0  0
 34 29  1  0  0  0  0
 36 37  1  0  0  0  0
M  END
>  <minimizedAffinity>
-6.08730078

$$$$

 OpenBabel03242513323D

 37 40  0  0  1  0  0  0  0  0999 V2000
   38.6210   27.1910   41.9410 C   0  0  0  0  0  0  0  0  0  0  0  0
   37.4760   26.4290   42.0370 C   0  0  0  0  0  0  0  0  0  0  0  0
   36.5810   26.7770   43.0120 C   0  0  0  0  0  0  0  0  0  0  0  0
   36.8030   27.8430   43.8650 C   0  0  0  0  0  0  0  0  0  0  0  0
   37.9440   28.5920   43.7590 C   0  0  0  0  0  0  0  0  0  0  0  0
   38.8900   28.2710   42.7750 C   0  0  0  0  0  0  0  0  0  0  0  0
   35.6790   26.1670   43.0780 H   0  0  0  0  0  0  0  0  0  0  0  0
   36.0370   28.0410   44.6040 H   0  0  0  0  0  0  0  0  0  0  0  0
   38.1320   29.4250   44.4180 H   0  0  0  0  0  0  0  0  0  0  0  0
   37.3820   22.9800   40.5300 C   0  0  0  0  0  0  0  0  0  0  0  0
   37.5670   24.0210   41.4480 C   0  0  0  0  0  0  0  0  0  0  0  0
   37.2990   25.3330   41.1220 C   0  0  0  0  0  0  0  0  0  0  0  0
   36.8490   25.5210   39.8550 N   0  0  0  0  0  0  0  0  0  0  0  0
   36.6680   24.5330   38.9620 C   0  0  0  0  0  0  0  0  0  0  0  0
   36.9380   23.2600   39.3100 N   0  0  0  0  0  0  0  0  0  0  0  0
   37.5950   21.9490   40.7960 H   0  0  0  0  0  0  0  0  0  0  0  0
   37.9300   23.7690   42.4380 H   0  0  0  0  0  0  0  0  0  0  0  0
   36.3010   24.8980   38.0030 H   0  0  0  0  0  0  0  0  0  0  0  0
   39.5680   26.8840   40.9690 O   0  0  0  0  0  0  0  0  0  0  0  0
   39.5170   27.3890   40.1080 H   0  0  0  0  0  0  0  0  0  0  0  0
   40.0580   28.9720   42.6040 O   0  0  0  0  0  0  0  0  0  0  0  0
   40.2500   29.9600   41.7110 C   0  0  0  0  0  0  0  0  0  0  0  0
   41.2000   30.0820   40.7180 C   0  0  0  0  0  0  0  0  0  0  0  0
   41.2070   31.1860   39.9190 C   0  0  0  0  0  0  0  0  0  0  0  0
   40.2040   32.1630   40.1720 C   0  0  0  0  0  0  0  0  0  0  0  0
   39.2740   31.4640   41.5600 S   0  0  0  0  0  0  0  0  0  0  0  0
   41.9340   29.3020   40.5790 H   0  0  0  0  0  0  0  0  0  0  0  0
   41.8620   31.4260   39.1230 H   0  0  0  0  0  0  0  0  0  0  0  0
   40.8590   34.4790   40.0320 C   0  0  1  0  0  3  0  0  0  0  0  0
   39.8670   33.4330   39.5830 C   0  0  2  0  0  3  0  0  0  0  0  0
   38.5510   33.9270   40.0900 C   0  0  0  0  0  3  0  0  0  0  0  0
   38.1790   33.2830   40.9370 H   0  0  0  0  0  0  0  0  0  0  0  0
   38.7200   35.1820   40.6340 O   0  0  0  0  0  0  0  0  0  0  0  0
   39.9720   35.6600   40.3080 C   0  0  0  0  0  3  0  0  0  0  0  0
   39.9970   36.3840   39.4810 H   0  0  0  0  0  0  0  0  0  0  0  0
   41.5020   34.0760   41.1800 O   0  0  0  0  0  0  0  0  0  0  0  0
   42.4020   33.7100   40.9960 H   0  0  0  0  0  0  0  0  0  0  0  0
  1  2  2  0  0  0  0
  1  6  1  0  0  0  0
  2  3  1  0  0  0  0
  3  7  1  0  0  0  0
  3  4  2  0  0  0  0
  4  8  1  0  0  0  0
  5  4  1  0  0  0  0
  5  9  1  0  0  0  0
  6  5  2  0  0  0  0
 10 16  1  0  0  0  0
 10 11  1  0  0  0  0
 11 17  1  0  0  0  0
 12 11  2  0  0  0  0
 12  2  1  0  0  0  0
 13 12  1  0  0  0  0
 14 15  1  0  0  0  0
 14 13  2  0  0  0  0
 15 10  2  0  0  0  0
 18 14  1  0  0  0  0
 19  1  1  0  0  0  0
 20 19  1  0  0  0  0
 21  6  1  0  0  0  0
 22 21  1  0  0  0  0
 23 22  2  0  0  0  0
 24 25  2  0  0  0  0
 24 23  1  0  0  0  0
 25 26  1  0  0  0  0
 26 22  1  0  0  0  0
 27 23  1  0  0  0  0
 28 24  1  0  0  0  0
 29 34  1  0  0  0  0
 29 36  1  1  0  0  0
 30 29  1  0  0  0  0
 30 31  1  0  0  0  0
 30 25  1  1  0  0  0
 31 33  1  0  0  0  0
 31 32  1  0  0  0  0
 34 33  1  0  0  0  0
 35 34  1  0  0  0  0
 37 36  1  0  0  0  0
M  END
>  <minimizedAffinity>
-5.99531984

$$$$

 OpenBabel03242513323D

 37 40  0  0  1  0  0  0  0  0999 V2000
   38.0150   28.9130   41.4790 C   0  0  0  0  0  0  0  0  0  0  0  0
   37.1540   27.9480   41.0010 C   0  0  0  0  0  0  0  0  0  0  0  0
   35.9570   28.3820   40.4960 C   0  0  0  0  0  0  0  0  0  0  0  0
   35.6190   29.7230   40.4620 C   0  0  0  0  0  0  0  0  0  0  0  0
   36.4830   30.6700   40.9400 C   0  0  0  0  0  0  0  0  0  0  0  0
   37.7200   30.2720   41.4660 C   0  0  0  0  0  0  0  0  0  0  0  0
   35.2840   27.6100   40.1210 H   0  0  0  0  0  0  0  0  0  0  0  0
   34.6500   29.9670   40.0450 H   0  0  0  0  0  0  0  0  0  0  0  0
   36.2320   31.7190   40.9210 H   0  0  0  0  0  0  0  0  0  0  0  0
   37.4780   24.3350   42.0060 C   0  0  0  0  0  0  0  0  0  0  0  0
   37.0580   25.6700   41.9770 C   0  0  0  0  0  0  0  0  0  0  0  0
   37.5610   26.5700   41.0620 C   0  0  0  0  0  0  0  0  0  0  0  0
   38.4820   26.0550   40.2090 N   0  0  0  0  0  0  0  0  0  0  0  0
   38.8970   24.7760   40.2250 C   0  0  0  0  0  0  0  0  0  0  0  0
   38.3870   23.9200   41.1310 N   0  0  0  0  0  0  0  0  0  0  0  0
   37.0760   23.6330   42.7310 H   0  0  0  0  0  0  0  0  0  0  0  0
   36.3150   25.9860   42.7000 H   0  0  0  0  0  0  0  0  0  0  0  0
   39.6410   24.5680   39.4570 H   0  0  0  0  0  0  0  0  0  0  0  0
   39.2460   28.5310   42.0040 O   0  0  0  0  0  0  0  0  0  0  0  0
   40.0320   28.5600   41.3880 H   0  0  0  0  0  0  0  0  0  0  0  0
   38.6410   31.1600   41.9660 O   0  0  0  0  0  0  0  0  0  0  0  0
   39.2290   32.1480   41.2660 C   0  0  0  0  0  0  0  0  0  0  0  0
   38.6840   33.2960   40.7290 C   0  0  0  0  0  0  0  0  0  0  0  0
   39.4780   34.1690   40.0480 C   0  0  0  0  0  0  0  0  0  0  0  0
   40.8540   33.8250   39.9350 C   0  0  0  0  0  0  0  0  0  0  0  0
   40.9680   32.2470   40.8170 S   0  0  0  0  0  0  0  0  0  0  0  0
   37.6300   33.4980   40.8520 H   0  0  0  0  0  0  0  0  0  0  0  0
   39.2160   35.0820   39.5820 H   0  0  0  0  0  0  0  0  0  0  0  0
   41.9230   34.2710   37.8210 C   0  0  1  0  0  3  0  0  0  0  0  0
   41.9980   34.4450   39.3200 C   0  0  2  0  0  3  0  0  0  0  0  0
   43.2610   33.7500   39.7110 C   0  0  0  0  0  3  0  0  0  0  0  0
   43.0400   32.7990   40.2740 H   0  0  0  0  0  0  0  0  0  0  0  0
   43.9280   33.3500   38.5730 O   0  0  0  0  0  0  0  0  0  0  0  0
   43.3450   33.9370   37.4690 C   0  0  0  0  0  3  0  0  0  0  0  0
   43.8760   34.8120   37.0670 H   0  0  0  0  0  0  0  0  0  0  0  0
   41.0840   33.2300   37.4960 O   0  0  0  0  0  0  0  0  0  0  0  0
   40.1890   33.5440   37.2190 H   0  0  0  0  0  0  0  0  0  0  0  0
  1 19  1  0  0  0  0
  2 12  1  0  0  0  0
  2  1  2  0  0  0  0
  3  2  1  0  0  0  0
  4  3  2  0  0  0  0
  4  5  1  0  0  0  0
  5  6  2  0  0  0  0
  6  1  1  0  0  0  0
  6 21  1  0  0  0  0
  7  3  1  0  0  0  0
  8  4  1  0  0  0  0
  9  5  1  0  0  0  0
 10 16  1  0  0  0  0
 11 10  1  0  0  0  0
 11 17  1  0  0  0  0
 12 11  2  0  0  0  0
 13 14  2  0  0  0  0
 13 12  1  0  0  0  0
 14 15  1  0  0  0  0
 15 10  2  0  0  0  0
 18 14  1  0  0  0  0
 20 19  1  0  0  0  0
 22 21  1  0  0  0  0
 23 27  1  0  0  0  0
 23 22  2  0  0  0  0
 24 23  1  0  0  0  0
 25 24  2  0  0  0  0
 25 26  1  0  0  0  0
 26 22  1  0  0  0  0
 28 24  1  0  0  0  0
 29 36  1  1  0  0  0
 29 30  1  0  0  0  0
 30 31  1  0  0  0  0
 30 25  1  1  0  0  0
 31 32  1  0  0  0  0
 33 31  1  0  0  0  0
 34 29  1  0  0  0  0
 34 33  1  0  0  0  0
 35 34  1  0  0  0  0
 37 36  1  0  0  0  0
M  END
>  <minimizedAffinity>
-5.97962189

$$$$

 OpenBabel03242513323D

 37 40  0  0  1  0  0  0  0  0999 V2000
   37.0600   27.3240   40.5190 C   0  0  0  0  0  0  0  0  0  0  0  0
   37.1230   26.2690   41.4030 C   0  0  0  0  0  0  0  0  0  0  0  0
   37.1270   26.5780   42.7370 C   0  0  0  0  0  0  0  0  0  0  0  0
   37.0690   27.8850   43.1870 C   0  0  0  0  0  0  0  0  0  0  0  0
   37.0070   28.9240   42.2980 C   0  0  0  0  0  0  0  0  0  0  0  0
   37.0010   28.6540   40.9220 C   0  0  0  0  0  0  0  0  0  0  0  0
   37.1770   25.7350   43.4270 H   0  0  0  0  0  0  0  0  0  0  0  0
   37.0780   28.0290   44.2600 H   0  0  0  0  0  0  0  0  0  0  0  0
   36.9630   29.9480   42.6330 H   0  0  0  0  0  0  0  0  0  0  0  0
   38.2520   22.7740   40.5780 C   0  0  0  0  0  0  0  0  0  0  0  0
   38.2310   24.0700   41.1070 C   0  0  0  0  0  0  0  0  0  0  0  0
   37.1800   24.9310   40.8780 C   0  0  0  0  0  0  0  0  0  0  0  0
   36.1870   24.4190   40.1080 N   0  0  0  0  0  0  0  0  0  0  0  0
   36.1920   23.1780   39.5920 C   0  0  0  0  0  0  0  0  0  0  0  0
   37.2330   22.3590   39.8330 N   0  0  0  0  0  0  0  0  0  0  0  0
   39.0850   22.1010   40.7640 H   0  0  0  0  0  0  0  0  0  0  0  0
   39.0730   24.3860   41.7120 H   0  0  0  0  0  0  0  0  0  0  0  0
   35.3000   22.9650   39.0030 H   0  0  0  0  0  0  0  0  0  0  0  0
   37.0530   27.0700   39.1510 O   0  0  0  0  0  0  0  0  0  0  0  0
   36.1620   27.0280   38.7000 H   0  0  0  0  0  0  0  0  0  0  0  0
   36.9410   29.6390   39.9670 O   0  0  0  0  0  0  0  0  0  0  0  0
   37.6420   30.7870   39.9880 C   0  0  0  0  0  0  0  0  0  0  0  0
   37.2670   32.0450   40.4120 C   0  0  0  0  0  0  0  0  0  0  0  0
   38.1530   33.0770   40.3410 C   0  0  0  0  0  0  0  0  0  0  0  0
   39.4420   32.7770   39.8180 C   0  0  0  0  0  0  0  0  0  0  0  0
   39.3430   31.0080   39.4420 S   0  0  0  0  0  0  0  0  0  0  0  0
   36.2710   32.2050   40.8000 H   0  0  0  0  0  0  0  0  0  0  0  0
   38.0200   34.0880   40.6220 H   0  0  0  0  0  0  0  0  0  0  0  0
   41.6690   33.2190   40.6270 C   0  0  1  0  0  3  0  0  0  0  0  0
   40.6340   33.5470   39.5770 C   0  0  2  0  0  3  0  0  0  0  0  0
   40.3740   35.0080   39.7550 C   0  0  0  0  0  3  0  0  0  0  0  0
   39.3490   35.1850   40.1900 H   0  0  0  0  0  0  0  0  0  0  0  0
   41.2560   35.5130   40.6860 O   0  0  0  0  0  0  0  0  0  0  0  0
   42.2320   34.5740   40.9510 C   0  0  0  0  0  3  0  0  0  0  0  0
   43.1940   34.7420   40.4460 H   0  0  0  0  0  0  0  0  0  0  0  0
   41.0740   32.6620   41.7360 O   0  0  0  0  0  0  0  0  0  0  0  0
   41.1600   31.6770   41.7510 H   0  0  0  0  0  0  0  0  0  0  0  0
  1  6  2  0  0  0  0
  1  2  1  0  0  0  0
  2  3  2  0  0  0  0
  3  4  1  0  0  0  0
  3  7  1  0  0  0  0
  4  8  1  0  0  0  0
  5  9  1  0  0  0  0
  5  4  2  0  0  0  0
  6  5  1  0  0  0  0
 10 16  1  0  0  0  0
 10 11  1  0  0  0  0
 11 17  1  0  0  0  0
 12 11  2  0  0  0  0
 12  2  1  0  0  0  0
 13 12  1  0  0  0  0
 14 15  1  0  0  0  0
 14 13  2  0  0  0  0
 15 10  2  0  0  0  0
 18 14  1  0  0  0  0
 19  1  1  0  0  0  0
 20 19  1  0  0  0  0
 21 22  1  0  0  0  0
 21  6  1  0  0  0  0
 22 23  2  0  0  0  0
 23 27  1  0  0  0  0
 24 23  1  0  0  0  0
 24 28  1  0  0  0  0
 25 24  2  0  0  0  0
 26 25  1  0  0  0  0
 26 22  1  0  0  0  0
 29 34  1  0  0  0  0
 29 36  1  1  0  0  0
 30 31  1  0  0  0  0
 30 25  1  1  0  0  0
 30 29  1  0  0  0  0
 31 32  1  0  0  0  0
 31 33  1  0  0  0  0
 33 34  1  0  0  0  0
 35 34  1  0  0  0  0
 36 37  1  0  0  0  0
M  END
>  <minimizedAffinity>
-5.96780252

$$$$

 OpenBabel03242513323D

 37 40  0  0  1  0  0  0  0  0999 V2000
   37.5340   30.4750   40.6250 C   0  0  0  0  0  0  0  0  0  0  0  0
   37.0660   29.2920   40.0940 C   0  0  0  0  0  0  0  0  0  0  0  0
   36.5880   29.3350   38.8120 C   0  0  0  0  0  0  0  0  0  0  0  0
   36.5710   30.5050   38.0740 C   0  0  0  0  0  0  0  0  0  0  0  0
   37.0390   31.6730   38.6130 C   0  0  0  0  0  0  0  0  0  0  0  0
   37.5390   31.6760   39.9230 C   0  0  0  0  0  0  0  0  0  0  0  0
   36.2200   28.3930   38.4030 H   0  0  0  0  0  0  0  0  0  0  0  0
   36.1730   30.4390   37.0690 H   0  0  0  0  0  0  0  0  0  0  0  0
   37.0320   32.5930   38.0510 H   0  0  0  0  0  0  0  0  0  0  0  0
   37.6660   25.7770   41.3020 C   0  0  0  0  0  0  0  0  0  0  0  0
   37.6420   26.9100   40.4800 C   0  0  0  0  0  0  0  0  0  0  0  0
   37.1080   28.1070   40.9080 C   0  0  0  0  0  0  0  0  0  0  0  0
   36.6180   28.0880   42.1740 N   0  0  0  0  0  0  0  0  0  0  0  0
   36.6320   27.0080   42.9740 C   0  0  0  0  0  0  0  0  0  0  0  0
   37.1600   25.8520   42.5290 N   0  0  0  0  0  0  0  0  0  0  0  0
   38.0870   24.8380   40.9560 H   0  0  0  0  0  0  0  0  0  0  0  0
   38.0590   26.8260   39.4840 H   0  0  0  0  0  0  0  0  0  0  0  0
   36.1890   27.2050   43.9510 H   0  0  0  0  0  0  0  0  0  0  0  0
   38.0330   30.4920   41.9240 O   0  0  0  0  0  0  0  0  0  0  0  0
   39.0210   30.3980   42.0330 H   0  0  0  0  0  0  0  0  0  0  0  0
   38.0250   32.8050   40.5350 O   0  0  0  0  0  0  0  0  0  0  0  0
   39.1850   33.4160   40.2330 C   0  0  0  0  0  0  0  0  0  0  0  0
   39.4700   34.7600   40.1080 C   0  0  0  0  0  0  0  0  0  0  0  0
   40.7330   35.1580   39.7890 C   0  0  0  0  0  0  0  0  0  0  0  0
   41.6990   34.1300   39.6020 C   0  0  0  0  0  0  0  0  0  0  0  0
   40.7570   32.6100   39.8910 S   0  0  0  0  0  0  0  0  0  0  0  0
   38.6900   35.4900   40.2650 H   0  0  0  0  0  0  0  0  0  0  0  0
   41.1080   36.1390   39.6580 H   0  0  0  0  0  0  0  0  0  0  0  0
   43.2670   34.3540   37.7850 C   0  0  1  0  0  3  0  0  0  0  0  0
   43.0990   34.1140   39.2670 C   0  0  2  0  0  3  0  0  0  0  0  0
   43.6890   32.7600   39.4930 C   0  0  0  0  0  3  0  0  0  0  0  0
   42.8860   32.0040   39.7260 H   0  0  0  0  0  0  0  0  0  0  0  0
   44.2730   32.3220   38.3240 O   0  0  0  0  0  0  0  0  0  0  0  0
   44.3390   33.3650   37.4230 C   0  0  0  0  0  3  0  0  0  0  0  0
   45.3210   33.8490   37.3360 H   0  0  0  0  0  0  0  0  0  0  0  0
   42.1000   34.0740   37.1130 O   0  0  0  0  0  0  0  0  0  0  0  0
   41.5870   34.8920   36.8990 H   0  0  0  0  0  0  0  0  0  0  0  0
  1 19  1  0  0  0  0
  2  1  1  0  0  0  0
  2 12  1  0  0  0  0
  3  2  2  0  0  0  0
  4  5  2  0  0  0  0
  4  3  1  0  0  0  0
  5  6  1  0  0  0  0
  6 21  1  0  0  0  0
  6  1  2  0  0  0  0
  7  3  1  0  0  0  0
  8  4  1  0  0  0  0
  9  5  1  0  0  0  0
 10 15  1  0  0  0  0
 11 12  1  0  0  0  0
 11 10  2  0  0  0  0
 12 13  2  0  0  0  0
 13 14  1  0  0  0  0
 14 18  1  0  0  0  0
 15 14  2  0  0  0  0
 16 10  1  0  0  0  0
 17 11  1  0  0  0  0
 19 20  1  0  0  0  0
 22 21  1  0  0  0  0
 23 22  2  0  0  0  0
 23 27  1  0  0  0  0
 24 23  1  0  0  0  0
 25 24  2  0  0  0  0
 25 26  1  0  0  0  0
 26 22  1  0  0  0  0
 28 24  1  0  0  0  0
 29 36  1  6  0  0  0
 29 30  1  0  0  0  0
 30 31  1  0  0  0  0
 30 25  1  6  0  0  0
 31 32  1  0  0  0  0
 33 31  1  0  0  0  0
 34 29  1  0  0  0  0
 34 33  1  0  0  0  0
 35 34  1  0  0  0  0
 37 36  1  0  0  0  0
M  END
>  <minimizedAffinity>
-5.92497635

$$$$

 OpenBabel03242513323D

 37 40  0  0  1  0  0  0  0  0999 V2000
   37.0970   27.5510   40.9600 C   0  0  0  0  0  0  0  0  0  0  0  0
   37.3460   26.4500   41.7510 C   0  0  0  0  0  0  0  0  0  0  0  0
   37.5830   26.6830   43.0790 C   0  0  0  0  0  0  0  0  0  0  0  0
   37.5740   27.9590   43.6130 C   0  0  0  0  0  0  0  0  0  0  0  0
   37.3250   29.0440   42.8160 C   0  0  0  0  0  0  0  0  0  0  0  0
   37.0770   28.8530   41.4500 C   0  0  0  0  0  0  0  0  0  0  0  0
   37.7790   25.8040   43.6950 H   0  0  0  0  0  0  0  0  0  0  0  0
   37.7730   28.0420   44.6740 H   0  0  0  0  0  0  0  0  0  0  0  0
   37.3160   30.0450   43.2180 H   0  0  0  0  0  0  0  0  0  0  0  0
   38.3170   22.9690   40.6950 C   0  0  0  0  0  0  0  0  0  0  0  0
   38.3560   24.2280   41.3050 C   0  0  0  0  0  0  0  0  0  0  0  0
   37.3420   25.1480   41.1400 C   0  0  0  0  0  0  0  0  0  0  0  0
   36.3230   24.7300   40.3470 N   0  0  0  0  0  0  0  0  0  0  0  0
   36.2720   23.5250   39.7530 C   0  0  0  0  0  0  0  0  0  0  0  0
   37.2770   22.6480   39.9330 N   0  0  0  0  0  0  0  0  0  0  0  0
   39.1210   22.2510   40.8300 H   0  0  0  0  0  0  0  0  0  0  0  0
   39.2140   24.4690   41.9220 H   0  0  0  0  0  0  0  0  0  0  0  0
   35.3680   23.3890   39.1590 H   0  0  0  0  0  0  0  0  0  0  0  0
   36.8490   27.3760   39.6020 O   0  0  0  0  0  0  0  0  0  0  0  0
   35.8930   27.3260   39.3160 H   0  0  0  0  0  0  0  0  0  0  0  0
   36.8200   29.8880   40.5850 O   0  0  0  0  0  0  0  0  0  0  0  0
   37.7120   30.8180   40.1960 C   0  0  0  0  0  0  0  0  0  0  0  0
   37.5390   32.1670   39.9680 C   0  0  0  0  0  0  0  0  0  0  0  0
   38.5980   32.9290   39.5750 C   0  0  0  0  0  0  0  0  0  0  0  0
   39.8440   32.2600   39.4220 C   0  0  0  0  0  0  0  0  0  0  0  0
   39.4560   30.5430   39.8520 S   0  0  0  0  0  0  0  0  0  0  0  0
   36.5650   32.6140   40.1030 H   0  0  0  0  0  0  0  0  0  0  0  0
   38.6290   33.9650   39.3620 H   0  0  0  0  0  0  0  0  0  0  0  0
   41.1950   32.9610   37.5540 C   0  0  1  0  0  3  0  0  0  0  0  0
   41.1670   32.6750   39.0370 C   0  0  2  0  0  3  0  0  0  0  0  0
   42.1520   31.5660   39.2190 C   0  0  0  0  0  3  0  0  0  0  0  0
   41.6290   30.5990   39.4690 H   0  0  0  0  0  0  0  0  0  0  0  0
   42.7950   31.3320   38.0230 O   0  0  0  0  0  0  0  0  0  0  0  0
   42.5030   32.3480   37.1370 C   0  0  0  0  0  3  0  0  0  0  0  0
   43.2860   33.1110   37.0230 H   0  0  0  0  0  0  0  0  0  0  0  0
   40.1440   32.3400   36.9200 O   0  0  0  0  0  0  0  0  0  0  0  0
   39.3970   32.9620   36.7380 H   0  0  0  0  0  0  0  0  0  0  0  0
  1  6  2  0  0  0  0
  1  2  1  0  0  0  0
  2  3  2  0  0  0  0
  3  4  1  0  0  0  0
  3  7  1  0  0  0  0
  4  8  1  0  0  0  0
  5  9  1  0  0  0  0
  5  4  2  0  0  0  0
  6  5  1  0  0  0  0
 10 16  1  0  0  0  0
 10 11  1  0  0  0  0
 11 17  1  0  0  0  0
 12 11  2  0  0  0  0
 12  2  1  0  0  0  0
 13 12  1  0  0  0  0
 14 15  1  0  0  0  0
 14 13  2  0  0  0  0
 15 10  2  0  0  0  0
 18 14  1  0  0  0  0
 19  1  1  0  0  0  0
 20 19  1  0  0  0  0
 21  6  1  0  0  0  0
 22 21  1  0  0  0  0
 23 27  1  0  0  0  0
 23 22  2  0  0  0  0
 24 23  1  0  0  0  0
 25 24  2  0  0  0  0
 25 26  1  0  0  0  0
 26 22  1  0  0  0  0
 28 24  1  0  0  0  0
 29 36  1  6  0  0  0
 29 30  1  0  0  0  0
 30 31  1  0  0  0  0
 30 25  1  6  0  0  0
 31 32  1  0  0  0  0
 33 31  1  0  0  0  0
 34 29  1  0  0  0  0
 34 33  1  0  0  0  0
 35 34  1  0  0  0  0
 37 36  1  0  0  0  0
M  END
>  <minimizedAffinity>
-5.90265465

$$$$
