
 OpenBabel03242518543D

 42 44  0  0  1  0  0  0  0  0999 V2000
   45.7490   31.2470   46.6230 C   0  0  2  0  0  0  0  0  0  0  0  0
   45.8140   30.5000   47.9160 C   0  0  0  0  0  0  0  0  0  0  0  0
   45.0140   29.2520   47.7320 C   0  0  0  0  0  0  0  0  0  0  0  0
   44.3310   29.1130   46.4160 C   0  0  0  0  0  0  0  0  0  0  0  0
   45.3170   29.2570   45.2890 C   0  0  0  0  0  0  0  0  0  0  0  0
   46.2570   30.3490   45.5110 C   0  0  2  0  0  0  0  0  0  0  0  0
   44.6870   31.4240   46.3570 H   0  0  0  0  0  0  0  0  0  0  0  0
   46.8510   30.2890   48.2450 H   0  0  0  0  0  0  0  0  0  0  0  0
   45.4000   31.1590   48.7200 H   0  0  0  0  0  0  0  0  0  0  0  0
   45.5430   28.3160   48.0380 H   0  0  0  0  0  0  0  0  0  0  0  0
   44.1720   29.3030   48.4890 H   0  0  0  0  0  0  0  0  0  0  0  0
   43.9210   28.0820   46.3800 H   0  0  0  0  0  0  0  0  0  0  0  0
   43.4570   29.7960   46.3350 H   0  0  0  0  0  0  0  0  0  0  0  0
   44.6810   29.5350   44.3900 H   0  0  0  0  0  0  0  0  0  0  0  0
   45.7110   28.2640   45.0220 H   0  0  0  0  0  0  0  0  0  0  0  0
   46.4560   31.0030   44.6360 H   0  0  0  0  0  0  0  0  0  0  0  0
   47.5480   29.7190   45.9030 C   0  0  0  0  0  0  0  0  0  0  0  0
   47.4730   28.6050   45.9860 H   0  0  0  0  0  0  0  0  0  0  0  0
   47.8810   30.0500   46.9140 H   0  0  0  0  0  0  0  0  0  0  0  0
   49.5410   29.3550   42.8320 C   0  0  1  0  0  3  0  0  0  0  0  0
   48.7860   28.7350   43.9910 C   0  0  0  0  0  3  0  0  0  0  0  0
   49.3640   27.9250   44.4730 H   0  0  0  0  0  0  0  0  0  0  0  0
   48.6570   29.9450   44.9030 C   0  0  1  0  0  3  0  0  0  0  0  0
   48.2910   30.9450   43.9900 O   0  0  0  0  0  0  0  0  0  0  0  0
   48.9680   30.7440   42.8200 C   0  0  0  0  0  3  0  0  0  0  0  0
   49.6870   31.5330   42.5360 H   0  0  0  0  0  0  0  0  0  0  0  0
   50.9040   29.3650   43.0790 O   0  0  0  0  0  0  0  0  0  0  0  0
   51.1780   29.9110   43.8490 H   0  0  0  0  0  0  0  0  0  0  0  0
   46.4480   32.5580   46.6540 C   0  0  0  0  0  0  0  0  0  0  0  0
   47.3920   32.8210   47.4420 O   0  0  0  0  0  0  0  0  0  0  0  0
   44.5980   35.3450   45.1840 C   0  0  0  0  0  0  0  0  0  0  0  0
   45.1200   35.4640   43.8720 C   0  0  0  0  0  0  0  0  0  0  0  0
   46.1160   34.5680   43.5280 C   0  0  0  0  0  0  0  0  0  0  0  0
   46.4620   33.7010   44.4810 N   0  0  0  0  0  0  0  0  0  0  0  0
   45.9850   33.5820   45.6990 C   0  0  0  0  0  0  0  0  0  0  0  0
   45.0170   34.4380   46.0600 N   0  0  0  0  0  0  0  0  0  0  0  0
   43.8050   36.0450   45.4830 H   0  0  0  0  0  0  0  0  0  0  0  0
   44.7520   36.2080   43.2050 H   0  0  0  0  0  0  0  0  0  0  0  0
   46.6550   34.6740   42.1820 C   0  0  0  0  0  0  0  0  0  0  0  0
   47.3450   33.5090   41.8590 F   0  0  0  0  0  0  0  0  0  0  0  0
   47.5260   35.7140   42.1830 F   0  0  0  0  0  0  0  0  0  0  0  0
   45.6570   34.7940   41.2220 F   0  0  0  0  0  0  0  0  0  0  0  0
  1  7  1  6  0  0  0
  1 29  1  0  0  0  0
  1  2  1  0  0  0  0
  2  8  1  0  0  0  0
  2  9  1  0  0  0  0
  3  2  1  0  0  0  0
  3 10  1  0  0  0  0
  3 11  1  0  0  0  0
  4  3  1  0  0  0  0
  5  6  1  0  0  0  0
  5  4  1  0  0  0  0
  6 16  1  6  0  0  0
  6 17  1  0  0  0  0
  6  1  1  0  0  0  0
 12  4  1  0  0  0  0
 13  4  1  0  0  0  0
 14  5  1  0  0  0  0
 15  5  1  0  0  0  0
 17 18  1  0  0  0  0
 17 19  1  0  0  0  0
 20 27  1  1  0  0  0
 20 21  1  0  0  0  0
 21 22  1  0  0  0  0
 21 23  1  0  0  0  0
 23 17  1  1  0  0  0
 24 23  1  0  0  0  0
 25 20  1  0  0  0  0
 25 24  1  0  0  0  0
 26 25  1  0  0  0  0
 27 28  1  0  0  0  0
 29 30  2  0  0  0  0
 31 37  1  0  0  0  0
 31 36  1  0  0  0  0
 32 31  2  0  0  0  0
 33 32  1  0  0  0  0
 33 34  2  0  0  0  0
 34 35  1  0  0  0  0
 35 36  2  0  0  0  0
 35 29  1  0  0  0  0
 38 32  1  0  0  0  0
 39 41  1  0  0  0  0
 39 33  1  0  0  0  0
 40 39  1  0  0  0  0
 42 39  1  0  0  0  0
M  END
>  <minimizedAffinity>
-5.17169523

>  <minimizedRMSD>
1.04168594

$$$$
