
 OpenBabel03242521463D

 47 50  0  0  1  0  0  0  0  0999 V2000
   45.0520   37.0990   43.0600 C   0  0  0  0  0  0  0  0  0  0  0  0
   44.1170   36.9060   42.5050 H   0  0  0  0  0  0  0  0  0  0  0  0
   45.9070   37.3470   42.4140 H   0  0  0  0  0  0  0  0  0  0  0  0
   45.3980   35.8460   43.8350 C   0  0  0  0  0  0  0  0  0  0  0  0
   46.3940   35.0030   43.3230 C   0  0  0  0  0  0  0  0  0  0  0  0
   46.7380   33.8390   44.0320 C   0  0  0  0  0  0  0  0  0  0  0  0
   46.0950   33.5960   45.1590 N   0  0  0  0  0  0  0  0  0  0  0  0
   45.1340   34.4190   45.6430 C   0  0  0  0  0  0  0  0  0  0  0  0
   44.7840   35.5440   44.9830 N   0  0  0  0  0  0  0  0  0  0  0  0
   46.8390   35.3110   42.3990 H   0  0  0  0  0  0  0  0  0  0  0  0
   44.6320   34.1720   46.5810 H   0  0  0  0  0  0  0  0  0  0  0  0
   48.8180   33.7400   42.6710 C   0  0  2  0  0  0  0  0  0  0  0  0
   47.7780   33.0240   43.4290 C   0  0  2  0  0  0  0  0  0  0  0  0
   47.2910   32.0940   42.4410 O   0  0  0  0  0  0  0  0  0  0  0  0
   48.4950   31.5220   42.0350 C   0  0  0  0  0  0  0  0  0  0  0  0
   49.5980   32.5140   42.1440 C   0  0  1  0  0  0  0  0  0  0  0  0
   48.4220   34.2230   41.7480 H   0  0  0  0  0  0  0  0  0  0  0  0
   48.2510   32.3470   44.1910 H   0  0  0  0  0  0  0  0  0  0  0  0
   48.4220   31.0830   41.0370 H   0  0  0  0  0  0  0  0  0  0  0  0
   48.7260   30.6740   42.7320 H   0  0  0  0  0  0  0  0  0  0  0  0
   50.3470   32.2890   42.9400 H   0  0  0  0  0  0  0  0  0  0  0  0
   49.5690   34.6180   43.3690 O   0  0  0  0  0  0  0  0  0  0  0  0
   49.3420   35.5550   43.1370 H   0  0  0  0  0  0  0  0  0  0  0  0
   50.1940   32.8540   40.9250 O   0  0  0  0  0  0  0  0  0  0  0  0
   51.1360   32.6080   41.0100 H   0  0  0  0  0  0  0  0  0  0  0  0
   45.2550   39.4950   44.0080 C   0  0  0  0  0  0  0  0  0  0  0  0
   45.8420   39.8500   42.9360 O   0  0  0  0  0  0  0  0  0  0  0  0
   44.8290   38.1410   44.0480 N   0  0  0  0  0  0  0  0  0  0  0  0
   44.2800   37.8590   44.9110 H   0  0  0  0  0  0  0  0  0  0  0  0
   45.0180   40.3840   45.1340 C   0  0  0  0  0  0  0  0  0  0  0  0
   45.0120   39.8870   46.3960 C   0  0  0  0  0  0  0  0  0  0  0  0
   44.7800   40.8000   47.4200 C   0  0  0  0  0  0  0  0  0  0  0  0
   44.5580   42.1590   47.2180 C   0  0  0  0  0  0  0  0  0  0  0  0
   44.5790   42.5740   45.9220 C   0  0  0  0  0  0  0  0  0  0  0  0
   44.8020   41.7070   44.9360 N   0  0  0  0  0  0  0  0  0  0  0  0
   45.1780   38.8380   46.6400 H   0  0  0  0  0  0  0  0  0  0  0  0
   44.7630   40.4570   48.4630 H   0  0  0  0  0  0  0  0  0  0  0  0
   44.3810   42.8260   48.0490 H   0  0  0  0  0  0  0  0  0  0  0  0
   45.1330   44.8680   46.5480 C   0  0  1  0  0  3  0  0  0  0  0  0
   44.3530   44.0200   45.5710 C   0  0  1  0  0  3  0  0  0  0  0  0
   44.9740   44.3740   44.2630 C   0  0  0  0  0  3  0  0  0  0  0  0
   44.8710   43.5480   43.5260 H   0  0  0  0  0  0  0  0  0  0  0  0
   46.2900   44.7370   44.5080 O   0  0  0  0  0  0  0  0  0  0  0  0
   46.3660   45.2120   45.7920 C   0  0  0  0  0  3  0  0  0  0  0  0
   47.2690   44.8540   46.3540 H   0  0  0  0  0  0  0  0  0  0  0  0
   44.4140   46.0390   46.8100 O   0  0  0  0  0  0  0  0  0  0  0  0
   44.7410   46.7920   46.2410 H   0  0  0  0  0  0  0  0  0  0  0  0
  1  4  1  0  0  0  0
  1 28  1  0  0  0  0
  2  1  1  0  0  0  0
  3  1  1  0  0  0  0
  4  9  1  0  0  0  0
  5  4  2  0  0  0  0
  5  6  1  0  0  0  0
  6  7  2  0  0  0  0
  7  8  1  0  0  0  0
  8 11  1  0  0  0  0
  9  8  2  0  0  0  0
 10  5  1  0  0  0  0
 12 17  1  6  0  0  0
 12 22  1  0  0  0  0
 12 13  1  0  0  0  0
 13  6  1  0  0  0  0
 13 18  1  1  0  0  0
 14 13  1  0  0  0  0
 15 16  1  0  0  0  0
 15 14  1  0  0  0  0
 15 20  1  0  0  0  0
 16 12  1  0  0  0  0
 16 21  1  1  0  0  0
 19 15  1  0  0  0  0
 23 22  1  0  0  0  0
 24 25  1  0  0  0  0
 24 16  1  0  0  0  0
 26 28  1  0  0  0  0
 26 30  1  0  0  0  0
 27 26  2  0  0  0  0
 28 29  1  0  0  0  0
 30 31  1  0  0  0  0
 31 36  1  0  0  0  0
 31 32  2  0  0  0  0
 32 37  1  0  0  0  0
 33 32  1  0  0  0  0
 33 38  1  0  0  0  0
 34 33  2  0  0  0  0
 35 30  2  0  0  0  0
 35 34  1  0  0  0  0
 39 46  1  6  0  0  0
 40 34  1  1  0  0  0
 40 39  1  0  0  0  0
 41 43  1  0  0  0  0
 41 40  1  0  0  0  0
 42 41  1  0  0  0  0
 43 44  1  0  0  0  0
 44 45  1  0  0  0  0
 44 39  1  0  0  0  0
 47 46  1  0  0  0  0
M  END
>  <minimizedAffinity>
-0.692611516

>  <minimizedRMSD>
0.594959855

$$$$
