
 OpenBabel03252509163D

 25 27  0  0  1  0  0  0  0  0999 V2000
   46.0640   32.3220   44.5640 C   0  0  0  0  0  0  0  0  0  0  0  0
   46.7460   33.5650   44.4700 C   0  0  0  0  0  0  0  0  0  0  0  0
   46.3930   34.4300   43.5010 C   0  0  0  0  0  0  0  0  0  0  0  0
   45.3540   34.0740   42.6080 C   0  0  0  0  0  0  0  0  0  0  0  0
   44.8660   32.4160   43.1930 S   0  0  0  0  0  0  0  0  0  0  0  0
   47.5310   33.8060   45.1640 H   0  0  0  0  0  0  0  0  0  0  0  0
   46.8000   35.3830   43.3010 H   0  0  0  0  0  0  0  0  0  0  0  0
   47.3960   30.3470   47.4070 C   0  0  0  0  0  0  0  0  0  0  0  0
   46.6280   29.1680   47.2640 C   0  0  0  0  0  0  0  0  0  0  0  0
   45.6970   29.1040   46.2100 C   0  0  0  0  0  0  0  0  0  0  0  0
   45.5900   30.1960   45.3800 N   0  0  0  0  0  0  0  0  0  0  0  0
   46.3530   31.2960   45.5680 C   0  0  0  0  0  0  0  0  0  0  0  0
   47.2570   31.3810   46.5760 N   0  0  0  0  0  0  0  0  0  0  0  0
   48.1100   30.3920   48.2170 H   0  0  0  0  0  0  0  0  0  0  0  0
   46.7170   28.3120   47.9210 H   0  0  0  0  0  0  0  0  0  0  0  0
   45.0680   28.2450   46.0240 H   0  0  0  0  0  0  0  0  0  0  0  0
   43.1930   34.4960   41.6550 C   0  0  2  0  0  3  0  0  0  0  0  0
   44.6910   34.6510   41.4950 C   0  0  2  0  0  3  0  0  0  0  0  0
   44.9320   33.8360   40.2630 C   0  0  0  0  0  3  0  0  0  0  0  0
   45.1880   32.7660   40.4660 H   0  0  0  0  0  0  0  0  0  0  0  0
   43.8020   33.9300   39.4620 O   0  0  0  0  0  0  0  0  0  0  0  0
   42.7960   34.5530   40.1790 C   0  0  0  0  0  3  0  0  0  0  0  0
   42.7470   35.6260   39.8730 H   0  0  0  0  0  0  0  0  0  0  0  0
   42.6290   35.5790   42.3240 O   0  0  0  0  0  0  0  0  0  0  0  0
   43.3290   36.1960   42.6430 H   0  0  0  0  0  0  0  0  0  0  0  0
  1 12  1  0  0  0  0
  2  1  2  0  0  0  0
  2  6  1  0  0  0  0
  3  2  1  0  0  0  0
  4  5  1  0  0  0  0
  4  3  2  0  0  0  0
  5  1  1  0  0  0  0
  7  3  1  0  0  0  0
  8 14  1  0  0  0  0
  9  8  1  0  0  0  0
  9 15  1  0  0  0  0
 10  9  2  0  0  0  0
 11 12  2  0  0  0  0
 11 10  1  0  0  0  0
 12 13  1  0  0  0  0
 13  8  2  0  0  0  0
 16 10  1  0  0  0  0
 17 24  1  1  0  0  0
 18 17  1  0  0  0  0
 18  4  1  1  0  0  0
 19 20  1  0  0  0  0
 19 18  1  0  0  0  0
 21 22  1  0  0  0  0
 21 19  1  0  0  0  0
 22 17  1  0  0  0  0
 23 22  1  0  0  0  0
 24 25  1  0  0  0  0
M  END
>  <minimizedAffinity>
-4.01566982

>  <minimizedRMSD>
7.90423155

$$$$
