
 OpenBabel03242523223D

 43 46  0  0  1  0  0  0  0  0999 V2000
   47.2390   32.7760   44.2040 C   0  0  0  0  0  0  0  0  0  0  0  0
   47.9580   33.0750   43.1270 C   0  0  0  0  0  0  0  0  0  0  0  0
   48.7840   32.0610   42.6900 C   0  0  0  0  0  0  0  0  0  0  0  0
   48.7860   30.8510   43.4010 N   0  0  0  0  0  0  0  0  0  0  0  0
   48.0570   30.6220   44.4540 C   0  0  0  0  0  0  0  0  0  0  0  0
   47.2150   31.6120   44.9230 N   0  0  0  0  0  0  0  0  0  0  0  0
   49.4640   32.0460   41.8500 H   0  0  0  0  0  0  0  0  0  0  0  0
   48.1550   29.6350   44.9160 H   0  0  0  0  0  0  0  0  0  0  0  0
   48.0480   34.3240   42.4690 C   0  0  1  0  0  0  0  0  0  0  0  0
   48.9220   34.7230   41.5060 C   0  0  0  0  0  0  0  0  0  0  0  0
   47.5370   34.4560   41.0050 C   0  0  1  0  0  0  0  0  0  0  0  0
   47.7320   35.1700   43.1400 H   0  0  0  0  0  0  0  0  0  0  0  0
   49.7420   34.0170   41.1780 H   0  0  0  0  0  0  0  0  0  0  0  0
   49.2710   35.7550   41.2740 H   0  0  0  0  0  0  0  0  0  0  0  0
   46.8600   35.3210   40.8490 H   0  0  0  0  0  0  0  0  0  0  0  0
   46.1810   33.3000   39.2010 C   0  0  1  0  0  0  0  0  0  0  0  0
   47.3800   33.3270   40.0960 C   0  0  1  0  0  0  0  0  0  0  0  0
   48.5160   33.3920   39.1030 C   0  0  0  0  0  0  0  0  0  0  0  0
   49.3890   33.9080   39.5540 H   0  0  0  0  0  0  0  0  0  0  0  0
   48.0110   34.1670   38.0820 O   0  0  0  0  0  0  0  0  0  0  0  0
   46.7160   33.6910   37.8630 C   0  0  0  0  0  0  0  0  0  0  0  0
   46.0650   34.4690   37.4320 H   0  0  0  0  0  0  0  0  0  0  0  0
   45.7570   31.9600   39.0960 O   0  0  0  0  0  0  0  0  0  0  0  0
   45.9750   31.5550   38.2280 H   0  0  0  0  0  0  0  0  0  0  0  0
   46.2240   33.6370   44.8480 C   0  0  0  0  0  0  0  0  0  0  0  0
   45.6820   34.1470   45.7860 O   0  0  0  0  0  0  0  0  0  0  0  0
   44.4830   31.7710   43.1100 Cl  0  0  0  0  0  0  0  0  0  0  0  0
   44.5200   33.5130   42.8840 C   0  0  0  0  0  0  0  0  0  0  0  0
   45.3620   34.2280   43.7750 C   0  0  0  0  0  0  0  0  0  0  0  0
   45.3000   35.5750   43.5020 C   0  0  0  0  0  0  0  0  0  0  0  0
   44.6170   36.2490   42.5880 C   0  0  0  0  0  0  0  0  0  0  0  0
   43.8240   35.4870   41.7570 C   0  0  0  0  0  0  0  0  0  0  0  0
   43.7690   34.1320   41.8990 C   0  0  0  0  0  0  0  0  0  0  0  0
   45.8900   36.2610   44.1550 H   0  0  0  0  0  0  0  0  0  0  0  0
   44.6360   37.3280   42.4460 H   0  0  0  0  0  0  0  0  0  0  0  0
   43.2390   36.0110   40.9800 H   0  0  0  0  0  0  0  0  0  0  0  0
   42.9420   33.4900   41.0160 O   0  0  0  0  0  0  0  0  0  0  0  0
   40.7390   32.7200   39.8180 O   0  0  0  0  0  0  0  0  0  0  0  0
   41.3050   33.0700   41.1720 P   0  0  0  0  0  0  0  0  0  0  0  0
   41.1590   31.7730   42.2520 O   0  0  0  0  0  0  0  0  0  0  0  0
   41.2510   32.0770   43.1740 H   0  0  0  0  0  0  0  0  0  0  0  0
   40.4070   34.3330   41.8570 O   0  0  0  0  0  0  0  0  0  0  0  0
   39.5380   33.9670   42.1670 H   0  0  0  0  0  0  0  0  0  0  0  0
  1 25  1  0  0  0  0
  1  6  1  0  0  0  0
  2  1  2  0  0  0  0
  3  2  1  0  0  0  0
  3  4  2  0  0  0  0
  4  5  1  0  0  0  0
  5  8  1  0  0  0  0
  5  6  2  0  0  0  0
  7  3  1  0  0  0  0
  9  2  1  0  0  0  0
  9 12  1  1  0  0  0
 10  9  1  0  0  0  0
 11 15  1  6  0  0  0
 11 10  1  0  0  0  0
 11  9  1  0  0  0  0
 13 10  1  0  0  0  0
 14 10  1  0  0  0  0
 16 23  1  6  0  0  0
 16 17  1  0  0  0  0
 17 18  1  6  0  0  0
 17 11  1  0  0  0  0
 18 19  1  0  0  0  0
 20 18  1  0  0  0  0
 21 20  1  0  0  0  0
 21 16  1  0  0  0  0
 22 21  1  0  0  0  0
 24 23  1  0  0  0  0
 25 26  2  0  0  0  0
 28 27  1  0  0  0  0
 28 29  1  0  0  0  0
 29 25  1  0  0  0  0
 30 29  2  0  0  0  0
 30 34  1  0  0  0  0
 31 30  1  0  0  0  0
 32 33  1  0  0  0  0
 32 31  2  0  0  0  0
 33 28  2  0  0  0  0
 35 31  1  0  0  0  0
 36 32  1  0  0  0  0
 37 39  1  0  0  0  0
 37 33  1  0  0  0  0
 38 39  2  0  0  0  0
 39 42  1  0  0  0  0
 39 40  1  0  0  0  0
 40 41  1  0  0  0  0
 42 43  1  0  0  0  0
M  END
>  <minimizedAffinity>
-5.77517128

>  <minimizedRMSD>
0.786570668

$$$$
