
     RDKit          3D

 28 29  0  0  0  0  0  0  0  0999 V2000
   44.5765   35.9808   44.5146 C   0  0  0  0  0  0  0  0  0  0  0  0
   45.2168   36.0007   43.2529 C   0  0  0  0  0  0  0  0  0  0  0  0
   46.0993   34.9573   42.9767 C   0  0  0  0  0  0  0  0  0  0  0  0
   46.2999   33.9941   43.9054 N   0  0  0  0  0  0  0  0  0  0  0  0
   45.6723   34.0076   45.0969 C   0  0  0  0  0  0  0  0  0  0  0  0
   44.8110   35.0014   45.4000 N   0  0  0  0  0  0  0  0  0  0  0  0
   46.7243   34.9809   41.7398 O   0  0  0  0  0  0  0  0  0  0  0  0
   48.6438   33.3264   40.9628 O   0  0  0  0  0  0  0  0  0  0  0  0
   48.4088   34.6810   41.6314 P   0  0  0  0  0  0  0  0  0  0  0  0
   49.1245   35.9206   40.7816 O   0  0  0  0  0  0  0  0  0  0  0  0
   48.9977   34.5903   43.2188 O   0  0  0  0  0  0  0  0  0  0  0  0
   43.8754   36.7659   44.7939 H   0  0  0  0  0  0  0  0  0  0  0  0
   44.9730   36.8226   42.6005 H   0  0  0  0  0  0  0  0  0  0  0  0
   48.5979   36.7349   40.8979 H   0  0  0  0  0  0  0  0  0  0  0  0
   49.5720   35.3535   43.4526 H   0  0  0  0  0  0  0  0  0  0  0  0
   44.7484   31.0097   45.2752 O   0  0  0  0  0  0  0  0  0  0  0  0
   45.9641   31.5711   45.5879 C   0  0  1  0  0  0  0  0  0  0  0  0
   45.8634   32.9822   46.1289 C   0  0  1  0  0  0  0  0  0  0  0  0
   47.2654   33.0782   46.7452 C   0  0  2  0  0  0  0  0  0  0  0  0
   47.2299   33.8447   47.5465 H   0  0  0  0  0  0  0  0  0  0  0  0
   47.6125   31.8272   47.1641 O   0  0  0  0  0  0  0  0  0  0  0  0
   46.6255   30.9232   46.8046 C   0  0  1  0  0  0  0  0  0  0  0  0
   45.8554   30.9508   47.6179 H   0  0  0  0  0  0  0  0  0  0  0  0
   44.5778   30.2154   45.8431 H   0  0  0  0  0  0  0  0  0  0  0  0
   46.7048   31.4821   44.7766 H   0  0  0  0  0  0  0  0  0  0  0  0
   45.1009   32.9880   46.9247 H   0  0  0  0  0  0  0  0  0  0  0  0
   47.9106   33.4662   45.9173 H   0  0  0  0  0  0  0  0  0  0  0  0
   47.0053   29.9070   46.5890 H   0  0  0  0  0  0  0  0  0  0  0  0
  1  6  2  0
  2  1  1  0
  3  2  2  0
  3  4  1  0
  4  5  2  0
  5  6  1  0
  7  3  1  0
  8  9  2  0
  9  7  1  0
  9 11  1  0
 10  9  1  0
  1 12  1  0
  2 13  1  0
 10 14  1  0
 11 15  1  0
 16 17  1  0
 17 18  1  0
 18 19  1  0
 19 20  1  1
 19 21  1  0
 21 22  1  0
 22 23  1  1
 22 17  1  0
 16 24  1  0
 17 25  1  6
 18 26  1  1
 19 27  1  0
 22 28  1  0
  5 18  1  0
M  ISO  6  12  14  13  14  14   3  15   3  20  15  23  16
M  END
>  <DihAtoms>  (1) 
3,4,17,16

>  <DihDeg>  (1) 
125.11983587955643

$$$$
