
 OpenBabel03242517133D

 23 24  0  0  1  0  0  0  0  0999 V2000
   43.0740   35.2770   39.8020 C   0  0  0  0  0  0  0  0  0  0  0  0
   43.7070   34.6700   39.1390 H   0  0  0  0  0  0  0  0  0  0  0  0
   43.2680   36.3470   39.5930 H   0  0  0  0  0  0  0  0  0  0  0  0
   40.0360   34.5420   37.8800 C   0  0  1  0  0  3  0  0  0  0  0  0
   41.0940   35.5700   38.3060 C   0  0  0  0  0  3  0  0  0  0  0  0
   40.5940   36.5320   38.4600 H   0  0  0  0  0  0  0  0  0  0  0  0
   41.6090   34.9160   39.5520 C   0  0  1  0  0  3  0  0  0  0  0  0
   41.4790   33.5460   39.4070 O   0  0  0  0  0  0  0  0  0  0  0  0
   40.8450   33.2790   38.2080 C   0  0  0  0  0  3  0  0  0  0  0  0
   40.2030   32.3990   38.2640 H   0  0  0  0  0  0  0  0  0  0  0  0
   38.9810   34.5740   38.7670 O   0  0  0  0  0  0  0  0  0  0  0  0
   38.5340   35.4550   38.8500 H   0  0  0  0  0  0  0  0  0  0  0  0
   44.4130   35.1830   41.8830 C   0  0  0  0  0  3  0  0  0  0  0  0
   43.3030   34.9230   41.2360 C   0  0  0  0  0  3  0  0  0  0  0  0
   44.3760   35.7150   44.3260 C   0  0  0  0  0  0  0  0  0  0  0  0
   44.6940   34.8670   43.2670 C   0  0  0  0  0  0  0  0  0  0  0  0
   45.3130   33.6600   43.5780 C   0  0  0  0  0  0  0  0  0  0  0  0
   45.5810   33.3600   44.8940 N   0  0  0  0  0  0  0  0  0  0  0  0
   45.2520   34.2160   45.8840 C   0  0  0  0  0  0  0  0  0  0  0  0
   44.6540   35.3840   45.5900 N   0  0  0  0  0  0  0  0  0  0  0  0
   43.8930   36.6600   44.1080 H   0  0  0  0  0  0  0  0  0  0  0  0
   45.5820   32.9640   42.7870 H   0  0  0  0  0  0  0  0  0  0  0  0
   45.5350   33.8200   46.8520 H   0  0  0  0  0  0  0  0  0  0  0  0
  1 14  1  0  0  0  0
  2  1  1  0  0  0  0
  3  1  1  0  0  0  0
  4  9  1  0  0  0  0
  4  5  1  0  0  0  0
  4 11  1  1  0  0  0
  5  6  1  0  0  0  0
  5  7  1  0  0  0  0
  7  1  1  6  0  0  0
  8  7  1  0  0  0  0
  9 10  1  0  0  0  0
  9  8  1  0  0  0  0
 11 12  1  0  0  0  0
 13 16  1  0  0  0  0
 14 13  2  0  0  0  0
 15 20  1  0  0  0  0
 16 17  1  0  0  0  0
 16 15  2  0  0  0  0
 17 18  2  0  0  0  0
 18 19  1  0  0  0  0
 19 23  1  0  0  0  0
 20 19  2  0  0  0  0
 21 15  1  0  0  0  0
 22 17  1  0  0  0  0
M  END
>  <minimizedAffinity>
-4.54665613

>  <minimizedRMSD>
1.87673545

$$$$
