
 OpenBabel03242517133D

 23 24  0  0  1  0  0  0  0  0999 V2000
   42.3080   35.5020   39.5610 C   0  0  0  0  0  0  0  0  0  0  0  0
   42.9720   36.2700   39.1400 H   0  0  0  0  0  0  0  0  0  0  0  0
   41.3040   35.9460   39.7080 H   0  0  0  0  0  0  0  0  0  0  0  0
   41.7260   32.0570   38.4450 C   0  0  1  0  0  3  0  0  0  0  0  0
   42.5420   33.0270   39.3110 C   0  0  0  0  0  3  0  0  0  0  0  0
   43.5870   32.7070   39.2900 H   0  0  0  0  0  0  0  0  0  0  0  0
   42.2570   34.3140   38.6000 C   0  0  1  0  0  3  0  0  0  0  0  0
   41.0010   34.2240   38.0270 O   0  0  0  0  0  0  0  0  0  0  0  0
   40.4990   32.9560   38.2430 C   0  0  0  0  0  3  0  0  0  0  0  0
   39.8820   32.6060   37.4130 H   0  0  0  0  0  0  0  0  0  0  0  0
   42.3270   31.9260   37.2100 O   0  0  0  0  0  0  0  0  0  0  0  0
   43.2620   31.5990   37.2340 H   0  0  0  0  0  0  0  0  0  0  0  0
   43.6710   35.5950   41.6260 C   0  0  0  0  0  3  0  0  0  0  0  0
   42.8730   34.9350   40.8230 C   0  0  0  0  0  3  0  0  0  0  0  0
   44.3080   35.8530   44.0300 C   0  0  0  0  0  0  0  0  0  0  0  0
   44.2490   35.1020   42.8580 C   0  0  0  0  0  0  0  0  0  0  0  0
   44.7790   33.8160   42.8950 C   0  0  0  0  0  0  0  0  0  0  0  0
   45.3290   33.3480   44.0660 N   0  0  0  0  0  0  0  0  0  0  0  0
   45.3610   34.1150   45.1760 C   0  0  0  0  0  0  0  0  0  0  0  0
   44.8520   35.3590   45.1460 N   0  0  0  0  0  0  0  0  0  0  0  0
   43.9020   36.8580   44.0250 H   0  0  0  0  0  0  0  0  0  0  0  0
   44.7570   33.1900   42.0060 H   0  0  0  0  0  0  0  0  0  0  0  0
   45.8270   33.5900   46.0010 H   0  0  0  0  0  0  0  0  0  0  0  0
  1  3  1  0  0  0  0
  1 14  1  0  0  0  0
  2  1  1  0  0  0  0
  4 11  1  6  0  0  0
  4  5  1  0  0  0  0
  6  5  1  0  0  0  0
  7  5  1  0  0  0  0
  7  1  1  1  0  0  0
  8  9  1  0  0  0  0
  8  7  1  0  0  0  0
  9  4  1  0  0  0  0
 10  9  1  0  0  0  0
 11 12  1  0  0  0  0
 13 16  1  0  0  0  0
 14 13  2  0  0  0  0
 15 20  1  0  0  0  0
 16 17  1  0  0  0  0
 16 15  2  0  0  0  0
 17 18  2  0  0  0  0
 18 19  1  0  0  0  0
 19 23  1  0  0  0  0
 20 19  2  0  0  0  0
 21 15  1  0  0  0  0
 22 17  1  0  0  0  0
M  END
>  <minimizedAffinity>
-4.12256908

>  <minimizedRMSD>
1.12609971

$$$$
