
     RDKit          3D

 31 32  0  0  0  0  0  0  0  0999 V2000
   44.5273   35.6132   44.7919 C   0  0  0  0  0  0  0  0  0  0  0  0
   44.9157   35.8332   43.4470 C   0  0  0  0  0  0  0  0  0  0  0  0
   45.9770   35.0155   42.9833 C   0  0  0  0  0  0  0  0  0  0  0  0
   46.5178   34.1144   43.8432 N   0  0  0  0  0  0  0  0  0  0  0  0
   46.1017   33.9600   45.1000 C   0  0  0  0  0  0  0  0  0  0  0  0
   45.0998   34.7128   45.5813 N   0  0  0  0  0  0  0  0  0  0  0  0
   46.6573   33.0400   45.9704 O   0  0  0  0  0  0  0  0  0  0  0  0
   46.9874   32.2969   48.4436 O   0  0  0  0  0  0  0  0  0  0  0  0
   45.9071   32.4002   47.3549 P   0  0  1  0  0  0  0  0  0  0  0  0
   44.6227   33.3566   47.8477 O   0  0  0  0  0  0  0  0  0  0  0  0
   45.3533   30.8406   47.0883 O   0  0  0  0  0  0  0  0  0  0  0  0
   45.1108   30.2456   48.3055 C   0  0  0  0  0  0  0  0  0  0  0  0
   43.7072   36.2494   45.1404 H   0  0  0  0  0  0  0  0  0  0  0  0
   44.4358   36.5726   42.8202 H   0  0  0  0  0  0  0  0  0  0  0  0
   46.3207   35.1346   41.9643 H   0  0  0  0  0  0  0  0  0  0  0  0
   44.8966   34.3166   47.9726 H   0  0  0  0  0  0  0  0  0  0  0  0
   44.4049   30.8886   48.8669 H   0  0  0  0  0  0  0  0  0  0  0  0
   46.0575   30.2346   48.8833 H   0  0  0  0  0  0  0  0  0  0  0  0
   44.7931   27.1771   51.1438 O   0  0  0  0  0  0  0  0  0  0  0  0
   44.2656   27.1438   49.8417 C   0  0  1  0  0  0  0  0  0  0  0  0
   43.7746   28.4934   49.3793 C   0  0  1  0  0  0  0  0  0  0  0  0
   42.6777   28.5355   49.2141 H   0  0  0  0  0  0  0  0  0  0  0  0
   44.6042   28.8280   48.1845 C   0  0  2  0  0  0  0  0  0  0  0  0
   45.6956   27.9677   48.1783 O   0  0  0  0  0  0  0  0  0  0  0  0
   45.3441   26.8329   48.8571 C   0  0  2  0  0  0  0  0  0  0  0  0
   44.9624   26.0786   48.1136 H   0  0  0  0  0  0  0  0  0  0  0  0
   44.1961   27.7274   51.7424 H   0  0  0  0  0  0  0  0  0  0  0  0
   43.4574   26.3689   49.7898 H   0  0  0  0  0  0  0  0  0  0  0  0
   43.9987   29.2091   50.2229 H   0  0  0  0  0  0  0  0  0  0  0  0
   44.0616   28.6783   47.2285 H   0  0  0  0  0  0  0  0  0  0  0  0
   46.1897   26.3358   49.3730 H   0  0  0  0  0  0  0  0  0  0  0  0
  1  6  2  0
  2  1  1  0
  3  2  2  0
  3  4  1  0
  4  5  2  0
  5  6  1  0
  5  7  1  0
  9  7  1  6
  9 10  1  0
  9  8  2  0
 11  9  1  0
 11 12  1  0
  1 13  1  0
  2 14  1  0
  3 15  1  0
 10 16  1  0
 12 17  1  0
 12 18  1  0
 19 20  1  0
 20 21  1  0
 21 22  1  6
 21 23  1  0
 23 24  1  0
 24 25  1  0
 25 26  1  6
 25 20  1  0
 19 27  1  0
 20 28  1  1
 21 29  1  0
 23 30  1  6
 25 31  1  0
 12 23  1  0
M  ISO  8  13  14  14  14  15  14  16   3  17   8  18   8  22   8  26  16
M  END
>  <DihAtoms>  (1) 
10,11,22,20

>  <DihDeg>  (1) 
177.08540763884247

$$$$
