
     RDKit          3D

 25 26  0  0  0  0  0  0  0  0999 V2000
   44.5681   36.0012   44.4938 C   0  0  0  0  0  0  0  0  0  0  0  0
   45.3045   35.9240   43.2954 C   0  0  0  0  0  0  0  0  0  0  0  0
   46.1920   34.8614   43.1703 C   0  0  0  0  0  0  0  0  0  0  0  0
   46.3095   33.9591   44.1898 N   0  0  0  0  0  0  0  0  0  0  0  0
   45.5648   34.0899   45.3302 C   0  0  0  0  0  0  0  0  0  0  0  0
   44.7047   35.1038   45.4730 N   0  0  0  0  0  0  0  0  0  0  0  0
   46.9583   34.7756   41.9305 C   0  0  0  0  0  0  0  0  0  0  0  0
   43.8861   36.8353   44.5661 H   0  0  0  0  0  0  0  0  0  0  0  0
   45.1639   36.6709   42.5279 H   0  0  0  0  0  0  0  0  0  0  0  0
   45.6378   33.3907   46.1523 H   0  0  0  0  0  0  0  0  0  0  0  0
   47.9790   34.3845   42.1020 H   0  0  0  0  0  0  0  0  0  0  0  0
   47.0917   35.7804   41.4792 H   0  0  0  0  0  0  0  0  0  0  0  0
   44.3786   31.5636   39.7461 O   0  0  0  0  0  0  0  0  0  0  0  0
   45.2810   31.7916   40.7795 C   0  0  2  0  0  0  0  0  0  0  0  0
   45.1144   33.1453   41.4190 C   0  0  2  0  0  0  0  0  0  0  0  0
   45.1114   33.0187   42.5156 H   0  0  0  0  0  0  0  0  0  0  0  0
   46.2324   33.9541   40.8671 C   0  0  2  0  0  0  0  0  0  0  0  0
   47.0931   33.1517   40.1775 O   0  0  0  0  0  0  0  0  0  0  0  0
   46.6996   31.8450   40.2800 C   0  0  2  0  0  0  0  0  0  0  0  0
   46.7158   31.3667   39.2685 H   0  0  0  0  0  0  0  0  0  0  0  0
   43.5092   31.2880   40.1088 H   0  0  0  0  0  0  0  0  0  0  0  0
   45.1355   30.9891   41.5316 H   0  0  0  0  0  0  0  0  0  0  0  0
   44.1423   33.5984   41.1329 H   0  0  0  0  0  0  0  0  0  0  0  0
   45.8628   34.7254   40.1322 H   0  0  0  0  0  0  0  0  0  0  0  0
   47.3538   31.3353   41.0058 H   0  0  0  0  0  0  0  0  0  0  0  0
  1  6  2  0
  2  1  1  0
  3  2  2  0
  3  4  1  0
  4  5  2  0
  5  6  1  0
  7  3  1  0
  1  8  1  0
  2  9  1  0
  5 10  1  0
  7 11  1  0
  7 12  1  0
 13 14  1  0
 14 15  1  0
 15 16  1  1
 15 17  1  0
 17 18  1  0
 18 19  1  0
 19 20  1  6
 19 14  1  0
 13 21  1  0
 14 22  1  1
 15 23  1  0
 17 24  1  6
 19 25  1  0
  7 17  1  0
M  ISO  7   8  14   9  14  10  14  11   8  12   8  16   8  20  16
M  END
>  <DihAtoms>  (1) 
2,6,16,14

>  <DihDeg>  (1) 
-59.9999166860849

$$$$
