
     RDKit          3D

 26 27  0  0  0  0  0  0  0  0999 V2000
   44.2550   35.7339   44.2445 C   0  0  0  0  0  0  0  0  0  0  0  0
   44.4421   34.9215   43.1318 C   0  0  0  0  0  0  0  0  0  0  0  0
   45.0815   33.7039   43.2337 C   0  0  0  0  0  0  0  0  0  0  0  0
   45.5173   33.3491   44.4910 N   0  0  0  0  0  0  0  0  0  0  0  0
   45.3224   34.1520   45.5405 C   0  0  0  0  0  0  0  0  0  0  0  0
   44.7118   35.3240   45.4684 N   0  0  0  0  0  0  0  0  0  0  0  0
   43.8309   35.4939   41.5288 S   0  0  0  0  0  0  0  0  0  0  0  0
   43.8450   34.1227   40.3804 C   0  0  0  0  0  0  0  0  0  0  0  0
   43.7594   36.6950   44.2185 H   0  0  0  0  0  0  0  0  0  0  0  0
   45.2344   33.0601   42.3626 H   0  0  0  0  0  0  0  0  0  0  0  0
   45.6849   33.8329   46.5293 H   0  0  0  0  0  0  0  0  0  0  0  0
   43.6648   34.4486   39.3399 H   0  0  0  0  0  0  0  0  0  0  0  0
   44.8747   33.6673   40.4016 H   0  0  0  0  0  0  0  0  0  0  0  0
   43.6654   31.9447   38.1519 O   0  0  0  0  0  0  0  0  0  0  0  0
   43.0904   31.2236   39.1815 C   0  0  1  0  0  0  0  0  0  0  0  0
   43.6517   31.7191   40.5119 C   0  0  2  0  0  0  0  0  0  0  0  0
   44.7362   31.8738   40.3283 H   0  0  0  0  0  0  0  0  0  0  0  0
   42.8846   33.0202   40.6881 C   0  0  2  0  0  0  0  0  0  0  0  0
   41.8650   33.0136   39.7477 O   0  0  0  0  0  0  0  0  0  0  0  0
   41.6477   31.7153   39.3479 C   0  0  1  0  0  0  0  0  0  0  0  0
   41.1951   31.6517   38.3498 H   0  0  0  0  0  0  0  0  0  0  0  0
   44.5142   31.5605   37.8527 H   0  0  0  0  0  0  0  0  0  0  0  0
   43.1358   30.1356   39.0716 H   0  0  0  0  0  0  0  0  0  0  0  0
   43.4729   30.9964   41.3392 H   0  0  0  0  0  0  0  0  0  0  0  0
   42.4300   33.0562   41.6871 H   0  0  0  0  0  0  0  0  0  0  0  0
   41.1745   31.0682   40.1067 H   0  0  0  0  0  0  0  0  0  0  0  0
  1  6  2  0
  2  3  2  0
  2  1  1  0
  3  4  1  0
  4  5  2  0
  6  5  1  0
  7  2  1  0
  8  7  1  0
  1  9  1  0
  3 10  1  0
  5 11  1  0
  8 12  1  0
  8 13  1  0
 14 15  1  0
 15 16  1  0
 16 17  1  6
 16 18  1  0
 18 19  1  0
 19 20  1  0
 20 21  1  6
 20 15  1  0
 14 22  1  0
 15 23  1  6
 16 24  1  0
 18 25  1  1
 20 26  1  0
  8 18  1  0
M  ISO  7   9  14  10  14  11  14  12   8  13   8  17   8  21  16
M  END
>  <DihAtoms>  (1) 
6,7,17,15

>  <DihDeg>  (1) 
179.98046968912013

$$$$
