
     RDKit          3D

 26 27  0  0  0  0  0  0  0  0999 V2000
   44.2550   35.7339   44.2445 C   0  0  0  0  0  0  0  0  0  0  0  0
   44.4421   34.9215   43.1318 C   0  0  0  0  0  0  0  0  0  0  0  0
   45.0815   33.7039   43.2337 C   0  0  0  0  0  0  0  0  0  0  0  0
   45.5173   33.3491   44.4910 N   0  0  0  0  0  0  0  0  0  0  0  0
   45.3224   34.1520   45.5405 C   0  0  0  0  0  0  0  0  0  0  0  0
   44.7118   35.3240   45.4684 N   0  0  0  0  0  0  0  0  0  0  0  0
   43.8309   35.4939   41.5288 S   0  0  0  0  0  0  0  0  0  0  0  0
   43.8450   34.1227   40.3804 C   0  0  0  0  0  0  0  0  0  0  0  0
   43.7594   36.6950   44.2185 H   0  0  0  0  0  0  0  0  0  0  0  0
   45.2344   33.0601   42.3626 H   0  0  0  0  0  0  0  0  0  0  0  0
   45.6849   33.8329   46.5293 H   0  0  0  0  0  0  0  0  0  0  0  0
   43.6648   34.4486   39.3399 H   0  0  0  0  0  0  0  0  0  0  0  0
   44.8747   33.6673   40.4016 H   0  0  0  0  0  0  0  0  0  0  0  0
   41.4386   35.0037   42.1622 O   0  0  0  0  0  0  0  0  0  0  0  0
   40.9063   33.8232   41.6790 C   0  0  1  0  0  0  0  0  0  0  0  0
   41.5047   33.5316   40.3051 C   0  0  2  0  0  0  0  0  0  0  0  0
   41.5320   34.5140   39.7874 H   0  0  0  0  0  0  0  0  0  0  0  0
   42.8846   33.0202   40.6881 C   0  0  2  0  0  0  0  0  0  0  0  0
   42.8604   32.7907   42.0558 O   0  0  0  0  0  0  0  0  0  0  0  0
   41.5496   32.6680   42.4552 C   0  0  1  0  0  0  0  0  0  0  0  0
   41.4081   32.9083   43.5169 H   0  0  0  0  0  0  0  0  0  0  0  0
   40.9418   35.7910   41.8603 H   0  0  0  0  0  0  0  0  0  0  0  0
   39.8137   33.7620   41.6962 H   0  0  0  0  0  0  0  0  0  0  0  0
   40.9086   32.7830   39.7368 H   0  0  0  0  0  0  0  0  0  0  0  0
   43.0851   32.0658   40.1834 H   0  0  0  0  0  0  0  0  0  0  0  0
   41.0478   31.7419   42.1251 H   0  0  0  0  0  0  0  0  0  0  0  0
  1  6  2  0
  2  3  2  0
  2  1  1  0
  3  4  1  0
  4  5  2  0
  6  5  1  0
  7  2  1  0
  8  7  1  0
  1  9  1  0
  3 10  1  0
  5 11  1  0
  8 12  1  0
  8 13  1  0
 14 15  1  0
 15 16  1  0
 16 17  1  6
 16 18  1  0
 18 19  1  0
 19 20  1  0
 20 21  1  1
 20 15  1  0
 14 22  1  0
 15 23  1  6
 16 24  1  0
 18 25  1  6
 20 26  1  0
  8 18  1  0
M  ISO  7   9  14  10  14  11  14  12   8  13   8  17   8  21  16
M  END
>  <DihAtoms>  (1) 
6,7,17,15

>  <DihDeg>  (1) 
179.98046968912013

$$$$
