
 OpenBabel03252509293D

 21 22  0  0  1  0  0  0  0  0999 V2000
   46.9960   34.9950   41.8800 C   0  0  0  0  0  0  0  0  0  0  0  0
   48.0550   34.7300   42.0580 H   0  0  0  0  0  0  0  0  0  0  0  0
   47.0110   36.0070   41.4260 H   0  0  0  0  0  0  0  0  0  0  0  0
   44.5910   36.0400   44.5080 C   0  0  0  0  0  0  0  0  0  0  0  0
   45.3400   36.0500   43.3140 C   0  0  0  0  0  0  0  0  0  0  0  0
   46.2170   34.9900   43.1140 C   0  0  0  0  0  0  0  0  0  0  0  0
   46.3130   34.0080   44.0600 N   0  0  0  0  0  0  0  0  0  0  0  0
   45.5580   34.0560   45.1990 C   0  0  0  0  0  0  0  0  0  0  0  0
   44.7080   35.0660   45.4140 N   0  0  0  0  0  0  0  0  0  0  0  0
   43.9180   36.8730   44.6400 H   0  0  0  0  0  0  0  0  0  0  0  0
   45.2160   36.8570   42.6080 H   0  0  0  0  0  0  0  0  0  0  0  0
   45.6140   33.2930   45.9630 H   0  0  0  0  0  0  0  0  0  0  0  0
   44.4750   32.6960   40.6950 C   0  0  2  0  0  3  0  0  0  0  0  0
   44.8960   34.1390   40.7940 C   0  0  0  0  0  3  0  0  0  0  0  0
   44.4200   34.5840   41.6850 H   0  0  0  0  0  0  0  0  0  0  0  0
   46.3810   34.0890   40.8140 C   0  0  2  0  0  3  0  0  0  0  0  0
   46.8030   32.7990   40.9460 O   0  0  0  0  0  0  0  0  0  0  0  0
   45.7270   31.9670   41.1000 C   0  0  0  0  0  3  0  0  0  0  0  0
   45.8340   31.0840   40.4220 H   0  0  0  0  0  0  0  0  0  0  0  0
   44.0600   32.3370   39.4160 O   0  0  0  0  0  0  0  0  0  0  0  0
   43.1320   32.6220   39.2680 H   0  0  0  0  0  0  0  0  0  0  0  0
  1  2  1  0  0  0  0
  1  6  1  0  0  0  0
  3  1  1  0  0  0  0
  4 10  1  0  0  0  0
  4  9  1  0  0  0  0
  5  4  2  0  0  0  0
  6  5  1  0  0  0  0
  6  7  2  0  0  0  0
  7  8  1  0  0  0  0
  8  9  2  0  0  0  0
  8 12  1  0  0  0  0
 11  5  1  0  0  0  0
 13 20  1  6  0  0  0
 13 14  1  0  0  0  0
 13 18  1  0  0  0  0
 14 16  1  0  0  0  0
 14 15  1  0  0  0  0
 16 17  1  0  0  0  0
 16  1  1  1  0  0  0
 17 18  1  0  0  0  0
 19 18  1  0  0  0  0
 21 20  1  0  0  0  0
M  END
>  <minimizedAffinity>
-3.65639234

>  <minimizedRMSD>
0.493209094

$$$$
