
     RDKit          3D

 25 26  0  0  0  0  0  0  0  0999 V2000
   44.5681   36.0012   44.4938 C   0  0  0  0  0  0  0  0  0  0  0  0
   45.3045   35.9240   43.2954 C   0  0  0  0  0  0  0  0  0  0  0  0
   46.1920   34.8614   43.1703 C   0  0  0  0  0  0  0  0  0  0  0  0
   46.3095   33.9591   44.1898 N   0  0  0  0  0  0  0  0  0  0  0  0
   45.5648   34.0899   45.3302 C   0  0  0  0  0  0  0  0  0  0  0  0
   44.7047   35.1038   45.4730 N   0  0  0  0  0  0  0  0  0  0  0  0
   46.9583   34.7756   41.9305 C   0  0  0  0  0  0  0  0  0  0  0  0
   43.8861   36.8353   44.5661 H   0  0  0  0  0  0  0  0  0  0  0  0
   45.1639   36.6709   42.5279 H   0  0  0  0  0  0  0  0  0  0  0  0
   45.6378   33.3907   46.1523 H   0  0  0  0  0  0  0  0  0  0  0  0
   47.9790   34.3845   42.1020 H   0  0  0  0  0  0  0  0  0  0  0  0
   47.0917   35.7804   41.4792 H   0  0  0  0  0  0  0  0  0  0  0  0
   44.1388   33.4277   38.4698 O   0  0  0  0  0  0  0  0  0  0  0  0
   44.2498   34.2205   39.6070 C   0  0  2  0  0  0  0  0  0  0  0  0
   45.6316   34.7901   39.7953 C   0  0  2  0  0  0  0  0  0  0  0  0
   45.5407   35.8666   40.0225 H   0  0  0  0  0  0  0  0  0  0  0  0
   46.2324   33.9541   40.8671 C   0  0  2  0  0  0  0  0  0  0  0  0
   45.2810   33.1469   41.4181 O   0  0  0  0  0  0  0  0  0  0  0  0
   44.0586   33.4193   40.8665 C   0  0  2  0  0  0  0  0  0  0  0  0
   43.5533   32.4628   40.5806 H   0  0  0  0  0  0  0  0  0  0  0  0
   44.0180   33.9898   37.6742 H   0  0  0  0  0  0  0  0  0  0  0  0
   43.5047   35.0374   39.5174 H   0  0  0  0  0  0  0  0  0  0  0  0
   46.2265   34.6951   38.8629 H   0  0  0  0  0  0  0  0  0  0  0  0
   47.0303   33.2689   40.4604 H   0  0  0  0  0  0  0  0  0  0  0  0
   43.4726   34.0159   41.5844 H   0  0  0  0  0  0  0  0  0  0  0  0
  1  6  2  0
  2  1  1  0
  3  2  2  0
  3  4  1  0
  4  5  2  0
  5  6  1  0
  7  3  1  0
  1  8  1  0
  2  9  1  0
  5 10  1  0
  7 11  1  0
  7 12  1  0
 13 14  1  0
 14 15  1  0
 15 16  1  1
 15 17  1  0
 17 18  1  0
 18 19  1  0
 19 20  1  6
 19 14  1  0
 13 21  1  0
 14 22  1  6
 15 23  1  0
 17 24  1  6
 19 25  1  0
  7 17  1  0
M  ISO  7   8  14   9  14  10  14  11   8  12   8  16   8  20  16
M  END
>  <DihAtoms>  (1) 
2,6,16,14

>  <DihDeg>  (1) 
-59.9999166860849

$$$$
