
     RDKit          3D

 25 26  0  0  0  0  0  0  0  0999 V2000
   44.5681   36.0012   44.4938 C   0  0  0  0  0  0  0  0  0  0  0  0
   45.3045   35.9240   43.2954 C   0  0  0  0  0  0  0  0  0  0  0  0
   46.1920   34.8614   43.1703 C   0  0  0  0  0  0  0  0  0  0  0  0
   46.3095   33.9591   44.1898 N   0  0  0  0  0  0  0  0  0  0  0  0
   45.5648   34.0899   45.3302 C   0  0  0  0  0  0  0  0  0  0  0  0
   44.7047   35.1038   45.4730 N   0  0  0  0  0  0  0  0  0  0  0  0
   46.9583   34.7756   41.9305 C   0  0  0  0  0  0  0  0  0  0  0  0
   43.8861   36.8353   44.5661 H   0  0  0  0  0  0  0  0  0  0  0  0
   45.1639   36.6709   42.5279 H   0  0  0  0  0  0  0  0  0  0  0  0
   45.6378   33.3907   46.1523 H   0  0  0  0  0  0  0  0  0  0  0  0
   47.9790   34.3845   42.1020 H   0  0  0  0  0  0  0  0  0  0  0  0
   47.0917   35.7804   41.4792 H   0  0  0  0  0  0  0  0  0  0  0  0
   45.7396   31.4282   38.9217 O   0  0  0  0  0  0  0  0  0  0  0  0
   46.8045   32.1264   39.4809 C   0  0  2  0  0  0  0  0  0  0  0  0
   46.5686   32.5074   40.9190 C   0  0  2  0  0  0  0  0  0  0  0  0
   47.4673   32.2458   41.5045 H   0  0  0  0  0  0  0  0  0  0  0  0
   46.2324   33.9541   40.8671 C   0  0  2  0  0  0  0  0  0  0  0  0
   46.4594   34.4415   39.6136 O   0  0  0  0  0  0  0  0  0  0  0  0
   47.0013   33.4652   38.8223 C   0  0  2  0  0  0  0  0  0  0  0  0
   46.4657   33.4365   37.8404 H   0  0  0  0  0  0  0  0  0  0  0  0
   45.7795   30.4826   39.1812 H   0  0  0  0  0  0  0  0  0  0  0  0
   47.7053   31.4848   39.3945 H   0  0  0  0  0  0  0  0  0  0  0  0
   45.7166   31.9358   41.3426 H   0  0  0  0  0  0  0  0  0  0  0  0
   45.1402   34.1339   41.0823 H   0  0  0  0  0  0  0  0  0  0  0  0
   48.0815   33.6563   38.7161 H   0  0  0  0  0  0  0  0  0  0  0  0
  1  6  2  0
  2  1  1  0
  3  2  2  0
  3  4  1  0
  4  5  2  0
  5  6  1  0
  7  3  1  0
  1  8  1  0
  2  9  1  0
  5 10  1  0
  7 11  1  0
  7 12  1  0
 13 14  1  0
 14 15  1  0
 15 16  1  1
 15 17  1  0
 17 18  1  0
 18 19  1  0
 19 20  1  6
 19 14  1  0
 13 21  1  0
 14 22  1  1
 15 23  1  0
 17 24  1  1
 19 25  1  0
  7 17  1  0
M  ISO  7   8  14   9  14  10  14  11   8  12   8  16   8  20  16
M  END
>  <DihAtoms>  (1) 
2,6,16,14

>  <DihDeg>  (1) 
-59.9999166860849

$$$$
