
     RDKit          3D

 25 26  0  0  0  0  0  0  0  0999 V2000
   44.5681   36.0012   44.4938 C   0  0  0  0  0  0  0  0  0  0  0  0
   45.3045   35.9240   43.2954 C   0  0  0  0  0  0  0  0  0  0  0  0
   46.1920   34.8614   43.1703 C   0  0  0  0  0  0  0  0  0  0  0  0
   46.3095   33.9591   44.1898 N   0  0  0  0  0  0  0  0  0  0  0  0
   45.5648   34.0899   45.3302 C   0  0  0  0  0  0  0  0  0  0  0  0
   44.7047   35.1038   45.4730 N   0  0  0  0  0  0  0  0  0  0  0  0
   46.9583   34.7756   41.9305 C   0  0  0  0  0  0  0  0  0  0  0  0
   43.8861   36.8353   44.5661 H   0  0  0  0  0  0  0  0  0  0  0  0
   45.1639   36.6709   42.5279 H   0  0  0  0  0  0  0  0  0  0  0  0
   45.6378   33.3907   46.1523 H   0  0  0  0  0  0  0  0  0  0  0  0
   47.9790   34.3845   42.1020 H   0  0  0  0  0  0  0  0  0  0  0  0
   47.0917   35.7804   41.4792 H   0  0  0  0  0  0  0  0  0  0  0  0
   44.9700   31.2925   39.5519 O   0  0  0  0  0  0  0  0  0  0  0  0
   46.0310   31.6501   40.3768 C   0  0  2  0  0  0  0  0  0  0  0  0
   45.6571   32.6914   41.3992 C   0  0  2  0  0  0  0  0  0  0  0  0
   46.0377   32.3700   42.3844 H   0  0  0  0  0  0  0  0  0  0  0  0
   46.2324   33.9541   40.8671 C   0  0  2  0  0  0  0  0  0  0  0  0
   47.0397   33.6865   39.8008 O   0  0  0  0  0  0  0  0  0  0  0  0
   47.1292   32.3345   39.6085 C   0  0  2  0  0  0  0  0  0  0  0  0
   46.9770   32.0976   38.5256 H   0  0  0  0  0  0  0  0  0  0  0  0
   44.3909   30.6427   40.0054 H   0  0  0  0  0  0  0  0  0  0  0  0
   46.3881   30.7274   40.8787 H   0  0  0  0  0  0  0  0  0  0  0  0
   44.5540   32.7832   41.4816 H   0  0  0  0  0  0  0  0  0  0  0  0
   45.4288   34.6484   40.4879 H   0  0  0  0  0  0  0  0  0  0  0  0
   48.1030   31.9875   39.9906 H   0  0  0  0  0  0  0  0  0  0  0  0
  1  6  2  0
  2  1  1  0
  3  2  2  0
  3  4  1  0
  4  5  2  0
  5  6  1  0
  7  3  1  0
  1  8  1  0
  2  9  1  0
  5 10  1  0
  7 11  1  0
  7 12  1  0
 13 14  1  0
 14 15  1  0
 15 16  1  1
 15 17  1  0
 17 18  1  0
 18 19  1  0
 19 20  1  6
 19 14  1  0
 13 21  1  0
 14 22  1  1
 15 23  1  0
 17 24  1  6
 19 25  1  0
  7 17  1  0
M  ISO  7   8  14   9  14  10  14  11   8  12   8  16   8  20  16
M  END
>  <DihAtoms>  (1) 
2,6,16,14

>  <DihDeg>  (1) 
-59.9999166860849

$$$$
