
 OpenBabel03252503003D

 22 23  0  0  1  0  0  0  0  0999 V2000
   42.1720   35.0200   41.3650 C   0  0  0  0  0  0  0  0  0  0  0  0
   41.9440   33.9490   41.5170 H   0  0  0  0  0  0  0  0  0  0  0  0
   41.6420   35.5820   42.1840 H   0  0  0  0  0  0  0  0  0  0  0  0
   39.2610   34.8610   39.9780 C   0  0  1  0  0  0  0  0  0  0  0  0
   40.1700   36.0000   40.4360 C   0  0  0  0  0  0  0  0  0  0  0  0
   40.0030   36.0810   41.5310 H   0  0  0  0  0  0  0  0  0  0  0  0
   41.5400   35.4450   40.0790 C   0  0  2  0  0  0  0  0  0  0  0  0
   41.3250   34.3360   39.2750 O   0  0  0  0  0  0  0  0  0  0  0  0
   40.0580   34.4190   38.7450 C   0  0  0  0  0  0  0  0  0  0  0  0
   39.6520   33.4390   38.4650 H   0  0  0  0  0  0  0  0  0  0  0  0
   39.3190   33.8380   40.9060 O   0  0  0  0  0  0  0  0  0  0  0  0
   38.6780   33.9570   41.6360 H   0  0  0  0  0  0  0  0  0  0  0  0
   43.9210   35.3650   41.5100 S   0  0  0  0  0  0  0  0  0  0  0  0
   44.2820   35.7290   44.2210 C   0  0  0  0  0  0  0  0  0  0  0  0
   44.4840   34.8620   43.1530 C   0  0  0  0  0  0  0  0  0  0  0  0
   45.1020   33.6420   43.3280 C   0  0  0  0  0  0  0  0  0  0  0  0
   45.5020   33.3410   44.6110 N   0  0  0  0  0  0  0  0  0  0  0  0
   45.2930   34.1960   45.6170 C   0  0  0  0  0  0  0  0  0  0  0  0
   44.7030   35.3720   45.4730 N   0  0  0  0  0  0  0  0  0  0  0  0
   43.8020   36.6950   44.1360 H   0  0  0  0  0  0  0  0  0  0  0  0
   45.2660   32.9550   42.4930 H   0  0  0  0  0  0  0  0  0  0  0  0
   45.6270   33.9200   46.6280 H   0  0  0  0  0  0  0  0  0  0  0  0
  1 13  1  0  0  0  0
  1  2  1  0  0  0  0
  1  3  1  0  0  0  0
  4  5  1  0  0  0  0
  4 11  1  1  0  0  0
  5  6  1  0  0  0  0
  7  5  1  0  0  0  0
  7  1  1  1  0  0  0
  8  7  1  0  0  0  0
  9  8  1  0  0  0  0
  9  4  1  0  0  0  0
 10  9  1  0  0  0  0
 11 12  1  0  0  0  0
 13 15  1  0  0  0  0
 14 19  1  0  0  0  0
 15 16  1  0  0  0  0
 15 14  2  0  0  0  0
 16 17  2  0  0  0  0
 17 18  1  0  0  0  0
 18 22  1  0  0  0  0
 19 18  2  0  0  0  0
 20 14  1  0  0  0  0
 21 16  1  0  0  0  0
M  END
>  <minimizedAffinity>
-4.31293106

>  <minimizedRMSD>
3.2599504

$$$$
