
 OpenBabel03252509293D

 21 22  0  0  1  0  0  0  0  0999 V2000
   46.4280   33.5460   41.1520 C   0  0  0  0  0  0  0  0  0  0  0  0
   47.2330   33.1410   41.7950 H   0  0  0  0  0  0  0  0  0  0  0  0
   45.5780   32.8410   41.2540 H   0  0  0  0  0  0  0  0  0  0  0  0
   46.4460   33.1740   37.4590 C   0  0  0  0  0  0  0  0  0  0  0  0
   46.0350   33.0620   38.8020 C   0  0  0  0  0  0  0  0  0  0  0  0
   46.8470   33.6600   39.7590 C   0  0  0  0  0  0  0  0  0  0  0  0
   47.9810   34.3140   39.3660 N   0  0  0  0  0  0  0  0  0  0  0  0
   48.3250   34.3880   38.0440 C   0  0  0  0  0  0  0  0  0  0  0  0
   47.5590   33.8200   37.1060 N   0  0  0  0  0  0  0  0  0  0  0  0
   45.7980   32.7020   36.7350 H   0  0  0  0  0  0  0  0  0  0  0  0
   45.1280   32.5300   39.0450 H   0  0  0  0  0  0  0  0  0  0  0  0
   49.2150   34.8990   37.7060 H   0  0  0  0  0  0  0  0  0  0  0  0
   44.6890   35.5350   43.6160 C   0  0  2  0  0  3  0  0  0  0  0  0
   46.0180   34.9750   43.1810 C   0  0  0  0  0  3  0  0  0  0  0  0
   46.1900   34.0230   43.7140 H   0  0  0  0  0  0  0  0  0  0  0  0
   45.9100   34.8750   41.7020 C   0  0  2  0  0  3  0  0  0  0  0  0
   44.6260   35.1140   41.3100 O   0  0  0  0  0  0  0  0  0  0  0  0
   43.8260   35.2900   42.4070 C   0  0  0  0  0  3  0  0  0  0  0  0
   43.1860   36.1970   42.2630 H   0  0  0  0  0  0  0  0  0  0  0  0
   44.7490   36.8860   43.9400 O   0  0  0  0  0  0  0  0  0  0  0  0
   45.0970   37.0010   44.8510 H   0  0  0  0  0  0  0  0  0  0  0  0
  1  3  1  0  0  0  0
  1  2  1  0  0  0  0
  4  5  1  0  0  0  0
  5 11  1  0  0  0  0
  5  6  2  0  0  0  0
  6  1  1  0  0  0  0
  7  6  1  0  0  0  0
  8  7  2  0  0  0  0
  9  4  2  0  0  0  0
  9  8  1  0  0  0  0
 10  4  1  0  0  0  0
 12  8  1  0  0  0  0
 13 20  1  6  0  0  0
 14 13  1  0  0  0  0
 14 15  1  0  0  0  0
 16  1  1  1  0  0  0
 16 14  1  0  0  0  0
 17 16  1  0  0  0  0
 17 18  1  0  0  0  0
 18 13  1  0  0  0  0
 19 18  1  0  0  0  0
 20 21  1  0  0  0  0
M  END
>  <minimizedAffinity>
-3.85908008

>  <minimizedRMSD>
5.43356514

$$$$
