
 OpenBabel03252507443D

 37 39  0  0  1  0  0  0  0  0999 V2000
   47.4690   34.4140   40.7230 C   0  0  0  0  0  0  0  0  0  0  0  0
   46.7750   33.7300   40.1910 H   0  0  0  0  0  0  0  0  0  0  0  0
   47.6700   35.2530   40.0040 H   0  0  0  0  0  0  0  0  0  0  0  0
   48.7310   33.7310   41.0740 C   0  0  0  0  0  0  0  0  0  0  0  0
   49.0480   32.6010   40.3460 C   0  0  0  0  0  0  0  0  0  0  0  0
   50.2220   31.9160   40.6310 C   0  0  0  0  0  0  0  0  0  0  0  0
   51.0270   32.3910   41.6290 N   0  0  0  0  0  0  0  0  0  0  0  0
   50.6830   33.4960   42.3160 C   0  0  0  0  0  0  0  0  0  0  0  0
   49.5640   34.1350   42.0320 N   0  0  0  0  0  0  0  0  0  0  0  0
   50.5240   31.0430   40.1150 H   0  0  0  0  0  0  0  0  0  0  0  0
   51.2810   33.9150   43.1130 H   0  0  0  0  0  0  0  0  0  0  0  0
   47.9600   32.0280   39.0460 S   0  0  0  0  0  0  0  0  0  0  0  0
   47.8160   31.2730   36.4620 C   0  0  2  0  0  3  0  0  0  0  0  0
   48.7410   32.0090   37.4460 C   0  0  1  0  0  3  0  0  0  0  0  0
   48.7320   33.3850   36.8050 C   0  0  0  0  0  3  0  0  0  0  0  0
   49.6550   33.9480   36.9470 H   0  0  0  0  0  0  0  0  0  0  0  0
   48.6190   33.1800   35.4240 O   0  0  0  0  0  0  0  0  0  0  0  0
   47.7780   32.1030   35.2220 C   0  0  0  0  0  3  0  0  0  0  0  0
   48.1920   31.5630   34.3290 H   0  0  0  0  0  0  0  0  0  0  0  0
   46.5280   31.1460   36.9640 O   0  0  0  0  0  0  0  0  0  0  0  0
   46.2530   32.0360   37.2570 H   0  0  0  0  0  0  0  0  0  0  0  0
   46.7060   34.9100   41.9200 C   0  0  0  0  0  0  0  0  0  0  0  0
   47.0120   35.9730   42.0740 H   0  0  0  0  0  0  0  0  0  0  0  0
   47.0200   34.3670   42.8370 H   0  0  0  0  0  0  0  0  0  0  0  0
   45.2380   34.9220   41.7480 C   0  0  0  0  0  0  0  0  0  0  0  0
   44.4230   35.6260   42.6850 C   0  0  0  0  0  0  0  0  0  0  0  0
   42.7240   35.3420   42.0380 S   0  0  0  0  0  0  0  0  0  0  0  0
   43.4140   34.3120   40.6020 C   0  0  0  0  0  0  0  0  0  0  0  0
   44.5390   34.3510   40.8080 N   0  0  0  0  0  0  0  0  0  0  0  0
   44.7280   36.1850   43.5550 H   0  0  0  0  0  0  0  0  0  0  0  0
   42.6060   33.7280   39.6290 O   0  0  0  0  0  0  0  0  0  0  0  0
   40.7080   33.9720   37.7920 O   0  0  0  0  0  0  0  0  0  0  0  0
   41.7010   34.7600   38.6360 P   0  0  0  0  0  0  0  0  0  0  0  0
   40.8410   35.8170   39.6410 O   0  0  0  0  0  0  0  0  0  0  0  0
   39.9230   35.5000   39.8300 H   0  0  0  0  0  0  0  0  0  0  0  0
   42.7450   35.6690   37.6530 O   0  0  0  0  0  0  0  0  0  0  0  0
   42.4440   36.6170   37.5990 H   0  0  0  0  0  0  0  0  0  0  0  0
  1  4  1  0  0  0  0
  1 22  1  0  0  0  0
  2  1  1  0  0  0  0
  3  1  1  0  0  0  0
  4  9  1  0  0  0  0
  5  6  1  0  0  0  0
  5  4  2  0  0  0  0
  6  7  2  0  0  0  0
  7  8  1  0  0  0  0
  8 11  1  0  0  0  0
  9  8  2  0  0  0  0
 10  6  1  0  0  0  0
 12  5  1  0  0  0  0
 13 20  1  1  0  0  0
 13 14  1  0  0  0  0
 14 12  1  1  0  0  0
 15 16  1  0  0  0  0
 15 14  1  0  0  0  0
 17 15  1  0  0  0  0
 18 17  1  0  0  0  0
 18 13  1  0  0  0  0
 19 18  1  0  0  0  0
 20 21  1  0  0  0  0
 22 23  1  0  0  0  0
 22 24  1  0  0  0  0
 25 22  1  0  0  0  0
 25 26  2  0  0  0  0
 26 30  1  0  0  0  0
 27 26  1  0  0  0  0
 28 29  2  0  0  0  0
 28 27  1  0  0  0  0
 29 25  1  0  0  0  0
 31 28  1  0  0  0  0
 32 33  2  0  0  0  0
 33 31  1  0  0  0  0
 33 34  1  0  0  0  0
 34 35  1  0  0  0  0
 36 33  1  0  0  0  0
 37 36  1  0  0  0  0
M  END
>  <minimizedAffinity>
-5.01817751

>  <minimizedRMSD>
1.79361308

$$$$
