
 OpenBabel03252507453D

 37 39  0  0  1  0  0  0  0  0999 V2000
   47.4240   34.4280   40.7170 C   0  0  0  0  0  0  0  0  0  0  0  0
   46.7490   33.7450   40.1600 H   0  0  0  0  0  0  0  0  0  0  0  0
   47.6260   35.2830   40.0170 H   0  0  0  0  0  0  0  0  0  0  0  0
   48.6890   33.7560   41.0760 C   0  0  0  0  0  0  0  0  0  0  0  0
   49.0180   32.6260   40.3550 C   0  0  0  0  0  0  0  0  0  0  0  0
   50.1960   31.9500   40.6480 C   0  0  0  0  0  0  0  0  0  0  0  0
   50.9920   32.4340   41.6480 N   0  0  0  0  0  0  0  0  0  0  0  0
   50.6360   33.5390   42.3290 C   0  0  0  0  0  0  0  0  0  0  0  0
   49.5140   34.1690   42.0370 N   0  0  0  0  0  0  0  0  0  0  0  0
   50.5070   31.0770   40.1370 H   0  0  0  0  0  0  0  0  0  0  0  0
   51.2270   33.9650   43.1280 H   0  0  0  0  0  0  0  0  0  0  0  0
   47.9410   32.0400   39.0510 S   0  0  0  0  0  0  0  0  0  0  0  0
   47.8140   31.2760   36.4680 C   0  0  2  0  0  3  0  0  0  0  0  0
   48.7320   32.0160   37.4560 C   0  0  1  0  0  3  0  0  0  0  0  0
   48.7260   33.3890   36.8100 C   0  0  0  0  0  3  0  0  0  0  0  0
   49.6480   33.9540   36.9570 H   0  0  0  0  0  0  0  0  0  0  0  0
   48.6220   33.1800   35.4300 O   0  0  0  0  0  0  0  0  0  0  0  0
   47.7830   32.1020   35.2260 C   0  0  0  0  0  3  0  0  0  0  0  0
   48.2030   31.5590   34.3370 H   0  0  0  0  0  0  0  0  0  0  0  0
   46.5220   31.1510   36.9630 O   0  0  0  0  0  0  0  0  0  0  0  0
   46.2460   32.0410   37.2520 H   0  0  0  0  0  0  0  0  0  0  0  0
   46.6340   34.8910   41.9090 C   0  0  0  0  0  0  0  0  0  0  0  0
   46.9250   35.9540   42.0900 H   0  0  0  0  0  0  0  0  0  0  0  0
   46.9380   34.3340   42.8210 H   0  0  0  0  0  0  0  0  0  0  0  0
   45.1700   34.8900   41.7110 C   0  0  0  0  0  0  0  0  0  0  0  0
   44.3240   35.5040   42.6840 C   0  0  0  0  0  0  0  0  0  0  0  0
   42.6430   35.2400   41.9860 S   0  0  0  0  0  0  0  0  0  0  0  0
   43.3780   34.3380   40.4870 C   0  0  0  0  0  0  0  0  0  0  0  0
   44.4980   34.3810   40.7170 N   0  0  0  0  0  0  0  0  0  0  0  0
   44.6040   35.9990   43.6010 H   0  0  0  0  0  0  0  0  0  0  0  0
   42.5980   33.8160   39.4570 O   0  0  0  0  0  0  0  0  0  0  0  0
   40.6330   34.1790   37.7140 O   0  0  0  0  0  0  0  0  0  0  0  0
   41.6970   34.9060   38.5250 P   0  0  0  0  0  0  0  0  0  0  0  0
   40.9320   35.9800   39.5870 O   0  0  0  0  0  0  0  0  0  0  0  0
   40.0100   35.7010   39.8130 H   0  0  0  0  0  0  0  0  0  0  0  0
   42.7360   35.7870   37.5110 O   0  0  0  0  0  0  0  0  0  0  0  0
   42.4750   36.7480   37.4870 H   0  0  0  0  0  0  0  0  0  0  0  0
  1  4  1  0  0  0  0
  1 22  1  0  0  0  0
  2  1  1  0  0  0  0
  3  1  1  0  0  0  0
  4  9  1  0  0  0  0
  5  6  1  0  0  0  0
  5  4  2  0  0  0  0
  6  7  2  0  0  0  0
  7  8  1  0  0  0  0
  8 11  1  0  0  0  0
  9  8  2  0  0  0  0
 10  6  1  0  0  0  0
 12  5  1  0  0  0  0
 13 20  1  1  0  0  0
 13 14  1  0  0  0  0
 14 12  1  1  0  0  0
 15 16  1  0  0  0  0
 15 14  1  0  0  0  0
 17 15  1  0  0  0  0
 18 17  1  0  0  0  0
 18 13  1  0  0  0  0
 19 18  1  0  0  0  0
 20 21  1  0  0  0  0
 22 23  1  0  0  0  0
 22 24  1  0  0  0  0
 25 22  1  0  0  0  0
 25 26  2  0  0  0  0
 26 30  1  0  0  0  0
 27 26  1  0  0  0  0
 28 29  2  0  0  0  0
 28 27  1  0  0  0  0
 29 25  1  0  0  0  0
 31 28  1  0  0  0  0
 32 33  2  0  0  0  0
 33 31  1  0  0  0  0
 33 34  1  0  0  0  0
 34 35  1  0  0  0  0
 36 33  1  0  0  0  0
 37 36  1  0  0  0  0
M  END
>  <minimizedAffinity>
-5.04995251

>  <minimizedRMSD>
1.57698286

$$$$
