
 OpenBabel03252507453D

 37 39  0  0  1  0  0  0  0  0999 V2000
   47.4350   34.4550   40.7400 C   0  0  0  0  0  0  0  0  0  0  0  0
   46.7670   33.7430   40.2120 H   0  0  0  0  0  0  0  0  0  0  0  0
   47.6280   35.2830   40.0060 H   0  0  0  0  0  0  0  0  0  0  0  0
   48.7070   33.8100   41.1250 C   0  0  0  0  0  0  0  0  0  0  0  0
   49.1010   32.7190   40.3760 C   0  0  0  0  0  0  0  0  0  0  0  0
   50.2890   32.0700   40.6920 C   0  0  0  0  0  0  0  0  0  0  0  0
   51.0290   32.5420   41.7400 N   0  0  0  0  0  0  0  0  0  0  0  0
   50.6100   33.6090   42.4460 C   0  0  0  0  0  0  0  0  0  0  0  0
   49.4800   34.2130   42.1320 N   0  0  0  0  0  0  0  0  0  0  0  0
   50.6480   31.2280   40.1620 H   0  0  0  0  0  0  0  0  0  0  0  0
   51.1560   34.0230   43.2820 H   0  0  0  0  0  0  0  0  0  0  0  0
   48.0950   32.1490   39.0110 S   0  0  0  0  0  0  0  0  0  0  0  0
   49.7680   31.8290   36.9200 C   0  0  2  0  0  3  0  0  0  0  0  0
   48.9550   31.0150   37.9410 C   0  0  1  0  0  3  0  0  0  0  0  0
   50.0970   30.3230   38.6640 C   0  0  0  0  0  3  0  0  0  0  0  0
   49.8430   29.3370   39.0550 H   0  0  0  0  0  0  0  0  0  0  0  0
   51.1000   30.1090   37.7110 O   0  0  0  0  0  0  0  0  0  0  0  0
   51.1210   31.1990   36.8630 C   0  0  0  0  0  3  0  0  0  0  0  0
   51.3600   30.7850   35.8480 H   0  0  0  0  0  0  0  0  0  0  0  0
   49.9010   33.1560   37.3100 O   0  0  0  0  0  0  0  0  0  0  0  0
   50.2210   33.1450   38.2330 H   0  0  0  0  0  0  0  0  0  0  0  0
   46.6410   34.9570   41.9140 C   0  0  0  0  0  0  0  0  0  0  0  0
   46.9150   36.0320   42.0470 H   0  0  0  0  0  0  0  0  0  0  0  0
   46.9570   34.4460   42.8480 H   0  0  0  0  0  0  0  0  0  0  0  0
   45.1760   34.9230   41.7210 C   0  0  0  0  0  0  0  0  0  0  0  0
   44.3200   35.5060   42.7050 C   0  0  0  0  0  0  0  0  0  0  0  0
   42.6430   35.2110   42.0100 S   0  0  0  0  0  0  0  0  0  0  0  0
   43.3930   34.3440   40.4970 C   0  0  0  0  0  0  0  0  0  0  0  0
   44.5130   34.4110   40.7230 N   0  0  0  0  0  0  0  0  0  0  0  0
   44.5920   35.9960   43.6260 H   0  0  0  0  0  0  0  0  0  0  0  0
   42.6220   33.8170   39.4640 O   0  0  0  0  0  0  0  0  0  0  0  0
   40.6500   34.1660   37.7260 O   0  0  0  0  0  0  0  0  0  0  0  0
   41.7150   34.9000   38.5290 P   0  0  0  0  0  0  0  0  0  0  0  0
   40.9510   35.9780   39.5880 O   0  0  0  0  0  0  0  0  0  0  0  0
   40.0300   35.6970   39.8180 H   0  0  0  0  0  0  0  0  0  0  0  0
   42.7480   35.7780   37.5080 O   0  0  0  0  0  0  0  0  0  0  0  0
   42.4850   36.7390   37.4800 H   0  0  0  0  0  0  0  0  0  0  0  0
  1  4  1  0  0  0  0
  1 22  1  0  0  0  0
  2  1  1  0  0  0  0
  3  1  1  0  0  0  0
  4  9  1  0  0  0  0
  5  6  1  0  0  0  0
  5  4  2  0  0  0  0
  6  7  2  0  0  0  0
  7  8  1  0  0  0  0
  8 11  1  0  0  0  0
  9  8  2  0  0  0  0
 10  6  1  0  0  0  0
 12  5  1  0  0  0  0
 13 20  1  1  0  0  0
 13 14  1  0  0  0  0
 14 15  1  0  0  0  0
 14 12  1  1  0  0  0
 15 16  1  0  0  0  0
 17 15  1  0  0  0  0
 18 13  1  0  0  0  0
 18 17  1  0  0  0  0
 19 18  1  0  0  0  0
 20 21  1  0  0  0  0
 22 23  1  0  0  0  0
 22 24  1  0  0  0  0
 25 22  1  0  0  0  0
 25 26  2  0  0  0  0
 26 30  1  0  0  0  0
 27 26  1  0  0  0  0
 28 29  2  0  0  0  0
 28 27  1  0  0  0  0
 29 25  1  0  0  0  0
 31 28  1  0  0  0  0
 32 33  2  0  0  0  0
 33 31  1  0  0  0  0
 33 34  1  0  0  0  0
 34 35  1  0  0  0  0
 36 33  1  0  0  0  0
 37 36  1  0  0  0  0
M  END
>  <minimizedAffinity>
-5.04234123

>  <minimizedRMSD>
0.835876107

$$$$
