
 OpenBabel03252507443D

 37 39  0  0  1  0  0  0  0  0999 V2000
   47.1950   34.3260   40.7780 C   0  0  0  0  0  0  0  0  0  0  0  0
   46.5710   33.4770   40.4310 H   0  0  0  0  0  0  0  0  0  0  0  0
   47.3020   35.0020   39.8870 H   0  0  0  0  0  0  0  0  0  0  0  0
   48.5250   33.8650   41.2280 C   0  0  0  0  0  0  0  0  0  0  0  0
   49.0690   32.7890   40.5550 C   0  0  0  0  0  0  0  0  0  0  0  0
   50.3170   32.3090   40.9330 C   0  0  0  0  0  0  0  0  0  0  0  0
   50.9650   32.9280   41.9660 N   0  0  0  0  0  0  0  0  0  0  0  0
   50.4010   33.9730   42.5970 C   0  0  0  0  0  0  0  0  0  0  0  0
   49.2150   34.4160   42.2250 N   0  0  0  0  0  0  0  0  0  0  0  0
   50.7900   31.4890   40.4620 H   0  0  0  0  0  0  0  0  0  0  0  0
   50.8690   34.4980   43.4190 H   0  0  0  0  0  0  0  0  0  0  0  0
   48.1780   32.0230   39.2050 S   0  0  0  0  0  0  0  0  0  0  0  0
   49.9360   31.7770   37.1740 C   0  0  2  0  0  3  0  0  0  0  0  0
   49.1960   30.9360   38.2300 C   0  0  1  0  0  3  0  0  0  0  0  0
   50.3900   30.4320   39.0190 C   0  0  0  0  0  3  0  0  0  0  0  0
   50.2440   29.4490   39.4690 H   0  0  0  0  0  0  0  0  0  0  0  0
   51.4380   30.2800   38.1040 O   0  0  0  0  0  0  0  0  0  0  0  0
   51.3540   31.3100   37.1870 C   0  0  0  0  0  3  0  0  0  0  0  0
   51.6690   30.8660   36.2060 H   0  0  0  0  0  0  0  0  0  0  0  0
   49.9000   33.1310   37.4800 O   0  0  0  0  0  0  0  0  0  0  0  0
   50.1920   33.2160   38.4080 H   0  0  0  0  0  0  0  0  0  0  0  0
   46.3980   34.9950   41.8630 C   0  0  0  0  0  0  0  0  0  0  0  0
   46.6770   36.0770   41.8410 H   0  0  0  0  0  0  0  0  0  0  0  0
   46.7060   34.6230   42.8630 H   0  0  0  0  0  0  0  0  0  0  0  0
   44.9340   34.9410   41.6670 C   0  0  0  0  0  0  0  0  0  0  0  0
   44.0670   35.4430   42.6850 C   0  0  0  0  0  0  0  0  0  0  0  0
   42.3950   35.1540   41.9720 S   0  0  0  0  0  0  0  0  0  0  0  0
   43.1630   34.3980   40.4100 C   0  0  0  0  0  0  0  0  0  0  0  0
   44.2810   34.4760   40.6400 N   0  0  0  0  0  0  0  0  0  0  0  0
   44.3280   35.8820   43.6340 H   0  0  0  0  0  0  0  0  0  0  0  0
   42.4030   33.9190   39.3450 O   0  0  0  0  0  0  0  0  0  0  0  0
   40.4400   34.3550   37.6170 O   0  0  0  0  0  0  0  0  0  0  0  0
   41.5190   35.0450   38.4410 P   0  0  0  0  0  0  0  0  0  0  0  0
   40.7760   36.1080   39.5290 O   0  0  0  0  0  0  0  0  0  0  0  0
   39.8490   35.8400   39.7510 H   0  0  0  0  0  0  0  0  0  0  0  0
   42.5700   35.9300   37.4440 O   0  0  0  0  0  0  0  0  0  0  0  0
   42.3270   36.8960   37.4430 H   0  0  0  0  0  0  0  0  0  0  0  0
  1  4  1  0  0  0  0
  1 22  1  0  0  0  0
  2  1  1  0  0  0  0
  3  1  1  0  0  0  0
  4  9  1  0  0  0  0
  5  6  1  0  0  0  0
  5  4  2  0  0  0  0
  6  7  2  0  0  0  0
  7  8  1  0  0  0  0
  8 11  1  0  0  0  0
  9  8  2  0  0  0  0
 10  6  1  0  0  0  0
 12  5  1  0  0  0  0
 13 18  1  0  0  0  0
 13 20  1  1  0  0  0
 13 14  1  0  0  0  0
 14 15  1  0  0  0  0
 14 12  1  1  0  0  0
 15 16  1  0  0  0  0
 17 15  1  0  0  0  0
 18 17  1  0  0  0  0
 19 18  1  0  0  0  0
 20 21  1  0  0  0  0
 22 24  1  0  0  0  0
 23 22  1  0  0  0  0
 25 22  1  0  0  0  0
 25 26  2  0  0  0  0
 26 30  1  0  0  0  0
 27 26  1  0  0  0  0
 28 29  2  0  0  0  0
 28 27  1  0  0  0  0
 29 25  1  0  0  0  0
 31 28  1  0  0  0  0
 32 33  2  0  0  0  0
 33 31  1  0  0  0  0
 33 34  1  0  0  0  0
 34 35  1  0  0  0  0
 36 33  1  0  0  0  0
 37 36  1  0  0  0  0
M  END
>  <minimizedAffinity>
-4.97658491

>  <minimizedRMSD>
0.953171492

$$$$
