
 OpenBabel03252507443D

 37 39  0  0  1  0  0  0  0  0999 V2000
   47.5360   34.4770   40.7580 C   0  0  0  0  0  0  0  0  0  0  0  0
   46.8520   33.8200   40.1810 H   0  0  0  0  0  0  0  0  0  0  0  0
   47.7590   35.3440   40.0790 H   0  0  0  0  0  0  0  0  0  0  0  0
   48.7860   33.7720   41.1080 C   0  0  0  0  0  0  0  0  0  0  0  0
   49.1110   32.6680   40.3450 C   0  0  0  0  0  0  0  0  0  0  0  0
   50.2750   31.9640   40.6280 C   0  0  0  0  0  0  0  0  0  0  0  0
   51.0620   32.3950   41.6600 N   0  0  0  0  0  0  0  0  0  0  0  0
   50.7100   33.4760   42.3810 C   0  0  0  0  0  0  0  0  0  0  0  0
   49.6020   34.1330   42.0980 N   0  0  0  0  0  0  0  0  0  0  0  0
   50.5820   31.1090   40.0860 H   0  0  0  0  0  0  0  0  0  0  0  0
   51.2940   33.8600   43.2060 H   0  0  0  0  0  0  0  0  0  0  0  0
   48.0480   32.1530   39.0020 S   0  0  0  0  0  0  0  0  0  0  0  0
   49.5370   31.9270   36.7650 C   0  0  2  0  0  3  0  0  0  0  0  0
   48.5140   32.8600   37.4360 C   0  0  1  0  0  3  0  0  0  0  0  0
   47.3900   32.7590   36.4220 C   0  0  0  0  0  3  0  0  0  0  0  0
   46.7820   33.6600   36.3400 H   0  0  0  0  0  0  0  0  0  0  0  0
   47.9960   32.5930   35.1700 O   0  0  0  0  0  0  0  0  0  0  0  0
   49.1100   31.7950   35.3400 C   0  0  0  0  0  3  0  0  0  0  0  0
   49.8760   32.1920   34.6230 H   0  0  0  0  0  0  0  0  0  0  0  0
   49.5490   30.6710   37.3540 O   0  0  0  0  0  0  0  0  0  0  0  0
   48.6210   30.3680   37.3890 H   0  0  0  0  0  0  0  0  0  0  0  0
   46.7490   34.9260   41.9560 C   0  0  0  0  0  0  0  0  0  0  0  0
   47.0400   35.9880   42.1480 H   0  0  0  0  0  0  0  0  0  0  0  0
   47.0540   34.3590   42.8620 H   0  0  0  0  0  0  0  0  0  0  0  0
   45.2840   34.9280   41.7600 C   0  0  0  0  0  0  0  0  0  0  0  0
   44.4460   35.6080   42.6960 C   0  0  0  0  0  0  0  0  0  0  0  0
   42.7610   35.3190   42.0160 S   0  0  0  0  0  0  0  0  0  0  0  0
   43.4850   34.3210   40.5740 C   0  0  0  0  0  0  0  0  0  0  0  0
   44.6050   34.3670   40.7990 N   0  0  0  0  0  0  0  0  0  0  0  0
   44.7320   36.1540   43.5800 H   0  0  0  0  0  0  0  0  0  0  0  0
   42.6980   33.7460   39.5780 O   0  0  0  0  0  0  0  0  0  0  0  0
   40.7440   33.9960   37.8020 O   0  0  0  0  0  0  0  0  0  0  0  0
   41.7560   34.7820   38.6260 P   0  0  0  0  0  0  0  0  0  0  0  0
   40.9180   35.8190   39.6690 O   0  0  0  0  0  0  0  0  0  0  0  0
   40.0080   35.4920   39.8820 H   0  0  0  0  0  0  0  0  0  0  0  0
   42.7620   35.7120   37.6230 O   0  0  0  0  0  0  0  0  0  0  0  0
   42.4520   36.6580   37.5900 H   0  0  0  0  0  0  0  0  0  0  0  0
  1  4  1  0  0  0  0
  1 22  1  0  0  0  0
  2  1  1  0  0  0  0
  3  1  1  0  0  0  0
  4  9  1  0  0  0  0
  5  6  1  0  0  0  0
  5  4  2  0  0  0  0
  6  7  2  0  0  0  0
  7  8  1  0  0  0  0
  8 11  1  0  0  0  0
  9  8  2  0  0  0  0
 10  6  1  0  0  0  0
 12  5  1  0  0  0  0
 13 20  1  1  0  0  0
 13 14  1  0  0  0  0
 14 12  1  1  0  0  0
 15 14  1  0  0  0  0
 16 15  1  0  0  0  0
 17 18  1  0  0  0  0
 17 15  1  0  0  0  0
 18 13  1  0  0  0  0
 19 18  1  0  0  0  0
 20 21  1  0  0  0  0
 22 23  1  0  0  0  0
 22 24  1  0  0  0  0
 25 22  1  0  0  0  0
 25 26  2  0  0  0  0
 26 30  1  0  0  0  0
 27 26  1  0  0  0  0
 28 29  2  0  0  0  0
 28 27  1  0  0  0  0
 29 25  1  0  0  0  0
 31 28  1  0  0  0  0
 32 33  2  0  0  0  0
 33 31  1  0  0  0  0
 33 34  1  0  0  0  0
 34 35  1  0  0  0  0
 36 33  1  0  0  0  0
 37 36  1  0  0  0  0
M  END
>  <minimizedAffinity>
-4.94791269

>  <minimizedRMSD>
2.14494419

$$$$
