
 OpenBabel03252507453D

 37 39  0  0  1  0  0  0  0  0999 V2000
   47.7260   34.5520   40.7880 C   0  0  0  0  0  0  0  0  0  0  0  0
   47.0150   33.9450   40.1890 H   0  0  0  0  0  0  0  0  0  0  0  0
   47.9950   35.4260   40.1350 H   0  0  0  0  0  0  0  0  0  0  0  0
   48.9380   33.7780   41.1250 C   0  0  0  0  0  0  0  0  0  0  0  0
   49.2090   32.6760   40.3380 C   0  0  0  0  0  0  0  0  0  0  0  0
   50.3350   31.9080   40.6080 C   0  0  0  0  0  0  0  0  0  0  0  0
   51.1400   32.2760   41.6510 N   0  0  0  0  0  0  0  0  0  0  0  0
   50.8400   33.3560   42.3950 C   0  0  0  0  0  0  0  0  0  0  0  0
   49.7670   34.0750   42.1250 N   0  0  0  0  0  0  0  0  0  0  0  0
   50.6010   31.0510   40.0470 H   0  0  0  0  0  0  0  0  0  0  0  0
   51.4400   33.6920   43.2290 H   0  0  0  0  0  0  0  0  0  0  0  0
   48.1250   32.2450   38.9820 S   0  0  0  0  0  0  0  0  0  0  0  0
   49.7300   31.8390   36.8520 C   0  0  2  0  0  3  0  0  0  0  0  0
   48.8530   31.0720   37.8570 C   0  0  1  0  0  3  0  0  0  0  0  0
   49.9300   30.2440   38.5340 C   0  0  0  0  0  3  0  0  0  0  0  0
   49.5850   29.2740   38.8940 H   0  0  0  0  0  0  0  0  0  0  0  0
   50.8940   29.9660   37.5580 O   0  0  0  0  0  0  0  0  0  0  0  0
   51.0120   31.0810   36.7500 C   0  0  0  0  0  3  0  0  0  0  0  0
   51.1940   30.6830   35.7160 H   0  0  0  0  0  0  0  0  0  0  0  0
   50.0000   33.1300   37.2870 O   0  0  0  0  0  0  0  0  0  0  0  0
   50.3290   33.0540   38.2030 H   0  0  0  0  0  0  0  0  0  0  0  0
   46.9530   35.0060   41.9940 C   0  0  0  0  0  0  0  0  0  0  0  0
   47.2290   36.0740   42.1650 H   0  0  0  0  0  0  0  0  0  0  0  0
   47.2840   34.4570   42.9020 H   0  0  0  0  0  0  0  0  0  0  0  0
   45.4850   34.9790   41.8250 C   0  0  0  0  0  0  0  0  0  0  0  0
   44.6570   35.7270   42.7180 C   0  0  0  0  0  0  0  0  0  0  0  0
   42.9630   35.3700   42.0950 S   0  0  0  0  0  0  0  0  0  0  0  0
   43.6710   34.2630   40.7260 C   0  0  0  0  0  0  0  0  0  0  0  0
   44.7950   34.3360   40.9260 N   0  0  0  0  0  0  0  0  0  0  0  0
   44.9540   36.3460   43.5490 H   0  0  0  0  0  0  0  0  0  0  0  0
   42.8720   33.6020   39.7950 O   0  0  0  0  0  0  0  0  0  0  0  0
   40.9960   33.6940   37.9230 O   0  0  0  0  0  0  0  0  0  0  0  0
   41.9730   34.5510   38.7190 P   0  0  0  0  0  0  0  0  0  0  0  0
   41.0920   35.6710   39.6330 O   0  0  0  0  0  0  0  0  0  0  0  0
   40.1740   35.3610   39.8340 H   0  0  0  0  0  0  0  0  0  0  0  0
   43.0220   35.3940   37.6840 O   0  0  0  0  0  0  0  0  0  0  0  0
   42.7140   36.3320   37.5560 H   0  0  0  0  0  0  0  0  0  0  0  0
  1  4  1  0  0  0  0
  1 22  1  0  0  0  0
  2  1  1  0  0  0  0
  3  1  1  0  0  0  0
  4  9  1  0  0  0  0
  5  6  1  0  0  0  0
  5  4  2  0  0  0  0
  6  7  2  0  0  0  0
  7  8  1  0  0  0  0
  8 11  1  0  0  0  0
  9  8  2  0  0  0  0
 10  6  1  0  0  0  0
 12  5  1  0  0  0  0
 13 20  1  1  0  0  0
 13 14  1  0  0  0  0
 14 15  1  0  0  0  0
 14 12  1  1  0  0  0
 15 16  1  0  0  0  0
 17 15  1  0  0  0  0
 18 13  1  0  0  0  0
 18 17  1  0  0  0  0
 19 18  1  0  0  0  0
 20 21  1  0  0  0  0
 22 23  1  0  0  0  0
 22 24  1  0  0  0  0
 25 22  1  0  0  0  0
 25 26  2  0  0  0  0
 26 30  1  0  0  0  0
 27 26  1  0  0  0  0
 28 29  2  0  0  0  0
 28 27  1  0  0  0  0
 29 25  1  0  0  0  0
 31 28  1  0  0  0  0
 32 33  2  0  0  0  0
 33 34  1  0  0  0  0
 33 31  1  0  0  0  0
 34 35  1  0  0  0  0
 36 33  1  0  0  0  0
 37 36  1  0  0  0  0
M  END
>  <minimizedAffinity>
-4.99868298

>  <minimizedRMSD>
0.967725098

$$$$
