
 OpenBabel03252507453D

 37 39  0  0  1  0  0  0  0  0999 V2000
   47.4270   34.5110   40.7750 C   0  0  0  0  0  0  0  0  0  0  0  0
   46.7640   33.8540   40.1730 H   0  0  0  0  0  0  0  0  0  0  0  0
   47.6410   35.3980   40.1200 H   0  0  0  0  0  0  0  0  0  0  0  0
   48.6860   33.8230   41.1260 C   0  0  0  0  0  0  0  0  0  0  0  0
   49.0060   32.7000   40.3890 C   0  0  0  0  0  0  0  0  0  0  0  0
   50.1780   32.0100   40.6740 C   0  0  0  0  0  0  0  0  0  0  0  0
   50.9770   32.4740   41.6820 N   0  0  0  0  0  0  0  0  0  0  0  0
   50.6300   33.5720   42.3770 C   0  0  0  0  0  0  0  0  0  0  0  0
   49.5140   34.2150   42.0930 N   0  0  0  0  0  0  0  0  0  0  0  0
   50.4820   31.1420   40.1510 H   0  0  0  0  0  0  0  0  0  0  0  0
   51.2240   33.9820   43.1830 H   0  0  0  0  0  0  0  0  0  0  0  0
   47.9250   32.1420   39.0770 S   0  0  0  0  0  0  0  0  0  0  0  0
   49.3720   32.0870   36.8010 C   0  0  2  0  0  3  0  0  0  0  0  0
   48.2820   32.9080   37.5100 C   0  0  1  0  0  3  0  0  0  0  0  0
   47.1490   32.7100   36.5220 C   0  0  0  0  0  3  0  0  0  0  0  0
   46.4530   33.5490   36.4680 H   0  0  0  0  0  0  0  0  0  0  0  0
   47.7360   32.6180   35.2530 O   0  0  0  0  0  0  0  0  0  0  0  0
   48.9250   31.9300   35.3860 C   0  0  0  0  0  3  0  0  0  0  0  0
   49.6310   32.4080   34.6560 H   0  0  0  0  0  0  0  0  0  0  0  0
   49.5210   30.8300   37.3740 O   0  0  0  0  0  0  0  0  0  0  0  0
   48.6280   30.4390   37.4260 H   0  0  0  0  0  0  0  0  0  0  0  0
   46.6140   34.9160   41.9720 C   0  0  0  0  0  0  0  0  0  0  0  0
   46.8890   35.9750   42.1990 H   0  0  0  0  0  0  0  0  0  0  0  0
   46.9120   34.3270   42.8660 H   0  0  0  0  0  0  0  0  0  0  0  0
   45.1530   34.9050   41.7520 C   0  0  0  0  0  0  0  0  0  0  0  0
   44.2880   35.5080   42.7160 C   0  0  0  0  0  0  0  0  0  0  0  0
   42.6200   35.2350   41.9910 S   0  0  0  0  0  0  0  0  0  0  0  0
   43.3840   34.3450   40.4990 C   0  0  0  0  0  0  0  0  0  0  0  0
   44.5000   34.3960   40.7460 N   0  0  0  0  0  0  0  0  0  0  0  0
   44.5510   36.0010   43.6380 H   0  0  0  0  0  0  0  0  0  0  0  0
   42.6230   33.8230   39.4550 O   0  0  0  0  0  0  0  0  0  0  0  0
   40.6480   34.1750   37.7220 O   0  0  0  0  0  0  0  0  0  0  0  0
   41.7130   34.9080   38.5270 P   0  0  0  0  0  0  0  0  0  0  0  0
   40.9490   35.9800   39.5920 O   0  0  0  0  0  0  0  0  0  0  0  0
   40.0290   35.6960   39.8220 H   0  0  0  0  0  0  0  0  0  0  0  0
   42.7430   35.7920   37.5070 O   0  0  0  0  0  0  0  0  0  0  0  0
   42.4780   36.7520   37.4840 H   0  0  0  0  0  0  0  0  0  0  0  0
  1  4  1  0  0  0  0
  1 22  1  0  0  0  0
  2  1  1  0  0  0  0
  3  1  1  0  0  0  0
  4  9  1  0  0  0  0
  5  6  1  0  0  0  0
  5  4  2  0  0  0  0
  6  7  2  0  0  0  0
  7  8  1  0  0  0  0
  8 11  1  0  0  0  0
  9  8  2  0  0  0  0
 10  6  1  0  0  0  0
 12  5  1  0  0  0  0
 13 20  1  1  0  0  0
 13 14  1  0  0  0  0
 14 12  1  1  0  0  0
 15 14  1  0  0  0  0
 16 15  1  0  0  0  0
 17 18  1  0  0  0  0
 17 15  1  0  0  0  0
 18 13  1  0  0  0  0
 19 18  1  0  0  0  0
 20 21  1  0  0  0  0
 22 23  1  0  0  0  0
 22 24  1  0  0  0  0
 25 22  1  0  0  0  0
 25 26  2  0  0  0  0
 26 30  1  0  0  0  0
 27 26  1  0  0  0  0
 28 29  2  0  0  0  0
 28 27  1  0  0  0  0
 29 25  1  0  0  0  0
 31 28  1  0  0  0  0
 32 33  2  0  0  0  0
 33 31  1  0  0  0  0
 33 34  1  0  0  0  0
 34 35  1  0  0  0  0
 36 33  1  0  0  0  0
 37 36  1  0  0  0  0
M  END
>  <minimizedAffinity>
-4.96545458

>  <minimizedRMSD>
2.04531217

$$$$
