
 OpenBabel03252508593D

 45 47  0  0  1  0  0  0  0  0999 V2000
   46.8610   34.4130   43.5080 N   0  0  0  0  0  0  0  0  0  0  0  0
   46.3720   35.4560   42.6650 C   0  0  0  0  0  0  0  0  0  0  0  0
   44.8750   35.6300   42.6780 C   0  0  0  0  0  0  0  0  0  0  0  0
   44.2150   35.3210   43.9900 C   0  0  0  0  0  0  0  0  0  0  0  0
   45.2250   34.9800   45.0580 C   0  0  0  0  0  0  0  0  0  0  0  0
   46.0310   33.7900   44.4260 C   0  0  2  0  0  0  0  0  0  0  0  0
   46.7820   36.4170   43.0920 H   0  0  0  0  0  0  0  0  0  0  0  0
   46.7000   35.4240   41.6260 H   0  0  0  0  0  0  0  0  0  0  0  0
   44.6330   36.6200   42.2830 H   0  0  0  0  0  0  0  0  0  0  0  0
   44.4840   34.8850   41.9300 H   0  0  0  0  0  0  0  0  0  0  0  0
   43.7020   36.2560   44.3180 H   0  0  0  0  0  0  0  0  0  0  0  0
   43.4830   34.5150   43.9350 H   0  0  0  0  0  0  0  0  0  0  0  0
   44.7120   34.6380   45.9580 H   0  0  0  0  0  0  0  0  0  0  0  0
   45.9130   35.8230   45.2080 H   0  0  0  0  0  0  0  0  0  0  0  0
   45.2420   33.1070   44.0620 H   0  0  0  0  0  0  0  0  0  0  0  0
   47.9530   33.6700   42.9400 C   0  0  0  0  0  0  0  0  0  0  0  0
   48.6370   33.2660   43.7120 H   0  0  0  0  0  0  0  0  0  0  0  0
   48.5400   34.3820   42.3200 H   0  0  0  0  0  0  0  0  0  0  0  0
   47.3940   32.5740   42.0840 C   0  0  0  0  0  0  0  0  0  0  0  0
   47.6390   31.5570   42.4490 H   0  0  0  0  0  0  0  0  0  0  0  0
   46.2740   32.6260   42.0500 H   0  0  0  0  0  0  0  0  0  0  0  0
   49.3730   32.0790   38.9290 C   0  0  0  0  0  0  0  0  0  0  0  0
   48.8960   31.9250   40.2380 C   0  0  0  0  0  0  0  0  0  0  0  0
   47.8970   32.7420   40.6900 C   0  0  0  0  0  0  0  0  0  0  0  0
   47.4100   33.6660   39.8510 N   0  0  0  0  0  0  0  0  0  0  0  0
   47.8780   33.8070   38.5890 C   0  0  0  0  0  0  0  0  0  0  0  0
   48.8610   33.0140   38.1200 N   0  0  0  0  0  0  0  0  0  0  0  0
   50.1620   31.4460   38.5460 H   0  0  0  0  0  0  0  0  0  0  0  0
   49.3610   31.1470   40.8290 H   0  0  0  0  0  0  0  0  0  0  0  0
   47.3600   34.6030   38.0710 H   0  0  0  0  0  0  0  0  0  0  0  0
   46.7390   33.3120   45.5150 O   0  0  0  0  0  0  0  0  0  0  0  0
   45.6240   31.0050   44.8480 O   0  0  0  0  0  0  0  0  0  0  0  0
   46.2490   31.7810   46.0020 P   0  0  2  0  0  0  0  0  0  0  0  0
   44.9830   32.0160   47.1290 O   0  0  0  0  0  0  0  0  0  0  0  0
   45.3640   32.4470   47.9380 H   0  0  0  0  0  0  0  0  0  0  0  0
   47.4620   30.9380   46.7660 O   0  0  0  0  0  0  0  0  0  0  0  0
   48.6410   28.8760   46.6130 C   0  0  2  0  0  3  0  0  0  0  0  0
   47.3350   29.5870   46.4450 C   0  0  1  0  0  3  0  0  0  0  0  0
   46.4510   28.9140   47.4770 C   0  0  0  0  0  3  0  0  0  0  0  0
   45.3760   28.9690   47.2190 H   0  0  0  0  0  0  0  0  0  0  0  0
   46.8510   27.5800   47.3760 O   0  0  0  0  0  0  0  0  0  0  0  0
   48.2550   27.6800   47.4560 C   0  0  0  0  0  3  0  0  0  0  0  0
   48.7680   26.7780   47.1000 H   0  0  0  0  0  0  0  0  0  0  0  0
   49.5160   29.6850   47.3350 O   0  0  0  0  0  0  0  0  0  0  0  0
   49.3080   29.5520   48.3050 H   0  0  0  0  0  0  0  0  0  0  0  0
  1  6  1  0  0  0  0
  2  3  1  0  0  0  0
  2  7  1  0  0  0  0
  2  1  1  0  0  0  0
  3  4  1  0  0  0  0
  4 11  1  0  0  0  0
  4  5  1  0  0  0  0
  5 14  1  0  0  0  0
  5 13  1  0  0  0  0
  6 15  1  6  0  0  0
  6  5  1  0  0  0  0
  6 31  1  0  0  0  0
  8  2  1  0  0  0  0
  9  3  1  0  0  0  0
 10  3  1  0  0  0  0
 12  4  1  0  0  0  0
 16  1  1  0  0  0  0
 16 17  1  0  0  0  0
 18 16  1  0  0  0  0
 19 20  1  0  0  0  0
 19 16  1  0  0  0  0
 21 19  1  0  0  0  0
 22 23  1  0  0  0  0
 23 24  2  0  0  0  0
 23 29  1  0  0  0  0
 24 19  1  0  0  0  0
 25 24  1  0  0  0  0
 26 25  2  0  0  0  0
 27 26  1  0  0  0  0
 27 22  2  0  0  0  0
 28 22  1  0  0  0  0
 30 26  1  0  0  0  0
 31 33  1  0  0  0  0
 33 32  2  6  0  0  0
 33 36  1  0  0  0  0
 33 34  1  0  0  0  0
 34 35  1  0  0  0  0
 37 44  1  1  0  0  0
 37 42  1  0  0  0  0
 38 37  1  0  0  0  0
 38 36  1  1  0  0  0
 38 39  1  0  0  0  0
 40 39  1  0  0  0  0
 41 42  1  0  0  0  0
 41 39  1  0  0  0  0
 43 42  1  0  0  0  0
 44 45  1  0  0  0  0
M  END
>  <minimizedAffinity>
-4.24413109

>  <minimizedRMSD>
1.38398552

$$$$
