
 OpenBabel03252508583D

 45 47  0  0  1  0  0  0  0  0999 V2000
   46.7500   34.4660   43.6120 N   0  0  0  0  0  0  0  0  0  0  0  0
   46.2530   35.5010   42.7630 C   0  0  0  0  0  0  0  0  0  0  0  0
   44.7570   35.6830   42.7980 C   0  0  0  0  0  0  0  0  0  0  0  0
   44.1170   35.3950   44.1230 C   0  0  0  0  0  0  0  0  0  0  0  0
   45.1420   35.0620   45.1800 C   0  0  0  0  0  0  0  0  0  0  0  0
   45.9320   33.8600   44.5510 C   0  0  2  0  0  0  0  0  0  0  0  0
   46.6750   36.4660   43.1720 H   0  0  0  0  0  0  0  0  0  0  0  0
   46.5650   35.4540   41.7200 H   0  0  0  0  0  0  0  0  0  0  0  0
   44.5140   36.6700   42.3940 H   0  0  0  0  0  0  0  0  0  0  0  0
   44.3510   34.9310   42.0660 H   0  0  0  0  0  0  0  0  0  0  0  0
   43.6130   36.3370   44.4480 H   0  0  0  0  0  0  0  0  0  0  0  0
   43.3800   34.5910   44.0910 H   0  0  0  0  0  0  0  0  0  0  0  0
   44.6410   34.7340   46.0930 H   0  0  0  0  0  0  0  0  0  0  0  0
   45.8360   35.9030   45.3080 H   0  0  0  0  0  0  0  0  0  0  0  0
   45.1340   33.1760   44.2090 H   0  0  0  0  0  0  0  0  0  0  0  0
   47.8300   33.7110   43.0360 C   0  0  0  0  0  0  0  0  0  0  0  0
   48.4880   33.2610   43.8050 H   0  0  0  0  0  0  0  0  0  0  0  0
   48.4480   34.4250   42.4500 H   0  0  0  0  0  0  0  0  0  0  0  0
   47.2530   32.6610   42.1350 C   0  0  0  0  0  0  0  0  0  0  0  0
   47.4330   31.6260   42.4860 H   0  0  0  0  0  0  0  0  0  0  0  0
   46.1400   32.7700   42.0580 H   0  0  0  0  0  0  0  0  0  0  0  0
   49.2590   32.0730   39.0130 C   0  0  0  0  0  0  0  0  0  0  0  0
   48.7230   31.9170   40.2990 C   0  0  0  0  0  0  0  0  0  0  0  0
   47.8200   32.8330   40.7660 C   0  0  0  0  0  0  0  0  0  0  0  0
   47.4840   33.8510   39.9650 N   0  0  0  0  0  0  0  0  0  0  0  0
   48.0080   33.9940   38.7260 C   0  0  0  0  0  0  0  0  0  0  0  0
   48.8970   33.1050   38.2420 N   0  0  0  0  0  0  0  0  0  0  0  0
   49.9740   31.3640   38.6180 H   0  0  0  0  0  0  0  0  0  0  0  0
   49.0640   31.0570   40.8600 H   0  0  0  0  0  0  0  0  0  0  0  0
   47.6130   34.8750   38.2370 H   0  0  0  0  0  0  0  0  0  0  0  0
   46.6550   33.3920   45.6350 O   0  0  0  0  0  0  0  0  0  0  0  0
   45.6520   31.0460   44.9270 O   0  0  0  0  0  0  0  0  0  0  0  0
   46.2180   31.8380   46.1000 P   0  0  2  0  0  0  0  0  0  0  0  0
   44.9180   32.0120   47.1990 O   0  0  0  0  0  0  0  0  0  0  0  0
   45.2620   32.4530   48.0190 H   0  0  0  0  0  0  0  0  0  0  0  0
   47.4470   31.0410   46.8860 O   0  0  0  0  0  0  0  0  0  0  0  0
   48.7110   29.0260   46.7910 C   0  0  2  0  0  3  0  0  0  0  0  0
   47.3940   29.6910   46.5400 C   0  0  1  0  0  3  0  0  0  0  0  0
   46.4660   28.9710   47.4990 C   0  0  0  0  0  3  0  0  0  0  0  0
   45.4100   28.9900   47.1670 H   0  0  0  0  0  0  0  0  0  0  0  0
   46.9220   27.6530   47.4110 O   0  0  0  0  0  0  0  0  0  0  0  0
   48.3110   27.8040   47.5900 C   0  0  0  0  0  3  0  0  0  0  0  0
   48.8810   26.9260   47.2590 H   0  0  0  0  0  0  0  0  0  0  0  0
   49.5030   29.8550   47.5820 O   0  0  0  0  0  0  0  0  0  0  0  0
   49.2320   29.7000   48.5340 H   0  0  0  0  0  0  0  0  0  0  0  0
  1  6  1  0  0  0  0
  2  3  1  0  0  0  0
  2  7  1  0  0  0  0
  2  1  1  0  0  0  0
  3  4  1  0  0  0  0
  4 11  1  0  0  0  0
  4  5  1  0  0  0  0
  5 14  1  0  0  0  0
  5 13  1  0  0  0  0
  6 15  1  6  0  0  0
  6  5  1  0  0  0  0
  6 31  1  0  0  0  0
  8  2  1  0  0  0  0
  9  3  1  0  0  0  0
 10  3  1  0  0  0  0
 12  4  1  0  0  0  0
 16  1  1  0  0  0  0
 16 17  1  0  0  0  0
 18 16  1  0  0  0  0
 19 20  1  0  0  0  0
 19 16  1  0  0  0  0
 21 19  1  0  0  0  0
 22 23  1  0  0  0  0
 23 24  2  0  0  0  0
 23 29  1  0  0  0  0
 24 19  1  0  0  0  0
 25 24  1  0  0  0  0
 26 25  2  0  0  0  0
 27 26  1  0  0  0  0
 27 22  2  0  0  0  0
 28 22  1  0  0  0  0
 30 26  1  0  0  0  0
 31 33  1  0  0  0  0
 33 32  2  6  0  0  0
 33 36  1  0  0  0  0
 33 34  1  0  0  0  0
 34 35  1  0  0  0  0
 37 44  1  1  0  0  0
 37 42  1  0  0  0  0
 38 37  1  0  0  0  0
 38 36  1  1  0  0  0
 38 39  1  0  0  0  0
 40 39  1  0  0  0  0
 41 39  1  0  0  0  0
 41 42  1  0  0  0  0
 43 42  1  0  0  0  0
 44 45  1  0  0  0  0
M  END
>  <minimizedAffinity>
-4.30344105

>  <minimizedRMSD>
1.25844824

$$$$
