
     RDKit          3D

 49 51  0  0  0  0  0  0  0  0999 V2000
   47.1742   34.1586   43.0889 N   0  0  0  0  0  0  0  0  0  0  0  0
   46.6604   35.3656   42.5251 C   0  0  0  0  0  0  0  0  0  0  0  0
   45.1860   35.5894   42.7464 C   0  0  0  0  0  0  0  0  0  0  0  0
   44.6529   35.0512   44.0414 C   0  0  0  0  0  0  0  0  0  0  0  0
   45.7496   34.4680   44.8986 C   0  0  0  0  0  0  0  0  0  0  0  0
   46.4117   33.3984   43.9598 C   0  0  2  0  0  0  0  0  0  0  0  0
   48.1540   33.5044   42.2653 C   0  0  0  0  0  0  0  0  0  0  0  0
   47.4415   32.6528   41.2578 C   0  0  0  0  0  0  0  0  0  0  0  0
   49.3371   32.2914   38.0337 C   0  0  0  0  0  0  0  0  0  0  0  0
   48.8156   32.0249   39.3083 C   0  0  0  0  0  0  0  0  0  0  0  0
   47.9931   32.9418   39.9020 C   0  0  0  0  0  0  0  0  0  0  0  0
   47.7173   34.0683   39.2332 N   0  0  0  0  0  0  0  0  0  0  0  0
   48.2259   34.3155   38.0035 C   0  0  0  0  0  0  0  0  0  0  0  0
   49.0381   33.4293   37.3970 N   0  0  0  0  0  0  0  0  0  0  0  0
   47.2029   32.6875   44.8474 O   0  0  0  0  0  0  0  0  0  0  0  0
   46.0022   30.5433   43.8644 O   0  0  0  0  0  0  0  0  0  0  0  0
   46.6557   31.1215   45.1127 P   0  0  2  0  0  0  0  0  0  0  0  0
   45.4003   31.2407   46.2694 O   0  0  0  0  0  0  0  0  0  0  0  0
   47.8375   30.1353   45.7423 O   0  0  0  0  0  0  0  0  0  0  0  0
   47.1700   36.2082   43.0786 H   0  0  0  0  0  0  0  0  0  0  0  0
   46.8725   35.5281   41.4688 H   0  0  0  0  0  0  0  0  0  0  0  0
   44.9625   36.6462   42.5798 H   0  0  0  0  0  0  0  0  0  0  0  0
   44.6738   35.0217   41.9192 H   0  0  0  0  0  0  0  0  0  0  0  0
   44.2339   35.9207   44.6009 H   0  0  0  0  0  0  0  0  0  0  0  0
   43.8729   34.2992   43.9179 H   0  0  0  0  0  0  0  0  0  0  0  0
   45.3165   33.9743   45.7705 H   0  0  0  0  0  0  0  0  0  0  0  0
   46.4982   35.2392   45.1273 H   0  0  0  0  0  0  0  0  0  0  0  0
   45.5502   32.8304   43.5658 H   0  0  0  0  0  0  0  0  0  0  0  0
   48.8733   32.9054   42.8585 H   0  0  0  0  0  0  0  0  0  0  0  0
   48.7333   34.3034   41.7537 H   0  0  0  0  0  0  0  0  0  0  0  0
   47.5111   31.5673   41.4654 H   0  0  0  0  0  0  0  0  0  0  0  0
   46.3463   32.8920   41.2370 H   0  0  0  0  0  0  0  0  0  0  0  0
   49.9902   31.5836   37.5409 H   0  0  0  0  0  0  0  0  0  0  0  0
   49.1038   31.0837   39.7573 H   0  0  0  0  0  0  0  0  0  0  0  0
   47.8881   35.2736   37.6311 H   0  0  0  0  0  0  0  0  0  0  0  0
   45.7968   31.5380   47.1290 H   0  0  0  0  0  0  0  0  0  0  0  0
   46.5478   29.4324   47.7321 O   0  0  0  0  0  0  0  0  0  0  0  0
   46.8063   28.3366   46.9112 C   0  0  2  0  0  0  0  0  0  0  0  0
   47.4157   28.8101   45.6294 C   0  0  1  0  0  0  0  0  0  0  0  0
   46.2540   28.7421   44.6583 C   0  0  2  0  0  0  0  0  0  0  0  0
   46.5816   28.6171   43.6083 H   0  0  0  0  0  0  0  0  0  0  0  0
   45.6140   27.5650   45.0533 O   0  0  0  0  0  0  0  0  0  0  0  0
   45.4945   27.7406   46.4468 C   0  0  1  0  0  0  0  0  0  0  0  0
   45.2889   26.8032   46.9786 H   0  0  0  0  0  0  0  0  0  0  0  0
   45.6695   29.8160   47.4442 H   0  0  0  0  0  0  0  0  0  0  0  0
   47.3901   27.5487   47.3928 H   0  0  0  0  0  0  0  0  0  0  0  0
   48.2283   28.1329   45.2456 H   0  0  0  0  0  0  0  0  0  0  0  0
   45.6190   29.6188   44.7941 H   0  0  0  0  0  0  0  0  0  0  0  0
   44.6503   28.4469   46.6677 H   0  0  0  0  0  0  0  0  0  0  0  0
  1  6  1  0
  2  3  1  0
  2  1  1  0
  3  4  1  0
  4  5  1  0
  6 15  1  0
  6  5  1  0
  7  1  1  0
  8  7  1  0
  9 10  2  0
 10 11  1  0
 11  8  1  0
 12 11  2  0
 13 12  1  0
 14 13  2  0
 14  9  1  0
 17 15  1  6
 16 17  2  0
 17 19  1  0
 17 18  1  0
  2 20  1  0
  2 21  1  0
  3 22  1  0
  3 23  1  0
  4 24  1  0
  4 25  1  0
  5 26  1  0
  5 27  1  0
  6 28  1  6
  7 29  1  0
  7 30  1  0
  8 31  1  0
  8 32  1  0
  9 33  1  0
 10 34  1  0
 13 35  1  0
 18 36  1  0
 37 38  1  0
 38 39  1  0
 39 40  1  0
 40 41  1  6
 40 42  1  0
 42 43  1  0
 43 44  1  1
 43 38  1  0
 37 45  1  0
 38 46  1  1
 39 47  1  6
 40 48  1  0
 43 49  1  0
 19 39  1  0
M  ISO  8  20  13  21  13  22  13  23  13  24  13  25  13  26  13  27  13
M  ISO  8  28  13  29   8  30   8  31   8  32   8  33  14  34  14  35  14
M  ISO  3  36   3  41  15  44  16
M  END
>  <DihAtoms>  (1) 
16,18,38,37

>  <DihDeg>  (1) 
127.875386956451

$$$$
