
 OpenBabel03252508583D

 45 47  0  0  1  0  0  0  0  0999 V2000
   46.7050   34.5680   43.4740 N   0  0  0  0  0  0  0  0  0  0  0  0
   46.2080   35.6350   42.6660 C   0  0  0  0  0  0  0  0  0  0  0  0
   44.7100   35.7990   42.6870 C   0  0  0  0  0  0  0  0  0  0  0  0
   44.0540   35.4420   43.9880 C   0  0  0  0  0  0  0  0  0  0  0  0
   45.0680   35.0730   45.0440 C   0  0  0  0  0  0  0  0  0  0  0  0
   45.8810   33.9100   44.3720 C   0  0  2  0  0  0  0  0  0  0  0  0
   46.6130   36.5850   43.1250 H   0  0  0  0  0  0  0  0  0  0  0  0
   46.5350   35.6390   41.6270 H   0  0  0  0  0  0  0  0  0  0  0  0
   44.4610   36.8000   42.3250 H   0  0  0  0  0  0  0  0  0  0  0  0
   44.3230   35.0760   41.9150 H   0  0  0  0  0  0  0  0  0  0  0  0
   43.5350   36.3630   44.3480 H   0  0  0  0  0  0  0  0  0  0  0  0
   43.3270   34.6330   43.9080 H   0  0  0  0  0  0  0  0  0  0  0  0
   44.5580   34.6980   45.9330 H   0  0  0  0  0  0  0  0  0  0  0  0
   45.7500   35.9150   45.2200 H   0  0  0  0  0  0  0  0  0  0  0  0
   45.0960   33.2340   43.9870 H   0  0  0  0  0  0  0  0  0  0  0  0
   47.8020   33.8520   42.8800 C   0  0  0  0  0  0  0  0  0  0  0  0
   48.4950   33.4350   43.6380 H   0  0  0  0  0  0  0  0  0  0  0  0
   48.3780   34.5850   42.2760 H   0  0  0  0  0  0  0  0  0  0  0  0
   47.2490   32.7720   42.0000 C   0  0  0  0  0  0  0  0  0  0  0  0
   47.4540   31.7480   42.3710 H   0  0  0  0  0  0  0  0  0  0  0  0
   46.1330   32.8530   41.9230 H   0  0  0  0  0  0  0  0  0  0  0  0
   49.1140   32.0760   38.8140 C   0  0  0  0  0  0  0  0  0  0  0  0
   48.5850   31.9320   40.1040 C   0  0  0  0  0  0  0  0  0  0  0  0
   47.8100   32.9310   40.6270 C   0  0  0  0  0  0  0  0  0  0  0  0
   47.5890   34.0160   39.8750 N   0  0  0  0  0  0  0  0  0  0  0  0
   48.1060   34.1460   38.6320 C   0  0  0  0  0  0  0  0  0  0  0  0
   48.8710   33.1770   38.0930 N   0  0  0  0  0  0  0  0  0  0  0  0
   49.7300   31.3030   38.3750 H   0  0  0  0  0  0  0  0  0  0  0  0
   48.8270   31.0140   40.6220 H   0  0  0  0  0  0  0  0  0  0  0  0
   47.8150   35.0890   38.1880 H   0  0  0  0  0  0  0  0  0  0  0  0
   46.5940   33.4010   45.4440 O   0  0  0  0  0  0  0  0  0  0  0  0
   45.5500   31.1220   44.5900 O   0  0  0  0  0  0  0  0  0  0  0  0
   46.2300   31.7950   45.7770 P   0  0  2  0  0  0  0  0  0  0  0  0
   45.0550   31.8150   47.0200 O   0  0  0  0  0  0  0  0  0  0  0  0
   45.4800   32.1720   47.8430 H   0  0  0  0  0  0  0  0  0  0  0  0
   47.5480   30.9470   46.3340 O   0  0  0  0  0  0  0  0  0  0  0  0
   47.2040   28.9370   47.5590 C   0  0  2  0  0  3  0  0  0  0  0  0
   47.2830   29.5830   46.2110 C   0  0  1  0  0  3  0  0  0  0  0  0
   45.8820   29.3980   45.6650 C   0  0  0  0  0  3  0  0  0  0  0  0
   45.8520   29.3960   44.5590 H   0  0  0  0  0  0  0  0  0  0  0  0
   45.5650   28.1110   46.1080 O   0  0  0  0  0  0  0  0  0  0  0  0
   45.8990   28.1740   47.4760 C   0  0  0  0  0  3  0  0  0  0  0  0
   46.0030   27.1820   47.9350 H   0  0  0  0  0  0  0  0  0  0  0  0
   47.1000   29.9210   48.5380 O   0  0  0  0  0  0  0  0  0  0  0  0
   46.1350   30.1800   48.5940 H   0  0  0  0  0  0  0  0  0  0  0  0
  1  6  1  0  0  0  0
  2  3  1  0  0  0  0
  2  7  1  0  0  0  0
  2  1  1  0  0  0  0
  3  4  1  0  0  0  0
  4 11  1  0  0  0  0
  4  5  1  0  0  0  0
  5 14  1  0  0  0  0
  5 13  1  0  0  0  0
  6 15  1  6  0  0  0
  6  5  1  0  0  0  0
  6 31  1  0  0  0  0
  8  2  1  0  0  0  0
  9  3  1  0  0  0  0
 10  3  1  0  0  0  0
 12  4  1  0  0  0  0
 16  1  1  0  0  0  0
 16 17  1  0  0  0  0
 18 16  1  0  0  0  0
 19 20  1  0  0  0  0
 19 16  1  0  0  0  0
 21 19  1  0  0  0  0
 22 23  1  0  0  0  0
 23 29  1  0  0  0  0
 23 24  2  0  0  0  0
 24 19  1  0  0  0  0
 25 24  1  0  0  0  0
 26 25  2  0  0  0  0
 27 26  1  0  0  0  0
 27 22  2  0  0  0  0
 28 22  1  0  0  0  0
 30 26  1  0  0  0  0
 31 33  1  0  0  0  0
 33 32  2  6  0  0  0
 33 36  1  0  0  0  0
 33 34  1  0  0  0  0
 34 35  1  0  0  0  0
 37 44  1  1  0  0  0
 38 36  1  1  0  0  0
 38 37  1  0  0  0  0
 39 41  1  0  0  0  0
 39 38  1  0  0  0  0
 40 39  1  0  0  0  0
 41 42  1  0  0  0  0
 42 37  1  0  0  0  0
 42 43  1  0  0  0  0
 44 45  1  0  0  0  0
M  END
>  <minimizedAffinity>
-4.478827

>  <minimizedRMSD>
1.26521873

$$$$
