
     RDKit          3D

 43 45  0  0  0  0  0  0  0  0999 V2000
   45.1891   33.4586   41.1631 F   0  0  0  0  0  0  0  0  0  0  0  0
   46.3549   34.0469   41.0331 C   0  0  0  0  0  0  0  0  0  0  0  0
   46.8375   34.7952   42.1019 C   0  0  0  0  0  0  0  0  0  0  0  0
   48.0780   35.4675   42.0711 C   0  0  0  0  0  0  0  0  0  0  0  0
   48.8621   35.3794   40.9139 C   0  0  0  0  0  0  0  0  0  0  0  0
   48.3368   34.6243   39.8832 C   0  0  0  0  0  0  0  0  0  0  0  0
   47.1529   33.9780   39.9002 C   0  0  0  0  0  0  0  0  0  0  0  0
   45.4800   33.9992   45.4077 C   0  0  0  0  0  0  0  0  0  0  0  0
   44.6241   35.0974   45.6520 C   0  0  0  0  0  0  0  0  0  0  0  0
   44.5212   36.1232   44.6535 C   0  0  0  0  0  0  0  0  0  0  0  0
   45.2704   35.9626   43.5186 N   0  0  0  0  0  0  0  0  0  0  0  0
   46.0569   34.9145   43.3387 C   0  0  0  0  0  0  0  0  0  0  0  0
   46.1687   33.9352   44.2681 N   0  0  0  0  0  0  0  0  0  0  0  0
   45.5569   33.0184   46.4065 N   0  0  0  0  0  0  0  0  0  0  0  0
   46.7489   33.2651   38.8102 O   0  0  0  0  0  0  0  0  0  0  0  0
   48.0498   34.7121   37.0185 O   0  0  0  0  0  0  0  0  0  0  0  0
   47.2965   33.4065   37.2338 P   0  0  2  0  0  0  0  0  0  0  0  0
   45.9890   33.3507   36.1566 O   0  0  0  0  0  0  0  0  0  0  0  0
   48.3008   32.1343   36.7639 O   0  0  0  0  0  0  0  0  0  0  0  0
   47.5496   30.9615   36.5674 C   0  0  0  0  0  0  0  0  0  0  0  0
   47.2131   30.9905   35.2094 F   0  0  0  0  0  0  0  0  0  0  0  0
   48.3249   29.8427   36.7725 F   0  0  0  0  0  0  0  0  0  0  0  0
   46.4479   30.8712   37.3760 F   0  0  0  0  0  0  0  0  0  0  0  0
   48.3839   36.0346   42.9537 H   0  0  0  0  0  0  0  0  0  0  0  0
   49.7812   35.9087   40.9606 H   0  0  0  0  0  0  0  0  0  0  0  0
   49.0626   34.6458   39.0608 H   0  0  0  0  0  0  0  0  0  0  0  0
   44.0513   35.1895   46.5550 H   0  0  0  0  0  0  0  0  0  0  0  0
   43.8769   36.9771   44.8061 H   0  0  0  0  0  0  0  0  0  0  0  0
   45.0113   32.1261   46.5118 H   0  0  0  0  0  0  0  0  0  0  0  0
   46.1486   32.9219   47.2670 H   0  0  0  0  0  0  0  0  0  0  0  0
   45.0336   33.8279   39.0535 O   0  0  0  0  0  0  0  0  0  0  0  0
   44.5113   33.1692   37.9424 C   0  0  2  0  0  0  0  0  0  0  0  0
   44.8357   33.9147   36.6621 C   0  0  2  0  0  0  0  0  0  0  0  0
   43.6219   33.6418   35.8253 C   0  0  2  0  0  0  0  0  0  0  0  0
   43.7756   32.7567   35.1744 H   0  0  0  0  0  0  0  0  0  0  0  0
   42.5635   33.4081   36.6593 O   0  0  0  0  0  0  0  0  0  0  0  0
   43.0198   33.1519   37.9215 C   0  0  1  0  0  0  0  0  0  0  0  0
   42.6165   32.1796   38.3291 H   0  0  0  0  0  0  0  0  0  0  0  0
   45.2802   33.2532   39.7958 H   0  0  0  0  0  0  0  0  0  0  0  0
   44.9362   32.1363   37.8958 H   0  0  0  0  0  0  0  0  0  0  0  0
   44.9570   34.9785   36.9232 H   0  0  0  0  0  0  0  0  0  0  0  0
   43.3744   34.5556   35.2353 H   0  0  0  0  0  0  0  0  0  0  0  0
   42.6715   33.9112   38.6817 H   0  0  0  0  0  0  0  0  0  0  0  0
  2  1  1  0
  2  3  2  0
  3 12  1  0
  4  3  1  0
  5  4  2  0
  6  7  2  0
  6  5  1  0
  7  2  1  0
  8  9  2  0
  8 14  1  0
 10  9  1  0
 11 10  2  0
 12 11  1  0
 12 13  2  0
 13  8  1  0
 15  7  1  0
 17 16  2  0
 17 15  1  1
 18 17  1  0
 19 17  1  0
 20 19  1  0
 20 22  1  0
 20 23  1  0
 21 20  1  0
  4 24  1  0
  5 25  1  0
  6 26  1  0
  9 27  1  0
 10 28  1  0
 14 29  1  0
 14 30  1  0
 31 32  1  0
 32 33  1  0
 33 34  1  0
 34 35  1  6
 34 36  1  0
 36 37  1  0
 37 38  1  1
 37 32  1  0
 31 39  1  0
 32 40  1  6
 33 41  1  1
 34 42  1  0
 37 43  1  0
 18 33  1  0
M  ISO  7  24  14  25  14  26  14  27  14  28  14  35  15  38  16
M  END
>  <DihAtoms>  (1) 
16,17,32,31

>  <DihDeg>  (1) 
-117.68123517313221

$$$$
