
 OpenBabel03252506153D

 39 41  0  0  1  0  0  0  0  0999 V2000
   45.2860   32.9420   41.4180 F   0  0  0  0  0  0  0  0  0  0  0  0
   46.3580   33.6390   41.1240 C   0  0  0  0  0  0  0  0  0  0  0  0
   46.7600   34.6330   42.0100 C   0  0  0  0  0  0  0  0  0  0  0  0
   47.8970   35.4410   41.7930 C   0  0  0  0  0  0  0  0  0  0  0  0
   48.6580   35.2340   40.6360 C   0  0  0  0  0  0  0  0  0  0  0  0
   48.2160   34.2350   39.7910 C   0  0  0  0  0  0  0  0  0  0  0  0
   47.1310   33.4570   39.9860 C   0  0  0  0  0  0  0  0  0  0  0  0
   48.1440   36.2010   42.5390 H   0  0  0  0  0  0  0  0  0  0  0  0
   49.4980   35.8770   40.5390 H   0  0  0  0  0  0  0  0  0  0  0  0
   48.9130   34.1920   38.9450 H   0  0  0  0  0  0  0  0  0  0  0  0
   45.4460   34.1900   45.3990 C   0  0  0  0  0  0  0  0  0  0  0  0
   44.6050   35.3170   45.5430 C   0  0  0  0  0  0  0  0  0  0  0  0
   44.4970   36.2380   44.4480 C   0  0  0  0  0  0  0  0  0  0  0  0
   45.2270   35.9560   43.3240 N   0  0  0  0  0  0  0  0  0  0  0  0
   46.0000   34.8850   43.2400 C   0  0  0  0  0  0  0  0  0  0  0  0
   46.1160   34.0030   44.2610 N   0  0  0  0  0  0  0  0  0  0  0  0
   44.0470   35.5070   46.4400 H   0  0  0  0  0  0  0  0  0  0  0  0
   43.8650   37.1110   44.5220 H   0  0  0  0  0  0  0  0  0  0  0  0
   45.5280   33.3140   46.4900 N   0  0  0  0  0  0  0  0  0  0  0  0
   44.9750   32.4430   46.6920 H   0  0  0  0  0  0  0  0  0  0  0  0
   46.1320   33.2980   47.3470 H   0  0  0  0  0  0  0  0  0  0  0  0
   46.8010   32.5030   39.0690 O   0  0  0  0  0  0  0  0  0  0  0  0
   45.8070   33.7250   36.9450 O   0  0  0  0  0  0  0  0  0  0  0  0
   46.7830   32.6500   37.4010 P   0  0  2  0  0  0  0  0  0  0  0  0
   46.3380   31.1760   36.6930 O   0  0  0  0  0  0  0  0  0  0  0  0
   44.0890   31.6550   37.0340 C   0  0  2  0  0  3  0  0  0  0  0  0
   45.1900   30.6320   37.2310 C   0  0  2  0  0  3  0  0  0  0  0  0
   45.2350   30.5040   38.7250 C   0  0  0  0  0  3  0  0  0  0  0  0
   45.9920   31.1860   39.1620 H   0  0  0  0  0  0  0  0  0  0  0  0
   44.0020   30.8220   39.2240 O   0  0  0  0  0  0  0  0  0  0  0  0
   43.2730   31.4750   38.2700 C   0  0  0  0  0  3  0  0  0  0  0  0
   42.8730   32.4610   38.6430 H   0  0  0  0  0  0  0  0  0  0  0  0
   43.3720   31.4030   35.8660 O   0  0  0  0  0  0  0  0  0  0  0  0
   42.9990   32.1870   35.4330 H   0  0  0  0  0  0  0  0  0  0  0  0
   48.3010   33.0030   36.7500 O   0  0  0  0  0  0  0  0  0  0  0  0
   49.2130   31.9760   37.0450 C   0  0  0  0  0  0  0  0  0  0  0  0
   49.4170   31.3310   35.8190 F   0  0  0  0  0  0  0  0  0  0  0  0
   50.4250   32.4950   37.4400 F   0  0  0  0  0  0  0  0  0  0  0  0
   48.7800   31.1160   38.0200 F   0  0  0  0  0  0  0  0  0  0  0  0
  2  1  1  0  0  0  0
  2  3  1  0  0  0  0
  3 15  1  0  0  0  0
  4  3  2  0  0  0  0
  4  8  1  0  0  0  0
  5  4  1  0  0  0  0
  6  7  1  0  0  0  0
  6  5  2  0  0  0  0
  7  2  2  0  0  0  0
  9  5  1  0  0  0  0
 10  6  1  0  0  0  0
 11 12  1  0  0  0  0
 11 19  1  0  0  0  0
 12 17  1  0  0  0  0
 13 18  1  0  0  0  0
 13 12  2  0  0  0  0
 14 13  1  0  0  0  0
 15 14  2  0  0  0  0
 15 16  1  0  0  0  0
 16 11  2  0  0  0  0
 19 20  1  0  0  0  0
 19 21  1  0  0  0  0
 22  7  1  0  0  0  0
 24 23  2  6  0  0  0
 24 22  1  0  0  0  0
 25 24  1  0  0  0  0
 26 33  1  6  0  0  0
 26 27  1  0  0  0  0
 26 31  1  0  0  0  0
 27 25  1  1  0  0  0
 27 28  1  0  0  0  0
 28 29  1  0  0  0  0
 28 30  1  0  0  0  0
 31 32  1  0  0  0  0
 31 30  1  0  0  0  0
 34 33  1  0  0  0  0
 35 36  1  0  0  0  0
 35 24  1  0  0  0  0
 36 38  1  0  0  0  0
 36 39  1  0  0  0  0
 37 36  1  0  0  0  0
M  END
>  <minimizedAffinity>
-5.55712032

>  <minimizedRMSD>
2.21387172

$$$$
