
 OpenBabel03252503013D

 30 31  0  0  1  0  0  0  0  0999 V2000
   43.3840   35.3540   43.0740 N   0  0  0  0  0  0  0  0  0  0  0  0
   42.6530   35.9350   43.5060 H   0  0  0  0  0  0  0  0  0  0  0  0
   43.2090   35.4360   41.6140 C   0  0  0  0  0  0  0  0  0  0  0  0
   42.5890   36.2980   41.3340 H   0  0  0  0  0  0  0  0  0  0  0  0
   44.2430   35.6210   41.1980 H   0  0  0  0  0  0  0  0  0  0  0  0
   42.5620   33.8600   41.0800 S   0  0  0  0  0  0  0  0  0  0  0  0
   39.8950   34.1820   40.4440 C   0  0  0  0  0  0  0  0  0  0  0  0
   41.1840   34.1120   39.9490 C   0  0  0  0  0  0  0  0  0  0  0  0
   41.4390   34.2340   38.5730 C   0  0  0  0  0  0  0  0  0  0  0  0
   40.3550   34.4220   37.7740 N   0  0  0  0  0  0  0  0  0  0  0  0
   39.1270   34.4840   38.2920 C   0  0  0  0  0  0  0  0  0  0  0  0
   38.8520   34.3730   39.5860 N   0  0  0  0  0  0  0  0  0  0  0  0
   39.7280   34.0840   41.5120 H   0  0  0  0  0  0  0  0  0  0  0  0
   42.4660   34.1750   38.2050 H   0  0  0  0  0  0  0  0  0  0  0  0
   38.3990   34.6380   37.4950 H   0  0  0  0  0  0  0  0  0  0  0  0
   44.9530   35.9030   43.5320 S   0  0  0  0  0  0  0  0  0  0  0  0
   46.0200   35.4450   42.6220 O   0  0  0  0  0  0  0  0  0  0  0  0
   46.0900   35.8110   41.7170 H   0  0  0  0  0  0  0  0  0  0  0  0
   44.8570   37.4290   43.5350 O   0  0  0  0  0  0  0  0  0  0  0  0
   44.4360   37.8460   44.3390 H   0  0  0  0  0  0  0  0  0  0  0  0
   45.2350   35.4880   45.1210 O   0  0  0  0  0  0  0  0  0  0  0  0
   45.6350   33.5990   46.5970 C   0  0  2  0  0  3  0  0  0  0  0  0
   45.3300   34.1240   45.2090 C   0  0  2  0  0  3  0  0  0  0  0  0
   46.5520   33.5690   44.4930 C   0  0  0  0  0  3  0  0  0  0  0  0
   46.3440   33.4380   43.4120 H   0  0  0  0  0  0  0  0  0  0  0  0
   46.8540   32.3650   45.0970 O   0  0  0  0  0  0  0  0  0  0  0  0
   46.0390   32.1770   46.1840 C   0  0  0  0  0  3  0  0  0  0  0  0
   45.0960   31.7000   45.8280 H   0  0  0  0  0  0  0  0  0  0  0  0
   44.5730   33.6110   47.4570 O   0  0  0  0  0  0  0  0  0  0  0  0
   44.0210   32.8110   47.4280 H   0  0  0  0  0  0  0  0  0  0  0  0
  1  2  1  0  0  0  0
  1 16  1  0  0  0  0
  3  1  1  0  0  0  0
  4  3  1  0  0  0  0
  5  3  1  0  0  0  0
  6  3  1  0  0  0  0
  7 13  1  0  0  0  0
  8  7  1  0  0  0  0
  8  6  1  0  0  0  0
  9  8  2  0  0  0  0
 10 11  2  0  0  0  0
 10  9  1  0  0  0  0
 11 12  1  0  0  0  0
 12  7  2  0  0  0  0
 14  9  1  0  0  0  0
 15 11  1  0  0  0  0
 16 19  1  0  0  0  0
 16 21  1  0  0  0  0
 17 16  1  0  0  0  0
 18 17  1  0  0  0  0
 19 20  1  0  0  0  0
 22 29  1  1  0  0  0
 23 21  1  1  0  0  0
 23 22  1  0  0  0  0
 24 26  1  0  0  0  0
 24 23  1  0  0  0  0
 25 24  1  0  0  0  0
 26 27  1  0  0  0  0
 27 22  1  0  0  0  0
 28 27  1  0  0  0  0
 30 29  1  0  0  0  0
M  END
>  <minimizedAffinity>
-5.28321934

>  <minimizedRMSD>
0.668428719

$$$$
