REMARK  Name = 
REMARK  9 active torsions:
REMARK  status: ('A' for Active; 'I' for Inactive)
REMARK    1  A    between atoms: C_3  and  C_12
REMARK    2  A    between atoms: C_7  and  O_15
REMARK    3  A    between atoms: C_8  and  N_14
REMARK    4  A    between atoms: O_15  and  P_17
REMARK    5  A    between atoms: P_17  and  O_18
REMARK    6  A    between atoms: P_17  and  O_19
REMARK    7  A    between atoms: O_18  and  C_33
REMARK    8  A    between atoms: O_19  and  C_20
REMARK    9  A    between atoms: O_31  and  C_32
REMARK                            x       y       z     vdW  Elec       q    Type
REMARK                         _______ _______ _______ _____ _____    ______ ____
ROOT
ATOM      1  F   UNL     1      45.189  33.459  41.163  0.00  0.00    +0.000 F 
ATOM      2  C   UNL     1      46.355  34.047  41.033  0.00  0.00    +0.000 A 
ATOM      3  C   UNL     1      46.837  34.795  42.102  0.00  0.00    +0.000 A 
ATOM      4  C   UNL     1      48.078  35.468  42.071  0.00  0.00    +0.000 A 
ATOM      5  C   UNL     1      48.862  35.379  40.914  0.00  0.00    +0.000 A 
ATOM      6  C   UNL     1      48.337  34.624  39.883  0.00  0.00    +0.000 A 
ATOM      7  C   UNL     1      47.153  33.978  39.900  0.00  0.00    +0.000 A 
ATOM      8  H   UNL     1      48.384  36.035  42.954  0.00  0.00    +0.000 HD
ATOM      9  H   UNL     1      49.781  35.909  40.961  0.00  0.00    +0.000 HD
ATOM     10  H   UNL     1      49.063  34.646  39.061  0.00  0.00    +0.000 HD
ENDROOT
BRANCH   3  15
ATOM     11  C   UNL     1      45.480  33.999  45.408  0.00  0.00    +0.000 A 
ATOM     12  C   UNL     1      44.624  35.097  45.652  0.00  0.00    +0.000 A 
ATOM     13  C   UNL     1      44.521  36.123  44.654  0.00  0.00    +0.000 A 
ATOM     14  N   UNL     1      45.270  35.963  43.519  0.00  0.00    +0.000 NA
ATOM     15  C   UNL     1      46.057  34.914  43.339  0.00  0.00    +0.000 A 
ATOM     16  N   UNL     1      46.169  33.935  44.268  0.00  0.00    +0.000 NA
ATOM     17  H   UNL     1      44.051  35.190  46.555  0.00  0.00    +0.000 HD
ATOM     18  H   UNL     1      43.877  36.977  44.806  0.00  0.00    +0.000 HD
BRANCH  11  19
ATOM     19  N   UNL     1      45.557  33.018  46.407  0.00  0.00    +0.000 N 
ATOM     20  H   UNL     1      45.011  32.126  46.512  0.00  0.00    +0.000 HD
ATOM     21  H   UNL     1      46.149  32.922  47.267  0.00  0.00    +0.000 HD
ENDBRANCH  11  19
ENDBRANCH   3  15
BRANCH   7  22
ATOM     22  O   UNL     1      46.749  33.265  38.810  0.00  0.00    +0.000 OA
BRANCH  22  24
ATOM     23  O   UNL     1      48.050  34.712  37.019  0.00  0.00    +0.000 OA
ATOM     24  P   UNL     1      47.297  33.407  37.234  0.00  0.00    +0.000 P 
BRANCH  24  25
ATOM     25  O   UNL     1      45.989  33.351  36.157  0.00  0.00    +0.000 OA
BRANCH  25  27
ATOM     26  C   UNL     1      44.640  35.231  35.935  0.00  0.00    +0.000 C 
ATOM     27  C   UNL     1      44.836  33.915  36.662  0.00  0.00    +0.000 C 
ATOM     28  C   UNL     1      44.965  34.361  38.087  0.00  0.00    +0.000 C 
ATOM     29  H   UNL     1      46.029  34.505  38.367  0.00  0.00    +0.000 HD
ATOM     30  O   UNL     1      44.299  35.547  38.233  0.00  0.00    +0.000 OA
ATOM     31  C   UNL     1      44.055  36.092  37.004  0.00  0.00    +0.000 C 
ATOM     32  H   UNL     1      44.434  37.152  36.927  0.00  0.00    +0.000 HD
BRANCH  26  33
ATOM     33  O   UNL     1      43.796  35.077  34.836  0.00  0.00    +0.000 OA
ATOM     34  H   UNL     1      43.969  35.681  34.096  0.00  0.00    +0.000 HD
ENDBRANCH  26  33
ENDBRANCH  25  27
ENDBRANCH  24  25
BRANCH  24  35
ATOM     35  O   UNL     1      48.301  32.134  36.764  0.00  0.00    +0.000 OA
BRANCH  35  36
ATOM     36  C   UNL     1      47.550  30.962  36.567  0.00  0.00    +0.000 C 
ATOM     37  F   UNL     1      47.213  30.991  35.209  0.00  0.00    +0.000 F 
ATOM     38  F   UNL     1      48.325  29.843  36.773  0.00  0.00    +0.000 F 
ATOM     39  F   UNL     1      46.448  30.871  37.376  0.00  0.00    +0.000 F 
ENDBRANCH  35  36
ENDBRANCH  24  35
ENDBRANCH  22  24
ENDBRANCH   7  22
TORSDOF 9
