
 OpenBabel03242523503D

 43 46  0  0  1  0  0  0  0  0999 V2000
   42.8210   34.4280   38.7700 C   0  0  1  0  0  0  0  0  0  0  0  0
   42.9960   35.1490   40.1060 C   0  0  1  0  0  0  0  0  0  0  0  0
   41.7300   35.4870   40.6240 O   0  0  0  0  0  0  0  0  0  0  0  0
   40.8010   35.8010   39.6270 C   0  0  0  0  0  0  0  0  0  0  0  0
   40.4270   34.5780   38.8240 C   0  0  2  0  0  0  0  0  0  0  0  0
   41.5810   33.5710   38.9580 C   0  0  1  0  0  0  0  0  0  0  0  0
   43.7270   33.8190   38.6190 H   0  0  0  0  0  0  0  0  0  0  0  0
   43.6160   36.0400   39.9480 H   0  0  0  0  0  0  0  0  0  0  0  0
   39.9250   36.2040   40.1740 H   0  0  0  0  0  0  0  0  0  0  0  0
   41.1350   36.6600   38.9840 H   0  0  0  0  0  0  0  0  0  0  0  0
   39.4750   34.1270   39.1320 H   0  0  0  0  0  0  0  0  0  0  0  0
   41.4940   33.1910   39.9950 H   0  0  0  0  0  0  0  0  0  0  0  0
   42.6150   35.3460   37.7410 O   0  0  0  0  0  0  0  0  0  0  0  0
   43.2060   35.0620   37.0080 H   0  0  0  0  0  0  0  0  0  0  0  0
   40.4330   34.9340   37.4640 O   0  0  0  0  0  0  0  0  0  0  0  0
   39.7960   34.3610   37.0010 H   0  0  0  0  0  0  0  0  0  0  0  0
   43.4970   34.2040   41.0010 O   0  0  0  0  0  0  0  0  0  0  0  0
   44.6100   34.3290   41.7270 C   0  0  0  0  0  0  0  0  0  0  0  0
   45.8570   34.4570   41.1190 C   0  0  0  0  0  0  0  0  0  0  0  0
   46.9760   34.5850   41.9300 C   0  0  0  0  0  0  0  0  0  0  0  0
   46.8350   34.5840   43.3100 N   0  0  0  0  0  0  0  0  0  0  0  0
   45.6160   34.4580   43.8500 C   0  0  0  0  0  0  0  0  0  0  0  0
   44.5100   34.3320   43.0760 N   0  0  0  0  0  0  0  0  0  0  0  0
   45.9800   34.4600   40.0440 H   0  0  0  0  0  0  0  0  0  0  0  0
   45.5210   34.4590   44.9220 H   0  0  0  0  0  0  0  0  0  0  0  0
   48.3490   34.7170   41.3130 C   0  0  0  0  0  0  0  0  0  0  0  0
   49.0730   36.0270   41.5140 C   0  0  0  0  0  0  0  0  0  0  0  0
   49.5140   34.7030   42.1580 C   0  0  0  0  0  0  0  0  0  0  0  0
   48.3420   34.4210   40.2440 H   0  0  0  0  0  0  0  0  0  0  0  0
   48.6310   36.7840   42.1860 H   0  0  0  0  0  0  0  0  0  0  0  0
   49.7310   36.4330   40.7300 H   0  0  0  0  0  0  0  0  0  0  0  0
   49.3730   34.6570   43.2510 H   0  0  0  0  0  0  0  0  0  0  0  0
   50.4430   34.2350   41.7520 H   0  0  0  0  0  0  0  0  0  0  0  0
   41.4530   32.5710   38.0220 O   0  0  0  0  0  0  0  0  0  0  0  0
   39.9070   30.8220   37.9710 C   0  0  1  0  0  0  0  0  0  0  0  0
   41.2120   31.3230   38.5680 C   0  0  2  0  0  0  0  0  0  0  0  0
   40.7830   31.5340   40.0060 C   0  0  0  0  0  0  0  0  0  0  0  0
   40.2720   32.5210   40.0870 H   0  0  0  0  0  0  0  0  0  0  0  0
   39.8480   30.5480   40.3010 O   0  0  0  0  0  0  0  0  0  0  0  0
   39.1720   30.2340   39.1360 C   0  0  0  0  0  0  0  0  0  0  0  0
   38.1040   30.5290   39.1640 H   0  0  0  0  0  0  0  0  0  0  0  0
   39.1580   31.8790   37.4770 O   0  0  0  0  0  0  0  0  0  0  0  0
   39.5720   32.3220   36.6990 H   0  0  0  0  0  0  0  0  0  0  0  0
  1  7  1  6  0  0  0
  1  6  1  0  0  0  0
  1  2  1  0  0  0  0
  2  8  1  6  0  0  0
  2  3  1  0  0  0  0
  2 17  1  0  0  0  0
  4  9  1  0  0  0  0
  4  3  1  0  0  0  0
  5  6  1  0  0  0  0
  5 11  1  1  0  0  0
  5  4  1  0  0  0  0
  6 12  1  1  0  0  0
 10  4  1  0  0  0  0
 13  1  1  0  0  0  0
 14 13  1  0  0  0  0
 15  5  1  0  0  0  0
 16 15  1  0  0  0  0
 17 18  1  0  0  0  0
 18 23  1  0  0  0  0
 19 18  2  0  0  0  0
 19 20  1  0  0  0  0
 20 21  2  0  0  0  0
 21 22  1  0  0  0  0
 22 25  1  0  0  0  0
 23 22  2  0  0  0  0
 24 19  1  0  0  0  0
 26 27  1  0  0  0  0
 26 20  1  0  0  0  0
 26 28  1  0  0  0  0
 27 28  1  0  0  0  0
 27 30  1  0  0  0  0
 28 32  1  0  0  0  0
 29 26  1  0  0  0  0
 31 27  1  0  0  0  0
 33 28  1  0  0  0  0
 34  6  1  0  0  0  0
 35 42  1  1  0  0  0
 35 36  1  0  0  0  0
 35 40  1  0  0  0  0
 36 34  1  6  0  0  0
 36 37  1  0  0  0  0
 37 38  1  0  0  0  0
 37 39  1  0  0  0  0
 40 41  1  0  0  0  0
 40 39  1  0  0  0  0
 43 42  1  0  0  0  0
M  END
>  <minimizedAffinity>
-6.06271935

>  <minimizedRMSD>
0.384565055

$$$$
