
 OpenBabel03252507543D

 44 47  0  0  1  0  0  0  0  0999 V2000
   47.0940   34.8270   42.0530 C   0  0  2  0  0  0  0  0  0  0  0  0
   46.3410   34.2390   40.8580 C   0  0  0  0  0  0  0  0  0  0  0  0
   47.5460   34.1190   39.8990 C   0  0  0  0  0  0  0  0  0  0  0  0
   48.6950   33.7270   40.7730 C   0  0  1  0  0  0  0  0  0  0  0  0
   48.1890   33.8050   42.1840 C   0  0  0  0  0  0  0  0  0  0  0  0
   47.5100   35.8000   41.7480 H   0  0  0  0  0  0  0  0  0  0  0  0
   45.9570   33.2530   41.1170 H   0  0  0  0  0  0  0  0  0  0  0  0
   45.6170   34.9660   40.4890 H   0  0  0  0  0  0  0  0  0  0  0  0
   47.3460   33.4260   39.0800 H   0  0  0  0  0  0  0  0  0  0  0  0
   47.6970   35.1580   39.5030 H   0  0  0  0  0  0  0  0  0  0  0  0
   49.5770   34.3910   40.6170 H   0  0  0  0  0  0  0  0  0  0  0  0
   47.8380   32.8560   42.5900 H   0  0  0  0  0  0  0  0  0  0  0  0
   49.0120   34.2610   42.7970 H   0  0  0  0  0  0  0  0  0  0  0  0
   44.5290   35.8350   44.6200 C   0  0  0  0  0  0  0  0  0  0  0  0
   45.2590   35.8670   43.4320 C   0  0  0  0  0  0  0  0  0  0  0  0
   46.2310   34.8900   43.2630 C   0  0  0  0  0  0  0  0  0  0  0  0
   46.4510   33.9250   44.2580 N   0  0  0  0  0  0  0  0  0  0  0  0
   45.7070   33.9480   45.3930 C   0  0  0  0  0  0  0  0  0  0  0  0
   44.7540   34.8970   45.5720 N   0  0  0  0  0  0  0  0  0  0  0  0
   43.7690   36.5910   44.7630 H   0  0  0  0  0  0  0  0  0  0  0  0
   45.1060   36.6020   42.6520 H   0  0  0  0  0  0  0  0  0  0  0  0
   45.9610   33.1590   46.0880 H   0  0  0  0  0  0  0  0  0  0  0  0
   49.2000   32.3180   40.5560 C   0  0  2  0  0  0  0  0  0  0  0  0
   50.0630   31.7850   41.6030 C   0  0  0  0  0  0  0  0  0  0  0  0
   50.6020   32.0450   40.2350 C   0  0  1  0  0  0  0  0  0  0  0  0
   48.4430   31.6460   40.1140 H   0  0  0  0  0  0  0  0  0  0  0  0
   50.4730   32.4390   42.4270 H   0  0  0  0  0  0  0  0  0  0  0  0
   49.9180   30.7490   41.9570 H   0  0  0  0  0  0  0  0  0  0  0  0
   51.2490   32.9070   40.0070 H   0  0  0  0  0  0  0  0  0  0  0  0
   50.8720   30.9200   39.4180 O   0  0  0  0  0  0  0  0  0  0  0  0
   51.2120   30.3860   36.8890 O   0  0  0  0  0  0  0  0  0  0  0  0
   51.3910   31.4760   37.9180 P   0  0  1  0  0  0  0  0  0  0  0  0
   50.4290   32.8080   37.4240 O   0  0  0  0  0  0  0  0  0  0  0  0
   49.5430   32.4240   37.1980 H   0  0  0  0  0  0  0  0  0  0  0  0
   52.9720   31.9840   37.8750 O   0  0  0  0  0  0  0  0  0  0  0  0
   53.3790   30.0270   39.2180 C   0  0  1  0  0  3  0  0  0  0  0  0
   53.8020   30.8980   38.0290 C   0  0  1  0  0  3  0  0  0  0  0  0
   53.6840   29.8720   36.9260 C   0  0  0  0  0  3  0  0  0  0  0  0
   52.5990   29.7360   36.6590 H   0  0  0  0  0  0  0  0  0  0  0  0
   54.0880   28.6610   37.4670 O   0  0  0  0  0  0  0  0  0  0  0  0
   54.1050   28.7580   38.8410 C   0  0  0  0  0  3  0  0  0  0  0  0
   53.7670   27.8760   39.3860 H   0  0  0  0  0  0  0  0  0  0  0  0
   53.8480   30.5590   40.4160 O   0  0  0  0  0  0  0  0  0  0  0  0
   53.0890   31.0320   40.8410 H   0  0  0  0  0  0  0  0  0  0  0  0
  1  6  1  6  0  0  0
  1  5  1  0  0  0  0
  1 16  1  0  0  0  0
  2  7  1  0  0  0  0
  2  1  1  0  0  0  0
  3  4  1  0  0  0  0
  3  2  1  0  0  0  0
  4 11  1  6  0  0  0
  4  5  1  0  0  0  0
  5 12  1  0  0  0  0
  5 13  1  0  0  0  0
  8  2  1  0  0  0  0
  9  3  1  0  0  0  0
 10  3  1  0  0  0  0
 14 20  1  0  0  0  0
 14 19  1  0  0  0  0
 15 14  2  0  0  0  0
 16 15  1  0  0  0  0
 16 17  2  0  0  0  0
 17 18  1  0  0  0  0
 18 19  2  0  0  0  0
 18 22  1  0  0  0  0
 21 15  1  0  0  0  0
 23 26  1  6  0  0  0
 23  4  1  0  0  0  0
 23 24  1  0  0  0  0
 24 28  1  0  0  0  0
 24 27  1  0  0  0  0
 25 29  1  6  0  0  0
 25 23  1  0  0  0  0
 25 24  1  0  0  0  0
 30 25  1  0  0  0  0
 32 31  2  6  0  0  0
 32 30  1  0  0  0  0
 33 32  1  0  0  0  0
 34 33  1  0  0  0  0
 35 32  1  0  0  0  0
 36 43  1  1  0  0  0
 37 35  1  6  0  0  0
 37 36  1  0  0  0  0
 38 40  1  0  0  0  0
 38 37  1  0  0  0  0
 39 38  1  0  0  0  0
 40 41  1  0  0  0  0
 41 36  1  0  0  0  0
 41 42  1  0  0  0  0
 43 44  1  0  0  0  0
M  END
>  <minimizedAffinity>
-5.2142415

>  <minimizedRMSD>
0.878207088

$$$$
