
 OpenBabel03242520263D

 38 40  0  0  1  0  0  0  0  0999 V2000
   45.1550   35.7370   43.3380 C   0  0  0  0  0  0  0  0  0  0  0  0
   46.0560   34.6360   43.4030 C   0  0  0  0  0  0  0  0  0  0  0  0
   46.1490   33.9480   44.6030 C   0  0  0  0  0  0  0  0  0  0  0  0
   45.3870   34.3500   45.6500 N   0  0  0  0  0  0  0  0  0  0  0  0
   44.5380   35.3970   45.5710 C   0  0  0  0  0  0  0  0  0  0  0  0
   44.4250   36.0810   44.4300 N   0  0  0  0  0  0  0  0  0  0  0  0
   45.0510   36.3060   42.4140 H   0  0  0  0  0  0  0  0  0  0  0  0
   43.9410   35.7030   46.4090 H   0  0  0  0  0  0  0  0  0  0  0  0
   46.7670   34.3600   42.2210 N   0  0  0  0  0  0  0  0  0  0  0  0
   47.9490   35.0880   41.8140 C   0  0  0  0  0  0  0  0  0  0  0  0
   48.5480   34.4480   40.5940 C   0  0  0  0  0  0  0  0  0  0  0  0
   47.5980   34.2690   39.5320 N   0  0  0  0  0  0  0  0  0  0  0  0
   46.3740   33.6570   39.9150 C   0  0  0  0  0  0  0  0  0  0  0  0
   46.2860   33.2890   41.3680 C   0  0  0  0  0  0  0  0  0  0  0  0
   48.7050   35.0970   42.6080 H   0  0  0  0  0  0  0  0  0  0  0  0
   47.5950   36.1210   41.5380 H   0  0  0  0  0  0  0  0  0  0  0  0
   48.9420   33.4550   40.9340 H   0  0  0  0  0  0  0  0  0  0  0  0
   49.3910   35.0380   40.2280 H   0  0  0  0  0  0  0  0  0  0  0  0
   47.5070   35.1250   38.9380 H   0  0  0  0  0  0  0  0  0  0  0  0
   45.4940   34.3300   39.6980 H   0  0  0  0  0  0  0  0  0  0  0  0
   46.1950   32.7330   39.3230 H   0  0  0  0  0  0  0  0  0  0  0  0
   45.2330   33.0070   41.5690 H   0  0  0  0  0  0  0  0  0  0  0  0
   47.0010   32.4360   41.5340 H   0  0  0  0  0  0  0  0  0  0  0  0
   47.0310   32.8850   44.6330 O   0  0  0  0  0  0  0  0  0  0  0  0
   45.4980   31.2620   46.0750 O   0  0  0  0  0  0  0  0  0  0  0  0
   46.9290   31.7630   45.9310 P   0  0  1  0  0  0  0  0  0  0  0  0
   47.9860   30.5000   45.6280 O   0  0  0  0  0  0  0  0  0  0  0  0
   48.8970   30.6710   45.9250 H   0  0  0  0  0  0  0  0  0  0  0  0
   47.3520   32.5990   47.3460 O   0  0  0  0  0  0  0  0  0  0  0  0
   46.8520   30.8290   48.7870 C   0  0  2  0  0  0  0  0  0  0  0  0
   46.5330   32.2620   48.4080 C   0  0  2  0  0  0  0  0  0  0  0  0
   45.0820   32.0910   48.0170 C   0  0  0  0  0  0  0  0  0  0  0  0
   44.6140   33.0980   48.0680 H   0  0  0  0  0  0  0  0  0  0  0  0
   44.5810   31.3450   49.0680 O   0  0  0  0  0  0  0  0  0  0  0  0
   45.5500   30.4250   49.4400 C   0  0  0  0  0  0  0  0  0  0  0  0
   45.7040   30.5210   50.5360 H   0  0  0  0  0  0  0  0  0  0  0  0
   47.9360   30.7080   49.6360 O   0  0  0  0  0  0  0  0  0  0  0  0
   48.4400   29.8860   49.3410 H   0  0  0  0  0  0  0  0  0  0  0  0
  1  2  2  0  0  0  0
  1  6  1  0  0  0  0
  2  3  1  0  0  0  0
  3 24  1  0  0  0  0
  3  4  2  0  0  0  0
  5  4  1  0  0  0  0
  5  8  1  0  0  0  0
  6  5  2  0  0  0  0
  7  1  1  0  0  0  0
  9  2  1  0  0  0  0
 10  9  1  0  0  0  0
 10 15  1  0  0  0  0
 11 17  1  0  0  0  0
 11 10  1  0  0  0  0
 12 13  1  0  0  0  0
 12 11  1  0  0  0  0
 13 14  1  0  0  0  0
 14 23  1  0  0  0  0
 14 22  1  0  0  0  0
 14  9  1  0  0  0  0
 16 10  1  0  0  0  0
 18 11  1  0  0  0  0
 19 12  1  0  0  0  0
 20 13  1  0  0  0  0
 21 13  1  0  0  0  0
 24 26  1  0  0  0  0
 26 25  2  1  0  0  0
 26 29  1  0  0  0  0
 27 28  1  0  0  0  0
 27 26  1  0  0  0  0
 30 35  1  0  0  0  0
 30 37  1  1  0  0  0
 31 29  1  6  0  0  0
 31 30  1  0  0  0  0
 32 33  1  0  0  0  0
 32 31  1  0  0  0  0
 32 34  1  0  0  0  0
 34 35  1  0  0  0  0
 35 36  1  0  0  0  0
 38 37  1  0  0  0  0
M  END
>  <minimizedAffinity>
-5.72326279

>  <minimizedRMSD>
0.652718067

$$$$
