
 OpenBabel03242520273D

 38 40  0  0  1  0  0  0  0  0999 V2000
   38.8940   27.2010   39.0270 C   0  0  0  0  0  0  0  0  0  0  0  0
   38.0940   28.2570   39.5490 C   0  0  0  0  0  0  0  0  0  0  0  0
   37.6090   29.2000   38.6560 C   0  0  0  0  0  0  0  0  0  0  0  0
   37.9160   29.0780   37.3410 N   0  0  0  0  0  0  0  0  0  0  0  0
   38.6770   28.0700   36.8650 C   0  0  0  0  0  0  0  0  0  0  0  0
   39.1590   27.1450   37.6970 N   0  0  0  0  0  0  0  0  0  0  0  0
   39.2950   26.4370   39.6940 H   0  0  0  0  0  0  0  0  0  0  0  0
   38.9120   27.9860   35.8200 H   0  0  0  0  0  0  0  0  0  0  0  0
   37.8760   28.2280   40.9380 N   0  0  0  0  0  0  0  0  0  0  0  0
   36.6770   27.6920   41.5450 C   0  0  0  0  0  0  0  0  0  0  0  0
   36.8260   27.6720   43.0400 C   0  0  0  0  0  0  0  0  0  0  0  0
   37.2160   28.9440   43.5810 N   0  0  0  0  0  0  0  0  0  0  0  0
   38.3240   29.5580   42.9360 C   0  0  0  0  0  0  0  0  0  0  0  0
   38.9090   28.7660   41.8040 C   0  0  0  0  0  0  0  0  0  0  0  0
   36.4790   26.6700   41.2020 H   0  0  0  0  0  0  0  0  0  0  0  0
   35.8500   28.4080   41.2790 H   0  0  0  0  0  0  0  0  0  0  0  0
   37.6110   26.9020   43.2570 H   0  0  0  0  0  0  0  0  0  0  0  0
   35.8960   27.3490   43.5130 H   0  0  0  0  0  0  0  0  0  0  0  0
   36.3930   29.5660   43.7530 H   0  0  0  0  0  0  0  0  0  0  0  0
   38.0440   30.5670   42.5140 H   0  0  0  0  0  0  0  0  0  0  0  0
   39.1410   29.7570   43.6650 H   0  0  0  0  0  0  0  0  0  0  0  0
   39.6220   29.4290   41.2760 H   0  0  0  0  0  0  0  0  0  0  0  0
   39.4100   27.8670   42.2580 H   0  0  0  0  0  0  0  0  0  0  0  0
   36.8360   30.2120   39.1930 O   0  0  0  0  0  0  0  0  0  0  0  0
   37.2220   32.5490   37.9890 O   0  0  0  0  0  0  0  0  0  0  0  0
   37.4940   31.7970   39.2840 P   0  0  1  0  0  0  0  0  0  0  0  0
   36.8150   32.5820   40.5970 O   0  0  0  0  0  0  0  0  0  0  0  0
   37.2720   32.4080   41.4390 H   0  0  0  0  0  0  0  0  0  0  0  0
   39.1740   31.6270   39.4650 O   0  0  0  0  0  0  0  0  0  0  0  0
   40.6150   32.3150   37.7590 C   0  0  2  0  0  3  0  0  0  0  0  0
   39.8560   32.7370   39.0010 C   0  0  2  0  0  3  0  0  0  0  0  0
   41.0240   33.1340   39.8760 C   0  0  0  0  0  3  0  0  0  0  0  0
   40.6210   33.8000   40.6690 H   0  0  0  0  0  0  0  0  0  0  0  0
   41.7810   33.9130   39.0200 O   0  0  0  0  0  0  0  0  0  0  0  0
   41.7260   33.3390   37.7580 C   0  0  0  0  0  3  0  0  0  0  0  0
   41.4240   34.1310   37.0390 H   0  0  0  0  0  0  0  0  0  0  0  0
   39.8560   32.3480   36.6050 O   0  0  0  0  0  0  0  0  0  0  0  0
   40.1300   31.5470   36.0580 H   0  0  0  0  0  0  0  0  0  0  0  0
  1  2  1  0  0  0  0
  1  7  1  0  0  0  0
  2  9  1  0  0  0  0
  3 24  1  0  0  0  0
  3  2  2  0  0  0  0
  4  3  1  0  0  0  0
  5  4  2  0  0  0  0
  5  6  1  0  0  0  0
  6  1  2  0  0  0  0
  8  5  1  0  0  0  0
  9 10  1  0  0  0  0
  9 14  1  0  0  0  0
 10 11  1  0  0  0  0
 11 17  1  0  0  0  0
 11 18  1  0  0  0  0
 11 12  1  0  0  0  0
 12 19  1  0  0  0  0
 13 12  1  0  0  0  0
 13 21  1  0  0  0  0
 14 23  1  0  0  0  0
 14 13  1  0  0  0  0
 15 10  1  0  0  0  0
 16 10  1  0  0  0  0
 20 13  1  0  0  0  0
 22 14  1  0  0  0  0
 24 26  1  0  0  0  0
 26 25  2  6  0  0  0
 26 29  1  0  0  0  0
 26 27  1  0  0  0  0
 27 28  1  0  0  0  0
 30 37  1  6  0  0  0
 30 31  1  0  0  0  0
 31 29  1  1  0  0  0
 31 32  1  0  0  0  0
 32 33  1  0  0  0  0
 34 32  1  0  0  0  0
 35 30  1  0  0  0  0
 35 34  1  0  0  0  0
 36 35  1  0  0  0  0
 38 37  1  0  0  0  0
M  END
>  <minimizedAffinity>
-5.55200052

$$$$

 OpenBabel03242520273D

 38 40  0  0  1  0  0  0  0  0999 V2000
   38.8210   28.1050   43.4430 C   0  0  0  0  0  0  0  0  0  0  0  0
   38.9250   28.9420   42.2960 C   0  0  0  0  0  0  0  0  0  0  0  0
   37.8300   29.0160   41.4500 C   0  0  0  0  0  0  0  0  0  0  0  0
   36.7210   28.2940   41.7470 N   0  0  0  0  0  0  0  0  0  0  0  0
   36.6410   27.5040   42.8390 C   0  0  0  0  0  0  0  0  0  0  0  0
   37.6770   27.4120   43.6750 N   0  0  0  0  0  0  0  0  0  0  0  0
   39.6590   28.0180   44.1360 H   0  0  0  0  0  0  0  0  0  0  0  0
   35.7560   26.9390   43.0610 H   0  0  0  0  0  0  0  0  0  0  0  0
   40.1500   29.6180   42.1440 N   0  0  0  0  0  0  0  0  0  0  0  0
   40.3860   30.9590   42.6330 C   0  0  0  0  0  0  0  0  0  0  0  0
   41.8300   31.3250   42.4450 C   0  0  0  0  0  0  0  0  0  0  0  0
   42.2880   31.1230   41.0990 N   0  0  0  0  0  0  0  0  0  0  0  0
   41.9760   29.8550   40.5400 C   0  0  0  0  0  0  0  0  0  0  0  0
   41.2290   28.9320   41.4590 C   0  0  0  0  0  0  0  0  0  0  0  0
   40.1420   31.0430   43.6990 H   0  0  0  0  0  0  0  0  0  0  0  0
   39.7590   31.6370   41.9880 H   0  0  0  0  0  0  0  0  0  0  0  0
   42.4040   30.6710   43.1510 H   0  0  0  0  0  0  0  0  0  0  0  0
   42.0020   32.3640   42.7330 H   0  0  0  0  0  0  0  0  0  0  0  0
   42.0850   31.9470   40.4870 H   0  0  0  0  0  0  0  0  0  0  0  0
   41.3480   29.9600   39.6080 H   0  0  0  0  0  0  0  0  0  0  0  0
   42.9020   29.3300   40.2170 H   0  0  0  0  0  0  0  0  0  0  0  0
   40.8860   28.0720   40.8490 H   0  0  0  0  0  0  0  0  0  0  0  0
   41.9460   28.6260   42.2700 H   0  0  0  0  0  0  0  0  0  0  0  0
   37.9630   29.8370   40.3460 O   0  0  0  0  0  0  0  0  0  0  0  0
   35.8850   30.3010   38.7560 O   0  0  0  0  0  0  0  0  0  0  0  0
   36.6620   30.8800   39.9310 P   0  0  1  0  0  0  0  0  0  0  0  0
   35.6790   31.0690   41.2740 O   0  0  0  0  0  0  0  0  0  0  0  0
   35.9730   31.7720   41.8790 H   0  0  0  0  0  0  0  0  0  0  0  0
   37.3440   32.3580   39.4500 O   0  0  0  0  0  0  0  0  0  0  0  0
   38.9680   33.8750   40.1720 C   0  0  2  0  0  3  0  0  0  0  0  0
   38.6840   32.4380   39.7800 C   0  0  2  0  0  3  0  0  0  0  0  0
   39.6050   32.3260   38.5850 C   0  0  0  0  0  3  0  0  0  0  0  0
   39.7840   31.2420   38.4180 H   0  0  0  0  0  0  0  0  0  0  0  0
   40.7800   32.8730   39.0690 O   0  0  0  0  0  0  0  0  0  0  0  0
   40.4490   33.9470   39.8810 C   0  0  0  0  0  3  0  0  0  0  0  0
   40.9690   33.8080   40.8540 H   0  0  0  0  0  0  0  0  0  0  0  0
   38.6670   34.1610   41.4900 O   0  0  0  0  0  0  0  0  0  0  0  0
   38.2740   35.0900   41.4980 H   0  0  0  0  0  0  0  0  0  0  0  0
  1  6  1  0  0  0  0
  1  7  1  0  0  0  0
  2  1  2  0  0  0  0
  3  4  2  0  0  0  0
  3  2  1  0  0  0  0
  4  5  1  0  0  0  0
  5  8  1  0  0  0  0
  5  6  2  0  0  0  0
  9  2  1  0  0  0  0
  9 10  1  0  0  0  0
 10 15  1  0  0  0  0
 11 10  1  0  0  0  0
 11 18  1  0  0  0  0
 11 17  1  0  0  0  0
 12 11  1  0  0  0  0
 13 12  1  0  0  0  0
 13 14  1  0  0  0  0
 14  9  1  0  0  0  0
 14 23  1  0  0  0  0
 16 10  1  0  0  0  0
 19 12  1  0  0  0  0
 20 13  1  0  0  0  0
 21 13  1  0  0  0  0
 22 14  1  0  0  0  0
 24  3  1  0  0  0  0
 26 25  2  6  0  0  0
 26 24  1  0  0  0  0
 26 27  1  0  0  0  0
 27 28  1  0  0  0  0
 29 26  1  0  0  0  0
 30 37  1  1  0  0  0
 31 29  1  6  0  0  0
 31 30  1  0  0  0  0
 32 34  1  0  0  0  0
 32 31  1  0  0  0  0
 33 32  1  0  0  0  0
 34 35  1  0  0  0  0
 35 30  1  0  0  0  0
 35 36  1  0  0  0  0
 37 38  1  0  0  0  0
M  END
>  <minimizedAffinity>
-5.35167217

$$$$

 OpenBabel03242520273D

 38 40  0  0  1  0  0  0  0  0999 V2000
   36.5580   30.2680   37.7240 C   0  0  0  0  0  0  0  0  0  0  0  0
   36.8530   30.6150   39.0740 C   0  0  0  0  0  0  0  0  0  0  0  0
   36.0950   30.0240   40.0720 C   0  0  0  0  0  0  0  0  0  0  0  0
   35.1180   29.1510   39.7250 N   0  0  0  0  0  0  0  0  0  0  0  0
   34.8520   28.8330   38.4390 C   0  0  0  0  0  0  0  0  0  0  0  0
   35.5630   29.3850   37.4540 N   0  0  0  0  0  0  0  0  0  0  0  0
   37.1300   30.7090   36.9080 H   0  0  0  0  0  0  0  0  0  0  0  0
   34.0750   28.1400   38.1790 H   0  0  0  0  0  0  0  0  0  0  0  0
   37.9000   31.5370   39.2510 N   0  0  0  0  0  0  0  0  0  0  0  0
   37.6920   32.9110   39.6540 C   0  0  0  0  0  0  0  0  0  0  0  0
   39.0160   33.5780   39.8980 C   0  0  0  0  0  0  0  0  0  0  0  0
   39.9240   33.4420   38.7940 N   0  0  0  0  0  0  0  0  0  0  0  0
   40.0700   32.1200   38.2940 C   0  0  0  0  0  0  0  0  0  0  0  0
   39.2590   31.0840   39.0150 C   0  0  0  0  0  0  0  0  0  0  0  0
   37.0980   32.9710   40.5740 H   0  0  0  0  0  0  0  0  0  0  0  0
   37.1940   33.4170   38.7800 H   0  0  0  0  0  0  0  0  0  0  0  0
   39.4400   33.0860   40.8110 H   0  0  0  0  0  0  0  0  0  0  0  0
   38.8750   34.6380   40.1210 H   0  0  0  0  0  0  0  0  0  0  0  0
   39.7760   34.1840   38.0710 H   0  0  0  0  0  0  0  0  0  0  0  0
   39.7780   32.0600   37.2050 H   0  0  0  0  0  0  0  0  0  0  0  0
   41.1350   31.8010   38.3340 H   0  0  0  0  0  0  0  0  0  0  0  0
   39.3120   30.1530   38.4160 H   0  0  0  0  0  0  0  0  0  0  0  0
   39.7120   30.9660   40.0380 H   0  0  0  0  0  0  0  0  0  0  0  0
   36.4060   30.3810   41.3700 O   0  0  0  0  0  0  0  0  0  0  0  0
   38.8410   30.3070   42.4320 O   0  0  0  0  0  0  0  0  0  0  0  0
   37.5880   29.4680   42.2190 P   0  0  1  0  0  0  0  0  0  0  0  0
   36.9340   28.9740   43.6790 O   0  0  0  0  0  0  0  0  0  0  0  0
   36.4230   28.1470   43.6200 H   0  0  0  0  0  0  0  0  0  0  0  0
   37.9890   28.1410   41.2390 O   0  0  0  0  0  0  0  0  0  0  0  0
   38.6320   26.1630   42.3050 C   0  0  2  0  0  3  0  0  0  0  0  0
   37.4730   26.9590   41.7370 C   0  0  2  0  0  3  0  0  0  0  0  0
   37.0250   25.9980   40.6590 C   0  0  0  0  0  3  0  0  0  0  0  0
   35.9760   26.2660   40.4040 H   0  0  0  0  0  0  0  0  0  0  0  0
   36.9950   24.7920   41.3350 O   0  0  0  0  0  0  0  0  0  0  0  0
   38.0740   24.7620   42.2060 C   0  0  0  0  0  3  0  0  0  0  0  0
   37.6860   24.5060   43.2160 H   0  0  0  0  0  0  0  0  0  0  0  0
   38.9670   26.5160   43.5990 O   0  0  0  0  0  0  0  0  0  0  0  0
   39.9730   26.4790   43.6540 H   0  0  0  0  0  0  0  0  0  0  0  0
  1  2  1  0  0  0  0
  2  9  1  0  0  0  0
  2  3  2  0  0  0  0
  3 24  1  0  0  0  0
  4  3  1  0  0  0  0
  5  4  2  0  0  0  0
  6  1  2  0  0  0  0
  6  5  1  0  0  0  0
  7  1  1  0  0  0  0
  8  5  1  0  0  0  0
  9 10  1  0  0  0  0
 10 11  1  0  0  0  0
 10 15  1  0  0  0  0
 11 18  1  0  0  0  0
 11 17  1  0  0  0  0
 12 11  1  0  0  0  0
 13 21  1  0  0  0  0
 13 12  1  0  0  0  0
 13 14  1  0  0  0  0
 14  9  1  0  0  0  0
 14 23  1  0  0  0  0
 16 10  1  0  0  0  0
 19 12  1  0  0  0  0
 20 13  1  0  0  0  0
 22 14  1  0  0  0  0
 24 26  1  0  0  0  0
 26 25  2  1  0  0  0
 26 27  1  0  0  0  0
 28 27  1  0  0  0  0
 29 26  1  0  0  0  0
 30 37  1  1  0  0  0
 31 29  1  6  0  0  0
 31 30  1  0  0  0  0
 32 34  1  0  0  0  0
 32 31  1  0  0  0  0
 33 32  1  0  0  0  0
 34 35  1  0  0  0  0
 35 30  1  0  0  0  0
 35 36  1  0  0  0  0
 37 38  1  0  0  0  0
M  END
>  <minimizedAffinity>
-5.33071423

$$$$

 OpenBabel03242520273D

 38 40  0  0  1  0  0  0  0  0999 V2000
   37.8710   27.4110   41.1530 C   0  0  0  0  0  0  0  0  0  0  0  0
   37.8160   28.7440   40.6540 C   0  0  0  0  0  0  0  0  0  0  0  0
   37.7480   29.7760   41.5760 C   0  0  0  0  0  0  0  0  0  0  0  0
   37.7350   29.4750   42.8980 N   0  0  0  0  0  0  0  0  0  0  0  0
   37.7870   28.2050   43.3540 C   0  0  0  0  0  0  0  0  0  0  0  0
   37.8540   27.1880   42.4920 N   0  0  0  0  0  0  0  0  0  0  0  0
   37.9270   26.5700   40.4620 H   0  0  0  0  0  0  0  0  0  0  0  0
   37.7770   27.9820   44.4040 H   0  0  0  0  0  0  0  0  0  0  0  0
   37.8390   28.8720   39.2530 N   0  0  0  0  0  0  0  0  0  0  0  0
   39.0020   28.5760   38.4450 C   0  0  0  0  0  0  0  0  0  0  0  0
   38.6490   28.6670   36.9880 C   0  0  0  0  0  0  0  0  0  0  0  0
   38.0190   29.9100   36.6410 N   0  0  0  0  0  0  0  0  0  0  0  0
   36.9400   30.2940   37.4830 C   0  0  0  0  0  0  0  0  0  0  0  0
   36.6320   29.3250   38.5870 C   0  0  0  0  0  0  0  0  0  0  0  0
   39.3830   27.5680   38.6480 H   0  0  0  0  0  0  0  0  0  0  0  0
   39.7540   29.3810   38.6810 H   0  0  0  0  0  0  0  0  0  0  0  0
   37.9530   27.8120   36.7890 H   0  0  0  0  0  0  0  0  0  0  0  0
   39.5390   28.5290   36.3690 H   0  0  0  0  0  0  0  0  0  0  0  0
   38.7170   30.6610   36.4350 H   0  0  0  0  0  0  0  0  0  0  0  0
   37.1370   31.2910   37.9730 H   0  0  0  0  0  0  0  0  0  0  0  0
   36.0100   30.4330   36.8890 H   0  0  0  0  0  0  0  0  0  0  0  0
   35.9160   29.8260   39.2700 H   0  0  0  0  0  0  0  0  0  0  0  0
   36.1980   28.4060   38.1060 H   0  0  0  0  0  0  0  0  0  0  0  0
   37.6960   31.0570   41.0600 O   0  0  0  0  0  0  0  0  0  0  0  0
   38.7780   33.4820   40.9670 O   0  0  0  0  0  0  0  0  0  0  0  0
   39.1300   32.0030   41.0510 P   0  0  1  0  0  0  0  0  0  0  0  0
   40.0020   31.6650   42.4390 O   0  0  0  0  0  0  0  0  0  0  0  0
   40.5840   30.8880   42.3580 H   0  0  0  0  0  0  0  0  0  0  0  0
   39.9970   31.5770   39.6550 O   0  0  0  0  0  0  0  0  0  0  0  0
   40.8840   32.2810   37.6110 C   0  0  2  0  0  3  0  0  0  0  0  0
   40.5500   32.6820   39.0340 C   0  0  2  0  0  3  0  0  0  0  0  0
   41.9410   33.0150   39.5260 C   0  0  0  0  0  3  0  0  0  0  0  0
   41.8200   33.6650   40.4190 H   0  0  0  0  0  0  0  0  0  0  0  0
   42.4330   33.8010   38.5000 O   0  0  0  0  0  0  0  0  0  0  0  0
   41.9810   33.2730   37.3000 C   0  0  0  0  0  3  0  0  0  0  0  0
   41.5060   34.0980   36.7260 H   0  0  0  0  0  0  0  0  0  0  0  0
   39.8140   32.3760   36.7410 O   0  0  0  0  0  0  0  0  0  0  0  0
   39.8810   31.5860   36.1180 H   0  0  0  0  0  0  0  0  0  0  0  0
  1  6  1  0  0  0  0
  2  1  2  0  0  0  0
  2  3  1  0  0  0  0
  3  4  2  0  0  0  0
  4  5  1  0  0  0  0
  5  8  1  0  0  0  0
  6  5  2  0  0  0  0
  7  1  1  0  0  0  0
  9  2  1  0  0  0  0
 10 15  1  0  0  0  0
 10 16  1  0  0  0  0
 10  9  1  0  0  0  0
 11 10  1  0  0  0  0
 12 11  1  0  0  0  0
 12 13  1  0  0  0  0
 13 20  1  0  0  0  0
 13 14  1  0  0  0  0
 14  9  1  0  0  0  0
 14 22  1  0  0  0  0
 17 11  1  0  0  0  0
 18 11  1  0  0  0  0
 19 12  1  0  0  0  0
 21 13  1  0  0  0  0
 23 14  1  0  0  0  0
 24  3  1  0  0  0  0
 26 25  2  6  0  0  0
 26 24  1  0  0  0  0
 26 27  1  0  0  0  0
 28 27  1  0  0  0  0
 29 26  1  0  0  0  0
 30 37  1  6  0  0  0
 30 31  1  0  0  0  0
 31 32  1  0  0  0  0
 31 29  1  1  0  0  0
 32 33  1  0  0  0  0
 34 32  1  0  0  0  0
 35 30  1  0  0  0  0
 35 34  1  0  0  0  0
 36 35  1  0  0  0  0
 38 37  1  0  0  0  0
M  END
>  <minimizedAffinity>
-5.30316067

$$$$

 OpenBabel03242520273D

 38 40  0  0  1  0  0  0  0  0999 V2000
   37.2530   33.0490   39.6980 C   0  0  0  0  0  0  0  0  0  0  0  0
   37.7930   31.7570   39.9570 C   0  0  0  0  0  0  0  0  0  0  0  0
   39.0890   31.6850   40.4450 C   0  0  0  0  0  0  0  0  0  0  0  0
   39.7780   32.8350   40.6510 N   0  0  0  0  0  0  0  0  0  0  0  0
   39.2490   34.0520   40.3990 C   0  0  0  0  0  0  0  0  0  0  0  0
   38.0050   34.1560   39.9290 N   0  0  0  0  0  0  0  0  0  0  0  0
   36.2380   33.1510   39.3140 H   0  0  0  0  0  0  0  0  0  0  0  0
   39.8070   34.9540   40.5670 H   0  0  0  0  0  0  0  0  0  0  0  0
   36.9380   30.6730   39.6860 N   0  0  0  0  0  0  0  0  0  0  0  0
   35.9080   30.2260   40.5970 C   0  0  0  0  0  0  0  0  0  0  0  0
   35.0800   29.1540   39.9460 C   0  0  0  0  0  0  0  0  0  0  0  0
   35.8720   28.0810   39.4130 N   0  0  0  0  0  0  0  0  0  0  0  0
   36.9660   28.4860   38.6020 C   0  0  0  0  0  0  0  0  0  0  0  0
   37.1020   29.9700   38.4280 C   0  0  0  0  0  0  0  0  0  0  0  0
   35.2440   31.0500   40.8860 H   0  0  0  0  0  0  0  0  0  0  0  0
   36.4480   29.7740   41.4760 H   0  0  0  0  0  0  0  0  0  0  0  0
   34.5150   29.6640   39.1230 H   0  0  0  0  0  0  0  0  0  0  0  0
   34.3530   28.7490   40.6530 H   0  0  0  0  0  0  0  0  0  0  0  0
   36.0910   27.3580   40.1360 H   0  0  0  0  0  0  0  0  0  0  0  0
   37.9470   28.1180   39.0230 H   0  0  0  0  0  0  0  0  0  0  0  0
   36.8910   28.0340   37.5880 H   0  0  0  0  0  0  0  0  0  0  0  0
   38.0840   30.1540   37.9470 H   0  0  0  0  0  0  0  0  0  0  0  0
   36.2400   30.3060   37.7880 H   0  0  0  0  0  0  0  0  0  0  0  0
   39.5830   30.4180   40.6860 O   0  0  0  0  0  0  0  0  0  0  0  0
   41.9640   29.8260   41.7080 O   0  0  0  0  0  0  0  0  0  0  0  0
   40.5290   30.1540   42.0970 P   0  0  1  0  0  0  0  0  0  0  0  0
   40.4580   31.5270   43.0520 O   0  0  0  0  0  0  0  0  0  0  0  0
   39.6860   31.5530   43.6450 H   0  0  0  0  0  0  0  0  0  0  0  0
   39.8670   28.8100   42.8940 O   0  0  0  0  0  0  0  0  0  0  0  0
   37.6760   28.1270   43.3370 C   0  0  2  0  0  3  0  0  0  0  0  0
   38.7250   28.3490   42.2650 C   0  0  2  0  0  3  0  0  0  0  0  0
   38.8520   26.9310   41.7540 C   0  0  0  0  0  3  0  0  0  0  0  0
   39.3010   26.9930   40.7390 H   0  0  0  0  0  0  0  0  0  0  0  0
   37.5300   26.5540   41.6030 O   0  0  0  0  0  0  0  0  0  0  0  0
   36.8080   27.0930   42.6580 C   0  0  0  0  0  3  0  0  0  0  0  0
   35.9420   27.6420   42.2290 H   0  0  0  0  0  0  0  0  0  0  0  0
   36.9790   29.2710   43.6770 O   0  0  0  0  0  0  0  0  0  0  0  0
   36.8370   29.2350   44.6740 H   0  0  0  0  0  0  0  0  0  0  0  0
  1  6  2  0  0  0  0
  1  2  1  0  0  0  0
  2  3  2  0  0  0  0
  3  4  1  0  0  0  0
  3 24  1  0  0  0  0
  5  8  1  0  0  0  0
  5  4  2  0  0  0  0
  6  5  1  0  0  0  0
  7  1  1  0  0  0  0
  9  2  1  0  0  0  0
  9 10  1  0  0  0  0
 10 15  1  0  0  0  0
 10 16  1  0  0  0  0
 11 10  1  0  0  0  0
 11 18  1  0  0  0  0
 12 11  1  0  0  0  0
 12 19  1  0  0  0  0
 13 20  1  0  0  0  0
 13 12  1  0  0  0  0
 14 13  1  0  0  0  0
 14  9  1  0  0  0  0
 17 11  1  0  0  0  0
 21 13  1  0  0  0  0
 22 14  1  0  0  0  0
 23 14  1  0  0  0  0
 24 26  1  0  0  0  0
 26 25  2  6  0  0  0
 26 29  1  0  0  0  0
 26 27  1  0  0  0  0
 27 28  1  0  0  0  0
 30 37  1  6  0  0  0
 31 29  1  1  0  0  0
 31 30  1  0  0  0  0
 32 31  1  0  0  0  0
 33 32  1  0  0  0  0
 34 32  1  0  0  0  0
 34 35  1  0  0  0  0
 35 30  1  0  0  0  0
 36 35  1  0  0  0  0
 37 38  1  0  0  0  0
M  END
>  <minimizedAffinity>
-5.2612834

$$$$

 OpenBabel03242520273D

 38 40  0  0  1  0  0  0  0  0999 V2000
   38.0640   27.0530   42.1800 C   0  0  0  0  0  0  0  0  0  0  0  0
   37.6850   27.6820   40.9600 C   0  0  0  0  0  0  0  0  0  0  0  0
   37.3880   29.0350   40.9970 C   0  0  0  0  0  0  0  0  0  0  0  0
   37.4700   29.6940   42.1790 N   0  0  0  0  0  0  0  0  0  0  0  0
   37.8310   29.0810   43.3270 C   0  0  0  0  0  0  0  0  0  0  0  0
   38.1240   27.7790   43.3260 N   0  0  0  0  0  0  0  0  0  0  0  0
   38.3060   25.9910   42.1960 H   0  0  0  0  0  0  0  0  0  0  0  0
   37.8920   29.6160   44.2560 H   0  0  0  0  0  0  0  0  0  0  0  0
   37.6520   26.8470   39.8290 N   0  0  0  0  0  0  0  0  0  0  0  0
   36.4620   26.1550   39.3840 C   0  0  0  0  0  0  0  0  0  0  0  0
   36.7270   25.4750   38.0700 C   0  0  0  0  0  0  0  0  0  0  0  0
   37.8930   24.6380   38.0980 N   0  0  0  0  0  0  0  0  0  0  0  0
   39.0590   25.2470   38.6350 C   0  0  0  0  0  0  0  0  0  0  0  0
   38.8780   26.6720   39.0720 C   0  0  0  0  0  0  0  0  0  0  0  0
   35.6230   26.8480   39.2540 H   0  0  0  0  0  0  0  0  0  0  0  0
   36.2570   25.3640   40.1600 H   0  0  0  0  0  0  0  0  0  0  0  0
   36.8590   26.3000   37.3230 H   0  0  0  0  0  0  0  0  0  0  0  0
   35.8630   24.8800   37.7670 H   0  0  0  0  0  0  0  0  0  0  0  0
   37.6800   23.6790   38.4580 H   0  0  0  0  0  0  0  0  0  0  0  0
   39.4420   24.6800   39.5330 H   0  0  0  0  0  0  0  0  0  0  0  0
   39.8890   25.2260   37.8950 H   0  0  0  0  0  0  0  0  0  0  0  0
   39.7870   26.9580   39.6370 H   0  0  0  0  0  0  0  0  0  0  0  0
   38.7380   27.2850   38.1390 H   0  0  0  0  0  0  0  0  0  0  0  0
   37.0230   29.6150   39.7970 O   0  0  0  0  0  0  0  0  0  0  0  0
   37.0790   31.6410   38.0770 O   0  0  0  0  0  0  0  0  0  0  0  0
   37.5040   31.2350   39.4820 P   0  0  1  0  0  0  0  0  0  0  0  0
   36.8110   32.2310   40.6360 O   0  0  0  0  0  0  0  0  0  0  0  0
   37.3290   32.2990   41.4570 H   0  0  0  0  0  0  0  0  0  0  0  0
   39.1980   31.2760   39.5650 O   0  0  0  0  0  0  0  0  0  0  0  0
   40.5240   32.3360   37.9590 C   0  0  2  0  0  3  0  0  0  0  0  0
   39.7010   32.5170   39.2190 C   0  0  2  0  0  3  0  0  0  0  0  0
   40.7880   33.0050   40.1510 C   0  0  0  0  0  3  0  0  0  0  0  0
   40.2820   33.5240   40.9930 H   0  0  0  0  0  0  0  0  0  0  0  0
   41.4180   33.9700   39.3850 O   0  0  0  0  0  0  0  0  0  0  0  0
   41.4610   33.5170   38.0750 C   0  0  0  0  0  3  0  0  0  0  0  0
   41.0420   34.3170   37.4270 H   0  0  0  0  0  0  0  0  0  0  0  0
   39.7750   32.3610   36.7980 O   0  0  0  0  0  0  0  0  0  0  0  0
   40.1740   31.6670   36.1850 H   0  0  0  0  0  0  0  0  0  0  0  0
  1  7  1  0  0  0  0
  1  6  1  0  0  0  0
  2  3  1  0  0  0  0
  2  1  2  0  0  0  0
  3  4  2  0  0  0  0
  4  5  1  0  0  0  0
  5  8  1  0  0  0  0
  6  5  2  0  0  0  0
  9  2  1  0  0  0  0
 10  9  1  0  0  0  0
 10 16  1  0  0  0  0
 11 12  1  0  0  0  0
 11 10  1  0  0  0  0
 12 19  1  0  0  0  0
 12 13  1  0  0  0  0
 13 14  1  0  0  0  0
 13 20  1  0  0  0  0
 14 22  1  0  0  0  0
 14  9  1  0  0  0  0
 15 10  1  0  0  0  0
 17 11  1  0  0  0  0
 18 11  1  0  0  0  0
 21 13  1  0  0  0  0
 23 14  1  0  0  0  0
 24  3  1  0  0  0  0
 26 25  2  6  0  0  0
 26 29  1  0  0  0  0
 26 24  1  0  0  0  0
 26 27  1  0  0  0  0
 27 28  1  0  0  0  0
 30 37  1  6  0  0  0
 30 35  1  0  0  0  0
 30 31  1  0  0  0  0
 31 29  1  1  0  0  0
 31 32  1  0  0  0  0
 32 33  1  0  0  0  0
 34 32  1  0  0  0  0
 35 34  1  0  0  0  0
 36 35  1  0  0  0  0
 38 37  1  0  0  0  0
M  END
>  <minimizedAffinity>
-5.1072402

$$$$

 OpenBabel03242520273D

 38 40  0  0  1  0  0  0  0  0999 V2000
   36.5970   30.3570   38.0960 C   0  0  0  0  0  0  0  0  0  0  0  0
   37.6050   30.1180   39.0740 C   0  0  0  0  0  0  0  0  0  0  0  0
   37.4650   29.0040   39.8860 C   0  0  0  0  0  0  0  0  0  0  0  0
   36.3860   28.2000   39.7170 N   0  0  0  0  0  0  0  0  0  0  0  0
   35.4400   28.4430   38.7850 C   0  0  0  0  0  0  0  0  0  0  0  0
   35.5450   29.5070   37.9870 N   0  0  0  0  0  0  0  0  0  0  0  0
   36.6690   31.2220   37.4370 H   0  0  0  0  0  0  0  0  0  0  0  0
   34.5910   27.7960   38.6630 H   0  0  0  0  0  0  0  0  0  0  0  0
   38.6540   31.0550   39.1100 N   0  0  0  0  0  0  0  0  0  0  0  0
   38.6300   32.2460   39.9310 C   0  0  0  0  0  0  0  0  0  0  0  0
   39.9560   32.9470   39.8540 C   0  0  0  0  0  0  0  0  0  0  0  0
   40.3800   33.1960   38.5050 N   0  0  0  0  0  0  0  0  0  0  0  0
   40.3110   32.0750   37.6340 C   0  0  0  0  0  0  0  0  0  0  0  0
   39.8180   30.8120   38.2780 C   0  0  0  0  0  0  0  0  0  0  0  0
   38.4260   32.0030   40.9800 H   0  0  0  0  0  0  0  0  0  0  0  0
   37.8450   32.9160   39.4790 H   0  0  0  0  0  0  0  0  0  0  0  0
   40.6870   32.2730   40.3710 H   0  0  0  0  0  0  0  0  0  0  0  0
   39.9220   33.8910   40.4010 H   0  0  0  0  0  0  0  0  0  0  0  0
   39.9810   34.0860   38.1250 H   0  0  0  0  0  0  0  0  0  0  0  0
   39.6310   32.2780   36.7570 H   0  0  0  0  0  0  0  0  0  0  0  0
   41.3090   31.8590   37.1930 H   0  0  0  0  0  0  0  0  0  0  0  0
   39.6310   30.0830   37.4640 H   0  0  0  0  0  0  0  0  0  0  0  0
   40.6210   30.4700   38.9880 H   0  0  0  0  0  0  0  0  0  0  0  0
   38.4590   28.8000   40.8240 O   0  0  0  0  0  0  0  0  0  0  0  0
   39.1750   30.2490   42.9340 O   0  0  0  0  0  0  0  0  0  0  0  0
   38.1520   29.2250   42.4600 P   0  0  1  0  0  0  0  0  0  0  0  0
   36.5940   29.8280   42.5720 O   0  0  0  0  0  0  0  0  0  0  0  0
   35.9140   29.1410   42.6840 H   0  0  0  0  0  0  0  0  0  0  0  0
   38.3370   27.8130   43.3840 O   0  0  0  0  0  0  0  0  0  0  0  0
   38.2430   25.6910   42.4100 C   0  0  2  0  0  3  0  0  0  0  0  0
   39.1270   26.8780   42.7410 C   0  0  2  0  0  3  0  0  0  0  0  0
   40.1160   26.1940   43.6590 C   0  0  0  0  0  3  0  0  0  0  0  0
   41.0230   26.8350   43.6890 H   0  0  0  0  0  0  0  0  0  0  0  0
   40.4350   25.0520   42.9470 O   0  0  0  0  0  0  0  0  0  0  0  0
   39.2800   24.5940   42.3310 C   0  0  0  0  0  3  0  0  0  0  0  0
   39.5060   24.4510   41.2520 H   0  0  0  0  0  0  0  0  0  0  0  0
   37.5310   25.8400   41.2340 O   0  0  0  0  0  0  0  0  0  0  0  0
   36.6210   25.4380   41.3980 H   0  0  0  0  0  0  0  0  0  0  0  0
  1  2  1  0  0  0  0
  2  9  1  0  0  0  0
  2  3  2  0  0  0  0
  3 24  1  0  0  0  0
  4  3  1  0  0  0  0
  5  4  2  0  0  0  0
  6  1  2  0  0  0  0
  6  5  1  0  0  0  0
  7  1  1  0  0  0  0
  8  5  1  0  0  0  0
  9 10  1  0  0  0  0
 10 15  1  0  0  0  0
 11 10  1  0  0  0  0
 11 17  1  0  0  0  0
 11 18  1  0  0  0  0
 12 11  1  0  0  0  0
 13 14  1  0  0  0  0
 13 12  1  0  0  0  0
 14 23  1  0  0  0  0
 14  9  1  0  0  0  0
 16 10  1  0  0  0  0
 19 12  1  0  0  0  0
 20 13  1  0  0  0  0
 21 13  1  0  0  0  0
 22 14  1  0  0  0  0
 24 26  1  0  0  0  0
 26 27  1  0  0  0  0
 26 25  2  1  0  0  0
 26 29  1  0  0  0  0
 27 28  1  0  0  0  0
 30 37  1  6  0  0  0
 30 31  1  0  0  0  0
 31 29  1  1  0  0  0
 31 32  1  0  0  0  0
 32 33  1  0  0  0  0
 34 32  1  0  0  0  0
 35 30  1  0  0  0  0
 35 34  1  0  0  0  0
 36 35  1  0  0  0  0
 37 38  1  0  0  0  0
M  END
>  <minimizedAffinity>
-5.01052713

$$$$

 OpenBabel03242520273D

 38 40  0  0  1  0  0  0  0  0999 V2000
   38.1400   31.8660   38.3490 C   0  0  0  0  0  0  0  0  0  0  0  0
   37.7920   30.5270   38.6880 C   0  0  0  0  0  0  0  0  0  0  0  0
   37.6230   30.2250   40.0300 C   0  0  0  0  0  0  0  0  0  0  0  0
   37.7950   31.2060   40.9510 N   0  0  0  0  0  0  0  0  0  0  0  0
   38.1260   32.4700   40.6110 C   0  0  0  0  0  0  0  0  0  0  0  0
   38.2960   32.7940   39.3270 N   0  0  0  0  0  0  0  0  0  0  0  0
   38.2820   32.1470   37.3050 H   0  0  0  0  0  0  0  0  0  0  0  0
   38.2590   33.2360   41.3510 H   0  0  0  0  0  0  0  0  0  0  0  0
   37.6540   29.6400   37.6050 N   0  0  0  0  0  0  0  0  0  0  0  0
   38.7260   28.7940   37.1270 C   0  0  0  0  0  0  0  0  0  0  0  0
   38.2090   27.8650   36.0660 C   0  0  0  0  0  0  0  0  0  0  0  0
   37.5130   28.5490   35.0130 N   0  0  0  0  0  0  0  0  0  0  0  0
   36.5270   29.4760   35.4450 C   0  0  0  0  0  0  0  0  0  0  0  0
   36.3690   29.5740   36.9340 C   0  0  0  0  0  0  0  0  0  0  0  0
   39.1520   28.1930   37.9390 H   0  0  0  0  0  0  0  0  0  0  0  0
   39.4790   29.4880   36.6580 H   0  0  0  0  0  0  0  0  0  0  0  0
   37.5170   27.1580   36.5920 H   0  0  0  0  0  0  0  0  0  0  0  0
   39.0270   27.2810   35.6380 H   0  0  0  0  0  0  0  0  0  0  0  0
   38.1660   28.8980   34.2730 H   0  0  0  0  0  0  0  0  0  0  0  0
   36.7530   30.5180   35.0750 H   0  0  0  0  0  0  0  0  0  0  0  0
   35.5320   29.2180   35.0180 H   0  0  0  0  0  0  0  0  0  0  0  0
   35.7220   30.4510   37.1370 H   0  0  0  0  0  0  0  0  0  0  0  0
   35.9060   28.6080   37.2790 H   0  0  0  0  0  0  0  0  0  0  0  0
   37.2860   28.9180   40.3260 O   0  0  0  0  0  0  0  0  0  0  0  0
   39.0580   28.1310   42.1450 O   0  0  0  0  0  0  0  0  0  0  0  0
   37.5650   28.3320   41.9180 P   0  0  1  0  0  0  0  0  0  0  0  0
   36.9280   29.4300   43.0100 O   0  0  0  0  0  0  0  0  0  0  0  0
   35.9810   29.2980   43.1910 H   0  0  0  0  0  0  0  0  0  0  0  0
   36.7960   26.8240   42.0340 O   0  0  0  0  0  0  0  0  0  0  0  0
   36.7350   25.4320   40.1580 C   0  0  2  0  0  3  0  0  0  0  0  0
   37.5130   25.8290   41.3970 C   0  0  2  0  0  3  0  0  0  0  0  0
   37.4900   24.5070   42.1310 C   0  0  0  0  0  3  0  0  0  0  0  0
   38.3200   24.5340   42.8700 H   0  0  0  0  0  0  0  0  0  0  0  0
   37.8460   23.6130   41.1370 O   0  0  0  0  0  0  0  0  0  0  0  0
   37.2430   24.0230   39.9570 C   0  0  0  0  0  3  0  0  0  0  0  0
   38.0330   24.0820   39.1770 H   0  0  0  0  0  0  0  0  0  0  0  0
   36.9720   26.2470   39.0680 O   0  0  0  0  0  0  0  0  0  0  0  0
   36.0880   26.3610   38.5970 H   0  0  0  0  0  0  0  0  0  0  0  0
  1  2  2  0  0  0  0
  1  6  1  0  0  0  0
  2  3  1  0  0  0  0
  3 24  1  0  0  0  0
  3  4  2  0  0  0  0
  5  4  1  0  0  0  0
  5  8  1  0  0  0  0
  6  5  2  0  0  0  0
  7  1  1  0  0  0  0
  9  2  1  0  0  0  0
 10  9  1  0  0  0  0
 10 15  1  0  0  0  0
 11 17  1  0  0  0  0
 11 10  1  0  0  0  0
 12 13  1  0  0  0  0
 12 11  1  0  0  0  0
 13 14  1  0  0  0  0
 14 22  1  0  0  0  0
 14 23  1  0  0  0  0
 14  9  1  0  0  0  0
 16 10  1  0  0  0  0
 18 11  1  0  0  0  0
 19 12  1  0  0  0  0
 20 13  1  0  0  0  0
 21 13  1  0  0  0  0
 24 26  1  0  0  0  0
 26 29  1  0  0  0  0
 26 25  2  1  0  0  0
 26 27  1  0  0  0  0
 27 28  1  0  0  0  0
 30 37  1  6  0  0  0
 30 31  1  0  0  0  0
 31 29  1  1  0  0  0
 31 32  1  0  0  0  0
 32 33  1  0  0  0  0
 34 32  1  0  0  0  0
 35 30  1  0  0  0  0
 35 34  1  0  0  0  0
 36 35  1  0  0  0  0
 38 37  1  0  0  0  0
M  END
>  <minimizedAffinity>
-4.97408628

$$$$

 OpenBabel03242520273D

 38 40  0  0  1  0  0  0  0  0999 V2000
   37.6090   31.3940   36.9950 C   0  0  0  0  0  0  0  0  0  0  0  0
   38.0440   31.1530   38.3290 C   0  0  0  0  0  0  0  0  0  0  0  0
   37.7210   29.9330   38.9030 C   0  0  0  0  0  0  0  0  0  0  0  0
   37.0120   29.0340   38.1770 N   0  0  0  0  0  0  0  0  0  0  0  0
   36.6070   29.2810   36.9120 C   0  0  0  0  0  0  0  0  0  0  0  0
   36.9020   30.4450   36.3310 N   0  0  0  0  0  0  0  0  0  0  0  0
   37.8420   32.3400   36.5060 H   0  0  0  0  0  0  0  0  0  0  0  0
   36.0460   28.5580   36.3500 H   0  0  0  0  0  0  0  0  0  0  0  0
   38.7690   32.1970   38.9320 N   0  0  0  0  0  0  0  0  0  0  0  0
   40.2000   32.3590   38.7890 C   0  0  0  0  0  0  0  0  0  0  0  0
   40.6350   33.6480   39.4260 C   0  0  0  0  0  0  0  0  0  0  0  0
   40.1810   33.7840   40.7820 N   0  0  0  0  0  0  0  0  0  0  0  0
   38.7990   33.5210   40.9830 C   0  0  0  0  0  0  0  0  0  0  0  0
   38.0420   33.1590   39.7390 C   0  0  0  0  0  0  0  0  0  0  0  0
   40.4960   32.3760   37.7330 H   0  0  0  0  0  0  0  0  0  0  0  0
   40.6650   31.5050   39.3580 H   0  0  0  0  0  0  0  0  0  0  0  0
   40.2020   34.4630   38.7890 H   0  0  0  0  0  0  0  0  0  0  0  0
   41.7220   33.7400   39.3990 H   0  0  0  0  0  0  0  0  0  0  0  0
   40.8300   33.3240   41.4610 H   0  0  0  0  0  0  0  0  0  0  0  0
   38.6440   32.6750   41.7140 H   0  0  0  0  0  0  0  0  0  0  0  0
   38.2940   34.4020   41.4380 H   0  0  0  0  0  0  0  0  0  0  0  0
   37.0430   32.7970   40.0580 H   0  0  0  0  0  0  0  0  0  0  0  0
   37.9830   34.0880   39.1080 H   0  0  0  0  0  0  0  0  0  0  0  0
   38.1570   29.7300   40.1980 O   0  0  0  0  0  0  0  0  0  0  0  0
   37.6370   29.5680   42.7990 O   0  0  0  0  0  0  0  0  0  0  0  0
   36.9930   29.4320   41.4260 P   0  0  1  0  0  0  0  0  0  0  0  0
   35.7300   30.5140   41.2380 O   0  0  0  0  0  0  0  0  0  0  0  0
   35.0510   30.2200   40.6050 H   0  0  0  0  0  0  0  0  0  0  0  0
   36.4680   27.8290   41.2340 O   0  0  0  0  0  0  0  0  0  0  0  0
   37.6870   26.1090   40.2250 C   0  0  2  0  0  3  0  0  0  0  0  0
   37.4810   26.9220   41.4880 C   0  0  2  0  0  3  0  0  0  0  0  0
   37.0700   25.8100   42.4280 C   0  0  0  0  0  3  0  0  0  0  0  0
   37.2400   26.1820   43.4610 H   0  0  0  0  0  0  0  0  0  0  0  0
   38.0230   24.8420   42.1700 O   0  0  0  0  0  0  0  0  0  0  0  0
   38.2840   24.8490   40.8080 C   0  0  0  0  0  3  0  0  0  0  0  0
   39.3850   24.9310   40.6750 H   0  0  0  0  0  0  0  0  0  0  0  0
   38.5170   26.7170   39.3020 O   0  0  0  0  0  0  0  0  0  0  0  0
   38.1270   26.5210   38.3940 H   0  0  0  0  0  0  0  0  0  0  0  0
  1  2  1  0  0  0  0
  2  3  2  0  0  0  0
  2  9  1  0  0  0  0
  3 24  1  0  0  0  0
  4  3  1  0  0  0  0
  5  4  2  0  0  0  0
  6  5  1  0  0  0  0
  6  1  2  0  0  0  0
  7  1  1  0  0  0  0
  8  5  1  0  0  0  0
  9 14  1  0  0  0  0
 10  9  1  0  0  0  0
 10 16  1  0  0  0  0
 10 11  1  0  0  0  0
 11 12  1  0  0  0  0
 12 13  1  0  0  0  0
 12 19  1  0  0  0  0
 13 21  1  0  0  0  0
 13 20  1  0  0  0  0
 14 22  1  0  0  0  0
 14 13  1  0  0  0  0
 15 10  1  0  0  0  0
 17 11  1  0  0  0  0
 18 11  1  0  0  0  0
 23 14  1  0  0  0  0
 24 26  1  0  0  0  0
 26 25  2  1  0  0  0
 27 26  1  0  0  0  0
 28 27  1  0  0  0  0
 29 26  1  0  0  0  0
 30 37  1  6  0  0  0
 30 35  1  0  0  0  0
 30 31  1  0  0  0  0
 31 29  1  6  0  0  0
 31 32  1  0  0  0  0
 32 33  1  0  0  0  0
 34 32  1  0  0  0  0
 35 34  1  0  0  0  0
 36 35  1  0  0  0  0
 38 37  1  0  0  0  0
M  END
>  <minimizedAffinity>
-4.94785786

$$$$
