
 OpenBabel03242523493D

 26 28  0  0  1  0  0  0  0  0999 V2000
   44.9170   34.4290   42.4780 C   0  0  0  0  0  0  0  0  0  0  0  0
   46.0890   34.6830   41.7480 C   0  0  0  0  0  0  0  0  0  0  0  0
   47.3220   34.4770   42.3720 C   0  0  0  0  0  0  0  0  0  0  0  0
   47.3320   34.0330   43.6690 N   0  0  0  0  0  0  0  0  0  0  0  0
   46.1850   33.8000   44.3370 C   0  0  0  0  0  0  0  0  0  0  0  0
   44.9880   33.9960   43.7450 N   0  0  0  0  0  0  0  0  0  0  0  0
   46.1990   35.0230   40.7530 H   0  0  0  0  0  0  0  0  0  0  0  0
   46.2200   33.4450   45.3750 H   0  0  0  0  0  0  0  0  0  0  0  0
   48.6100   34.7050   41.6590 C   0  0  0  0  0  0  0  0  0  0  0  0
   49.1400   36.1050   41.5630 C   0  0  0  0  0  0  0  0  0  0  0  0
   49.8090   35.0170   42.4170 C   0  0  0  0  0  0  0  0  0  0  0  0
   48.6760   34.1140   40.7240 H   0  0  0  0  0  0  0  0  0  0  0  0
   49.7190   36.3780   40.6610 H   0  0  0  0  0  0  0  0  0  0  0  0
   48.5900   36.9140   42.0610 H   0  0  0  0  0  0  0  0  0  0  0  0
   49.7990   35.2600   43.5000 H   0  0  0  0  0  0  0  0  0  0  0  0
   50.8320   34.6870   42.1040 H   0  0  0  0  0  0  0  0  0  0  0  0
   43.7460   34.6390   41.8540 O   0  0  0  0  0  0  0  0  0  0  0  0
   42.1110   33.1750   41.0460 C   0  0  2  0  0  0  0  0  0  0  0  0
   43.2930   34.0820   40.6800 C   0  0  1  0  0  0  0  0  0  0  0  0
   42.5450   35.1730   39.9210 C   0  0  0  0  0  0  0  0  0  0  0  0
   42.1540   34.7080   38.9890 H   0  0  0  0  0  0  0  0  0  0  0  0
   41.5060   35.4290   40.8220 O   0  0  0  0  0  0  0  0  0  0  0  0
   41.0160   34.1870   41.1940 C   0  0  0  0  0  0  0  0  0  0  0  0
   40.1960   33.8970   40.4870 H   0  0  0  0  0  0  0  0  0  0  0  0
   42.4060   32.5840   42.2780 O   0  0  0  0  0  0  0  0  0  0  0  0
   42.0190   31.6780   42.3680 H   0  0  0  0  0  0  0  0  0  0  0  0
  1  6  1  0  0  0  0
  2  3  1  0  0  0  0
  2  1  2  0  0  0  0
  3  4  2  0  0  0  0
  4  5  1  0  0  0  0
  5  8  1  0  0  0  0
  6  5  2  0  0  0  0
  7  2  1  0  0  0  0
  9  3  1  0  0  0  0
  9 11  1  0  0  0  0
 10  9  1  0  0  0  0
 10 14  1  0  0  0  0
 10 11  1  0  0  0  0
 11 15  1  0  0  0  0
 12  9  1  0  0  0  0
 13 10  1  0  0  0  0
 16 11  1  0  0  0  0
 17  1  1  0  0  0  0
 18 23  1  0  0  0  0
 18 25  1  1  0  0  0
 19 18  1  0  0  0  0
 19 17  1  1  0  0  0
 20 19  1  0  0  0  0
 20 22  1  0  0  0  0
 21 20  1  0  0  0  0
 22 23  1  0  0  0  0
 24 23  1  0  0  0  0
 25 26  1  0  0  0  0
M  END
>  <minimizedAffinity>
-4.88325405

>  <minimizedRMSD>
2.28045249

$$$$
