
 OpenBabel03252507543D

 44 47  0  0  1  0  0  0  0  0999 V2000
   47.0410   34.8220   41.9510 C   0  0  2  0  0  0  0  0  0  0  0  0
   46.2810   34.1830   40.7870 C   0  0  0  0  0  0  0  0  0  0  0  0
   47.4840   34.0030   39.8350 C   0  0  0  0  0  0  0  0  0  0  0  0
   48.6290   33.6430   40.7270 C   0  0  1  0  0  0  0  0  0  0  0  0
   48.1250   33.7960   42.1320 C   0  0  0  0  0  0  0  0  0  0  0  0
   47.4660   35.7740   41.5990 H   0  0  0  0  0  0  0  0  0  0  0  0
   45.8870   33.2150   41.0940 H   0  0  0  0  0  0  0  0  0  0  0  0
   45.5640   34.8990   40.3830 H   0  0  0  0  0  0  0  0  0  0  0  0
   47.2760   33.2730   39.0510 H   0  0  0  0  0  0  0  0  0  0  0  0
   47.6460   35.0200   39.3880 H   0  0  0  0  0  0  0  0  0  0  0  0
   49.5180   34.2890   40.5380 H   0  0  0  0  0  0  0  0  0  0  0  0
   47.7640   32.8720   42.5850 H   0  0  0  0  0  0  0  0  0  0  0  0
   48.9530   34.2730   42.7220 H   0  0  0  0  0  0  0  0  0  0  0  0
   44.5310   36.0160   44.4930 C   0  0  0  0  0  0  0  0  0  0  0  0
   45.2650   35.9880   43.3070 C   0  0  0  0  0  0  0  0  0  0  0  0
   46.1790   34.9530   43.1570 C   0  0  0  0  0  0  0  0  0  0  0  0
   46.3390   33.9920   44.1670 N   0  0  0  0  0  0  0  0  0  0  0  0
   45.5950   34.0750   45.2980 C   0  0  0  0  0  0  0  0  0  0  0  0
   44.6970   35.0810   45.4590 N   0  0  0  0  0  0  0  0  0  0  0  0
   43.8160   36.8180   44.6210 H   0  0  0  0  0  0  0  0  0  0  0  0
   45.1570   36.7180   42.5160 H   0  0  0  0  0  0  0  0  0  0  0  0
   45.8000   33.2840   46.0070 H   0  0  0  0  0  0  0  0  0  0  0  0
   49.1190   32.2190   40.5800 C   0  0  2  0  0  0  0  0  0  0  0  0
   49.8600   31.6840   41.7140 C   0  0  0  0  0  0  0  0  0  0  0  0
   50.5390   31.9100   40.4040 C   0  0  1  0  0  0  0  0  0  0  0  0
   48.3940   31.5590   40.0730 H   0  0  0  0  0  0  0  0  0  0  0  0
   50.2020   32.3410   42.5660 H   0  0  0  0  0  0  0  0  0  0  0  0
   49.6560   30.6570   42.0660 H   0  0  0  0  0  0  0  0  0  0  0  0
   51.2260   32.7540   40.2310 H   0  0  0  0  0  0  0  0  0  0  0  0
   50.8620   30.7670   39.6320 O   0  0  0  0  0  0  0  0  0  0  0  0
   51.6620   30.2080   37.2160 O   0  0  0  0  0  0  0  0  0  0  0  0
   51.7240   31.2760   38.2810 P   0  0  1  0  0  0  0  0  0  0  0  0
   51.0070   32.6900   37.6290 O   0  0  0  0  0  0  0  0  0  0  0  0
   50.1540   32.3900   37.2190 H   0  0  0  0  0  0  0  0  0  0  0  0
   53.3200   31.6370   38.5710 O   0  0  0  0  0  0  0  0  0  0  0  0
   53.4650   29.9620   40.2960 C   0  0  1  0  0  3  0  0  0  0  0  0
   53.9810   30.4940   38.9530 C   0  0  1  0  0  3  0  0  0  0  0  0
   53.6840   29.2900   38.0880 C   0  0  0  0  0  3  0  0  0  0  0  0
   52.5840   29.2680   37.8490 H   0  0  0  0  0  0  0  0  0  0  0  0
   53.9160   28.1720   38.8740 O   0  0  0  0  0  0  0  0  0  0  0  0
   53.9830   28.5470   40.1980 C   0  0  0  0  0  3  0  0  0  0  0  0
   53.5310   27.8600   40.9120 H   0  0  0  0  0  0  0  0  0  0  0  0
   54.0380   30.6550   41.3580 O   0  0  0  0  0  0  0  0  0  0  0  0
   53.3680   31.3150   41.6710 H   0  0  0  0  0  0  0  0  0  0  0  0
  1  6  1  6  0  0  0
  1  5  1  0  0  0  0
  1 16  1  0  0  0  0
  2  7  1  0  0  0  0
  2  1  1  0  0  0  0
  3  4  1  0  0  0  0
  3  2  1  0  0  0  0
  4 11  1  6  0  0  0
  4  5  1  0  0  0  0
  5 12  1  0  0  0  0
  5 13  1  0  0  0  0
  8  2  1  0  0  0  0
  9  3  1  0  0  0  0
 10  3  1  0  0  0  0
 14 20  1  0  0  0  0
 14 19  1  0  0  0  0
 15 14  2  0  0  0  0
 16 15  1  0  0  0  0
 16 17  2  0  0  0  0
 17 18  1  0  0  0  0
 18 19  2  0  0  0  0
 18 22  1  0  0  0  0
 21 15  1  0  0  0  0
 23 26  1  6  0  0  0
 23  4  1  0  0  0  0
 23 24  1  0  0  0  0
 24 28  1  0  0  0  0
 24 27  1  0  0  0  0
 25 29  1  6  0  0  0
 25 23  1  0  0  0  0
 25 24  1  0  0  0  0
 30 25  1  0  0  0  0
 32 31  2  6  0  0  0
 32 35  1  0  0  0  0
 32 30  1  0  0  0  0
 33 32  1  0  0  0  0
 34 33  1  0  0  0  0
 36 43  1  1  0  0  0
 37 35  1  6  0  0  0
 37 36  1  0  0  0  0
 38 40  1  0  0  0  0
 38 37  1  0  0  0  0
 39 38  1  0  0  0  0
 40 41  1  0  0  0  0
 41 36  1  0  0  0  0
 41 42  1  0  0  0  0
 43 44  1  0  0  0  0
M  END
>  <minimizedAffinity>
-5.30577946

>  <minimizedRMSD>
0.473657191

$$$$
