
 OpenBabel03252505273D

 24 25  0  0  1  0  0  0  0  0999 V2000
   47.1830   32.4660   48.2410 O   0  0  0  0  0  0  0  0  0  0  0  0
   45.9710   32.5530   47.3020 P   0  0  1  0  0  0  0  0  0  0  0  0
   44.8240   33.6330   47.8570 O   0  0  0  0  0  0  0  0  0  0  0  0
   44.9600   34.5650   47.5970 H   0  0  0  0  0  0  0  0  0  0  0  0
   46.5590   32.9840   45.7850 O   0  0  0  0  0  0  0  0  0  0  0  0
   44.5030   35.7110   44.7660 C   0  0  0  0  0  0  0  0  0  0  0  0
   44.9240   36.0000   43.4630 C   0  0  0  0  0  0  0  0  0  0  0  0
   45.9650   35.2090   42.9300 C   0  0  0  0  0  0  0  0  0  0  0  0
   46.4820   34.2310   43.7090 N   0  0  0  0  0  0  0  0  0  0  0  0
   46.0540   33.9780   44.9570 C   0  0  0  0  0  0  0  0  0  0  0  0
   45.0690   34.7150   45.4860 N   0  0  0  0  0  0  0  0  0  0  0  0
   43.6940   36.3230   45.1830 H   0  0  0  0  0  0  0  0  0  0  0  0
   44.4880   36.7830   42.8830 H   0  0  0  0  0  0  0  0  0  0  0  0
   46.3340   35.3830   41.9300 H   0  0  0  0  0  0  0  0  0  0  0  0
   45.3040   30.9980   47.2870 O   0  0  0  0  0  0  0  0  0  0  0  0
   45.3190   29.5400   45.4670 C   0  0  1  0  0  0  0  0  0  0  0  0
   46.1110   30.0870   46.6370 C   0  0  2  0  0  0  0  0  0  0  0  0
   46.0990   28.8390   47.5290 C   0  0  0  0  0  0  0  0  0  0  0  0
   46.8000   28.1030   47.0470 H   0  0  0  0  0  0  0  0  0  0  0  0
   44.8240   28.3550   47.4330 O   0  0  0  0  0  0  0  0  0  0  0  0
   44.2410   28.8120   46.2780 C   0  0  0  0  0  0  0  0  0  0  0  0
   43.5380   29.6210   46.5900 H   0  0  0  0  0  0  0  0  0  0  0  0
   44.8110   30.5850   44.7270 O   0  0  0  0  0  0  0  0  0  0  0  0
   44.4590   30.2670   43.8480 H   0  0  0  0  0  0  0  0  0  0  0  0
  2  3  1  0  0  0  0
  2  1  2  1  0  0  0
  4  3  1  0  0  0  0
  5  2  1  0  0  0  0
  6 12  1  0  0  0  0
  6 11  1  0  0  0  0
  7  6  2  0  0  0  0
  8  7  1  0  0  0  0
  8  9  2  0  0  0  0
  9 10  1  0  0  0  0
 10 11  2  0  0  0  0
 10  5  1  0  0  0  0
 13  7  1  0  0  0  0
 14  8  1  0  0  0  0
 15  2  1  0  0  0  0
 16 23  1  6  0  0  0
 16 21  1  0  0  0  0
 16 17  1  0  0  0  0
 17 15  1  1  0  0  0
 17 18  1  0  0  0  0
 19 18  1  0  0  0  0
 20 18  1  0  0  0  0
 21 22  1  0  0  0  0
 21 20  1  0  0  0  0
 24 23  1  0  0  0  0
M  END
>  <minimizedAffinity>
-4.91500092

>  <minimizedRMSD>
1.33786678

$$$$
