
 OpenBabel03252507543D

 44 47  0  0  1  0  0  0  0  0999 V2000
   47.0280   34.8540   41.9450 C   0  0  2  0  0  0  0  0  0  0  0  0
   46.2860   34.1670   40.7970 C   0  0  0  0  0  0  0  0  0  0  0  0
   47.4880   34.0220   39.8380 C   0  0  0  0  0  0  0  0  0  0  0  0
   48.6540   33.7230   40.7260 C   0  0  1  0  0  0  0  0  0  0  0  0
   48.1540   33.8760   42.1320 C   0  0  0  0  0  0  0  0  0  0  0  0
   47.4120   35.8170   41.5750 H   0  0  0  0  0  0  0  0  0  0  0  0
   45.9350   33.1890   41.1210 H   0  0  0  0  0  0  0  0  0  0  0  0
   45.5380   34.8470   40.3880 H   0  0  0  0  0  0  0  0  0  0  0  0
   47.3040   33.2720   39.0670 H   0  0  0  0  0  0  0  0  0  0  0  0
   47.6050   35.0380   39.3740 H   0  0  0  0  0  0  0  0  0  0  0  0
   49.5140   34.4020   40.5200 H   0  0  0  0  0  0  0  0  0  0  0  0
   47.8360   32.9450   42.6020 H   0  0  0  0  0  0  0  0  0  0  0  0
   48.9670   34.3960   42.7080 H   0  0  0  0  0  0  0  0  0  0  0  0
   44.5220   36.0080   44.5090 C   0  0  0  0  0  0  0  0  0  0  0  0
   45.2500   35.9950   43.3190 C   0  0  0  0  0  0  0  0  0  0  0  0
   46.1710   34.9690   43.1560 C   0  0  0  0  0  0  0  0  0  0  0  0
   46.3430   34.0000   44.1570 N   0  0  0  0  0  0  0  0  0  0  0  0
   45.6030   34.0680   45.2920 C   0  0  0  0  0  0  0  0  0  0  0  0
   44.6990   35.0650   45.4660 N   0  0  0  0  0  0  0  0  0  0  0  0
   43.8010   36.8030   44.6470 H   0  0  0  0  0  0  0  0  0  0  0  0
   45.1340   36.7310   42.5350 H   0  0  0  0  0  0  0  0  0  0  0  0
   45.8180   33.2720   45.9930 H   0  0  0  0  0  0  0  0  0  0  0  0
   49.2000   32.3180   40.5960 C   0  0  2  0  0  0  0  0  0  0  0  0
   50.0420   31.8610   41.6940 C   0  0  0  0  0  0  0  0  0  0  0  0
   50.6190   32.0670   40.3320 C   0  0  1  0  0  0  0  0  0  0  0  0
   48.4750   31.6060   40.1640 H   0  0  0  0  0  0  0  0  0  0  0  0
   50.4080   32.5650   42.4970 H   0  0  0  0  0  0  0  0  0  0  0  0
   49.9110   30.8410   42.0960 H   0  0  0  0  0  0  0  0  0  0  0  0
   51.2510   32.9340   40.0820 H   0  0  0  0  0  0  0  0  0  0  0  0
   50.9430   30.9110   39.5820 O   0  0  0  0  0  0  0  0  0  0  0  0
   51.4950   30.2660   37.1170 O   0  0  0  0  0  0  0  0  0  0  0  0
   51.5680   31.4080   38.1010 P   0  0  1  0  0  0  0  0  0  0  0  0
   50.6220   32.6900   37.4690 O   0  0  0  0  0  0  0  0  0  0  0  0
   49.7640   32.2750   37.1930 H   0  0  0  0  0  0  0  0  0  0  0  0
   53.1370   31.9520   38.1580 O   0  0  0  0  0  0  0  0  0  0  0  0
   53.4610   30.1310   39.7020 C   0  0  1  0  0  3  0  0  0  0  0  0
   53.9690   30.9050   38.4780 C   0  0  1  0  0  3  0  0  0  0  0  0
   53.9650   29.7820   37.4660 C   0  0  0  0  0  3  0  0  0  0  0  0
   52.9090   29.5960   37.1220 H   0  0  0  0  0  0  0  0  0  0  0  0
   54.3410   28.6340   38.1480 O   0  0  0  0  0  0  0  0  0  0  0  0
   54.2380   28.8510   39.5040 C   0  0  0  0  0  3  0  0  0  0  0  0
   53.8700   28.0150   40.0950 H   0  0  0  0  0  0  0  0  0  0  0  0
   53.8150   30.7790   40.8820 O   0  0  0  0  0  0  0  0  0  0  0  0
   53.0140   31.2690   41.1970 H   0  0  0  0  0  0  0  0  0  0  0  0
  1  6  1  6  0  0  0
  1  5  1  0  0  0  0
  1 16  1  0  0  0  0
  2  7  1  0  0  0  0
  2  1  1  0  0  0  0
  3  4  1  0  0  0  0
  3  2  1  0  0  0  0
  4 11  1  6  0  0  0
  4  5  1  0  0  0  0
  5 12  1  0  0  0  0
  5 13  1  0  0  0  0
  8  2  1  0  0  0  0
  9  3  1  0  0  0  0
 10  3  1  0  0  0  0
 14 20  1  0  0  0  0
 14 19  1  0  0  0  0
 15 14  2  0  0  0  0
 16 15  1  0  0  0  0
 16 17  2  0  0  0  0
 17 18  1  0  0  0  0
 18 19  2  0  0  0  0
 18 22  1  0  0  0  0
 21 15  1  0  0  0  0
 23 26  1  6  0  0  0
 23  4  1  0  0  0  0
 23 24  1  0  0  0  0
 24 28  1  0  0  0  0
 24 27  1  0  0  0  0
 25 29  1  6  0  0  0
 25 23  1  0  0  0  0
 25 24  1  0  0  0  0
 30 25  1  0  0  0  0
 32 31  2  6  0  0  0
 32 35  1  0  0  0  0
 32 30  1  0  0  0  0
 33 32  1  0  0  0  0
 34 33  1  0  0  0  0
 36 43  1  1  0  0  0
 37 35  1  6  0  0  0
 37 36  1  0  0  0  0
 38 40  1  0  0  0  0
 38 37  1  0  0  0  0
 39 38  1  0  0  0  0
 40 41  1  0  0  0  0
 41 36  1  0  0  0  0
 41 42  1  0  0  0  0
 43 44  1  0  0  0  0
M  END
>  <minimizedAffinity>
-5.32773542

>  <minimizedRMSD>
0.825614691

$$$$
