
 OpenBabel03252506113D

 36 38  0  0  1  0  0  0  0  0999 V2000
   45.1650   33.3820   41.1990 F   0  0  0  0  0  0  0  0  0  0  0  0
   46.3260   33.9970   41.0590 C   0  0  0  0  0  0  0  0  0  0  0  0
   46.8130   34.7690   42.0940 C   0  0  0  0  0  0  0  0  0  0  0  0
   48.0330   35.4550   42.0350 C   0  0  0  0  0  0  0  0  0  0  0  0
   48.8080   35.3630   40.8780 C   0  0  0  0  0  0  0  0  0  0  0  0
   48.2870   34.5790   39.8620 C   0  0  0  0  0  0  0  0  0  0  0  0
   47.1050   33.9100   39.9100 C   0  0  0  0  0  0  0  0  0  0  0  0
   48.3460   36.0480   42.9030 H   0  0  0  0  0  0  0  0  0  0  0  0
   49.7220   35.9060   40.8940 H   0  0  0  0  0  0  0  0  0  0  0  0
   48.9930   34.5920   39.0370 H   0  0  0  0  0  0  0  0  0  0  0  0
   45.4430   34.0320   45.4160 C   0  0  0  0  0  0  0  0  0  0  0  0
   44.6140   35.1430   45.6480 C   0  0  0  0  0  0  0  0  0  0  0  0
   44.5260   36.1550   44.6510 C   0  0  0  0  0  0  0  0  0  0  0  0
   45.2700   35.9690   43.5180 N   0  0  0  0  0  0  0  0  0  0  0  0
   46.0440   34.8990   43.3370 C   0  0  0  0  0  0  0  0  0  0  0  0
   46.1280   33.9420   44.2770 N   0  0  0  0  0  0  0  0  0  0  0  0
   44.0330   35.2740   46.5500 H   0  0  0  0  0  0  0  0  0  0  0  0
   43.9010   37.0240   44.7900 H   0  0  0  0  0  0  0  0  0  0  0  0
   45.5150   33.0370   46.4220 N   0  0  0  0  0  0  0  0  0  0  0  0
   45.5720   32.0160   46.1840 H   0  0  0  0  0  0  0  0  0  0  0  0
   45.5120   33.2940   47.4340 H   0  0  0  0  0  0  0  0  0  0  0  0
   46.6950   33.1660   38.8380 O   0  0  0  0  0  0  0  0  0  0  0  0
   48.0030   34.6020   37.0400 O   0  0  0  0  0  0  0  0  0  0  0  0
   47.1470   33.3920   37.2260 P   0  0  2  0  0  0  0  0  0  0  0  0
   45.7020   33.5340   36.3000 O   0  0  0  0  0  0  0  0  0  0  0  0
   45.3710   32.6600   36.0130 H   0  0  0  0  0  0  0  0  0  0  0  0
   47.9170   32.0430   36.5980 O   0  0  0  0  0  0  0  0  0  0  0  0
   49.6670   31.0040   35.4860 C   0  0  1  0  0  3  0  0  0  0  0  0
   48.8410   32.2720   35.6250 C   0  0  1  0  0  3  0  0  0  0  0  0
   48.3300   32.4140   34.2420 C   0  0  0  0  0  3  0  0  0  0  0  0
   47.4810   33.1060   34.1210 H   0  0  0  0  0  0  0  0  0  0  0  0
   48.0630   31.1430   33.7810 O   0  0  0  0  0  0  0  0  0  0  0  0
   48.8750   30.2570   34.4450 C   0  0  0  0  0  3  0  0  0  0  0  0
   49.5320   29.7940   33.6720 H   0  0  0  0  0  0  0  0  0  0  0  0
   50.9100   31.2900   34.9230 O   0  0  0  0  0  0  0  0  0  0  0  0
   51.5770   30.6050   35.0980 H   0  0  0  0  0  0  0  0  0  0  0  0
  2  1  1  0  0  0  0
  2  3  1  0  0  0  0
  3 15  1  0  0  0  0
  4  3  2  0  0  0  0
  4  8  1  0  0  0  0
  5  9  1  0  0  0  0
  5  4  1  0  0  0  0
  6  7  1  0  0  0  0
  6  5  2  0  0  0  0
  7  2  2  0  0  0  0
 10  6  1  0  0  0  0
 11 12  1  0  0  0  0
 11 19  1  0  0  0  0
 12 17  1  0  0  0  0
 13 18  1  0  0  0  0
 13 12  2  0  0  0  0
 14 13  1  0  0  0  0
 15 14  2  0  0  0  0
 15 16  1  0  0  0  0
 16 11  2  0  0  0  0
 19 21  1  0  0  0  0
 20 19  1  0  0  0  0
 22  7  1  0  0  0  0
 24 23  2  6  0  0  0
 24 22  1  0  0  0  0
 25 24  1  0  0  0  0
 26 25  1  0  0  0  0
 27 24  1  0  0  0  0
 28 35  1  6  0  0  0
 28 29  1  0  0  0  0
 29 27  1  1  0  0  0
 30 29  1  0  0  0  0
 31 30  1  0  0  0  0
 32 30  1  0  0  0  0
 32 33  1  0  0  0  0
 33 28  1  0  0  0  0
 34 33  1  0  0  0  0
 35 36  1  0  0  0  0
M  END
>  <minimizedAffinity>
-6.56910086

>  <minimizedRMSD>
0.903489888

$$$$
