
 OpenBabel03252509123D

 32 35  0  0  1  0  0  0  0  0999 V2000
   45.5490   33.6840   40.1770 C   0  0  0  0  0  0  0  0  0  0  0  0
   46.8930   33.5140   39.8630 C   0  0  0  0  0  0  0  0  0  0  0  0
   47.3280   32.9210   38.6900 C   0  0  0  0  0  0  0  0  0  0  0  0
   46.3880   32.4670   37.7650 C   0  0  0  0  0  0  0  0  0  0  0  0
   46.4150   31.8640   36.5590 N   0  0  0  0  0  0  0  0  0  0  0  0
   45.1650   31.6500   36.1080 C   0  0  0  0  0  0  0  0  0  0  0  0
   44.3680   32.1360   37.0640 N   0  0  0  0  0  0  0  0  0  0  0  0
   45.0620   32.6450   38.0960 C   0  0  0  0  0  0  0  0  0  0  0  0
   44.6040   33.2300   39.2550 C   0  0  0  0  0  0  0  0  0  0  0  0
   45.2580   34.1550   41.1120 H   0  0  0  0  0  0  0  0  0  0  0  0
   47.3000   31.6100   36.0670 H   0  0  0  0  0  0  0  0  0  0  0  0
   44.8410   31.1940   35.1880 H   0  0  0  0  0  0  0  0  0  0  0  0
   43.5460   33.3430   39.4620 H   0  0  0  0  0  0  0  0  0  0  0  0
   49.3830   33.5810   42.5530 C   0  0  0  0  0  0  0  0  0  0  0  0
   49.8000   34.9000   42.5680 C   0  0  0  0  0  0  0  0  0  0  0  0
   49.2220   35.7900   41.6430 C   0  0  0  0  0  0  0  0  0  0  0  0
   48.2800   35.2920   40.7830 N   0  0  0  0  0  0  0  0  0  0  0  0
   47.9070   33.9830   40.8110 C   0  0  0  0  0  0  0  0  0  0  0  0
   48.4460   33.1230   41.6840 N   0  0  0  0  0  0  0  0  0  0  0  0
   49.8310   32.9030   43.2660 H   0  0  0  0  0  0  0  0  0  0  0  0
   50.5340   35.3140   43.2310 H   0  0  0  0  0  0  0  0  0  0  0  0
   49.4530   36.8440   41.5440 H   0  0  0  0  0  0  0  0  0  0  0  0
   49.0500   32.7030   38.3030 S   0  0  0  0  0  0  0  0  0  0  0  0
   50.1740   30.3650   37.6040 C   0  0  1  0  0  3  0  0  0  0  0  0
   49.7100   31.1350   38.8480 C   0  0  1  0  0  3  0  0  0  0  0  0
   51.1020   31.4130   39.4210 C   0  0  0  0  0  3  0  0  0  0  0  0
   50.9880   32.1650   40.2100 H   0  0  0  0  0  0  0  0  0  0  0  0
   51.8670   31.8050   38.3350 O   0  0  0  0  0  0  0  0  0  0  0  0
   51.3240   31.2690   37.1870 C   0  0  0  0  0  3  0  0  0  0  0  0
   52.0320   30.7600   36.5200 H   0  0  0  0  0  0  0  0  0  0  0  0
   50.7400   29.1450   37.9620 O   0  0  0  0  0  0  0  0  0  0  0  0
   50.7940   28.6110   37.1330 H   0  0  0  0  0  0  0  0  0  0  0  0
  1 10  1  0  0  0  0
  2  1  1  0  0  0  0
  2 18  1  0  0  0  0
  3  2  2  0  0  0  0
  4  8  2  0  0  0  0
  4  3  1  0  0  0  0
  5  4  1  0  0  0  0
  6  5  1  0  0  0  0
  6  7  2  0  0  0  0
  7  8  1  0  0  0  0
  8  9  1  0  0  0  0
  9 13  1  0  0  0  0
  9  1  2  0  0  0  0
 11  5  1  0  0  0  0
 12  6  1  0  0  0  0
 14 15  1  0  0  0  0
 14 20  1  0  0  0  0
 15 21  1  0  0  0  0
 16 15  2  0  0  0  0
 17 18  2  0  0  0  0
 17 16  1  0  0  0  0
 18 19  1  0  0  0  0
 19 14  2  0  0  0  0
 22 16  1  0  0  0  0
 23  3  1  0  0  0  0
 24 31  1  1  0  0  0
 24 25  1  0  0  0  0
 25 23  1  6  0  0  0
 25 26  1  0  0  0  0
 26 27  1  0  0  0  0
 28 26  1  0  0  0  0
 29 24  1  0  0  0  0
 29 28  1  0  0  0  0
 30 29  1  0  0  0  0
 32 31  1  0  0  0  0
M  END
>  <minimizedAffinity>
-4.16381121

>  <minimizedRMSD>
8.69817448

$$$$
