
 OpenBabel03242519363D

 24 25  0  0  1  0  0  0  0  0999 V2000
   36.6350   31.3500   38.8670 O   0  0  0  0  0  0  0  0  0  0  0  0
   36.8930   30.8290   40.2830 P   0  0  1  0  0  0  0  0  0  0  0  0
   35.5240   30.9350   41.2400 O   0  0  0  0  0  0  0  0  0  0  0  0
   34.7560   31.0620   40.6280 H   0  0  0  0  0  0  0  0  0  0  0  0
   37.3830   29.1930   40.1790 O   0  0  0  0  0  0  0  0  0  0  0  0
   38.9330   26.7200   42.3700 C   0  0  0  0  0  0  0  0  0  0  0  0
   38.5660   27.4100   41.2020 C   0  0  0  0  0  0  0  0  0  0  0  0
   37.7410   28.5160   41.3410 C   0  0  0  0  0  0  0  0  0  0  0  0
   37.3310   28.8780   42.5850 N   0  0  0  0  0  0  0  0  0  0  0  0
   37.6990   28.1970   43.6780 C   0  0  0  0  0  0  0  0  0  0  0  0
   38.5030   27.1130   43.5790 N   0  0  0  0  0  0  0  0  0  0  0  0
   39.5720   25.8750   42.1850 H   0  0  0  0  0  0  0  0  0  0  0  0
   38.8970   27.1170   40.2070 H   0  0  0  0  0  0  0  0  0  0  0  0
   37.3850   28.4670   44.6700 H   0  0  0  0  0  0  0  0  0  0  0  0
   38.1880   31.7110   40.9130 O   0  0  0  0  0  0  0  0  0  0  0  0
   38.9410   33.8610   40.1020 C   0  0  2  0  0  3  0  0  0  0  0  0
   38.7940   32.4000   39.8560 C   0  0  1  0  0  3  0  0  0  0  0  0
   40.1990   31.9240   39.6080 C   0  0  0  0  0  3  0  0  0  0  0  0
   40.5080   31.2910   40.4810 H   0  0  0  0  0  0  0  0  0  0  0  0
   41.0500   32.9860   39.5540 O   0  0  0  0  0  0  0  0  0  0  0  0
   40.3250   34.1590   39.5890 C   0  0  0  0  0  3  0  0  0  0  0  0
   40.3210   34.6760   38.6260 H   0  0  0  0  0  0  0  0  0  0  0  0
   38.8130   34.1600   41.4580 O   0  0  0  0  0  0  0  0  0  0  0  0
   39.2100   35.0790   41.5600 H   0  0  0  0  0  0  0  0  0  0  0  0
  2  1  2  6  0  0  0
  2 15  1  0  0  0  0
  2  3  1  0  0  0  0
  4  3  1  0  0  0  0
  5  2  1  0  0  0  0
  5  8  1  0  0  0  0
  6 11  1  0  0  0  0
  7  8  1  0  0  0  0
  7  6  2  0  0  0  0
  8  9  2  0  0  0  0
  9 10  1  0  0  0  0
 10 14  1  0  0  0  0
 11 10  2  0  0  0  0
 12  6  1  0  0  0  0
 13  7  1  0  0  0  0
 16 23  1  1  0  0  0
 17 16  1  0  0  0  0
 17 15  1  1  0  0  0
 18 17  1  0  0  0  0
 18 19  1  0  0  0  0
 20 21  1  0  0  0  0
 20 18  1  0  0  0  0
 21 16  1  0  0  0  0
 22 21  1  0  0  0  0
 23 24  1  0  0  0  0
M  END
>  <minimizedAffinity>
-4.93677568

$$$$

 OpenBabel03242519363D

 24 25  0  0  1  0  0  0  0  0999 V2000
   35.9330   30.1400   38.5290 O   0  0  0  0  0  0  0  0  0  0  0  0
   36.9420   30.8590   39.4290 P   0  0  1  0  0  0  0  0  0  0  0  0
   36.1950   31.5890   40.7360 O   0  0  0  0  0  0  0  0  0  0  0  0
   35.2930   31.1870   40.8110 H   0  0  0  0  0  0  0  0  0  0  0  0
   38.0760   29.7100   39.9960 O   0  0  0  0  0  0  0  0  0  0  0  0
   37.0840   26.9480   42.1640 C   0  0  0  0  0  0  0  0  0  0  0  0
   37.3720   27.6800   41.0010 C   0  0  0  0  0  0  0  0  0  0  0  0
   37.7940   28.9920   41.1550 C   0  0  0  0  0  0  0  0  0  0  0  0
   37.9080   29.5040   42.4090 N   0  0  0  0  0  0  0  0  0  0  0  0
   37.6240   28.7770   43.4970 C   0  0  0  0  0  0  0  0  0  0  0  0
   37.2100   27.4930   43.3840 N   0  0  0  0  0  0  0  0  0  0  0  0
   36.7630   25.9400   41.9680 H   0  0  0  0  0  0  0  0  0  0  0  0
   37.2800   27.2680   39.9980 H   0  0  0  0  0  0  0  0  0  0  0  0
   37.7080   29.1630   44.4980 H   0  0  0  0  0  0  0  0  0  0  0  0
   37.7750   31.9660   38.4640 O   0  0  0  0  0  0  0  0  0  0  0  0
   40.0910   31.9970   37.7680 C   0  0  2  0  0  3  0  0  0  0  0  0
   39.1100   31.9880   38.8880 C   0  0  1  0  0  3  0  0  0  0  0  0
   39.4300   33.2310   39.6700 C   0  0  0  0  0  3  0  0  0  0  0  0
   38.5850   33.9550   39.5290 H   0  0  0  0  0  0  0  0  0  0  0  0
   40.5550   33.8180   39.1770 O   0  0  0  0  0  0  0  0  0  0  0  0
   41.1200   32.9990   38.2210 C   0  0  0  0  0  3  0  0  0  0  0  0
   42.0460   32.5320   38.5660 H   0  0  0  0  0  0  0  0  0  0  0  0
   39.4870   32.3770   36.5710 O   0  0  0  0  0  0  0  0  0  0  0  0
   40.2480   32.6380   35.9660 H   0  0  0  0  0  0  0  0  0  0  0  0
  2  1  2  6  0  0  0
  2  5  1  0  0  0  0
  2  3  1  0  0  0  0
  3  4  1  0  0  0  0
  5  8  1  0  0  0  0
  6 11  1  0  0  0  0
  7  8  1  0  0  0  0
  7  6  2  0  0  0  0
  8  9  2  0  0  0  0
  9 10  1  0  0  0  0
 10 14  1  0  0  0  0
 11 10  2  0  0  0  0
 12  6  1  0  0  0  0
 13  7  1  0  0  0  0
 15  2  1  0  0  0  0
 16 23  1  6  0  0  0
 16 21  1  0  0  0  0
 16 17  1  0  0  0  0
 17 15  1  6  0  0  0
 17 18  1  0  0  0  0
 19 18  1  0  0  0  0
 20 18  1  0  0  0  0
 21 22  1  0  0  0  0
 21 20  1  0  0  0  0
 24 23  1  0  0  0  0
M  END
>  <minimizedAffinity>
-4.84161949

$$$$

 OpenBabel03242519363D

 24 25  0  0  1  0  0  0  0  0999 V2000
   37.6040   29.9920   39.1390 O   0  0  0  0  0  0  0  0  0  0  0  0
   37.6860   31.2040   40.0720 P   0  0  1  0  0  0  0  0  0  0  0  0
   36.2060   31.5420   40.7770 O   0  0  0  0  0  0  0  0  0  0  0  0
   35.6420   30.7370   40.6600 H   0  0  0  0  0  0  0  0  0  0  0  0
   38.8320   30.8680   41.2970 O   0  0  0  0  0  0  0  0  0  0  0  0
   39.6300   27.8850   43.2410 C   0  0  0  0  0  0  0  0  0  0  0  0
   39.7940   29.0220   42.4320 C   0  0  0  0  0  0  0  0  0  0  0  0
   38.6580   29.7440   42.0990 C   0  0  0  0  0  0  0  0  0  0  0  0
   37.4520   29.3250   42.5640 N   0  0  0  0  0  0  0  0  0  0  0  0
   37.3310   28.2350   43.3340 C   0  0  0  0  0  0  0  0  0  0  0  0
   38.4180   27.5070   43.6790 N   0  0  0  0  0  0  0  0  0  0  0  0
   40.5520   27.3760   43.4580 H   0  0  0  0  0  0  0  0  0  0  0  0
   40.7620   29.3550   42.0610 H   0  0  0  0  0  0  0  0  0  0  0  0
   36.3860   27.8870   43.7120 H   0  0  0  0  0  0  0  0  0  0  0  0
   38.2750   32.4980   39.1610 O   0  0  0  0  0  0  0  0  0  0  0  0
   40.2210   32.0630   37.7940 C   0  0  2  0  0  3  0  0  0  0  0  0
   39.6720   32.4050   39.1340 C   0  0  1  0  0  3  0  0  0  0  0  0
   40.3280   33.7120   39.4800 C   0  0  0  0  0  3  0  0  0  0  0  0
   39.5420   34.5120   39.4500 H   0  0  0  0  0  0  0  0  0  0  0  0
   41.2660   34.0280   38.5450 O   0  0  0  0  0  0  0  0  0  0  0  0
   41.4160   32.9720   37.6690 C   0  0  0  0  0  3  0  0  0  0  0  0
   42.3650   32.4480   37.8050 H   0  0  0  0  0  0  0  0  0  0  0  0
   39.2830   32.2970   36.7890 O   0  0  0  0  0  0  0  0  0  0  0  0
   39.8170   32.3270   35.9360 H   0  0  0  0  0  0  0  0  0  0  0  0
  2  1  2  6  0  0  0
  2  3  1  0  0  0  0
  2  5  1  0  0  0  0
  4  3  1  0  0  0  0
  5  8  1  0  0  0  0
  6 12  1  0  0  0  0
  6 11  1  0  0  0  0
  7  6  2  0  0  0  0
  8  7  1  0  0  0  0
  8  9  2  0  0  0  0
  9 10  1  0  0  0  0
 10 11  2  0  0  0  0
 10 14  1  0  0  0  0
 13  7  1  0  0  0  0
 15  2  1  0  0  0  0
 16 23  1  6  0  0  0
 16 17  1  0  0  0  0
 17 15  1  6  0  0  0
 17 18  1  0  0  0  0
 19 18  1  0  0  0  0
 20 18  1  0  0  0  0
 21 16  1  0  0  0  0
 21 22  1  0  0  0  0
 21 20  1  0  0  0  0
 24 23  1  0  0  0  0
M  END
>  <minimizedAffinity>
-4.79834843

$$$$

 OpenBabel03242519363D

 24 25  0  0  1  0  0  0  0  0999 V2000
   37.1140   28.7630   39.7250 O   0  0  0  0  0  0  0  0  0  0  0  0
   36.1730   29.2670   40.8230 P   0  0  1  0  0  0  0  0  0  0  0  0
   34.6180   29.4970   40.2460 O   0  0  0  0  0  0  0  0  0  0  0  0
   34.5570   29.0100   39.3860 H   0  0  0  0  0  0  0  0  0  0  0  0
   36.1410   28.1110   42.0830 O   0  0  0  0  0  0  0  0  0  0  0  0
   38.5880   25.4310   42.4710 C   0  0  0  0  0  0  0  0  0  0  0  0
   37.4050   26.1040   42.1230 C   0  0  0  0  0  0  0  0  0  0  0  0
   37.3180   27.4530   42.4310 C   0  0  0  0  0  0  0  0  0  0  0  0
   38.3680   28.0560   43.0460 N   0  0  0  0  0  0  0  0  0  0  0  0
   39.4830   27.3850   43.3640 C   0  0  0  0  0  0  0  0  0  0  0  0
   39.6020   26.0670   43.0790 N   0  0  0  0  0  0  0  0  0  0  0  0
   38.5840   24.3890   42.2020 H   0  0  0  0  0  0  0  0  0  0  0  0
   36.5650   25.6180   41.6300 H   0  0  0  0  0  0  0  0  0  0  0  0
   40.3250   27.8430   43.8510 H   0  0  0  0  0  0  0  0  0  0  0  0
   36.8440   30.6850   41.4460 O   0  0  0  0  0  0  0  0  0  0  0  0
   37.8230   32.2260   39.8610 C   0  0  2  0  0  3  0  0  0  0  0  0
   37.9770   30.9960   40.6850 C   0  0  1  0  0  3  0  0  0  0  0  0
   39.1740   31.2790   41.5510 C   0  0  0  0  0  3  0  0  0  0  0  0
   38.8150   31.4010   42.6060 H   0  0  0  0  0  0  0  0  0  0  0  0
   39.7540   32.4530   41.1790 O   0  0  0  0  0  0  0  0  0  0  0  0
   39.1480   32.9230   40.0320 C   0  0  0  0  0  3  0  0  0  0  0  0
   39.7920   32.8360   39.1540 H   0  0  0  0  0  0  0  0  0  0  0  0
   36.7620   33.0080   40.3140 O   0  0  0  0  0  0  0  0  0  0  0  0
   36.9180   33.9170   39.9110 H   0  0  0  0  0  0  0  0  0  0  0  0
  2  1  2  6  0  0  0
  2 15  1  0  0  0  0
  2  5  1  0  0  0  0
  3  2  1  0  0  0  0
  4  3  1  0  0  0  0
  5  8  1  0  0  0  0
  6 11  1  0  0  0  0
  7  8  1  0  0  0  0
  7  6  2  0  0  0  0
  8  9  2  0  0  0  0
  9 10  1  0  0  0  0
 10 14  1  0  0  0  0
 11 10  2  0  0  0  0
 12  6  1  0  0  0  0
 13  7  1  0  0  0  0
 16 21  1  0  0  0  0
 16 23  1  1  0  0  0
 16 17  1  0  0  0  0
 17 15  1  1  0  0  0
 17 18  1  0  0  0  0
 18 19  1  0  0  0  0
 20 18  1  0  0  0  0
 21 20  1  0  0  0  0
 22 21  1  0  0  0  0
 24 23  1  0  0  0  0
M  END
>  <minimizedAffinity>
-4.71716785

$$$$

 OpenBabel03242519363D

 24 25  0  0  1  0  0  0  0  0999 V2000
   40.2550   30.9150   38.7110 O   0  0  0  0  0  0  0  0  0  0  0  0
   39.8490   32.3010   38.2050 P   0  0  1  0  0  0  0  0  0  0  0  0
   39.6820   32.3280   36.5400 O   0  0  0  0  0  0  0  0  0  0  0  0
   39.6170   31.3850   36.2440 H   0  0  0  0  0  0  0  0  0  0  0  0
   38.3580   32.7270   38.9280 O   0  0  0  0  0  0  0  0  0  0  0  0
   36.1210   30.6220   40.8980 C   0  0  0  0  0  0  0  0  0  0  0  0
   37.0410   31.6320   40.5680 C   0  0  0  0  0  0  0  0  0  0  0  0
   37.4460   31.7240   39.2460 C   0  0  0  0  0  0  0  0  0  0  0  0
   36.9420   30.8460   38.3400 N   0  0  0  0  0  0  0  0  0  0  0  0
   36.0670   29.8950   38.6890 C   0  0  0  0  0  0  0  0  0  0  0  0
   35.6480   29.7750   39.9710 N   0  0  0  0  0  0  0  0  0  0  0  0
   35.8530   30.6100   41.9400 H   0  0  0  0  0  0  0  0  0  0  0  0
   37.4430   32.3340   41.2970 H   0  0  0  0  0  0  0  0  0  0  0  0
   35.6560   29.1900   37.9870 H   0  0  0  0  0  0  0  0  0  0  0  0
   41.0130   33.3950   38.7520 O   0  0  0  0  0  0  0  0  0  0  0  0
   42.9380   33.0610   37.3260 C   0  0  2  0  0  3  0  0  0  0  0  0
   42.2680   32.7860   38.6270 C   0  0  1  0  0  3  0  0  0  0  0  0
   43.2410   33.2890   39.6570 C   0  0  0  0  0  3  0  0  0  0  0  0
   42.7980   34.2030   40.1320 H   0  0  0  0  0  0  0  0  0  0  0  0
   44.4040   33.6650   39.0570 O   0  0  0  0  0  0  0  0  0  0  0  0
   44.3680   33.3180   37.7230 C   0  0  0  0  0  3  0  0  0  0  0  0
   45.0320   32.4820   37.4900 H   0  0  0  0  0  0  0  0  0  0  0  0
   42.3680   34.1610   36.6870 O   0  0  0  0  0  0  0  0  0  0  0  0
   43.0480   34.4440   36.0000 H   0  0  0  0  0  0  0  0  0  0  0  0
  2  1  2  1  0  0  0
  2 15  1  0  0  0  0
  2  5  1  0  0  0  0
  3  2  1  0  0  0  0
  4  3  1  0  0  0  0
  5  8  1  0  0  0  0
  6 12  1  0  0  0  0
  7  6  1  0  0  0  0
  7 13  1  0  0  0  0
  8  7  2  0  0  0  0
  9 10  2  0  0  0  0
  9  8  1  0  0  0  0
 10 11  1  0  0  0  0
 11  6  2  0  0  0  0
 14 10  1  0  0  0  0
 16 23  1  1  0  0  0
 16 21  1  0  0  0  0
 16 17  1  0  0  0  0
 17 15  1  6  0  0  0
 17 18  1  0  0  0  0
 18 19  1  0  0  0  0
 20 18  1  0  0  0  0
 21 20  1  0  0  0  0
 22 21  1  0  0  0  0
 24 23  1  0  0  0  0
M  END
>  <minimizedAffinity>
-4.70220947

$$$$

 OpenBabel03242519363D

 24 25  0  0  1  0  0  0  0  0999 V2000
   37.4120   27.1260   41.4600 O   0  0  0  0  0  0  0  0  0  0  0  0
   37.3380   27.9110   42.7720 P   0  0  1  0  0  0  0  0  0  0  0  0
   35.9930   27.4820   43.6730 O   0  0  0  0  0  0  0  0  0  0  0  0
   35.6650   26.6240   43.3050 H   0  0  0  0  0  0  0  0  0  0  0  0
   38.7510   27.5870   43.6800 O   0  0  0  0  0  0  0  0  0  0  0  0
   41.1630   24.9870   42.8180 C   0  0  0  0  0  0  0  0  0  0  0  0
   40.0820   25.6390   43.4350 C   0  0  0  0  0  0  0  0  0  0  0  0
   39.8230   26.9490   43.0610 C   0  0  0  0  0  0  0  0  0  0  0  0
   40.6150   27.5350   42.1260 N   0  0  0  0  0  0  0  0  0  0  0  0
   41.6380   26.8840   41.5570 C   0  0  0  0  0  0  0  0  0  0  0  0
   41.9200   25.6040   41.8980 N   0  0  0  0  0  0  0  0  0  0  0  0
   41.3040   23.9760   43.1570 H   0  0  0  0  0  0  0  0  0  0  0  0
   39.4500   25.1660   44.1850 H   0  0  0  0  0  0  0  0  0  0  0  0
   42.2760   27.3290   40.8150 H   0  0  0  0  0  0  0  0  0  0  0  0
   37.3500   29.5520   42.3770 O   0  0  0  0  0  0  0  0  0  0  0  0
   36.2380   30.3800   40.3950 C   0  0  2  0  0  3  0  0  0  0  0  0
   37.4010   29.6580   40.9810 C   0  0  1  0  0  3  0  0  0  0  0  0
   38.5950   30.4470   40.5220 C   0  0  0  0  0  3  0  0  0  0  0  0
   39.0350   30.9610   41.4170 H   0  0  0  0  0  0  0  0  0  0  0  0
   38.2080   31.4150   39.6460 O   0  0  0  0  0  0  0  0  0  0  0  0
   36.8710   31.2570   39.3470 C   0  0  0  0  0  3  0  0  0  0  0  0
   36.7110   30.8900   38.3300 H   0  0  0  0  0  0  0  0  0  0  0  0
   35.5670   31.1260   41.3620 O   0  0  0  0  0  0  0  0  0  0  0  0
   35.0110   31.7850   40.8430 H   0  0  0  0  0  0  0  0  0  0  0  0
  2  1  2  6  0  0  0
  2  3  1  0  0  0  0
  2  5  1  0  0  0  0
  4  3  1  0  0  0  0
  6 12  1  0  0  0  0
  6  7  1  0  0  0  0
  7 13  1  0  0  0  0
  8  7  2  0  0  0  0
  8  5  1  0  0  0  0
  9  8  1  0  0  0  0
 10 11  1  0  0  0  0
 10  9  2  0  0  0  0
 11  6  2  0  0  0  0
 14 10  1  0  0  0  0
 15  2  1  0  0  0  0
 16 17  1  0  0  0  0
 16 23  1  1  0  0  0
 17 15  1  1  0  0  0
 18 17  1  0  0  0  0
 18 19  1  0  0  0  0
 20 18  1  0  0  0  0
 21 20  1  0  0  0  0
 21 16  1  0  0  0  0
 22 21  1  0  0  0  0
 24 23  1  0  0  0  0
M  END
>  <minimizedAffinity>
-4.64296246

$$$$

 OpenBabel03242519363D

 24 25  0  0  1  0  0  0  0  0999 V2000
   35.4740   28.9180   38.7500 O   0  0  0  0  0  0  0  0  0  0  0  0
   36.5610   29.4920   39.6620 P   0  0  1  0  0  0  0  0  0  0  0  0
   38.0950   29.1970   39.0590 O   0  0  0  0  0  0  0  0  0  0  0  0
   37.9840   28.9480   38.1070 H   0  0  0  0  0  0  0  0  0  0  0  0
   36.3220   31.1810   39.7940 O   0  0  0  0  0  0  0  0  0  0  0  0
   38.4140   34.1600   40.0550 C   0  0  0  0  0  0  0  0  0  0  0  0
   37.3270   33.3290   39.7360 C   0  0  0  0  0  0  0  0  0  0  0  0
   37.4040   31.9970   40.1150 C   0  0  0  0  0  0  0  0  0  0  0  0
   38.5110   31.5620   40.7700 N   0  0  0  0  0  0  0  0  0  0  0  0
   39.5310   32.3810   41.0580 C   0  0  0  0  0  0  0  0  0  0  0  0
   39.4900   33.6870   40.7040 N   0  0  0  0  0  0  0  0  0  0  0  0
   38.2860   35.1770   39.7310 H   0  0  0  0  0  0  0  0  0  0  0  0
   36.4410   33.6810   39.2110 H   0  0  0  0  0  0  0  0  0  0  0  0
   40.4160   32.0570   41.5760 H   0  0  0  0  0  0  0  0  0  0  0  0
   36.3340   28.8230   41.1950 O   0  0  0  0  0  0  0  0  0  0  0  0
   38.0120   28.6450   42.9270 C   0  0  2  0  0  3  0  0  0  0  0  0
   37.5360   28.2170   41.5830 C   0  0  1  0  0  3  0  0  0  0  0  0
   37.4010   26.7240   41.6960 C   0  0  0  0  0  3  0  0  0  0  0  0
   36.3080   26.4730   41.6690 H   0  0  0  0  0  0  0  0  0  0  0  0
   37.8860   26.3000   42.8960 O   0  0  0  0  0  0  0  0  0  0  0  0
   38.4830   27.3570   43.5510 C   0  0  0  0  0  3  0  0  0  0  0  0
   39.5720   27.2700   43.5780 H   0  0  0  0  0  0  0  0  0  0  0  0
   36.9850   29.2330   43.6630 O   0  0  0  0  0  0  0  0  0  0  0  0
   37.3040   29.2130   44.6180 H   0  0  0  0  0  0  0  0  0  0  0  0
  2  1  2  6  0  0  0
  2  5  1  0  0  0  0
  2 15  1  0  0  0  0
  3  2  1  0  0  0  0
  4  3  1  0  0  0  0
  5  8  1  0  0  0  0
  6 11  1  0  0  0  0
  7  6  2  0  0  0  0
  7  8  1  0  0  0  0
  8  9  2  0  0  0  0
  9 10  1  0  0  0  0
 10 14  1  0  0  0  0
 11 10  2  0  0  0  0
 12  6  1  0  0  0  0
 13  7  1  0  0  0  0
 16 21  1  0  0  0  0
 16 23  1  1  0  0  0
 17 15  1  1  0  0  0
 17 18  1  0  0  0  0
 17 16  1  0  0  0  0
 18 20  1  0  0  0  0
 19 18  1  0  0  0  0
 20 21  1  0  0  0  0
 21 22  1  0  0  0  0
 23 24  1  0  0  0  0
M  END
>  <minimizedAffinity>
-4.46518135

$$$$

 OpenBabel03242519363D

 24 25  0  0  1  0  0  0  0  0999 V2000
   40.1800   28.8260   42.9390 O   0  0  0  0  0  0  0  0  0  0  0  0
   38.9470   28.6860   42.0420 P   0  0  1  0  0  0  0  0  0  0  0  0
   39.3680   28.3350   40.4610 O   0  0  0  0  0  0  0  0  0  0  0  0
   40.3090   28.0250   40.4780 H   0  0  0  0  0  0  0  0  0  0  0  0
   37.9680   27.4260   42.6580 O   0  0  0  0  0  0  0  0  0  0  0  0
   37.1390   24.0270   41.6190 C   0  0  0  0  0  0  0  0  0  0  0  0
   36.9950   25.3290   42.1280 C   0  0  0  0  0  0  0  0  0  0  0  0
   38.1210   26.1380   42.1520 C   0  0  0  0  0  0  0  0  0  0  0  0
   39.2970   25.6420   41.6880 N   0  0  0  0  0  0  0  0  0  0  0  0
   39.4000   24.3960   41.2100 C   0  0  0  0  0  0  0  0  0  0  0  0
   38.3220   23.5780   41.1710 N   0  0  0  0  0  0  0  0  0  0  0  0
   36.2270   23.4580   41.6310 H   0  0  0  0  0  0  0  0  0  0  0  0
   36.0500   25.7230   42.4990 H   0  0  0  0  0  0  0  0  0  0  0  0
   40.3220   23.9850   40.8380 H   0  0  0  0  0  0  0  0  0  0  0  0
   38.0690   30.1230   42.1690 O   0  0  0  0  0  0  0  0  0  0  0  0
   36.7880   31.1280   40.3820 C   0  0  2  0  0  3  0  0  0  0  0  0
   38.1250   30.7730   40.9300 C   0  0  1  0  0  3  0  0  0  0  0  0
   38.8490   32.0880   41.0180 C   0  0  0  0  0  3  0  0  0  0  0  0
   38.9690   32.3440   42.1030 H   0  0  0  0  0  0  0  0  0  0  0  0
   38.1020   33.0730   40.4470 O   0  0  0  0  0  0  0  0  0  0  0  0
   36.9960   32.5170   39.8380 C   0  0  0  0  0  3  0  0  0  0  0  0
   37.0630   32.5420   38.7470 H   0  0  0  0  0  0  0  0  0  0  0  0
   35.8110   31.0990   41.3750 O   0  0  0  0  0  0  0  0  0  0  0  0
   35.0380   31.6220   40.9960 H   0  0  0  0  0  0  0  0  0  0  0  0
  2 15  1  0  0  0  0
  2  5  1  0  0  0  0
  2  1  2  1  0  0  0
  3  4  1  0  0  0  0
  3  2  1  0  0  0  0
  6 12  1  0  0  0  0
  6  7  1  0  0  0  0
  7  8  2  0  0  0  0
  7 13  1  0  0  0  0
  8  5  1  0  0  0  0
  9  8  1  0  0  0  0
 10  9  2  0  0  0  0
 11 10  1  0  0  0  0
 11  6  2  0  0  0  0
 14 10  1  0  0  0  0
 16 17  1  0  0  0  0
 16 23  1  1  0  0  0
 17 18  1  0  0  0  0
 17 15  1  1  0  0  0
 18 19  1  0  0  0  0
 20 18  1  0  0  0  0
 21 16  1  0  0  0  0
 21 20  1  0  0  0  0
 22 21  1  0  0  0  0
 24 23  1  0  0  0  0
M  END
>  <minimizedAffinity>
-4.43723774

$$$$

 OpenBabel03242519363D

 24 25  0  0  1  0  0  0  0  0999 V2000
   37.0440   31.6670   38.2430 O   0  0  0  0  0  0  0  0  0  0  0  0
   37.4960   32.5840   39.3830 P   0  0  1  0  0  0  0  0  0  0  0  0
   36.9660   34.1560   39.1590 O   0  0  0  0  0  0  0  0  0  0  0  0
   36.2470   34.1210   38.4790 H   0  0  0  0  0  0  0  0  0  0  0  0
   36.8590   31.9770   40.8510 O   0  0  0  0  0  0  0  0  0  0  0  0
   37.9210   28.6640   41.9510 C   0  0  0  0  0  0  0  0  0  0  0  0
   37.9280   30.0510   41.7290 C   0  0  0  0  0  0  0  0  0  0  0  0
   36.8420   30.6020   41.0660 C   0  0  0  0  0  0  0  0  0  0  0  0
   35.8320   29.7860   40.6660 N   0  0  0  0  0  0  0  0  0  0  0  0
   35.8570   28.4660   40.8940 C   0  0  0  0  0  0  0  0  0  0  0  0
   36.9010   27.8940   41.5380 N   0  0  0  0  0  0  0  0  0  0  0  0
   38.7930   28.3070   42.4690 H   0  0  0  0  0  0  0  0  0  0  0  0
   38.7390   30.7020   42.0500 H   0  0  0  0  0  0  0  0  0  0  0  0
   35.0680   27.8030   40.5860 H   0  0  0  0  0  0  0  0  0  0  0  0
   39.1780   32.4800   39.4730 O   0  0  0  0  0  0  0  0  0  0  0  0
   40.3600   32.1080   37.3970 C   0  0  2  0  0  3  0  0  0  0  0  0
   39.6020   31.5270   38.5380 C   0  0  1  0  0  3  0  0  0  0  0  0
   40.5510   30.5300   39.1430 C   0  0  0  0  0  3  0  0  0  0  0  0
   40.8760   30.9250   40.1410 H   0  0  0  0  0  0  0  0  0  0  0  0
   41.6650   30.4150   38.3680 O   0  0  0  0  0  0  0  0  0  0  0  0
   41.4920   31.1340   37.2040 C   0  0  0  0  0  3  0  0  0  0  0  0
   41.3560   30.4900   36.3310 H   0  0  0  0  0  0  0  0  0  0  0  0
   40.8210   33.3890   37.6960 O   0  0  0  0  0  0  0  0  0  0  0  0
   41.5430   33.5710   37.0190 H   0  0  0  0  0  0  0  0  0  0  0  0
  2  1  2  6  0  0  0
  2 15  1  0  0  0  0
  2  5  1  0  0  0  0
  3  2  1  0  0  0  0
  4  3  1  0  0  0  0
  5  8  1  0  0  0  0
  6 12  1  0  0  0  0
  7  6  1  0  0  0  0
  7 13  1  0  0  0  0
  8  7  2  0  0  0  0
  9 10  2  0  0  0  0
  9  8  1  0  0  0  0
 10 11  1  0  0  0  0
 11  6  2  0  0  0  0
 14 10  1  0  0  0  0
 16 23  1  1  0  0  0
 16 17  1  0  0  0  0
 17 18  1  0  0  0  0
 17 15  1  1  0  0  0
 18 19  1  0  0  0  0
 20 18  1  0  0  0  0
 21 16  1  0  0  0  0
 21 20  1  0  0  0  0
 22 21  1  0  0  0  0
 24 23  1  0  0  0  0
M  END
>  <minimizedAffinity>
-4.31276846

$$$$
