REMARK  Name = 
REMARK  8 active torsions:
REMARK  status: ('A' for Active; 'I' for Inactive)
REMARK    1  A    between atoms: C_2  and  O_17
REMARK    2  A    between atoms: C_3  and  C_7
REMARK    3  A    between atoms: O_17  and  P_19
REMARK    4  A    between atoms: P_19  and  O_20
REMARK    5  A    between atoms: P_19  and  O_21
REMARK    6  A    between atoms: O_20  and  C_38
REMARK    7  A    between atoms: O_21  and  C_22
REMARK    8  A    between atoms: O_36  and  C_37
REMARK                            x       y       z     vdW  Elec       q    Type
REMARK                         _______ _______ _______ _____ _____    ______ ____
ROOT
ATOM      1  C   UNL     1      45.131  36.016  42.916  0.00  0.00    +0.000 A 
ATOM      2  C   UNL     1      45.371  34.651  42.910  0.00  0.00    +0.000 A 
ATOM      3  C   UNL     1      45.215  33.919  44.061  0.00  0.00    +0.000 A 
ATOM      4  N   UNL     1      44.812  34.610  45.189  0.00  0.00    +0.000 NA
ATOM      5  C   UNL     1      44.582  35.919  45.189  0.00  0.00    +0.000 A 
ATOM      6  N   UNL     1      44.746  36.612  44.042  0.00  0.00    +0.000 NA
ATOM      7  H   UNL     1      45.255  36.605  42.002  0.00  0.00    +0.000 HD
ATOM      8  H   UNL     1      44.270  36.439  46.079  0.00  0.00    +0.000 HD
ENDROOT
BRANCH   3   9
ATOM      9  C   UNL     1      45.419  32.530  44.220  0.00  0.00    +0.000 A 
ATOM     10  C   UNL     1      44.940  31.561  43.333  0.00  0.00    +0.000 A 
ATOM     11  C   UNL     1      45.079  30.210  43.519  0.00  0.00    +0.000 A 
ATOM     12  C   UNL     1      45.724  29.741  44.636  0.00  0.00    +0.000 A 
ATOM     13  C   UNL     1      46.220  30.707  45.550  0.00  0.00    +0.000 A 
ATOM     14  C   UNL     1      46.863  30.251  46.673  0.00  0.00    +0.000 A 
ATOM     15  C   UNL     1      47.370  31.135  47.604  0.00  0.00    +0.000 A 
ATOM     16  C   UNL     1      47.224  32.518  47.392  0.00  0.00    +0.000 A 
ATOM     17  C   UNL     1      46.557  32.937  46.227  0.00  0.00    +0.000 A 
ATOM     18  C   UNL     1      46.062  32.035  45.325  0.00  0.00    +0.000 A 
ATOM     19  H   UNL     1      44.427  31.928  42.444  0.00  0.00    +0.000 HD
ATOM     20  H   UNL     1      44.667  29.546  42.762  0.00  0.00    +0.000 HD
ATOM     21  H   UNL     1      45.849  28.681  44.812  0.00  0.00    +0.000 HD
ATOM     22  H   UNL     1      46.973  29.172  46.827  0.00  0.00    +0.000 HD
ATOM     23  H   UNL     1      47.861  30.706  48.461  0.00  0.00    +0.000 HD
ATOM     24  H   UNL     1      47.650  33.117  48.166  0.00  0.00    +0.000 HD
ATOM     25  H   UNL     1      46.567  34.006  46.235  0.00  0.00    +0.000 HD
ENDBRANCH   3   9
BRANCH   2  26
ATOM     26  O   UNL     1      45.760  34.090  41.725  0.00  0.00    +0.000 OA
BRANCH  26  28
ATOM     27  O   UNL     1      47.682  32.429  41.088  0.00  0.00    +0.000 OA
ATOM     28  P   UNL     1      47.370  33.875  41.243  0.00  0.00    +0.000 P 
BRANCH  28  29
ATOM     29  O   UNL     1      47.652  34.606  39.741  0.00  0.00    +0.000 OA
BRANCH  29  31
ATOM     30  C   UNL     1      49.343  33.954  38.154  0.00  0.00    +0.000 C 
ATOM     31  C   UNL     1      47.957  33.695  38.762  0.00  0.00    +0.000 C 
ATOM     32  C   UNL     1      48.181  32.292  39.286  0.00  0.00    +0.000 C 
ATOM     33  H   UNL     1      48.745  32.438  40.253  0.00  0.00    +0.000 HD
ATOM     34  O   UNL     1      49.082  31.669  38.438  0.00  0.00    +0.000 OA
ATOM     35  C   UNL     1      49.532  32.587  37.520  0.00  0.00    +0.000 C 
ATOM     36  H   UNL     1      50.546  32.422  37.151  0.00  0.00    +0.000 HD
BRANCH  30  37
ATOM     37  O   UNL     1      49.282  34.962  37.200  0.00  0.00    +0.000 OA
ATOM     38  H   UNL     1      49.566  35.813  37.650  0.00  0.00    +0.000 HD
ENDBRANCH  30  37
ENDBRANCH  29  31
ENDBRANCH  28  29
BRANCH  28  39
ATOM     39  O   UNL     1      48.362  34.595  42.389  0.00  0.00    +0.000 OA
BRANCH  39  40
ATOM     40  C   UNL     1      49.535  35.292  42.149  0.00  0.00    +0.000 C 
ATOM     41  O   UNL     1      49.204  36.212  41.378  0.00  0.00    +0.000 OA
ATOM     42  N   UNL     1      50.639  34.700  42.862  0.00  0.00    +0.000 N 
ATOM     43  H   UNL     1      50.629  34.847  43.905  0.00  0.00    +0.000 HD
ATOM     44  H   UNL     1      51.450  34.146  42.508  0.00  0.00    +0.000 HD
ENDBRANCH  39  40
ENDBRANCH  28  39
ENDBRANCH  26  28
ENDBRANCH   2  26
TORSDOF 8
