
 OpenBabel03252508073D

 44 47  0  0  1  0  0  0  0  0999 V2000
   45.1800   35.5870   43.1150 C   0  0  0  0  0  0  0  0  0  0  0  0
   45.5390   34.2500   43.1830 C   0  0  0  0  0  0  0  0  0  0  0  0
   45.4390   33.5710   44.3720 C   0  0  0  0  0  0  0  0  0  0  0  0
   44.9690   34.2830   45.4600 N   0  0  0  0  0  0  0  0  0  0  0  0
   44.6260   35.5650   45.3880 C   0  0  0  0  0  0  0  0  0  0  0  0
   44.7370   36.2070   44.2060 N   0  0  0  0  0  0  0  0  0  0  0  0
   45.2590   36.1350   42.1700 H   0  0  0  0  0  0  0  0  0  0  0  0
   44.2630   36.1030   46.2480 H   0  0  0  0  0  0  0  0  0  0  0  0
   45.7630   32.2150   44.6070 C   0  0  0  0  0  0  0  0  0  0  0  0
   45.4140   31.1670   43.7500 C   0  0  0  0  0  0  0  0  0  0  0  0
   45.6680   29.8450   44.0070 C   0  0  0  0  0  0  0  0  0  0  0  0
   46.3040   29.4890   45.1710 C   0  0  0  0  0  0  0  0  0  0  0  0
   46.6690   30.5370   46.0550 C   0  0  0  0  0  0  0  0  0  0  0  0
   47.3010   30.1950   47.2230 C   0  0  0  0  0  0  0  0  0  0  0  0
   47.6840   31.1630   48.1290 C   0  0  0  0  0  0  0  0  0  0  0  0
   47.4210   32.5160   47.8440 C   0  0  0  0  0  0  0  0  0  0  0  0
   46.7700   32.8170   46.6350 C   0  0  0  0  0  0  0  0  0  0  0  0
   46.4000   31.8330   45.7590 C   0  0  0  0  0  0  0  0  0  0  0  0
   44.9090   31.4440   42.8250 H   0  0  0  0  0  0  0  0  0  0  0  0
   45.3520   29.1110   43.2680 H   0  0  0  0  0  0  0  0  0  0  0  0
   46.5180   28.4540   45.4030 H   0  0  0  0  0  0  0  0  0  0  0  0
   47.5030   29.1390   47.4340 H   0  0  0  0  0  0  0  0  0  0  0  0
   48.1740   30.8210   49.0250 H   0  0  0  0  0  0  0  0  0  0  0  0
   47.7560   33.1860   48.6040 H   0  0  0  0  0  0  0  0  0  0  0  0
   46.6810   33.8820   46.5910 H   0  0  0  0  0  0  0  0  0  0  0  0
   45.9840   33.6630   42.0320 O   0  0  0  0  0  0  0  0  0  0  0  0
   48.1530   32.4000   41.2840 O   0  0  0  0  0  0  0  0  0  0  0  0
   47.5730   33.7590   41.4520 P   0  0  1  0  0  0  0  0  0  0  0  0
   47.6150   34.5060   39.9320 O   0  0  0  0  0  0  0  0  0  0  0  0
   46.3930   33.1480   38.3610 C   0  0  1  0  0  3  0  0  0  0  0  0
   47.7530   33.6050   38.9070 C   0  0  1  0  0  3  0  0  0  0  0  0
   48.3300   34.2090   37.6430 C   0  0  0  0  0  3  0  0  0  0  0  0
   47.8470   35.2270   37.5690 H   0  0  0  0  0  0  0  0  0  0  0  0
   47.8210   33.4940   36.5710 O   0  0  0  0  0  0  0  0  0  0  0  0
   46.8920   32.5960   37.0380 C   0  0  0  0  0  3  0  0  0  0  0  0
   46.0870   32.3510   36.3450 H   0  0  0  0  0  0  0  0  0  0  0  0
   45.8490   32.1540   39.1650 O   0  0  0  0  0  0  0  0  0  0  0  0
   45.2000   32.5970   39.7890 H   0  0  0  0  0  0  0  0  0  0  0  0
   48.4710   34.6780   42.5310 O   0  0  0  0  0  0  0  0  0  0  0  0
   49.6860   35.2950   42.2830 C   0  0  0  0  0  0  0  0  0  0  0  0
   49.3870   36.3800   41.7510 O   0  0  0  0  0  0  0  0  0  0  0  0
   50.7810   34.4670   42.7240 N   0  0  0  0  0  0  0  0  0  0  0  0
   50.8980   34.3980   43.7680 H   0  0  0  0  0  0  0  0  0  0  0  0
   51.4790   33.9230   42.1700 H   0  0  0  0  0  0  0  0  0  0  0  0
  1  2  2  0  0  0  0
  1  6  1  0  0  0  0
  2  3  1  0  0  0  0
  3  9  1  0  0  0  0
  3  4  2  0  0  0  0
  5  4  1  0  0  0  0
  5  8  1  0  0  0  0
  6  5  2  0  0  0  0
  7  1  1  0  0  0  0
  9 18  1  0  0  0  0
 10 11  1  0  0  0  0
 10  9  2  0  0  0  0
 11 12  2  0  0  0  0
 12 21  1  0  0  0  0
 12 13  1  0  0  0  0
 13 14  1  0  0  0  0
 14 22  1  0  0  0  0
 14 15  2  0  0  0  0
 15 23  1  0  0  0  0
 16 15  1  0  0  0  0
 16 24  1  0  0  0  0
 17 16  2  0  0  0  0
 18 13  2  0  0  0  0
 18 17  1  0  0  0  0
 19 10  1  0  0  0  0
 20 11  1  0  0  0  0
 25 17  1  0  0  0  0
 26  2  1  0  0  0  0
 28 27  2  6  0  0  0
 28 26  1  0  0  0  0
 28 39  1  0  0  0  0
 29 28  1  0  0  0  0
 30 31  1  0  0  0  0
 30 37  1  1  0  0  0
 31 29  1  1  0  0  0
 32 31  1  0  0  0  0
 33 32  1  0  0  0  0
 34 35  1  0  0  0  0
 34 32  1  0  0  0  0
 35 30  1  0  0  0  0
 36 35  1  0  0  0  0
 37 38  1  0  0  0  0
 40 39  1  0  0  0  0
 40 42  1  0  0  0  0
 41 40  2  0  0  0  0
 42 43  1  0  0  0  0
 44 42  1  0  0  0  0
M  END
>  <minimizedAffinity>
-6.32744646

>  <minimizedRMSD>
0.521185458

$$$$
