
 OpenBabel03252508073D

 44 47  0  0  1  0  0  0  0  0999 V2000
   45.1790   35.5880   43.1170 C   0  0  0  0  0  0  0  0  0  0  0  0
   45.5380   34.2510   43.1850 C   0  0  0  0  0  0  0  0  0  0  0  0
   45.4390   33.5710   44.3730 C   0  0  0  0  0  0  0  0  0  0  0  0
   44.9700   34.2840   45.4610 N   0  0  0  0  0  0  0  0  0  0  0  0
   44.6260   35.5650   45.3910 C   0  0  0  0  0  0  0  0  0  0  0  0
   44.7360   36.2080   44.2080 N   0  0  0  0  0  0  0  0  0  0  0  0
   45.2560   36.1360   42.1720 H   0  0  0  0  0  0  0  0  0  0  0  0
   44.2630   36.1030   46.2510 H   0  0  0  0  0  0  0  0  0  0  0  0
   45.7630   32.2160   44.6070 C   0  0  0  0  0  0  0  0  0  0  0  0
   45.4150   31.1680   43.7500 C   0  0  0  0  0  0  0  0  0  0  0  0
   45.6690   29.8460   44.0070 C   0  0  0  0  0  0  0  0  0  0  0  0
   46.3050   29.4900   45.1690 C   0  0  0  0  0  0  0  0  0  0  0  0
   46.6700   30.5380   46.0540 C   0  0  0  0  0  0  0  0  0  0  0  0
   47.3020   30.1950   47.2230 C   0  0  0  0  0  0  0  0  0  0  0  0
   47.6850   31.1630   48.1290 C   0  0  0  0  0  0  0  0  0  0  0  0
   47.4210   32.5160   47.8450 C   0  0  0  0  0  0  0  0  0  0  0  0
   46.7700   32.8180   46.6350 C   0  0  0  0  0  0  0  0  0  0  0  0
   46.4000   31.8340   45.7590 C   0  0  0  0  0  0  0  0  0  0  0  0
   44.9090   31.4450   42.8250 H   0  0  0  0  0  0  0  0  0  0  0  0
   45.3540   29.1130   43.2670 H   0  0  0  0  0  0  0  0  0  0  0  0
   46.5200   28.4550   45.4010 H   0  0  0  0  0  0  0  0  0  0  0  0
   47.5050   29.1390   47.4330 H   0  0  0  0  0  0  0  0  0  0  0  0
   48.1750   30.8210   49.0240 H   0  0  0  0  0  0  0  0  0  0  0  0
   47.7560   33.1860   48.6050 H   0  0  0  0  0  0  0  0  0  0  0  0
   46.6810   33.8820   46.5920 H   0  0  0  0  0  0  0  0  0  0  0  0
   45.9820   33.6640   42.0320 O   0  0  0  0  0  0  0  0  0  0  0  0
   48.1510   32.4010   41.2850 O   0  0  0  0  0  0  0  0  0  0  0  0
   47.5710   33.7600   41.4520 P   0  0  1  0  0  0  0  0  0  0  0  0
   47.6130   34.5070   39.9320 O   0  0  0  0  0  0  0  0  0  0  0  0
   46.3900   33.1480   38.3610 C   0  0  1  0  0  3  0  0  0  0  0  0
   47.7510   33.6050   38.9070 C   0  0  1  0  0  3  0  0  0  0  0  0
   48.3290   34.2070   37.6430 C   0  0  0  0  0  3  0  0  0  0  0  0
   47.8470   35.2240   37.5680 H   0  0  0  0  0  0  0  0  0  0  0  0
   47.8210   33.4920   36.5710 O   0  0  0  0  0  0  0  0  0  0  0  0
   46.8910   32.5950   37.0390 C   0  0  0  0  0  3  0  0  0  0  0  0
   46.0860   32.3500   36.3440 H   0  0  0  0  0  0  0  0  0  0  0  0
   45.8470   32.1550   39.1660 O   0  0  0  0  0  0  0  0  0  0  0  0
   45.1980   32.5990   39.7880 H   0  0  0  0  0  0  0  0  0  0  0  0
   48.4690   34.6800   42.5310 O   0  0  0  0  0  0  0  0  0  0  0  0
   49.6840   35.2970   42.2820 C   0  0  0  0  0  0  0  0  0  0  0  0
   49.3850   36.3820   41.7490 O   0  0  0  0  0  0  0  0  0  0  0  0
   50.7800   34.4700   42.7230 N   0  0  0  0  0  0  0  0  0  0  0  0
   50.8970   34.4020   43.7680 H   0  0  0  0  0  0  0  0  0  0  0  0
   51.4780   33.9250   42.1700 H   0  0  0  0  0  0  0  0  0  0  0  0
  1  2  2  0  0  0  0
  1  6  1  0  0  0  0
  2  3  1  0  0  0  0
  3  9  1  0  0  0  0
  3  4  2  0  0  0  0
  5  4  1  0  0  0  0
  5  8  1  0  0  0  0
  6  5  2  0  0  0  0
  7  1  1  0  0  0  0
  9 18  1  0  0  0  0
 10 11  1  0  0  0  0
 10  9  2  0  0  0  0
 11 12  2  0  0  0  0
 12 21  1  0  0  0  0
 12 13  1  0  0  0  0
 13 14  1  0  0  0  0
 14 22  1  0  0  0  0
 14 15  2  0  0  0  0
 15 23  1  0  0  0  0
 16 15  1  0  0  0  0
 16 24  1  0  0  0  0
 17 16  2  0  0  0  0
 18 13  2  0  0  0  0
 18 17  1  0  0  0  0
 19 10  1  0  0  0  0
 20 11  1  0  0  0  0
 25 17  1  0  0  0  0
 26  2  1  0  0  0  0
 28 27  2  6  0  0  0
 28 26  1  0  0  0  0
 28 39  1  0  0  0  0
 29 28  1  0  0  0  0
 30 31  1  0  0  0  0
 30 37  1  1  0  0  0
 31 29  1  1  0  0  0
 32 31  1  0  0  0  0
 33 32  1  0  0  0  0
 34 35  1  0  0  0  0
 34 32  1  0  0  0  0
 35 30  1  0  0  0  0
 36 35  1  0  0  0  0
 37 38  1  0  0  0  0
 40 39  1  0  0  0  0
 40 42  1  0  0  0  0
 41 40  2  0  0  0  0
 42 43  1  0  0  0  0
 44 42  1  0  0  0  0
M  END
>  <minimizedAffinity>
-6.33026648

>  <minimizedRMSD>
0.654524326

$$$$
