
     RDKit          3D

 48 51  0  0  0  0  0  0  0  0999 V2000
   45.1306   36.0156   42.9165 C   0  0  0  0  0  0  0  0  0  0  0  0
   45.3713   34.6509   42.9097 C   0  0  0  0  0  0  0  0  0  0  0  0
   45.2145   33.9195   44.0614 C   0  0  0  0  0  0  0  0  0  0  0  0
   44.8122   34.6102   45.1888 N   0  0  0  0  0  0  0  0  0  0  0  0
   44.5823   35.9195   45.1890 C   0  0  0  0  0  0  0  0  0  0  0  0
   44.7465   36.6123   44.0419 N   0  0  0  0  0  0  0  0  0  0  0  0
   45.4193   32.5296   44.2202 C   0  0  0  0  0  0  0  0  0  0  0  0
   44.9403   31.5609   43.3332 C   0  0  0  0  0  0  0  0  0  0  0  0
   45.0791   30.2100   43.5187 C   0  0  0  0  0  0  0  0  0  0  0  0
   45.7241   29.7406   44.6362 C   0  0  0  0  0  0  0  0  0  0  0  0
   46.2201   30.7069   45.5499 C   0  0  0  0  0  0  0  0  0  0  0  0
   46.8634   30.2512   46.6731 C   0  0  0  0  0  0  0  0  0  0  0  0
   47.3703   31.1352   47.6040 C   0  0  0  0  0  0  0  0  0  0  0  0
   47.2239   32.5176   47.3918 C   0  0  0  0  0  0  0  0  0  0  0  0
   46.5569   32.9369   46.2269 C   0  0  0  0  0  0  0  0  0  0  0  0
   46.0620   32.0352   45.3252 C   0  0  0  0  0  0  0  0  0  0  0  0
   45.7599   34.0895   41.7246 O   0  0  0  0  0  0  0  0  0  0  0  0
   47.6825   32.4288   41.0884 O   0  0  0  0  0  0  0  0  0  0  0  0
   47.3695   33.8748   41.2429 P   0  0  1  0  0  0  0  0  0  0  0  0
   47.6518   34.6058   39.7411 O   0  0  0  0  0  0  0  0  0  0  0  0
   48.3621   34.5949   42.3891 O   0  0  0  0  0  0  0  0  0  0  0  0
   49.5353   35.2924   42.1494 C   0  0  0  0  0  0  0  0  0  0  0  0
   49.2039   36.2122   41.3781 O   0  0  0  0  0  0  0  0  0  0  0  0
   50.6395   34.6998   42.8620 N   0  0  0  0  0  0  0  0  0  0  0  0
   45.2545   36.6050   42.0020 H   0  0  0  0  0  0  0  0  0  0  0  0
   44.2695   36.4393   46.0790 H   0  0  0  0  0  0  0  0  0  0  0  0
   44.4267   31.9280   42.4439 H   0  0  0  0  0  0  0  0  0  0  0  0
   44.6667   29.5464   42.7617 H   0  0  0  0  0  0  0  0  0  0  0  0
   45.8486   28.6808   44.8123 H   0  0  0  0  0  0  0  0  0  0  0  0
   46.9729   29.1721   46.8273 H   0  0  0  0  0  0  0  0  0  0  0  0
   47.8612   30.7062   48.4613 H   0  0  0  0  0  0  0  0  0  0  0  0
   47.6503   33.1169   48.1656 H   0  0  0  0  0  0  0  0  0  0  0  0
   46.5674   34.0056   46.2351 H   0  0  0  0  0  0  0  0  0  0  0  0
   50.6288   34.8473   43.9050 H   0  0  0  0  0  0  0  0  0  0  0  0
   51.4502   34.1463   42.5080 H   0  0  0  0  0  0  0  0  0  0  0  0
   45.8035   33.0136   37.9281 O   0  0  0  0  0  0  0  0  0  0  0  0
   46.9453   33.7372   37.6080 C   0  0  1  0  0  0  0  0  0  0  0  0
   47.9571   33.6951   38.7618 C   0  0  1  0  0  0  0  0  0  0  0  0
   49.2166   34.0317   37.9914 C   0  0  1  0  0  0  0  0  0  0  0  0
   49.1798   35.1527   37.8638 H   0  0  0  0  0  0  0  0  0  0  0  0
   49.0711   33.5221   36.7114 O   0  0  0  0  0  0  0  0  0  0  0  0
   47.7994   33.0191   36.5776 C   0  0  2  0  0  0  0  0  0  0  0  0
   47.3822   33.0614   35.5706 H   0  0  0  0  0  0  0  0  0  0  0  0
   45.1190   33.6693   38.2569 H   0  0  0  0  0  0  0  0  0  0  0  0
   46.7689   34.7505   37.2454 H   0  0  0  0  0  0  0  0  0  0  0  0
   47.9605   32.6532   39.1419 H   0  0  0  0  0  0  0  0  0  0  0  0
   50.1297   33.7246   38.5050 H   0  0  0  0  0  0  0  0  0  0  0  0
   47.8476   31.9548   36.9528 H   0  0  0  0  0  0  0  0  0  0  0  0
  1  6  2  0
  2  1  1  0
  2  3  2  0
  3  7  1  0
  3  4  1  0
  5  4  2  0
  6  5  1  0
  7 16  2  0
  8  9  2  0
  8  7  1  0
  9 10  1  0
 10 11  2  0
 11 12  1  0
 12 13  2  0
 14 13  1  0
 15 14  2  0
 16 11  1  0
 16 15  1  0
 17  2  1  0
 19 18  2  0
 19 17  1  1
 19 21  1  0
 20 19  1  0
 22 21  1  0
 22 24  1  0
 23 22  2  0
  1 25  1  0
  5 26  1  0
  8 27  1  0
  9 28  1  0
 10 29  1  0
 12 30  1  0
 13 31  1  0
 14 32  1  0
 15 33  1  0
 24 34  1  0
 24 35  1  0
 36 37  1  0
 37 38  1  0
 38 39  1  0
 39 40  1  6
 39 41  1  0
 41 42  1  0
 42 43  1  6
 42 37  1  0
 36 44  1  0
 37 45  1  6
 38 46  1  1
 39 47  1  0
 42 48  1  0
 20 38  1  0
M  ISO  8  25  14  26  14  27  14  28  14  29  14  30  14  31  14  32  14
M  ISO  3  33  14  40  15  43  16
M  END
>  <DihAtoms>  (1) 
18,19,37,36

>  <DihDeg>  (1) 
119.77506989476326

$$$$
