REMARK  Name = 
REMARK  7 active torsions:
REMARK  status: ('A' for Active; 'I' for Inactive)
REMARK    1  A    between atoms: C_1  and  C_4
REMARK    2  A    between atoms: C_1  and  O_8
REMARK    3  A    between atoms: O_8  and  P_10
REMARK    4  A    between atoms: P_10  and  O_11
REMARK    5  A    between atoms: P_10  and  O_12
REMARK    6  A    between atoms: O_12  and  C_21
REMARK    7  A    between atoms: O_19  and  C_20
REMARK                            x       y       z     vdW  Elec       q    Type
REMARK                         _______ _______ _______ _____ _____    ______ ____
ROOT
ATOM      1  O   UNL     1      50.649  33.103  41.895  0.00  0.00    +0.000 OA
ATOM      2  P   UNL     1      49.625  34.165  42.231  0.00  0.00    +0.000 P 
ENDROOT
BRANCH   2   3
ATOM      3  O   UNL     1      50.211  35.358  43.257  0.00  0.00    +0.000 OA
ATOM      4  H   UNL     1      49.461  35.698  43.804  0.00  0.00    +0.000 HD
ENDBRANCH   2   3
BRANCH   2   5
ATOM      5  O   UNL     1      48.320  33.416  43.015  0.00  0.00    +0.000 OA
BRANCH   5   6
ATOM      6  C   UNL     1      47.167  33.963  42.477  0.00  0.00    +0.000 C 
ATOM      7  H   UNL     1      47.361  34.789  41.771  0.00  0.00    +0.000 HD
ATOM      8  H   UNL     1      46.612  33.193  41.870  0.00  0.00    +0.000 HD
BRANCH   6  11
ATOM      9  C   UNL     1      45.299  34.229  45.701  0.00  0.00    +0.000 A 
ATOM     10  C   UNL     1      46.169  33.747  44.710  0.00  0.00    +0.000 A 
ATOM     11  C   UNL     1      46.260  34.458  43.520  0.00  0.00    +0.000 A 
ATOM     12  N   UNL     1      45.503  35.595  43.361  0.00  0.00    +0.000 NA
ATOM     13  C   UNL     1      44.671  36.031  44.344  0.00  0.00    +0.000 A 
ATOM     14  N   UNL     1      44.575  35.353  45.495  0.00  0.00    +0.000 NA
ATOM     15  H   UNL     1      45.174  33.732  46.650  0.00  0.00    +0.000 HD
ATOM     16  H   UNL     1      46.743  32.840  44.896  0.00  0.00    +0.000 HD
ATOM     17  H   UNL     1      44.111  36.938  44.130  0.00  0.00    +0.000 HD
ENDBRANCH   6  11
ENDBRANCH   5   6
ENDBRANCH   2   5
BRANCH   2  18
ATOM     18  O   UNL     1      49.070  34.809  40.781  0.00  0.00    +0.000 OA
BRANCH  18  20
ATOM     19  C   UNL     1      49.587  37.024  41.413  0.00  0.00    +0.000 C 
ATOM     20  C   UNL     1      49.677  35.938  40.368  0.00  0.00    +0.000 C 
ATOM     21  C   UNL     1      49.225  36.566  39.094  0.00  0.00    +0.000 C 
ATOM     22  H   UNL     1      49.758  36.219  38.211  0.00  0.00    +0.000 HD
ATOM     23  O   UNL     1      49.575  37.916  39.330  0.00  0.00    +0.000 OA
ATOM     24  C   UNL     1      49.030  38.183  40.605  0.00  0.00    +0.000 C 
ATOM     25  H   UNL     1      49.367  39.162  40.937  0.00  0.00    +0.000 HD
BRANCH  19  26
ATOM     26  O   UNL     1      50.840  37.341  41.950  0.00  0.00    +0.000 OA
ATOM     27  H   UNL     1      51.059  36.749  42.697  0.00  0.00    +0.000 HD
ENDBRANCH  19  26
ENDBRANCH  18  20
ENDBRANCH   2  18
TORSDOF 7
