
 OpenBabel03242512553D

 29 30  0  0  1  0  0  0  0  0999 V2000
   36.5380   30.5390   41.4150 O   0  0  0  0  0  0  0  0  0  0  0  0
   35.9250   29.3700   41.0120 C   0  0  0  0  0  0  0  0  0  0  0  0
   34.8680   29.3420   41.3510 H   0  0  0  0  0  0  0  0  0  0  0  0
   35.8650   29.3940   39.9000 H   0  0  0  0  0  0  0  0  0  0  0  0
   37.2190   27.9660   42.5650 C   0  0  0  0  0  3  0  0  0  0  0  0
   36.7190   28.1850   41.3630 C   0  0  0  0  0  3  0  0  0  0  0  0
   38.0200   26.7700   42.7600 C   0  0  0  0  0  0  0  0  0  0  0  0
   37.6170   25.5690   42.1580 C   0  0  0  0  0  0  0  0  0  0  0  0
   38.4030   24.4210   42.3480 C   0  0  0  0  0  0  0  0  0  0  0  0
   39.5200   24.5210   43.1060 N   0  0  0  0  0  0  0  0  0  0  0  0
   39.8870   25.6980   43.6780 C   0  0  0  0  0  0  0  0  0  0  0  0
   39.1360   26.7760   43.4910 N   0  0  0  0  0  0  0  0  0  0  0  0
   36.7330   25.4490   41.5490 H   0  0  0  0  0  0  0  0  0  0  0  0
   38.1460   23.4690   41.9110 H   0  0  0  0  0  0  0  0  0  0  0  0
   40.7970   25.6360   44.2560 H   0  0  0  0  0  0  0  0  0  0  0  0
   36.3850   30.9200   38.8730 O   0  0  0  0  0  0  0  0  0  0  0  0
   37.1360   31.4180   40.0950 P   0  0  1  0  0  0  0  0  0  0  0  0
   36.8230   33.0660   40.3160 O   0  0  0  0  0  0  0  0  0  0  0  0
   37.6450   33.5690   40.5570 H   0  0  0  0  0  0  0  0  0  0  0  0
   38.7660   31.2240   39.8810 O   0  0  0  0  0  0  0  0  0  0  0  0
   40.0500   32.1450   38.0550 C   0  0  1  0  0  3  0  0  0  0  0  0
   39.2460   31.0150   38.6410 C   0  0  1  0  0  3  0  0  0  0  0  0
   40.0970   29.8170   38.4130 C   0  0  0  0  0  3  0  0  0  0  0  0
   39.7600   29.1680   37.5690 H   0  0  0  0  0  0  0  0  0  0  0  0
   41.3690   30.2340   38.0580 O   0  0  0  0  0  0  0  0  0  0  0  0
   41.4430   31.6010   38.1200 C   0  0  0  0  0  3  0  0  0  0  0  0
   42.0430   31.9920   38.9850 H   0  0  0  0  0  0  0  0  0  0  0  0
   39.7630   32.3160   36.6840 O   0  0  0  0  0  0  0  0  0  0  0  0
   40.2250   33.1800   36.4420 H   0  0  0  0  0  0  0  0  0  0  0  0
  2  3  1  0  0  0  0
  2  6  1  0  0  0  0
  2  1  1  0  0  0  0
  4  2  1  0  0  0  0
  5  7  1  0  0  0  0
  6  5  2  0  0  0  0
  7 12  1  0  0  0  0
  8  9  1  0  0  0  0
  8  7  2  0  0  0  0
  9 10  2  0  0  0  0
 10 11  1  0  0  0  0
 11 15  1  0  0  0  0
 12 11  2  0  0  0  0
 13  8  1  0  0  0  0
 14  9  1  0  0  0  0
 17 16  2  6  0  0  0
 17 18  1  0  0  0  0
 17  1  1  0  0  0  0
 18 19  1  0  0  0  0
 20 17  1  0  0  0  0
 21 28  1  6  0  0  0
 21 26  1  0  0  0  0
 21 22  1  0  0  0  0
 22 20  1  1  0  0  0
 23 22  1  0  0  0  0
 24 23  1  0  0  0  0
 25 26  1  0  0  0  0
 25 23  1  0  0  0  0
 26 27  1  0  0  0  0
 29 28  1  0  0  0  0
M  END
>  <minimizedAffinity>
-5.23281574

$$$$

 OpenBabel03242512553D

 29 30  0  0  1  0  0  0  0  0999 V2000
   36.2700   30.6840   39.4240 O   0  0  0  0  0  0  0  0  0  0  0  0
   36.0100   30.3850   40.7460 C   0  0  0  0  0  0  0  0  0  0  0  0
   36.1840   31.2710   41.3920 H   0  0  0  0  0  0  0  0  0  0  0  0
   34.9180   30.1830   40.8310 H   0  0  0  0  0  0  0  0  0  0  0  0
   37.3740   29.0560   42.3050 C   0  0  0  0  0  3  0  0  0  0  0  0
   36.6970   29.1600   41.1770 C   0  0  0  0  0  3  0  0  0  0  0  0
   38.0380   27.7940   42.5850 C   0  0  0  0  0  0  0  0  0  0  0  0
   37.5770   26.6250   41.9650 C   0  0  0  0  0  0  0  0  0  0  0  0
   38.2310   25.4120   42.2380 C   0  0  0  0  0  0  0  0  0  0  0  0
   39.2820   25.4230   43.0910 N   0  0  0  0  0  0  0  0  0  0  0  0
   39.7070   26.5720   43.6790 C   0  0  0  0  0  0  0  0  0  0  0  0
   39.0810   27.7120   43.4130 N   0  0  0  0  0  0  0  0  0  0  0  0
   36.7420   26.5750   41.2810 H   0  0  0  0  0  0  0  0  0  0  0  0
   37.9240   24.4790   41.7910 H   0  0  0  0  0  0  0  0  0  0  0  0
   40.5530   26.4370   44.3360 H   0  0  0  0  0  0  0  0  0  0  0  0
   37.3940   32.3480   37.8130 O   0  0  0  0  0  0  0  0  0  0  0  0
   37.3930   31.9440   39.2760 P   0  0  1  0  0  0  0  0  0  0  0  0
   36.9060   33.2580   40.2230 O   0  0  0  0  0  0  0  0  0  0  0  0
   37.4600   33.3490   41.0430 H   0  0  0  0  0  0  0  0  0  0  0  0
   38.9170   31.5020   39.7470 O   0  0  0  0  0  0  0  0  0  0  0  0
   40.3110   31.2250   41.7000 C   0  0  1  0  0  3  0  0  0  0  0  0
   39.4780   32.1090   40.8100 C   0  0  1  0  0  3  0  0  0  0  0  0
   40.3500   33.2870   40.5630 C   0  0  0  0  0  3  0  0  0  0  0  0
   40.0730   34.1950   41.1510 H   0  0  0  0  0  0  0  0  0  0  0  0
   41.6400   32.9810   40.9630 O   0  0  0  0  0  0  0  0  0  0  0  0
   41.7010   31.6730   41.3700 C   0  0  0  0  0  3  0  0  0  0  0  0
   42.2400   30.9930   40.6590 H   0  0  0  0  0  0  0  0  0  0  0  0
   40.1130   31.5420   43.0610 O   0  0  0  0  0  0  0  0  0  0  0  0
   40.5830   30.8000   43.5570 H   0  0  0  0  0  0  0  0  0  0  0  0
  1  2  1  0  0  0  0
  2  4  1  0  0  0  0
  2  6  1  0  0  0  0
  2  3  1  0  0  0  0
  5  7  1  0  0  0  0
  6  5  2  0  0  0  0
  7 12  1  0  0  0  0
  8  9  1  0  0  0  0
  8  7  2  0  0  0  0
  9 10  2  0  0  0  0
 10 11  1  0  0  0  0
 11 15  1  0  0  0  0
 12 11  2  0  0  0  0
 13  8  1  0  0  0  0
 14  9  1  0  0  0  0
 17 16  2  6  0  0  0
 17  1  1  0  0  0  0
 17 20  1  0  0  0  0
 17 18  1  0  0  0  0
 18 19  1  0  0  0  0
 21 28  1  1  0  0  0
 22 20  1  6  0  0  0
 22 21  1  0  0  0  0
 23 22  1  0  0  0  0
 23 25  1  0  0  0  0
 23 24  1  0  0  0  0
 25 26  1  0  0  0  0
 26 21  1  0  0  0  0
 27 26  1  0  0  0  0
 28 29  1  0  0  0  0
M  END
>  <minimizedAffinity>
-4.82063007

$$$$

 OpenBabel03242512553D

 29 30  0  0  1  0  0  0  0  0999 V2000
   36.9980   28.8850   42.4550 O   0  0  0  0  0  0  0  0  0  0  0  0
   38.2160   28.2360   42.4960 C   0  0  0  0  0  0  0  0  0  0  0  0
   39.0340   28.9120   42.1710 H   0  0  0  0  0  0  0  0  0  0  0  0
   38.4380   28.0180   43.5660 H   0  0  0  0  0  0  0  0  0  0  0  0
   37.1430   26.1130   41.8640 C   0  0  0  0  0  3  0  0  0  0  0  0
   38.1700   26.9400   41.8050 C   0  0  0  0  0  3  0  0  0  0  0  0
   37.2500   24.8460   41.1630 C   0  0  0  0  0  0  0  0  0  0  0  0
   38.4260   24.0920   41.2840 C   0  0  0  0  0  0  0  0  0  0  0  0
   38.5150   22.8650   40.6080 C   0  0  0  0  0  0  0  0  0  0  0  0
   37.4600   22.4600   39.8630 N   0  0  0  0  0  0  0  0  0  0  0  0
   36.3320   23.2110   39.7620 C   0  0  0  0  0  0  0  0  0  0  0  0
   36.2600   24.3690   40.4070 N   0  0  0  0  0  0  0  0  0  0  0  0
   39.2890   24.3820   41.8670 H   0  0  0  0  0  0  0  0  0  0  0  0
   39.3930   22.2400   40.6620 H   0  0  0  0  0  0  0  0  0  0  0  0
   35.5700   22.7700   39.1370 H   0  0  0  0  0  0  0  0  0  0  0  0
   36.4270   29.0760   39.9510 O   0  0  0  0  0  0  0  0  0  0  0  0
   36.8900   29.9260   41.1210 P   0  0  1  0  0  0  0  0  0  0  0  0
   35.7440   31.1320   41.4290 O   0  0  0  0  0  0  0  0  0  0  0  0
   36.1720   32.0090   41.6160 H   0  0  0  0  0  0  0  0  0  0  0  0
   38.3300   30.6580   40.7610 O   0  0  0  0  0  0  0  0  0  0  0  0
   38.7700   33.0270   40.9230 C   0  0  1  0  0  3  0  0  0  0  0  0
   38.3230   31.8390   40.1140 C   0  0  1  0  0  3  0  0  0  0  0  0
   39.1040   31.9510   38.8550 C   0  0  0  0  0  3  0  0  0  0  0  0
   38.5200   32.3350   37.9840 H   0  0  0  0  0  0  0  0  0  0  0  0
   40.1200   32.8750   39.0400 O   0  0  0  0  0  0  0  0  0  0  0  0
   40.1200   33.3090   40.3400 C   0  0  0  0  0  3  0  0  0  0  0  0
   40.9720   32.9180   40.9570 H   0  0  0  0  0  0  0  0  0  0  0  0
   37.9800   34.1610   40.6430 O   0  0  0  0  0  0  0  0  0  0  0  0
   38.2580   34.8340   41.3410 H   0  0  0  0  0  0  0  0  0  0  0  0
  1  2  1  0  0  0  0
  2  4  1  0  0  0  0
  3  2  1  0  0  0  0
  6  5  2  0  0  0  0
  6  2  1  0  0  0  0
  7  8  1  0  0  0  0
  7  5  1  0  0  0  0
  8 13  1  0  0  0  0
  9 14  1  0  0  0  0
  9  8  2  0  0  0  0
 10  9  1  0  0  0  0
 11 10  2  0  0  0  0
 11 12  1  0  0  0  0
 12  7  2  0  0  0  0
 15 11  1  0  0  0  0
 17 16  2  6  0  0  0
 17 18  1  0  0  0  0
 17  1  1  0  0  0  0
 18 19  1  0  0  0  0
 20 17  1  0  0  0  0
 21 28  1  6  0  0  0
 22 20  1  1  0  0  0
 22 21  1  0  0  0  0
 23 25  1  0  0  0  0
 23 22  1  0  0  0  0
 24 23  1  0  0  0  0
 25 26  1  0  0  0  0
 26 21  1  0  0  0  0
 26 27  1  0  0  0  0
 28 29  1  0  0  0  0
M  END
>  <minimizedAffinity>
-4.80060244

$$$$

 OpenBabel03242512553D

 29 30  0  0  1  0  0  0  0  0999 V2000
   37.1880   30.9800   38.8890 O   0  0  0  0  0  0  0  0  0  0  0  0
   38.2790   30.3550   38.3180 C   0  0  0  0  0  0  0  0  0  0  0  0
   38.3320   29.2920   38.6320 H   0  0  0  0  0  0  0  0  0  0  0  0
   38.1000   30.3170   37.2190 H   0  0  0  0  0  0  0  0  0  0  0  0
   39.8180   32.2140   37.8360 C   0  0  0  0  0  3  0  0  0  0  0  0
   39.5160   31.1240   38.5150 C   0  0  0  0  0  3  0  0  0  0  0  0
   41.0950   32.8510   38.1080 C   0  0  0  0  0  0  0  0  0  0  0  0
   41.3210   33.4250   39.3670 C   0  0  0  0  0  0  0  0  0  0  0  0
   42.5630   34.0310   39.6200 C   0  0  0  0  0  0  0  0  0  0  0  0
   43.4910   34.0370   38.6360 N   0  0  0  0  0  0  0  0  0  0  0  0
   43.2450   33.4740   37.4240 C   0  0  0  0  0  0  0  0  0  0  0  0
   42.0680   32.9040   37.1960 N   0  0  0  0  0  0  0  0  0  0  0  0
   40.6050   33.4410   40.1760 H   0  0  0  0  0  0  0  0  0  0  0  0
   42.7960   34.4890   40.5690 H   0  0  0  0  0  0  0  0  0  0  0  0
   44.0710   33.5500   36.7330 H   0  0  0  0  0  0  0  0  0  0  0  0
   37.9930   31.9250   41.1450 O   0  0  0  0  0  0  0  0  0  0  0  0
   37.1670   30.7870   40.5730 P   0  0  1  0  0  0  0  0  0  0  0  0
   35.5780   30.9020   41.1420 O   0  0  0  0  0  0  0  0  0  0  0  0
   35.2130   30.0150   41.4010 H   0  0  0  0  0  0  0  0  0  0  0  0
   37.7870   29.3310   41.0580 O   0  0  0  0  0  0  0  0  0  0  0  0
   36.8890   27.6640   42.5570 C   0  0  1  0  0  3  0  0  0  0  0  0
   37.6420   28.9500   42.3410 C   0  0  1  0  0  3  0  0  0  0  0  0
   38.8680   28.7870   43.1650 C   0  0  0  0  0  3  0  0  0  0  0  0
   38.8540   29.3540   44.1280 H   0  0  0  0  0  0  0  0  0  0  0  0
   38.9850   27.4570   43.5350 O   0  0  0  0  0  0  0  0  0  0  0  0
   37.9870   26.7240   42.9490 C   0  0  0  0  0  3  0  0  0  0  0  0
   38.3320   26.0570   42.1150 H   0  0  0  0  0  0  0  0  0  0  0  0
   36.0370   27.7550   43.6780 O   0  0  0  0  0  0  0  0  0  0  0  0
   35.4780   26.9160   43.6310 H   0  0  0  0  0  0  0  0  0  0  0  0
  1 17  1  0  0  0  0
  2  6  1  0  0  0  0
  2  3  1  0  0  0  0
  2  1  1  0  0  0  0
  4  2  1  0  0  0  0
  5  7  1  0  0  0  0
  5  6  2  0  0  0  0
  7  8  1  0  0  0  0
  8  9  2  0  0  0  0
  8 13  1  0  0  0  0
  9 14  1  0  0  0  0
 10  9  1  0  0  0  0
 11 10  2  0  0  0  0
 12 11  1  0  0  0  0
 12  7  2  0  0  0  0
 15 11  1  0  0  0  0
 17 20  1  0  0  0  0
 17 18  1  0  0  0  0
 17 16  2  1  0  0  0
 18 19  1  0  0  0  0
 21 26  1  0  0  0  0
 21 28  1  1  0  0  0
 22 20  1  6  0  0  0
 22 21  1  0  0  0  0
 22 23  1  0  0  0  0
 23 25  1  0  0  0  0
 23 24  1  0  0  0  0
 26 25  1  0  0  0  0
 27 26  1  0  0  0  0
 29 28  1  0  0  0  0
M  END
>  <minimizedAffinity>
-4.69228554

$$$$

 OpenBabel03242512553D

 29 30  0  0  1  0  0  0  0  0999 V2000
   36.5510   30.6980   38.7500 O   0  0  0  0  0  0  0  0  0  0  0  0
   36.1110   29.3920   38.6730 C   0  0  0  0  0  0  0  0  0  0  0  0
   36.9660   28.6960   38.5410 H   0  0  0  0  0  0  0  0  0  0  0  0
   35.6830   29.1290   39.6670 H   0  0  0  0  0  0  0  0  0  0  0  0
   33.8140   28.8130   38.0040 C   0  0  0  0  0  3  0  0  0  0  0  0
   35.0260   29.2350   37.6950 C   0  0  0  0  0  3  0  0  0  0  0  0
   32.8500   28.6680   36.9280 C   0  0  0  0  0  0  0  0  0  0  0  0
   31.7960   29.5860   36.8230 C   0  0  0  0  0  0  0  0  0  0  0  0
   30.8740   29.4400   35.7740 C   0  0  0  0  0  0  0  0  0  0  0  0
   31.0410   28.4150   34.9050 N   0  0  0  0  0  0  0  0  0  0  0  0
   32.0730   27.5390   35.0310 C   0  0  0  0  0  0  0  0  0  0  0  0
   32.9380   27.6880   36.0270 N   0  0  0  0  0  0  0  0  0  0  0  0
   31.6280   30.4140   37.4970 H   0  0  0  0  0  0  0  0  0  0  0  0
   30.0420   30.1140   35.6400 H   0  0  0  0  0  0  0  0  0  0  0  0
   32.0860   26.7720   34.2720 H   0  0  0  0  0  0  0  0  0  0  0  0
   37.4750   32.5540   40.2760 O   0  0  0  0  0  0  0  0  0  0  0  0
   36.9490   31.1320   40.3390 P   0  0  1  0  0  0  0  0  0  0  0  0
   35.5630   31.0860   41.3090 O   0  0  0  0  0  0  0  0  0  0  0  0
   35.5600   30.2970   41.9120 H   0  0  0  0  0  0  0  0  0  0  0  0
   38.0850   30.1320   41.0100 O   0  0  0  0  0  0  0  0  0  0  0  0
   37.1850   28.1250   42.0080 C   0  0  1  0  0  3  0  0  0  0  0  0
   37.7990   29.4910   42.1590 C   0  0  1  0  0  3  0  0  0  0  0  0
   38.9010   29.2800   43.1340 C   0  0  0  0  0  3  0  0  0  0  0  0
   38.6760   29.6390   44.1670 H   0  0  0  0  0  0  0  0  0  0  0  0
   39.1230   27.9190   43.2700 O   0  0  0  0  0  0  0  0  0  0  0  0
   38.3180   27.2290   42.4000 C   0  0  0  0  0  3  0  0  0  0  0  0
   38.8610   26.7770   41.5290 H   0  0  0  0  0  0  0  0  0  0  0  0
   36.1720   27.9130   42.9660 O   0  0  0  0  0  0  0  0  0  0  0  0
   35.7320   27.0530   42.6740 H   0  0  0  0  0  0  0  0  0  0  0  0
  1 17  1  0  0  0  0
  2  1  1  0  0  0  0
  2  4  1  0  0  0  0
  3  2  1  0  0  0  0
  6  5  2  0  0  0  0
  6  2  1  0  0  0  0
  7  5  1  0  0  0  0
  8  7  1  0  0  0  0
  8 13  1  0  0  0  0
  9  8  2  0  0  0  0
 10 11  2  0  0  0  0
 10  9  1  0  0  0  0
 11 12  1  0  0  0  0
 12  7  2  0  0  0  0
 14  9  1  0  0  0  0
 15 11  1  0  0  0  0
 17 16  2  6  0  0  0
 17 20  1  0  0  0  0
 17 18  1  0  0  0  0
 18 19  1  0  0  0  0
 21 22  1  0  0  0  0
 21 26  1  0  0  0  0
 21 28  1  1  0  0  0
 22 20  1  6  0  0  0
 22 23  1  0  0  0  0
 23 25  1  0  0  0  0
 23 24  1  0  0  0  0
 26 25  1  0  0  0  0
 27 26  1  0  0  0  0
 29 28  1  0  0  0  0
M  END
>  <minimizedAffinity>
-4.67417049

$$$$

 OpenBabel03242512553D

 29 30  0  0  1  0  0  0  0  0999 V2000
   38.2250   31.0840   41.0550 O   0  0  0  0  0  0  0  0  0  0  0  0
   37.3530   30.1620   41.5980 C   0  0  0  0  0  0  0  0  0  0  0  0
   36.7480   30.6200   42.4080 H   0  0  0  0  0  0  0  0  0  0  0  0
   36.6140   29.9000   40.8060 H   0  0  0  0  0  0  0  0  0  0  0  0
   37.4550   27.7270   41.9460 C   0  0  0  0  0  3  0  0  0  0  0  0
   38.0350   28.9130   41.9650 C   0  0  0  0  0  3  0  0  0  0  0  0
   38.2380   26.5810   42.3720 C   0  0  0  0  0  0  0  0  0  0  0  0
   39.3050   26.7720   43.2620 C   0  0  0  0  0  0  0  0  0  0  0  0
   40.0500   25.6540   43.6730 C   0  0  0  0  0  0  0  0  0  0  0  0
   39.7080   24.4370   43.1910 N   0  0  0  0  0  0  0  0  0  0  0  0
   38.6700   24.2810   42.3280 C   0  0  0  0  0  0  0  0  0  0  0  0
   37.9720   25.3440   41.9480 N   0  0  0  0  0  0  0  0  0  0  0  0
   39.6090   27.7260   43.6660 H   0  0  0  0  0  0  0  0  0  0  0  0
   40.8820   25.7370   44.3550 H   0  0  0  0  0  0  0  0  0  0  0  0
   38.5070   23.2580   42.0240 H   0  0  0  0  0  0  0  0  0  0  0  0
   36.5200   30.8790   39.1370 O   0  0  0  0  0  0  0  0  0  0  0  0
   37.5700   31.8310   39.6820 P   0  0  1  0  0  0  0  0  0  0  0  0
   36.8350   33.2900   40.1200 O   0  0  0  0  0  0  0  0  0  0  0  0
   37.3760   34.0750   39.8410 H   0  0  0  0  0  0  0  0  0  0  0  0
   38.7080   32.1510   38.5230 O   0  0  0  0  0  0  0  0  0  0  0  0
   40.9060   31.3470   37.9290 C   0  0  1  0  0  3  0  0  0  0  0  0
   40.0120   32.1240   38.8570 C   0  0  1  0  0  3  0  0  0  0  0  0
   40.7170   33.4220   39.0270 C   0  0  0  0  0  3  0  0  0  0  0  0
   41.2520   33.5300   40.0010 H   0  0  0  0  0  0  0  0  0  0  0  0
   41.7050   33.5230   38.0620 O   0  0  0  0  0  0  0  0  0  0  0  0
   41.6470   32.4400   37.2230 C   0  0  0  0  0  3  0  0  0  0  0  0
   41.2500   32.6700   36.1990 H   0  0  0  0  0  0  0  0  0  0  0  0
   41.8780   30.6200   38.6480 O   0  0  0  0  0  0  0  0  0  0  0  0
   42.3050   30.0260   37.9530 H   0  0  0  0  0  0  0  0  0  0  0  0
  1  2  1  0  0  0  0
  2  6  1  0  0  0  0
  2  3  1  0  0  0  0
  4  2  1  0  0  0  0
  5  6  2  0  0  0  0
  5  7  1  0  0  0  0
  7  8  1  0  0  0  0
  8 13  1  0  0  0  0
  8  9  2  0  0  0  0
  9 14  1  0  0  0  0
 10  9  1  0  0  0  0
 11 10  2  0  0  0  0
 12 11  1  0  0  0  0
 12  7  2  0  0  0  0
 15 11  1  0  0  0  0
 17 16  2  6  0  0  0
 17 18  1  0  0  0  0
 17  1  1  0  0  0  0
 19 18  1  0  0  0  0
 20 17  1  0  0  0  0
 21 28  1  1  0  0  0
 21 22  1  0  0  0  0
 22 20  1  6  0  0  0
 22 23  1  0  0  0  0
 23 24  1  0  0  0  0
 25 23  1  0  0  0  0
 26 21  1  0  0  0  0
 26 25  1  0  0  0  0
 27 26  1  0  0  0  0
 29 28  1  0  0  0  0
M  END
>  <minimizedAffinity>
-4.60011435

$$$$

 OpenBabel03242512553D

 29 30  0  0  1  0  0  0  0  0999 V2000
   38.8250   27.4770   42.3380 O   0  0  0  0  0  0  0  0  0  0  0  0
   38.9420   28.4940   43.2640 C   0  0  0  0  0  0  0  0  0  0  0  0
   38.0960   28.4730   43.9820 H   0  0  0  0  0  0  0  0  0  0  0  0
   39.8430   28.2750   43.8820 H   0  0  0  0  0  0  0  0  0  0  0  0
   39.9780   29.9660   41.5850 C   0  0  0  0  0  3  0  0  0  0  0  0
   39.1800   29.7950   42.6230 C   0  0  0  0  0  3  0  0  0  0  0  0
   40.1500   31.3160   41.0770 C   0  0  0  0  0  0  0  0  0  0  0  0
   39.0830   32.2210   41.1600 C   0  0  0  0  0  0  0  0  0  0  0  0
   39.2640   33.5260   40.6720 C   0  0  0  0  0  0  0  0  0  0  0  0
   40.4640   33.8560   40.1400 N   0  0  0  0  0  0  0  0  0  0  0  0
   41.4810   32.9580   40.0720 C   0  0  0  0  0  0  0  0  0  0  0  0
   41.2980   31.7280   40.5360 N   0  0  0  0  0  0  0  0  0  0  0  0
   38.1110   31.9950   41.5750 H   0  0  0  0  0  0  0  0  0  0  0  0
   38.4810   34.2670   40.7080 H   0  0  0  0  0  0  0  0  0  0  0  0
   42.3810   33.3530   39.6250 H   0  0  0  0  0  0  0  0  0  0  0  0
   37.0890   25.5800   42.2080 O   0  0  0  0  0  0  0  0  0  0  0  0
   37.2030   27.0850   42.0420 P   0  0  1  0  0  0  0  0  0  0  0  0
   36.2120   27.8540   43.1770 O   0  0  0  0  0  0  0  0  0  0  0  0
   35.7200   28.6200   42.7800 H   0  0  0  0  0  0  0  0  0  0  0  0
   36.7020   27.5320   40.5290 O   0  0  0  0  0  0  0  0  0  0  0  0
   36.3970   29.9280   40.5240 C   0  0  1  0  0  3  0  0  0  0  0  0
   35.8210   28.5430   40.4010 C   0  0  1  0  0  3  0  0  0  0  0  0
   35.0060   28.6060   39.1590 C   0  0  0  0  0  3  0  0  0  0  0  0
   33.9050   28.6800   39.3360 H   0  0  0  0  0  0  0  0  0  0  0  0
   35.3350   29.7590   38.4660 O   0  0  0  0  0  0  0  0  0  0  0  0
   36.3590   30.4090   39.1070 C   0  0  0  0  0  3  0  0  0  0  0  0
   37.3470   30.3460   38.5790 H   0  0  0  0  0  0  0  0  0  0  0  0
   35.5320   30.7770   41.2460 O   0  0  0  0  0  0  0  0  0  0  0  0
   36.0790   31.6110   41.4030 H   0  0  0  0  0  0  0  0  0  0  0  0
  1  2  1  0  0  0  0
  2  4  1  0  0  0  0
  2  3  1  0  0  0  0
  5  6  2  0  0  0  0
  6  2  1  0  0  0  0
  7  8  1  0  0  0  0
  7  5  1  0  0  0  0
  8 13  1  0  0  0  0
  9 14  1  0  0  0  0
  9  8  2  0  0  0  0
 10  9  1  0  0  0  0
 11 10  2  0  0  0  0
 11 12  1  0  0  0  0
 12  7  2  0  0  0  0
 15 11  1  0  0  0  0
 17 16  2  1  0  0  0
 17  1  1  0  0  0  0
 17 18  1  0  0  0  0
 19 18  1  0  0  0  0
 20 17  1  0  0  0  0
 21 28  1  1  0  0  0
 22 21  1  0  0  0  0
 22 20  1  6  0  0  0
 23 24  1  0  0  0  0
 23 22  1  0  0  0  0
 25 26  1  0  0  0  0
 25 23  1  0  0  0  0
 26 21  1  0  0  0  0
 27 26  1  0  0  0  0
 28 29  1  0  0  0  0
M  END
>  <minimizedAffinity>
-4.57349825

$$$$

 OpenBabel03242512553D

 29 30  0  0  1  0  0  0  0  0999 V2000
   35.9420   29.7970   39.0420 O   0  0  0  0  0  0  0  0  0  0  0  0
   36.7830   28.9380   38.3640 C   0  0  0  0  0  0  0  0  0  0  0  0
   36.5300   28.9080   37.2840 H   0  0  0  0  0  0  0  0  0  0  0  0
   37.8060   29.3770   38.4030 H   0  0  0  0  0  0  0  0  0  0  0  0
   38.0000   26.9820   39.2320 C   0  0  0  0  0  3  0  0  0  0  0  0
   36.8670   27.6240   39.0180 C   0  0  0  0  0  3  0  0  0  0  0  0
   37.9310   25.6710   39.8530 C   0  0  0  0  0  0  0  0  0  0  0  0
   36.9690   25.4330   40.8450 C   0  0  0  0  0  0  0  0  0  0  0  0
   36.9070   24.1590   41.4340 C   0  0  0  0  0  0  0  0  0  0  0  0
   37.7810   23.2120   41.0190 N   0  0  0  0  0  0  0  0  0  0  0  0
   38.7040   23.4710   40.0560 C   0  0  0  0  0  0  0  0  0  0  0  0
   38.7530   24.6780   39.5060 N   0  0  0  0  0  0  0  0  0  0  0  0
   36.2570   26.1620   41.2040 H   0  0  0  0  0  0  0  0  0  0  0  0
   36.1900   23.9140   42.2010 H   0  0  0  0  0  0  0  0  0  0  0  0
   39.3360   22.6280   39.8210 H   0  0  0  0  0  0  0  0  0  0  0  0
   37.0800   32.1030   38.9120 O   0  0  0  0  0  0  0  0  0  0  0  0
   36.8090   30.9780   39.8940 P   0  0  1  0  0  0  0  0  0  0  0  0
   35.8720   31.5620   41.1760 O   0  0  0  0  0  0  0  0  0  0  0  0
   36.1880   31.2180   42.0520 H   0  0  0  0  0  0  0  0  0  0  0  0
   38.2330   30.4050   40.5130 O   0  0  0  0  0  0  0  0  0  0  0  0
   37.7120   28.9700   42.3840 C   0  0  1  0  0  3  0  0  0  0  0  0
   38.3460   30.2220   41.8420 C   0  0  1  0  0  3  0  0  0  0  0  0
   39.7100   30.2150   42.4340 C   0  0  0  0  0  3  0  0  0  0  0  0
   39.8450   30.9220   43.2870 H   0  0  0  0  0  0  0  0  0  0  0  0
   39.9600   28.9600   42.9660 O   0  0  0  0  0  0  0  0  0  0  0  0
   38.9080   28.1240   42.6940 C   0  0  0  0  0  3  0  0  0  0  0  0
   39.1260   27.3450   41.9170 H   0  0  0  0  0  0  0  0  0  0  0  0
   37.0770   29.2140   43.6200 O   0  0  0  0  0  0  0  0  0  0  0  0
   36.5620   28.3660   43.8040 H   0  0  0  0  0  0  0  0  0  0  0  0
  1 17  1  0  0  0  0
  2  4  1  0  0  0  0
  2  6  1  0  0  0  0
  2  1  1  0  0  0  0
  3  2  1  0  0  0  0
  5  7  1  0  0  0  0
  6  5  2  0  0  0  0
  7  8  1  0  0  0  0
  8 13  1  0  0  0  0
  8  9  2  0  0  0  0
  9 14  1  0  0  0  0
 10  9  1  0  0  0  0
 11 10  2  0  0  0  0
 12  7  2  0  0  0  0
 12 11  1  0  0  0  0
 15 11  1  0  0  0  0
 17 16  2  6  0  0  0
 17 20  1  0  0  0  0
 17 18  1  0  0  0  0
 18 19  1  0  0  0  0
 21 26  1  0  0  0  0
 21 28  1  1  0  0  0
 22 20  1  6  0  0  0
 22 21  1  0  0  0  0
 22 23  1  0  0  0  0
 23 25  1  0  0  0  0
 23 24  1  0  0  0  0
 26 25  1  0  0  0  0
 27 26  1  0  0  0  0
 28 29  1  0  0  0  0
M  END
>  <minimizedAffinity>
-4.54000044

$$$$

 OpenBabel03242512553D

 29 30  0  0  1  0  0  0  0  0999 V2000
   38.4470   31.1900   39.0680 O   0  0  0  0  0  0  0  0  0  0  0  0
   37.5330   31.3330   38.0440 C   0  0  0  0  0  0  0  0  0  0  0  0
   36.8420   32.1780   38.2470 H   0  0  0  0  0  0  0  0  0  0  0  0
   38.0990   31.6430   37.1360 H   0  0  0  0  0  0  0  0  0  0  0  0
   35.7200   29.6780   38.2250 C   0  0  0  0  0  3  0  0  0  0  0  0
   36.8760   30.0610   37.7140 C   0  0  0  0  0  3  0  0  0  0  0  0
   35.2060   28.3750   37.8390 C   0  0  0  0  0  0  0  0  0  0  0  0
   33.9870   28.2960   37.1510 C   0  0  0  0  0  0  0  0  0  0  0  0
   33.5040   27.0310   36.7770 C   0  0  0  0  0  0  0  0  0  0  0  0
   34.2350   25.9390   37.0980 N   0  0  0  0  0  0  0  0  0  0  0  0
   35.4130   26.0450   37.7670 C   0  0  0  0  0  0  0  0  0  0  0  0
   35.8600   27.2460   38.1150 N   0  0  0  0  0  0  0  0  0  0  0  0
   33.3750   29.1430   36.8780 H   0  0  0  0  0  0  0  0  0  0  0  0
   32.5730   26.9050   36.2450 H   0  0  0  0  0  0  0  0  0  0  0  0
   35.8920   25.0960   37.9580 H   0  0  0  0  0  0  0  0  0  0  0  0
   39.0770   32.3160   41.2960 O   0  0  0  0  0  0  0  0  0  0  0  0
   37.8630   31.8340   40.5230 P   0  0  1  0  0  0  0  0  0  0  0  0
   36.8430   33.1450   40.1990 O   0  0  0  0  0  0  0  0  0  0  0  0
   35.8880   32.9140   40.3410 H   0  0  0  0  0  0  0  0  0  0  0  0
   37.0170   30.7290   41.4190 O   0  0  0  0  0  0  0  0  0  0  0  0
   38.3140   29.2930   42.8650 C   0  0  1  0  0  3  0  0  0  0  0  0
   37.5290   29.4970   41.5960 C   0  0  1  0  0  3  0  0  0  0  0  0
   36.5960   28.3400   41.5660 C   0  0  0  0  0  3  0  0  0  0  0  0
   36.8890   27.5310   40.8540 H   0  0  0  0  0  0  0  0  0  0  0  0
   36.5920   27.7360   42.8120 O   0  0  0  0  0  0  0  0  0  0  0  0
   37.3780   28.4530   43.6770 C   0  0  0  0  0  3  0  0  0  0  0  0
   36.8060   29.0290   44.4510 H   0  0  0  0  0  0  0  0  0  0  0  0
   39.4550   28.4960   42.6360 O   0  0  0  0  0  0  0  0  0  0  0  0
   39.9770   28.5610   43.4970 H   0  0  0  0  0  0  0  0  0  0  0  0
  1 17  1  0  0  0  0
  2  3  1  0  0  0  0
  2  1  1  0  0  0  0
  4  2  1  0  0  0  0
  6  2  1  0  0  0  0
  6  5  2  0  0  0  0
  7 12  1  0  0  0  0
  7  5  1  0  0  0  0
  8  7  2  0  0  0  0
  9 10  2  0  0  0  0
  9  8  1  0  0  0  0
 10 11  1  0  0  0  0
 11 15  1  0  0  0  0
 11 12  2  0  0  0  0
 13  8  1  0  0  0  0
 14  9  1  0  0  0  0
 17 16  2  1  0  0  0
 17 20  1  0  0  0  0
 18 19  1  0  0  0  0
 18 17  1  0  0  0  0
 21 28  1  6  0  0  0
 21 26  1  0  0  0  0
 22 20  1  1  0  0  0
 22 21  1  0  0  0  0
 23 22  1  0  0  0  0
 23 25  1  0  0  0  0
 24 23  1  0  0  0  0
 25 26  1  0  0  0  0
 26 27  1  0  0  0  0
 28 29  1  0  0  0  0
M  END
>  <minimizedAffinity>
-4.49974585

$$$$
