
 OpenBabel03242521573D

 48 52  0  0  1  0  0  0  0  0999 V2000
   36.6220   26.8610   39.8850 C   0  0  0  0  0  0  0  0  0  0  0  0
   36.7160   25.4780   39.7390 C   0  0  0  0  0  0  0  0  0  0  0  0
   37.0090   24.6160   40.8010 C   0  0  0  0  0  0  0  0  0  0  0  0
   37.2180   25.1100   42.0580 C   0  0  0  0  0  0  0  0  0  0  0  0
   37.1370   26.5100   42.2370 C   0  0  0  0  0  0  0  0  0  0  0  0
   37.4030   26.9620   43.4890 C   0  0  0  0  0  0  0  0  0  0  0  0
   37.4020   28.3460   43.6800 C   0  0  0  0  0  0  0  0  0  0  0  0
   37.1290   29.1970   42.5530 C   0  0  0  0  0  0  0  0  0  0  0  0
   36.8790   28.5800   41.3480 C   0  0  0  0  0  0  0  0  0  0  0  0
   36.8470   27.2780   41.1080 C   0  0  0  0  0  0  0  0  0  0  0  0
   36.5490   25.0660   38.7300 H   0  0  0  0  0  0  0  0  0  0  0  0
   37.0660   23.5570   40.6180 H   0  0  0  0  0  0  0  0  0  0  0  0
   37.4380   24.4600   42.8950 H   0  0  0  0  0  0  0  0  0  0  0  0
   37.6070   26.2760   44.2990 H   0  0  0  0  0  0  0  0  0  0  0  0
   37.6150   28.6340   44.6970 H   0  0  0  0  0  0  0  0  0  0  0  0
   37.1950   30.1810   42.9910 H   0  0  0  0  0  0  0  0  0  0  0  0
   38.4990   29.9310   40.3530 C   0  0  0  0  0  0  0  0  0  0  0  0
   37.0770   29.8070   40.6040 C   0  0  0  0  0  0  0  0  0  0  0  0
   36.4340   30.9020   40.2060 C   0  0  0  0  0  0  0  0  0  0  0  0
   37.0160   32.0180   39.6350 C   0  0  0  0  0  0  0  0  0  0  0  0
   38.3650   32.1110   39.4120 C   0  0  0  0  0  0  0  0  0  0  0  0
   39.1120   31.0280   39.7870 C   0  0  0  0  0  0  0  0  0  0  0  0
   35.3730   30.7170   40.4300 H   0  0  0  0  0  0  0  0  0  0  0  0
   36.2620   32.7770   39.4020 H   0  0  0  0  0  0  0  0  0  0  0  0
   38.6030   33.0460   38.9700 H   0  0  0  0  0  0  0  0  0  0  0  0
   39.4930   28.9570   40.6380 O   0  0  0  0  0  0  0  0  0  0  0  0
   39.8300   28.4640   39.8210 H   0  0  0  0  0  0  0  0  0  0  0  0
   40.4580   31.1860   39.5450 O   0  0  0  0  0  0  0  0  0  0  0  0
   41.4340   31.9410   37.4600 C   0  0  2  0  0  3  0  0  0  0  0  0
   41.1290   32.2100   38.9290 C   0  0  2  0  0  3  0  0  0  0  0  0
   42.5720   32.1550   39.4620 C   0  0  0  0  0  3  0  0  0  0  0  0
   42.8420   31.0700   39.5690 H   0  0  0  0  0  0  0  0  0  0  0  0
   43.3780   32.7080   38.5090 O   0  0  0  0  0  0  0  0  0  0  0  0
   42.7400   32.6420   37.2860 C   0  0  0  0  0  3  0  0  0  0  0  0
   42.5830   33.6850   36.9300 H   0  0  0  0  0  0  0  0  0  0  0  0
   40.5030   32.5580   36.6300 O   0  0  0  0  0  0  0  0  0  0  0  0
   39.6230   32.1260   36.8080 H   0  0  0  0  0  0  0  0  0  0  0  0
   34.6480   29.0270   37.5760 C   0  0  0  0  0  0  0  0  0  0  0  0
   35.6450   29.3340   36.6210 C   0  0  0  0  0  0  0  0  0  0  0  0
   36.8800   28.7640   36.8270 C   0  0  0  0  0  0  0  0  0  0  0  0
   36.9790   27.9940   37.9070 N   0  0  0  0  0  0  0  0  0  0  0  0
   36.0690   27.6860   38.8240 C   0  0  0  0  0  0  0  0  0  0  0  0
   34.9050   28.2270   38.6160 N   0  0  0  0  0  0  0  0  0  0  0  0
   33.6650   29.4450   37.4610 H   0  0  0  0  0  0  0  0  0  0  0  0
   35.4630   29.9750   35.7790 H   0  0  0  0  0  0  0  0  0  0  0  0
   37.9550   28.9330   35.9180 N   0  0  0  0  0  0  0  0  0  0  0  0
   37.6450   28.7890   34.9330 H   0  0  0  0  0  0  0  0  0  0  0  0
   38.9040   29.1680   36.2620 H   0  0  0  0  0  0  0  0  0  0  0  0
  1 10  1  0  0  0  0
  2  1  2  0  0  0  0
  2  3  1  0  0  0  0
  3  4  2  0  0  0  0
  4  5  1  0  0  0  0
  4 13  1  0  0  0  0
  5  6  1  0  0  0  0
  6  7  2  0  0  0  0
  6 14  1  0  0  0  0
  7 15  1  0  0  0  0
  8 16  1  0  0  0  0
  8  7  1  0  0  0  0
  9  8  2  0  0  0  0
 10  9  1  0  0  0  0
 10  5  2  0  0  0  0
 11  2  1  0  0  0  0
 12  3  1  0  0  0  0
 17 18  1  0  0  0  0
 17 26  1  0  0  0  0
 18  9  1  0  0  0  0
 19 23  1  0  0  0  0
 19 18  2  0  0  0  0
 20 19  1  0  0  0  0
 21 20  2  0  0  0  0
 21 22  1  0  0  0  0
 22 17  2  0  0  0  0
 24 20  1  0  0  0  0
 25 21  1  0  0  0  0
 27 26  1  0  0  0  0
 28 22  1  0  0  0  0
 29 36  1  6  0  0  0
 29 30  1  0  0  0  0
 30 31  1  0  0  0  0
 30 28  1  1  0  0  0
 31 32  1  0  0  0  0
 33 31  1  0  0  0  0
 34 29  1  0  0  0  0
 34 33  1  0  0  0  0
 35 34  1  0  0  0  0
 36 37  1  0  0  0  0
 38 43  1  0  0  0  0
 39 40  1  0  0  0  0
 39 38  2  0  0  0  0
 40 41  2  0  0  0  0
 41 42  1  0  0  0  0
 42  1  1  0  0  0  0
 43 42  2  0  0  0  0
 44 38  1  0  0  0  0
 45 39  1  0  0  0  0
 46 48  1  0  0  0  0
 46 40  1  0  0  0  0
 47 46  1  0  0  0  0
M  END
>  <minimizedAffinity>
-7.60911608

$$$$

 OpenBabel03242521573D

 48 52  0  0  1  0  0  0  0  0999 V2000
   36.8050   27.0980   39.7920 C   0  0  0  0  0  0  0  0  0  0  0  0
   36.9270   25.7220   39.6090 C   0  0  0  0  0  0  0  0  0  0  0  0
   37.1520   24.8290   40.6610 C   0  0  0  0  0  0  0  0  0  0  0  0
   37.2630   25.2840   41.9460 C   0  0  0  0  0  0  0  0  0  0  0  0
   37.1510   26.6760   42.1620 C   0  0  0  0  0  0  0  0  0  0  0  0
   37.3210   27.0900   43.4440 C   0  0  0  0  0  0  0  0  0  0  0  0
   37.2880   28.4670   43.6780 C   0  0  0  0  0  0  0  0  0  0  0  0
   37.0870   29.3520   42.5610 C   0  0  0  0  0  0  0  0  0  0  0  0
   36.9330   28.7710   41.3230 C   0  0  0  0  0  0  0  0  0  0  0  0
   36.9340   27.4780   41.0400 C   0  0  0  0  0  0  0  0  0  0  0  0
   36.8390   25.3410   38.5780 H   0  0  0  0  0  0  0  0  0  0  0  0
   37.2360   23.7770   40.4500 H   0  0  0  0  0  0  0  0  0  0  0  0
   37.4300   24.6100   42.7760 H   0  0  0  0  0  0  0  0  0  0  0  0
   37.4740   26.3800   44.2450 H   0  0  0  0  0  0  0  0  0  0  0  0
   37.4230   28.7250   44.7170 H   0  0  0  0  0  0  0  0  0  0  0  0
   37.1080   30.3220   43.0340 H   0  0  0  0  0  0  0  0  0  0  0  0
   38.6010   30.1480   40.4500 C   0  0  0  0  0  0  0  0  0  0  0  0
   37.1690   30.0240   40.6340 C   0  0  0  0  0  0  0  0  0  0  0  0
   36.5490   31.1370   40.2500 C   0  0  0  0  0  0  0  0  0  0  0  0
   37.1600   32.2700   39.7460 C   0  0  0  0  0  0  0  0  0  0  0  0
   38.5190   32.3630   39.5860 C   0  0  0  0  0  0  0  0  0  0  0  0
   39.2440   31.2620   39.9530 C   0  0  0  0  0  0  0  0  0  0  0  0
   35.4780   30.9510   40.4200 H   0  0  0  0  0  0  0  0  0  0  0  0
   36.4210   33.0420   39.5090 H   0  0  0  0  0  0  0  0  0  0  0  0
   38.7800   33.3120   39.1900 H   0  0  0  0  0  0  0  0  0  0  0  0
   39.5780   29.1580   40.7420 O   0  0  0  0  0  0  0  0  0  0  0  0
   39.9470   28.6940   39.9230 H   0  0  0  0  0  0  0  0  0  0  0  0
   40.6000   31.4200   39.7750 O   0  0  0  0  0  0  0  0  0  0  0  0
   41.3260   31.7920   37.4940 C   0  0  2  0  0  3  0  0  0  0  0  0
   41.2870   32.2640   38.9430 C   0  0  2  0  0  3  0  0  0  0  0  0
   42.7780   32.0670   39.2740 C   0  0  0  0  0  3  0  0  0  0  0  0
   42.9270   30.9740   39.4840 H   0  0  0  0  0  0  0  0  0  0  0  0
   43.4880   32.3920   38.1540 O   0  0  0  0  0  0  0  0  0  0  0  0
   42.6650   32.2790   37.0510 C   0  0  0  0  0  3  0  0  0  0  0  0
   42.5840   33.2880   36.5860 H   0  0  0  0  0  0  0  0  0  0  0  0
   40.3600   32.4370   36.7280 O   0  0  0  0  0  0  0  0  0  0  0  0
   39.4730   32.1560   37.0810 H   0  0  0  0  0  0  0  0  0  0  0  0
   36.2020   29.2240   36.7850 C   0  0  0  0  0  0  0  0  0  0  0  0
   34.7990   29.3780   36.8750 C   0  0  0  0  0  0  0  0  0  0  0  0
   34.1890   28.7760   37.9520 C   0  0  0  0  0  0  0  0  0  0  0  0
   35.0030   28.1200   38.7740 N   0  0  0  0  0  0  0  0  0  0  0  0
   36.3200   27.9520   38.7190 C   0  0  0  0  0  0  0  0  0  0  0  0
   36.8840   28.5280   37.7000 N   0  0  0  0  0  0  0  0  0  0  0  0
   36.7280   29.6750   35.9640 H   0  0  0  0  0  0  0  0  0  0  0  0
   34.2290   29.9290   36.1520 H   0  0  0  0  0  0  0  0  0  0  0  0
   32.7990   28.9010   38.2040 N   0  0  0  0  0  0  0  0  0  0  0  0
   32.4830   29.8900   38.1100 H   0  0  0  0  0  0  0  0  0  0  0  0
   32.2310   28.0680   38.4480 H   0  0  0  0  0  0  0  0  0  0  0  0
  1 10  1  0  0  0  0
  2  1  2  0  0  0  0
  2  3  1  0  0  0  0
  3  4  2  0  0  0  0
  4  5  1  0  0  0  0
  4 13  1  0  0  0  0
  5  6  1  0  0  0  0
  6  7  2  0  0  0  0
  6 14  1  0  0  0  0
  7 15  1  0  0  0  0
  8 16  1  0  0  0  0
  8  7  1  0  0  0  0
  9  8  2  0  0  0  0
 10  9  1  0  0  0  0
 10  5  2  0  0  0  0
 11  2  1  0  0  0  0
 12  3  1  0  0  0  0
 17 18  1  0  0  0  0
 17 26  1  0  0  0  0
 18  9  1  0  0  0  0
 19 23  1  0  0  0  0
 19 18  2  0  0  0  0
 20 19  1  0  0  0  0
 21 20  2  0  0  0  0
 21 22  1  0  0  0  0
 22 17  2  0  0  0  0
 24 20  1  0  0  0  0
 25 21  1  0  0  0  0
 27 26  1  0  0  0  0
 28 22  1  0  0  0  0
 29 36  1  6  0  0  0
 29 30  1  0  0  0  0
 30 31  1  0  0  0  0
 30 28  1  1  0  0  0
 31 32  1  0  0  0  0
 33 31  1  0  0  0  0
 34 29  1  0  0  0  0
 34 33  1  0  0  0  0
 35 34  1  0  0  0  0
 36 37  1  0  0  0  0
 38 39  2  0  0  0  0
 38 43  1  0  0  0  0
 39 40  1  0  0  0  0
 40 46  1  0  0  0  0
 40 41  2  0  0  0  0
 42 41  1  0  0  0  0
 42  1  1  0  0  0  0
 43 42  2  0  0  0  0
 44 38  1  0  0  0  0
 45 39  1  0  0  0  0
 46 48  1  0  0  0  0
 47 46  1  0  0  0  0
M  END
>  <minimizedAffinity>
-7.47392797

$$$$

 OpenBabel03242521573D

 48 52  0  0  1  0  0  0  0  0999 V2000
   37.1150   26.2610   41.1450 C   0  0  0  0  0  0  0  0  0  0  0  0
   37.0270   24.9720   41.6680 C   0  0  0  0  0  0  0  0  0  0  0  0
   36.5100   23.8900   40.9500 C   0  0  0  0  0  0  0  0  0  0  0  0
   36.0580   24.0580   39.6710 C   0  0  0  0  0  0  0  0  0  0  0  0
   36.1260   25.3560   39.1150 C   0  0  0  0  0  0  0  0  0  0  0  0
   35.6190   25.4900   37.8630 C   0  0  0  0  0  0  0  0  0  0  0  0
   35.6060   26.7750   37.3150 C   0  0  0  0  0  0  0  0  0  0  0  0
   36.1180   27.8650   38.1020 C   0  0  0  0  0  0  0  0  0  0  0  0
   36.5960   27.5610   39.3560 C   0  0  0  0  0  0  0  0  0  0  0  0
   36.6540   26.3660   39.9220 C   0  0  0  0  0  0  0  0  0  0  0  0
   37.3890   24.8220   42.7000 H   0  0  0  0  0  0  0  0  0  0  0  0
   36.4720   22.9200   41.4150 H   0  0  0  0  0  0  0  0  0  0  0  0
   35.6610   23.2330   39.0940 H   0  0  0  0  0  0  0  0  0  0  0  0
   35.2420   24.6350   37.3190 H   0  0  0  0  0  0  0  0  0  0  0  0
   35.1960   26.8070   36.3180 H   0  0  0  0  0  0  0  0  0  0  0  0
   35.9820   28.7060   37.4390 H   0  0  0  0  0  0  0  0  0  0  0  0
   37.8900   29.4950   39.5040 C   0  0  0  0  0  0  0  0  0  0  0  0
   36.5760   28.9480   39.7720 C   0  0  0  0  0  0  0  0  0  0  0  0
   35.8270   29.8310   40.4300 C   0  0  0  0  0  0  0  0  0  0  0  0
   36.2240   31.0960   40.8190 C   0  0  0  0  0  0  0  0  0  0  0  0
   37.4760   31.5870   40.5560 C   0  0  0  0  0  0  0  0  0  0  0  0
   38.3200   30.7510   39.8780 C   0  0  0  0  0  0  0  0  0  0  0  0
   34.8570   29.3360   40.5840 H   0  0  0  0  0  0  0  0  0  0  0  0
   35.4170   31.6150   41.3450 H   0  0  0  0  0  0  0  0  0  0  0  0
   37.5750   32.5710   40.9410 H   0  0  0  0  0  0  0  0  0  0  0  0
   38.9500   28.8440   38.8150 O   0  0  0  0  0  0  0  0  0  0  0  0
   39.0920   29.1790   37.8710 H   0  0  0  0  0  0  0  0  0  0  0  0
   39.5630   31.2970   39.6520 O   0  0  0  0  0  0  0  0  0  0  0  0
   40.6620   32.2380   37.7080 C   0  0  2  0  0  3  0  0  0  0  0  0
   39.9110   32.4600   39.0150 C   0  0  2  0  0  3  0  0  0  0  0  0
   41.0720   33.0600   39.8300 C   0  0  0  0  0  3  0  0  0  0  0  0
   41.7090   32.2020   40.1760 H   0  0  0  0  0  0  0  0  0  0  0  0
   41.8100   33.8300   38.9780 O   0  0  0  0  0  0  0  0  0  0  0  0
   41.5840   33.4100   37.6820 C   0  0  0  0  0  3  0  0  0  0  0  0
   41.1270   34.2600   37.1270 H   0  0  0  0  0  0  0  0  0  0  0  0
   39.8080   32.3410   36.6130 O   0  0  0  0  0  0  0  0  0  0  0  0
   39.1550   31.5920   36.6820 H   0  0  0  0  0  0  0  0  0  0  0  0
   38.5190   28.9970   43.2570 C   0  0  0  0  0  0  0  0  0  0  0  0
   39.8800   28.9200   42.8800 C   0  0  0  0  0  0  0  0  0  0  0  0
   40.1950   27.9740   41.9310 C   0  0  0  0  0  0  0  0  0  0  0  0
   39.1720   27.2470   41.4910 N   0  0  0  0  0  0  0  0  0  0  0  0
   37.8870   27.2890   41.8230 C   0  0  0  0  0  0  0  0  0  0  0  0
   37.6010   28.1890   42.7170 N   0  0  0  0  0  0  0  0  0  0  0  0
   38.2190   29.7210   43.9930 H   0  0  0  0  0  0  0  0  0  0  0  0
   40.6350   29.5560   43.3010 H   0  0  0  0  0  0  0  0  0  0  0  0
   41.5060   27.8270   41.4130 N   0  0  0  0  0  0  0  0  0  0  0  0
   41.9200   28.7500   41.1610 H   0  0  0  0  0  0  0  0  0  0  0  0
   41.9350   26.8880   41.3230 H   0  0  0  0  0  0  0  0  0  0  0  0
  1  2  1  0  0  0  0
  1 42  1  0  0  0  0
  2 11  1  0  0  0  0
  3 12  1  0  0  0  0
  3  2  2  0  0  0  0
  4  3  1  0  0  0  0
  5  4  2  0  0  0  0
  5 10  1  0  0  0  0
  6  5  1  0  0  0  0
  7  6  2  0  0  0  0
  7  8  1  0  0  0  0
  8  9  2  0  0  0  0
  9 18  1  0  0  0  0
  9 10  1  0  0  0  0
 10  1  2  0  0  0  0
 13  4  1  0  0  0  0
 14  6  1  0  0  0  0
 15  7  1  0  0  0  0
 16  8  1  0  0  0  0
 17 18  2  0  0  0  0
 17 22  1  0  0  0  0
 18 19  1  0  0  0  0
 19 23  1  0  0  0  0
 19 20  2  0  0  0  0
 20 24  1  0  0  0  0
 21 20  1  0  0  0  0
 21 25  1  0  0  0  0
 22 21  2  0  0  0  0
 26 17  1  0  0  0  0
 27 26  1  0  0  0  0
 28 22  1  0  0  0  0
 29 36  1  6  0  0  0
 29 30  1  0  0  0  0
 30 28  1  1  0  0  0
 30 31  1  0  0  0  0
 31 32  1  0  0  0  0
 33 31  1  0  0  0  0
 34 29  1  0  0  0  0
 34 33  1  0  0  0  0
 35 34  1  0  0  0  0
 36 37  1  0  0  0  0
 38 44  1  0  0  0  0
 39 38  1  0  0  0  0
 39 45  1  0  0  0  0
 40 39  2  0  0  0  0
 41 42  2  0  0  0  0
 41 40  1  0  0  0  0
 42 43  1  0  0  0  0
 43 38  2  0  0  0  0
 46 40  1  0  0  0  0
 47 46  1  0  0  0  0
 48 46  1  0  0  0  0
M  END
>  <minimizedAffinity>
-7.40484238

$$$$

 OpenBabel03242521573D

 48 52  0  0  1  0  0  0  0  0999 V2000
   36.6150   27.0340   39.9040 C   0  0  0  0  0  0  0  0  0  0  0  0
   36.6720   25.6420   39.8620 C   0  0  0  0  0  0  0  0  0  0  0  0
   37.0210   24.8580   40.9660 C   0  0  0  0  0  0  0  0  0  0  0  0
   37.3270   25.4440   42.1630 C   0  0  0  0  0  0  0  0  0  0  0  0
   37.2850   26.8540   42.2360 C   0  0  0  0  0  0  0  0  0  0  0  0
   37.6460   27.3950   43.4260 C   0  0  0  0  0  0  0  0  0  0  0  0
   37.6840   28.7900   43.5070 C   0  0  0  0  0  0  0  0  0  0  0  0
   37.3500   29.5580   42.3370 C   0  0  0  0  0  0  0  0  0  0  0  0
   37.0060   28.8550   41.2040 C   0  0  0  0  0  0  0  0  0  0  0  0
   36.9320   27.5400   41.0710 C   0  0  0  0  0  0  0  0  0  0  0  0
   36.4280   25.1570   38.9010 H   0  0  0  0  0  0  0  0  0  0  0  0
   37.0460   23.7870   40.8640 H   0  0  0  0  0  0  0  0  0  0  0  0
   37.5920   24.8550   43.0320 H   0  0  0  0  0  0  0  0  0  0  0  0
   37.8930   26.7700   44.2730 H   0  0  0  0  0  0  0  0  0  0  0  0
   37.9730   29.1510   44.4810 H   0  0  0  0  0  0  0  0  0  0  0  0
   37.4650   30.5710   42.6900 H   0  0  0  0  0  0  0  0  0  0  0  0
   38.5520   30.0180   39.9020 C   0  0  0  0  0  0  0  0  0  0  0  0
   37.1750   30.0150   40.3540 C   0  0  0  0  0  0  0  0  0  0  0  0
   36.5540   31.1280   39.9690 C   0  0  0  0  0  0  0  0  0  0  0  0
   37.1190   32.1600   39.2450 C   0  0  0  0  0  0  0  0  0  0  0  0
   38.4270   32.1390   38.8340 C   0  0  0  0  0  0  0  0  0  0  0  0
   39.1490   31.0300   39.1810 C   0  0  0  0  0  0  0  0  0  0  0  0
   35.5250   31.0350   40.3490 H   0  0  0  0  0  0  0  0  0  0  0  0
   36.3910   32.9560   39.0630 H   0  0  0  0  0  0  0  0  0  0  0  0
   38.6590   33.0240   38.2980 H   0  0  0  0  0  0  0  0  0  0  0  0
   39.5120   28.9930   40.1190 O   0  0  0  0  0  0  0  0  0  0  0  0
   39.6980   28.4260   39.3020 H   0  0  0  0  0  0  0  0  0  0  0  0
   40.4540   31.0720   38.7460 O   0  0  0  0  0  0  0  0  0  0  0  0
   41.5090   29.5430   37.1910 C   0  0  2  0  0  3  0  0  0  0  0  0
   40.9660   30.9380   37.4820 C   0  0  2  0  0  3  0  0  0  0  0  0
   42.3080   31.6930   37.4840 C   0  0  0  0  0  3  0  0  0  0  0  0
   42.7850   31.5140   38.4850 H   0  0  0  0  0  0  0  0  0  0  0  0
   43.0950   31.1270   36.5230 O   0  0  0  0  0  0  0  0  0  0  0  0
   42.6480   29.8440   36.2750 C   0  0  0  0  0  3  0  0  0  0  0  0
   42.3220   29.8000   35.2120 H   0  0  0  0  0  0  0  0  0  0  0  0
   40.5830   28.7800   36.4860 O   0  0  0  0  0  0  0  0  0  0  0  0
   39.8000   28.6460   37.0850 H   0  0  0  0  0  0  0  0  0  0  0  0
   34.5270   29.0610   37.5690 C   0  0  0  0  0  0  0  0  0  0  0  0
   35.4610   29.2680   36.5270 C   0  0  0  0  0  0  0  0  0  0  0  0
   36.6960   28.6850   36.6930 C   0  0  0  0  0  0  0  0  0  0  0  0
   36.8550   28.0000   37.8220 N   0  0  0  0  0  0  0  0  0  0  0  0
   36.0050   27.7870   38.8200 C   0  0  0  0  0  0  0  0  0  0  0  0
   34.8410   28.3400   38.6500 N   0  0  0  0  0  0  0  0  0  0  0  0
   33.5460   29.4930   37.4880 H   0  0  0  0  0  0  0  0  0  0  0  0
   35.2330   29.8460   35.6510 H   0  0  0  0  0  0  0  0  0  0  0  0
   37.7080   28.7560   35.7020 N   0  0  0  0  0  0  0  0  0  0  0  0
   37.3270   28.5440   34.7550 H   0  0  0  0  0  0  0  0  0  0  0  0
   38.6830   28.9930   35.9610 H   0  0  0  0  0  0  0  0  0  0  0  0
  1 10  1  0  0  0  0
  2  1  2  0  0  0  0
  2  3  1  0  0  0  0
  3  4  2  0  0  0  0
  4  5  1  0  0  0  0
  4 13  1  0  0  0  0
  5  6  1  0  0  0  0
  6  7  2  0  0  0  0
  6 14  1  0  0  0  0
  7 15  1  0  0  0  0
  8 16  1  0  0  0  0
  8  7  1  0  0  0  0
  9  8  2  0  0  0  0
 10  9  1  0  0  0  0
 10  5  2  0  0  0  0
 11  2  1  0  0  0  0
 12  3  1  0  0  0  0
 17 26  1  0  0  0  0
 17 18  1  0  0  0  0
 18  9  1  0  0  0  0
 19 23  1  0  0  0  0
 19 18  2  0  0  0  0
 20 19  1  0  0  0  0
 21 22  1  0  0  0  0
 21 20  2  0  0  0  0
 22 17  2  0  0  0  0
 24 20  1  0  0  0  0
 25 21  1  0  0  0  0
 27 26  1  0  0  0  0
 28 22  1  0  0  0  0
 29 36  1  6  0  0  0
 29 30  1  0  0  0  0
 30 31  1  0  0  0  0
 30 28  1  1  0  0  0
 31 32  1  0  0  0  0
 33 31  1  0  0  0  0
 34 33  1  0  0  0  0
 34 29  1  0  0  0  0
 35 34  1  0  0  0  0
 36 37  1  0  0  0  0
 38 43  1  0  0  0  0
 39 40  1  0  0  0  0
 39 38  2  0  0  0  0
 40 41  2  0  0  0  0
 41 42  1  0  0  0  0
 42  1  1  0  0  0  0
 43 42  2  0  0  0  0
 44 38  1  0  0  0  0
 45 39  1  0  0  0  0
 46 48  1  0  0  0  0
 46 40  1  0  0  0  0
 47 46  1  0  0  0  0
M  END
>  <minimizedAffinity>
-7.39226675

$$$$

 OpenBabel03242521573D

 48 52  0  0  1  0  0  0  0  0999 V2000
   37.7670   31.6440   40.4810 C   0  0  0  0  0  0  0  0  0  0  0  0
   37.5730   32.9240   39.9670 C   0  0  0  0  0  0  0  0  0  0  0  0
   38.5640   33.9110   39.9800 C   0  0  0  0  0  0  0  0  0  0  0  0
   39.7960   33.6500   40.5110 C   0  0  0  0  0  0  0  0  0  0  0  0
   40.0220   32.3620   41.0470 C   0  0  0  0  0  0  0  0  0  0  0  0
   41.2390   32.1620   41.6120 C   0  0  0  0  0  0  0  0  0  0  0  0
   41.4660   30.9220   42.2150 C   0  0  0  0  0  0  0  0  0  0  0  0
   40.4080   29.9480   42.2080 C   0  0  0  0  0  0  0  0  0  0  0  0
   39.2300   30.3090   41.5940 C   0  0  0  0  0  0  0  0  0  0  0  0
   38.9610   31.4550   40.9900 C   0  0  0  0  0  0  0  0  0  0  0  0
   36.5830   33.1480   39.5340 H   0  0  0  0  0  0  0  0  0  0  0  0
   38.3460   34.8800   39.5660 H   0  0  0  0  0  0  0  0  0  0  0  0
   40.5790   34.3970   40.5250 H   0  0  0  0  0  0  0  0  0  0  0  0
   41.9970   32.9330   41.5930 H   0  0  0  0  0  0  0  0  0  0  0  0
   42.4550   30.8300   42.6380 H   0  0  0  0  0  0  0  0  0  0  0  0
   40.8600   29.1180   42.7290 H   0  0  0  0  0  0  0  0  0  0  0  0
   38.5430   28.1010   41.2910 C   0  0  0  0  0  0  0  0  0  0  0  0
   38.5000   29.2200   42.2100 C   0  0  0  0  0  0  0  0  0  0  0  0
   37.7020   28.9480   43.2400 C   0  0  0  0  0  0  0  0  0  0  0  0
   36.9980   27.7740   43.4300 C   0  0  0  0  0  0  0  0  0  0  0  0
   37.0540   26.7310   42.5420 C   0  0  0  0  0  0  0  0  0  0  0  0
   37.8540   26.9170   41.4470 C   0  0  0  0  0  0  0  0  0  0  0  0
   37.7340   29.8430   43.8800 H   0  0  0  0  0  0  0  0  0  0  0  0
   36.4180   27.8100   44.3570 H   0  0  0  0  0  0  0  0  0  0  0  0
   36.4420   25.9310   42.8730 H   0  0  0  0  0  0  0  0  0  0  0  0
   39.2950   28.0270   40.0860 O   0  0  0  0  0  0  0  0  0  0  0  0
   40.1210   27.4480   40.1540 H   0  0  0  0  0  0  0  0  0  0  0  0
   37.8620   25.8390   40.5900 O   0  0  0  0  0  0  0  0  0  0  0  0
   37.7520   23.4540   40.1820 C   0  0  2  0  0  3  0  0  0  0  0  0
   37.0330   24.7500   40.5370 C   0  0  2  0  0  3  0  0  0  0  0  0
   36.2140   24.9020   39.2420 C   0  0  0  0  0  3  0  0  0  0  0  0
   36.9020   25.3300   38.4650 H   0  0  0  0  0  0  0  0  0  0  0  0
   35.8420   23.6490   38.8470 O   0  0  0  0  0  0  0  0  0  0  0  0
   36.7070   22.7270   39.4040 C   0  0  0  0  0  3  0  0  0  0  0  0
   36.1100   22.0640   40.0700 H   0  0  0  0  0  0  0  0  0  0  0  0
   38.0350   22.7060   41.3210 O   0  0  0  0  0  0  0  0  0  0  0  0
   38.6810   23.2350   41.8640 H   0  0  0  0  0  0  0  0  0  0  0  0
   34.9670   29.1820   40.3470 C   0  0  0  0  0  0  0  0  0  0  0  0
   35.2560   28.5540   39.1130 C   0  0  0  0  0  0  0  0  0  0  0  0
   36.3800   28.9970   38.4540 C   0  0  0  0  0  0  0  0  0  0  0  0
   37.0520   29.9680   39.0640 N   0  0  0  0  0  0  0  0  0  0  0  0
   36.8100   30.5820   40.2170 C   0  0  0  0  0  0  0  0  0  0  0  0
   35.7480   30.1520   40.8320 N   0  0  0  0  0  0  0  0  0  0  0  0
   34.1010   28.8730   40.9030 H   0  0  0  0  0  0  0  0  0  0  0  0
   34.6420   27.7750   38.7020 H   0  0  0  0  0  0  0  0  0  0  0  0
   36.8260   28.4150   37.2400 N   0  0  0  0  0  0  0  0  0  0  0  0
   36.8190   27.3740   37.2930 H   0  0  0  0  0  0  0  0  0  0  0  0
   37.1090   29.0130   36.4420 H   0  0  0  0  0  0  0  0  0  0  0  0
  1 10  1  0  0  0  0
  2  3  1  0  0  0  0
  2  1  2  0  0  0  0
  3  4  2  0  0  0  0
  4 13  1  0  0  0  0
  4  5  1  0  0  0  0
  5  6  1  0  0  0  0
  6  7  2  0  0  0  0
  7 15  1  0  0  0  0
  8  7  1  0  0  0  0
  8 16  1  0  0  0  0
  9  8  2  0  0  0  0
  9 18  1  0  0  0  0
 10  5  2  0  0  0  0
 10  9  1  0  0  0  0
 11  2  1  0  0  0  0
 12  3  1  0  0  0  0
 14  6  1  0  0  0  0
 17 22  2  0  0  0  0
 17 18  1  0  0  0  0
 18 19  2  0  0  0  0
 19 20  1  0  0  0  0
 19 23  1  0  0  0  0
 20 24  1  0  0  0  0
 21 25  1  0  0  0  0
 21 20  2  0  0  0  0
 22 21  1  0  0  0  0
 26 27  1  0  0  0  0
 26 17  1  0  0  0  0
 28 22  1  0  0  0  0
 29 30  1  0  0  0  0
 29 36  1  1  0  0  0
 30 28  1  6  0  0  0
 31 30  1  0  0  0  0
 32 31  1  0  0  0  0
 33 31  1  0  0  0  0
 33 34  1  0  0  0  0
 34 35  1  0  0  0  0
 34 29  1  0  0  0  0
 36 37  1  0  0  0  0
 38 43  1  0  0  0  0
 38 44  1  0  0  0  0
 39 38  2  0  0  0  0
 40 41  2  0  0  0  0
 40 39  1  0  0  0  0
 41 42  1  0  0  0  0
 42  1  1  0  0  0  0
 42 43  2  0  0  0  0
 45 39  1  0  0  0  0
 46 47  1  0  0  0  0
 46 40  1  0  0  0  0
 48 46  1  0  0  0  0
M  END
>  <minimizedAffinity>
-7.04332113

$$$$

 OpenBabel03242521573D

 48 52  0  0  1  0  0  0  0  0999 V2000
   37.2000   25.4960   39.5650 C   0  0  0  0  0  0  0  0  0  0  0  0
   37.7140   24.2080   39.7060 C   0  0  0  0  0  0  0  0  0  0  0  0
   37.9720   23.6210   40.9490 C   0  0  0  0  0  0  0  0  0  0  0  0
   37.7210   24.3060   42.1050 C   0  0  0  0  0  0  0  0  0  0  0  0
   37.2060   25.6170   41.9950 C   0  0  0  0  0  0  0  0  0  0  0  0
   37.0220   26.2800   43.1640 C   0  0  0  0  0  0  0  0  0  0  0  0
   36.5820   27.6040   43.0840 C   0  0  0  0  0  0  0  0  0  0  0  0
   36.3620   28.1790   41.7840 C   0  0  0  0  0  0  0  0  0  0  0  0
   36.5970   27.3720   40.6940 C   0  0  0  0  0  0  0  0  0  0  0  0
   36.9930   26.1090   40.7050 C   0  0  0  0  0  0  0  0  0  0  0  0
   37.9210   23.6440   38.7810 H   0  0  0  0  0  0  0  0  0  0  0  0
   38.3690   22.6210   40.9860 H   0  0  0  0  0  0  0  0  0  0  0  0
   37.9060   23.8670   43.0780 H   0  0  0  0  0  0  0  0  0  0  0  0
   37.2080   25.7990   44.1140 H   0  0  0  0  0  0  0  0  0  0  0  0
   36.4520   28.0680   44.0490 H   0  0  0  0  0  0  0  0  0  0  0  0
   36.0380   29.1790   42.0300 H   0  0  0  0  0  0  0  0  0  0  0  0
   37.9230   29.1100   39.8820 C   0  0  0  0  0  0  0  0  0  0  0  0
   36.6140   28.4970   39.7820 C   0  0  0  0  0  0  0  0  0  0  0  0
   35.8130   29.2280   39.0090 C   0  0  0  0  0  0  0  0  0  0  0  0
   36.1540   30.4110   38.3820 C   0  0  0  0  0  0  0  0  0  0  0  0
   37.4000   30.9720   38.4980 C   0  0  0  0  0  0  0  0  0  0  0  0
   38.2970   30.2890   39.2730 C   0  0  0  0  0  0  0  0  0  0  0  0
   34.8540   28.6890   38.9880 H   0  0  0  0  0  0  0  0  0  0  0  0
   35.3110   30.8080   37.8090 H   0  0  0  0  0  0  0  0  0  0  0  0
   37.4510   31.8750   37.9430 H   0  0  0  0  0  0  0  0  0  0  0  0
   39.0350   28.6100   40.6130 O   0  0  0  0  0  0  0  0  0  0  0  0
   39.7510   28.1910   40.0330 H   0  0  0  0  0  0  0  0  0  0  0  0
   39.5250   30.9050   39.3550 O   0  0  0  0  0  0  0  0  0  0  0  0
   40.6910   32.0990   37.5980 C   0  0  2  0  0  3  0  0  0  0  0  0
   39.9220   32.1410   38.9140 C   0  0  2  0  0  3  0  0  0  0  0  0
   41.0860   32.5650   39.8290 C   0  0  0  0  0  3  0  0  0  0  0  0
   41.6880   31.6430   40.0450 H   0  0  0  0  0  0  0  0  0  0  0  0
   41.8640   33.4330   39.1190 O   0  0  0  0  0  0  0  0  0  0  0  0
   41.6510   33.2290   37.7700 C   0  0  0  0  0  3  0  0  0  0  0  0
   41.2320   34.1700   37.3480 H   0  0  0  0  0  0  0  0  0  0  0  0
   39.8620   32.4010   36.5210 O   0  0  0  0  0  0  0  0  0  0  0  0
   39.1850   31.6740   36.4630 H   0  0  0  0  0  0  0  0  0  0  0  0
   36.6150   26.8050   36.1200 C   0  0  0  0  0  0  0  0  0  0  0  0
   35.2380   26.5140   35.9820 C   0  0  0  0  0  0  0  0  0  0  0  0
   34.6280   25.9290   37.0680 C   0  0  0  0  0  0  0  0  0  0  0  0
   35.4170   25.7080   38.1150 N   0  0  0  0  0  0  0  0  0  0  0  0
   36.7110   25.9650   38.2790 C   0  0  0  0  0  0  0  0  0  0  0  0
   37.2740   26.5210   37.2480 N   0  0  0  0  0  0  0  0  0  0  0  0
   37.1390   27.2640   35.3020 H   0  0  0  0  0  0  0  0  0  0  0  0
   34.6870   26.7300   35.0860 H   0  0  0  0  0  0  0  0  0  0  0  0
   33.2400   25.6400   37.0940 N   0  0  0  0  0  0  0  0  0  0  0  0
   32.6770   26.4470   36.7480 H   0  0  0  0  0  0  0  0  0  0  0  0
   32.8990   24.7200   37.4290 H   0  0  0  0  0  0  0  0  0  0  0  0
  1  2  2  0  0  0  0
  1 10  1  0  0  0  0
  2  3  1  0  0  0  0
  3 12  1  0  0  0  0
  3  4  2  0  0  0  0
  4 13  1  0  0  0  0
  5  4  1  0  0  0  0
  5  6  1  0  0  0  0
  6 14  1  0  0  0  0
  7  6  2  0  0  0  0
  7 15  1  0  0  0  0
  8 16  1  0  0  0  0
  8  7  1  0  0  0  0
  9 10  1  0  0  0  0
  9  8  2  0  0  0  0
 10  5  2  0  0  0  0
 11  2  1  0  0  0  0
 17 26  1  0  0  0  0
 18 17  1  0  0  0  0
 18  9  1  0  0  0  0
 19 18  2  0  0  0  0
 20 21  2  0  0  0  0
 20 19  1  0  0  0  0
 21 22  1  0  0  0  0
 22 28  1  0  0  0  0
 22 17  2  0  0  0  0
 23 19  1  0  0  0  0
 24 20  1  0  0  0  0
 25 21  1  0  0  0  0
 27 26  1  0  0  0  0
 29 36  1  6  0  0  0
 29 34  1  0  0  0  0
 29 30  1  0  0  0  0
 30 28  1  1  0  0  0
 30 31  1  0  0  0  0
 31 32  1  0  0  0  0
 33 31  1  0  0  0  0
 34 33  1  0  0  0  0
 35 34  1  0  0  0  0
 37 36  1  0  0  0  0
 38 43  1  0  0  0  0
 39 38  2  0  0  0  0
 39 40  1  0  0  0  0
 40 46  1  0  0  0  0
 40 41  2  0  0  0  0
 41 42  1  0  0  0  0
 42  1  1  0  0  0  0
 43 42  2  0  0  0  0
 44 38  1  0  0  0  0
 45 39  1  0  0  0  0
 46 48  1  0  0  0  0
 47 46  1  0  0  0  0
M  END
>  <minimizedAffinity>
-7.033957

$$$$

 OpenBabel03242521573D

 48 52  0  0  1  0  0  0  0  0999 V2000
   35.8680   28.8560   39.8750 C   0  0  0  0  0  0  0  0  0  0  0  0
   34.4890   29.0490   39.8390 C   0  0  0  0  0  0  0  0  0  0  0  0
   33.7570   29.1190   38.6490 C   0  0  0  0  0  0  0  0  0  0  0  0
   34.3860   28.9960   37.4410 C   0  0  0  0  0  0  0  0  0  0  0  0
   35.7860   28.8060   37.4440 C   0  0  0  0  0  0  0  0  0  0  0  0
   36.3760   28.7420   36.2230 C   0  0  0  0  0  0  0  0  0  0  0  0
   37.7680   28.6280   36.1940 C   0  0  0  0  0  0  0  0  0  0  0  0
   38.4840   28.5930   37.4420 C   0  0  0  0  0  0  0  0  0  0  0  0
   37.7350   28.6700   38.5950 C   0  0  0  0  0  0  0  0  0  0  0  0
   36.4180   28.7590   38.6880 C   0  0  0  0  0  0  0  0  0  0  0  0
   33.9690   29.1500   40.8070 H   0  0  0  0  0  0  0  0  0  0  0  0
   32.6930   29.2710   38.6940 H   0  0  0  0  0  0  0  0  0  0  0  0
   33.8380   29.0400   36.5080 H   0  0  0  0  0  0  0  0  0  0  0  0
   35.7890   28.7780   35.3160 H   0  0  0  0  0  0  0  0  0  0  0  0
   38.1690   28.5760   35.1940 H   0  0  0  0  0  0  0  0  0  0  0  0
   39.5080   28.5040   37.1140 H   0  0  0  0  0  0  0  0  0  0  0  0
   39.0470   30.4230   39.4000 C   0  0  0  0  0  0  0  0  0  0  0  0
   38.8950   28.9820   39.4040 C   0  0  0  0  0  0  0  0  0  0  0  0
   39.9260   28.4050   40.0180 C   0  0  0  0  0  0  0  0  0  0  0  0
   41.0050   29.0630   40.5770 C   0  0  0  0  0  0  0  0  0  0  0  0
   41.1260   30.4280   40.5550 C   0  0  0  0  0  0  0  0  0  0  0  0
   40.1090   31.1110   39.9460 C   0  0  0  0  0  0  0  0  0  0  0  0
   39.7250   27.3240   39.9770 H   0  0  0  0  0  0  0  0  0  0  0  0
   41.7120   28.3530   41.0170 H   0  0  0  0  0  0  0  0  0  0  0  0
   42.0240   30.7270   41.0330 H   0  0  0  0  0  0  0  0  0  0  0  0
   38.1390   31.3640   38.8430 O   0  0  0  0  0  0  0  0  0  0  0  0
   37.5850   31.8560   39.5320 H   0  0  0  0  0  0  0  0  0  0  0  0
   40.2910   32.4760   39.9490 O   0  0  0  0  0  0  0  0  0  0  0  0
   41.1840   32.5720   37.6990 C   0  0  2  0  0  3  0  0  0  0  0  0
   40.7230   33.3100   38.9510 C   0  0  2  0  0  3  0  0  0  0  0  0
   42.0960   33.8400   39.4040 C   0  0  0  0  0  3  0  0  0  0  0  0
   42.6210   32.9930   39.9230 H   0  0  0  0  0  0  0  0  0  0  0  0
   42.8000   34.1600   38.2790 O   0  0  0  0  0  0  0  0  0  0  0  0
   42.2810   33.4570   37.2090 C   0  0  0  0  0  3  0  0  0  0  0  0
   41.8920   34.1980   36.4750 H   0  0  0  0  0  0  0  0  0  0  0  0
   40.1850   32.5530   36.7300 O   0  0  0  0  0  0  0  0  0  0  0  0
   39.4310   32.0170   37.0990 H   0  0  0  0  0  0  0  0  0  0  0  0
   37.5300   28.7080   43.2120 C   0  0  0  0  0  0  0  0  0  0  0  0
   37.6330   27.3060   43.3690 C   0  0  0  0  0  0  0  0  0  0  0  0
   37.1590   26.5420   42.3280 C   0  0  0  0  0  0  0  0  0  0  0  0
   36.6580   27.2240   41.3020 N   0  0  0  0  0  0  0  0  0  0  0  0
   36.5430   28.5350   41.1220 C   0  0  0  0  0  0  0  0  0  0  0  0
   36.9980   29.2460   42.1100 N   0  0  0  0  0  0  0  0  0  0  0  0
   37.8870   29.3520   43.9950 H   0  0  0  0  0  0  0  0  0  0  0  0
   38.0530   26.8510   44.2460 H   0  0  0  0  0  0  0  0  0  0  0  0
   37.2550   25.1270   42.3210 N   0  0  0  0  0  0  0  0  0  0  0  0
   38.2060   24.8100   42.6050 H   0  0  0  0  0  0  0  0  0  0  0  0
   36.4390   24.5450   42.0540 H   0  0  0  0  0  0  0  0  0  0  0  0
  1 42  1  0  0  0  0
  2  1  1  0  0  0  0
  2 11  1  0  0  0  0
  3 12  1  0  0  0  0
  3  2  2  0  0  0  0
  4  5  2  0  0  0  0
  4  3  1  0  0  0  0
  5 10  1  0  0  0  0
  6  5  1  0  0  0  0
  7  6  2  0  0  0  0
  7  8  1  0  0  0  0
  8  9  2  0  0  0  0
  9 10  1  0  0  0  0
  9 18  1  0  0  0  0
 10  1  2  0  0  0  0
 13  4  1  0  0  0  0
 14  6  1  0  0  0  0
 15  7  1  0  0  0  0
 16  8  1  0  0  0  0
 17 18  2  0  0  0  0
 17 22  1  0  0  0  0
 18 19  1  0  0  0  0
 19 20  2  0  0  0  0
 20 24  1  0  0  0  0
 21 20  1  0  0  0  0
 21 25  1  0  0  0  0
 22 28  1  0  0  0  0
 22 21  2  0  0  0  0
 23 19  1  0  0  0  0
 26 17  1  0  0  0  0
 26 27  1  0  0  0  0
 29 36  1  6  0  0  0
 29 30  1  0  0  0  0
 30 31  1  0  0  0  0
 30 28  1  1  0  0  0
 31 32  1  0  0  0  0
 33 31  1  0  0  0  0
 34 29  1  0  0  0  0
 34 33  1  0  0  0  0
 35 34  1  0  0  0  0
 36 37  1  0  0  0  0
 38 39  1  0  0  0  0
 38 44  1  0  0  0  0
 39 45  1  0  0  0  0
 40 39  2  0  0  0  0
 41 40  1  0  0  0  0
 42 41  2  0  0  0  0
 42 43  1  0  0  0  0
 43 38  2  0  0  0  0
 46 40  1  0  0  0  0
 46 47  1  0  0  0  0
 48 46  1  0  0  0  0
M  END
>  <minimizedAffinity>
-6.94317627

$$$$

 OpenBabel03242521573D

 48 52  0  0  1  0  0  0  0  0999 V2000
   38.1780   25.3870   40.6100 C   0  0  0  0  0  0  0  0  0  0  0  0
   39.1490   24.4700   41.0100 C   0  0  0  0  0  0  0  0  0  0  0  0
   39.7800   24.5220   42.2570 C   0  0  0  0  0  0  0  0  0  0  0  0
   39.4590   25.5010   43.1570 C   0  0  0  0  0  0  0  0  0  0  0  0
   38.4840   26.4500   42.7770 C   0  0  0  0  0  0  0  0  0  0  0  0
   38.2340   27.4330   43.6770 C   0  0  0  0  0  0  0  0  0  0  0  0
   37.3270   28.4270   43.3000 C   0  0  0  0  0  0  0  0  0  0  0  0
   36.7260   28.3530   41.9960 C   0  0  0  0  0  0  0  0  0  0  0  0
   37.0870   27.2900   41.2000 C   0  0  0  0  0  0  0  0  0  0  0  0
   37.9220   26.3090   41.5060 C   0  0  0  0  0  0  0  0  0  0  0  0
   39.4170   23.6750   40.2940 H   0  0  0  0  0  0  0  0  0  0  0  0
   40.5220   23.7820   42.5020 H   0  0  0  0  0  0  0  0  0  0  0  0
   39.9300   25.5550   44.1300 H   0  0  0  0  0  0  0  0  0  0  0  0
   38.7190   27.4430   44.6440 H   0  0  0  0  0  0  0  0  0  0  0  0
   37.1720   29.1730   44.0650 H   0  0  0  0  0  0  0  0  0  0  0  0
   36.0920   29.2260   41.9880 H   0  0  0  0  0  0  0  0  0  0  0  0
   37.6110   28.7340   39.4450 C   0  0  0  0  0  0  0  0  0  0  0  0
   36.5550   27.9170   40.0080 C   0  0  0  0  0  0  0  0  0  0  0  0
   35.4140   28.1070   39.3480 C   0  0  0  0  0  0  0  0  0  0  0  0
   35.2330   28.9610   38.2770 C   0  0  0  0  0  0  0  0  0  0  0  0
   36.2490   29.7270   37.7670 C   0  0  0  0  0  0  0  0  0  0  0  0
   37.4650   29.5970   38.3800 C   0  0  0  0  0  0  0  0  0  0  0  0
   34.6790   27.4500   39.8370 H   0  0  0  0  0  0  0  0  0  0  0  0
   34.1980   28.9290   37.9210 H   0  0  0  0  0  0  0  0  0  0  0  0
   35.8990   30.3110   36.9530 H   0  0  0  0  0  0  0  0  0  0  0  0
   38.9610   28.7860   39.8840 O   0  0  0  0  0  0  0  0  0  0  0  0
   39.6080   28.2960   39.2800 H   0  0  0  0  0  0  0  0  0  0  0  0
   38.4410   30.3960   37.8280 O   0  0  0  0  0  0  0  0  0  0  0  0
   40.1630   32.0950   37.9660 C   0  0  2  0  0  3  0  0  0  0  0  0
   38.6820   31.7350   37.9940 C   0  0  2  0  0  3  0  0  0  0  0  0
   38.4170   32.0330   39.4820 C   0  0  0  0  0  3  0  0  0  0  0  0
   38.7890   31.1490   40.0660 H   0  0  0  0  0  0  0  0  0  0  0  0
   39.1700   33.1210   39.8180 O   0  0  0  0  0  0  0  0  0  0  0  0
   40.2190   33.2350   38.9260 C   0  0  0  0  0  3  0  0  0  0  0  0
   40.1030   34.2060   38.3930 H   0  0  0  0  0  0  0  0  0  0  0  0
   40.5420   32.5700   36.7140 O   0  0  0  0  0  0  0  0  0  0  0  0
   40.4340   31.8170   36.0720 H   0  0  0  0  0  0  0  0  0  0  0  0
   36.6340   25.0740   37.2280 C   0  0  0  0  0  0  0  0  0  0  0  0
   35.5370   24.2370   37.5390 C   0  0  0  0  0  0  0  0  0  0  0  0
   35.4030   23.8770   38.8610 C   0  0  0  0  0  0  0  0  0  0  0  0
   36.3300   24.3640   39.6810 N   0  0  0  0  0  0  0  0  0  0  0  0
   37.3720   25.1470   39.4240 C   0  0  0  0  0  0  0  0  0  0  0  0
   37.4850   25.4830   38.1730 N   0  0  0  0  0  0  0  0  0  0  0  0
   36.7840   25.3860   36.2100 H   0  0  0  0  0  0  0  0  0  0  0  0
   34.8410   23.8930   36.7970 H   0  0  0  0  0  0  0  0  0  0  0  0
   34.3160   23.0950   39.3280 N   0  0  0  0  0  0  0  0  0  0  0  0
   33.4090   23.4410   38.9480 H   0  0  0  0  0  0  0  0  0  0  0  0
   34.4790   22.2940   39.9660 H   0  0  0  0  0  0  0  0  0  0  0  0
  1  2  2  0  0  0  0
  1 10  1  0  0  0  0
  2  3  1  0  0  0  0
  3 12  1  0  0  0  0
  3  4  2  0  0  0  0
  4 13  1  0  0  0  0
  5  4  1  0  0  0  0
  5  6  1  0  0  0  0
  6 14  1  0  0  0  0
  7  6  2  0  0  0  0
  7 15  1  0  0  0  0
  8  7  1  0  0  0  0
  9 10  1  0  0  0  0
  9  8  2  0  0  0  0
 10  5  2  0  0  0  0
 11  2  1  0  0  0  0
 16  8  1  0  0  0  0
 17 26  1  0  0  0  0
 17 18  1  0  0  0  0
 18  9  1  0  0  0  0
 19 23  1  0  0  0  0
 19 18  2  0  0  0  0
 20 19  1  0  0  0  0
 21 20  2  0  0  0  0
 21 22  1  0  0  0  0
 22 17  2  0  0  0  0
 24 20  1  0  0  0  0
 25 21  1  0  0  0  0
 27 26  1  0  0  0  0
 28 22  1  0  0  0  0
 29 36  1  6  0  0  0
 29 30  1  0  0  0  0
 29 34  1  0  0  0  0
 30 28  1  1  0  0  0
 30 31  1  0  0  0  0
 31 33  1  0  0  0  0
 31 32  1  0  0  0  0
 34 33  1  0  0  0  0
 35 34  1  0  0  0  0
 37 36  1  0  0  0  0
 38 39  2  0  0  0  0
 38 43  1  0  0  0  0
 39 40  1  0  0  0  0
 40 46  1  0  0  0  0
 40 41  2  0  0  0  0
 42 41  1  0  0  0  0
 42  1  1  0  0  0  0
 43 42  2  0  0  0  0
 44 38  1  0  0  0  0
 45 39  1  0  0  0  0
 46 48  1  0  0  0  0
 47 46  1  0  0  0  0
M  END
>  <minimizedAffinity>
-6.9274559

$$$$

 OpenBabel03242521573D

 48 52  0  0  1  0  0  0  0  0999 V2000
   36.6430   25.7310   38.6910 C   0  0  0  0  0  0  0  0  0  0  0  0
   36.4170   24.5840   37.9330 C   0  0  0  0  0  0  0  0  0  0  0  0
   35.3900   24.4820   36.9890 C   0  0  0  0  0  0  0  0  0  0  0  0
   34.5460   25.5350   36.7660 C   0  0  0  0  0  0  0  0  0  0  0  0
   34.7450   26.7100   37.5250 C   0  0  0  0  0  0  0  0  0  0  0  0
   33.8530   27.7100   37.3110 C   0  0  0  0  0  0  0  0  0  0  0  0
   33.9800   28.8570   38.0990 C   0  0  0  0  0  0  0  0  0  0  0  0
   35.0300   28.9050   39.0810 C   0  0  0  0  0  0  0  0  0  0  0  0
   35.8510   27.8040   39.1750 C   0  0  0  0  0  0  0  0  0  0  0  0
   35.7950   26.7010   38.4460 C   0  0  0  0  0  0  0  0  0  0  0  0
   37.0910   23.7270   38.1020 H   0  0  0  0  0  0  0  0  0  0  0  0
   35.2710   23.5660   36.4370 H   0  0  0  0  0  0  0  0  0  0  0  0
   33.7500   25.4800   36.0350 H   0  0  0  0  0  0  0  0  0  0  0  0
   33.0800   27.6180   36.5610 H   0  0  0  0  0  0  0  0  0  0  0  0
   33.2440   29.6120   37.8720 H   0  0  0  0  0  0  0  0  0  0  0  0
   34.8840   29.8800   39.5210 H   0  0  0  0  0  0  0  0  0  0  0  0
   37.4010   29.2050   40.2120 C   0  0  0  0  0  0  0  0  0  0  0  0
   36.3690   28.2190   40.4620 C   0  0  0  0  0  0  0  0  0  0  0  0
   36.3240   27.9080   41.7560 C   0  0  0  0  0  0  0  0  0  0  0  0
   37.1370   28.4330   42.7430 C   0  0  0  0  0  0  0  0  0  0  0  0
   38.1080   29.3630   42.4770 C   0  0  0  0  0  0  0  0  0  0  0  0
   38.2300   29.7490   41.1700 C   0  0  0  0  0  0  0  0  0  0  0  0
   35.5180   27.1640   41.8510 H   0  0  0  0  0  0  0  0  0  0  0  0
   36.8910   28.0070   43.7200 H   0  0  0  0  0  0  0  0  0  0  0  0
   38.6170   29.6310   43.3690 H   0  0  0  0  0  0  0  0  0  0  0  0
   37.7310   29.7790   38.9540 O   0  0  0  0  0  0  0  0  0  0  0  0
   37.3990   30.7270   38.8360 H   0  0  0  0  0  0  0  0  0  0  0  0
   39.2260   30.6770   40.9660 O   0  0  0  0  0  0  0  0  0  0  0  0
   38.4910   32.8340   40.1430 C   0  0  2  0  0  3  0  0  0  0  0  0
   39.2330   32.0270   41.2020 C   0  0  2  0  0  3  0  0  0  0  0  0
   40.6590   32.5080   40.8780 C   0  0  0  0  0  3  0  0  0  0  0  0
   41.0090   31.9240   39.9850 H   0  0  0  0  0  0  0  0  0  0  0  0
   40.5740   33.8240   40.5280 O   0  0  0  0  0  0  0  0  0  0  0  0
   39.2870   34.0960   40.1070 C   0  0  0  0  0  3  0  0  0  0  0  0
   38.8580   34.8530   40.8010 H   0  0  0  0  0  0  0  0  0  0  0  0
   37.2030   33.1520   40.5620 O   0  0  0  0  0  0  0  0  0  0  0  0
   36.7050   32.2940   40.6490 H   0  0  0  0  0  0  0  0  0  0  0  0
   39.9070   26.6500   40.2480 C   0  0  0  0  0  0  0  0  0  0  0  0
   39.8620   25.8340   41.4020 C   0  0  0  0  0  0  0  0  0  0  0  0
   38.7530   25.0310   41.5370 C   0  0  0  0  0  0  0  0  0  0  0  0
   37.8570   25.1290   40.5590 N   0  0  0  0  0  0  0  0  0  0  0  0
   37.8640   25.8830   39.4660 C   0  0  0  0  0  0  0  0  0  0  0  0
   38.9180   26.6340   39.3480 N   0  0  0  0  0  0  0  0  0  0  0  0
   40.7520   27.2950   40.0930 H   0  0  0  0  0  0  0  0  0  0  0  0
   40.6420   25.8310   42.1400 H   0  0  0  0  0  0  0  0  0  0  0  0
   38.6040   24.1160   42.6100 N   0  0  0  0  0  0  0  0  0  0  0  0
   39.4760   23.5650   42.7620 H   0  0  0  0  0  0  0  0  0  0  0  0
   37.7110   24.0570   43.1320 H   0  0  0  0  0  0  0  0  0  0  0  0
  1 42  1  0  0  0  0
  2 11  1  0  0  0  0
  2  1  2  0  0  0  0
  3  2  1  0  0  0  0
  4  3  2  0  0  0  0
  4  5  1  0  0  0  0
  5 10  1  0  0  0  0
  6  5  2  0  0  0  0
  6  7  1  0  0  0  0
  7  8  2  0  0  0  0
  8  9  1  0  0  0  0
  8 16  1  0  0  0  0
  9 18  1  0  0  0  0
 10  1  1  0  0  0  0
 10  9  2  0  0  0  0
 12  3  1  0  0  0  0
 13  4  1  0  0  0  0
 14  6  1  0  0  0  0
 15  7  1  0  0  0  0
 17 18  2  0  0  0  0
 17 22  1  0  0  0  0
 18 19  1  0  0  0  0
 19 23  1  0  0  0  0
 19 20  2  0  0  0  0
 20 24  1  0  0  0  0
 21 20  1  0  0  0  0
 21 25  1  0  0  0  0
 22 21  2  0  0  0  0
 26 17  1  0  0  0  0
 27 26  1  0  0  0  0
 28 22  1  0  0  0  0
 29 36  1  1  0  0  0
 29 30  1  0  0  0  0
 30 28  1  6  0  0  0
 31 30  1  0  0  0  0
 32 31  1  0  0  0  0
 33 31  1  0  0  0  0
 34 29  1  0  0  0  0
 34 33  1  0  0  0  0
 34 35  1  0  0  0  0
 36 37  1  0  0  0  0
 38 39  1  0  0  0  0
 39 40  2  0  0  0  0
 39 45  1  0  0  0  0
 40 46  1  0  0  0  0
 41 40  1  0  0  0  0
 42 41  2  0  0  0  0
 43 42  1  0  0  0  0
 43 38  2  0  0  0  0
 44 38  1  0  0  0  0
 46 47  1  0  0  0  0
 46 48  1  0  0  0  0
M  END
>  <minimizedAffinity>
-6.86570835

$$$$
