
     RDKit          3D

 41 43  0  0  0  0  0  0  0  0999 V2000
   47.8359   33.9950   42.0085 N   0  0  0  0  0  0  0  0  0  0  0  0
   47.8672   34.8817   40.9076 C   0  0  0  0  0  0  0  0  0  0  0  0
   49.0427   35.7292   41.2100 C   0  0  0  0  0  0  0  0  0  0  0  0
   49.6770   35.2291   42.5053 C   0  0  0  0  0  0  0  0  0  0  0  0
   49.0975   33.8113   42.6003 C   0  0  2  0  0  0  0  0  0  0  0  0
   46.6405   33.4473   42.4054 C   0  0  0  0  0  0  0  0  0  0  0  0
   44.6201   35.9460   44.4069 C   0  0  0  0  0  0  0  0  0  0  0  0
   45.2858   35.3662   43.2826 C   0  0  0  0  0  0  0  0  0  0  0  0
   45.9516   34.1570   43.4617 C   0  0  0  0  0  0  0  0  0  0  0  0
   45.9250   33.6087   44.6951 N   0  0  0  0  0  0  0  0  0  0  0  0
   45.2793   34.1766   45.7740 C   0  0  0  0  0  0  0  0  0  0  0  0
   44.6344   35.3337   45.6265 N   0  0  0  0  0  0  0  0  0  0  0  0
   49.8481   33.0317   41.7113 O   0  0  0  0  0  0  0  0  0  0  0  0
   49.1379   30.9969   43.2608 O   0  0  0  0  0  0  0  0  0  0  0  0
   50.0869   31.4629   42.1903 P   0  0  2  0  0  0  0  0  0  0  0  0
   51.6420   31.3735   42.8802 O   0  0  0  0  0  0  0  0  0  0  0  0
   50.1292   30.3901   40.8817 O   0  0  0  0  0  0  0  0  0  0  0  0
   47.3509   35.1060   40.0098 H   0  0  0  0  0  0  0  0  0  0  0  0
   49.4765   36.5601   40.6619 H   0  0  0  0  0  0  0  0  0  0  0  0
   49.3798   35.8607   43.3414 H   0  0  0  0  0  0  0  0  0  0  0  0
   50.7599   35.1991   42.3149 H   0  0  0  0  0  0  0  0  0  0  0  0
   49.0352   33.4148   43.6116 H   0  0  0  0  0  0  0  0  0  0  0  0
   46.8405   32.3831   42.7052 H   0  0  0  0  0  0  0  0  0  0  0  0
   45.8926   33.3126   41.5922 H   0  0  0  0  0  0  0  0  0  0  0  0
   44.1061   36.8985   44.2281 H   0  0  0  0  0  0  0  0  0  0  0  0
   45.2822   35.8341   42.3256 H   0  0  0  0  0  0  0  0  0  0  0  0
   45.3392   33.6316   46.6955 H   0  0  0  0  0  0  0  0  0  0  0  0
   52.2616   31.9671   42.3870 H   0  0  0  0  0  0  0  0  0  0  0  0
   51.1206   33.0855   38.8933 O   0  0  0  0  0  0  0  0  0  0  0  0
   51.4218   32.1830   39.9194 C   0  0  1  0  0  0  0  0  0  0  0  0
   50.6835   30.8831   39.7531 C   0  0  1  0  0  0  0  0  0  0  0  0
   51.6172   29.9987   39.0153 C   0  0  1  0  0  0  0  0  0  0  0  0
   51.7698   29.0040   39.4767 H   0  0  0  0  0  0  0  0  0  0  0  0
   52.8332   30.6586   38.8479 O   0  0  0  0  0  0  0  0  0  0  0  0
   52.8566   31.7389   39.7126 C   0  0  1  0  0  0  0  0  0  0  0  0
   53.5075   32.5512   39.3793 H   0  0  0  0  0  0  0  0  0  0  0  0
   51.9374   33.5419   38.5697 H   0  0  0  0  0  0  0  0  0  0  0  0
   51.2554   32.6883   40.8675 H   0  0  0  0  0  0  0  0  0  0  0  0
   49.8227   31.0968   39.0556 H   0  0  0  0  0  0  0  0  0  0  0  0
   51.2798   29.7667   37.9662 H   0  0  0  0  0  0  0  0  0  0  0  0
   53.2400   31.3689   40.6994 H   0  0  0  0  0  0  0  0  0  0  0  0
  1  6  1  0
  1  5  1  0
  2  3  2  0
  2  1  1  0
  3  4  1  0
  4  5  1  0
  6  9  1  0
  7 12  2  0
  8  9  2  0
  8  7  1  0
  9 10  1  0
 10 11  2  0
 12 11  1  0
 15 13  1  6
 13  5  1  0
 15 16  1  0
 15 14  2  0
 17 15  1  0
  2 18  1  0
  3 19  1  0
  4 20  1  0
  4 21  1  0
  5 22  1  1
  6 23  1  0
  6 24  1  0
  7 25  1  0
  8 26  1  0
 11 27  1  0
 16 28  1  0
 29 30  1  0
 30 31  1  0
 31 32  1  0
 32 33  1  1
 32 34  1  0
 34 35  1  0
 35 36  1  6
 35 30  1  0
 29 37  1  0
 30 38  1  1
 31 39  1  6
 32 40  1  0
 35 41  1  0
 17 31  1  0
M  ISO  8  18  13  19  13  20  13  21  13  22  13  23   8  24   8  25  14
M  ISO  5  26  14  27  14  28   3  33  15  36  16
M  END
>  <DihAtoms>  (1) 
14,16,30,29

>  <DihDeg>  (1) 
117.12054574354214

$$$$
