
 OpenBabel03252506453D

 42 45  0  0  1  0  0  0  0  0999 V2000
   49.3940   33.2960   41.3610 N   0  0  1  0  0  0  0  0  0  0  0  0
   50.6740   33.0620   41.9980 C   0  0  0  0  0  0  0  0  0  0  0  0
   51.2790   31.7410   41.6140 C   0  0  0  0  0  0  0  0  0  0  0  0
   50.4270   30.6520   42.2410 C   0  0  0  0  0  0  0  0  0  0  0  0
   48.9610   31.0090   42.1500 C   0  0  0  0  0  0  0  0  0  0  0  0
   48.7680   32.0420   41.0750 C   0  0  2  0  0  0  0  0  0  0  0  0
   51.3470   33.9280   41.8770 H   0  0  0  0  0  0  0  0  0  0  0  0
   50.4640   32.9850   43.1020 H   0  0  0  0  0  0  0  0  0  0  0  0
   52.2850   31.7080   42.1010 H   0  0  0  0  0  0  0  0  0  0  0  0
   51.4530   31.5950   40.5470 H   0  0  0  0  0  0  0  0  0  0  0  0
   50.7400   30.5000   43.3030 H   0  0  0  0  0  0  0  0  0  0  0  0
   50.6100   29.7190   41.7140 H   0  0  0  0  0  0  0  0  0  0  0  0
   48.7570   31.5690   43.1150 H   0  0  0  0  0  0  0  0  0  0  0  0
   48.2680   30.1870   42.1580 H   0  0  0  0  0  0  0  0  0  0  0  0
   47.6670   32.2940   41.1720 H   0  0  0  0  0  0  0  0  0  0  0  0
   47.2620   34.6250   41.9420 C   0  0  1  0  0  0  0  0  0  0  0  0
   48.4020   35.5460   41.7140 C   0  0  0  0  0  0  0  0  0  0  0  0
   48.6550   34.1740   42.1960 C   0  0  2  0  0  0  0  0  0  0  0  0
   46.7740   34.2280   41.0130 H   0  0  0  0  0  0  0  0  0  0  0  0
   48.7360   35.8360   40.7080 H   0  0  0  0  0  0  0  0  0  0  0  0
   48.5660   36.3560   42.4690 H   0  0  0  0  0  0  0  0  0  0  0  0
   48.8750   34.0260   43.2930 H   0  0  0  0  0  0  0  0  0  0  0  0
   45.5410   36.0320   43.1170 C   0  0  0  0  0  0  0  0  0  0  0  0
   46.3530   34.8840   43.0570 C   0  0  0  0  0  0  0  0  0  0  0  0
   46.2440   33.9720   44.1320 C   0  0  0  0  0  0  0  0  0  0  0  0
   45.3800   34.2410   45.1460 N   0  0  0  0  0  0  0  0  0  0  0  0
   44.6190   35.3570   45.1630 C   0  0  0  0  0  0  0  0  0  0  0  0
   44.6920   36.2630   44.1490 N   0  0  0  0  0  0  0  0  0  0  0  0
   45.6250   36.7300   42.2970 H   0  0  0  0  0  0  0  0  0  0  0  0
   46.8480   33.0780   44.1270 H   0  0  0  0  0  0  0  0  0  0  0  0
   43.9230   35.5950   45.9580 H   0  0  0  0  0  0  0  0  0  0  0  0
   49.0880   31.5230   39.8040 N   0  0  0  0  0  0  0  0  0  0  0  0
   49.7430   30.7340   39.8810 H   0  0  0  0  0  0  0  0  0  0  0  0
   48.0400   32.3420   37.7170 C   0  0  1  0  0  3  0  0  0  0  0  0
   49.2110   32.2490   38.6480 C   0  0  2  0  0  3  0  0  0  0  0  0
   50.3190   31.9670   37.6860 C   0  0  0  0  0  3  0  0  0  0  0  0
   51.1870   31.4760   38.1290 H   0  0  0  0  0  0  0  0  0  0  0  0
   49.7690   31.3340   36.5820 O   0  0  0  0  0  0  0  0  0  0  0  0
   48.4070   31.3310   36.6630 C   0  0  0  0  0  3  0  0  0  0  0  0
   48.0360   30.3230   36.8190 H   0  0  0  0  0  0  0  0  0  0  0  0
   46.8040   32.1870   38.2620 O   0  0  0  0  0  0  0  0  0  0  0  0
   46.3620   31.3910   37.8320 H   0  0  0  0  0  0  0  0  0  0  0  0
  1  2  1  1  0  0  0
  1 18  1  0  0  0  0
  2  8  1  0  0  0  0
  3  2  1  0  0  0  0
  3  9  1  0  0  0  0
  3  4  1  0  0  0  0
  4 11  1  0  0  0  0
  5 14  1  0  0  0  0
  5  4  1  0  0  0  0
  5 13  1  0  0  0  0
  6 15  1  6  0  0  0
  6  1  1  0  0  0  0
  6  5  1  0  0  0  0
  7  2  1  0  0  0  0
 10  3  1  0  0  0  0
 12  4  1  0  0  0  0
 16 19  1  6  0  0  0
 16 18  1  0  0  0  0
 16 24  1  0  0  0  0
 17 16  1  0  0  0  0
 17 18  1  0  0  0  0
 17 21  1  0  0  0  0
 18 22  1  1  0  0  0
 20 17  1  0  0  0  0
 23 28  1  0  0  0  0
 24 23  2  0  0  0  0
 24 25  1  0  0  0  0
 25 26  2  0  0  0  0
 26 27  1  0  0  0  0
 27 31  1  0  0  0  0
 28 27  2  0  0  0  0
 29 23  1  0  0  0  0
 30 25  1  0  0  0  0
 32 33  1  0  0  0  0
 32  6  1  0  0  0  0
 34 41  1  1  0  0  0
 34 35  1  0  0  0  0
 35 32  1  1  0  0  0
 36 37  1  0  0  0  0
 36 35  1  0  0  0  0
 38 39  1  0  0  0  0
 38 36  1  0  0  0  0
 39 40  1  0  0  0  0
 39 34  1  0  0  0  0
 42 41  1  0  0  0  0
M  END
>  <minimizedAffinity>
-4.9720211

>  <minimizedRMSD>
2.086761

$$$$
