
 OpenBabel03252506453D

 42 45  0  0  1  0  0  0  0  0999 V2000
   49.3990   33.3100   41.4250 N   0  0  1  0  0  0  0  0  0  0  0  0
   50.6780   33.1230   42.0780 C   0  0  0  0  0  0  0  0  0  0  0  0
   51.3110   31.8020   41.7450 C   0  0  0  0  0  0  0  0  0  0  0  0
   50.4760   30.7200   42.4050 C   0  0  0  0  0  0  0  0  0  0  0  0
   49.0040   31.0450   42.2920 C   0  0  0  0  0  0  0  0  0  0  0  0
   48.7980   32.0360   41.1800 C   0  0  2  0  0  0  0  0  0  0  0  0
   51.3360   33.9970   41.9300 H   0  0  0  0  0  0  0  0  0  0  0  0
   50.4630   33.0810   43.1830 H   0  0  0  0  0  0  0  0  0  0  0  0
   52.3140   31.8060   42.2390 H   0  0  0  0  0  0  0  0  0  0  0  0
   51.4950   31.6220   40.6850 H   0  0  0  0  0  0  0  0  0  0  0  0
   50.7850   30.6110   43.4730 H   0  0  0  0  0  0  0  0  0  0  0  0
   50.6800   29.7730   41.9130 H   0  0  0  0  0  0  0  0  0  0  0  0
   48.7830   31.6350   43.2360 H   0  0  0  0  0  0  0  0  0  0  0  0
   48.3270   30.2100   42.3260 H   0  0  0  0  0  0  0  0  0  0  0  0
   47.6920   32.2700   41.2620 H   0  0  0  0  0  0  0  0  0  0  0  0
   47.2230   34.5800   41.9730 C   0  0  1  0  0  0  0  0  0  0  0  0
   48.3180   35.5340   41.6720 C   0  0  0  0  0  0  0  0  0  0  0  0
   48.6380   34.2030   42.2240 C   0  0  2  0  0  0  0  0  0  0  0  0
   46.7360   34.1120   41.0780 H   0  0  0  0  0  0  0  0  0  0  0  0
   48.6220   35.7790   40.6440 H   0  0  0  0  0  0  0  0  0  0  0  0
   48.4610   36.3910   42.3770 H   0  0  0  0  0  0  0  0  0  0  0  0
   48.8830   34.1270   43.3230 H   0  0  0  0  0  0  0  0  0  0  0  0
   45.5260   36.0230   43.1390 C   0  0  0  0  0  0  0  0  0  0  0  0
   46.3230   34.8640   43.0900 C   0  0  0  0  0  0  0  0  0  0  0  0
   46.2080   33.9670   44.1770 C   0  0  0  0  0  0  0  0  0  0  0  0
   45.3540   34.2600   45.1920 N   0  0  0  0  0  0  0  0  0  0  0  0
   44.6070   35.3850   45.1990 C   0  0  0  0  0  0  0  0  0  0  0  0
   44.6850   36.2780   44.1730 N   0  0  0  0  0  0  0  0  0  0  0  0
   45.6130   36.7100   42.3100 H   0  0  0  0  0  0  0  0  0  0  0  0
   46.8020   33.0660   44.1800 H   0  0  0  0  0  0  0  0  0  0  0  0
   43.9180   35.6410   45.9950 H   0  0  0  0  0  0  0  0  0  0  0  0
   49.1370   31.4780   39.9310 N   0  0  0  0  0  0  0  0  0  0  0  0
   50.1510   31.5310   39.7640 H   0  0  0  0  0  0  0  0  0  0  0  0
   48.2290   32.8430   38.0760 C   0  0  1  0  0  3  0  0  0  0  0  0
   48.3740   31.5340   38.7940 C   0  0  2  0  0  3  0  0  0  0  0  0
   46.9590   31.0550   38.8010 C   0  0  0  0  0  3  0  0  0  0  0  0
   46.7320   30.3330   39.5870 H   0  0  0  0  0  0  0  0  0  0  0  0
   46.1360   32.1680   38.7490 O   0  0  0  0  0  0  0  0  0  0  0  0
   46.8710   33.2980   38.5430 C   0  0  0  0  0  3  0  0  0  0  0  0
   46.8570   33.9280   39.4250 H   0  0  0  0  0  0  0  0  0  0  0  0
   49.2300   33.7490   38.2370 O   0  0  0  0  0  0  0  0  0  0  0  0
   48.8450   34.5810   38.6550 H   0  0  0  0  0  0  0  0  0  0  0  0
  1  2  1  1  0  0  0
  1 18  1  0  0  0  0
  2  8  1  0  0  0  0
  3  2  1  0  0  0  0
  3  9  1  0  0  0  0
  3  4  1  0  0  0  0
  4 11  1  0  0  0  0
  5 14  1  0  0  0  0
  5  4  1  0  0  0  0
  5 13  1  0  0  0  0
  6 15  1  6  0  0  0
  6  1  1  0  0  0  0
  6  5  1  0  0  0  0
  7  2  1  0  0  0  0
 10  3  1  0  0  0  0
 12  4  1  0  0  0  0
 16 19  1  6  0  0  0
 16 18  1  0  0  0  0
 16 24  1  0  0  0  0
 17 16  1  0  0  0  0
 17 18  1  0  0  0  0
 17 21  1  0  0  0  0
 18 22  1  1  0  0  0
 20 17  1  0  0  0  0
 23 28  1  0  0  0  0
 24 23  2  0  0  0  0
 24 25  1  0  0  0  0
 25 30  1  0  0  0  0
 25 26  2  0  0  0  0
 26 27  1  0  0  0  0
 27 31  1  0  0  0  0
 28 27  2  0  0  0  0
 29 23  1  0  0  0  0
 32  6  1  0  0  0  0
 33 32  1  0  0  0  0
 34 41  1  1  0  0  0
 34 39  1  0  0  0  0
 34 35  1  0  0  0  0
 35 36  1  0  0  0  0
 35 32  1  1  0  0  0
 36 37  1  0  0  0  0
 38 36  1  0  0  0  0
 39 38  1  0  0  0  0
 39 40  1  0  0  0  0
 41 42  1  0  0  0  0
M  END
>  <minimizedAffinity>
-5.08385801

>  <minimizedRMSD>
2.14208126

$$$$
