REMARK  Name = 
REMARK  5 active torsions:
REMARK  status: ('A' for Active; 'I' for Inactive)
REMARK    1  A    between atoms: N_1  and  C_9
REMARK    2  A    between atoms: C_6  and  N_16
REMARK    3  A    between atoms: C_7  and  C_11
REMARK    4  A    between atoms: N_16  and  C_36
REMARK    5  A    between atoms: O_34  and  C_35
REMARK                            x       y       z     vdW  Elec       q    Type
REMARK                         _______ _______ _______ _____ _____    ______ ____
ROOT
ATOM      1  N   UNL     1      49.329  33.205  41.488  0.00  0.00    +0.000 NA
ATOM      2  C   UNL     1      50.664  33.121  42.044  0.00  0.00    +0.000 C 
ATOM      3  C   UNL     1      51.331  31.807  41.751  0.00  0.00    +0.000 C 
ATOM      4  C   UNL     1      50.605  30.741  42.551  0.00  0.00    +0.000 C 
ATOM      5  C   UNL     1      49.114  30.994  42.539  0.00  0.00    +0.000 C 
ATOM      6  C   UNL     1      48.773  31.892  41.382  0.00  0.00    +0.000 C 
ATOM      7  H   UNL     1      51.265  34.009  41.782  0.00  0.00    +0.000 HD
ATOM      8  H   UNL     1      50.540  33.150  43.163  0.00  0.00    +0.000 HD
ATOM      9  H   UNL     1      52.369  31.889  42.158  0.00  0.00    +0.000 HD
ATOM     10  H   UNL     1      51.438  31.558  40.694  0.00  0.00    +0.000 HD
ATOM     11  H   UNL     1      51.003  30.723  43.595  0.00  0.00    +0.000 HD
ATOM     12  H   UNL     1      50.814  29.770  42.110  0.00  0.00    +0.000 HD
ATOM     13  H   UNL     1      48.941  31.641  43.455  0.00  0.00    +0.000 HD
ATOM     14  H   UNL     1      48.483  30.136  42.686  0.00  0.00    +0.000 HD
ATOM     15  H   UNL     1      47.667  32.084  41.539  0.00  0.00    +0.000 HD
ENDROOT
BRANCH   1  18
ATOM     16  C   UNL     1      47.194  34.550  42.020  0.00  0.00    +0.000 C 
ATOM     17  C   UNL     1      48.326  35.465  41.736  0.00  0.00    +0.000 C 
ATOM     18  C   UNL     1      48.592  34.121  42.284  0.00  0.00    +0.000 C 
ATOM     19  H   UNL     1      46.700  34.104  41.117  0.00  0.00    +0.000 HD
ATOM     20  H   UNL     1      48.650  35.705  40.713  0.00  0.00    +0.000 HD
ATOM     21  H   UNL     1      48.492  36.313  42.447  0.00  0.00    +0.000 HD
ATOM     22  H   UNL     1      48.822  34.030  43.385  0.00  0.00    +0.000 HD
BRANCH  16  24
ATOM     23  C   UNL     1      45.513  36.031  43.161  0.00  0.00    +0.000 A 
ATOM     24  C   UNL     1      46.293  34.860  43.129  0.00  0.00    +0.000 A 
ATOM     25  C   UNL     1      46.159  33.977  44.225  0.00  0.00    +0.000 A 
ATOM     26  N   UNL     1      45.304  34.294  45.232  0.00  0.00    +0.000 NA
ATOM     27  C   UNL     1      44.574  35.430  45.223  0.00  0.00    +0.000 A 
ATOM     28  N   UNL     1      44.671  36.310  44.187  0.00  0.00    +0.000 NA
ATOM     29  H   UNL     1      45.615  36.707  42.325  0.00  0.00    +0.000 HD
ATOM     30  H   UNL     1      46.739  33.067  44.241  0.00  0.00    +0.000 HD
ATOM     31  H   UNL     1      43.885  35.706  46.012  0.00  0.00    +0.000 HD
ENDBRANCH  16  24
ENDBRANCH   1  18
BRANCH   6  32
ATOM     32  N   UNL     1      49.037  31.260  40.150  0.00  0.00    +0.000 NA
ATOM     33  H   UNL     1      49.406  31.930  39.462  0.00  0.00    +0.000 HD
BRANCH  32  35
ATOM     34  C   UNL     1      48.708  28.819  39.920  0.00  0.00    +0.000 C 
ATOM     35  C   UNL     1      48.315  30.231  39.605  0.00  0.00    +0.000 C 
ATOM     36  C   UNL     1      48.103  30.145  38.129  0.00  0.00    +0.000 C 
ATOM     37  H   UNL     1      48.194  31.098  37.605  0.00  0.00    +0.000 HD
ATOM     38  O   UNL     1      48.898  29.116  37.647  0.00  0.00    +0.000 OA
ATOM     39  C   UNL     1      49.466  28.429  38.679  0.00  0.00    +0.000 C 
ATOM     40  H   UNL     1      50.538  28.594  38.702  0.00  0.00    +0.000 HD
BRANCH  34  41
ATOM     41  O   UNL     1      49.366  28.607  41.090  0.00  0.00    +0.000 OA
ATOM     42  H   UNL     1      50.270  28.215  40.883  0.00  0.00    +0.000 HD
ENDBRANCH  34  41
ENDBRANCH  32  35
ENDBRANCH   6  32
TORSDOF 5
