
 OpenBabel03242520313D

 41 43  0  0  1  0  0  0  0  0999 V2000
   37.7800   31.5430   38.2520 C   0  0  0  0  0  0  0  0  0  0  0  0
   37.1680   30.3160   38.6500 C   0  0  0  0  0  0  0  0  0  0  0  0
   36.6670   30.2290   39.9390 C   0  0  0  0  0  0  0  0  0  0  0  0
   36.7720   31.2910   40.7630 N   0  0  0  0  0  0  0  0  0  0  0  0
   37.3530   32.4460   40.3760 C   0  0  0  0  0  0  0  0  0  0  0  0
   37.8510   32.5660   39.1320 N   0  0  0  0  0  0  0  0  0  0  0  0
   38.1840   31.6500   37.2530 H   0  0  0  0  0  0  0  0  0  0  0  0
   37.4050   33.2580   41.0860 H   0  0  0  0  0  0  0  0  0  0  0  0
   37.1410   29.2970   37.6560 N   0  0  0  0  0  0  0  0  0  0  0  0
   38.1670   28.2880   37.5340 C   0  0  0  0  0  0  0  0  0  0  0  0
   37.7730   27.2920   36.4740 C   0  0  0  0  0  0  0  0  0  0  0  0
   37.4110   27.9040   35.2340 N   0  0  0  0  0  0  0  0  0  0  0  0
   36.4630   28.9620   35.3410 C   0  0  0  0  0  0  0  0  0  0  0  0
   36.0120   29.2970   36.7300 C   0  0  0  0  0  0  0  0  0  0  0  0
   39.1800   28.6880   37.3910 H   0  0  0  0  0  0  0  0  0  0  0  0
   38.1420   27.7260   38.5100 H   0  0  0  0  0  0  0  0  0  0  0  0
   38.5200   26.5200   36.3150 H   0  0  0  0  0  0  0  0  0  0  0  0
   36.8470   26.7870   36.8640 H   0  0  0  0  0  0  0  0  0  0  0  0
   37.0020   27.1690   34.6160 H   0  0  0  0  0  0  0  0  0  0  0  0
   35.5280   28.7980   34.7400 H   0  0  0  0  0  0  0  0  0  0  0  0
   36.9110   29.8860   34.9160 H   0  0  0  0  0  0  0  0  0  0  0  0
   35.2120   28.5980   37.0970 H   0  0  0  0  0  0  0  0  0  0  0  0
   35.5390   30.3020   36.7030 H   0  0  0  0  0  0  0  0  0  0  0  0
   36.0830   29.0260   40.2820 O   0  0  0  0  0  0  0  0  0  0  0  0
   36.2890   27.8470   42.6470 O   0  0  0  0  0  0  0  0  0  0  0  0
   36.9620   27.9120   41.2730 P   0  0  1  0  0  0  0  0  0  0  0  0
   36.9520   26.4320   40.5080 O   0  0  0  0  0  0  0  0  0  0  0  0
   37.3050   24.4920   41.7680 C   0  0  1  0  0  3  0  0  0  0  0  0
   37.9660   25.5820   40.9100 C   0  0  1  0  0  3  0  0  0  0  0  0
   38.2980   24.7000   39.7230 C   0  0  0  0  0  3  0  0  0  0  0  0
   39.0400   23.9190   40.0240 H   0  0  0  0  0  0  0  0  0  0  0  0
   37.0840   24.0640   39.4920 O   0  0  0  0  0  0  0  0  0  0  0  0
   36.3960   23.9490   40.6820 C   0  0  0  0  0  3  0  0  0  0  0  0
   35.5300   24.6730   40.6620 H   0  0  0  0  0  0  0  0  0  0  0  0
   38.2150   23.5150   42.0960 O   0  0  0  0  0  0  0  0  0  0  0  0
   37.9340   22.5870   41.8970 H   0  0  0  0  0  0  0  0  0  0  0  0
   38.5020   28.5530   41.4590 O   0  0  0  0  0  0  0  0  0  0  0  0
   38.8690   28.6910   42.7800 C   0  0  0  0  0  0  0  0  0  0  0  0
   38.8280   27.5070   43.4940 F   0  0  0  0  0  0  0  0  0  0  0  0
   38.1770   29.6560   43.4610 F   0  0  0  0  0  0  0  0  0  0  0  0
   40.2090   29.1110   42.7460 F   0  0  0  0  0  0  0  0  0  0  0  0
  1  2  2  0  0  0  0
  1  6  1  0  0  0  0
  2  3  1  0  0  0  0
  3 24  1  0  0  0  0
  3  4  2  0  0  0  0
  5  4  1  0  0  0  0
  5  8  1  0  0  0  0
  6  5  2  0  0  0  0
  7  1  1  0  0  0  0
  9  2  1  0  0  0  0
 10  9  1  0  0  0  0
 10 16  1  0  0  0  0
 11 18  1  0  0  0  0
 11 10  1  0  0  0  0
 12 13  1  0  0  0  0
 12 11  1  0  0  0  0
 13 14  1  0  0  0  0
 14 22  1  0  0  0  0
 14  9  1  0  0  0  0
 15 10  1  0  0  0  0
 17 11  1  0  0  0  0
 19 12  1  0  0  0  0
 20 13  1  0  0  0  0
 21 13  1  0  0  0  0
 23 14  1  0  0  0  0
 24 26  1  0  0  0  0
 26 37  1  0  0  0  0
 26 25  2  1  0  0  0
 27 26  1  0  0  0  0
 28 35  1  6  0  0  0
 29 27  1  6  0  0  0
 29 28  1  0  0  0  0
 30 31  1  0  0  0  0
 30 29  1  0  0  0  0
 32 30  1  0  0  0  0
 32 33  1  0  0  0  0
 33 28  1  0  0  0  0
 34 33  1  0  0  0  0
 36 35  1  0  0  0  0
 37 38  1  0  0  0  0
 38 40  1  0  0  0  0
 38 39  1  0  0  0  0
 41 38  1  0  0  0  0
M  END
>  <minimizedAffinity>
-5.27409697

$$$$

 OpenBabel03242520313D

 41 43  0  0  1  0  0  0  0  0999 V2000
   36.6740   30.6460   38.4790 C   0  0  0  0  0  0  0  0  0  0  0  0
   36.2810   29.5190   39.2610 C   0  0  0  0  0  0  0  0  0  0  0  0
   36.2540   29.6630   40.6390 C   0  0  0  0  0  0  0  0  0  0  0  0
   36.5960   30.8470   41.1880 N   0  0  0  0  0  0  0  0  0  0  0  0
   36.9660   31.9060   40.4380 C   0  0  0  0  0  0  0  0  0  0  0  0
   37.0040   31.8020   39.0970 N   0  0  0  0  0  0  0  0  0  0  0  0
   36.7080   30.5730   37.3990 H   0  0  0  0  0  0  0  0  0  0  0  0
   37.2290   32.8240   40.9410 H   0  0  0  0  0  0  0  0  0  0  0  0
   35.9530   28.3480   38.5220 N   0  0  0  0  0  0  0  0  0  0  0  0
   34.6250   28.0780   38.0210 C   0  0  0  0  0  0  0  0  0  0  0  0
   34.6480   26.8300   37.1770 C   0  0  0  0  0  0  0  0  0  0  0  0
   35.2560   25.7160   37.8350 N   0  0  0  0  0  0  0  0  0  0  0  0
   36.5310   25.9840   38.4120 C   0  0  0  0  0  0  0  0  0  0  0  0
   37.0280   27.3900   38.2750 C   0  0  0  0  0  0  0  0  0  0  0  0
   33.8450   28.0580   38.7950 H   0  0  0  0  0  0  0  0  0  0  0  0
   34.4020   28.9250   37.3140 H   0  0  0  0  0  0  0  0  0  0  0  0
   33.6690   26.5570   36.7920 H   0  0  0  0  0  0  0  0  0  0  0  0
   35.2980   27.0750   36.2940 H   0  0  0  0  0  0  0  0  0  0  0  0
   35.3770   24.9510   37.1350 H   0  0  0  0  0  0  0  0  0  0  0  0
   37.3540   25.3230   38.0270 H   0  0  0  0  0  0  0  0  0  0  0  0
   36.4820   25.7650   39.5010 H   0  0  0  0  0  0  0  0  0  0  0  0
   37.4900   27.5820   37.2680 H   0  0  0  0  0  0  0  0  0  0  0  0
   37.8470   27.5370   39.0100 H   0  0  0  0  0  0  0  0  0  0  0  0
   35.8670   28.5500   41.3570 O   0  0  0  0  0  0  0  0  0  0  0  0
   36.1570   27.2320   43.6390 O   0  0  0  0  0  0  0  0  0  0  0  0
   36.9670   27.8570   42.5000 P   0  0  1  0  0  0  0  0  0  0  0  0
   37.8860   26.7210   41.6980 O   0  0  0  0  0  0  0  0  0  0  0  0
   38.0420   24.4460   41.1730 C   0  0  1  0  0  3  0  0  0  0  0  0
   37.9000   25.4770   42.3040 C   0  0  1  0  0  3  0  0  0  0  0  0
   39.2850   25.2920   42.8920 C   0  0  0  0  0  3  0  0  0  0  0  0
   39.3880   24.2560   43.3020 H   0  0  0  0  0  0  0  0  0  0  0  0
   40.0890   25.3800   41.7630 O   0  0  0  0  0  0  0  0  0  0  0  0
   39.3840   24.9350   40.6640 C   0  0  0  0  0  3  0  0  0  0  0  0
   39.1250   25.8270   40.0230 H   0  0  0  0  0  0  0  0  0  0  0  0
   38.2120   23.1820   41.6900 O   0  0  0  0  0  0  0  0  0  0  0  0
   38.9880   22.6800   41.3380 H   0  0  0  0  0  0  0  0  0  0  0  0
   37.8740   29.1260   43.1190 O   0  0  0  0  0  0  0  0  0  0  0  0
   39.1800   29.1150   42.6830 C   0  0  0  0  0  0  0  0  0  0  0  0
   39.8250   30.3300   42.8290 F   0  0  0  0  0  0  0  0  0  0  0  0
   39.3450   28.6670   41.4000 F   0  0  0  0  0  0  0  0  0  0  0  0
   39.8360   28.1930   43.5150 F   0  0  0  0  0  0  0  0  0  0  0  0
  1  6  2  0  0  0  0
  1  2  1  0  0  0  0
  2  3  2  0  0  0  0
  3  4  1  0  0  0  0
  3 24  1  0  0  0  0
  5  8  1  0  0  0  0
  5  4  2  0  0  0  0
  6  5  1  0  0  0  0
  7  1  1  0  0  0  0
  9  2  1  0  0  0  0
 10  9  1  0  0  0  0
 10 15  1  0  0  0  0
 11 12  1  0  0  0  0
 11 10  1  0  0  0  0
 12 13  1  0  0  0  0
 13 21  1  0  0  0  0
 14 13  1  0  0  0  0
 14  9  1  0  0  0  0
 14 23  1  0  0  0  0
 16 10  1  0  0  0  0
 17 11  1  0  0  0  0
 18 11  1  0  0  0  0
 19 12  1  0  0  0  0
 20 13  1  0  0  0  0
 22 14  1  0  0  0  0
 24 26  1  0  0  0  0
 26 37  1  0  0  0  0
 26 25  2  1  0  0  0
 27 26  1  0  0  0  0
 28 35  1  1  0  0  0
 28 29  1  0  0  0  0
 29 27  1  6  0  0  0
 29 30  1  0  0  0  0
 30 31  1  0  0  0  0
 32 30  1  0  0  0  0
 33 28  1  0  0  0  0
 33 32  1  0  0  0  0
 34 33  1  0  0  0  0
 36 35  1  0  0  0  0
 38 39  1  0  0  0  0
 38 37  1  0  0  0  0
 38 41  1  0  0  0  0
 40 38  1  0  0  0  0
M  END
>  <minimizedAffinity>
-5.20339012

$$$$

 OpenBabel03242520313D

 41 43  0  0  1  0  0  0  0  0999 V2000
   35.2780   29.3100   37.0800 C   0  0  0  0  0  0  0  0  0  0  0  0
   35.8610   28.8870   38.3120 C   0  0  0  0  0  0  0  0  0  0  0  0
   35.8720   27.5300   38.5920 C   0  0  0  0  0  0  0  0  0  0  0  0
   35.3390   26.6660   37.7030 N   0  0  0  0  0  0  0  0  0  0  0  0
   34.7920   27.0780   36.5410 C   0  0  0  0  0  0  0  0  0  0  0  0
   34.7630   28.3880   36.2370 N   0  0  0  0  0  0  0  0  0  0  0  0
   35.2500   30.3620   36.8250 H   0  0  0  0  0  0  0  0  0  0  0  0
   34.3820   26.3340   35.8740 H   0  0  0  0  0  0  0  0  0  0  0  0
   36.3760   29.9280   39.1330 N   0  0  0  0  0  0  0  0  0  0  0  0
   35.7920   30.2930   40.4030 C   0  0  0  0  0  0  0  0  0  0  0  0
   36.6490   31.3360   41.0730 C   0  0  0  0  0  0  0  0  0  0  0  0
   36.9410   32.4510   40.2270 N   0  0  0  0  0  0  0  0  0  0  0  0
   37.4380   32.1120   38.9370 C   0  0  0  0  0  0  0  0  0  0  0  0
   37.5500   30.6470   38.6440 C   0  0  0  0  0  0  0  0  0  0  0  0
   34.7320   30.5790   40.3480 H   0  0  0  0  0  0  0  0  0  0  0  0
   35.8770   29.3680   41.0400 H   0  0  0  0  0  0  0  0  0  0  0  0
   36.2460   31.6730   42.0240 H   0  0  0  0  0  0  0  0  0  0  0  0
   37.6300   30.8290   41.2850 H   0  0  0  0  0  0  0  0  0  0  0  0
   37.6610   33.0390   40.7020 H   0  0  0  0  0  0  0  0  0  0  0  0
   38.4440   32.5540   38.7040 H   0  0  0  0  0  0  0  0  0  0  0  0
   36.7590   32.5430   38.1690 H   0  0  0  0  0  0  0  0  0  0  0  0
   38.4850   30.1970   39.0770 H   0  0  0  0  0  0  0  0  0  0  0  0
   37.6430   30.5230   37.5440 H   0  0  0  0  0  0  0  0  0  0  0  0
   36.4450   27.1640   39.7930 O   0  0  0  0  0  0  0  0  0  0  0  0
   38.7400   26.8810   38.4970 O   0  0  0  0  0  0  0  0  0  0  0  0
   38.0380   26.4850   39.7980 P   0  0  1  0  0  0  0  0  0  0  0  0
   38.8370   27.0740   41.1370 O   0  0  0  0  0  0  0  0  0  0  0  0
   37.5710   27.7870   42.9700 C   0  0  1  0  0  3  0  0  0  0  0  0
   38.2740   28.2180   41.6730 C   0  0  1  0  0  3  0  0  0  0  0  0
   39.3980   28.9970   42.3260 C   0  0  0  0  0  3  0  0  0  0  0  0
   38.9820   29.8810   42.8710 H   0  0  0  0  0  0  0  0  0  0  0  0
   39.8570   28.0930   43.2770 O   0  0  0  0  0  0  0  0  0  0  0  0
   38.8140   27.2830   43.6780 C   0  0  0  0  0  3  0  0  0  0  0  0
   38.9780   26.2540   43.2450 H   0  0  0  0  0  0  0  0  0  0  0  0
   37.1020   28.8850   43.6540 O   0  0  0  0  0  0  0  0  0  0  0  0
   37.3670   28.9390   44.6050 H   0  0  0  0  0  0  0  0  0  0  0  0
   37.8460   24.8180   39.8200 O   0  0  0  0  0  0  0  0  0  0  0  0
   37.6390   24.3190   41.0860 C   0  0  0  0  0  0  0  0  0  0  0  0
   36.6190   24.9520   41.7730 F   0  0  0  0  0  0  0  0  0  0  0  0
   38.7610   24.2860   41.8720 F   0  0  0  0  0  0  0  0  0  0  0  0
   37.2470   22.9840   40.8950 F   0  0  0  0  0  0  0  0  0  0  0  0
  1  2  1  0  0  0  0
  2  3  2  0  0  0  0
  2  9  1  0  0  0  0
  3 24  1  0  0  0  0
  4  3  1  0  0  0  0
  5  4  2  0  0  0  0
  6  5  1  0  0  0  0
  6  1  2  0  0  0  0
  7  1  1  0  0  0  0
  8  5  1  0  0  0  0
  9 10  1  0  0  0  0
 10 16  1  0  0  0  0
 10 11  1  0  0  0  0
 11 18  1  0  0  0  0
 11 17  1  0  0  0  0
 12 19  1  0  0  0  0
 12 11  1  0  0  0  0
 13 12  1  0  0  0  0
 14 13  1  0  0  0  0
 14 22  1  0  0  0  0
 14  9  1  0  0  0  0
 15 10  1  0  0  0  0
 20 13  1  0  0  0  0
 21 13  1  0  0  0  0
 23 14  1  0  0  0  0
 24 26  1  0  0  0  0
 26 25  2  6  0  0  0
 26 37  1  0  0  0  0
 26 27  1  0  0  0  0
 28 35  1  1  0  0  0
 28 33  1  0  0  0  0
 29 27  1  1  0  0  0
 29 30  1  0  0  0  0
 29 28  1  0  0  0  0
 30 31  1  0  0  0  0
 30 32  1  0  0  0  0
 32 33  1  0  0  0  0
 34 33  1  0  0  0  0
 35 36  1  0  0  0  0
 37 38  1  0  0  0  0
 38 39  1  0  0  0  0
 38 40  1  0  0  0  0
 41 38  1  0  0  0  0
M  END
>  <minimizedAffinity>
-5.19873524

$$$$

 OpenBabel03242520313D

 41 43  0  0  1  0  0  0  0  0999 V2000
   41.1430   32.0440   37.2710 C   0  0  0  0  0  0  0  0  0  0  0  0
   40.3830   31.4110   38.3010 C   0  0  0  0  0  0  0  0  0  0  0  0
   40.7410   30.1260   38.6750 C   0  0  0  0  0  0  0  0  0  0  0  0
   41.7820   29.5240   38.0630 N   0  0  0  0  0  0  0  0  0  0  0  0
   42.4930   30.1330   37.0910 C   0  0  0  0  0  0  0  0  0  0  0  0
   42.1730   31.3800   36.7020 N   0  0  0  0  0  0  0  0  0  0  0  0
   40.8930   33.0480   36.9500 H   0  0  0  0  0  0  0  0  0  0  0  0
   43.3140   29.5940   36.6410 H   0  0  0  0  0  0  0  0  0  0  0  0
   39.3190   32.1880   38.8390 N   0  0  0  0  0  0  0  0  0  0  0  0
   39.5030   33.1490   39.9010 C   0  0  0  0  0  0  0  0  0  0  0  0
   38.2120   33.8880   40.1440 C   0  0  0  0  0  0  0  0  0  0  0  0
   37.0940   33.0180   40.3370 N   0  0  0  0  0  0  0  0  0  0  0  0
   36.9430   32.0070   39.3460 C   0  0  0  0  0  0  0  0  0  0  0  0
   37.9880   31.9820   38.2720 C   0  0  0  0  0  0  0  0  0  0  0  0
   39.9380   32.7300   40.8190 H   0  0  0  0  0  0  0  0  0  0  0  0
   40.2210   33.9110   39.4850 H   0  0  0  0  0  0  0  0  0  0  0  0
   38.2790   34.6090   40.9540 H   0  0  0  0  0  0  0  0  0  0  0  0
   38.0120   34.4630   39.1990 H   0  0  0  0  0  0  0  0  0  0  0  0
   36.2270   33.5990   40.3360 H   0  0  0  0  0  0  0  0  0  0  0  0
   35.9520   32.0320   38.8160 H   0  0  0  0  0  0  0  0  0  0  0  0
   36.9690   31.0130   39.8440 H   0  0  0  0  0  0  0  0  0  0  0  0
   37.7900   32.7420   37.4680 H   0  0  0  0  0  0  0  0  0  0  0  0
   37.9360   30.9940   37.7670 H   0  0  0  0  0  0  0  0  0  0  0  0
   39.9810   29.5520   39.6740 O   0  0  0  0  0  0  0  0  0  0  0  0
   39.9140   27.0700   38.7470 O   0  0  0  0  0  0  0  0  0  0  0  0
   39.0080   28.1690   39.3060 P   0  0  1  0  0  0  0  0  0  0  0  0
   38.2500   27.6910   40.7110 O   0  0  0  0  0  0  0  0  0  0  0  0
   37.0540   28.5400   42.5340 C   0  0  1  0  0  3  0  0  0  0  0  0
   38.3770   28.5910   41.7550 C   0  0  1  0  0  3  0  0  0  0  0  0
   39.2340   27.9210   42.8100 C   0  0  0  0  0  3  0  0  0  0  0  0
   39.2810   28.5620   43.7250 H   0  0  0  0  0  0  0  0  0  0  0  0
   38.4780   26.7970   43.1210 O   0  0  0  0  0  0  0  0  0  0  0  0
   37.1410   27.0770   42.9240 C   0  0  0  0  0  3  0  0  0  0  0  0
   36.7950   26.5270   42.0020 H   0  0  0  0  0  0  0  0  0  0  0  0
   37.1370   29.2970   43.6800 O   0  0  0  0  0  0  0  0  0  0  0  0
   36.8710   28.8370   44.5140 H   0  0  0  0  0  0  0  0  0  0  0  0
   37.9370   28.6460   38.1040 O   0  0  0  0  0  0  0  0  0  0  0  0
   36.6670   28.1480   38.2890 C   0  0  0  0  0  0  0  0  0  0  0  0
   35.9670   28.7780   39.3030 F   0  0  0  0  0  0  0  0  0  0  0  0
   36.6110   26.7930   38.4750 F   0  0  0  0  0  0  0  0  0  0  0  0
   35.9900   28.4140   37.0890 F   0  0  0  0  0  0  0  0  0  0  0  0
  1  2  1  0  0  0  0
  2  3  2  0  0  0  0
  2  9  1  0  0  0  0
  3 24  1  0  0  0  0
  4  3  1  0  0  0  0
  5  4  2  0  0  0  0
  6  5  1  0  0  0  0
  6  1  2  0  0  0  0
  7  1  1  0  0  0  0
  8  5  1  0  0  0  0
  9 10  1  0  0  0  0
 10 11  1  0  0  0  0
 10 15  1  0  0  0  0
 11 12  1  0  0  0  0
 11 17  1  0  0  0  0
 13 21  1  0  0  0  0
 13 12  1  0  0  0  0
 14  9  1  0  0  0  0
 14 13  1  0  0  0  0
 16 10  1  0  0  0  0
 18 11  1  0  0  0  0
 19 12  1  0  0  0  0
 20 13  1  0  0  0  0
 22 14  1  0  0  0  0
 23 14  1  0  0  0  0
 26 25  2  6  0  0  0
 26 24  1  0  0  0  0
 26 27  1  0  0  0  0
 28 33  1  0  0  0  0
 28 35  1  1  0  0  0
 29 27  1  6  0  0  0
 29 28  1  0  0  0  0
 29 30  1  0  0  0  0
 30 32  1  0  0  0  0
 30 31  1  0  0  0  0
 33 32  1  0  0  0  0
 34 33  1  0  0  0  0
 35 36  1  0  0  0  0
 37 38  1  0  0  0  0
 37 26  1  0  0  0  0
 38 40  1  0  0  0  0
 38 39  1  0  0  0  0
 41 38  1  0  0  0  0
M  END
>  <minimizedAffinity>
-5.18582916

$$$$

 OpenBabel03242520313D

 41 43  0  0  1  0  0  0  0  0999 V2000
   40.3520   30.2440   37.8770 C   0  0  0  0  0  0  0  0  0  0  0  0
   39.5950   30.4370   39.0720 C   0  0  0  0  0  0  0  0  0  0  0  0
   39.1270   29.3120   39.7320 C   0  0  0  0  0  0  0  0  0  0  0  0
   39.3990   28.0890   39.2310 N   0  0  0  0  0  0  0  0  0  0  0  0
   40.1160   27.9200   38.1010 C   0  0  0  0  0  0  0  0  0  0  0  0
   40.5850   28.9890   37.4330 N   0  0  0  0  0  0  0  0  0  0  0  0
   40.7350   31.0980   37.3320 H   0  0  0  0  0  0  0  0  0  0  0  0
   40.2960   26.9130   37.7540 H   0  0  0  0  0  0  0  0  0  0  0  0
   39.4010   31.7920   39.4590 N   0  0  0  0  0  0  0  0  0  0  0  0
   40.2500   32.4680   40.4130 C   0  0  0  0  0  0  0  0  0  0  0  0
   39.8550   33.9210   40.5000 C   0  0  0  0  0  0  0  0  0  0  0  0
   38.4570   34.1100   40.7310 N   0  0  0  0  0  0  0  0  0  0  0  0
   37.6000   33.3840   39.8550 C   0  0  0  0  0  0  0  0  0  0  0  0
   38.2830   32.5080   38.8500 C   0  0  0  0  0  0  0  0  0  0  0  0
   40.3060   31.9790   41.3950 H   0  0  0  0  0  0  0  0  0  0  0  0
   41.2770   32.4550   39.9510 H   0  0  0  0  0  0  0  0  0  0  0  0
   40.4410   34.4790   41.2240 H   0  0  0  0  0  0  0  0  0  0  0  0
   40.0740   34.3530   39.4860 H   0  0  0  0  0  0  0  0  0  0  0  0
   38.2440   35.1260   40.6170 H   0  0  0  0  0  0  0  0  0  0  0  0
   36.8880   34.0310   39.2740 H   0  0  0  0  0  0  0  0  0  0  0  0
   36.9450   32.7240   40.4650 H   0  0  0  0  0  0  0  0  0  0  0  0
   38.6400   33.0880   37.9540 H   0  0  0  0  0  0  0  0  0  0  0  0
   37.5350   31.7870   38.4590 H   0  0  0  0  0  0  0  0  0  0  0  0
   38.4010   29.5430   40.8830 O   0  0  0  0  0  0  0  0  0  0  0  0
   36.1440   30.8270   41.4190 O   0  0  0  0  0  0  0  0  0  0  0  0
   36.6720   29.5260   40.8080 P   0  0  1  0  0  0  0  0  0  0  0  0
   36.2320   29.3710   39.2080 O   0  0  0  0  0  0  0  0  0  0  0  0
   34.3800   28.8310   37.8840 C   0  0  1  0  0  3  0  0  0  0  0  0
   35.3540   28.3310   38.9620 C   0  0  1  0  0  3  0  0  0  0  0  0
   36.0900   27.3320   38.0910 C   0  0  0  0  0  3  0  0  0  0  0  0
   35.3910   26.5190   37.7700 H   0  0  0  0  0  0  0  0  0  0  0  0
   36.3890   28.0970   36.9690 O   0  0  0  0  0  0  0  0  0  0  0  0
   35.4230   29.0680   36.8090 C   0  0  0  0  0  3  0  0  0  0  0  0
   35.8740   30.0660   37.0800 H   0  0  0  0  0  0  0  0  0  0  0  0
   33.5540   27.8130   37.4670 O   0  0  0  0  0  0  0  0  0  0  0  0
   33.5130   27.6730   36.4880 H   0  0  0  0  0  0  0  0  0  0  0  0
   36.1660   28.2410   41.7620 O   0  0  0  0  0  0  0  0  0  0  0  0
   36.9970   28.0110   42.8360 C   0  0  0  0  0  0  0  0  0  0  0  0
   37.2890   29.1500   43.5660 F   0  0  0  0  0  0  0  0  0  0  0  0
   38.1620   27.3640   42.5220 F   0  0  0  0  0  0  0  0  0  0  0  0
   36.2770   27.1500   43.6790 F   0  0  0  0  0  0  0  0  0  0  0  0
  1  2  1  0  0  0  0
  2  9  1  0  0  0  0
  2  3  2  0  0  0  0
  3 24  1  0  0  0  0
  4  3  1  0  0  0  0
  5  4  2  0  0  0  0
  6  1  2  0  0  0  0
  6  5  1  0  0  0  0
  7  1  1  0  0  0  0
  8  5  1  0  0  0  0
  9 10  1  0  0  0  0
 10 11  1  0  0  0  0
 10 15  1  0  0  0  0
 11 12  1  0  0  0  0
 11 17  1  0  0  0  0
 13 21  1  0  0  0  0
 13 12  1  0  0  0  0
 14  9  1  0  0  0  0
 14 13  1  0  0  0  0
 16 10  1  0  0  0  0
 18 11  1  0  0  0  0
 19 12  1  0  0  0  0
 20 13  1  0  0  0  0
 22 14  1  0  0  0  0
 23 14  1  0  0  0  0
 26 24  1  0  0  0  0
 26 25  2  1  0  0  0
 26 37  1  0  0  0  0
 27 26  1  0  0  0  0
 28 35  1  6  0  0  0
 28 29  1  0  0  0  0
 29 27  1  6  0  0  0
 30 29  1  0  0  0  0
 31 30  1  0  0  0  0
 32 30  1  0  0  0  0
 33 32  1  0  0  0  0
 33 34  1  0  0  0  0
 33 28  1  0  0  0  0
 36 35  1  0  0  0  0
 37 38  1  0  0  0  0
 38 39  1  0  0  0  0
 38 41  1  0  0  0  0
 40 38  1  0  0  0  0
M  END
>  <minimizedAffinity>
-5.17138147

$$$$

 OpenBabel03242520313D

 41 43  0  0  1  0  0  0  0  0999 V2000
   37.7000   31.3400   37.2990 C   0  0  0  0  0  0  0  0  0  0  0  0
   38.8190   31.1590   38.1660 C   0  0  0  0  0  0  0  0  0  0  0  0
   39.3480   29.8830   38.2860 C   0  0  0  0  0  0  0  0  0  0  0  0
   38.7940   28.8700   37.5880 N   0  0  0  0  0  0  0  0  0  0  0  0
   37.7370   29.0530   36.7710 C   0  0  0  0  0  0  0  0  0  0  0  0
   37.1980   30.2780   36.6310 N   0  0  0  0  0  0  0  0  0  0  0  0
   37.2580   32.3220   37.1790 H   0  0  0  0  0  0  0  0  0  0  0  0
   37.3420   28.1990   36.2420 H   0  0  0  0  0  0  0  0  0  0  0  0
   39.2760   32.3340   38.8260 N   0  0  0  0  0  0  0  0  0  0  0  0
   40.6250   32.8340   38.6990 C   0  0  0  0  0  0  0  0  0  0  0  0
   40.7430   34.1560   39.4140 C   0  0  0  0  0  0  0  0  0  0  0  0
   40.2640   34.1120   40.7610 N   0  0  0  0  0  0  0  0  0  0  0  0
   38.9690   33.5420   40.9190 C   0  0  0  0  0  0  0  0  0  0  0  0
   38.3150   33.0460   39.6650 C   0  0  0  0  0  0  0  0  0  0  0  0
   41.4030   32.1160   38.9940 H   0  0  0  0  0  0  0  0  0  0  0  0
   40.7510   33.0630   37.6040 H   0  0  0  0  0  0  0  0  0  0  0  0
   41.7460   34.5720   39.3790 H   0  0  0  0  0  0  0  0  0  0  0  0
   40.0670   34.8610   38.8570 H   0  0  0  0  0  0  0  0  0  0  0  0
   40.2300   35.0900   41.1250 H   0  0  0  0  0  0  0  0  0  0  0  0
   38.2250   34.2290   41.4070 H   0  0  0  0  0  0  0  0  0  0  0  0
   39.0430   32.6740   41.6080 H   0  0  0  0  0  0  0  0  0  0  0  0
   37.8340   33.8760   39.0790 H   0  0  0  0  0  0  0  0  0  0  0  0
   37.4860   32.3680   39.9570 H   0  0  0  0  0  0  0  0  0  0  0  0
   40.4280   29.7520   39.1330 O   0  0  0  0  0  0  0  0  0  0  0  0
   40.5160   30.5600   41.6570 O   0  0  0  0  0  0  0  0  0  0  0  0
   40.1560   29.3480   40.7940 P   0  0  1  0  0  0  0  0  0  0  0  0
   38.5520   28.9260   40.9590 O   0  0  0  0  0  0  0  0  0  0  0  0
   36.5240   30.0860   40.8390 C   0  0  1  0  0  3  0  0  0  0  0  0
   37.7960   29.8450   41.6650 C   0  0  1  0  0  3  0  0  0  0  0  0
   37.1350   29.0890   42.8000 C   0  0  0  0  0  3  0  0  0  0  0  0
   36.4240   29.7620   43.3420 H   0  0  0  0  0  0  0  0  0  0  0  0
   36.3810   28.1450   42.1130 O   0  0  0  0  0  0  0  0  0  0  0  0
   36.0170   28.6570   40.8850 C   0  0  0  0  0  3  0  0  0  0  0  0
   36.6170   28.1280   40.0890 H   0  0  0  0  0  0  0  0  0  0  0  0
   35.6390   30.8790   41.5320 O   0  0  0  0  0  0  0  0  0  0  0  0
   34.7180   30.5250   41.6070 H   0  0  0  0  0  0  0  0  0  0  0  0
   41.2120   28.0950   41.1590 O   0  0  0  0  0  0  0  0  0  0  0  0
   40.7740   27.3110   42.2030 C   0  0  0  0  0  0  0  0  0  0  0  0
   39.8380   26.3630   41.8300 F   0  0  0  0  0  0  0  0  0  0  0  0
   40.3010   28.0140   43.2790 F   0  0  0  0  0  0  0  0  0  0  0  0
   41.9130   26.6210   42.6470 F   0  0  0  0  0  0  0  0  0  0  0  0
  1  2  1  0  0  0  0
  2  3  2  0  0  0  0
  2  9  1  0  0  0  0
  3 24  1  0  0  0  0
  4  3  1  0  0  0  0
  5  4  2  0  0  0  0
  6  5  1  0  0  0  0
  6  1  2  0  0  0  0
  7  1  1  0  0  0  0
  8  5  1  0  0  0  0
  9 14  1  0  0  0  0
 10  9  1  0  0  0  0
 10 15  1  0  0  0  0
 10 11  1  0  0  0  0
 11 12  1  0  0  0  0
 12 13  1  0  0  0  0
 12 19  1  0  0  0  0
 13 20  1  0  0  0  0
 13 21  1  0  0  0  0
 14 23  1  0  0  0  0
 14 13  1  0  0  0  0
 16 10  1  0  0  0  0
 17 11  1  0  0  0  0
 18 11  1  0  0  0  0
 22 14  1  0  0  0  0
 24 26  1  0  0  0  0
 26 27  1  0  0  0  0
 26 37  1  0  0  0  0
 26 25  2  1  0  0  0
 28 33  1  0  0  0  0
 28 35  1  1  0  0  0
 28 29  1  0  0  0  0
 29 27  1  6  0  0  0
 29 30  1  0  0  0  0
 30 31  1  0  0  0  0
 32 30  1  0  0  0  0
 33 32  1  0  0  0  0
 34 33  1  0  0  0  0
 35 36  1  0  0  0  0
 37 38  1  0  0  0  0
 38 41  1  0  0  0  0
 38 40  1  0  0  0  0
 39 38  1  0  0  0  0
M  END
>  <minimizedAffinity>
-5.1656189

$$$$

 OpenBabel03242520313D

 41 43  0  0  1  0  0  0  0  0999 V2000
   37.3510   27.6710   37.5780 C   0  0  0  0  0  0  0  0  0  0  0  0
   37.2700   28.4310   38.7840 C   0  0  0  0  0  0  0  0  0  0  0  0
   36.8070   27.7930   39.9230 C   0  0  0  0  0  0  0  0  0  0  0  0
   36.4540   26.4930   39.8560 N   0  0  0  0  0  0  0  0  0  0  0  0
   36.5360   25.7840   38.7110 C   0  0  0  0  0  0  0  0  0  0  0  0
   36.9800   26.3720   37.5860 N   0  0  0  0  0  0  0  0  0  0  0  0
   37.7080   28.1350   36.6660 H   0  0  0  0  0  0  0  0  0  0  0  0
   36.2360   24.7470   38.7270 H   0  0  0  0  0  0  0  0  0  0  0  0
   37.6820   29.7890   38.6780 N   0  0  0  0  0  0  0  0  0  0  0  0
   36.7520   30.8880   38.5540 C   0  0  0  0  0  0  0  0  0  0  0  0
   37.5040   32.1930   38.5960 C   0  0  0  0  0  0  0  0  0  0  0  0
   38.5910   32.2460   37.6690 N   0  0  0  0  0  0  0  0  0  0  0  0
   39.4730   31.1300   37.7150 C   0  0  0  0  0  0  0  0  0  0  0  0
   39.1180   30.0550   38.6970 C   0  0  0  0  0  0  0  0  0  0  0  0
   36.0730   30.8110   37.6940 H   0  0  0  0  0  0  0  0  0  0  0  0
   36.1350   30.8560   39.4960 H   0  0  0  0  0  0  0  0  0  0  0  0
   36.8600   33.0610   38.4790 H   0  0  0  0  0  0  0  0  0  0  0  0
   37.9560   32.2480   39.6240 H   0  0  0  0  0  0  0  0  0  0  0  0
   39.1500   33.1040   37.8730 H   0  0  0  0  0  0  0  0  0  0  0  0
   40.5430   31.4020   37.9230 H   0  0  0  0  0  0  0  0  0  0  0  0
   39.4970   30.6530   36.7110 H   0  0  0  0  0  0  0  0  0  0  0  0
   39.4490   30.3080   39.7410 H   0  0  0  0  0  0  0  0  0  0  0  0
   39.6810   29.1380   38.4200 H   0  0  0  0  0  0  0  0  0  0  0  0
   36.7450   28.5640   41.0660 O   0  0  0  0  0  0  0  0  0  0  0  0
   36.3720   27.3290   43.3820 O   0  0  0  0  0  0  0  0  0  0  0  0
   37.4650   27.9720   42.5250 P   0  0  1  0  0  0  0  0  0  0  0  0
   38.6450   26.8740   42.1020 O   0  0  0  0  0  0  0  0  0  0  0  0
   39.3500   24.6540   42.3190 C   0  0  1  0  0  3  0  0  0  0  0  0
   38.8980   25.9170   43.0680 C   0  0  1  0  0  3  0  0  0  0  0  0
   40.2430   26.2550   43.6800 C   0  0  0  0  0  3  0  0  0  0  0  0
   40.5490   25.4510   44.3940 H   0  0  0  0  0  0  0  0  0  0  0  0
   41.0850   26.1820   42.5760 O   0  0  0  0  0  0  0  0  0  0  0  0
   40.5790   25.2680   41.6760 C   0  0  0  0  0  3  0  0  0  0  0  0
   40.1710   25.8320   40.7880 H   0  0  0  0  0  0  0  0  0  0  0  0
   39.7650   23.6870   43.2050 O   0  0  0  0  0  0  0  0  0  0  0  0
   40.6590   23.3010   43.0270 H   0  0  0  0  0  0  0  0  0  0  0  0
   38.0660   29.3120   43.3380 O   0  0  0  0  0  0  0  0  0  0  0  0
   38.9310   30.0600   42.5710 C   0  0  0  0  0  0  0  0  0  0  0  0
   39.7600   29.2990   41.7660 F   0  0  0  0  0  0  0  0  0  0  0  0
   39.6870   30.9550   43.2810 F   0  0  0  0  0  0  0  0  0  0  0  0
   38.1080   30.8180   41.7230 F   0  0  0  0  0  0  0  0  0  0  0  0
  1  6  2  0  0  0  0
  1  2  1  0  0  0  0
  2  3  2  0  0  0  0
  3 24  1  0  0  0  0
  4  3  1  0  0  0  0
  5  8  1  0  0  0  0
  5  4  2  0  0  0  0
  6  5  1  0  0  0  0
  7  1  1  0  0  0  0
  9 14  1  0  0  0  0
  9  2  1  0  0  0  0
 10 11  1  0  0  0  0
 10  9  1  0  0  0  0
 10 16  1  0  0  0  0
 11 18  1  0  0  0  0
 12 13  1  0  0  0  0
 12 19  1  0  0  0  0
 12 11  1  0  0  0  0
 13 20  1  0  0  0  0
 13 14  1  0  0  0  0
 14 22  1  0  0  0  0
 15 10  1  0  0  0  0
 17 11  1  0  0  0  0
 21 13  1  0  0  0  0
 23 14  1  0  0  0  0
 24 26  1  0  0  0  0
 26 37  1  0  0  0  0
 26 25  2  1  0  0  0
 27 26  1  0  0  0  0
 28 29  1  0  0  0  0
 28 35  1  1  0  0  0
 29 27  1  6  0  0  0
 29 30  1  0  0  0  0
 30 31  1  0  0  0  0
 32 30  1  0  0  0  0
 33 28  1  0  0  0  0
 33 32  1  0  0  0  0
 34 33  1  0  0  0  0
 36 35  1  0  0  0  0
 38 40  1  0  0  0  0
 38 37  1  0  0  0  0
 39 38  1  0  0  0  0
 41 38  1  0  0  0  0
M  END
>  <minimizedAffinity>
-5.16006088

$$$$

 OpenBabel03242520313D

 41 43  0  0  1  0  0  0  0  0999 V2000
   41.5770   31.0530   39.5930 C   0  0  0  0  0  0  0  0  0  0  0  0
   40.2150   30.8130   39.9450 C   0  0  0  0  0  0  0  0  0  0  0  0
   39.8670   29.5360   40.3580 C   0  0  0  0  0  0  0  0  0  0  0  0
   40.8150   28.5770   40.4130 N   0  0  0  0  0  0  0  0  0  0  0  0
   42.0990   28.8170   40.0780 C   0  0  0  0  0  0  0  0  0  0  0  0
   42.4720   30.0440   39.6720 N   0  0  0  0  0  0  0  0  0  0  0  0
   41.8880   32.0380   39.2650 H   0  0  0  0  0  0  0  0  0  0  0  0
   42.8070   28.0050   40.1430 H   0  0  0  0  0  0  0  0  0  0  0  0
   39.3470   31.9350   39.8290 N   0  0  0  0  0  0  0  0  0  0  0  0
   39.2160   32.9390   40.8590 C   0  0  0  0  0  0  0  0  0  0  0  0
   38.3230   34.0500   40.3700 C   0  0  0  0  0  0  0  0  0  0  0  0
   37.0740   33.5820   39.8550 N   0  0  0  0  0  0  0  0  0  0  0  0
   37.1760   32.5310   38.9000 C   0  0  0  0  0  0  0  0  0  0  0  0
   38.5630   32.0500   38.6020 C   0  0  0  0  0  0  0  0  0  0  0  0
   38.9140   32.5450   41.8390 H   0  0  0  0  0  0  0  0  0  0  0  0
   40.2430   33.3900   40.9590 H   0  0  0  0  0  0  0  0  0  0  0  0
   38.1620   34.8260   41.1130 H   0  0  0  0  0  0  0  0  0  0  0  0
   38.8700   34.5200   39.5080 H   0  0  0  0  0  0  0  0  0  0  0  0
   36.5910   34.3850   39.3950 H   0  0  0  0  0  0  0  0  0  0  0  0
   36.7080   32.7700   37.9060 H   0  0  0  0  0  0  0  0  0  0  0  0
   36.6040   31.6540   39.2740 H   0  0  0  0  0  0  0  0  0  0  0  0
   39.0940   32.7140   37.8660 H   0  0  0  0  0  0  0  0  0  0  0  0
   38.4830   31.0590   38.1050 H   0  0  0  0  0  0  0  0  0  0  0  0
   38.5410   29.3470   40.6890 O   0  0  0  0  0  0  0  0  0  0  0  0
   37.6420   28.2780   38.4370 O   0  0  0  0  0  0  0  0  0  0  0  0
   37.6620   28.0520   39.9500 P   0  0  1  0  0  0  0  0  0  0  0  0
   38.4230   26.6250   40.3530 O   0  0  0  0  0  0  0  0  0  0  0  0
   38.4690   24.5360   41.4060 C   0  0  1  0  0  3  0  0  0  0  0  0
   37.7960   25.9170   41.3630 C   0  0  1  0  0  3  0  0  0  0  0  0
   38.3560   26.4320   42.6740 C   0  0  0  0  0  3  0  0  0  0  0  0
   37.9630   25.8180   43.5230 H   0  0  0  0  0  0  0  0  0  0  0  0
   39.7090   26.1460   42.5380 O   0  0  0  0  0  0  0  0  0  0  0  0
   39.8630   25.0360   41.7330 C   0  0  0  0  0  3  0  0  0  0  0  0
   40.2740   25.3740   40.7380 H   0  0  0  0  0  0  0  0  0  0  0  0
   38.0100   23.8070   42.4780 O   0  0  0  0  0  0  0  0  0  0  0  0
   38.7100   23.4240   43.0630 H   0  0  0  0  0  0  0  0  0  0  0  0
   36.0900   28.1520   40.5290 O   0  0  0  0  0  0  0  0  0  0  0  0
   35.4710   29.3360   40.1980 C   0  0  0  0  0  0  0  0  0  0  0  0
   35.6620   29.7140   38.8810 F   0  0  0  0  0  0  0  0  0  0  0  0
   35.7830   30.3870   41.0200 F   0  0  0  0  0  0  0  0  0  0  0  0
   34.0980   29.0930   40.3670 F   0  0  0  0  0  0  0  0  0  0  0  0
  1  6  2  0  0  0  0
  1  2  1  0  0  0  0
  2  3  2  0  0  0  0
  3  4  1  0  0  0  0
  3 24  1  0  0  0  0
  5  8  1  0  0  0  0
  5  4  2  0  0  0  0
  6  5  1  0  0  0  0
  7  1  1  0  0  0  0
  9  2  1  0  0  0  0
  9 10  1  0  0  0  0
 10 16  1  0  0  0  0
 10 15  1  0  0  0  0
 11 10  1  0  0  0  0
 11 17  1  0  0  0  0
 12 11  1  0  0  0  0
 13 21  1  0  0  0  0
 13 12  1  0  0  0  0
 14 13  1  0  0  0  0
 14  9  1  0  0  0  0
 18 11  1  0  0  0  0
 19 12  1  0  0  0  0
 20 13  1  0  0  0  0
 22 14  1  0  0  0  0
 23 14  1  0  0  0  0
 26 25  2  6  0  0  0
 26 27  1  0  0  0  0
 26 37  1  0  0  0  0
 26 24  1  0  0  0  0
 28 33  1  0  0  0  0
 28 35  1  1  0  0  0
 29 27  1  6  0  0  0
 29 28  1  0  0  0  0
 29 30  1  0  0  0  0
 30 31  1  0  0  0  0
 32 30  1  0  0  0  0
 33 32  1  0  0  0  0
 34 33  1  0  0  0  0
 35 36  1  0  0  0  0
 38 41  1  0  0  0  0
 38 37  1  0  0  0  0
 38 40  1  0  0  0  0
 39 38  1  0  0  0  0
M  END
>  <minimizedAffinity>
-5.13673449

$$$$

 OpenBabel03242520313D

 41 43  0  0  1  0  0  0  0  0999 V2000
   36.5720   30.4140   37.9120 C   0  0  0  0  0  0  0  0  0  0  0  0
   36.8980   30.6280   39.2850 C   0  0  0  0  0  0  0  0  0  0  0  0
   36.2230   29.8800   40.2370 C   0  0  0  0  0  0  0  0  0  0  0  0
   35.2930   28.9880   39.8390 N   0  0  0  0  0  0  0  0  0  0  0  0
   34.9930   28.7940   38.5380 C   0  0  0  0  0  0  0  0  0  0  0  0
   35.6280   29.5030   37.5870 N   0  0  0  0  0  0  0  0  0  0  0  0
   37.0780   30.9790   37.1390 H   0  0  0  0  0  0  0  0  0  0  0  0
   34.2370   28.0640   38.2880 H   0  0  0  0  0  0  0  0  0  0  0  0
   37.9020   31.6070   39.5290 N   0  0  0  0  0  0  0  0  0  0  0  0
   37.6050   32.9430   39.9890 C   0  0  0  0  0  0  0  0  0  0  0  0
   38.8910   33.6780   40.2710 C   0  0  0  0  0  0  0  0  0  0  0  0
   39.8150   33.6320   39.1810 N   0  0  0  0  0  0  0  0  0  0  0  0
   40.0570   32.3320   38.6540 C   0  0  0  0  0  0  0  0  0  0  0  0
   39.2900   31.2140   39.2920 C   0  0  0  0  0  0  0  0  0  0  0  0
   36.9230   33.5050   39.3360 H   0  0  0  0  0  0  0  0  0  0  0  0
   37.1040   32.8040   40.9880 H   0  0  0  0  0  0  0  0  0  0  0  0
   38.7340   34.7030   40.5950 H   0  0  0  0  0  0  0  0  0  0  0  0
   39.3720   33.1260   41.1230 H   0  0  0  0  0  0  0  0  0  0  0  0
   40.7260   34.0180   39.5120 H   0  0  0  0  0  0  0  0  0  0  0  0
   41.1370   32.0230   38.6810 H   0  0  0  0  0  0  0  0  0  0  0  0
   39.7920   32.3290   37.5750 H   0  0  0  0  0  0  0  0  0  0  0  0
   39.7610   30.8690   40.2530 H   0  0  0  0  0  0  0  0  0  0  0  0
   39.3280   30.3390   38.6090 H   0  0  0  0  0  0  0  0  0  0  0  0
   36.5690   30.1180   41.5510 O   0  0  0  0  0  0  0  0  0  0  0  0
   37.1780   28.6580   43.6780 O   0  0  0  0  0  0  0  0  0  0  0  0
   37.7320   29.0900   42.3180 P   0  0  1  0  0  0  0  0  0  0  0  0
   37.9970   27.7850   41.3160 O   0  0  0  0  0  0  0  0  0  0  0  0
   37.0960   25.7940   40.4800 C   0  0  1  0  0  3  0  0  0  0  0  0
   37.3980   26.6130   41.7440 C   0  0  1  0  0  3  0  0  0  0  0  0
   38.5040   25.7240   42.2760 C   0  0  0  0  0  3  0  0  0  0  0  0
   38.0910   24.7180   42.5370 H   0  0  0  0  0  0  0  0  0  0  0  0
   39.3110   25.5700   41.1540 O   0  0  0  0  0  0  0  0  0  0  0  0
   38.5330   25.6570   40.0180 C   0  0  0  0  0  3  0  0  0  0  0  0
   38.7530   26.6400   39.5110 H   0  0  0  0  0  0  0  0  0  0  0  0
   36.6290   24.5440   40.8140 O   0  0  0  0  0  0  0  0  0  0  0  0
   37.0960   23.7860   40.3820 H   0  0  0  0  0  0  0  0  0  0  0  0
   39.1030   30.0240   42.5680 O   0  0  0  0  0  0  0  0  0  0  0  0
   40.2640   29.2830   42.5680 C   0  0  0  0  0  0  0  0  0  0  0  0
   40.6430   28.8440   41.3120 F   0  0  0  0  0  0  0  0  0  0  0  0
   40.2590   28.2230   43.4350 F   0  0  0  0  0  0  0  0  0  0  0  0
   41.2610   30.1620   43.0190 F   0  0  0  0  0  0  0  0  0  0  0  0
  1  2  1  0  0  0  0
  2  9  1  0  0  0  0
  2  3  2  0  0  0  0
  3 24  1  0  0  0  0
  4  3  1  0  0  0  0
  5  4  2  0  0  0  0
  6  1  2  0  0  0  0
  6  5  1  0  0  0  0
  7  1  1  0  0  0  0
  8  5  1  0  0  0  0
  9 10  1  0  0  0  0
 10 11  1  0  0  0  0
 10 16  1  0  0  0  0
 11 17  1  0  0  0  0
 11 18  1  0  0  0  0
 12 19  1  0  0  0  0
 12 11  1  0  0  0  0
 13 20  1  0  0  0  0
 13 12  1  0  0  0  0
 13 14  1  0  0  0  0
 14  9  1  0  0  0  0
 14 22  1  0  0  0  0
 15 10  1  0  0  0  0
 21 13  1  0  0  0  0
 23 14  1  0  0  0  0
 24 26  1  0  0  0  0
 26 37  1  0  0  0  0
 26 25  2  1  0  0  0
 27 26  1  0  0  0  0
 28 35  1  1  0  0  0
 28 29  1  0  0  0  0
 29 27  1  6  0  0  0
 29 30  1  0  0  0  0
 30 31  1  0  0  0  0
 32 30  1  0  0  0  0
 33 28  1  0  0  0  0
 33 32  1  0  0  0  0
 34 33  1  0  0  0  0
 36 35  1  0  0  0  0
 37 38  1  0  0  0  0
 38 41  1  0  0  0  0
 38 40  1  0  0  0  0
 39 38  1  0  0  0  0
M  END
>  <minimizedAffinity>
-5.08994579

$$$$
