
 OpenBabel03252506453D

 42 45  0  0  1  0  0  0  0  0999 V2000
   49.4180   33.3420   41.4570 N   0  0  1  0  0  0  0  0  0  0  0  0
   50.6840   33.1410   42.1310 C   0  0  0  0  0  0  0  0  0  0  0  0
   51.3150   31.8200   41.7930 C   0  0  0  0  0  0  0  0  0  0  0  0
   50.4620   30.7340   42.4250 C   0  0  0  0  0  0  0  0  0  0  0  0
   48.9940   31.0690   42.2900 C   0  0  0  0  0  0  0  0  0  0  0  0
   48.8140   32.0750   41.1860 C   0  0  2  0  0  0  0  0  0  0  0  0
   51.3490   34.0120   42.0050 H   0  0  0  0  0  0  0  0  0  0  0  0
   50.4490   33.0860   43.2310 H   0  0  0  0  0  0  0  0  0  0  0  0
   52.3090   31.8110   42.3050 H   0  0  0  0  0  0  0  0  0  0  0  0
   51.5170   31.6510   40.7340 H   0  0  0  0  0  0  0  0  0  0  0  0
   50.7510   30.6110   43.4970 H   0  0  0  0  0  0  0  0  0  0  0  0
   50.6690   29.7920   41.9250 H   0  0  0  0  0  0  0  0  0  0  0  0
   48.7590   31.6490   43.2360 H   0  0  0  0  0  0  0  0  0  0  0  0
   48.3110   30.2380   42.3010 H   0  0  0  0  0  0  0  0  0  0  0  0
   47.7080   32.3140   41.2500 H   0  0  0  0  0  0  0  0  0  0  0  0
   47.2310   34.5990   41.9950 C   0  0  1  0  0  0  0  0  0  0  0  0
   48.3220   35.5590   41.7000 C   0  0  0  0  0  0  0  0  0  0  0  0
   48.6470   34.2310   42.2530 C   0  0  2  0  0  0  0  0  0  0  0  0
   46.7510   34.1280   41.0980 H   0  0  0  0  0  0  0  0  0  0  0  0
   48.6290   35.8070   40.6730 H   0  0  0  0  0  0  0  0  0  0  0  0
   48.4560   36.4170   42.4050 H   0  0  0  0  0  0  0  0  0  0  0  0
   48.8880   34.1560   43.3530 H   0  0  0  0  0  0  0  0  0  0  0  0
   45.5200   36.0300   43.1550 C   0  0  0  0  0  0  0  0  0  0  0  0
   46.3240   34.8770   43.1080 C   0  0  0  0  0  0  0  0  0  0  0  0
   46.2100   33.9780   44.1940 C   0  0  0  0  0  0  0  0  0  0  0  0
   45.3490   34.2650   45.2050 N   0  0  0  0  0  0  0  0  0  0  0  0
   44.5950   35.3850   45.2100 C   0  0  0  0  0  0  0  0  0  0  0  0
   44.6730   36.2790   44.1840 N   0  0  0  0  0  0  0  0  0  0  0  0
   45.6070   36.7180   42.3260 H   0  0  0  0  0  0  0  0  0  0  0  0
   46.8090   33.0810   44.1990 H   0  0  0  0  0  0  0  0  0  0  0  0
   43.9010   35.6380   46.0020 H   0  0  0  0  0  0  0  0  0  0  0  0
   49.1720   31.5300   39.9360 N   0  0  0  0  0  0  0  0  0  0  0  0
   50.1860   31.5990   39.7790 H   0  0  0  0  0  0  0  0  0  0  0  0
   48.1740   32.9080   38.1390 C   0  0  1  0  0  3  0  0  0  0  0  0
   48.4190   31.5820   38.7930 C   0  0  2  0  0  3  0  0  0  0  0  0
   47.0480   30.9880   38.7550 C   0  0  0  0  0  3  0  0  0  0  0  0
   46.8720   30.2120   39.5010 H   0  0  0  0  0  0  0  0  0  0  0  0
   46.1360   32.0330   38.7470 O   0  0  0  0  0  0  0  0  0  0  0  0
   46.7790   33.2270   38.6080 C   0  0  0  0  0  3  0  0  0  0  0  0
   46.7030   33.8100   39.5200 H   0  0  0  0  0  0  0  0  0  0  0  0
   49.0960   33.8830   38.3580 O   0  0  0  0  0  0  0  0  0  0  0  0
   48.6400   34.6580   38.8110 H   0  0  0  0  0  0  0  0  0  0  0  0
  1  2  1  1  0  0  0
  1 18  1  0  0  0  0
  2  8  1  0  0  0  0
  3  2  1  0  0  0  0
  3  9  1  0  0  0  0
  3  4  1  0  0  0  0
  4 11  1  0  0  0  0
  5 14  1  0  0  0  0
  5  4  1  0  0  0  0
  5 13  1  0  0  0  0
  6 15  1  6  0  0  0
  6  1  1  0  0  0  0
  6  5  1  0  0  0  0
  7  2  1  0  0  0  0
 10  3  1  0  0  0  0
 12  4  1  0  0  0  0
 16 19  1  6  0  0  0
 16 18  1  0  0  0  0
 16 24  1  0  0  0  0
 17 16  1  0  0  0  0
 17 18  1  0  0  0  0
 17 21  1  0  0  0  0
 18 22  1  1  0  0  0
 20 17  1  0  0  0  0
 23 28  1  0  0  0  0
 24 23  2  0  0  0  0
 24 25  1  0  0  0  0
 25 30  1  0  0  0  0
 25 26  2  0  0  0  0
 26 27  1  0  0  0  0
 27 31  1  0  0  0  0
 28 27  2  0  0  0  0
 29 23  1  0  0  0  0
 32  6  1  0  0  0  0
 33 32  1  0  0  0  0
 34 41  1  1  0  0  0
 34 39  1  0  0  0  0
 34 35  1  0  0  0  0
 35 32  1  1  0  0  0
 36 35  1  0  0  0  0
 36 37  1  0  0  0  0
 38 36  1  0  0  0  0
 39 38  1  0  0  0  0
 39 40  1  0  0  0  0
 41 42  1  0  0  0  0
M  END
>  <minimizedAffinity>
-5.07359457

>  <minimizedRMSD>
1.71354926

$$$$
