REMARK  Name = 
REMARK  11 active torsions:
REMARK  status: ('A' for Active; 'I' for Inactive)
REMARK    1  A    between atoms: C_1  and  O_12
REMARK    2  A    between atoms: C_2  and  C_3
REMARK    3  A    between atoms: C_3  and  O_4
REMARK    4  A    between atoms: O_4  and  P_6
REMARK    5  A    between atoms: P_6  and  O_7
REMARK    6  A    between atoms: P_6  and  O_8
REMARK    7  A    between atoms: O_8  and  C_9
REMARK    8  A    between atoms: O_12  and  C_13
REMARK    9  A    between atoms: C_13  and  C_15
REMARK   10  A    between atoms: C_18  and  C_36
REMARK   11  A    between atoms: O_34  and  C_35
REMARK                            x       y       z     vdW  Elec       q    Type
REMARK                         _______ _______ _______ _____ _____    ______ ____
ROOT
ATOM      1  O   UNL     1      42.615  35.338  40.617  0.00  0.00    +0.000 OA
ENDROOT
BRANCH   1   2
ATOM      2  C   UNL     1      41.441  35.658  41.225  0.00  0.00    +0.000 C 
ATOM      3  H   UNL     1      41.445  35.627  42.350  0.00  0.00    +0.000 HD
ATOM      4  H   UNL     1      41.111  36.686  40.956  0.00  0.00    +0.000 HD
BRANCH   2   6
ATOM      5  C   UNL     1      40.295  33.531  41.573  0.00  0.00    +0.000 A 
ATOM      6  C   UNL     1      40.313  34.746  40.854  0.00  0.00    +0.000 A 
ATOM      7  C   UNL     1      39.334  34.954  39.939  0.00  0.00    +0.000 A 
ATOM      8  N   UNL     1      38.427  33.990  39.789  0.00  0.00    +0.000 NA
ATOM      9  C   UNL     1      38.400  32.853  40.454  0.00  0.00    +0.000 A 
ATOM     10  N   UNL     1      39.372  32.568  41.410  0.00  0.00    +0.000 NA
ATOM     11  H   UNL     1      41.031  33.272  42.323  0.00  0.00    +0.000 HD
ATOM     12  H   UNL     1      39.384  35.880  39.419  0.00  0.00    +0.000 HD
BRANCH   9  14
ATOM     13  C   UNL     1      37.632  30.566  40.911  0.00  0.00    +0.000 C 
ATOM     14  C   UNL     1      37.332  31.849  40.200  0.00  0.00    +0.000 C 
ATOM     15  C   UNL     1      37.497  31.421  38.737  0.00  0.00    +0.000 C 
ATOM     16  H   UNL     1      36.792  31.978  38.097  0.00  0.00    +0.000 HD
ATOM     17  O   UNL     1      37.227  30.041  38.725  0.00  0.00    +0.000 OA
ATOM     18  C   UNL     1      38.054  29.627  39.782  0.00  0.00    +0.000 C 
ATOM     19  H   UNL     1      37.825  28.577  40.038  0.00  0.00    +0.000 HD
BRANCH  13  20
ATOM     20  O   UNL     1      36.450  30.041  41.432  0.00  0.00    +0.000 OA
ATOM     21  H   UNL     1      35.837  29.831  40.676  0.00  0.00    +0.000 HD
ENDBRANCH  13  20
ENDBRANCH   9  14
ENDBRANCH   2   6
ENDBRANCH   1   2
BRANCH   1  22
ATOM     22  C   UNL     1      43.872  35.224  41.190  0.00  0.00    +0.000 C 
ATOM     23  C   UNL     1      43.967  35.576  42.467  0.00  0.00    +0.000 C 
BRANCH  23  24
ATOM     24  C   UNL     1      45.228  35.536  43.306  0.00  0.00    +0.000 C 
ATOM     25  H   UNL     1      46.012  35.145  42.606  0.00  0.00    +0.000 HD
ATOM     26  H   UNL     1      45.536  36.543  43.597  0.00  0.00    +0.000 HD
BRANCH  24  27
ATOM     27  O   UNL     1      45.010  34.657  44.345  0.00  0.00    +0.000 OA
BRANCH  27  29
ATOM     28  O   UNL     1      45.705  32.491  42.955  0.00  0.00    +0.000 OA
ATOM     29  P   UNL     1      45.999  33.300  44.197  0.00  0.00    +0.000 P 
BRANCH  29  30
ATOM     30  O   UNL     1      47.633  33.780  44.098  0.00  0.00    +0.000 OA
ATOM     31  H   UNL     1      47.715  34.541  44.753  0.00  0.00    +0.000 HD
ENDBRANCH  29  30
BRANCH  29  32
ATOM     32  O   UNL     1      45.858  32.326  45.567  0.00  0.00    +0.000 OA
BRANCH  32  33
ATOM     33  C   UNL     1      46.198  32.997  46.726  0.00  0.00    +0.000 C 
ATOM     34  C   UNL     1      47.052  32.301  47.742  0.00  0.00    +0.000 C 
ATOM     35  C   UNL     1      45.569  32.462  47.989  0.00  0.00    +0.000 C 
ATOM     36  H   UNL     1      46.346  34.091  46.679  0.00  0.00    +0.000 HD
ATOM     37  H   UNL     1      47.682  32.927  48.404  0.00  0.00    +0.000 HD
ATOM     38  H   UNL     1      47.422  31.303  47.457  0.00  0.00    +0.000 HD
ATOM     39  H   UNL     1      44.994  31.515  47.962  0.00  0.00    +0.000 HD
ATOM     40  H   UNL     1      45.225  33.151  48.774  0.00  0.00    +0.000 HD
ENDBRANCH  32  33
ENDBRANCH  29  32
ENDBRANCH  27  29
ENDBRANCH  24  27
ENDBRANCH  23  24
ENDBRANCH   1  22
TORSDOF 11
