
 OpenBabel03252500243D

 37 39  0  0  1  0  0  0  0  0999 V2000
   47.0100   29.8770   47.8360 C   0  0  2  0  0  0  0  0  0  0  0  0
   45.6140   30.2030   48.1800 C   0  0  2  0  0  0  0  0  0  0  0  0
   44.8100   29.4370   47.1960 C   0  0  0  0  0  0  0  0  0  0  0  0
   45.5350   28.3110   46.8480 O   0  0  0  0  0  0  0  0  0  0  0  0
   46.7810   28.4160   47.3710 C   0  0  0  0  0  0  0  0  0  0  0  0
   47.5370   30.2720   47.0070 H   0  0  0  0  0  0  0  0  0  0  0  0
   45.4230   29.8070   49.1910 H   0  0  0  0  0  0  0  0  0  0  0  0
   44.3210   29.9750   46.3840 H   0  0  0  0  0  0  0  0  0  0  0  0
   43.9140   28.9890   47.7320 H   0  0  0  0  0  0  0  0  0  0  0  0
   47.5550   28.0550   46.7000 H   0  0  0  0  0  0  0  0  0  0  0  0
   46.8390   27.7670   48.2920 H   0  0  0  0  0  0  0  0  0  0  0  0
   45.3580   31.5530   48.1780 O   0  0  0  0  0  0  0  0  0  0  0  0
   47.4600   32.8720   47.5240 O   0  0  0  0  0  0  0  0  0  0  0  0
   46.1960   32.2930   46.9470 P   0  0  1  0  0  0  0  0  0  0  0  0
   46.6170   31.1460   45.7740 O   0  0  0  0  0  0  0  0  0  0  0  0
   46.0580   31.2490   44.9720 H   0  0  0  0  0  0  0  0  0  0  0  0
   45.3280   33.5850   46.2360 O   0  0  0  0  0  0  0  0  0  0  0  0
   45.2000   35.7320   43.3950 C   0  0  0  0  0  0  0  0  0  0  0  0
   46.2840   35.3060   42.5810 C   0  0  0  0  0  0  0  0  0  0  0  0
   47.0500   34.2400   43.0790 C   0  0  0  0  0  0  0  0  0  0  0  0
   46.7240   33.6950   44.2640 N   0  0  0  0  0  0  0  0  0  0  0  0
   45.6800   34.1380   45.0040 C   0  0  0  0  0  0  0  0  0  0  0  0
   44.9260   35.1540   44.5620 N   0  0  0  0  0  0  0  0  0  0  0  0
   46.5070   35.7770   41.6320 H   0  0  0  0  0  0  0  0  0  0  0  0
   47.8900   33.8670   42.5090 H   0  0  0  0  0  0  0  0  0  0  0  0
   44.4400   36.7790   42.9160 O   0  0  0  0  0  0  0  0  0  0  0  0
   44.9640   37.6400   42.7100 H   0  0  0  0  0  0  0  0  0  0  0  0
   47.9310   29.9310   48.8240 O   0  0  0  0  0  0  0  0  0  0  0  0
   50.2210   29.3470   48.4390 C   0  0  2  0  0  3  0  0  0  0  0  0
   49.1480   30.3600   48.7990 C   0  0  2  0  0  3  0  0  0  0  0  0
   49.5770   30.5700   50.2620 C   0  0  0  0  0  3  0  0  0  0  0  0
   48.7000   30.8020   50.8990 H   0  0  0  0  0  0  0  0  0  0  0  0
   50.1150   29.3810   50.6980 O   0  0  0  0  0  0  0  0  0  0  0  0
   50.1170   28.4630   49.6610 C   0  0  0  0  0  3  0  0  0  0  0  0
   49.1700   27.8740   49.6210 H   0  0  0  0  0  0  0  0  0  0  0  0
   51.4520   29.9500   48.3840 O   0  0  0  0  0  0  0  0  0  0  0  0
   51.3720   30.8760   48.7200 H   0  0  0  0  0  0  0  0  0  0  0  0
  1  6  1  6  0  0  0
  1  2  1  0  0  0  0
  1 28  1  0  0  0  0
  2  7  1  1  0  0  0
  3  9  1  0  0  0  0
  3  2  1  0  0  0  0
  4  3  1  0  0  0  0
  4  5  1  0  0  0  0
  5  1  1  0  0  0  0
  5 11  1  0  0  0  0
  8  3  1  0  0  0  0
 10  5  1  0  0  0  0
 12  2  1  0  0  0  0
 14 13  2  1  0  0  0
 14 12  1  0  0  0  0
 15 14  1  0  0  0  0
 16 15  1  0  0  0  0
 17 14  1  0  0  0  0
 18 23  1  0  0  0  0
 19 20  1  0  0  0  0
 19 18  2  0  0  0  0
 20 21  2  0  0  0  0
 21 22  1  0  0  0  0
 22 17  1  0  0  0  0
 23 22  2  0  0  0  0
 24 19  1  0  0  0  0
 25 20  1  0  0  0  0
 26 18  1  0  0  0  0
 27 26  1  0  0  0  0
 29 36  1  1  0  0  0
 29 30  1  0  0  0  0
 29 34  1  0  0  0  0
 30 28  1  1  0  0  0
 30 31  1  0  0  0  0
 31 33  1  0  0  0  0
 31 32  1  0  0  0  0
 34 33  1  0  0  0  0
 35 34  1  0  0  0  0
 36 37  1  0  0  0  0
M  END
>  <minimizedAffinity>
-5.13645983

>  <minimizedRMSD>
0.718666315

$$$$
