
 OpenBabel03252500243D

 37 39  0  0  1  0  0  0  0  0999 V2000
   47.0070   29.8830   47.8670 C   0  0  2  0  0  0  0  0  0  0  0  0
   45.6060   30.2170   48.1820 C   0  0  2  0  0  0  0  0  0  0  0  0
   44.8180   29.4630   47.1750 C   0  0  0  0  0  0  0  0  0  0  0  0
   45.5440   28.3340   46.8350 O   0  0  0  0  0  0  0  0  0  0  0  0
   46.7780   28.4270   47.3870 C   0  0  0  0  0  0  0  0  0  0  0  0
   47.5550   30.2800   47.0540 H   0  0  0  0  0  0  0  0  0  0  0  0
   45.3890   29.8140   49.1860 H   0  0  0  0  0  0  0  0  0  0  0  0
   44.3520   30.0090   46.3560 H   0  0  0  0  0  0  0  0  0  0  0  0
   43.9080   29.0180   47.6880 H   0  0  0  0  0  0  0  0  0  0  0  0
   47.5650   28.0650   46.7310 H   0  0  0  0  0  0  0  0  0  0  0  0
   46.8110   27.7710   48.3040 H   0  0  0  0  0  0  0  0  0  0  0  0
   45.3580   31.5680   48.1840 O   0  0  0  0  0  0  0  0  0  0  0  0
   47.4650   32.8800   47.5280 O   0  0  0  0  0  0  0  0  0  0  0  0
   46.1980   32.3050   46.9520 P   0  0  1  0  0  0  0  0  0  0  0  0
   46.6130   31.1570   45.7790 O   0  0  0  0  0  0  0  0  0  0  0  0
   46.0540   31.2610   44.9770 H   0  0  0  0  0  0  0  0  0  0  0  0
   45.3340   33.6000   46.2420 O   0  0  0  0  0  0  0  0  0  0  0  0
   45.1980   35.7340   43.3920 C   0  0  0  0  0  0  0  0  0  0  0  0
   46.2780   35.3020   42.5750 C   0  0  0  0  0  0  0  0  0  0  0  0
   47.0440   34.2370   43.0750 C   0  0  0  0  0  0  0  0  0  0  0  0
   46.7220   33.6990   44.2640 N   0  0  0  0  0  0  0  0  0  0  0  0
   45.6820   34.1470   45.0060 C   0  0  0  0  0  0  0  0  0  0  0  0
   44.9280   35.1620   44.5630 N   0  0  0  0  0  0  0  0  0  0  0  0
   46.4980   35.7690   41.6230 H   0  0  0  0  0  0  0  0  0  0  0  0
   47.8800   33.8600   42.5030 H   0  0  0  0  0  0  0  0  0  0  0  0
   44.4380   36.7810   42.9120 O   0  0  0  0  0  0  0  0  0  0  0  0
   44.9630   37.6400   42.6990 H   0  0  0  0  0  0  0  0  0  0  0  0
   47.9050   29.9240   48.8770 O   0  0  0  0  0  0  0  0  0  0  0  0
   50.1720   29.4200   48.2960 C   0  0  2  0  0  3  0  0  0  0  0  0
   49.1240   30.3490   48.8820 C   0  0  2  0  0  3  0  0  0  0  0  0
   49.6130   30.2800   50.3420 C   0  0  0  0  0  3  0  0  0  0  0  0
   48.7630   30.3890   51.0450 H   0  0  0  0  0  0  0  0  0  0  0  0
   50.1570   29.0290   50.5230 O   0  0  0  0  0  0  0  0  0  0  0  0
   50.1110   28.3220   49.3340 C   0  0  0  0  0  3  0  0  0  0  0  0
   49.1580   27.7510   49.2230 H   0  0  0  0  0  0  0  0  0  0  0  0
   51.4070   30.0200   48.3050 O   0  0  0  0  0  0  0  0  0  0  0  0
   51.3470   30.8680   48.8110 H   0  0  0  0  0  0  0  0  0  0  0  0
  1  6  1  6  0  0  0
  1  2  1  0  0  0  0
  1 28  1  0  0  0  0
  2 12  1  0  0  0  0
  2  7  1  1  0  0  0
  3  9  1  0  0  0  0
  3  2  1  0  0  0  0
  4  3  1  0  0  0  0
  4  5  1  0  0  0  0
  5  1  1  0  0  0  0
  5 11  1  0  0  0  0
  8  3  1  0  0  0  0
 10  5  1  0  0  0  0
 14 13  2  1  0  0  0
 14 12  1  0  0  0  0
 15 14  1  0  0  0  0
 16 15  1  0  0  0  0
 17 14  1  0  0  0  0
 18 23  1  0  0  0  0
 19 20  1  0  0  0  0
 19 18  2  0  0  0  0
 20 21  2  0  0  0  0
 21 22  1  0  0  0  0
 22 17  1  0  0  0  0
 23 22  2  0  0  0  0
 24 19  1  0  0  0  0
 25 20  1  0  0  0  0
 26 18  1  0  0  0  0
 27 26  1  0  0  0  0
 29 36  1  1  0  0  0
 29 30  1  0  0  0  0
 29 34  1  0  0  0  0
 30 28  1  1  0  0  0
 30 31  1  0  0  0  0
 31 33  1  0  0  0  0
 31 32  1  0  0  0  0
 34 33  1  0  0  0  0
 35 34  1  0  0  0  0
 36 37  1  0  0  0  0
M  END
>  <minimizedAffinity>
-5.10319567

>  <minimizedRMSD>
0.475319207

$$$$
