
 OpenBabel03252500243D

 37 39  0  0  1  0  0  0  0  0999 V2000
   45.6300   30.0570   47.6730 C   0  0  2  0  0  0  0  0  0  0  0  0
   46.9350   30.7430   47.7010 C   0  0  2  0  0  0  0  0  0  0  0  0
   46.6140   32.1110   48.1780 C   0  0  0  0  0  0  0  0  0  0  0  0
   45.4940   32.0210   48.9870 O   0  0  0  0  0  0  0  0  0  0  0  0
   44.9870   30.7680   48.8900 C   0  0  0  0  0  0  0  0  0  0  0  0
   44.8840   30.2040   46.9360 H   0  0  0  0  0  0  0  0  0  0  0  0
   47.5590   30.2330   48.4540 H   0  0  0  0  0  0  0  0  0  0  0  0
   46.6390   32.9350   47.4670 H   0  0  0  0  0  0  0  0  0  0  0  0
   47.4170   32.4330   48.9150 H   0  0  0  0  0  0  0  0  0  0  0  0
   43.9010   30.7500   48.8710 H   0  0  0  0  0  0  0  0  0  0  0  0
   45.2910   30.1870   49.8080 H   0  0  0  0  0  0  0  0  0  0  0  0
   47.5870   30.7140   46.4930 O   0  0  0  0  0  0  0  0  0  0  0  0
   47.3590   31.2610   43.9960 O   0  0  0  0  0  0  0  0  0  0  0  0
   46.5970   31.3030   45.2930 P   0  0  1  0  0  0  0  0  0  0  0  0
   45.2290   30.3160   45.1460 O   0  0  0  0  0  0  0  0  0  0  0  0
   44.4380   30.7610   45.5230 H   0  0  0  0  0  0  0  0  0  0  0  0
   46.1350   32.9300   45.5530 O   0  0  0  0  0  0  0  0  0  0  0  0
   44.8230   35.8030   43.9060 C   0  0  0  0  0  0  0  0  0  0  0  0
   44.2180   35.2890   42.7270 C   0  0  0  0  0  0  0  0  0  0  0  0
   44.2960   33.8990   42.5470 C   0  0  0  0  0  0  0  0  0  0  0  0
   44.9210   33.1520   43.4740 N   0  0  0  0  0  0  0  0  0  0  0  0
   45.4830   33.6900   44.5820 C   0  0  0  0  0  0  0  0  0  0  0  0
   45.4280   35.0130   44.7880 N   0  0  0  0  0  0  0  0  0  0  0  0
   43.7250   35.9330   42.0080 H   0  0  0  0  0  0  0  0  0  0  0  0
   43.8560   33.4430   41.6710 H   0  0  0  0  0  0  0  0  0  0  0  0
   44.7520   37.1690   44.0930 O   0  0  0  0  0  0  0  0  0  0  0  0
   45.1460   37.7350   43.3300 H   0  0  0  0  0  0  0  0  0  0  0  0
   45.6220   28.7150   47.8370 O   0  0  0  0  0  0  0  0  0  0  0  0
   44.5530   26.6850   48.5200 C   0  0  2  0  0  3  0  0  0  0  0  0
   44.7000   27.8530   47.5620 C   0  0  2  0  0  3  0  0  0  0  0  0
   45.1960   27.0400   46.3530 C   0  0  0  0  0  3  0  0  0  0  0  0
   45.8850   27.6430   45.7290 H   0  0  0  0  0  0  0  0  0  0  0  0
   45.9030   25.9690   46.8520 O   0  0  0  0  0  0  0  0  0  0  0  0
   45.8660   25.9910   48.2360 C   0  0  0  0  0  3  0  0  0  0  0  0
   46.7070   26.5850   48.6680 H   0  0  0  0  0  0  0  0  0  0  0  0
   43.4980   25.8880   48.1480 O   0  0  0  0  0  0  0  0  0  0  0  0
   43.1630   26.1900   47.2690 H   0  0  0  0  0  0  0  0  0  0  0  0
  1  6  1  6  0  0  0
  1  2  1  0  0  0  0
  1 28  1  0  0  0  0
  1  5  1  0  0  0  0
  2  3  1  0  0  0  0
  2  7  1  1  0  0  0
  3  9  1  0  0  0  0
  3  4  1  0  0  0  0
  5  4  1  0  0  0  0
  5 11  1  0  0  0  0
  8  3  1  0  0  0  0
 10  5  1  0  0  0  0
 12  2  1  0  0  0  0
 14 13  2  6  0  0  0
 14 17  1  0  0  0  0
 14 12  1  0  0  0  0
 15 14  1  0  0  0  0
 15 16  1  0  0  0  0
 18 26  1  0  0  0  0
 18 23  1  0  0  0  0
 19 18  2  0  0  0  0
 20 19  1  0  0  0  0
 20 21  2  0  0  0  0
 21 22  1  0  0  0  0
 22 23  2  0  0  0  0
 22 17  1  0  0  0  0
 24 19  1  0  0  0  0
 25 20  1  0  0  0  0
 27 26  1  0  0  0  0
 29 36  1  6  0  0  0
 30 28  1  1  0  0  0
 30 29  1  0  0  0  0
 31 33  1  0  0  0  0
 31 30  1  0  0  0  0
 32 31  1  0  0  0  0
 33 34  1  0  0  0  0
 34 29  1  0  0  0  0
 34 35  1  0  0  0  0
 37 36  1  0  0  0  0
M  END
>  <minimizedAffinity>
-4.92816687

>  <minimizedRMSD>
4.14405298

$$$$
