
 OpenBabel03252500243D

 37 39  0  0  1  0  0  0  0  0999 V2000
   48.9140   30.8640   43.3210 C   0  0  2  0  0  0  0  0  0  0  0  0
   48.7970   31.0580   41.8640 C   0  0  2  0  0  0  0  0  0  0  0  0
   49.5690   29.9310   41.2860 C   0  0  0  0  0  0  0  0  0  0  0  0
   49.5050   28.8760   42.1800 O   0  0  0  0  0  0  0  0  0  0  0  0
   48.9380   29.3150   43.3300 C   0  0  0  0  0  0  0  0  0  0  0  0
   49.7770   31.0830   43.8940 H   0  0  0  0  0  0  0  0  0  0  0  0
   47.7320   30.9410   41.6010 H   0  0  0  0  0  0  0  0  0  0  0  0
   50.5410   30.1340   40.8380 H   0  0  0  0  0  0  0  0  0  0  0  0
   48.9980   29.5230   40.3920 H   0  0  0  0  0  0  0  0  0  0  0  0
   49.4050   28.9000   44.2190 H   0  0  0  0  0  0  0  0  0  0  0  0
   47.8640   28.9700   43.3540 H   0  0  0  0  0  0  0  0  0  0  0  0
   49.2220   32.2960   41.4470 O   0  0  0  0  0  0  0  0  0  0  0  0
   48.5900   33.2560   39.1530 O   0  0  0  0  0  0  0  0  0  0  0  0
   48.0410   33.0300   40.5360 P   0  0  1  0  0  0  0  0  0  0  0  0
   46.6940   32.0100   40.4190 O   0  0  0  0  0  0  0  0  0  0  0  0
   45.9600   32.3380   40.9840 H   0  0  0  0  0  0  0  0  0  0  0  0
   47.5810   34.5590   41.1510 O   0  0  0  0  0  0  0  0  0  0  0  0
   44.9030   35.9450   43.0500 C   0  0  0  0  0  0  0  0  0  0  0  0
   43.7290   35.4900   42.3900 C   0  0  0  0  0  0  0  0  0  0  0  0
   43.9290   34.6820   41.2590 C   0  0  0  0  0  0  0  0  0  0  0  0
   45.1840   34.3910   40.8740 N   0  0  0  0  0  0  0  0  0  0  0  0
   46.2720   34.8500   41.5370 C   0  0  0  0  0  0  0  0  0  0  0  0
   46.1210   35.6240   42.6210 N   0  0  0  0  0  0  0  0  0  0  0  0
   42.7380   35.7510   42.7390 H   0  0  0  0  0  0  0  0  0  0  0  0
   43.0790   34.3020   40.7110 H   0  0  0  0  0  0  0  0  0  0  0  0
   44.7190   36.7400   44.1620 O   0  0  0  0  0  0  0  0  0  0  0  0
   44.1630   37.5910   44.0040 H   0  0  0  0  0  0  0  0  0  0  0  0
   47.9150   31.3370   44.1010 O   0  0  0  0  0  0  0  0  0  0  0  0
   45.7830   32.4040   43.8890 C   0  0  2  0  0  3  0  0  0  0  0  0
   46.6400   31.1580   44.0110 C   0  0  2  0  0  3  0  0  0  0  0  0
   46.1510   30.7330   45.4080 C   0  0  0  0  0  3  0  0  0  0  0  0
   46.9560   30.2160   45.9660 H   0  0  0  0  0  0  0  0  0  0  0  0
   45.8350   31.8870   46.0890 O   0  0  0  0  0  0  0  0  0  0  0  0
   46.0250   32.9830   45.2640 C   0  0  0  0  0  3  0  0  0  0  0  0
   47.0660   33.3810   45.3280 H   0  0  0  0  0  0  0  0  0  0  0  0
   44.4610   32.0670   43.7340 O   0  0  0  0  0  0  0  0  0  0  0  0
   44.3610   31.0930   43.8710 H   0  0  0  0  0  0  0  0  0  0  0  0
  1  5  1  0  0  0  0
  1  6  1  1  0  0  0
  1 28  1  0  0  0  0
  2  7  1  6  0  0  0
  2  1  1  0  0  0  0
  3  2  1  0  0  0  0
  3  4  1  0  0  0  0
  4  5  1  0  0  0  0
  5 11  1  0  0  0  0
  5 10  1  0  0  0  0
  8  3  1  0  0  0  0
  9  3  1  0  0  0  0
 12  2  1  0  0  0  0
 14 13  2  6  0  0  0
 14 17  1  0  0  0  0
 14 12  1  0  0  0  0
 15 14  1  0  0  0  0
 15 16  1  0  0  0  0
 17 22  1  0  0  0  0
 18 26  1  0  0  0  0
 19 24  1  0  0  0  0
 19 18  2  0  0  0  0
 20 19  1  0  0  0  0
 21 20  2  0  0  0  0
 21 22  1  0  0  0  0
 22 23  2  0  0  0  0
 23 18  1  0  0  0  0
 25 20  1  0  0  0  0
 27 26  1  0  0  0  0
 29 36  1  1  0  0  0
 29 30  1  0  0  0  0
 29 34  1  0  0  0  0
 30 28  1  1  0  0  0
 30 31  1  0  0  0  0
 31 32  1  0  0  0  0
 31 33  1  0  0  0  0
 34 35  1  0  0  0  0
 34 33  1  0  0  0  0
 36 37  1  0  0  0  0
M  END
>  <minimizedAffinity>
-4.22766304

>  <minimizedRMSD>
5.8825202

$$$$
