
 OpenBabel03252503593D

 30 33  0  0  0  0  0  0  0  0999 V2000
   46.0670   31.7430   45.1410 C   0  0  0  0  0  0  0  0  0  0  0  0
   45.7780   33.0440   45.5570 C   0  0  0  0  0  0  0  0  0  0  0  0
   45.4850   33.2860   46.8730 C   0  0  0  0  0  0  0  0  0  0  0  0
   45.4770   32.2400   47.7710 C   0  0  0  0  0  0  0  0  0  0  0  0
   45.2360   32.1510   49.0850 N   0  0  0  0  0  0  0  0  0  0  0  0
   45.3500   30.8970   49.5290 C   0  0  0  0  0  0  0  0  0  0  0  0
   45.6870   30.0960   48.4470 C   0  0  0  0  0  0  0  0  0  0  0  0
   45.7630   30.9410   47.3610 C   0  0  0  0  0  0  0  0  0  0  0  0
   46.0590   30.7040   46.0310 C   0  0  0  0  0  0  0  0  0  0  0  0
   46.3070   31.4990   44.1000 H   0  0  0  0  0  0  0  0  0  0  0  0
   45.2600   34.2890   47.2050 H   0  0  0  0  0  0  0  0  0  0  0  0
   44.9870   32.9540   49.7070 H   0  0  0  0  0  0  0  0  0  0  0  0
   45.2090   30.5280   50.5530 H   0  0  0  0  0  0  0  0  0  0  0  0
   45.8580   29.0400   48.4310 H   0  0  0  0  0  0  0  0  0  0  0  0
   46.2820   29.6900   45.7160 H   0  0  0  0  0  0  0  0  0  0  0  0
   46.7980   35.0270   42.6710 C   0  0  0  0  0  0  0  0  0  0  0  0
   45.8680   36.0630   42.6250 C   0  0  0  0  0  0  0  0  0  0  0  0
   44.8750   36.0760   43.6050 C   0  0  0  0  0  0  0  0  0  0  0  0
   44.8730   35.0910   44.5340 N   0  0  0  0  0  0  0  0  0  0  0  0
   45.8080   34.0950   44.5390 C   0  0  0  0  0  0  0  0  0  0  0  0
   46.7650   34.0690   43.6060 N   0  0  0  0  0  0  0  0  0  0  0  0
   45.8330   36.8610   41.9100 H   0  0  0  0  0  0  0  0  0  0  0  0
   44.1090   36.8450   43.6460 H   0  0  0  0  0  0  0  0  0  0  0  0
   47.7920   35.0770   41.6320 C   0  0  0  0  0  0  0  0  0  0  0  0
   48.7780   35.8640   41.5670 O   0  0  0  0  0  0  0  0  0  0  0  0
   47.7040   34.1250   40.4820 C   0  0  0  0  0  3  0  0  0  0  0  0
   48.4190   32.8320   40.7760 C   0  0  0  0  0  2  0  0  0  0  0  0
   47.5300   31.7820   40.1800 C   0  0  0  0  0  2  0  0  0  0  0  0
   46.3150   32.4410   39.6130 C   0  0  0  0  0  2  0  0  0  0  0  0
   46.2440   33.7680   40.2970 C   0  0  0  0  0  2  0  0  0  0  0  0
  1  2  2  0  0  0  0
  1  9  1  0  0  0  0
  2  3  1  0  0  0  0
  3 11  1  0  0  0  0
  3  4  2  0  0  0  0
  4  5  1  0  0  0  0
  5  6  1  0  0  0  0
  5 12  1  0  0  0  0
  6 13  1  0  0  0  0
  7  6  2  0  0  0  0
  8  4  1  0  0  0  0
  8  7  1  0  0  0  0
  9  8  2  0  0  0  0
 10  1  1  0  0  0  0
 14  7  1  0  0  0  0
 15  9  1  0  0  0  0
 16 21  1  0  0  0  0
 17 16  2  0  0  0  0
 17 18  1  0  0  0  0
 18 23  1  0  0  0  0
 18 19  2  0  0  0  0
 19 20  1  0  0  0  0
 20  2  1  0  0  0  0
 21 20  2  0  0  0  0
 22 17  1  0  0  0  0
 24 16  1  0  0  0  0
 25 24  2  0  0  0  0
 26 27  1  0  0  0  0
 26 24  1  0  0  0  0
 28 27  1  0  0  0  0
 29 28  1  0  0  0  0
 29 30  1  0  0  0  0
 30 26  1  0  0  0  0
M  END
>  <minimizedAffinity>
-5.89792061

>  <minimizedRMSD>
0.233578265

$$$$
