
 OpenBabel03242521433D

 34 36  0  0  1  0  0  0  0  0999 V2000
   45.4660   34.9470   43.9200 C   0  0  0  0  0  0  0  0  0  0  0  0
   46.5650   34.2770   43.3600 C   0  0  0  0  0  0  0  0  0  0  0  0
   47.2510   33.3300   44.1480 C   0  0  0  0  0  0  0  0  0  0  0  0
   46.8140   33.1240   45.3860 N   0  0  0  0  0  0  0  0  0  0  0  0
   45.7500   33.7810   45.9090 C   0  0  0  0  0  0  0  0  0  0  0  0
   45.0730   34.6960   45.1770 N   0  0  0  0  0  0  0  0  0  0  0  0
   46.8250   34.5320   42.3360 H   0  0  0  0  0  0  0  0  0  0  0  0
   45.4470   33.5630   46.9280 H   0  0  0  0  0  0  0  0  0  0  0  0
   49.1980   33.5150   42.6100 C   0  0  2  0  0  0  0  0  0  0  0  0
   48.3820   32.6630   43.5160 C   0  0  2  0  0  0  0  0  0  0  0  0
   48.0090   31.6070   42.6330 O   0  0  0  0  0  0  0  0  0  0  0  0
   49.2150   31.2370   42.0820 C   0  0  0  0  0  0  0  0  0  0  0  0
   50.1490   32.4200   42.0820 C   0  0  1  0  0  0  0  0  0  0  0  0
   48.6610   33.8520   41.7040 H   0  0  0  0  0  0  0  0  0  0  0  0
   49.0280   32.2110   44.2930 H   0  0  0  0  0  0  0  0  0  0  0  0
   49.0400   30.9550   41.0220 H   0  0  0  0  0  0  0  0  0  0  0  0
   49.6560   30.3480   42.5770 H   0  0  0  0  0  0  0  0  0  0  0  0
   51.0010   32.3240   42.7740 H   0  0  0  0  0  0  0  0  0  0  0  0
   49.8330   34.5560   43.2160 O   0  0  0  0  0  0  0  0  0  0  0  0
   49.7530   34.4840   44.2020 H   0  0  0  0  0  0  0  0  0  0  0  0
   50.5890   32.7870   40.8170 O   0  0  0  0  0  0  0  0  0  0  0  0
   49.8390   33.0620   40.2520 H   0  0  0  0  0  0  0  0  0  0  0  0
   44.7480   35.9600   43.0780 C   0  0  0  0  0  0  0  0  0  0  0  0
   45.2330   36.0490   42.1050 H   0  0  0  0  0  0  0  0  0  0  0  0
   43.6940   35.6000   43.0260 H   0  0  0  0  0  0  0  0  0  0  0  0
   44.7810   38.5380   43.3290 C   0  0  0  0  0  0  0  0  0  0  0  0
   44.7720   38.6380   42.0720 O   0  0  0  0  0  0  0  0  0  0  0  0
   44.7510   37.2030   43.8290 N   0  0  0  0  0  0  0  0  0  0  0  0
   44.7290   37.1000   44.8850 H   0  0  0  0  0  0  0  0  0  0  0  0
   44.8180   39.6820   44.2680 C   0  0  0  0  0  3  0  0  0  0  0  0
   45.9700   40.5780   43.8630 C   0  0  0  0  0  2  0  0  0  0  0  0
   47.2110   39.9250   44.4450 C   0  0  0  0  0  2  0  0  0  0  0  0
   46.7050   39.3960   45.7640 C   0  0  0  0  0  2  0  0  0  0  0  0
   45.2250   39.1460   45.6220 C   0  0  0  0  0  2  0  0  0  0  0  0
  1  6  1  0  0  0  0
  2  1  2  0  0  0  0
  2  3  1  0  0  0  0
  3  4  2  0  0  0  0
  4  5  1  0  0  0  0
  5  8  1  0  0  0  0
  6  5  2  0  0  0  0
  7  2  1  0  0  0  0
  9 14  1  6  0  0  0
  9 19  1  0  0  0  0
  9 10  1  0  0  0  0
 10  3  1  0  0  0  0
 10 15  1  1  0  0  0
 11 10  1  0  0  0  0
 12 13  1  0  0  0  0
 12 17  1  0  0  0  0
 12 11  1  0  0  0  0
 13  9  1  0  0  0  0
 13 18  1  1  0  0  0
 16 12  1  0  0  0  0
 19 20  1  0  0  0  0
 21 13  1  0  0  0  0
 22 21  1  0  0  0  0
 23 28  1  0  0  0  0
 23  1  1  0  0  0  0
 24 23  1  0  0  0  0
 25 23  1  0  0  0  0
 26 28  1  0  0  0  0
 26 30  1  0  0  0  0
 27 26  2  0  0  0  0
 28 29  1  0  0  0  0
 30 34  1  0  0  0  0
 31 30  1  0  0  0  0
 31 32  1  0  0  0  0
 32 33  1  0  0  0  0
 34 33  1  0  0  0  0
M  END
>  <minimizedAffinity>
2.50919342

>  <minimizedRMSD>
1.26350176

$$$$
