
 OpenBabel03252507553D

 40 43  0  0  1  0  0  0  0  0999 V2000
   47.0650   34.8000   42.0190 C   0  0  2  0  0  0  0  0  0  0  0  0
   46.3050   34.2060   40.8340 C   0  0  0  0  0  0  0  0  0  0  0  0
   47.5250   33.9710   39.9160 C   0  0  0  0  0  0  0  0  0  0  0  0
   48.6170   33.5300   40.8400 C   0  0  1  0  0  0  0  0  0  0  0  0
   48.0820   33.7100   42.2280 C   0  0  0  0  0  0  0  0  0  0  0  0
   47.5040   35.7350   41.6780 H   0  0  0  0  0  0  0  0  0  0  0  0
   45.6090   34.9120   40.3910 H   0  0  0  0  0  0  0  0  0  0  0  0
   45.9190   33.2390   41.1490 H   0  0  0  0  0  0  0  0  0  0  0  0
   47.2550   33.2250   39.1510 H   0  0  0  0  0  0  0  0  0  0  0  0
   47.7310   34.9690   39.4870 H   0  0  0  0  0  0  0  0  0  0  0  0
   49.4950   34.1880   40.6660 H   0  0  0  0  0  0  0  0  0  0  0  0
   47.6520   32.8240   42.6880 H   0  0  0  0  0  0  0  0  0  0  0  0
   48.9120   34.1570   42.8470 H   0  0  0  0  0  0  0  0  0  0  0  0
   44.5190   36.0950   44.4750 C   0  0  0  0  0  0  0  0  0  0  0  0
   45.2810   36.0280   43.3150 C   0  0  0  0  0  0  0  0  0  0  0  0
   46.1760   34.9690   43.2050 C   0  0  0  0  0  0  0  0  0  0  0  0
   46.2850   34.0230   44.2350 N   0  0  0  0  0  0  0  0  0  0  0  0
   45.5130   34.1420   45.3450 C   0  0  0  0  0  0  0  0  0  0  0  0
   44.6350   35.1750   45.4610 N   0  0  0  0  0  0  0  0  0  0  0  0
   43.8130   36.9090   44.5890 H   0  0  0  0  0  0  0  0  0  0  0  0
   45.2200   36.7390   42.5050 H   0  0  0  0  0  0  0  0  0  0  0  0
   45.6750   33.3630   46.0770 H   0  0  0  0  0  0  0  0  0  0  0  0
   49.0150   32.0790   40.6950 C   0  0  2  0  0  0  0  0  0  0  0  0
   49.7560   31.5080   41.8160 C   0  0  0  0  0  0  0  0  0  0  0  0
   50.4070   31.6770   40.4860 C   0  0  1  0  0  0  0  0  0  0  0  0
   48.2370   31.4560   40.2220 H   0  0  0  0  0  0  0  0  0  0  0  0
   50.0750   32.1780   42.6480 H   0  0  0  0  0  0  0  0  0  0  0  0
   49.4950   30.4920   42.1810 H   0  0  0  0  0  0  0  0  0  0  0  0
   51.1670   32.4580   40.2900 H   0  0  0  0  0  0  0  0  0  0  0  0
   50.6370   30.5150   39.7080 O   0  0  0  0  0  0  0  0  0  0  0  0
   52.8910   31.5980   38.9680 O   0  0  0  0  0  0  0  0  0  0  0  0
   51.6480   30.9340   38.4320 P   0  0  1  0  0  0  0  0  0  0  0  0
   52.1370   29.5280   37.5810 O   0  0  0  0  0  0  0  0  0  0  0  0
   51.3390   29.2740   37.0270 H   0  0  0  0  0  0  0  0  0  0  0  0
   50.9480   31.9510   37.3190 O   0  0  0  0  0  0  0  0  0  0  0  0
   49.8780   31.2470   36.7360 C   0  0  0  0  0  3  0  0  0  0  0  0
   50.0120   31.1980   35.2360 C   0  0  0  0  0  2  0  0  0  0  0  0
   48.9090   32.0870   34.6990 C   0  0  0  0  0  2  0  0  0  0  0  0
   48.4940   32.9460   35.8730 C   0  0  0  0  0  2  0  0  0  0  0  0
   48.5610   31.9460   37.0060 C   0  0  0  0  0  2  0  0  0  0  0  0
  1  6  1  6  0  0  0
  1  5  1  0  0  0  0
  1 16  1  0  0  0  0
  2  8  1  0  0  0  0
  2  1  1  0  0  0  0
  3  2  1  0  0  0  0
  3  4  1  0  0  0  0
  4 11  1  6  0  0  0
  4  5  1  0  0  0  0
  5 12  1  0  0  0  0
  5 13  1  0  0  0  0
  7  2  1  0  0  0  0
  9  3  1  0  0  0  0
 10  3  1  0  0  0  0
 14 20  1  0  0  0  0
 14 19  1  0  0  0  0
 15 14  2  0  0  0  0
 16 15  1  0  0  0  0
 16 17  2  0  0  0  0
 17 18  1  0  0  0  0
 18 19  2  0  0  0  0
 18 22  1  0  0  0  0
 21 15  1  0  0  0  0
 23 26  1  6  0  0  0
 23  4  1  0  0  0  0
 23 24  1  0  0  0  0
 24 28  1  0  0  0  0
 24 27  1  0  0  0  0
 25 29  1  6  0  0  0
 25 23  1  0  0  0  0
 25 24  1  0  0  0  0
 30 25  1  0  0  0  0
 32 31  2  1  0  0  0
 32 30  1  0  0  0  0
 33 32  1  0  0  0  0
 34 33  1  0  0  0  0
 35 32  1  0  0  0  0
 36 40  1  0  0  0  0
 36 35  1  0  0  0  0
 37 36  1  0  0  0  0
 38 37  1  0  0  0  0
 38 39  1  0  0  0  0
 39 40  1  0  0  0  0
M  END
>  <minimizedAffinity>
-4.92277765

>  <minimizedRMSD>
3.06263065

$$$$
