
 OpenBabel03252507553D

 40 43  0  0  1  0  0  0  0  0999 V2000
   47.0710   34.7880   42.1910 C   0  0  2  0  0  0  0  0  0  0  0  0
   46.2510   34.3830   40.9660 C   0  0  0  0  0  0  0  0  0  0  0  0
   47.4310   34.2390   39.9780 C   0  0  0  0  0  0  0  0  0  0  0  0
   48.5370   33.6430   40.7930 C   0  0  1  0  0  0  0  0  0  0  0  0
   48.0550   33.6500   42.2120 C   0  0  0  0  0  0  0  0  0  0  0  0
   47.5300   35.7470   41.9610 H   0  0  0  0  0  0  0  0  0  0  0  0
   45.5660   35.1630   40.6490 H   0  0  0  0  0  0  0  0  0  0  0  0
   45.8420   33.3940   41.1620 H   0  0  0  0  0  0  0  0  0  0  0  0
   47.1100   33.6110   39.1310 H   0  0  0  0  0  0  0  0  0  0  0  0
   47.6570   35.2780   39.6810 H   0  0  0  0  0  0  0  0  0  0  0  0
   49.4310   34.2930   40.6760 H   0  0  0  0  0  0  0  0  0  0  0  0
   47.6110   32.7230   42.5640 H   0  0  0  0  0  0  0  0  0  0  0  0
   48.9200   33.9840   42.8540 H   0  0  0  0  0  0  0  0  0  0  0  0
   44.5360   35.7290   44.8140 C   0  0  0  0  0  0  0  0  0  0  0  0
   45.2440   35.7840   43.6190 C   0  0  0  0  0  0  0  0  0  0  0  0
   46.2280   34.8210   43.4210 C   0  0  0  0  0  0  0  0  0  0  0  0
   46.4750   33.8480   44.4000 N   0  0  0  0  0  0  0  0  0  0  0  0
   45.7500   33.8460   45.5480 C   0  0  0  0  0  0  0  0  0  0  0  0
   44.7850   34.7840   45.7500 N   0  0  0  0  0  0  0  0  0  0  0  0
   43.7630   36.4660   44.9960 H   0  0  0  0  0  0  0  0  0  0  0  0
   45.0770   36.5190   42.8470 H   0  0  0  0  0  0  0  0  0  0  0  0
   46.0200   33.0560   46.2350 H   0  0  0  0  0  0  0  0  0  0  0  0
   48.8800   32.2140   40.4400 C   0  0  2  0  0  0  0  0  0  0  0  0
   50.3020   31.8890   40.4170 C   0  0  0  0  0  0  0  0  0  0  0  0
   49.5000   31.8620   39.1620 C   0  0  1  0  0  0  0  0  0  0  0  0
   48.1890   31.4760   40.8830 H   0  0  0  0  0  0  0  0  0  0  0  0
   51.0450   32.7090   40.5520 H   0  0  0  0  0  0  0  0  0  0  0  0
   50.6510   30.9380   40.8740 H   0  0  0  0  0  0  0  0  0  0  0  0
   49.5930   32.6390   38.3780 H   0  0  0  0  0  0  0  0  0  0  0  0
   49.1740   30.5980   38.6100 O   0  0  0  0  0  0  0  0  0  0  0  0
   47.7830   29.5270   36.6820 O   0  0  0  0  0  0  0  0  0  0  0  0
   48.0850   30.8430   37.3530 P   0  0  1  0  0  0  0  0  0  0  0  0
   46.6090   31.4650   37.9640 O   0  0  0  0  0  0  0  0  0  0  0  0
   46.7980   32.4320   38.1530 H   0  0  0  0  0  0  0  0  0  0  0  0
   48.6160   31.9120   36.1970 O   0  0  0  0  0  0  0  0  0  0  0  0
   48.6630   31.2100   34.9790 C   0  0  0  0  0  3  0  0  0  0  0  0
   50.0810   31.0610   34.4910 C   0  0  0  0  0  2  0  0  0  0  0  0
   50.1880   31.9540   33.2700 C   0  0  0  0  0  2  0  0  0  0  0  0
   49.0120   32.8980   33.3730 C   0  0  0  0  0  2  0  0  0  0  0  0
   47.9350   31.9710   33.8900 C   0  0  0  0  0  2  0  0  0  0  0  0
  1  6  1  6  0  0  0
  1  5  1  0  0  0  0
  1 16  1  0  0  0  0
  2  8  1  0  0  0  0
  2  1  1  0  0  0  0
  3  4  1  0  0  0  0
  3  2  1  0  0  0  0
  4 11  1  6  0  0  0
  4  5  1  0  0  0  0
  5 12  1  0  0  0  0
  5 13  1  0  0  0  0
  7  2  1  0  0  0  0
  9  3  1  0  0  0  0
 10  3  1  0  0  0  0
 14 20  1  0  0  0  0
 14 19  1  0  0  0  0
 15 14  2  0  0  0  0
 16 15  1  0  0  0  0
 16 17  2  0  0  0  0
 17 18  1  0  0  0  0
 18 19  2  0  0  0  0
 18 22  1  0  0  0  0
 21 15  1  0  0  0  0
 23  4  1  0  0  0  0
 23 26  1  1  0  0  0
 24 23  1  0  0  0  0
 24 27  1  0  0  0  0
 24 28  1  0  0  0  0
 25 29  1  6  0  0  0
 25 24  1  0  0  0  0
 25 23  1  0  0  0  0
 30 25  1  0  0  0  0
 32 31  2  6  0  0  0
 32 33  1  0  0  0  0
 32 30  1  0  0  0  0
 33 34  1  0  0  0  0
 35 32  1  0  0  0  0
 36 35  1  0  0  0  0
 37 36  1  0  0  0  0
 38 39  1  0  0  0  0
 38 37  1  0  0  0  0
 39 40  1  0  0  0  0
 40 36  1  0  0  0  0
M  END
>  <minimizedAffinity>
-4.93138838

>  <minimizedRMSD>
4.47439432

$$$$
