
 OpenBabel03252504003D

 30 33  0  0  0  0  0  0  0  0999 V2000
   46.0860   31.7280   45.1040 C   0  0  0  0  0  0  0  0  0  0  0  0
   45.8180   33.0370   45.5070 C   0  0  0  0  0  0  0  0  0  0  0  0
   45.5270   33.2970   46.8210 C   0  0  0  0  0  0  0  0  0  0  0  0
   45.5010   32.2590   47.7290 C   0  0  0  0  0  0  0  0  0  0  0  0
   45.2570   32.1870   49.0430 N   0  0  0  0  0  0  0  0  0  0  0  0
   45.3490   30.9350   49.4990 C   0  0  0  0  0  0  0  0  0  0  0  0
   45.6750   30.1190   48.4250 C   0  0  0  0  0  0  0  0  0  0  0  0
   45.7660   30.9520   47.3310 C   0  0  0  0  0  0  0  0  0  0  0  0
   46.0590   30.6970   46.0040 C   0  0  0  0  0  0  0  0  0  0  0  0
   46.3230   31.4700   44.0660 H   0  0  0  0  0  0  0  0  0  0  0  0
   45.3190   34.3060   47.1430 H   0  0  0  0  0  0  0  0  0  0  0  0
   45.0210   32.9990   49.6570 H   0  0  0  0  0  0  0  0  0  0  0  0
   45.2010   30.5780   50.5260 H   0  0  0  0  0  0  0  0  0  0  0  0
   45.8280   29.0590   48.4190 H   0  0  0  0  0  0  0  0  0  0  0  0
   46.2660   29.6770   45.6990 H   0  0  0  0  0  0  0  0  0  0  0  0
   46.9340   35.0370   42.6680 C   0  0  0  0  0  0  0  0  0  0  0  0
   45.9610   36.0270   42.5470 C   0  0  0  0  0  0  0  0  0  0  0  0
   44.9060   36.0030   43.4600 C   0  0  0  0  0  0  0  0  0  0  0  0
   44.8880   35.0280   44.4000 N   0  0  0  0  0  0  0  0  0  0  0  0
   45.8660   34.0780   44.4790 C   0  0  0  0  0  0  0  0  0  0  0  0
   46.8840   34.0880   43.6120 N   0  0  0  0  0  0  0  0  0  0  0  0
   45.9370   36.8150   41.8210 H   0  0  0  0  0  0  0  0  0  0  0  0
   44.1040   36.7350   43.4400 H   0  0  0  0  0  0  0  0  0  0  0  0
   47.9910   35.1220   41.6970 C   0  0  0  0  0  0  0  0  0  0  0  0
   48.9470   35.9490   41.6910 O   0  0  0  0  0  0  0  0  0  0  0  0
   48.0170   34.1640   40.5490 C   0  0  0  0  0  3  0  0  0  0  0  0
   48.6950   32.8720   40.9210 C   0  0  0  0  0  2  0  0  0  0  0  0
   47.8680   31.8190   40.2450 C   0  0  0  0  0  2  0  0  0  0  0  0
   46.7170   32.4780   39.5540 C   0  0  0  0  0  2  0  0  0  0  0  0
   46.5820   33.8090   40.2210 C   0  0  0  0  0  2  0  0  0  0  0  0
  1  2  2  0  0  0  0
  1  9  1  0  0  0  0
  2  3  1  0  0  0  0
  3 11  1  0  0  0  0
  3  4  2  0  0  0  0
  4  5  1  0  0  0  0
  5  6  1  0  0  0  0
  5 12  1  0  0  0  0
  6 13  1  0  0  0  0
  7  6  2  0  0  0  0
  8  4  1  0  0  0  0
  8  7  1  0  0  0  0
  9  8  2  0  0  0  0
 10  1  1  0  0  0  0
 14  7  1  0  0  0  0
 15  9  1  0  0  0  0
 16 21  1  0  0  0  0
 17 16  2  0  0  0  0
 17 18  1  0  0  0  0
 18 19  2  0  0  0  0
 19 20  1  0  0  0  0
 20  2  1  0  0  0  0
 21 20  2  0  0  0  0
 22 17  1  0  0  0  0
 23 18  1  0  0  0  0
 24 16  1  0  0  0  0
 25 24  2  0  0  0  0
 26 27  1  0  0  0  0
 26 24  1  0  0  0  0
 28 27  1  0  0  0  0
 29 30  1  0  0  0  0
 29 28  1  0  0  0  0
 30 26  1  0  0  0  0
M  END
>  <minimizedAffinity>
-5.91244411

>  <minimizedRMSD>
0.373313904

$$$$
