
 OpenBabel03242521433D

 30 32  0  0  1  0  0  0  0  0999 V2000
   36.9270   28.3360   42.1790 C   0  0  0  0  0  0  0  0  0  0  0  0
   37.8010   29.4350   42.1330 C   0  0  0  0  0  0  0  0  0  0  0  0
   37.5100   30.4770   41.2520 C   0  0  0  0  0  0  0  0  0  0  0  0
   36.4080   30.3780   40.4900 N   0  0  0  0  0  0  0  0  0  0  0  0
   35.5840   29.2950   40.5640 C   0  0  0  0  0  0  0  0  0  0  0  0
   35.8390   28.2860   41.3970 N   0  0  0  0  0  0  0  0  0  0  0  0
   38.6510   29.4250   42.7770 H   0  0  0  0  0  0  0  0  0  0  0  0
   34.7240   29.3190   39.9050 H   0  0  0  0  0  0  0  0  0  0  0  0
   38.1840   32.5980   40.1380 C   0  0  2  0  0  0  0  0  0  0  0  0
   38.4340   31.5970   41.2300 C   0  0  2  0  0  0  0  0  0  0  0  0
   39.7710   31.2490   40.9580 O   0  0  0  0  0  0  0  0  0  0  0  0
   40.4010   32.4700   40.8330 C   0  0  0  0  0  0  0  0  0  0  0  0
   39.4080   33.5000   40.3670 C   0  0  1  0  0  0  0  0  0  0  0  0
   38.3530   32.1830   39.1260 H   0  0  0  0  0  0  0  0  0  0  0  0
   38.3820   32.1360   42.2140 H   0  0  0  0  0  0  0  0  0  0  0  0
   40.7320   32.7780   41.8560 H   0  0  0  0  0  0  0  0  0  0  0  0
   41.2980   32.4440   40.1820 H   0  0  0  0  0  0  0  0  0  0  0  0
   39.1000   34.1960   41.1670 H   0  0  0  0  0  0  0  0  0  0  0  0
   36.9920   33.2670   40.2670 O   0  0  0  0  0  0  0  0  0  0  0  0
   36.9960   33.7460   41.1300 H   0  0  0  0  0  0  0  0  0  0  0  0
   39.7450   34.1200   39.1780 O   0  0  0  0  0  0  0  0  0  0  0  0
   40.7290   34.2010   39.1580 H   0  0  0  0  0  0  0  0  0  0  0  0
   37.2600   27.2090   43.1330 C   0  0  0  0  0  0  0  0  0  0  0  0
   36.4290   26.5020   43.2050 H   0  0  0  0  0  0  0  0  0  0  0  0
   37.4590   27.7340   44.1020 H   0  0  0  0  0  0  0  0  0  0  0  0
   38.5440   26.6250   42.6470 C   0  0  0  0  0  3  0  0  0  0  0  0
   39.6420   26.6480   43.6760 C   0  0  0  0  0  2  0  0  0  0  0  0
   40.4970   25.4710   43.2050 C   0  0  0  0  0  2  0  0  0  0  0  0
   39.4430   24.4150   42.9360 C   0  0  0  0  0  2  0  0  0  0  0  0
   38.3640   25.1890   42.2350 C   0  0  0  0  0  2  0  0  0  0  0  0
  1 23  1  0  0  0  0
  2  1  1  0  0  0  0
  2  7  1  0  0  0  0
  3  2  2  0  0  0  0
  4  5  2  0  0  0  0
  4  3  1  0  0  0  0
  5  6  1  0  0  0  0
  6  1  2  0  0  0  0
  8  5  1  0  0  0  0
  9 14  1  6  0  0  0
  9 19  1  0  0  0  0
  9 13  1  0  0  0  0
  9 10  1  0  0  0  0
 10  3  1  0  0  0  0
 10 15  1  1  0  0  0
 11 10  1  0  0  0  0
 12 11  1  0  0  0  0
 12 16  1  0  0  0  0
 13 12  1  0  0  0  0
 13 18  1  1  0  0  0
 17 12  1  0  0  0  0
 19 20  1  0  0  0  0
 21 13  1  0  0  0  0
 22 21  1  0  0  0  0
 23 24  1  0  0  0  0
 23 25  1  0  0  0  0
 26 23  1  0  0  0  0
 26 27  1  0  0  0  0
 28 27  1  0  0  0  0
 29 28  1  0  0  0  0
 30 26  1  0  0  0  0
 30 29  1  0  0  0  0
M  END
>  <minimizedAffinity>
-5.90335608

$$$$

 OpenBabel03242521433D

 30 32  0  0  1  0  0  0  0  0999 V2000
   38.2410   30.8140   41.1410 C   0  0  0  0  0  0  0  0  0  0  0  0
   39.4080   31.3130   40.5400 C   0  0  0  0  0  0  0  0  0  0  0  0
   39.2800   32.2920   39.5540 C   0  0  0  0  0  0  0  0  0  0  0  0
   38.0460   32.7110   39.2280 N   0  0  0  0  0  0  0  0  0  0  0  0
   36.9370   32.2020   39.8360 C   0  0  0  0  0  0  0  0  0  0  0  0
   37.0310   31.2660   40.7800 N   0  0  0  0  0  0  0  0  0  0  0  0
   40.3450   30.9200   40.8660 H   0  0  0  0  0  0  0  0  0  0  0  0
   35.9930   32.6110   39.4960 H   0  0  0  0  0  0  0  0  0  0  0  0
   40.8460   32.1760   37.6230 C   0  0  2  0  0  0  0  0  0  0  0  0
   40.5070   32.7850   38.9540 C   0  0  2  0  0  0  0  0  0  0  0  0
   41.6770   32.4830   39.6800 O   0  0  0  0  0  0  0  0  0  0  0  0
   42.6900   32.9040   38.8420 C   0  0  0  0  0  0  0  0  0  0  0  0
   42.2220   32.8290   37.4140 C   0  0  1  0  0  0  0  0  0  0  0  0
   41.0780   31.0960   37.6900 H   0  0  0  0  0  0  0  0  0  0  0  0
   40.4300   33.8970   38.8190 H   0  0  0  0  0  0  0  0  0  0  0  0
   42.8780   33.9830   39.0660 H   0  0  0  0  0  0  0  0  0  0  0  0
   43.6430   32.3570   38.9880 H   0  0  0  0  0  0  0  0  0  0  0  0
   42.0010   33.8200   36.9810 H   0  0  0  0  0  0  0  0  0  0  0  0
   39.9470   32.4870   36.6330 O   0  0  0  0  0  0  0  0  0  0  0  0
   39.9270   33.4680   36.5270 H   0  0  0  0  0  0  0  0  0  0  0  0
   42.9930   32.0170   36.6030 O   0  0  0  0  0  0  0  0  0  0  0  0
   43.9270   32.0960   36.9120 H   0  0  0  0  0  0  0  0  0  0  0  0
   38.3930   29.7460   42.2020 C   0  0  0  0  0  0  0  0  0  0  0  0
   38.2900   30.1730   43.2040 H   0  0  0  0  0  0  0  0  0  0  0  0
   39.4180   29.3350   42.0170 H   0  0  0  0  0  0  0  0  0  0  0  0
   37.3980   28.6860   41.8640 C   0  0  0  0  0  3  0  0  0  0  0  0
   37.8980   27.6960   40.8470 C   0  0  0  0  0  2  0  0  0  0  0  0
   37.0550   26.4710   41.2050 C   0  0  0  0  0  2  0  0  0  0  0  0
   37.1720   26.4500   42.7160 C   0  0  0  0  0  2  0  0  0  0  0  0
   37.0120   27.8970   43.0860 C   0  0  0  0  0  2  0  0  0  0  0  0
  1 23  1  0  0  0  0
  2  7  1  0  0  0  0
  2  1  2  0  0  0  0
  3  2  1  0  0  0  0
  4  3  2  0  0  0  0
  4  5  1  0  0  0  0
  5  6  2  0  0  0  0
  6  1  1  0  0  0  0
  8  5  1  0  0  0  0
  9 14  1  1  0  0  0
  9 10  1  0  0  0  0
 10 15  1  6  0  0  0
 10  3  1  0  0  0  0
 10 11  1  0  0  0  0
 12 17  1  0  0  0  0
 12 16  1  0  0  0  0
 12 11  1  0  0  0  0
 13 18  1  6  0  0  0
 13  9  1  0  0  0  0
 13 12  1  0  0  0  0
 19  9  1  0  0  0  0
 20 19  1  0  0  0  0
 21 22  1  0  0  0  0
 21 13  1  0  0  0  0
 23 24  1  0  0  0  0
 25 23  1  0  0  0  0
 26 23  1  0  0  0  0
 26 30  1  0  0  0  0
 27 28  1  0  0  0  0
 27 26  1  0  0  0  0
 28 29  1  0  0  0  0
 29 30  1  0  0  0  0
M  END
>  <minimizedAffinity>
-5.41451216

$$$$

 OpenBabel03242521433D

 30 32  0  0  1  0  0  0  0  0999 V2000
   36.8670   28.9340   41.7300 C   0  0  0  0  0  0  0  0  0  0  0  0
   36.6320   27.6150   41.3070 C   0  0  0  0  0  0  0  0  0  0  0  0
   37.3050   26.5810   41.9580 C   0  0  0  0  0  0  0  0  0  0  0  0
   38.1430   26.8970   42.9590 N   0  0  0  0  0  0  0  0  0  0  0  0
   38.3430   28.1890   43.3410 C   0  0  0  0  0  0  0  0  0  0  0  0
   37.7140   29.1960   42.7360 N   0  0  0  0  0  0  0  0  0  0  0  0
   35.9480   27.4630   40.5030 H   0  0  0  0  0  0  0  0  0  0  0  0
   39.0400   28.3300   44.1590 H   0  0  0  0  0  0  0  0  0  0  0  0
   38.2380   24.3250   41.4740 C   0  0  2  0  0  0  0  0  0  0  0  0
   37.0390   25.2300   41.4950 C   0  0  2  0  0  0  0  0  0  0  0  0
   36.6270   25.1420   40.1500 O   0  0  0  0  0  0  0  0  0  0  0  0
   36.5990   23.7830   39.9140 C   0  0  0  0  0  0  0  0  0  0  0  0
   37.5880   23.0970   40.8170 C   0  0  1  0  0  0  0  0  0  0  0  0
   39.0030   24.6400   40.7390 H   0  0  0  0  0  0  0  0  0  0  0  0
   36.2600   24.7620   42.1550 H   0  0  0  0  0  0  0  0  0  0  0  0
   35.5830   23.4170   40.2070 H   0  0  0  0  0  0  0  0  0  0  0  0
   36.7610   23.5130   38.8510 H   0  0  0  0  0  0  0  0  0  0  0  0
   37.1070   22.5520   41.6480 H   0  0  0  0  0  0  0  0  0  0  0  0
   38.7480   24.0600   42.7210 O   0  0  0  0  0  0  0  0  0  0  0  0
   38.0430   23.6270   43.2600 H   0  0  0  0  0  0  0  0  0  0  0  0
   38.5580   22.3700   40.1510 O   0  0  0  0  0  0  0  0  0  0  0  0
   38.1370   21.9890   39.3440 H   0  0  0  0  0  0  0  0  0  0  0  0
   36.1380   30.0480   41.0090 C   0  0  0  0  0  0  0  0  0  0  0  0
   35.6710   30.7330   41.7210 H   0  0  0  0  0  0  0  0  0  0  0  0
   35.3860   29.5060   40.3800 H   0  0  0  0  0  0  0  0  0  0  0  0
   37.1420   30.6730   40.0990 C   0  0  0  0  0  3  0  0  0  0  0  0
   36.7450   30.6330   38.6470 C   0  0  0  0  0  2  0  0  0  0  0  0
   37.5110   31.8430   38.1100 C   0  0  0  0  0  2  0  0  0  0  0  0
   37.2140   32.8870   39.1670 C   0  0  0  0  0  2  0  0  0  0  0  0
   37.3630   32.1200   40.4490 C   0  0  0  0  0  2  0  0  0  0  0  0
  1  6  1  0  0  0  0
  2  1  2  0  0  0  0
  2  3  1  0  0  0  0
  3  4  2  0  0  0  0
  4  5  1  0  0  0  0
  5  8  1  0  0  0  0
  6  5  2  0  0  0  0
  7  2  1  0  0  0  0
  9 14  1  6  0  0  0
  9 10  1  0  0  0  0
  9 19  1  0  0  0  0
 10  3  1  0  0  0  0
 10 15  1  1  0  0  0
 11 10  1  0  0  0  0
 12 11  1  0  0  0  0
 12 16  1  0  0  0  0
 12 13  1  0  0  0  0
 13  9  1  0  0  0  0
 13 18  1  1  0  0  0
 17 12  1  0  0  0  0
 19 20  1  0  0  0  0
 21 13  1  0  0  0  0
 22 21  1  0  0  0  0
 23 24  1  0  0  0  0
 23  1  1  0  0  0  0
 25 23  1  0  0  0  0
 26 30  1  0  0  0  0
 26 23  1  0  0  0  0
 27 26  1  0  0  0  0
 28 27  1  0  0  0  0
 28 29  1  0  0  0  0
 29 30  1  0  0  0  0
M  END
>  <minimizedAffinity>
-5.39053774

$$$$

 OpenBabel03242521433D

 30 32  0  0  1  0  0  0  0  0999 V2000
   38.0860   26.7930   41.7360 C   0  0  0  0  0  0  0  0  0  0  0  0
   38.2470   28.1040   41.2590 C   0  0  0  0  0  0  0  0  0  0  0  0
   37.8110   29.1600   42.0600 C   0  0  0  0  0  0  0  0  0  0  0  0
   37.2590   28.8700   43.2500 N   0  0  0  0  0  0  0  0  0  0  0  0
   37.1210   27.5850   43.6790 C   0  0  0  0  0  0  0  0  0  0  0  0
   37.5280   26.5580   42.9330 N   0  0  0  0  0  0  0  0  0  0  0  0
   38.6970   28.2350   40.3010 H   0  0  0  0  0  0  0  0  0  0  0  0
   36.6630   27.4660   44.6540 H   0  0  0  0  0  0  0  0  0  0  0  0
   36.8610   31.0040   40.6850 C   0  0  2  0  0  0  0  0  0  0  0  0
   37.9930   30.5010   41.5360 C   0  0  2  0  0  0  0  0  0  0  0  0
   39.0700   30.6390   40.6370 O   0  0  0  0  0  0  0  0  0  0  0  0
   38.9320   31.9290   40.1690 C   0  0  0  0  0  0  0  0  0  0  0  0
   37.4840   32.3340   40.2330 C   0  0  1  0  0  0  0  0  0  0  0  0
   36.7460   30.4360   39.7420 H   0  0  0  0  0  0  0  0  0  0  0  0
   38.1290   31.2160   42.3920 H   0  0  0  0  0  0  0  0  0  0  0  0
   39.4880   32.5980   40.8730 H   0  0  0  0  0  0  0  0  0  0  0  0
   39.3540   32.0820   39.1550 H   0  0  0  0  0  0  0  0  0  0  0  0
   37.2700   33.0400   41.0540 H   0  0  0  0  0  0  0  0  0  0  0  0
   35.6860   31.1680   41.3760 O   0  0  0  0  0  0  0  0  0  0  0  0
   35.8400   31.8200   42.1010 H   0  0  0  0  0  0  0  0  0  0  0  0
   36.9410   32.7010   39.0150 O   0  0  0  0  0  0  0  0  0  0  0  0
   37.6530   33.1470   38.4990 H   0  0  0  0  0  0  0  0  0  0  0  0
   38.5540   25.6560   40.8530 C   0  0  0  0  0  0  0  0  0  0  0  0
   39.5420   25.3040   41.1620 H   0  0  0  0  0  0  0  0  0  0  0  0
   38.5620   26.1060   39.8270 H   0  0  0  0  0  0  0  0  0  0  0  0
   37.4750   24.6270   40.9020 C   0  0  0  0  0  3  0  0  0  0  0  0
   36.4380   24.7920   39.8240 C   0  0  0  0  0  2  0  0  0  0  0  0
   35.9370   23.3530   39.6890 C   0  0  0  0  0  2  0  0  0  0  0  0
   37.2390   22.5770   39.6700 C   0  0  0  0  0  2  0  0  0  0  0  0
   38.0420   23.2410   40.7510 C   0  0  0  0  0  2  0  0  0  0  0  0
  1  6  1  0  0  0  0
  2  1  2  0  0  0  0
  2  3  1  0  0  0  0
  3  4  2  0  0  0  0
  4  5  1  0  0  0  0
  5  8  1  0  0  0  0
  6  5  2  0  0  0  0
  7  2  1  0  0  0  0
  9 14  1  6  0  0  0
  9 19  1  0  0  0  0
  9 10  1  0  0  0  0
 10  3  1  0  0  0  0
 10 15  1  1  0  0  0
 11 10  1  0  0  0  0
 12 13  1  0  0  0  0
 12 11  1  0  0  0  0
 12 16  1  0  0  0  0
 13  9  1  0  0  0  0
 13 18  1  1  0  0  0
 17 12  1  0  0  0  0
 19 20  1  0  0  0  0
 21 13  1  0  0  0  0
 22 21  1  0  0  0  0
 23 26  1  0  0  0  0
 23 24  1  0  0  0  0
 23  1  1  0  0  0  0
 25 23  1  0  0  0  0
 27 26  1  0  0  0  0
 28 27  1  0  0  0  0
 29 28  1  0  0  0  0
 29 30  1  0  0  0  0
 30 26  1  0  0  0  0
M  END
>  <minimizedAffinity>
-5.32787609

$$$$

 OpenBabel03242521433D

 30 32  0  0  1  0  0  0  0  0999 V2000
   38.8850   24.9800   41.7050 C   0  0  0  0  0  0  0  0  0  0  0  0
   38.5080   26.2750   41.3120 C   0  0  0  0  0  0  0  0  0  0  0  0
   38.8300   27.3420   42.1520 C   0  0  0  0  0  0  0  0  0  0  0  0
   39.4850   27.0790   43.2950 N   0  0  0  0  0  0  0  0  0  0  0  0
   39.8330   25.8080   43.6410 C   0  0  0  0  0  0  0  0  0  0  0  0
   39.5380   24.7710   42.8580 N   0  0  0  0  0  0  0  0  0  0  0  0
   37.9920   26.3860   40.3860 H   0  0  0  0  0  0  0  0  0  0  0  0
   40.3580   25.7100   44.5830 H   0  0  0  0  0  0  0  0  0  0  0  0
   37.1210   29.1470   42.2830 C   0  0  2  0  0  0  0  0  0  0  0  0
   38.4270   28.6670   41.7150 C   0  0  2  0  0  0  0  0  0  0  0  0
   38.1600   28.7740   40.3360 O   0  0  0  0  0  0  0  0  0  0  0  0
   37.6520   30.0500   40.2060 C   0  0  0  0  0  0  0  0  0  0  0  0
   36.9950   30.4610   41.4960 C   0  0  1  0  0  0  0  0  0  0  0  0
   36.2550   28.5510   41.9370 H   0  0  0  0  0  0  0  0  0  0  0  0
   39.2230   29.4070   41.9990 H   0  0  0  0  0  0  0  0  0  0  0  0
   38.5200   30.7380   40.0510 H   0  0  0  0  0  0  0  0  0  0  0  0
   36.9670   30.1710   39.3430 H   0  0  0  0  0  0  0  0  0  0  0  0
   37.5910   31.1920   42.0700 H   0  0  0  0  0  0  0  0  0  0  0  0
   37.1500   29.3360   43.6430 O   0  0  0  0  0  0  0  0  0  0  0  0
   37.8430   30.0090   43.8490 H   0  0  0  0  0  0  0  0  0  0  0  0
   35.6580   30.7920   41.3740 O   0  0  0  0  0  0  0  0  0  0  0  0
   35.5410   31.2210   40.4930 H   0  0  0  0  0  0  0  0  0  0  0  0
   38.5210   23.8310   40.7900 C   0  0  0  0  0  0  0  0  0  0  0  0
   38.3480   22.9160   41.3630 H   0  0  0  0  0  0  0  0  0  0  0  0
   39.4060   23.7470   40.1090 H   0  0  0  0  0  0  0  0  0  0  0  0
   37.3560   24.3000   39.9840 C   0  0  0  0  0  3  0  0  0  0  0  0
   37.4250   23.8960   38.5360 C   0  0  0  0  0  2  0  0  0  0  0  0
   35.9390   23.8800   38.1750 C   0  0  0  0  0  2  0  0  0  0  0  0
   35.3440   23.1440   39.3590 C   0  0  0  0  0  2  0  0  0  0  0  0
   36.0650   23.7500   40.5280 C   0  0  0  0  0  2  0  0  0  0  0  0
  1  6  1  0  0  0  0
  2  1  2  0  0  0  0
  2  3  1  0  0  0  0
  3  4  2  0  0  0  0
  4  5  1  0  0  0  0
  5  8  1  0  0  0  0
  6  5  2  0  0  0  0
  7  2  1  0  0  0  0
  9 14  1  6  0  0  0
  9 19  1  0  0  0  0
 10 15  1  1  0  0  0
 10  3  1  0  0  0  0
 10  9  1  0  0  0  0
 11 10  1  0  0  0  0
 12 11  1  0  0  0  0
 12 13  1  0  0  0  0
 13 18  1  1  0  0  0
 13  9  1  0  0  0  0
 16 12  1  0  0  0  0
 17 12  1  0  0  0  0
 19 20  1  0  0  0  0
 21 13  1  0  0  0  0
 22 21  1  0  0  0  0
 23 24  1  0  0  0  0
 23  1  1  0  0  0  0
 25 23  1  0  0  0  0
 26 30  1  0  0  0  0
 26 23  1  0  0  0  0
 27 26  1  0  0  0  0
 28 27  1  0  0  0  0
 28 29  1  0  0  0  0
 29 30  1  0  0  0  0
M  END
>  <minimizedAffinity>
-5.28256369

$$$$

 OpenBabel03242521433D

 30 32  0  0  1  0  0  0  0  0999 V2000
   37.3170   28.2730   41.3380 C   0  0  0  0  0  0  0  0  0  0  0  0
   38.3060   29.1260   40.8190 C   0  0  0  0  0  0  0  0  0  0  0  0
   37.9040   30.3250   40.2300 C   0  0  0  0  0  0  0  0  0  0  0  0
   36.5900   30.6070   40.1890 N   0  0  0  0  0  0  0  0  0  0  0  0
   35.6620   29.7530   40.7050 C   0  0  0  0  0  0  0  0  0  0  0  0
   36.0180   28.6010   41.2720 N   0  0  0  0  0  0  0  0  0  0  0  0
   39.3230   28.8170   40.8980 H   0  0  0  0  0  0  0  0  0  0  0  0
   34.6320   30.0790   40.6180 H   0  0  0  0  0  0  0  0  0  0  0  0
   38.7000   31.7050   38.3180 C   0  0  2  0  0  0  0  0  0  0  0  0
   38.9510   31.1820   39.7040 C   0  0  2  0  0  0  0  0  0  0  0  0
   40.1920   30.5430   39.5150 O   0  0  0  0  0  0  0  0  0  0  0  0
   40.9500   31.4990   38.8710 C   0  0  0  0  0  0  0  0  0  0  0  0
   40.0450   32.4130   38.0900 C   0  0  1  0  0  0  0  0  0  0  0  0
   38.6920   30.9070   37.5510 H   0  0  0  0  0  0  0  0  0  0  0  0
   39.0860   32.0620   40.3890 H   0  0  0  0  0  0  0  0  0  0  0  0
   41.4370   32.1230   39.6620 H   0  0  0  0  0  0  0  0  0  0  0  0
   41.7520   31.0760   38.2330 H   0  0  0  0  0  0  0  0  0  0  0  0
   39.9250   33.4050   38.5590 H   0  0  0  0  0  0  0  0  0  0  0  0
   37.6250   32.5560   38.2380 O   0  0  0  0  0  0  0  0  0  0  0  0
   37.7920   33.3260   38.8330 H   0  0  0  0  0  0  0  0  0  0  0  0
   40.3120   32.4580   36.7340 O   0  0  0  0  0  0  0  0  0  0  0  0
   41.2880   32.3640   36.6240 H   0  0  0  0  0  0  0  0  0  0  0  0
   37.7660   26.9710   41.9660 C   0  0  0  0  0  0  0  0  0  0  0  0
   37.6790   27.0130   43.0550 H   0  0  0  0  0  0  0  0  0  0  0  0
   38.8280   26.8670   41.6260 H   0  0  0  0  0  0  0  0  0  0  0  0
   36.9600   25.9000   41.3100 C   0  0  0  0  0  3  0  0  0  0  0  0
   37.3990   25.5940   39.9030 C   0  0  0  0  0  2  0  0  0  0  0  0
   36.9360   24.1420   39.7700 C   0  0  0  0  0  2  0  0  0  0  0  0
   37.4070   23.5500   41.0830 C   0  0  0  0  0  2  0  0  0  0  0  0
   37.0430   24.6110   42.0810 C   0  0  0  0  0  2  0  0  0  0  0  0
  1 23  1  0  0  0  0
  2  7  1  0  0  0  0
  2  1  2  0  0  0  0
  3  2  1  0  0  0  0
  4  3  2  0  0  0  0
  4  5  1  0  0  0  0
  5  6  2  0  0  0  0
  6  1  1  0  0  0  0
  8  5  1  0  0  0  0
  9 14  1  6  0  0  0
  9 10  1  0  0  0  0
 10  3  1  0  0  0  0
 10 15  1  1  0  0  0
 11 10  1  0  0  0  0
 12 11  1  0  0  0  0
 12 16  1  0  0  0  0
 13  9  1  0  0  0  0
 13 18  1  1  0  0  0
 13 12  1  0  0  0  0
 17 12  1  0  0  0  0
 19  9  1  0  0  0  0
 19 20  1  0  0  0  0
 21 13  1  0  0  0  0
 22 21  1  0  0  0  0
 23 24  1  0  0  0  0
 25 23  1  0  0  0  0
 26 23  1  0  0  0  0
 26 30  1  0  0  0  0
 27 26  1  0  0  0  0
 28 27  1  0  0  0  0
 28 29  1  0  0  0  0
 29 30  1  0  0  0  0
M  END
>  <minimizedAffinity>
-5.1565733

$$$$

 OpenBabel03242521433D

 30 32  0  0  1  0  0  0  0  0999 V2000
   36.2210   29.6030   39.5160 C   0  0  0  0  0  0  0  0  0  0  0  0
   37.0200   30.7080   39.8540 C   0  0  0  0  0  0  0  0  0  0  0  0
   37.5610   31.4750   38.8210 C   0  0  0  0  0  0  0  0  0  0  0  0
   37.2920   31.1180   37.5540 N   0  0  0  0  0  0  0  0  0  0  0  0
   36.5120   30.0390   37.2670 C   0  0  0  0  0  0  0  0  0  0  0  0
   35.9830   29.2890   38.2340 N   0  0  0  0  0  0  0  0  0  0  0  0
   37.1760   30.9140   40.8880 H   0  0  0  0  0  0  0  0  0  0  0  0
   36.3600   29.8410   36.2130 H   0  0  0  0  0  0  0  0  0  0  0  0
   39.8000   32.5570   38.7130 C   0  0  2  0  0  0  0  0  0  0  0  0
   38.3820   32.6090   39.2060 C   0  0  2  0  0  0  0  0  0  0  0  0
   38.5970   32.7340   40.5930 O   0  0  0  0  0  0  0  0  0  0  0  0
   39.5130   33.7610   40.6830 C   0  0  0  0  0  0  0  0  0  0  0  0
   40.3380   33.8080   39.4250 C   0  0  1  0  0  0  0  0  0  0  0  0
   40.3820   31.7300   39.1620 H   0  0  0  0  0  0  0  0  0  0  0  0
   37.9120   33.5520   38.8160 H   0  0  0  0  0  0  0  0  0  0  0  0
   38.9350   34.7180   40.7270 H   0  0  0  0  0  0  0  0  0  0  0  0
   40.1520   33.7100   41.5880 H   0  0  0  0  0  0  0  0  0  0  0  0
   40.0680   34.6490   38.7630 H   0  0  0  0  0  0  0  0  0  0  0  0
   39.9090   32.6290   37.3460 O   0  0  0  0  0  0  0  0  0  0  0  0
   39.5080   33.4800   37.0460 H   0  0  0  0  0  0  0  0  0  0  0  0
   41.6980   33.6650   39.6300 O   0  0  0  0  0  0  0  0  0  0  0  0
   41.9130   34.1000   40.4900 H   0  0  0  0  0  0  0  0  0  0  0  0
   35.6470   28.7750   40.6460 C   0  0  0  0  0  0  0  0  0  0  0  0
   34.8130   28.1610   40.2940 H   0  0  0  0  0  0  0  0  0  0  0  0
   35.3270   29.5400   41.3970 H   0  0  0  0  0  0  0  0  0  0  0  0
   36.7940   28.0100   41.2180 C   0  0  0  0  0  3  0  0  0  0  0  0
   36.6940   27.8010   42.7050 C   0  0  0  0  0  2  0  0  0  0  0  0
   37.5180   26.5220   42.8680 C   0  0  0  0  0  2  0  0  0  0  0  0
   36.9880   25.6700   41.7320 C   0  0  0  0  0  2  0  0  0  0  0  0
   36.9000   26.6450   40.5930 C   0  0  0  0  0  2  0  0  0  0  0  0
  1  2  1  0  0  0  0
  1 23  1  0  0  0  0
  2  7  1  0  0  0  0
  3 10  1  0  0  0  0
  3  2  2  0  0  0  0
  4  3  1  0  0  0  0
  5  4  2  0  0  0  0
  5  6  1  0  0  0  0
  6  1  2  0  0  0  0
  8  5  1  0  0  0  0
  9 14  1  1  0  0  0
  9 10  1  0  0  0  0
  9 13  1  0  0  0  0
 10 15  1  6  0  0  0
 10 11  1  0  0  0  0
 11 12  1  0  0  0  0
 12 16  1  0  0  0  0
 12 17  1  0  0  0  0
 13 18  1  6  0  0  0
 13 21  1  0  0  0  0
 13 12  1  0  0  0  0
 19  9  1  0  0  0  0
 20 19  1  0  0  0  0
 21 22  1  0  0  0  0
 23 26  1  0  0  0  0
 23 25  1  0  0  0  0
 24 23  1  0  0  0  0
 26 27  1  0  0  0  0
 27 28  1  0  0  0  0
 29 28  1  0  0  0  0
 30 26  1  0  0  0  0
 30 29  1  0  0  0  0
M  END
>  <minimizedAffinity>
-5.15342093

$$$$

 OpenBabel03242521433D

 30 32  0  0  1  0  0  0  0  0999 V2000
   39.4350   28.2270   42.6630 C   0  0  0  0  0  0  0  0  0  0  0  0
   38.8790   29.0990   41.7130 C   0  0  0  0  0  0  0  0  0  0  0  0
   39.6700   30.1420   41.2280 C   0  0  0  0  0  0  0  0  0  0  0  0
   40.9250   30.2610   41.6950 N   0  0  0  0  0  0  0  0  0  0  0  0
   41.4270   29.3930   42.6170 C   0  0  0  0  0  0  0  0  0  0  0  0
   40.6940   28.3890   43.0970 N   0  0  0  0  0  0  0  0  0  0  0  0
   37.8750   28.9250   41.4020 H   0  0  0  0  0  0  0  0  0  0  0  0
   42.4490   29.5810   42.9230 H   0  0  0  0  0  0  0  0  0  0  0  0
   38.5290   32.3130   40.8040 C   0  0  2  0  0  0  0  0  0  0  0  0
   39.0650   31.0250   40.2470 C   0  0  2  0  0  0  0  0  0  0  0  0
   37.9060   30.5100   39.6320 O   0  0  0  0  0  0  0  0  0  0  0  0
   37.4420   31.5730   38.8850 C   0  0  0  0  0  0  0  0  0  0  0  0
   37.8760   32.8640   39.5260 C   0  0  1  0  0  0  0  0  0  0  0  0
   37.6740   32.1630   41.4910 H   0  0  0  0  0  0  0  0  0  0  0  0
   39.8240   31.2750   39.4580 H   0  0  0  0  0  0  0  0  0  0  0  0
   37.9450   31.5210   37.8870 H   0  0  0  0  0  0  0  0  0  0  0  0
   36.3470   31.5510   38.7120 H   0  0  0  0  0  0  0  0  0  0  0  0
   38.6960   33.3620   38.9810 H   0  0  0  0  0  0  0  0  0  0  0  0
   39.5030   33.1400   41.3090 O   0  0  0  0  0  0  0  0  0  0  0  0
   40.1350   33.3560   40.5810 H   0  0  0  0  0  0  0  0  0  0  0  0
   36.8350   33.7050   39.8740 O   0  0  0  0  0  0  0  0  0  0  0  0
   36.1300   33.5960   39.1920 H   0  0  0  0  0  0  0  0  0  0  0  0
   38.5630   27.1060   43.1880 C   0  0  0  0  0  0  0  0  0  0  0  0
   37.6520   27.5020   43.6450 H   0  0  0  0  0  0  0  0  0  0  0  0
   39.2220   26.5850   43.9280 H   0  0  0  0  0  0  0  0  0  0  0  0
   38.3400   26.1860   42.0340 C   0  0  0  0  0  3  0  0  0  0  0  0
   39.4150   25.1430   41.8810 C   0  0  0  0  0  2  0  0  0  0  0  0
   38.6360   24.0360   41.1670 C   0  0  0  0  0  2  0  0  0  0  0  0
   37.3540   23.9950   41.9740 C   0  0  0  0  0  2  0  0  0  0  0  0
   37.0360   25.4490   42.1750 C   0  0  0  0  0  2  0  0  0  0  0  0
  1  6  1  0  0  0  0
  1 23  1  0  0  0  0
  2  1  2  0  0  0  0
  3  4  2  0  0  0  0
  3  2  1  0  0  0  0
  4  5  1  0  0  0  0
  5  8  1  0  0  0  0
  5  6  2  0  0  0  0
  7  2  1  0  0  0  0
  9 19  1  0  0  0  0
  9 14  1  1  0  0  0
 10 15  1  6  0  0  0
 10  9  1  0  0  0  0
 10  3  1  0  0  0  0
 11 10  1  0  0  0  0
 12 13  1  0  0  0  0
 12 11  1  0  0  0  0
 13 18  1  6  0  0  0
 13 21  1  0  0  0  0
 13  9  1  0  0  0  0
 16 12  1  0  0  0  0
 17 12  1  0  0  0  0
 20 19  1  0  0  0  0
 22 21  1  0  0  0  0
 23 24  1  0  0  0  0
 23 25  1  0  0  0  0
 26 30  1  0  0  0  0
 26 23  1  0  0  0  0
 27 26  1  0  0  0  0
 28 27  1  0  0  0  0
 28 29  1  0  0  0  0
 29 30  1  0  0  0  0
M  END
>  <minimizedAffinity>
-5.11746216

$$$$

 OpenBabel03242521433D

 30 32  0  0  1  0  0  0  0  0999 V2000
   40.0620   27.9920   39.4170 C   0  0  0  0  0  0  0  0  0  0  0  0
   40.4590   29.3360   39.5130 C   0  0  0  0  0  0  0  0  0  0  0  0
   40.8190   30.0060   38.3430 C   0  0  0  0  0  0  0  0  0  0  0  0
   40.7680   29.3330   37.1820 N   0  0  0  0  0  0  0  0  0  0  0  0
   40.3770   28.0290   37.1300 C   0  0  0  0  0  0  0  0  0  0  0  0
   40.0290   27.3650   38.2320 N   0  0  0  0  0  0  0  0  0  0  0  0
   40.4670   29.7860   40.4800 H   0  0  0  0  0  0  0  0  0  0  0  0
   40.3730   27.5830   36.1420 H   0  0  0  0  0  0  0  0  0  0  0  0
   41.1910   32.1870   37.2030 C   0  0  2  0  0  0  0  0  0  0  0  0
   41.2230   31.3940   38.4790 C   0  0  2  0  0  0  0  0  0  0  0  0
   42.5670   31.5790   38.8620 O   0  0  0  0  0  0  0  0  0  0  0  0
   42.7430   32.9430   38.7630 C   0  0  0  0  0  0  0  0  0  0  0  0
   41.7990   33.4970   37.7300 C   0  0  1  0  0  0  0  0  0  0  0  0
   41.9320   31.8360   36.4590 H   0  0  0  0  0  0  0  0  0  0  0  0
   40.5520   31.9020   39.2220 H   0  0  0  0  0  0  0  0  0  0  0  0
   42.4440   33.3870   39.7460 H   0  0  0  0  0  0  0  0  0  0  0  0
   43.7910   33.2440   38.5620 H   0  0  0  0  0  0  0  0  0  0  0  0
   40.9490   34.0450   38.1720 H   0  0  0  0  0  0  0  0  0  0  0  0
   39.9280   32.3490   36.6890 O   0  0  0  0  0  0  0  0  0  0  0  0
   39.3780   32.8200   37.3600 H   0  0  0  0  0  0  0  0  0  0  0  0
   42.4210   34.1610   36.6880 O   0  0  0  0  0  0  0  0  0  0  0  0
   43.2150   34.6130   37.0610 H   0  0  0  0  0  0  0  0  0  0  0  0
   39.6830   27.2740   40.6950 C   0  0  0  0  0  0  0  0  0  0  0  0
   40.5600   27.1180   41.3290 H   0  0  0  0  0  0  0  0  0  0  0  0
   39.2400   26.3110   40.3340 H   0  0  0  0  0  0  0  0  0  0  0  0
   38.5940   28.0850   41.3140 C   0  0  0  0  0  3  0  0  0  0  0  0
   37.2290   27.7840   40.7560 C   0  0  0  0  0  2  0  0  0  0  0  0
   36.3450   28.1770   41.9410 C   0  0  0  0  0  2  0  0  0  0  0  0
   37.0820   27.5350   43.0990 C   0  0  0  0  0  2  0  0  0  0  0  0
   38.5200   27.8480   42.7980 C   0  0  0  0  0  2  0  0  0  0  0  0
  1  2  1  0  0  0  0
  1 23  1  0  0  0  0
  2  7  1  0  0  0  0
  3 10  1  0  0  0  0
  3  2  2  0  0  0  0
  4  3  1  0  0  0  0
  5  4  2  0  0  0  0
  5  6  1  0  0  0  0
  6  1  2  0  0  0  0
  8  5  1  0  0  0  0
  9 14  1  6  0  0  0
  9 13  1  0  0  0  0
  9 10  1  0  0  0  0
 10 11  1  0  0  0  0
 10 15  1  1  0  0  0
 12 11  1  0  0  0  0
 12 16  1  0  0  0  0
 13 18  1  1  0  0  0
 13 12  1  0  0  0  0
 17 12  1  0  0  0  0
 19  9  1  0  0  0  0
 19 20  1  0  0  0  0
 21 22  1  0  0  0  0
 21 13  1  0  0  0  0
 23 26  1  0  0  0  0
 23 24  1  0  0  0  0
 25 23  1  0  0  0  0
 26 30  1  0  0  0  0
 27 26  1  0  0  0  0
 27 28  1  0  0  0  0
 28 29  1  0  0  0  0
 30 29  1  0  0  0  0
M  END
>  <minimizedAffinity>
-5.07059431

$$$$
