
 OpenBabel03242518563D

 38 40  0  0  1  0  0  0  0  0999 V2000
   38.4830   27.2770   43.1290 C   0  0  2  0  0  0  0  0  0  0  0  0
   39.4360   28.1960   42.4340 C   0  0  0  0  0  0  0  0  0  0  0  0
   40.8090   27.7120   42.7350 C   0  0  0  0  0  0  0  0  0  0  0  0
   40.8970   26.5600   43.6790 C   0  0  0  0  0  0  0  0  0  0  0  0
   40.0580   25.4140   43.1830 C   0  0  0  0  0  0  0  0  0  0  0  0
   38.7630   25.8540   42.6830 C   0  0  2  0  0  0  0  0  0  0  0  0
   38.7200   27.2680   44.2130 H   0  0  0  0  0  0  0  0  0  0  0  0
   39.2450   29.2180   42.8680 H   0  0  0  0  0  0  0  0  0  0  0  0
   39.2300   28.3180   41.3500 H   0  0  0  0  0  0  0  0  0  0  0  0
   41.3500   28.5580   43.2570 H   0  0  0  0  0  0  0  0  0  0  0  0
   41.4560   27.5390   41.8360 H   0  0  0  0  0  0  0  0  0  0  0  0
   41.9650   26.2470   43.7000 H   0  0  0  0  0  0  0  0  0  0  0  0
   40.6660   26.8510   44.7240 H   0  0  0  0  0  0  0  0  0  0  0  0
   39.8860   24.7690   44.0950 H   0  0  0  0  0  0  0  0  0  0  0  0
   40.6970   24.7960   42.5280 H   0  0  0  0  0  0  0  0  0  0  0  0
   37.9110   25.2510   43.0250 H   0  0  0  0  0  0  0  0  0  0  0  0
   38.8470   25.7850   41.1970 C   0  0  0  0  0  0  0  0  0  0  0  0
   39.8630   25.5460   40.8080 H   0  0  0  0  0  0  0  0  0  0  0  0
   38.6160   26.7920   40.7920 H   0  0  0  0  0  0  0  0  0  0  0  0
   37.9260   24.8010   40.5380 C   0  0  0  0  0  3  0  0  0  0  0  0
   36.6870   24.5060   41.3450 C   0  0  0  0  0  2  0  0  0  0  0  0
   35.9690   23.6140   40.3250 C   0  0  0  0  0  2  0  0  0  0  0  0
   36.0730   24.4920   39.0900 C   0  0  0  0  0  2  0  0  0  0  0  0
   37.2440   25.4160   39.3100 C   0  0  0  0  0  2  0  0  0  0  0  0
   37.0550   27.6510   42.9740 C   0  0  0  0  0  0  0  0  0  0  0  0
   36.1380   27.1690   43.6760 O   0  0  0  0  0  0  0  0  0  0  0  0
   36.9040   30.7820   41.0930 C   0  0  0  0  0  0  0  0  0  0  0  0
   36.1050   30.4720   39.9600 C   0  0  0  0  0  0  0  0  0  0  0  0
   35.6400   29.1720   39.8740 C   0  0  0  0  0  0  0  0  0  0  0  0
   36.0040   28.3690   40.8740 N   0  0  0  0  0  0  0  0  0  0  0  0
   36.7400   28.6410   41.9280 C   0  0  0  0  0  0  0  0  0  0  0  0
   37.2040   29.8960   42.0340 N   0  0  0  0  0  0  0  0  0  0  0  0
   37.2840   31.8130   41.1800 H   0  0  0  0  0  0  0  0  0  0  0  0
   35.8880   31.2310   39.2180 H   0  0  0  0  0  0  0  0  0  0  0  0
   34.8170   28.8530   38.7210 C   0  0  0  0  0  0  0  0  0  0  0  0
   35.1570   29.6880   37.6600 F   0  0  0  0  0  0  0  0  0  0  0  0
   33.5290   29.0930   39.0720 F   0  0  0  0  0  0  0  0  0  0  0  0
   35.0290   27.5590   38.2590 F   0  0  0  0  0  0  0  0  0  0  0  0
  1  7  1  1  0  0  0
  2  3  1  0  0  0  0
  2  8  1  0  0  0  0
  2  1  1  0  0  0  0
  3 10  1  0  0  0  0
  3  4  1  0  0  0  0
  4 12  1  0  0  0  0
  4 13  1  0  0  0  0
  5  4  1  0  0  0  0
  5 14  1  0  0  0  0
  6 16  1  1  0  0  0
  6  1  1  0  0  0  0
  6  5  1  0  0  0  0
  9  2  1  0  0  0  0
 11  3  1  0  0  0  0
 15  5  1  0  0  0  0
 17  6  1  0  0  0  0
 18 17  1  0  0  0  0
 19 17  1  0  0  0  0
 20 17  1  0  0  0  0
 20 21  1  0  0  0  0
 22 21  1  0  0  0  0
 23 24  1  0  0  0  0
 23 22  1  0  0  0  0
 24 20  1  0  0  0  0
 25  1  1  0  0  0  0
 25 26  2  0  0  0  0
 27 33  1  0  0  0  0
 27 32  1  0  0  0  0
 28 27  2  0  0  0  0
 29 28  1  0  0  0  0
 29 30  2  0  0  0  0
 30 31  1  0  0  0  0
 31 32  2  0  0  0  0
 31 25  1  0  0  0  0
 34 28  1  0  0  0  0
 35 37  1  0  0  0  0
 35 29  1  0  0  0  0
 36 35  1  0  0  0  0
 38 35  1  0  0  0  0
M  END
>  <minimizedAffinity>
-5.95739794

$$$$

 OpenBabel03242518563D

 38 40  0  0  1  0  0  0  0  0999 V2000
   35.3790   29.4710   38.4690 C   0  0  2  0  0  0  0  0  0  0  0  0
   36.7900   29.4640   37.9750 C   0  0  0  0  0  0  0  0  0  0  0  0
   37.5250   30.5100   38.7350 C   0  0  0  0  0  0  0  0  0  0  0  0
   36.7020   31.3250   39.6750 C   0  0  0  0  0  0  0  0  0  0  0  0
   35.9660   30.4300   40.6340 C   0  0  0  0  0  0  0  0  0  0  0  0
   35.3870   29.2690   39.9730 C   0  0  2  0  0  0  0  0  0  0  0  0
   34.9580   30.4890   38.3390 H   0  0  0  0  0  0  0  0  0  0  0  0
   36.7280   29.7070   36.8770 H   0  0  0  0  0  0  0  0  0  0  0  0
   37.2700   28.4650   38.0060 H   0  0  0  0  0  0  0  0  0  0  0  0
   37.9210   31.2510   37.9770 H   0  0  0  0  0  0  0  0  0  0  0  0
   38.4640   30.1570   39.2330 H   0  0  0  0  0  0  0  0  0  0  0  0
   37.4130   31.9650   40.2460 H   0  0  0  0  0  0  0  0  0  0  0  0
   36.0390   32.0390   39.1460 H   0  0  0  0  0  0  0  0  0  0  0  0
   35.1230   31.0690   41.0330 H   0  0  0  0  0  0  0  0  0  0  0  0
   36.6230   30.2690   41.5080 H   0  0  0  0  0  0  0  0  0  0  0  0
   34.3500   29.0480   40.2600 H   0  0  0  0  0  0  0  0  0  0  0  0
   36.2530   28.1120   40.3340 C   0  0  0  0  0  0  0  0  0  0  0  0
   36.9640   27.8060   39.5340 H   0  0  0  0  0  0  0  0  0  0  0  0
   35.5990   27.2280   40.4880 H   0  0  0  0  0  0  0  0  0  0  0  0
   37.0910   28.2850   41.5660 C   0  0  0  0  0  3  0  0  0  0  0  0
   36.6840   27.3800   42.7020 C   0  0  0  0  0  2  0  0  0  0  0  0
   37.8090   27.7360   43.6800 C   0  0  0  0  0  2  0  0  0  0  0  0
   39.0120   27.5780   42.7650 C   0  0  0  0  0  2  0  0  0  0  0  0
   38.5090   27.7420   41.3530 C   0  0  0  0  0  2  0  0  0  0  0  0
   34.4860   28.5110   37.7720 C   0  0  0  0  0  0  0  0  0  0  0  0
   34.7480   27.2940   37.6490 O   0  0  0  0  0  0  0  0  0  0  0  0
   32.0130   29.7530   35.3840 C   0  0  0  0  0  0  0  0  0  0  0  0
   30.8980   30.1120   36.1870 C   0  0  0  0  0  0  0  0  0  0  0  0
   31.0320   29.9060   37.5490 C   0  0  0  0  0  0  0  0  0  0  0  0
   32.2000   29.3940   37.9360 N   0  0  0  0  0  0  0  0  0  0  0  0
   33.2400   29.0590   37.2060 C   0  0  0  0  0  0  0  0  0  0  0  0
   33.1350   29.2480   35.8810 N   0  0  0  0  0  0  0  0  0  0  0  0
   31.9270   29.9100   34.2960 H   0  0  0  0  0  0  0  0  0  0  0  0
   30.0040   30.5210   35.7340 H   0  0  0  0  0  0  0  0  0  0  0  0
   29.8970   30.2770   38.3750 C   0  0  0  0  0  0  0  0  0  0  0  0
   30.1140   29.8530   39.6820 F   0  0  0  0  0  0  0  0  0  0  0  0
   28.8130   29.6290   37.8780 F   0  0  0  0  0  0  0  0  0  0  0  0
   29.7250   31.6550   38.4530 F   0  0  0  0  0  0  0  0  0  0  0  0
  1  7  1  6  0  0  0
  1  6  1  0  0  0  0
  2  9  1  0  0  0  0
  2  1  1  0  0  0  0
  2  3  1  0  0  0  0
  3 11  1  0  0  0  0
  3  4  1  0  0  0  0
  4 12  1  0  0  0  0
  4  5  1  0  0  0  0
  5 14  1  0  0  0  0
  5 15  1  0  0  0  0
  6 16  1  1  0  0  0
  6 17  1  0  0  0  0
  6  5  1  0  0  0  0
  8  2  1  0  0  0  0
 10  3  1  0  0  0  0
 13  4  1  0  0  0  0
 17 19  1  0  0  0  0
 17 20  1  0  0  0  0
 18 17  1  0  0  0  0
 20 21  1  0  0  0  0
 21 22  1  0  0  0  0
 23 22  1  0  0  0  0
 24 20  1  0  0  0  0
 24 23  1  0  0  0  0
 25  1  1  0  0  0  0
 26 25  2  0  0  0  0
 27 32  2  0  0  0  0
 27 28  1  0  0  0  0
 28 29  2  0  0  0  0
 29 30  1  0  0  0  0
 29 35  1  0  0  0  0
 31 25  1  0  0  0  0
 31 30  2  0  0  0  0
 32 31  1  0  0  0  0
 33 27  1  0  0  0  0
 34 28  1  0  0  0  0
 35 38  1  0  0  0  0
 35 36  1  0  0  0  0
 37 35  1  0  0  0  0
M  END
>  <minimizedAffinity>
-5.7221632

$$$$

 OpenBabel03242518563D

 38 40  0  0  1  0  0  0  0  0999 V2000
   37.6730   30.3150   40.2050 C   0  0  2  0  0  0  0  0  0  0  0  0
   37.0240   31.6240   40.5230 C   0  0  0  0  0  0  0  0  0  0  0  0
   37.1070   32.4620   39.2980 C   0  0  0  0  0  0  0  0  0  0  0  0
   37.8570   31.8660   38.1550 C   0  0  0  0  0  0  0  0  0  0  0  0
   37.2900   30.5180   37.8040 C   0  0  0  0  0  0  0  0  0  0  0  0
   36.9970   29.7170   38.9850 C   0  0  2  0  0  0  0  0  0  0  0  0
   38.7140   30.5030   39.8690 H   0  0  0  0  0  0  0  0  0  0  0  0
   37.6200   32.0610   41.3730 H   0  0  0  0  0  0  0  0  0  0  0  0
   35.9970   31.5260   40.9330 H   0  0  0  0  0  0  0  0  0  0  0  0
   37.6870   33.3930   39.5740 H   0  0  0  0  0  0  0  0  0  0  0  0
   36.1300   32.8880   38.9520 H   0  0  0  0  0  0  0  0  0  0  0  0
   37.7210   32.5540   37.2910 H   0  0  0  0  0  0  0  0  0  0  0  0
   38.9520   31.8470   38.3330 H   0  0  0  0  0  0  0  0  0  0  0  0
   38.1110   30.0040   37.2210 H   0  0  0  0  0  0  0  0  0  0  0  0
   36.4880   30.6790   37.0620 H   0  0  0  0  0  0  0  0  0  0  0  0
   37.3350   28.6740   38.9270 H   0  0  0  0  0  0  0  0  0  0  0  0
   35.5170   29.7450   39.1490 C   0  0  0  0  0  0  0  0  0  0  0  0
   35.0210   30.6220   38.6720 H   0  0  0  0  0  0  0  0  0  0  0  0
   35.2920   29.8440   40.2310 H   0  0  0  0  0  0  0  0  0  0  0  0
   34.7820   28.5440   38.6330 C   0  0  0  0  0  3  0  0  0  0  0  0
   34.2510   28.7210   37.2320 C   0  0  0  0  0  2  0  0  0  0  0  0
   33.7160   27.3010   37.0200 C   0  0  0  0  0  2  0  0  0  0  0  0
   34.9320   26.4950   37.4450 C   0  0  0  0  0  2  0  0  0  0  0  0
   35.7450   27.3830   38.3540 C   0  0  0  0  0  2  0  0  0  0  0  0
   37.7240   29.3680   41.3480 C   0  0  0  0  0  0  0  0  0  0  0  0
   37.3890   29.6800   42.5130 O   0  0  0  0  0  0  0  0  0  0  0  0
   39.8130   26.5920   40.2130 C   0  0  0  0  0  0  0  0  0  0  0  0
   39.0460   25.4330   40.5030 C   0  0  0  0  0  0  0  0  0  0  0  0
   37.8140   25.6460   41.0960 C   0  0  0  0  0  0  0  0  0  0  0  0
   37.5030   26.9230   41.3210 N   0  0  0  0  0  0  0  0  0  0  0  0
   38.2000   28.0040   41.0570 C   0  0  0  0  0  0  0  0  0  0  0  0
   39.4000   27.8250   40.4820 N   0  0  0  0  0  0  0  0  0  0  0  0
   40.7980   26.4440   39.7400 H   0  0  0  0  0  0  0  0  0  0  0  0
   39.4270   24.4490   40.2640 H   0  0  0  0  0  0  0  0  0  0  0  0
   37.0220   24.4650   41.3890 C   0  0  0  0  0  0  0  0  0  0  0  0
   36.3680   24.6310   42.6060 F   0  0  0  0  0  0  0  0  0  0  0  0
   37.8850   23.4230   41.4940 F   0  0  0  0  0  0  0  0  0  0  0  0
   36.0180   24.2530   40.4510 F   0  0  0  0  0  0  0  0  0  0  0  0
  1  7  1  6  0  0  0
  1  2  1  0  0  0  0
  1 25  1  0  0  0  0
  2  9  1  0  0  0  0
  2  8  1  0  0  0  0
  3 10  1  0  0  0  0
  3  2  1  0  0  0  0
  4 13  1  0  0  0  0
  4  3  1  0  0  0  0
  5  4  1  0  0  0  0
  5  6  1  0  0  0  0
  6 16  1  6  0  0  0
  6 17  1  0  0  0  0
  6  1  1  0  0  0  0
 11  3  1  0  0  0  0
 12  4  1  0  0  0  0
 14  5  1  0  0  0  0
 15  5  1  0  0  0  0
 17 19  1  0  0  0  0
 18 17  1  0  0  0  0
 20 17  1  0  0  0  0
 21 20  1  0  0  0  0
 22 21  1  0  0  0  0
 22 23  1  0  0  0  0
 23 24  1  0  0  0  0
 24 20  1  0  0  0  0
 25 26  2  0  0  0  0
 27 32  2  0  0  0  0
 27 28  1  0  0  0  0
 28 29  2  0  0  0  0
 29 30  1  0  0  0  0
 29 35  1  0  0  0  0
 31 30  2  0  0  0  0
 31 25  1  0  0  0  0
 32 31  1  0  0  0  0
 33 27  1  0  0  0  0
 34 28  1  0  0  0  0
 35 37  1  0  0  0  0
 35 36  1  0  0  0  0
 38 35  1  0  0  0  0
M  END
>  <minimizedAffinity>
-5.52518892

$$$$

 OpenBabel03242518563D

 38 40  0  0  1  0  0  0  0  0999 V2000
   37.4360   26.1240   41.5670 C   0  0  2  0  0  0  0  0  0  0  0  0
   36.9860   24.8380   42.1830 C   0  0  0  0  0  0  0  0  0  0  0  0
   37.6430   23.7380   41.4280 C   0  0  0  0  0  0  0  0  0  0  0  0
   38.4600   24.1580   40.2520 C   0  0  0  0  0  0  0  0  0  0  0  0
   39.4930   25.1680   40.6690 C   0  0  0  0  0  0  0  0  0  0  0  0
   38.9520   26.1680   41.5790 C   0  0  2  0  0  0  0  0  0  0  0  0
   37.1770   26.1140   40.4880 H   0  0  0  0  0  0  0  0  0  0  0  0
   35.8660   24.8180   42.0650 H   0  0  0  0  0  0  0  0  0  0  0  0
   37.1450   24.7870   43.2800 H   0  0  0  0  0  0  0  0  0  0  0  0
   36.8170   23.0970   40.9950 H   0  0  0  0  0  0  0  0  0  0  0  0
   38.2050   23.0030   42.0590 H   0  0  0  0  0  0  0  0  0  0  0  0
   38.9740   23.2430   39.8790 H   0  0  0  0  0  0  0  0  0  0  0  0
   37.8330   24.4980   39.4020 H   0  0  0  0  0  0  0  0  0  0  0  0
   39.7910   25.6860   39.7090 H   0  0  0  0  0  0  0  0  0  0  0  0
   40.3980   24.6110   40.9710 H   0  0  0  0  0  0  0  0  0  0  0  0
   39.2320   27.2030   41.3410 H   0  0  0  0  0  0  0  0  0  0  0  0
   39.4680   25.8190   42.9320 C   0  0  0  0  0  0  0  0  0  0  0  0
   39.9230   24.8050   43.0000 H   0  0  0  0  0  0  0  0  0  0  0  0
   38.6090   25.7950   43.6330 H   0  0  0  0  0  0  0  0  0  0  0  0
   40.4970   26.7540   43.4970 C   0  0  0  0  0  3  0  0  0  0  0  0
   41.8990   26.4610   43.0240 C   0  0  0  0  0  2  0  0  0  0  0  0
   42.6040   27.6560   43.6740 C   0  0  0  0  0  2  0  0  0  0  0  0
   41.6940   28.7820   43.2100 C   0  0  0  0  0  2  0  0  0  0  0  0
   40.3560   28.1590   42.9000 C   0  0  0  0  0  2  0  0  0  0  0  0
   36.8260   27.3340   42.1740 C   0  0  0  0  0  0  0  0  0  0  0  0
   36.4560   27.3900   43.3690 O   0  0  0  0  0  0  0  0  0  0  0  0
   36.5510   30.7890   41.0150 C   0  0  0  0  0  0  0  0  0  0  0  0
   36.3250   30.6740   39.6180 C   0  0  0  0  0  0  0  0  0  0  0  0
   36.2790   29.3880   39.1080 C   0  0  0  0  0  0  0  0  0  0  0  0
   36.4550   28.4140   40.0020 N   0  0  0  0  0  0  0  0  0  0  0  0
   36.6630   28.5050   41.2950 C   0  0  0  0  0  0  0  0  0  0  0  0
   36.7120   29.7420   41.8150 N   0  0  0  0  0  0  0  0  0  0  0  0
   36.5900   31.8050   41.4420 H   0  0  0  0  0  0  0  0  0  0  0  0
   36.1990   31.5590   39.0080 H   0  0  0  0  0  0  0  0  0  0  0  0
   36.0420   29.2650   37.6810 C   0  0  0  0  0  0  0  0  0  0  0  0
   36.7990   30.2130   36.9990 F   0  0  0  0  0  0  0  0  0  0  0  0
   34.7260   29.5220   37.4720 F   0  0  0  0  0  0  0  0  0  0  0  0
   36.4470   28.0340   37.1790 F   0  0  0  0  0  0  0  0  0  0  0  0
  1  7  1  6  0  0  0
  1  6  1  0  0  0  0
  1 25  1  0  0  0  0
  1  2  1  0  0  0  0
  2  9  1  0  0  0  0
  3 11  1  0  0  0  0
  3  2  1  0  0  0  0
  4  5  1  0  0  0  0
  4  3  1  0  0  0  0
  5 15  1  0  0  0  0
  5  6  1  0  0  0  0
  6 16  1  6  0  0  0
  6 17  1  0  0  0  0
  8  2  1  0  0  0  0
 10  3  1  0  0  0  0
 12  4  1  0  0  0  0
 13  4  1  0  0  0  0
 14  5  1  0  0  0  0
 17 18  1  0  0  0  0
 17 20  1  0  0  0  0
 17 19  1  0  0  0  0
 21 20  1  0  0  0  0
 21 22  1  0  0  0  0
 23 22  1  0  0  0  0
 24 23  1  0  0  0  0
 24 20  1  0  0  0  0
 25 26  2  0  0  0  0
 27 33  1  0  0  0  0
 27 32  1  0  0  0  0
 28 27  2  0  0  0  0
 29 28  1  0  0  0  0
 29 30  2  0  0  0  0
 30 31  1  0  0  0  0
 31 32  2  0  0  0  0
 31 25  1  0  0  0  0
 34 28  1  0  0  0  0
 35 29  1  0  0  0  0
 36 35  1  0  0  0  0
 37 35  1  0  0  0  0
 38 35  1  0  0  0  0
M  END
>  <minimizedAffinity>
-5.48108816

$$$$

 OpenBabel03242518563D

 38 40  0  0  1  0  0  0  0  0999 V2000
   38.5210   29.7110   39.0270 C   0  0  2  0  0  0  0  0  0  0  0  0
   39.5320   30.8110   38.9790 C   0  0  0  0  0  0  0  0  0  0  0  0
   38.7830   32.0890   38.8410 C   0  0  0  0  0  0  0  0  0  0  0  0
   37.3040   31.9590   38.6930 C   0  0  0  0  0  0  0  0  0  0  0  0
   36.7340   31.1630   39.8350 C   0  0  0  0  0  0  0  0  0  0  0  0
   37.5430   29.9940   40.1520 C   0  0  2  0  0  0  0  0  0  0  0  0
   37.8950   29.7590   38.1120 H   0  0  0  0  0  0  0  0  0  0  0  0
   40.1710   30.5980   38.0760 H   0  0  0  0  0  0  0  0  0  0  0  0
   40.2470   30.7990   39.8270 H   0  0  0  0  0  0  0  0  0  0  0  0
   39.1300   32.5720   37.8780 H   0  0  0  0  0  0  0  0  0  0  0  0
   39.0390   32.8700   39.6020 H   0  0  0  0  0  0  0  0  0  0  0  0
   36.8890   32.9920   38.7260 H   0  0  0  0  0  0  0  0  0  0  0  0
   37.0110   31.5670   37.6980 H   0  0  0  0  0  0  0  0  0  0  0  0
   35.7270   30.8070   39.4620 H   0  0  0  0  0  0  0  0  0  0  0  0
   36.4890   31.8730   40.6440 H   0  0  0  0  0  0  0  0  0  0  0  0
   36.9720   29.0690   40.3040 H   0  0  0  0  0  0  0  0  0  0  0  0
   38.2790   30.3270   41.4040 C   0  0  0  0  0  0  0  0  0  0  0  0
   38.1250   31.3720   41.7600 H   0  0  0  0  0  0  0  0  0  0  0  0
   39.3660   30.2540   41.1950 H   0  0  0  0  0  0  0  0  0  0  0  0
   37.9770   29.4560   42.5870 C   0  0  0  0  0  3  0  0  0  0  0  0
   36.8260   28.5090   42.3580 C   0  0  0  0  0  2  0  0  0  0  0  0
   36.9160   27.7310   43.6750 C   0  0  0  0  0  2  0  0  0  0  0  0
   38.3970   27.3920   43.6800 C   0  0  0  0  0  2  0  0  0  0  0  0
   39.0780   28.4100   42.8010 C   0  0  0  0  0  2  0  0  0  0  0  0
   39.1070   28.3500   39.1120 C   0  0  0  0  0  0  0  0  0  0  0  0
   40.3400   28.1310   39.0990 O   0  0  0  0  0  0  0  0  0  0  0  0
   36.3530   26.0590   38.3860 C   0  0  0  0  0  0  0  0  0  0  0  0
   36.3850   25.1220   39.4520 C   0  0  0  0  0  0  0  0  0  0  0  0
   37.3740   25.3080   40.4020 C   0  0  0  0  0  0  0  0  0  0  0  0
   38.1770   26.3510   40.1930 N   0  0  0  0  0  0  0  0  0  0  0  0
   38.1600   27.2260   39.2130 C   0  0  0  0  0  0  0  0  0  0  0  0
   37.2100   27.0680   38.2780 N   0  0  0  0  0  0  0  0  0  0  0  0
   35.5730   25.9290   37.6180 H   0  0  0  0  0  0  0  0  0  0  0  0
   35.6640   24.3160   39.4960 H   0  0  0  0  0  0  0  0  0  0  0  0
   37.4060   24.3570   41.4980 C   0  0  0  0  0  0  0  0  0  0  0  0
   38.6440   24.4160   42.1310 F   0  0  0  0  0  0  0  0  0  0  0  0
   37.2480   23.1210   40.9600 F   0  0  0  0  0  0  0  0  0  0  0  0
   36.4700   24.6490   42.4840 F   0  0  0  0  0  0  0  0  0  0  0  0
  1  7  1  6  0  0  0
  1 25  1  0  0  0  0
  1  6  1  0  0  0  0
  2  1  1  0  0  0  0
  2  9  1  0  0  0  0
  3  2  1  0  0  0  0
  3 11  1  0  0  0  0
  4 12  1  0  0  0  0
  4  3  1  0  0  0  0
  4  5  1  0  0  0  0
  5  6  1  0  0  0  0
  5 15  1  0  0  0  0
  6 16  1  1  0  0  0
  6 17  1  0  0  0  0
  8  2  1  0  0  0  0
 10  3  1  0  0  0  0
 13  4  1  0  0  0  0
 14  5  1  0  0  0  0
 17 18  1  0  0  0  0
 17 20  1  0  0  0  0
 19 17  1  0  0  0  0
 20 24  1  0  0  0  0
 21 20  1  0  0  0  0
 21 22  1  0  0  0  0
 22 23  1  0  0  0  0
 24 23  1  0  0  0  0
 25 31  1  0  0  0  0
 26 25  2  0  0  0  0
 27 28  1  0  0  0  0
 28 34  1  0  0  0  0
 28 29  2  0  0  0  0
 29 35  1  0  0  0  0
 30 29  1  0  0  0  0
 31 30  2  0  0  0  0
 32 27  2  0  0  0  0
 32 31  1  0  0  0  0
 33 27  1  0  0  0  0
 35 36  1  0  0  0  0
 35 38  1  0  0  0  0
 37 35  1  0  0  0  0
M  END
>  <minimizedAffinity>
-5.46181631

$$$$

 OpenBabel03242518563D

 38 40  0  0  1  0  0  0  0  0999 V2000
   38.5520   30.9370   40.1630 C   0  0  2  0  0  0  0  0  0  0  0  0
   38.1430   30.9010   38.7250 C   0  0  0  0  0  0  0  0  0  0  0  0
   37.4300   32.1750   38.4410 C   0  0  0  0  0  0  0  0  0  0  0  0
   37.2230   33.0750   39.6120 C   0  0  0  0  0  0  0  0  0  0  0  0
   38.5360   33.3740   40.2800 C   0  0  0  0  0  0  0  0  0  0  0  0
   39.3730   32.1890   40.4070 C   0  0  2  0  0  0  0  0  0  0  0  0
   37.6470   31.0850   40.7890 H   0  0  0  0  0  0  0  0  0  0  0  0
   37.4660   30.0070   38.6230 H   0  0  0  0  0  0  0  0  0  0  0  0
   38.9800   30.6900   38.0280 H   0  0  0  0  0  0  0  0  0  0  0  0
   36.3880   31.8990   38.0980 H   0  0  0  0  0  0  0  0  0  0  0  0
   37.8230   32.7490   37.5630 H   0  0  0  0  0  0  0  0  0  0  0  0
   36.7940   34.0220   39.2130 H   0  0  0  0  0  0  0  0  0  0  0  0
   36.4540   32.6880   40.3120 H   0  0  0  0  0  0  0  0  0  0  0  0
   38.2580   33.7250   41.3180 H   0  0  0  0  0  0  0  0  0  0  0  0
   38.9590   34.2710   39.7940 H   0  0  0  0  0  0  0  0  0  0  0  0
   39.8420   32.0620   41.3930 H   0  0  0  0  0  0  0  0  0  0  0  0
   40.4370   32.3190   39.3730 C   0  0  0  0  0  0  0  0  0  0  0  0
   40.2170   33.0750   38.5850 H   0  0  0  0  0  0  0  0  0  0  0  0
   40.5090   31.3530   38.8300 H   0  0  0  0  0  0  0  0  0  0  0  0
   41.8040   32.6640   39.8840 C   0  0  0  0  0  3  0  0  0  0  0  0
   42.0680   34.1480   39.9370 C   0  0  0  0  0  2  0  0  0  0  0  0
   43.4430   34.1020   40.6120 C   0  0  0  0  0  2  0  0  0  0  0  0
   43.1310   33.1820   41.7810 C   0  0  0  0  0  2  0  0  0  0  0  0
   41.9260   32.3690   41.3840 C   0  0  0  0  0  2  0  0  0  0  0  0
   39.2370   29.7060   40.6310 C   0  0  0  0  0  0  0  0  0  0  0  0
   40.3820   29.3720   40.2520 O   0  0  0  0  0  0  0  0  0  0  0  0
   37.4070   28.6080   43.5980 C   0  0  0  0  0  0  0  0  0  0  0  0
   37.1450   27.2320   43.3600 C   0  0  0  0  0  0  0  0  0  0  0  0
   37.6090   26.7180   42.1620 C   0  0  0  0  0  0  0  0  0  0  0  0
   38.2490   27.5860   41.3790 N   0  0  0  0  0  0  0  0  0  0  0  0
   38.5000   28.8590   41.5850 C   0  0  0  0  0  0  0  0  0  0  0  0
   38.0590   29.3830   42.7400 N   0  0  0  0  0  0  0  0  0  0  0  0
   37.0450   29.0370   44.5470 H   0  0  0  0  0  0  0  0  0  0  0  0
   36.6080   26.6410   44.0910 H   0  0  0  0  0  0  0  0  0  0  0  0
   37.3500   25.3110   41.9180 C   0  0  0  0  0  0  0  0  0  0  0  0
   38.4680   24.5620   42.2730 F   0  0  0  0  0  0  0  0  0  0  0  0
   37.1340   25.1700   40.5850 F   0  0  0  0  0  0  0  0  0  0  0  0
   36.3090   24.8180   42.6970 F   0  0  0  0  0  0  0  0  0  0  0  0
  1  6  1  0  0  0  0
  1 25  1  0  0  0  0
  1  7  1  1  0  0  0
  2  1  1  0  0  0  0
  3  2  1  0  0  0  0
  3  4  1  0  0  0  0
  4  5  1  0  0  0  0
  4 13  1  0  0  0  0
  5  6  1  0  0  0  0
  5 14  1  0  0  0  0
  6 16  1  1  0  0  0
  8  2  1  0  0  0  0
  9  2  1  0  0  0  0
 10  3  1  0  0  0  0
 11  3  1  0  0  0  0
 12  4  1  0  0  0  0
 15  5  1  0  0  0  0
 17 20  1  0  0  0  0
 17  6  1  0  0  0  0
 18 17  1  0  0  0  0
 19 17  1  0  0  0  0
 20 21  1  0  0  0  0
 20 24  1  0  0  0  0
 21 22  1  0  0  0  0
 22 23  1  0  0  0  0
 24 23  1  0  0  0  0
 25 31  1  0  0  0  0
 26 25  2  0  0  0  0
 27 33  1  0  0  0  0
 28 27  1  0  0  0  0
 28 34  1  0  0  0  0
 29 28  2  0  0  0  0
 30 31  2  0  0  0  0
 30 29  1  0  0  0  0
 31 32  1  0  0  0  0
 32 27  2  0  0  0  0
 35 29  1  0  0  0  0
 35 36  1  0  0  0  0
 35 38  1  0  0  0  0
 37 35  1  0  0  0  0
M  END
>  <minimizedAffinity>
-5.45766544

$$$$

 OpenBabel03242518563D

 38 40  0  0  1  0  0  0  0  0999 V2000
   38.3660   31.5830   39.0590 C   0  0  2  0  0  0  0  0  0  0  0  0
   36.9330   31.4660   38.6490 C   0  0  0  0  0  0  0  0  0  0  0  0
   36.7790   30.1530   37.9670 C   0  0  0  0  0  0  0  0  0  0  0  0
   38.0340   29.3690   37.7830 C   0  0  0  0  0  0  0  0  0  0  0  0
   38.7250   29.1700   39.1040 C   0  0  0  0  0  0  0  0  0  0  0  0
   38.7310   30.3820   39.9120 C   0  0  2  0  0  0  0  0  0  0  0  0
   39.0060   31.4760   38.1590 H   0  0  0  0  0  0  0  0  0  0  0  0
   36.7450   32.3280   37.9500 H   0  0  0  0  0  0  0  0  0  0  0  0
   36.2160   31.6280   39.4800 H   0  0  0  0  0  0  0  0  0  0  0  0
   36.4130   30.3690   36.9180 H   0  0  0  0  0  0  0  0  0  0  0  0
   35.9610   29.5050   38.3740 H   0  0  0  0  0  0  0  0  0  0  0  0
   37.7320   28.3770   37.3770 H   0  0  0  0  0  0  0  0  0  0  0  0
   38.6950   29.8050   37.0050 H   0  0  0  0  0  0  0  0  0  0  0  0
   39.7930   28.9170   38.8340 H   0  0  0  0  0  0  0  0  0  0  0  0
   38.3280   28.2400   39.5480 H   0  0  0  0  0  0  0  0  0  0  0  0
   39.6980   30.6170   40.3770 H   0  0  0  0  0  0  0  0  0  0  0  0
   37.7110   30.1760   40.9770 C   0  0  0  0  0  0  0  0  0  0  0  0
   36.6580   30.2100   40.6140 H   0  0  0  0  0  0  0  0  0  0  0  0
   37.7910   31.0150   41.6980 H   0  0  0  0  0  0  0  0  0  0  0  0
   37.8240   28.8940   41.7470 C   0  0  0  0  0  3  0  0  0  0  0  0
   38.1980   29.0940   43.1950 C   0  0  0  0  0  2  0  0  0  0  0  0
   38.0810   27.6370   43.6550 C   0  0  0  0  0  2  0  0  0  0  0  0
   36.7090   27.2950   43.0990 C   0  0  0  0  0  2  0  0  0  0  0  0
   36.4480   28.2540   41.9650 C   0  0  0  0  0  2  0  0  0  0  0  0
   38.7070   32.8710   39.7150 C   0  0  0  0  0  0  0  0  0  0  0  0
   37.8540   33.7370   40.0130 O   0  0  0  0  0  0  0  0  0  0  0  0
   42.1220   34.1610   39.5260 C   0  0  0  0  0  0  0  0  0  0  0  0
   42.8060   33.4990   40.5790 C   0  0  0  0  0  0  0  0  0  0  0  0
   42.0570   32.6180   41.3390 C   0  0  0  0  0  0  0  0  0  0  0  0
   40.7780   32.5020   40.9810 N   0  0  0  0  0  0  0  0  0  0  0  0
   40.1320   33.1060   40.0100 C   0  0  0  0  0  0  0  0  0  0  0  0
   40.8360   33.9660   39.2580 N   0  0  0  0  0  0  0  0  0  0  0  0
   42.7010   34.8670   38.9080 H   0  0  0  0  0  0  0  0  0  0  0  0
   43.8570   33.6920   40.7570 H   0  0  0  0  0  0  0  0  0  0  0  0
   42.7540   31.9340   42.4130 C   0  0  0  0  0  0  0  0  0  0  0  0
   43.5240   32.8480   43.1270 F   0  0  0  0  0  0  0  0  0  0  0  0
   43.5790   31.0230   41.8370 F   0  0  0  0  0  0  0  0  0  0  0  0
   41.8830   31.3750   43.3410 F   0  0  0  0  0  0  0  0  0  0  0  0
  1  7  1  6  0  0  0
  1 25  1  0  0  0  0
  1  6  1  0  0  0  0
  2  1  1  0  0  0  0
  2  9  1  0  0  0  0
  3 11  1  0  0  0  0
  3  2  1  0  0  0  0
  4  3  1  0  0  0  0
  4  5  1  0  0  0  0
  5 15  1  0  0  0  0
  5  6  1  0  0  0  0
  6 16  1  1  0  0  0
  6 17  1  0  0  0  0
  8  2  1  0  0  0  0
 10  3  1  0  0  0  0
 12  4  1  0  0  0  0
 13  4  1  0  0  0  0
 14  5  1  0  0  0  0
 17 19  1  0  0  0  0
 17 20  1  0  0  0  0
 18 17  1  0  0  0  0
 20 24  1  0  0  0  0
 20 21  1  0  0  0  0
 21 22  1  0  0  0  0
 23 22  1  0  0  0  0
 24 23  1  0  0  0  0
 25 31  1  0  0  0  0
 25 26  2  0  0  0  0
 27 28  1  0  0  0  0
 28 34  1  0  0  0  0
 28 29  2  0  0  0  0
 29 35  1  0  0  0  0
 30 29  1  0  0  0  0
 31 30  2  0  0  0  0
 32 27  2  0  0  0  0
 32 31  1  0  0  0  0
 33 27  1  0  0  0  0
 35 36  1  0  0  0  0
 35 38  1  0  0  0  0
 37 35  1  0  0  0  0
M  END
>  <minimizedAffinity>
-5.45427942

$$$$

 OpenBabel03242518563D

 38 40  0  0  1  0  0  0  0  0999 V2000
   38.0530   26.6150   42.3570 C   0  0  2  0  0  0  0  0  0  0  0  0
   38.8670   26.9750   41.1550 C   0  0  0  0  0  0  0  0  0  0  0  0
   39.8830   25.9030   40.9780 C   0  0  0  0  0  0  0  0  0  0  0  0
   39.9030   24.8500   42.0330 C   0  0  0  0  0  0  0  0  0  0  0  0
   38.5400   24.2310   42.1800 C   0  0  0  0  0  0  0  0  0  0  0  0
   37.4760   25.2260   42.1580 C   0  0  2  0  0  0  0  0  0  0  0  0
   38.7310   26.5010   43.2280 H   0  0  0  0  0  0  0  0  0  0  0  0
   39.3400   27.9680   41.3940 H   0  0  0  0  0  0  0  0  0  0  0  0
   38.2600   27.1740   40.2480 H   0  0  0  0  0  0  0  0  0  0  0  0
   40.8980   26.3980   41.0400 H   0  0  0  0  0  0  0  0  0  0  0  0
   39.9080   25.4430   39.9560 H   0  0  0  0  0  0  0  0  0  0  0  0
   40.6220   24.0710   41.6920 H   0  0  0  0  0  0  0  0  0  0  0  0
   40.3200   25.2200   42.9920 H   0  0  0  0  0  0  0  0  0  0  0  0
   38.5530   23.7460   43.2010 H   0  0  0  0  0  0  0  0  0  0  0  0
   38.4850   23.3820   41.4750 H   0  0  0  0  0  0  0  0  0  0  0  0
   36.7120   25.0960   42.9370 H   0  0  0  0  0  0  0  0  0  0  0  0
   36.8350   25.1190   40.8190 C   0  0  0  0  0  0  0  0  0  0  0  0
   37.2640   25.8030   40.0510 H   0  0  0  0  0  0  0  0  0  0  0  0
   35.7750   25.4300   40.9190 H   0  0  0  0  0  0  0  0  0  0  0  0
   36.8580   23.7560   40.1930 C   0  0  0  0  0  3  0  0  0  0  0  0
   35.5090   23.3010   39.6940 C   0  0  0  0  0  2  0  0  0  0  0  0
   35.9510   21.9930   39.0300 C   0  0  0  0  0  2  0  0  0  0  0  0
   37.1140   22.5020   38.1950 C   0  0  0  0  0  2  0  0  0  0  0  0
   37.5910   23.7760   38.8460 C   0  0  0  0  0  2  0  0  0  0  0  0
   37.0150   27.6160   42.7100 C   0  0  0  0  0  0  0  0  0  0  0  0
   36.2350   27.4840   43.6800 O   0  0  0  0  0  0  0  0  0  0  0  0
   35.8140   30.0440   40.2550 C   0  0  0  0  0  0  0  0  0  0  0  0
   36.8160   31.0500   40.2370 C   0  0  0  0  0  0  0  0  0  0  0  0
   37.8900   30.8620   41.0890 C   0  0  0  0  0  0  0  0  0  0  0  0
   37.8470   29.7500   41.8240 N   0  0  0  0  0  0  0  0  0  0  0  0
   36.9290   28.8110   41.8510 C   0  0  0  0  0  0  0  0  0  0  0  0
   35.8760   28.9700   41.0340 N   0  0  0  0  0  0  0  0  0  0  0  0
   34.9500   30.1750   39.5840 H   0  0  0  0  0  0  0  0  0  0  0  0
   36.7210   31.9070   39.5840 H   0  0  0  0  0  0  0  0  0  0  0  0
   38.9210   31.8840   41.0690 C   0  0  0  0  0  0  0  0  0  0  0  0
   38.3280   33.1430   41.0770 F   0  0  0  0  0  0  0  0  0  0  0  0
   39.6110   31.7320   39.9100 F   0  0  0  0  0  0  0  0  0  0  0  0
   39.7300   31.8450   42.1990 F   0  0  0  0  0  0  0  0  0  0  0  0
  1 25  1  0  0  0  0
  1  7  1  1  0  0  0
  2  8  1  0  0  0  0
  2  1  1  0  0  0  0
  3 10  1  0  0  0  0
  3  2  1  0  0  0  0
  3  4  1  0  0  0  0
  4  5  1  0  0  0  0
  4 13  1  0  0  0  0
  5 14  1  0  0  0  0
  6  5  1  0  0  0  0
  6  1  1  0  0  0  0
  6 16  1  1  0  0  0
  9  2  1  0  0  0  0
 11  3  1  0  0  0  0
 12  4  1  0  0  0  0
 15  5  1  0  0  0  0
 17 19  1  0  0  0  0
 17  6  1  0  0  0  0
 18 17  1  0  0  0  0
 20 17  1  0  0  0  0
 21 20  1  0  0  0  0
 22 21  1  0  0  0  0
 23 24  1  0  0  0  0
 23 22  1  0  0  0  0
 24 20  1  0  0  0  0
 25 26  2  0  0  0  0
 27 32  1  0  0  0  0
 28 27  2  0  0  0  0
 28 29  1  0  0  0  0
 29 30  2  0  0  0  0
 30 31  1  0  0  0  0
 31 25  1  0  0  0  0
 32 31  2  0  0  0  0
 33 27  1  0  0  0  0
 34 28  1  0  0  0  0
 35 36  1  0  0  0  0
 35 29  1  0  0  0  0
 35 38  1  0  0  0  0
 37 35  1  0  0  0  0
M  END
>  <minimizedAffinity>
-5.44771194

$$$$

 OpenBabel03242518563D

 38 40  0  0  1  0  0  0  0  0999 V2000
   37.1540   30.1050   39.3700 C   0  0  2  0  0  0  0  0  0  0  0  0
   37.9750   28.9900   38.8060 C   0  0  0  0  0  0  0  0  0  0  0  0
   38.0620   29.2090   37.3380 C   0  0  0  0  0  0  0  0  0  0  0  0
   37.2760   30.3610   36.8080 C   0  0  0  0  0  0  0  0  0  0  0  0
   37.6530   31.6260   37.5290 C   0  0  0  0  0  0  0  0  0  0  0  0
   37.7820   31.4260   38.9660 C   0  0  2  0  0  0  0  0  0  0  0  0
   36.1660   30.1140   38.8660 H   0  0  0  0  0  0  0  0  0  0  0  0
   37.4170   28.0440   39.0580 H   0  0  0  0  0  0  0  0  0  0  0  0
   38.9600   28.8650   39.3010 H   0  0  0  0  0  0  0  0  0  0  0  0
   37.6130   28.2970   36.8410 H   0  0  0  0  0  0  0  0  0  0  0  0
   39.1030   29.2150   36.9230 H   0  0  0  0  0  0  0  0  0  0  0  0
   37.5440   30.4610   35.7320 H   0  0  0  0  0  0  0  0  0  0  0  0
   36.1840   30.1650   36.8120 H   0  0  0  0  0  0  0  0  0  0  0  0
   36.7890   32.3310   37.3440 H   0  0  0  0  0  0  0  0  0  0  0  0
   38.4980   32.0800   36.9800 H   0  0  0  0  0  0  0  0  0  0  0  0
   37.2980   32.1980   39.5800 H   0  0  0  0  0  0  0  0  0  0  0  0
   39.2430   31.4140   39.2540 C   0  0  0  0  0  0  0  0  0  0  0  0
   39.6830   30.3950   39.3390 H   0  0  0  0  0  0  0  0  0  0  0  0
   39.4010   31.8780   40.2500 H   0  0  0  0  0  0  0  0  0  0  0  0
   40.1070   32.1390   38.2650 C   0  0  0  0  0  3  0  0  0  0  0  0
   40.9820   33.1950   38.8930 C   0  0  0  0  0  2  0  0  0  0  0  0
   41.7770   33.5920   37.6450 C   0  0  0  0  0  2  0  0  0  0  0  0
   42.2040   32.2180   37.1570 C   0  0  0  0  0  2  0  0  0  0  0  0
   41.2180   31.2290   37.7280 C   0  0  0  0  0  2  0  0  0  0  0  0
   36.9230   30.0100   40.8340 C   0  0  0  0  0  0  0  0  0  0  0  0
   36.1770   30.7930   41.4630 O   0  0  0  0  0  0  0  0  0  0  0  0
   39.3710   28.2200   42.8740 C   0  0  0  0  0  0  0  0  0  0  0  0
   38.9330   26.8700   42.8440 C   0  0  0  0  0  0  0  0  0  0  0  0
   37.7850   26.6130   42.1150 C   0  0  0  0  0  0  0  0  0  0  0  0
   37.2340   27.6760   41.5280 N   0  0  0  0  0  0  0  0  0  0  0  0
   37.6270   28.9290   41.5460 C   0  0  0  0  0  0  0  0  0  0  0  0
   38.7380   29.2040   42.2470 N   0  0  0  0  0  0  0  0  0  0  0  0
   40.2840   28.4460   43.4500 H   0  0  0  0  0  0  0  0  0  0  0  0
   39.4840   26.1020   43.3730 H   0  0  0  0  0  0  0  0  0  0  0  0
   37.3380   25.2330   42.0760 C   0  0  0  0  0  0  0  0  0  0  0  0
   37.0000   24.8890   40.7700 F   0  0  0  0  0  0  0  0  0  0  0  0
   36.2270   25.1520   42.8510 F   0  0  0  0  0  0  0  0  0  0  0  0
   38.3350   24.3400   42.4500 F   0  0  0  0  0  0  0  0  0  0  0  0
  1  7  1  6  0  0  0
  1 25  1  0  0  0  0
  2  8  1  0  0  0  0
  2  9  1  0  0  0  0
  2  1  1  0  0  0  0
  3  2  1  0  0  0  0
  4 13  1  0  0  0  0
  4  3  1  0  0  0  0
  4  5  1  0  0  0  0
  5  6  1  0  0  0  0
  6 17  1  0  0  0  0
  6  1  1  0  0  0  0
  6 16  1  1  0  0  0
 10  3  1  0  0  0  0
 11  3  1  0  0  0  0
 12  4  1  0  0  0  0
 14  5  1  0  0  0  0
 15  5  1  0  0  0  0
 17 18  1  0  0  0  0
 17 19  1  0  0  0  0
 20 21  1  0  0  0  0
 20 17  1  0  0  0  0
 22 21  1  0  0  0  0
 23 22  1  0  0  0  0
 23 24  1  0  0  0  0
 24 20  1  0  0  0  0
 25 26  2  0  0  0  0
 25 31  1  0  0  0  0
 27 33  1  0  0  0  0
 28 27  1  0  0  0  0
 28 34  1  0  0  0  0
 29 28  2  0  0  0  0
 30 31  2  0  0  0  0
 30 29  1  0  0  0  0
 31 32  1  0  0  0  0
 32 27  2  0  0  0  0
 35 29  1  0  0  0  0
 35 38  1  0  0  0  0
 35 37  1  0  0  0  0
 36 35  1  0  0  0  0
M  END
>  <minimizedAffinity>
-5.37058735

$$$$
