
 OpenBabel03252503353D

 18 19  0  0  0  0  0  0  0  0999 V2000
   44.5450   35.9300   44.5840 C   0  0  0  0  0  0  0  0  0  0  0  0
   45.2830   35.5870   43.4450 C   0  0  0  0  0  0  0  0  0  0  0  0
   46.1060   34.4630   43.4820 C   0  0  0  0  0  0  0  0  0  0  0  0
   46.1700   33.7270   44.6280 N   0  0  0  0  0  0  0  0  0  0  0  0
   45.4330   34.0950   45.7160 C   0  0  0  0  0  0  0  0  0  0  0  0
   44.6330   35.1840   45.6880 N   0  0  0  0  0  0  0  0  0  0  0  0
   43.9580   36.8150   44.4100 H   0  0  0  0  0  0  0  0  0  0  0  0
   45.3060   36.0980   42.4940 H   0  0  0  0  0  0  0  0  0  0  0  0
   45.4510   33.5420   46.6440 H   0  0  0  0  0  0  0  0  0  0  0  0
   46.4040   33.1110   41.4190 C   0  0  0  0  0  0  0  0  0  0  0  0
   45.2500   32.6340   41.7010 O   0  0  0  0  0  0  0  0  0  0  0  0
   46.8870   34.0540   42.3650 N   0  0  0  0  0  0  0  0  0  0  0  0
   47.8430   34.5150   42.3150 H   0  0  0  0  0  0  0  0  0  0  0  0
   47.2400   32.7980   40.2670 C   0  0  0  0  0  3  0  0  0  0  0  0
   48.6230   32.2870   40.5970 C   0  0  0  0  0  2  0  0  0  0  0  0
   49.1930   32.1850   39.1740 C   0  0  0  0  0  2  0  0  0  0  0  0
   48.5530   33.3350   38.4020 C   0  0  0  0  0  2  0  0  0  0  0  0
   47.5880   33.9830   39.4030 C   0  0  0  0  0  2  0  0  0  0  0  0
  1  6  1  0  0  0  0
  2  3  1  0  0  0  0
  2  1  2  0  0  0  0
  3  4  2  0  0  0  0
  4  5  1  0  0  0  0
  5  9  1  0  0  0  0
  6  5  2  0  0  0  0
  7  1  1  0  0  0  0
  8  2  1  0  0  0  0
 10 11  2  0  0  0  0
 10 12  1  0  0  0  0
 12  3  1  0  0  0  0
 13 12  1  0  0  0  0
 14 15  1  0  0  0  0
 14 10  1  0  0  0  0
 16 15  1  0  0  0  0
 17 16  1  0  0  0  0
 17 18  1  0  0  0  0
 18 14  1  0  0  0  0
M  END
>  <minimizedAffinity>
-3.77970815

>  <minimizedRMSD>
1.2412796

$$$$
