
 OpenBabel03242517053D

 29 31  0  0  0  0  0  0  0  0999 V2000
   37.4850   31.8190   39.8530 C   0  0  0  0  0  0  0  0  0  0  0  0
   37.0170   32.9990   39.3050 C   0  0  0  0  0  0  0  0  0  0  0  0
   37.7100   34.1610   39.5620 C   0  0  0  0  0  0  0  0  0  0  0  0
   38.8380   34.1280   40.3470 C   0  0  0  0  0  0  0  0  0  0  0  0
   39.3200   32.9770   40.8980 C   0  0  0  0  0  0  0  0  0  0  0  0
   38.6080   31.7980   40.6310 C   0  0  0  0  0  0  0  0  0  0  0  0
   36.1420   33.0360   38.6940 H   0  0  0  0  0  0  0  0  0  0  0  0
   37.3910   35.1020   39.1630 H   0  0  0  0  0  0  0  0  0  0  0  0
   39.3650   35.0600   40.5310 H   0  0  0  0  0  0  0  0  0  0  0  0
   40.1930   32.9300   41.5080 H   0  0  0  0  0  0  0  0  0  0  0  0
   35.8880   28.8510   38.1380 C   0  0  0  0  0  0  0  0  0  0  0  0
   36.6780   30.0140   38.3060 C   0  0  0  0  0  0  0  0  0  0  0  0
   36.7090   30.6130   39.5460 C   0  0  0  0  0  0  0  0  0  0  0  0
   35.9760   30.0460   40.5280 N   0  0  0  0  0  0  0  0  0  0  0  0
   35.2230   28.9410   40.3730 C   0  0  0  0  0  0  0  0  0  0  0  0
   35.1740   28.3320   39.1670 N   0  0  0  0  0  0  0  0  0  0  0  0
   35.9140   28.4400   37.1440 H   0  0  0  0  0  0  0  0  0  0  0  0
   37.2550   30.4530   37.5180 H   0  0  0  0  0  0  0  0  0  0  0  0
   34.6820   28.5880   41.2440 H   0  0  0  0  0  0  0  0  0  0  0  0
   39.5460   30.0700   42.3380 C   0  0  0  0  0  0  0  0  0  0  0  0
   39.9280   30.7620   43.2660 O   0  0  0  0  0  0  0  0  0  0  0  0
   38.9750   30.5400   41.1440 N   0  0  0  0  0  0  0  0  0  0  0  0
   38.7090   29.8840   40.3510 H   0  0  0  0  0  0  0  0  0  0  0  0
   39.6880   28.6870   42.4720 O   0  0  0  0  0  0  0  0  0  0  0  0
   38.7140   27.8620   42.9850 C   0  0  0  0  0  3  0  0  0  0  0  0
   38.0680   27.0770   41.8630 C   0  0  0  0  0  2  0  0  0  0  0  0
   36.8970   26.4430   42.5650 C   0  0  0  0  0  2  0  0  0  0  0  0
   36.4940   27.4240   43.6150 C   0  0  0  0  0  2  0  0  0  0  0  0
   37.5200   28.5540   43.5850 C   0  0  0  0  0  2  0  0  0  0  0  0
  1  6  1  0  0  0  0
  2  3  1  0  0  0  0
  2  1  2  0  0  0  0
  3  4  2  0  0  0  0
  4  9  1  0  0  0  0
  4  5  1  0  0  0  0
  5 10  1  0  0  0  0
  6  5  2  0  0  0  0
  6 22  1  0  0  0  0
  7  2  1  0  0  0  0
  8  3  1  0  0  0  0
 11 12  2  0  0  0  0
 11 16  1  0  0  0  0
 12 13  1  0  0  0  0
 13  1  1  0  0  0  0
 13 14  2  0  0  0  0
 15 14  1  0  0  0  0
 15 19  1  0  0  0  0
 16 15  2  0  0  0  0
 17 11  1  0  0  0  0
 18 12  1  0  0  0  0
 20 24  1  0  0  0  0
 20 21  2  0  0  0  0
 22 20  1  0  0  0  0
 23 22  1  0  0  0  0
 24 25  1  0  0  0  0
 25 29  1  0  0  0  0
 26 27  1  0  0  0  0
 26 25  1  0  0  0  0
 27 28  1  0  0  0  0
 29 28  1  0  0  0  0
M  END
>  <minimizedAffinity>
-5.51794767

$$$$

 OpenBabel03242517053D

 29 31  0  0  0  0  0  0  0  0999 V2000
   37.4620   31.6370   39.9070 C   0  0  0  0  0  0  0  0  0  0  0  0
   37.1980   32.9440   39.5410 C   0  0  0  0  0  0  0  0  0  0  0  0
   38.0570   33.9310   39.9720 C   0  0  0  0  0  0  0  0  0  0  0  0
   39.1440   33.6040   40.7480 C   0  0  0  0  0  0  0  0  0  0  0  0
   39.4260   32.3230   41.1210 C   0  0  0  0  0  0  0  0  0  0  0  0
   38.5460   31.3230   40.6770 C   0  0  0  0  0  0  0  0  0  0  0  0
   36.3570   33.2090   38.9390 H   0  0  0  0  0  0  0  0  0  0  0  0
   37.9000   34.9590   39.7180 H   0  0  0  0  0  0  0  0  0  0  0  0
   39.8040   34.4030   41.0720 H   0  0  0  0  0  0  0  0  0  0  0  0
   40.2630   32.0490   41.7210 H   0  0  0  0  0  0  0  0  0  0  0  0
   35.4850   29.2290   37.7630 C   0  0  0  0  0  0  0  0  0  0  0  0
   36.4430   30.2130   38.1080 C   0  0  0  0  0  0  0  0  0  0  0  0
   36.5160   30.6270   39.4200 C   0  0  0  0  0  0  0  0  0  0  0  0
   35.6600   30.0630   40.2970 N   0  0  0  0  0  0  0  0  0  0  0  0
   34.7470   29.1280   39.9760 C   0  0  0  0  0  0  0  0  0  0  0  0
   34.6530   28.7020   38.6950 N   0  0  0  0  0  0  0  0  0  0  0  0
   35.4870   28.9570   36.7230 H   0  0  0  0  0  0  0  0  0  0  0  0
   37.1160   30.6520   37.4010 H   0  0  0  0  0  0  0  0  0  0  0  0
   34.1200   28.7560   40.7770 H   0  0  0  0  0  0  0  0  0  0  0  0
   38.6080   29.1880   42.1660 C   0  0  0  0  0  0  0  0  0  0  0  0
   38.3960   29.6140   43.2880 O   0  0  0  0  0  0  0  0  0  0  0  0
   38.6990   29.9610   40.9970 N   0  0  0  0  0  0  0  0  0  0  0  0
   38.9370   29.5310   40.0550 H   0  0  0  0  0  0  0  0  0  0  0  0
   38.7740   27.8070   42.0270 O   0  0  0  0  0  0  0  0  0  0  0  0
   37.7510   26.9370   41.7290 C   0  0  0  0  0  3  0  0  0  0  0  0
   38.0700   25.5660   42.2880 C   0  0  0  0  0  2  0  0  0  0  0  0
   36.9920   24.7210   41.6640 C   0  0  0  0  0  2  0  0  0  0  0  0
   36.7230   25.3500   40.3370 C   0  0  0  0  0  2  0  0  0  0  0  0
   37.5610   26.6250   40.2700 C   0  0  0  0  0  2  0  0  0  0  0  0
  1  6  1  0  0  0  0
  2  1  2  0  0  0  0
  2  3  1  0  0  0  0
  3  4  2  0  0  0  0
  4  9  1  0  0  0  0
  4  5  1  0  0  0  0
  5 10  1  0  0  0  0
  6 22  1  0  0  0  0
  6  5  2  0  0  0  0
  7  2  1  0  0  0  0
  8  3  1  0  0  0  0
 11 12  2  0  0  0  0
 11 16  1  0  0  0  0
 12 13  1  0  0  0  0
 13  1  1  0  0  0  0
 13 14  2  0  0  0  0
 15 14  1  0  0  0  0
 15 19  1  0  0  0  0
 16 15  2  0  0  0  0
 17 11  1  0  0  0  0
 18 12  1  0  0  0  0
 20 21  2  0  0  0  0
 22 20  1  0  0  0  0
 23 22  1  0  0  0  0
 24 20  1  0  0  0  0
 25 24  1  0  0  0  0
 25 26  1  0  0  0  0
 27 26  1  0  0  0  0
 28 27  1  0  0  0  0
 29 28  1  0  0  0  0
 29 25  1  0  0  0  0
M  END
>  <minimizedAffinity>
-5.42457294

$$$$

 OpenBabel03242517053D

 29 31  0  0  0  0  0  0  0  0999 V2000
   37.3190   30.1470   39.2740 C   0  0  0  0  0  0  0  0  0  0  0  0
   37.2980   30.8440   38.0790 C   0  0  0  0  0  0  0  0  0  0  0  0
   37.3150   32.2200   38.1240 C   0  0  0  0  0  0  0  0  0  0  0  0
   37.3530   32.8680   39.3370 C   0  0  0  0  0  0  0  0  0  0  0  0
   37.3760   32.2030   40.5270 C   0  0  0  0  0  0  0  0  0  0  0  0
   37.3580   30.8000   40.4730 C   0  0  0  0  0  0  0  0  0  0  0  0
   37.2680   30.3520   37.1320 H   0  0  0  0  0  0  0  0  0  0  0  0
   37.3000   32.8090   37.2300 H   0  0  0  0  0  0  0  0  0  0  0  0
   37.3680   33.9530   39.3410 H   0  0  0  0  0  0  0  0  0  0  0  0
   37.4060   32.6850   41.4770 H   0  0  0  0  0  0  0  0  0  0  0  0
   36.2630   26.5320   38.9290 C   0  0  0  0  0  0  0  0  0  0  0  0
   36.1490   27.9400   39.0220 C   0  0  0  0  0  0  0  0  0  0  0  0
   37.3000   28.6840   39.1670 C   0  0  0  0  0  0  0  0  0  0  0  0
   38.4700   28.0140   39.2130 N   0  0  0  0  0  0  0  0  0  0  0  0
   38.5850   26.6760   39.1260 C   0  0  0  0  0  0  0  0  0  0  0  0
   37.4720   25.9210   38.9830 N   0  0  0  0  0  0  0  0  0  0  0  0
   35.3240   26.0200   38.8180 H   0  0  0  0  0  0  0  0  0  0  0  0
   35.2130   28.4590   38.9840 H   0  0  0  0  0  0  0  0  0  0  0  0
   39.5860   26.2630   39.1760 H   0  0  0  0  0  0  0  0  0  0  0  0
   38.2660   29.7130   42.6580 C   0  0  0  0  0  0  0  0  0  0  0  0
   39.3940   30.1640   42.7550 O   0  0  0  0  0  0  0  0  0  0  0  0
   37.3610   29.9820   41.6180 N   0  0  0  0  0  0  0  0  0  0  0  0
   36.4080   29.5150   41.5670 H   0  0  0  0  0  0  0  0  0  0  0  0
   37.8310   28.8540   43.6700 O   0  0  0  0  0  0  0  0  0  0  0  0
   37.8270   27.4820   43.5620 C   0  0  0  0  0  3  0  0  0  0  0  0
   39.0780   27.0250   42.8400 C   0  0  0  0  0  2  0  0  0  0  0  0
   38.7800   25.5690   42.6020 C   0  0  0  0  0  2  0  0  0  0  0  0
   37.2990   25.4970   42.4230 C   0  0  0  0  0  2  0  0  0  0  0  0
   36.7520   26.8980   42.6880 C   0  0  0  0  0  2  0  0  0  0  0  0
  1  6  1  0  0  0  0
  2  3  1  0  0  0  0
  2  1  2  0  0  0  0
  3  4  2  0  0  0  0
  4  9  1  0  0  0  0
  4  5  1  0  0  0  0
  5 10  1  0  0  0  0
  6  5  2  0  0  0  0
  6 22  1  0  0  0  0
  7  2  1  0  0  0  0
  8  3  1  0  0  0  0
 11 16  2  0  0  0  0
 11 12  1  0  0  0  0
 12 13  2  0  0  0  0
 13 14  1  0  0  0  0
 13  1  1  0  0  0  0
 15 19  1  0  0  0  0
 15 14  2  0  0  0  0
 16 15  1  0  0  0  0
 17 11  1  0  0  0  0
 18 12  1  0  0  0  0
 20 21  2  0  0  0  0
 20 24  1  0  0  0  0
 22 20  1  0  0  0  0
 23 22  1  0  0  0  0
 25 24  1  0  0  0  0
 26 25  1  0  0  0  0
 27 26  1  0  0  0  0
 28 27  1  0  0  0  0
 28 29  1  0  0  0  0
 29 25  1  0  0  0  0
M  END
>  <minimizedAffinity>
-5.19529772

$$$$

 OpenBabel03242517053D

 29 31  0  0  0  0  0  0  0  0999 V2000
   37.0350   26.1940   40.8310 C   0  0  0  0  0  0  0  0  0  0  0  0
   37.0010   24.9940   41.5180 C   0  0  0  0  0  0  0  0  0  0  0  0
   36.5040   23.8840   40.8710 C   0  0  0  0  0  0  0  0  0  0  0  0
   36.0570   23.9870   39.5750 C   0  0  0  0  0  0  0  0  0  0  0  0
   36.0800   25.1590   38.8780 C   0  0  0  0  0  0  0  0  0  0  0  0
   36.5880   26.2850   39.5440 C   0  0  0  0  0  0  0  0  0  0  0  0
   37.3460   24.9030   42.5240 H   0  0  0  0  0  0  0  0  0  0  0  0
   36.4560   22.9300   41.3550 H   0  0  0  0  0  0  0  0  0  0  0  0
   35.6720   23.0950   39.0910 H   0  0  0  0  0  0  0  0  0  0  0  0
   35.7390   25.2600   37.8730 H   0  0  0  0  0  0  0  0  0  0  0  0
   37.6250   28.9680   43.3330 C   0  0  0  0  0  0  0  0  0  0  0  0
   37.0080   27.8540   42.7150 C   0  0  0  0  0  0  0  0  0  0  0  0
   37.5740   27.3430   41.5670 C   0  0  0  0  0  0  0  0  0  0  0  0
   38.6890   27.9450   41.1040 N   0  0  0  0  0  0  0  0  0  0  0  0
   39.2800   29.0050   41.6870 C   0  0  0  0  0  0  0  0  0  0  0  0
   38.7470   29.5270   42.8150 N   0  0  0  0  0  0  0  0  0  0  0  0
   37.1270   29.3110   44.2230 H   0  0  0  0  0  0  0  0  0  0  0  0
   36.1230   27.3860   43.0940 H   0  0  0  0  0  0  0  0  0  0  0  0
   40.1730   29.3930   41.2120 H   0  0  0  0  0  0  0  0  0  0  0  0
   35.7280   28.5150   38.5110 C   0  0  0  0  0  0  0  0  0  0  0  0
   34.5170   28.3790   38.5010 O   0  0  0  0  0  0  0  0  0  0  0  0
   36.6580   27.5630   38.9580 N   0  0  0  0  0  0  0  0  0  0  0  0
   37.7060   27.7260   38.8930 H   0  0  0  0  0  0  0  0  0  0  0  0
   36.2380   29.7270   38.0380 O   0  0  0  0  0  0  0  0  0  0  0  0
   37.0730   30.5440   38.7650 C   0  0  0  0  0  3  0  0  0  0  0  0
   36.3940   30.9420   40.0590 C   0  0  0  0  0  2  0  0  0  0  0  0
   37.3270   32.0020   40.5810 C   0  0  0  0  0  2  0  0  0  0  0  0
   37.8850   32.6640   39.3650 C   0  0  0  0  0  2  0  0  0  0  0  0
   37.3630   31.8890   38.1580 C   0  0  0  0  0  2  0  0  0  0  0  0
  1  2  1  0  0  0  0
  1 13  1  0  0  0  0
  2  7  1  0  0  0  0
  3  8  1  0  0  0  0
  3  2  2  0  0  0  0
  4  3  1  0  0  0  0
  5  6  1  0  0  0  0
  5  4  2  0  0  0  0
  6  1  2  0  0  0  0
  9  4  1  0  0  0  0
 10  5  1  0  0  0  0
 11 17  1  0  0  0  0
 12 18  1  0  0  0  0
 12 11  2  0  0  0  0
 13 12  1  0  0  0  0
 14 13  2  0  0  0  0
 14 15  1  0  0  0  0
 15 16  2  0  0  0  0
 16 11  1  0  0  0  0
 19 15  1  0  0  0  0
 20 22  1  0  0  0  0
 21 20  2  0  0  0  0
 22  6  1  0  0  0  0
 23 22  1  0  0  0  0
 24 20  1  0  0  0  0
 24 25  1  0  0  0  0
 25 26  1  0  0  0  0
 26 27  1  0  0  0  0
 28 27  1  0  0  0  0
 29 25  1  0  0  0  0
 29 28  1  0  0  0  0
M  END
>  <minimizedAffinity>
-5.1924305

$$$$

 OpenBabel03242517053D

 29 31  0  0  0  0  0  0  0  0999 V2000
   36.7410   26.6420   40.0740 C   0  0  0  0  0  0  0  0  0  0  0  0
   36.4540   25.3280   39.7520 C   0  0  0  0  0  0  0  0  0  0  0  0
   36.5800   24.3710   40.7340 C   0  0  0  0  0  0  0  0  0  0  0  0
   36.9830   24.7320   41.9980 C   0  0  0  0  0  0  0  0  0  0  0  0
   37.2710   26.0210   42.3400 C   0  0  0  0  0  0  0  0  0  0  0  0
   37.1400   26.9900   41.3330 C   0  0  0  0  0  0  0  0  0  0  0  0
   36.1410   25.0360   38.7730 H   0  0  0  0  0  0  0  0  0  0  0  0
   36.3700   23.3390   40.5390 H   0  0  0  0  0  0  0  0  0  0  0  0
   37.0710   23.9560   42.7520 H   0  0  0  0  0  0  0  0  0  0  0  0
   37.5830   26.3220   43.3130 H   0  0  0  0  0  0  0  0  0  0  0  0
   35.3670   28.9240   37.3900 C   0  0  0  0  0  0  0  0  0  0  0  0
   35.3790   27.9660   38.4320 C   0  0  0  0  0  0  0  0  0  0  0  0
   36.5900   27.6190   38.9900 C   0  0  0  0  0  0  0  0  0  0  0  0
   37.6950   28.2210   38.5010 N   0  0  0  0  0  0  0  0  0  0  0  0
   37.6890   29.1330   37.5100 C   0  0  0  0  0  0  0  0  0  0  0  0
   36.5140   29.4920   36.9440 N   0  0  0  0  0  0  0  0  0  0  0  0
   34.3870   29.1440   37.0040 H   0  0  0  0  0  0  0  0  0  0  0  0
   34.4950   27.4960   38.8100 H   0  0  0  0  0  0  0  0  0  0  0  0
   38.6470   29.5400   37.2100 H   0  0  0  0  0  0  0  0  0  0  0  0
   38.5090   29.0970   42.0150 C   0  0  0  0  0  0  0  0  0  0  0  0
   39.5470   28.6350   42.4570 O   0  0  0  0  0  0  0  0  0  0  0  0
   37.4180   28.3550   41.5330 N   0  0  0  0  0  0  0  0  0  0  0  0
   36.5200   28.8210   41.2080 H   0  0  0  0  0  0  0  0  0  0  0  0
   38.3920   30.4890   41.9850 O   0  0  0  0  0  0  0  0  0  0  0  0
   38.3100   31.2270   40.8270 C   0  0  0  0  0  3  0  0  0  0  0  0
   38.8440   32.6230   41.0740 C   0  0  0  0  0  2  0  0  0  0  0  0
   38.4510   33.3310   39.8050 C   0  0  0  0  0  2  0  0  0  0  0  0
   37.1750   32.6850   39.3770 C   0  0  0  0  0  2  0  0  0  0  0  0
   36.9200   31.5260   40.3370 C   0  0  0  0  0  2  0  0  0  0  0  0
  1  6  1  0  0  0  0
  2  1  2  0  0  0  0
  2  3  1  0  0  0  0
  3  4  2  0  0  0  0
  4  5  1  0  0  0  0
  4  9  1  0  0  0  0
  5 10  1  0  0  0  0
  6 22  1  0  0  0  0
  6  5  2  0  0  0  0
  7  2  1  0  0  0  0
  8  3  1  0  0  0  0
 11 12  1  0  0  0  0
 12 18  1  0  0  0  0
 12 13  2  0  0  0  0
 13  1  1  0  0  0  0
 14 13  1  0  0  0  0
 15 14  2  0  0  0  0
 16 11  2  0  0  0  0
 16 15  1  0  0  0  0
 17 11  1  0  0  0  0
 19 15  1  0  0  0  0
 20 21  2  0  0  0  0
 22 20  1  0  0  0  0
 23 22  1  0  0  0  0
 24 20  1  0  0  0  0
 25 26  1  0  0  0  0
 25 24  1  0  0  0  0
 27 26  1  0  0  0  0
 28 27  1  0  0  0  0
 28 29  1  0  0  0  0
 29 25  1  0  0  0  0
M  END
>  <minimizedAffinity>
-5.12113762

$$$$

 OpenBabel03242517053D

 29 31  0  0  0  0  0  0  0  0999 V2000
   36.9160   30.2280   38.4280 C   0  0  0  0  0  0  0  0  0  0  0  0
   36.7010   30.3330   37.0660 C   0  0  0  0  0  0  0  0  0  0  0  0
   35.9340   29.3700   36.4490 C   0  0  0  0  0  0  0  0  0  0  0  0
   35.4040   28.3370   37.1860 C   0  0  0  0  0  0  0  0  0  0  0  0
   35.6030   28.2130   38.5300 C   0  0  0  0  0  0  0  0  0  0  0  0
   36.3860   29.1990   39.1510 C   0  0  0  0  0  0  0  0  0  0  0  0
   37.1070   31.1300   36.4830 H   0  0  0  0  0  0  0  0  0  0  0  0
   35.7340   29.4020   35.3970 H   0  0  0  0  0  0  0  0  0  0  0  0
   34.8030   27.5930   36.6730 H   0  0  0  0  0  0  0  0  0  0  0  0
   35.2010   27.4210   39.1200 H   0  0  0  0  0  0  0  0  0  0  0  0
   38.1800   33.4830   39.8820 C   0  0  0  0  0  0  0  0  0  0  0  0
   37.2860   32.5560   39.2950 C   0  0  0  0  0  0  0  0  0  0  0  0
   37.7400   31.2810   39.0320 C   0  0  0  0  0  0  0  0  0  0  0  0
   39.0200   31.0000   39.3550 N   0  0  0  0  0  0  0  0  0  0  0  0
   39.8750   31.8770   39.9130 C   0  0  0  0  0  0  0  0  0  0  0  0
   39.4560   33.1340   40.1820 N   0  0  0  0  0  0  0  0  0  0  0  0
   37.7560   34.4550   40.0570 H   0  0  0  0  0  0  0  0  0  0  0  0
   36.2730   32.7930   39.0440 H   0  0  0  0  0  0  0  0  0  0  0  0
   40.8770   31.5220   40.1230 H   0  0  0  0  0  0  0  0  0  0  0  0
   36.8480   28.2080   41.5140 C   0  0  0  0  0  0  0  0  0  0  0  0
   36.6850   27.0100   41.3600 O   0  0  0  0  0  0  0  0  0  0  0  0
   36.6890   29.1930   40.5250 N   0  0  0  0  0  0  0  0  0  0  0  0
   36.7980   30.2280   40.7390 H   0  0  0  0  0  0  0  0  0  0  0  0
   37.2280   28.6430   42.7860 O   0  0  0  0  0  0  0  0  0  0  0  0
   38.4870   28.4690   43.3130 C   0  0  0  0  0  3  0  0  0  0  0  0
   39.5260   28.9080   42.3020 C   0  0  0  0  0  2  0  0  0  0  0  0
   40.8000   28.4220   42.9390 C   0  0  0  0  0  2  0  0  0  0  0  0
   40.4170   27.1820   43.6790 C   0  0  0  0  0  2  0  0  0  0  0  0
   38.9010   27.0450   43.5610 C   0  0  0  0  0  2  0  0  0  0  0  0
  1 13  1  0  0  0  0
  1  6  1  0  0  0  0
  2  1  2  0  0  0  0
  3  2  1  0  0  0  0
  3  4  2  0  0  0  0
  4  5  1  0  0  0  0
  5 10  1  0  0  0  0
  5  6  2  0  0  0  0
  6 22  1  0  0  0  0
  7  2  1  0  0  0  0
  8  3  1  0  0  0  0
  9  4  1  0  0  0  0
 11 17  1  0  0  0  0
 11 16  1  0  0  0  0
 12 11  2  0  0  0  0
 13 12  1  0  0  0  0
 13 14  2  0  0  0  0
 14 15  1  0  0  0  0
 15 19  1  0  0  0  0
 15 16  2  0  0  0  0
 18 12  1  0  0  0  0
 20 24  1  0  0  0  0
 21 20  2  0  0  0  0
 22 23  1  0  0  0  0
 22 20  1  0  0  0  0
 24 25  1  0  0  0  0
 25 29  1  0  0  0  0
 26 27  1  0  0  0  0
 26 25  1  0  0  0  0
 27 28  1  0  0  0  0
 29 28  1  0  0  0  0
M  END
>  <minimizedAffinity>
-5.03306389

$$$$

 OpenBabel03242517053D

 29 31  0  0  0  0  0  0  0  0999 V2000
   38.2190   26.9300   41.9770 C   0  0  0  0  0  0  0  0  0  0  0  0
   38.2110   25.5580   42.1450 C   0  0  0  0  0  0  0  0  0  0  0  0
   39.1260   24.9990   43.0090 C   0  0  0  0  0  0  0  0  0  0  0  0
   40.0180   25.8030   43.6790 C   0  0  0  0  0  0  0  0  0  0  0  0
   40.0450   27.1580   43.5300 C   0  0  0  0  0  0  0  0  0  0  0  0
   39.1090   27.7200   42.6480 C   0  0  0  0  0  0  0  0  0  0  0  0
   37.5230   24.9240   41.6300 H   0  0  0  0  0  0  0  0  0  0  0  0
   39.1640   23.9420   43.1770 H   0  0  0  0  0  0  0  0  0  0  0  0
   40.7270   25.3340   44.3550 H   0  0  0  0  0  0  0  0  0  0  0  0
   40.7270   27.7990   44.0400 H   0  0  0  0  0  0  0  0  0  0  0  0
   36.1220   27.6980   38.9250 C   0  0  0  0  0  0  0  0  0  0  0  0
   37.1290   27.1020   39.7210 C   0  0  0  0  0  0  0  0  0  0  0  0
   37.2230   27.4720   41.0460 C   0  0  0  0  0  0  0  0  0  0  0  0
   36.3400   28.3870   41.4990 N   0  0  0  0  0  0  0  0  0  0  0  0
   35.3820   28.9570   40.7460 C   0  0  0  0  0  0  0  0  0  0  0  0
   35.2660   28.6130   39.4430 N   0  0  0  0  0  0  0  0  0  0  0  0
   36.1110   27.3610   37.9030 H   0  0  0  0  0  0  0  0  0  0  0  0
   37.8230   26.3770   39.3490 H   0  0  0  0  0  0  0  0  0  0  0  0
   34.7370   29.6790   41.2330 H   0  0  0  0  0  0  0  0  0  0  0  0
   39.8630   30.0550   41.7780 C   0  0  0  0  0  0  0  0  0  0  0  0
   40.9880   29.8550   41.3550 O   0  0  0  0  0  0  0  0  0  0  0  0
   39.0290   29.0990   42.3810 N   0  0  0  0  0  0  0  0  0  0  0  0
   38.0760   29.3530   42.7750 H   0  0  0  0  0  0  0  0  0  0  0  0
   39.3550   31.3510   41.6520 O   0  0  0  0  0  0  0  0  0  0  0  0
   38.2700   31.6760   40.8720 C   0  0  0  0  0  3  0  0  0  0  0  0
   38.3540   30.9400   39.5510 C   0  0  0  0  0  2  0  0  0  0  0  0
   37.2530   31.5980   38.7620 C   0  0  0  0  0  2  0  0  0  0  0  0
   37.2090   33.0070   39.2520 C   0  0  0  0  0  2  0  0  0  0  0  0
   38.2020   33.1060   40.4090 C   0  0  0  0  0  2  0  0  0  0  0  0
  1  2  2  0  0  0  0
  1  6  1  0  0  0  0
  2  3  1  0  0  0  0
  3  8  1  0  0  0  0
  3  4  2  0  0  0  0
  4  9  1  0  0  0  0
  5  4  1  0  0  0  0
  5 10  1  0  0  0  0
  6  5  2  0  0  0  0
  7  2  1  0  0  0  0
 11 16  2  0  0  0  0
 11 12  1  0  0  0  0
 12 13  2  0  0  0  0
 13 14  1  0  0  0  0
 13  1  1  0  0  0  0
 15 19  1  0  0  0  0
 15 14  2  0  0  0  0
 16 15  1  0  0  0  0
 17 11  1  0  0  0  0
 18 12  1  0  0  0  0
 20 22  1  0  0  0  0
 21 20  2  0  0  0  0
 22  6  1  0  0  0  0
 22 23  1  0  0  0  0
 24 20  1  0  0  0  0
 25 24  1  0  0  0  0
 26 25  1  0  0  0  0
 27 28  1  0  0  0  0
 27 26  1  0  0  0  0
 28 29  1  0  0  0  0
 29 25  1  0  0  0  0
M  END
>  <minimizedAffinity>
-5.03150845

$$$$

 OpenBabel03242517053D

 29 31  0  0  0  0  0  0  0  0999 V2000
   39.0210   31.3620   40.3040 C   0  0  0  0  0  0  0  0  0  0  0  0
   39.0360   32.3910   39.3800 C   0  0  0  0  0  0  0  0  0  0  0  0
   40.0950   33.2720   39.3990 C   0  0  0  0  0  0  0  0  0  0  0  0
   41.1020   33.1150   40.3220 C   0  0  0  0  0  0  0  0  0  0  0  0
   41.1100   32.1090   41.2420 C   0  0  0  0  0  0  0  0  0  0  0  0
   40.0270   31.2160   41.2160 C   0  0  0  0  0  0  0  0  0  0  0  0
   38.2590   32.5220   38.6600 H   0  0  0  0  0  0  0  0  0  0  0  0
   40.1570   34.0860   38.7070 H   0  0  0  0  0  0  0  0  0  0  0  0
   41.9240   33.8240   40.3110 H   0  0  0  0  0  0  0  0  0  0  0  0
   41.8810   31.9690   41.9640 H   0  0  0  0  0  0  0  0  0  0  0  0
   35.6180   29.7570   40.6900 C   0  0  0  0  0  0  0  0  0  0  0  0
   36.6520   30.7150   40.8260 C   0  0  0  0  0  0  0  0  0  0  0  0
   37.8710   30.4540   40.2390 C   0  0  0  0  0  0  0  0  0  0  0  0
   38.0000   29.2900   39.5680 N   0  0  0  0  0  0  0  0  0  0  0  0
   37.0210   28.3750   39.4360 C   0  0  0  0  0  0  0  0  0  0  0  0
   35.8150   28.6060   40.0020 N   0  0  0  0  0  0  0  0  0  0  0  0
   34.6980   30.0300   41.1740 H   0  0  0  0  0  0  0  0  0  0  0  0
   36.5350   31.6350   41.3610 H   0  0  0  0  0  0  0  0  0  0  0  0
   37.2560   27.4810   38.8700 H   0  0  0  0  0  0  0  0  0  0  0  0
   40.4030   28.8350   42.2020 C   0  0  0  0  0  0  0  0  0  0  0  0
   41.1260   28.2960   41.3820 O   0  0  0  0  0  0  0  0  0  0  0  0
   39.8910   30.1400   42.1130 N   0  0  0  0  0  0  0  0  0  0  0  0
   39.2230   30.5330   42.8400 H   0  0  0  0  0  0  0  0  0  0  0  0
   40.0530   28.0920   43.3330 O   0  0  0  0  0  0  0  0  0  0  0  0
   38.8510   27.4380   43.4780 C   0  0  0  0  0  3  0  0  0  0  0  0
   38.5180   26.6970   42.2000 C   0  0  0  0  0  2  0  0  0  0  0  0
   37.0980   26.2680   42.4560 C   0  0  0  0  0  2  0  0  0  0  0  0
   36.5110   27.3460   43.3060 C   0  0  0  0  0  2  0  0  0  0  0  0
   37.6420   28.3180   43.6330 C   0  0  0  0  0  2  0  0  0  0  0  0
  1  6  1  0  0  0  0
  2  3  1  0  0  0  0
  2  1  2  0  0  0  0
  3  4  2  0  0  0  0
  4  5  1  0  0  0  0
  5 10  1  0  0  0  0
  6  5  2  0  0  0  0
  6 22  1  0  0  0  0
  7  2  1  0  0  0  0
  8  3  1  0  0  0  0
  9  4  1  0  0  0  0
 11 12  1  0  0  0  0
 11 17  1  0  0  0  0
 12 18  1  0  0  0  0
 13  1  1  0  0  0  0
 13 12  2  0  0  0  0
 14 13  1  0  0  0  0
 15 14  2  0  0  0  0
 15 16  1  0  0  0  0
 16 11  2  0  0  0  0
 19 15  1  0  0  0  0
 20 24  1  0  0  0  0
 21 20  2  0  0  0  0
 22 20  1  0  0  0  0
 22 23  1  0  0  0  0
 24 25  1  0  0  0  0
 25 29  1  0  0  0  0
 26 27  1  0  0  0  0
 26 25  1  0  0  0  0
 27 28  1  0  0  0  0
 28 29  1  0  0  0  0
M  END
>  <minimizedAffinity>
-4.91540194

$$$$

 OpenBabel03242517053D

 29 31  0  0  0  0  0  0  0  0999 V2000
   36.9300   30.2990   37.3800 C   0  0  0  0  0  0  0  0  0  0  0  0
   36.9950   30.7490   36.0740 C   0  0  0  0  0  0  0  0  0  0  0  0
   36.3550   30.0190   35.0980 C   0  0  0  0  0  0  0  0  0  0  0  0
   35.6740   28.8730   35.4330 C   0  0  0  0  0  0  0  0  0  0  0  0
   35.5960   28.4080   36.7130 C   0  0  0  0  0  0  0  0  0  0  0  0
   36.2510   29.1580   37.7020 C   0  0  0  0  0  0  0  0  0  0  0  0
   37.5210   31.6380   35.8030 H   0  0  0  0  0  0  0  0  0  0  0  0
   36.3720   30.3230   34.0710 H   0  0  0  0  0  0  0  0  0  0  0  0
   35.1780   28.3190   34.6410 H   0  0  0  0  0  0  0  0  0  0  0  0
   35.0730   27.5230   36.9930 H   0  0  0  0  0  0  0  0  0  0  0  0
   37.8690   32.9440   39.9150 C   0  0  0  0  0  0  0  0  0  0  0  0
   37.0920   32.2420   38.9620 C   0  0  0  0  0  0  0  0  0  0  0  0
   37.6290   31.1150   38.3790 C   0  0  0  0  0  0  0  0  0  0  0  0
   38.8730   30.7530   38.7580 N   0  0  0  0  0  0  0  0  0  0  0  0
   39.6160   31.4170   39.6630 C   0  0  0  0  0  0  0  0  0  0  0  0
   39.1140   32.5260   40.2510 N   0  0  0  0  0  0  0  0  0  0  0  0
   37.3840   33.8110   40.3260 H   0  0  0  0  0  0  0  0  0  0  0  0
   36.1060   32.5400   38.6710 H   0  0  0  0  0  0  0  0  0  0  0  0
   40.6010   31.0190   39.8780 H   0  0  0  0  0  0  0  0  0  0  0  0
   35.3510   28.8210   40.1220 C   0  0  0  0  0  0  0  0  0  0  0  0
   34.2180   29.2700   40.0720 O   0  0  0  0  0  0  0  0  0  0  0  0
   36.2710   28.7940   39.0610 N   0  0  0  0  0  0  0  0  0  0  0  0
   37.2630   28.4340   39.1860 H   0  0  0  0  0  0  0  0  0  0  0  0
   35.7730   28.2850   41.3410 O   0  0  0  0  0  0  0  0  0  0  0  0
   37.0750   28.3160   41.7830 C   0  0  0  0  0  3  0  0  0  0  0  0
   37.1820   27.5800   43.1020 C   0  0  0  0  0  2  0  0  0  0  0  0
   38.5800   27.9300   43.5370 C   0  0  0  0  0  2  0  0  0  0  0  0
   38.8230   29.3030   43.0030 C   0  0  0  0  0  2  0  0  0  0  0  0
   37.6050   29.6730   42.1590 C   0  0  0  0  0  2  0  0  0  0  0  0
  1  6  1  0  0  0  0
  1 13  1  0  0  0  0
  2  1  2  0  0  0  0
  3  4  2  0  0  0  0
  3  2  1  0  0  0  0
  4  5  1  0  0  0  0
  5 10  1  0  0  0  0
  5  6  2  0  0  0  0
  6 22  1  0  0  0  0
  7  2  1  0  0  0  0
  8  3  1  0  0  0  0
  9  4  1  0  0  0  0
 11 16  1  0  0  0  0
 11 17  1  0  0  0  0
 12 11  2  0  0  0  0
 13 14  2  0  0  0  0
 13 12  1  0  0  0  0
 14 15  1  0  0  0  0
 15 19  1  0  0  0  0
 15 16  2  0  0  0  0
 18 12  1  0  0  0  0
 20 24  1  0  0  0  0
 21 20  2  0  0  0  0
 22 23  1  0  0  0  0
 22 20  1  0  0  0  0
 24 25  1  0  0  0  0
 25 29  1  0  0  0  0
 25 26  1  0  0  0  0
 26 27  1  0  0  0  0
 28 27  1  0  0  0  0
 29 28  1  0  0  0  0
M  END
>  <minimizedAffinity>
-4.85919046

$$$$
