
 OpenBabel03242517003D

 28 30  0  0  0  0  0  0  0  0999 V2000
   46.6480   34.7750   41.9680 C   0  0  0  0  0  0  0  0  0  0  0  0
   47.9400   35.2650   41.9140 C   0  0  0  0  0  0  0  0  0  0  0  0
   48.6660   35.0870   40.7530 C   0  0  0  0  0  0  0  0  0  0  0  0
   48.1080   34.4390   39.6890 C   0  0  0  0  0  0  0  0  0  0  0  0
   46.8350   33.9410   39.7050 C   0  0  0  0  0  0  0  0  0  0  0  0
   46.1150   34.1330   40.8940 C   0  0  0  0  0  0  0  0  0  0  0  0
   48.3860   35.7810   42.7590 H   0  0  0  0  0  0  0  0  0  0  0  0
   49.6780   35.4420   40.6380 H   0  0  0  0  0  0  0  0  0  0  0  0
   48.6770   34.3000   38.7790 H   0  0  0  0  0  0  0  0  0  0  0  0
   46.3560   33.4230   38.8850 H   0  0  0  0  0  0  0  0  0  0  0  0
   44.5130   36.1990   44.7470 C   0  0  0  0  0  0  0  0  0  0  0  0
   45.1670   36.1000   43.5000 C   0  0  0  0  0  0  0  0  0  0  0  0
   45.9260   34.9900   43.2190 C   0  0  0  0  0  0  0  0  0  0  0  0
   46.0040   34.0290   44.1830 N   0  0  0  0  0  0  0  0  0  0  0  0
   45.3840   34.1120   45.3790 C   0  0  0  0  0  0  0  0  0  0  0  0
   44.6280   35.2170   45.6580 N   0  0  0  0  0  0  0  0  0  0  0  0
   43.9140   37.0640   44.9800 H   0  0  0  0  0  0  0  0  0  0  0  0
   45.0880   36.8640   42.7660 H   0  0  0  0  0  0  0  0  0  0  0  0
   45.5120   33.2900   46.0780 H   0  0  0  0  0  0  0  0  0  0  0  0
   43.4920   34.1940   40.8100 C   0  0  0  0  0  0  0  0  0  0  0  0
   43.2430   35.3340   40.3860 O   0  0  0  0  0  0  0  0  0  0  0  0
   44.7870   33.6680   41.0520 N   0  0  0  0  0  0  0  0  0  0  0  0
   44.9620   32.6940   41.4480 H   0  0  0  0  0  0  0  0  0  0  0  0
   42.3940   33.2030   41.1270 C   0  0  0  0  0  3  0  0  0  0  0  0
   42.9070   31.8830   40.5840 C   0  0  0  0  0  2  0  0  0  0  0  0
   42.3180   31.7010   39.2140 C   0  0  0  0  0  2  0  0  0  0  0  0
   41.3000   32.7920   39.0190 C   0  0  0  0  0  2  0  0  0  0  0  0
   41.2150   33.5840   40.2920 C   0  0  0  0  0  2  0  0  0  0  0  0
  1 13  1  0  0  0  0
  2  1  1  0  0  0  0
  2  7  1  0  0  0  0
  3  2  2  0  0  0  0
  4  5  2  0  0  0  0
  4  3  1  0  0  0  0
  5  6  1  0  0  0  0
  6 22  1  0  0  0  0
  6  1  2  0  0  0  0
  8  3  1  0  0  0  0
  9  4  1  0  0  0  0
 10  5  1  0  0  0  0
 11 17  1  0  0  0  0
 11 16  1  0  0  0  0
 12 11  2  0  0  0  0
 13 12  1  0  0  0  0
 13 14  2  0  0  0  0
 14 15  1  0  0  0  0
 15 16  2  0  0  0  0
 15 19  1  0  0  0  0
 18 12  1  0  0  0  0
 20 22  1  0  0  0  0
 20 24  1  0  0  0  0
 21 20  2  0  0  0  0
 22 23  1  0  0  0  0
 25 24  1  0  0  0  0
 26 25  1  0  0  0  0
 27 26  1  0  0  0  0
 27 28  1  0  0  0  0
 28 24  1  0  0  0  0
M  END
>  <minimizedAffinity>
-5.75160885

>  <minimizedRMSD>
0.902350962

$$$$
