
     RDKit          3D

 27 28  0  0  0  0  0  0  0  0999 V2000
   44.5306   36.0452   44.5680 C   0  0  0  0  0  0  0  0  0  0  0  0
   45.2484   36.0012   43.3659 C   0  0  0  0  0  0  0  0  0  0  0  0
   46.1393   34.9530   43.1454 C   0  0  0  0  0  0  0  0  0  0  0  0
   46.2887   33.9975   44.1064 N   0  0  0  0  0  0  0  0  0  0  0  0
   45.5698   34.0774   45.2645 C   0  0  0  0  0  0  0  0  0  0  0  0
   44.7038   35.0911   45.4856 N   0  0  0  0  0  0  0  0  0  0  0  0
   46.3851   34.2154   40.7845 C   0  0  0  0  0  0  0  0  0  0  0  0
   45.2151   33.7185   40.9372 O   0  0  0  0  0  0  0  0  0  0  0  0
   46.9032   34.8417   41.9485 N   0  0  0  0  0  0  0  0  0  0  0  0
   43.8849   36.9053   44.5993 H   0  0  0  0  0  0  0  0  0  0  0  0
   45.2053   36.7017   42.5450 H   0  0  0  0  0  0  0  0  0  0  0  0
   45.6564   33.3438   46.0516 H   0  0  0  0  0  0  0  0  0  0  0  0
   47.8753   35.2657   42.0183 H   0  0  0  0  0  0  0  0  0  0  0  0
   47.2075   34.2036   39.5823 C   0  0  0  0  0  0  0  0  0  0  0  0
   46.9973   33.0167   38.6703 C   0  0  0  0  0  0  0  0  0  0  0  0
   48.0821   33.3142   37.6244 C   0  0  0  0  0  0  0  0  0  0  0  0
   49.2201   33.9713   38.4028 C   0  0  0  0  0  0  0  0  0  0  0  0
   48.6885   34.0892   39.8374 C   0  0  0  0  0  0  0  0  0  0  0  0
   47.0714   35.1042   38.9424 H   0  0  0  0  0  0  0  0  0  0  0  0
   47.3297   32.1234   39.2269 H   0  0  0  0  0  0  0  0  0  0  0  0
   46.0067   32.9568   38.2216 H   0  0  0  0  0  0  0  0  0  0  0  0
   47.6232   34.0314   36.8885 H   0  0  0  0  0  0  0  0  0  0  0  0
   48.3822   32.4213   37.0760 H   0  0  0  0  0  0  0  0  0  0  0  0
   49.4026   35.0098   38.0425 H   0  0  0  0  0  0  0  0  0  0  0  0
   50.1422   33.3708   38.4030 H   0  0  0  0  0  0  0  0  0  0  0  0
   49.1228   34.9581   40.3659 H   0  0  0  0  0  0  0  0  0  0  0  0
   48.9226   33.1100   40.3265 H   0  0  0  0  0  0  0  0  0  0  0  0
  1  6  2  0
  2  1  1  0
  3  2  2  0
  3  4  1  0
  4  5  2  0
  5  6  1  0
  7  8  2  0
  7  9  1  0
  9  3  1  0
  1 10  1  0
  2 11  1  0
  5 12  1  0
  9 13  1  0
 14 15  1  0
 15 16  1  0
 16 17  1  0
 17 18  1  0
 18 14  1  0
 14 19  1  0
 15 20  1  0
 15 21  1  0
 16 22  1  0
 16 23  1  0
 17 24  1  0
 17 25  1  0
 18 26  1  0
 18 27  1  0
  7 14  1  0
M  ISO  3  10  14  11  14  12  14
M  END
>  <DihAtoms>  (1) 
7,6,13,14

>  <DihDeg>  (1) 
-119.99862559982182

$$$$
