
 OpenBabel03242518553D

 38 40  0  0  1  0  0  0  0  0999 V2000
   45.7560   31.2510   46.6210 C   0  0  2  0  0  0  0  0  0  0  0  0
   45.8130   30.4930   47.9090 C   0  0  0  0  0  0  0  0  0  0  0  0
   45.0320   29.2430   47.7160 C   0  0  0  0  0  0  0  0  0  0  0  0
   44.3430   29.1070   46.4000 C   0  0  0  0  0  0  0  0  0  0  0  0
   45.3300   29.2610   45.2760 C   0  0  0  0  0  0  0  0  0  0  0  0
   46.2610   30.3570   45.5040 C   0  0  2  0  0  0  0  0  0  0  0  0
   44.6930   31.4310   46.3590 H   0  0  0  0  0  0  0  0  0  0  0  0
   45.3450   31.1670   48.6800 H   0  0  0  0  0  0  0  0  0  0  0  0
   46.8440   30.3260   48.2830 H   0  0  0  0  0  0  0  0  0  0  0  0
   44.1990   29.2540   48.4810 H   0  0  0  0  0  0  0  0  0  0  0  0
   45.5790   28.3010   47.9770 H   0  0  0  0  0  0  0  0  0  0  0  0
   43.9140   28.0800   46.3700 H   0  0  0  0  0  0  0  0  0  0  0  0
   43.4680   29.7820   46.3090 H   0  0  0  0  0  0  0  0  0  0  0  0
   44.6980   29.5140   44.3720 H   0  0  0  0  0  0  0  0  0  0  0  0
   45.7360   28.2580   45.0520 H   0  0  0  0  0  0  0  0  0  0  0  0
   46.4220   31.0100   44.6360 H   0  0  0  0  0  0  0  0  0  0  0  0
   47.5550   29.7280   45.8910 C   0  0  0  0  0  0  0  0  0  0  0  0
   47.4930   28.6310   46.0730 H   0  0  0  0  0  0  0  0  0  0  0  0
   47.8710   30.1610   46.8620 H   0  0  0  0  0  0  0  0  0  0  0  0
   48.6820   29.9070   44.9180 C   0  0  0  0  0  3  0  0  0  0  0  0
   48.9790   28.6680   44.1100 C   0  0  0  0  0  2  0  0  0  0  0  0
   50.0390   29.2630   43.1770 C   0  0  0  0  0  2  0  0  0  0  0  0
   49.3080   30.5100   42.7090 C   0  0  0  0  0  2  0  0  0  0  0  0
   48.2720   30.8260   43.7590 C   0  0  0  0  0  2  0  0  0  0  0  0
   46.4490   32.5640   46.6570 C   0  0  0  0  0  0  0  0  0  0  0  0
   47.3790   32.8270   47.4510 O   0  0  0  0  0  0  0  0  0  0  0  0
   44.6000   35.3440   45.1680 C   0  0  0  0  0  0  0  0  0  0  0  0
   45.1330   35.4580   43.8570 C   0  0  0  0  0  0  0  0  0  0  0  0
   46.1340   34.5630   43.5220 C   0  0  0  0  0  0  0  0  0  0  0  0
   46.4720   33.7010   44.4810 N   0  0  0  0  0  0  0  0  0  0  0  0
   45.9880   33.5820   45.6960 C   0  0  0  0  0  0  0  0  0  0  0  0
   45.0160   34.4390   46.0460 N   0  0  0  0  0  0  0  0  0  0  0  0
   43.8010   36.0470   45.4550 H   0  0  0  0  0  0  0  0  0  0  0  0
   44.7600   36.2130   43.1770 H   0  0  0  0  0  0  0  0  0  0  0  0
   46.6780   34.6720   42.1800 C   0  0  0  0  0  0  0  0  0  0  0  0
   47.3830   33.5130   41.8680 F   0  0  0  0  0  0  0  0  0  0  0  0
   47.5370   35.7220   42.1820 F   0  0  0  0  0  0  0  0  0  0  0  0
   45.6850   34.7760   41.2120 F   0  0  0  0  0  0  0  0  0  0  0  0
  1  7  1  6  0  0  0
  1 25  1  0  0  0  0
  1  2  1  0  0  0  0
  2  9  1  0  0  0  0
  2  8  1  0  0  0  0
  3  2  1  0  0  0  0
  3 11  1  0  0  0  0
  3 10  1  0  0  0  0
  4  3  1  0  0  0  0
  5  6  1  0  0  0  0
  5  4  1  0  0  0  0
  6 16  1  6  0  0  0
  6 17  1  0  0  0  0
  6  1  1  0  0  0  0
 12  4  1  0  0  0  0
 13  4  1  0  0  0  0
 14  5  1  0  0  0  0
 15  5  1  0  0  0  0
 17 18  1  0  0  0  0
 17 19  1  0  0  0  0
 20 17  1  0  0  0  0
 21 20  1  0  0  0  0
 22 21  1  0  0  0  0
 23 22  1  0  0  0  0
 23 24  1  0  0  0  0
 24 20  1  0  0  0  0
 25 26  2  0  0  0  0
 27 33  1  0  0  0  0
 27 32  1  0  0  0  0
 28 27  2  0  0  0  0
 29 28  1  0  0  0  0
 29 30  2  0  0  0  0
 30 31  1  0  0  0  0
 31 32  2  0  0  0  0
 31 25  1  0  0  0  0
 34 28  1  0  0  0  0
 35 37  1  0  0  0  0
 35 29  1  0  0  0  0
 36 35  1  0  0  0  0
 38 35  1  0  0  0  0
M  END
>  <minimizedAffinity>
-5.22006369

>  <minimizedRMSD>
0.940840304

$$$$
