
 OpenBabel03252504003D

 30 33  0  0  0  0  0  0  0  0999 V2000
   46.0110   31.4930   45.1820 C   0  0  0  0  0  0  0  0  0  0  0  0
   45.8840   32.8410   45.5260 C   0  0  0  0  0  0  0  0  0  0  0  0
   45.6220   33.1880   46.8250 C   0  0  0  0  0  0  0  0  0  0  0  0
   45.4850   32.2010   47.7780 C   0  0  0  0  0  0  0  0  0  0  0  0
   45.2350   32.2140   49.0930 N   0  0  0  0  0  0  0  0  0  0  0  0
   45.1940   30.9810   49.6050 C   0  0  0  0  0  0  0  0  0  0  0  0
   45.4310   30.0880   48.5700 C   0  0  0  0  0  0  0  0  0  0  0  0
   45.6110   30.8570   47.4410 C   0  0  0  0  0  0  0  0  0  0  0  0
   45.8760   30.5120   46.1270 C   0  0  0  0  0  0  0  0  0  0  0  0
   46.2200   31.1660   44.1580 H   0  0  0  0  0  0  0  0  0  0  0  0
   45.5220   34.2270   47.1000 H   0  0  0  0  0  0  0  0  0  0  0  0
   45.0860   33.0740   49.6690 H   0  0  0  0  0  0  0  0  0  0  0  0
   45.0090   30.6880   50.6460 H   0  0  0  0  0  0  0  0  0  0  0  0
   45.4710   29.0190   48.6130 H   0  0  0  0  0  0  0  0  0  0  0  0
   45.9730   29.4640   45.8690 H   0  0  0  0  0  0  0  0  0  0  0  0
   47.3160   34.7100   42.7400 C   0  0  0  0  0  0  0  0  0  0  0  0
   46.3450   35.6620   42.4370 C   0  0  0  0  0  0  0  0  0  0  0  0
   45.1810   35.6590   43.2060 C   0  0  0  0  0  0  0  0  0  0  0  0
   45.0630   34.7380   44.1920 N   0  0  0  0  0  0  0  0  0  0  0  0
   46.0420   33.8230   44.4520 C   0  0  0  0  0  0  0  0  0  0  0  0
   47.1640   33.8140   43.7240 N   0  0  0  0  0  0  0  0  0  0  0  0
   46.3980   36.4080   41.6680 H   0  0  0  0  0  0  0  0  0  0  0  0
   44.3730   36.3650   43.0400 H   0  0  0  0  0  0  0  0  0  0  0  0
   48.4870   34.7730   41.9090 C   0  0  0  0  0  0  0  0  0  0  0  0
   49.5010   35.5070   42.0850 O   0  0  0  0  0  0  0  0  0  0  0  0
   48.5770   33.9050   40.6950 C   0  0  0  0  0  3  0  0  0  0  0  0
   47.4840   32.8680   40.6710 C   0  0  0  0  0  2  0  0  0  0  0  0
   47.0710   32.8090   39.2330 C   0  0  0  0  0  2  0  0  0  0  0  0
   47.8560   33.8190   38.4600 C   0  0  0  0  0  2  0  0  0  0  0  0
   48.3470   34.7880   39.4860 C   0  0  0  0  0  2  0  0  0  0  0  0
  1  2  2  0  0  0  0
  1  9  1  0  0  0  0
  2  3  1  0  0  0  0
  3 11  1  0  0  0  0
  3  4  2  0  0  0  0
  4  5  1  0  0  0  0
  5  6  1  0  0  0  0
  5 12  1  0  0  0  0
  6 13  1  0  0  0  0
  7 14  1  0  0  0  0
  7  6  2  0  0  0  0
  8  4  1  0  0  0  0
  8  7  1  0  0  0  0
  9  8  2  0  0  0  0
 10  1  1  0  0  0  0
 15  9  1  0  0  0  0
 16 21  1  0  0  0  0
 17 16  2  0  0  0  0
 17 18  1  0  0  0  0
 18 19  2  0  0  0  0
 19 20  1  0  0  0  0
 20  2  1  0  0  0  0
 21 20  2  0  0  0  0
 22 17  1  0  0  0  0
 23 18  1  0  0  0  0
 24 25  2  0  0  0  0
 24 16  1  0  0  0  0
 26 24  1  0  0  0  0
 27 26  1  0  0  0  0
 28 27  1  0  0  0  0
 29 28  1  0  0  0  0
 29 30  1  0  0  0  0
 30 26  1  0  0  0  0
M  END
>  <minimizedAffinity>
-5.96371078

>  <minimizedRMSD>
0.656869709

$$$$
