
 OpenBabel03252505113D

 40 43  0  0  1  0  0  0  0  0999 V2000
   44.5810   35.6000   44.6170 C   0  0  0  0  0  0  0  0  0  0  0  0
   45.2310   35.6000   43.3640 C   0  0  0  0  0  0  0  0  0  0  0  0
   46.3130   34.6760   43.1750 C   0  0  0  0  0  0  0  0  0  0  0  0
   46.6550   33.8530   44.2060 N   0  0  0  0  0  0  0  0  0  0  0  0
   46.0080   33.8930   45.3730 C   0  0  0  0  0  0  0  0  0  0  0  0
   44.9730   34.7570   45.5920 N   0  0  0  0  0  0  0  0  0  0  0  0
   43.7750   36.3170   44.6970 H   0  0  0  0  0  0  0  0  0  0  0  0
   44.9840   36.2320   42.5430 H   0  0  0  0  0  0  0  0  0  0  0  0
   46.4200   32.9810   46.4670 C   0  0  2  0  0  0  0  0  0  0  0  0
   46.9660   31.7540   45.7760 C   0  0  0  0  0  0  0  0  0  0  0  0
   46.0960   30.5620   45.7800 C   0  0  0  0  0  0  0  0  0  0  0  0
   45.8120   30.3000   47.2670 C   0  0  0  0  0  0  0  0  0  0  0  0
   45.0180   31.3600   47.8780 C   0  0  0  0  0  0  0  0  0  0  0  0
   45.3800   32.7310   47.4200 C   0  0  0  0  0  0  0  0  0  0  0  0
   47.2720   33.5160   46.9740 H   0  0  0  0  0  0  0  0  0  0  0  0
   47.2970   31.9650   44.7340 H   0  0  0  0  0  0  0  0  0  0  0  0
   47.9000   31.4670   46.3070 H   0  0  0  0  0  0  0  0  0  0  0  0
   46.7100   29.6990   45.4670 H   0  0  0  0  0  0  0  0  0  0  0  0
   45.1850   30.6030   45.1790 H   0  0  0  0  0  0  0  0  0  0  0  0
   45.1630   29.3970   47.2550 H   0  0  0  0  0  0  0  0  0  0  0  0
   46.7630   30.1280   47.7720 H   0  0  0  0  0  0  0  0  0  0  0  0
   44.2320   31.3960   48.5770 H   0  0  0  0  0  0  0  0  0  0  0  0
   44.6820   33.8740   47.9300 N   0  0  0  0  0  0  0  0  0  0  0  0
   45.0080   34.4290   48.7580 H   0  0  0  0  0  0  0  0  0  0  0  0
   43.8240   34.4070   47.7020 H   0  0  0  0  0  0  0  0  0  0  0  0
   46.9940   34.6500   41.8990 C   0  0  0  0  0  0  0  0  0  0  0  0
   48.1410   35.3850   41.7610 C   0  0  0  0  0  0  0  0  0  0  0  0
   48.7540   35.3190   40.4930 C   0  0  0  0  0  0  0  0  0  0  0  0
   48.1430   34.5330   39.5400 C   0  0  0  0  0  0  0  0  0  0  0  0
   47.0070   33.8080   39.6800 C   0  0  0  0  0  0  0  0  0  0  0  0
   46.4380   33.8920   40.9170 N   0  0  0  0  0  0  0  0  0  0  0  0
   48.5550   35.9730   42.5530 H   0  0  0  0  0  0  0  0  0  0  0  0
   49.6520   35.8880   40.3710 H   0  0  0  0  0  0  0  0  0  0  0  0
   48.7030   34.5620   38.6150 H   0  0  0  0  0  0  0  0  0  0  0  0
   46.4570   33.0470   38.6790 O   0  0  0  0  0  0  0  0  0  0  0  0
   46.7250   33.1620   37.3100 C   0  0  0  0  0  3  0  0  0  0  0  0
   47.5670   31.9890   36.8290 C   0  0  0  0  0  2  0  0  0  0  0  0
   47.3360   32.0790   35.3240 C   0  0  0  0  0  2  0  0  0  0  0  0
   45.8360   32.2750   35.2400 C   0  0  0  0  0  2  0  0  0  0  0  0
   45.4350   32.9070   36.5490 C   0  0  0  0  0  2  0  0  0  0  0  0
  1  7  1  0  0  0  0
  1  6  1  0  0  0  0
  2  1  2  0  0  0  0
  3  2  1  0  0  0  0
  3  4  2  0  0  0  0
  4  5  1  0  0  0  0
  5  6  2  0  0  0  0
  5  9  1  0  0  0  0
  8  2  1  0  0  0  0
  9 15  1  1  0  0  0
  9 14  1  0  0  0  0
 10 11  1  0  0  0  0
 10 17  1  0  0  0  0
 10  9  1  0  0  0  0
 11 12  1  0  0  0  0
 12 21  1  0  0  0  0
 12 13  1  0  0  0  0
 13 22  1  0  0  0  0
 14 13  2  0  0  0  0
 14 23  1  0  0  0  0
 16 10  1  0  0  0  0
 18 11  1  0  0  0  0
 19 11  1  0  0  0  0
 20 12  1  0  0  0  0
 23 24  1  0  0  0  0
 25 23  1  0  0  0  0
 26  3  1  0  0  0  0
 27 26  1  0  0  0  0
 27 32  1  0  0  0  0
 28 27  2  0  0  0  0
 29 30  2  0  0  0  0
 29 28  1  0  0  0  0
 30 31  1  0  0  0  0
 31 26  2  0  0  0  0
 33 28  1  0  0  0  0
 34 29  1  0  0  0  0
 35 30  1  0  0  0  0
 36 35  1  0  0  0  0
 37 36  1  0  0  0  0
 38 37  1  0  0  0  0
 39 38  1  0  0  0  0
 39 40  1  0  0  0  0
 40 36  1  0  0  0  0
M  END
>  <minimizedAffinity>
-7.19478416

>  <minimizedRMSD>
0.853917956

$$$$
