
 OpenBabel03242517043D

 29 31  0  0  0  0  0  0  0  0999 V2000
   46.6110   34.7600   41.9680 C   0  0  0  0  0  0  0  0  0  0  0  0
   47.9280   35.1780   41.9280 C   0  0  0  0  0  0  0  0  0  0  0  0
   48.6420   34.9840   40.7670 C   0  0  0  0  0  0  0  0  0  0  0  0
   48.0430   34.3860   39.6840 C   0  0  0  0  0  0  0  0  0  0  0  0
   46.7450   33.9660   39.6980 C   0  0  0  0  0  0  0  0  0  0  0  0
   46.0250   34.1680   40.8860 C   0  0  0  0  0  0  0  0  0  0  0  0
   48.4040   35.6430   42.7640 H   0  0  0  0  0  0  0  0  0  0  0  0
   49.6650   35.2890   40.6820 H   0  0  0  0  0  0  0  0  0  0  0  0
   48.6300   34.2470   38.7810 H   0  0  0  0  0  0  0  0  0  0  0  0
   46.2620   33.5010   38.8700 H   0  0  0  0  0  0  0  0  0  0  0  0
   44.5400   36.2400   44.7640 C   0  0  0  0  0  0  0  0  0  0  0  0
   45.1850   36.1370   43.5080 C   0  0  0  0  0  0  0  0  0  0  0  0
   45.8980   34.9920   43.2290 C   0  0  0  0  0  0  0  0  0  0  0  0
   45.9350   34.0360   44.1800 N   0  0  0  0  0  0  0  0  0  0  0  0
   45.3240   34.1280   45.3760 C   0  0  0  0  0  0  0  0  0  0  0  0
   44.6170   35.2410   45.6780 N   0  0  0  0  0  0  0  0  0  0  0  0
   44.0040   37.1610   44.9110 H   0  0  0  0  0  0  0  0  0  0  0  0
   45.1470   36.9040   42.7620 H   0  0  0  0  0  0  0  0  0  0  0  0
   45.4320   33.2880   46.0510 H   0  0  0  0  0  0  0  0  0  0  0  0
   43.4310   34.3900   40.9240 C   0  0  0  0  0  0  0  0  0  0  0  0
   43.2390   35.5620   40.6500 O   0  0  0  0  0  0  0  0  0  0  0  0
   44.6850   33.7710   41.0540 N   0  0  0  0  0  0  0  0  0  0  0  0
   44.7830   32.7540   41.3450 H   0  0  0  0  0  0  0  0  0  0  0  0
   42.3040   33.5890   41.1280 O   0  0  0  0  0  0  0  0  0  0  0  0
   41.2320   33.5400   40.2670 C   0  0  0  0  0  0  0  0  0  0  0  0
   41.7040   33.7980   38.8520 C   0  0  0  0  0  0  0  0  0  0  0  0
   40.4000   33.9510   38.1160 C   0  0  0  0  0  0  0  0  0  0  0  0
   39.4610   34.5560   39.1060 C   0  0  0  0  0  0  0  0  0  0  0  0
   40.2050   34.6250   40.4380 C   0  0  0  0  0  0  0  0  0  0  0  0
  1 13  1  0  0  0  0
  2  1  1  0  0  0  0
  2  7  1  0  0  0  0
  3  2  2  0  0  0  0
  4  5  2  0  0  0  0
  4  3  1  0  0  0  0
  5  6  1  0  0  0  0
  6 22  1  0  0  0  0
  6  1  2  0  0  0  0
  8  3  1  0  0  0  0
  9  4  1  0  0  0  0
 10  5  1  0  0  0  0
 11 17  1  0  0  0  0
 11 16  1  0  0  0  0
 12 11  2  0  0  0  0
 13 12  1  0  0  0  0
 13 14  2  0  0  0  0
 14 15  1  0  0  0  0
 15 16  2  0  0  0  0
 15 19  1  0  0  0  0
 18 12  1  0  0  0  0
 20 22  1  0  0  0  0
 20 24  1  0  0  0  0
 21 20  2  0  0  0  0
 22 23  1  0  0  0  0
 25 29  1  0  0  0  0
 25 24  1  0  0  0  0
 26 25  1  0  0  0  0
 27 26  1  0  0  0  0
 27 28  1  0  0  0  0
 28 29  1  0  0  0  0
M  END
>  <minimizedAffinity>
-6.37743473

>  <minimizedRMSD>
0.706050277

$$$$
