REMARK  Name = 
REMARK  1 active torsions:
REMARK  status: ('A' for Active; 'I' for Inactive)
REMARK    1  A    between atoms: C_7  and  C_14
REMARK                            x       y       z     vdW  Elec       q    Type
REMARK                         _______ _______ _______ _____ _____    ______ ____
ROOT
ATOM      1  C   UNL     1      44.668  36.066  44.278  0.00  0.00    +0.000 A 
ATOM      2  C   UNL     1      45.478  35.582  43.237  0.00  0.00    +0.000 A 
ATOM      3  C   UNL     1      46.185  34.386  43.471  0.00  0.00    +0.000 A 
ATOM      4  N   UNL     1      46.039  33.783  44.680  0.00  0.00    +0.000 NA
ATOM      5  C   UNL     1      45.258  34.278  45.644  0.00  0.00    +0.000 A 
ATOM      6  N   UNL     1      44.567  35.420  45.454  0.00  0.00    +0.000 NA
ATOM      7  C   UNL     1      46.172  32.571  47.131  0.00  0.00    +0.000 C 
ATOM      8  O   UNL     1      47.096  32.284  46.350  0.00  0.00    +0.000 OA
ATOM      9  N   UNL     1      45.165  33.571  46.892  0.00  0.00    +0.000 N 
ATOM     10  H   UNL     1      44.129  37.000  44.068  0.00  0.00    +0.000 HD
ATOM     11  H   UNL     1      45.602  36.047  42.280  0.00  0.00    +0.000 HD
ATOM     12  H   UNL     1      46.843  33.907  42.752  0.00  0.00    +0.000 HD
ATOM     13  H   UNL     1      44.391  33.810  47.549  0.00  0.00    +0.000 HD
ENDROOT
BRANCH   7  14
ATOM     14  C   UNL     1      45.984  31.892  48.461  0.00  0.00    +0.000 C 
ATOM     15  C   UNL     1      45.774  30.417  48.315  0.00  0.00    +0.000 C 
ATOM     16  C   UNL     1      44.889  30.043  49.467  0.00  0.00    +0.000 C 
ATOM     17  C   UNL     1      44.332  31.319  50.037  0.00  0.00    +0.000 C 
ATOM     18  C   UNL     1      44.647  32.365  48.991  0.00  0.00    +0.000 C 
ENDBRANCH   7  14
TORSDOF 1
