
 OpenBabel03252507553D

 40 43  0  0  1  0  0  0  0  0999 V2000
   47.0850   34.8390   42.0900 C   0  0  2  0  0  0  0  0  0  0  0  0
   46.3160   34.2920   40.8880 C   0  0  0  0  0  0  0  0  0  0  0  0
   47.5170   34.1730   39.9230 C   0  0  0  0  0  0  0  0  0  0  0  0
   48.6540   33.7190   40.7860 C   0  0  1  0  0  0  0  0  0  0  0  0
   48.1520   33.7830   42.1970 C   0  0  0  0  0  0  0  0  0  0  0  0
   47.4740   35.8120   41.8000 H   0  0  0  0  0  0  0  0  0  0  0  0
   45.5790   34.9950   40.5120 H   0  0  0  0  0  0  0  0  0  0  0  0
   45.9810   33.2900   41.1460 H   0  0  0  0  0  0  0  0  0  0  0  0
   47.2570   33.4680   39.1170 H   0  0  0  0  0  0  0  0  0  0  0  0
   47.6690   35.2040   39.5580 H   0  0  0  0  0  0  0  0  0  0  0  0
   49.4970   34.4250   40.6340 H   0  0  0  0  0  0  0  0  0  0  0  0
   47.7740   32.8500   42.6070 H   0  0  0  0  0  0  0  0  0  0  0  0
   48.9810   34.2240   42.8220 H   0  0  0  0  0  0  0  0  0  0  0  0
   44.5240   35.8260   44.6700 C   0  0  0  0  0  0  0  0  0  0  0  0
   45.2500   35.8660   43.4860 C   0  0  0  0  0  0  0  0  0  0  0  0
   46.2250   34.8890   43.3070 C   0  0  0  0  0  0  0  0  0  0  0  0
   46.4450   33.9180   44.2940 N   0  0  0  0  0  0  0  0  0  0  0  0
   45.7030   33.9310   45.4310 C   0  0  0  0  0  0  0  0  0  0  0  0
   44.7470   34.8830   45.6140 N   0  0  0  0  0  0  0  0  0  0  0  0
   43.7580   36.5730   44.8370 H   0  0  0  0  0  0  0  0  0  0  0  0
   45.1050   36.5990   42.7070 H   0  0  0  0  0  0  0  0  0  0  0  0
   45.9520   33.1420   46.1270 H   0  0  0  0  0  0  0  0  0  0  0  0
   49.1080   32.3000   40.5330 C   0  0  2  0  0  0  0  0  0  0  0  0
   50.1310   31.7890   41.4400 C   0  0  0  0  0  0  0  0  0  0  0  0
   50.4360   31.9980   39.9970 C   0  0  1  0  0  0  0  0  0  0  0  0
   48.2860   31.6210   40.2480 H   0  0  0  0  0  0  0  0  0  0  0  0
   50.5880   32.4820   42.1830 H   0  0  0  0  0  0  0  0  0  0  0  0
   50.0360   30.7580   41.8440 H   0  0  0  0  0  0  0  0  0  0  0  0
   51.0720   32.8310   39.6380 H   0  0  0  0  0  0  0  0  0  0  0  0
   50.5580   30.8530   39.1720 O   0  0  0  0  0  0  0  0  0  0  0  0
   49.3020   30.7630   36.8880 O   0  0  0  0  0  0  0  0  0  0  0  0
   50.5090   31.3570   37.5690 P   0  0  1  0  0  0  0  0  0  0  0  0
   50.3580   33.0640   37.4930 O   0  0  0  0  0  0  0  0  0  0  0  0
   51.2770   33.4110   37.7020 H   0  0  0  0  0  0  0  0  0  0  0  0
   51.8600   30.9540   36.6910 O   0  0  0  0  0  0  0  0  0  0  0  0
   52.7840   30.3960   37.5930 C   0  0  0  0  0  3  0  0  0  0  0  0
   53.8760   31.3780   37.9310 C   0  0  0  0  0  2  0  0  0  0  0  0
   55.1290   30.8360   37.2720 C   0  0  0  0  0  2  0  0  0  0  0  0
   54.6330   29.8530   36.2370 C   0  0  0  0  0  2  0  0  0  0  0  0
   53.4850   29.2030   36.9780 C   0  0  0  0  0  2  0  0  0  0  0  0
  1  6  1  6  0  0  0
  1  5  1  0  0  0  0
  1 16  1  0  0  0  0
  2  8  1  0  0  0  0
  2  1  1  0  0  0  0
  3  4  1  0  0  0  0
  3  2  1  0  0  0  0
  4 11  1  6  0  0  0
  4  5  1  0  0  0  0
  5 12  1  0  0  0  0
  5 13  1  0  0  0  0
  7  2  1  0  0  0  0
  9  3  1  0  0  0  0
 10  3  1  0  0  0  0
 14 20  1  0  0  0  0
 14 19  1  0  0  0  0
 15 14  2  0  0  0  0
 16 15  1  0  0  0  0
 16 17  2  0  0  0  0
 17 18  1  0  0  0  0
 18 19  2  0  0  0  0
 18 22  1  0  0  0  0
 21 15  1  0  0  0  0
 23 26  1  6  0  0  0
 23  4  1  0  0  0  0
 23 24  1  0  0  0  0
 24 28  1  0  0  0  0
 24 27  1  0  0  0  0
 25 29  1  6  0  0  0
 25 23  1  0  0  0  0
 25 24  1  0  0  0  0
 30 25  1  0  0  0  0
 32 31  2  6  0  0  0
 32 30  1  0  0  0  0
 33 32  1  0  0  0  0
 33 34  1  0  0  0  0
 35 32  1  0  0  0  0
 35 36  1  0  0  0  0
 36 37  1  0  0  0  0
 38 37  1  0  0  0  0
 39 40  1  0  0  0  0
 39 38  1  0  0  0  0
 40 36  1  0  0  0  0
M  END
>  <minimizedAffinity>
-5.34662819

>  <minimizedRMSD>
1.58983147

$$$$
