
 OpenBabel03242521423D

 30 32  0  0  1  0  0  0  0  0999 V2000
   48.7320   30.9720   43.2270 C   0  0  0  0  0  0  0  0  0  0  0  0
   47.6170   31.0150   44.0810 C   0  0  0  0  0  0  0  0  0  0  0  0
   47.6260   30.2130   45.2230 C   0  0  0  0  0  0  0  0  0  0  0  0
   48.7000   29.4390   45.4500 N   0  0  0  0  0  0  0  0  0  0  0  0
   49.7630   29.4260   44.5980 C   0  0  0  0  0  0  0  0  0  0  0  0
   49.7810   30.1820   43.5000 N   0  0  0  0  0  0  0  0  0  0  0  0
   46.8110   31.6610   43.8180 H   0  0  0  0  0  0  0  0  0  0  0  0
   50.5760   28.7660   44.8770 H   0  0  0  0  0  0  0  0  0  0  0  0
   46.7030   29.8850   47.5110 C   0  0  2  0  0  0  0  0  0  0  0  0
   46.4580   30.2810   46.0830 C   0  0  2  0  0  0  0  0  0  0  0  0
   45.4250   29.3850   45.7420 O   0  0  0  0  0  0  0  0  0  0  0  0
   44.5250   29.5270   46.7780 C   0  0  0  0  0  0  0  0  0  0  0  0
   45.2550   29.9530   48.0220 C   0  0  1  0  0  0  0  0  0  0  0  0
   46.9690   28.8160   47.6230 H   0  0  0  0  0  0  0  0  0  0  0  0
   46.0570   31.3300   46.0770 H   0  0  0  0  0  0  0  0  0  0  0  0
   43.8340   30.3630   46.5040 H   0  0  0  0  0  0  0  0  0  0  0  0
   43.9070   28.6230   46.9570 H   0  0  0  0  0  0  0  0  0  0  0  0
   45.0940   31.0160   48.2740 H   0  0  0  0  0  0  0  0  0  0  0  0
   47.5500   30.7350   48.1790 O   0  0  0  0  0  0  0  0  0  0  0  0
   47.1510   31.6390   48.1740 H   0  0  0  0  0  0  0  0  0  0  0  0
   45.1100   29.0900   49.0930 O   0  0  0  0  0  0  0  0  0  0  0  0
   44.1970   28.7160   49.0460 H   0  0  0  0  0  0  0  0  0  0  0  0
   48.7050   31.8400   41.9880 C   0  0  0  0  0  0  0  0  0  0  0  0
   47.8630   31.5740   41.3430 H   0  0  0  0  0  0  0  0  0  0  0  0
   49.6950   31.6370   41.5030 H   0  0  0  0  0  0  0  0  0  0  0  0
   48.7050   33.2510   42.4740 C   0  0  0  0  0  0  0  0  0  0  0  0
   50.0660   33.8920   42.4600 C   0  0  0  0  0  0  0  0  0  0  0  0
   49.6850   35.3670   42.3240 C   0  0  0  0  0  0  0  0  0  0  0  0
   48.6290   35.3110   41.2380 C   0  0  0  0  0  0  0  0  0  0  0  0
   47.8090   34.1140   41.6280 C   0  0  0  0  0  0  0  0  0  0  0  0
  1  6  2  0  0  0  0
  1  2  1  0  0  0  0
  2  3  2  0  0  0  0
  3  4  1  0  0  0  0
  3 10  1  0  0  0  0
  5  8  1  0  0  0  0
  5  4  2  0  0  0  0
  6  5  1  0  0  0  0
  7  2  1  0  0  0  0
  9 14  1  1  0  0  0
  9 13  1  0  0  0  0
  9 19  1  0  0  0  0
 10 15  1  6  0  0  0
 10  9  1  0  0  0  0
 11 10  1  0  0  0  0
 11 12  1  0  0  0  0
 12 17  1  0  0  0  0
 12 13  1  0  0  0  0
 13 18  1  1  0  0  0
 13 21  1  0  0  0  0
 16 12  1  0  0  0  0
 20 19  1  0  0  0  0
 22 21  1  0  0  0  0
 23 26  1  0  0  0  0
 23  1  1  0  0  0  0
 24 23  1  0  0  0  0
 25 23  1  0  0  0  0
 27 26  1  0  0  0  0
 28 27  1  0  0  0  0
 29 30  1  0  0  0  0
 29 28  1  0  0  0  0
 30 26  1  0  0  0  0
M  END
>  <minimizedAffinity>
-4.48944426

>  <minimizedRMSD>
6.63577938

$$$$
