REMARK  Name = 
REMARK  4 active torsions:
REMARK  status: ('A' for Active; 'I' for Inactive)
REMARK    1  A    between atoms: C_1  and  C_4
REMARK    2  A    between atoms: C_2  and  C_11
REMARK    3  A    between atoms: C_8  and  O_10
REMARK    4  A    between atoms: O_10  and  C_21
REMARK                            x       y       z     vdW  Elec       q    Type
REMARK                         _______ _______ _______ _____ _____    ______ ____
ROOT
ATOM      1  C   UNL     1      45.897  32.865  44.818  0.00  0.00    +0.000 A 
ATOM      2  C   UNL     1      46.714  31.748  44.506  0.00  0.00    +0.000 A 
ATOM      3  C   UNL     1      47.389  31.043  45.515  0.00  0.00    +0.000 A 
ATOM      4  N   UNL     1      47.202  31.502  46.784  0.00  0.00    +0.000 NA
ATOM      5  C   UNL     1      46.412  32.576  47.042  0.00  0.00    +0.000 A 
ATOM      6  N   UNL     1      45.775  33.238  46.077  0.00  0.00    +0.000 NA
ATOM      7  H   UNL     1      46.829  31.423  43.475  0.00  0.00    +0.000 HD
ATOM      8  H   UNL     1      48.010  30.193  45.276  0.00  0.00    +0.000 HD
ENDROOT
BRANCH   1   9
ATOM      9  C   UNL     1      45.234  33.566  43.708  0.00  0.00    +0.000 C 
ATOM     10  C   UNL     1      45.861  34.989  43.483  0.00  0.00    +0.000 C 
ATOM     11  C   UNL     1      45.819  33.876  42.460  0.00  0.00    +0.000 C 
ATOM     12  H   UNL     1      44.120  33.608  43.854  0.00  0.00    +0.000 HD
ATOM     13  H   UNL     1      46.801  35.218  43.979  0.00  0.00    +0.000 HD
ATOM     14  H   UNL     1      45.201  33.990  41.540  0.00  0.00    +0.000 HD
ATOM     15  H   UNL     1      46.838  33.492  42.192  0.00  0.00    +0.000 HD
BRANCH  10  16
ATOM     16  C   UNL     1      44.834  36.071  43.241  0.00  0.00    +0.000 C 
ATOM     17  F   UNL     1      45.359  37.332  43.244  0.00  0.00    +0.000 F 
ATOM     18  F   UNL     1      44.245  35.857  41.980  0.00  0.00    +0.000 F 
ATOM     19  F   UNL     1      43.782  35.965  44.141  0.00  0.00    +0.000 F 
ENDBRANCH  10  16
ENDBRANCH   1   9
BRANCH   5  20
ATOM     20  O   UNL     1      46.330  32.916  48.385  0.00  0.00    +0.000 OA
BRANCH  20  21
ATOM     21  C   UNL     1      45.567  33.995  48.878  0.00  0.00    +0.000 C 
ATOM     22  C   UNL     1      45.940  34.184  50.338  0.00  0.00    +0.000 C 
ATOM     23  C   UNL     1      45.425  32.932  50.988  0.00  0.00    +0.000 C 
ATOM     24  C   UNL     1      44.071  32.765  50.328  0.00  0.00    +0.000 C 
ATOM     25  C   UNL     1      44.135  33.523  49.009  0.00  0.00    +0.000 C 
ENDBRANCH  20  21
ENDBRANCH   5  20
TORSDOF 4
