
 OpenBabel03252509343D

 39 41  0  0  1  0  0  0  0  0999 V2000
   45.5280   33.6940   41.6670 C   0  0  1  0  0  0  0  0  0  0  0  0
   44.5410   34.3260   40.7040 C   0  0  0  0  0  0  0  0  0  0  0  0
   44.5170   33.3080   39.5920 C   0  0  0  0  0  0  0  0  0  0  0  0
   45.8530   32.6180   39.6280 C   0  0  0  0  0  0  0  0  0  0  0  0
   46.6500   33.3170   40.7190 C   0  0  1  0  0  0  0  0  0  0  0  0
   45.0560   32.7890   42.0710 H   0  0  0  0  0  0  0  0  0  0  0  0
   44.8280   35.3310   40.4070 H   0  0  0  0  0  0  0  0  0  0  0  0
   43.5660   34.3210   41.2410 H   0  0  0  0  0  0  0  0  0  0  0  0
   43.6550   32.6220   39.6540 H   0  0  0  0  0  0  0  0  0  0  0  0
   44.4550   33.8270   38.6110 H   0  0  0  0  0  0  0  0  0  0  0  0
   46.3790   32.6240   38.6730 H   0  0  0  0  0  0  0  0  0  0  0  0
   45.6660   31.5600   39.9710 H   0  0  0  0  0  0  0  0  0  0  0  0
   47.3670   32.6230   41.2060 H   0  0  0  0  0  0  0  0  0  0  0  0
   47.3870   34.5170   40.1980 C   0  0  0  0  0  0  0  0  0  0  0  0
   47.3260   34.4940   39.0890 H   0  0  0  0  0  0  0  0  0  0  0  0
   46.9410   35.4720   40.5250 H   0  0  0  0  0  0  0  0  0  0  0  0
   48.8610   34.4860   40.5210 C   0  0  0  0  0  3  0  0  0  0  0  0
   49.1200   35.7100   41.4020 C   0  0  0  0  0  2  0  0  0  0  0  0
   49.3940   35.1250   42.7870 C   0  0  0  0  0  2  0  0  0  0  0  0
   50.1790   33.8780   42.3760 C   0  0  0  0  0  2  0  0  0  0  0  0
   49.2520   33.2890   41.3340 C   0  0  0  0  0  2  0  0  0  0  0  0
   45.9490   34.5780   42.6500 O   0  0  0  0  0  0  0  0  0  0  0  0
   44.7730   35.0990   44.9050 O   0  0  0  0  0  0  0  0  0  0  0  0
   45.4910   33.9990   44.1590 P   0  0  1  0  0  0  0  0  0  0  0  0
   44.5460   32.6130   44.0030 O   0  0  0  0  0  0  0  0  0  0  0  0
   43.5910   32.9290   43.9730 H   0  0  0  0  0  0  0  0  0  0  0  0
   46.8620   33.5290   45.0100 O   0  0  0  0  0  0  0  0  0  0  0  0
   46.8270   32.1840   45.1970 C   0  0  0  0  0  0  0  0  0  0  0  0
   47.8040   31.7930   44.7800 H   0  0  0  0  0  0  0  0  0  0  0  0
   46.0610   31.6040   44.6980 H   0  0  0  0  0  0  0  0  0  0  0  0
   46.0110   32.0420   48.8210 C   0  0  0  0  0  0  0  0  0  0  0  0
   45.9620   32.4170   47.4690 C   0  0  0  0  0  0  0  0  0  0  0  0
   46.8590   31.8050   46.6200 C   0  0  0  0  0  0  0  0  0  0  0  0
   47.7380   30.8800   47.1250 N   0  0  0  0  0  0  0  0  0  0  0  0
   47.7590   30.5440   48.4250 C   0  0  0  0  0  0  0  0  0  0  0  0
   46.8980   31.1240   49.2620 N   0  0  0  0  0  0  0  0  0  0  0  0
   45.3000   32.5270   49.4900 H   0  0  0  0  0  0  0  0  0  0  0  0
   45.2300   33.1570   47.1740 H   0  0  0  0  0  0  0  0  0  0  0  0
   48.4720   29.8080   48.7700 H   0  0  0  0  0  0  0  0  0  0  0  0
  1  6  1  1  0  0  0
  1 22  1  0  0  0  0
  2  8  1  0  0  0  0
  2  1  1  0  0  0  0
  3  4  1  0  0  0  0
  3  9  1  0  0  0  0
  3  2  1  0  0  0  0
  4 12  1  0  0  0  0
  4  5  1  0  0  0  0
  5 13  1  1  0  0  0
  5  1  1  0  0  0  0
  7  2  1  0  0  0  0
 10  3  1  0  0  0  0
 11  4  1  0  0  0  0
 14 17  1  0  0  0  0
 14 16  1  0  0  0  0
 14  5  1  0  0  0  0
 15 14  1  0  0  0  0
 17 21  1  0  0  0  0
 17 18  1  0  0  0  0
 18 19  1  0  0  0  0
 20 19  1  0  0  0  0
 21 20  1  0  0  0  0
 22 24  1  0  0  0  0
 24 23  2  1  0  0  0
 24 27  1  0  0  0  0
 25 24  1  0  0  0  0
 26 25  1  0  0  0  0
 27 28  1  0  0  0  0
 28 33  1  0  0  0  0
 29 28  1  0  0  0  0
 30 28  1  0  0  0  0
 31 36  1  0  0  0  0
 31 37  1  0  0  0  0
 32 31  2  0  0  0  0
 33 34  2  0  0  0  0
 33 32  1  0  0  0  0
 34 35  1  0  0  0  0
 35 39  1  0  0  0  0
 35 36  2  0  0  0  0
 38 32  1  0  0  0  0
M  END
>  <minimizedAffinity>
-5.20331192

>  <minimizedRMSD>
1.85990417

$$$$
