
 OpenBabel03242518543D

 38 40  0  0  1  0  0  0  0  0999 V2000
   45.7800   31.2530   46.6250 C   0  0  2  0  0  0  0  0  0  0  0  0
   45.9690   30.4360   47.8630 C   0  0  0  0  0  0  0  0  0  0  0  0
   45.1710   29.1920   47.6920 C   0  0  0  0  0  0  0  0  0  0  0  0
   44.3510   29.1150   46.4490 C   0  0  0  0  0  0  0  0  0  0  0  0
   45.2170   29.3260   45.2380 C   0  0  0  0  0  0  0  0  0  0  0  0
   46.1680   30.4140   45.4220 C   0  0  2  0  0  0  0  0  0  0  0  0
   44.6960   31.4400   46.4820 H   0  0  0  0  0  0  0  0  0  0  0  0
   45.5830   31.0710   48.7090 H   0  0  0  0  0  0  0  0  0  0  0  0
   47.0330   30.2550   48.1220 H   0  0  0  0  0  0  0  0  0  0  0  0
   44.4210   29.1640   48.5390 H   0  0  0  0  0  0  0  0  0  0  0  0
   45.7420   28.2410   47.8510 H   0  0  0  0  0  0  0  0  0  0  0  0
   43.9210   28.0890   46.4150 H   0  0  0  0  0  0  0  0  0  0  0  0
   43.4710   29.7910   46.4810 H   0  0  0  0  0  0  0  0  0  0  0  0
   44.4970   29.6180   44.4170 H   0  0  0  0  0  0  0  0  0  0  0  0
   45.5980   28.3370   44.9270 H   0  0  0  0  0  0  0  0  0  0  0  0
   46.2400   31.1080   44.5730 H   0  0  0  0  0  0  0  0  0  0  0  0
   47.4940   29.7730   45.6440 C   0  0  0  0  0  0  0  0  0  0  0  0
   47.4410   28.7700   46.1260 H   0  0  0  0  0  0  0  0  0  0  0  0
   48.0660   30.4030   46.3560 H   0  0  0  0  0  0  0  0  0  0  0  0
   48.3380   29.5810   44.4190 C   0  0  0  0  0  3  0  0  0  0  0  0
   48.5030   30.8390   43.6030 C   0  0  0  0  0  2  0  0  0  0  0  0
   49.4930   30.2980   42.5660 C   0  0  0  0  0  2  0  0  0  0  0  0
   50.5190   29.6620   43.4890 C   0  0  0  0  0  2  0  0  0  0  0  0
   49.8110   29.3680   44.7880 C   0  0  0  0  0  2  0  0  0  0  0  0
   46.4740   32.5650   46.6510 C   0  0  0  0  0  0  0  0  0  0  0  0
   47.4060   32.8330   47.4430 O   0  0  0  0  0  0  0  0  0  0  0  0
   44.6150   35.3280   45.1440 C   0  0  0  0  0  0  0  0  0  0  0  0
   45.1560   35.4430   43.8360 C   0  0  0  0  0  0  0  0  0  0  0  0
   46.1660   34.5540   43.5100 C   0  0  0  0  0  0  0  0  0  0  0  0
   46.5030   33.6970   44.4730 N   0  0  0  0  0  0  0  0  0  0  0  0
   46.0120   33.5770   45.6850 C   0  0  0  0  0  0  0  0  0  0  0  0
   45.0320   34.4280   46.0270 N   0  0  0  0  0  0  0  0  0  0  0  0
   43.8100   36.0260   45.4250 H   0  0  0  0  0  0  0  0  0  0  0  0
   44.7820   36.1940   43.1520 H   0  0  0  0  0  0  0  0  0  0  0  0
   46.7170   34.6640   42.1710 C   0  0  0  0  0  0  0  0  0  0  0  0
   47.4380   33.5120   41.8680 F   0  0  0  0  0  0  0  0  0  0  0  0
   47.5640   35.7240   42.1740 F   0  0  0  0  0  0  0  0  0  0  0  0
   45.7300   34.7530   41.1960 F   0  0  0  0  0  0  0  0  0  0  0  0
  1  7  1  6  0  0  0
  1 25  1  0  0  0  0
  1  2  1  0  0  0  0
  2  9  1  0  0  0  0
  2  8  1  0  0  0  0
  3 11  1  0  0  0  0
  3  2  1  0  0  0  0
  3 10  1  0  0  0  0
  4 13  1  0  0  0  0
  4  3  1  0  0  0  0
  5  6  1  0  0  0  0
  5  4  1  0  0  0  0
  6 16  1  6  0  0  0
  6 17  1  0  0  0  0
  6  1  1  0  0  0  0
 12  4  1  0  0  0  0
 14  5  1  0  0  0  0
 15  5  1  0  0  0  0
 17 18  1  0  0  0  0
 17 19  1  0  0  0  0
 20 24  1  0  0  0  0
 20 17  1  0  0  0  0
 21 20  1  0  0  0  0
 22 23  1  0  0  0  0
 22 21  1  0  0  0  0
 23 24  1  0  0  0  0
 25 26  2  0  0  0  0
 27 33  1  0  0  0  0
 27 32  1  0  0  0  0
 28 27  2  0  0  0  0
 29 28  1  0  0  0  0
 29 30  2  0  0  0  0
 30 31  1  0  0  0  0
 31 32  2  0  0  0  0
 31 25  1  0  0  0  0
 34 28  1  0  0  0  0
 35 37  1  0  0  0  0
 35 29  1  0  0  0  0
 36 35  1  0  0  0  0
 38 35  1  0  0  0  0
M  END
>  <minimizedAffinity>
-5.27306938

>  <minimizedRMSD>
1.04793847

$$$$
