
 OpenBabel03252508353D

 31 33  0  0  1  0  0  0  0  0999 V2000
   37.0290   30.6040   39.4770 N   0  0  0  0  0  0  0  0  0  0  0  0
   36.0930   30.2960   40.5240 C   0  0  1  0  0  0  0  0  0  0  0  0
   35.2010   29.1440   40.1960 C   0  0  0  0  0  0  0  0  0  0  0  0
   34.7500   29.0490   38.8800 N   0  0  0  0  0  0  0  0  0  0  0  0
   35.5620   29.5620   37.8600 C   0  0  0  0  0  0  0  0  0  0  0  0
   36.9990   29.7430   38.3430 C   0  0  0  0  0  0  0  0  0  0  0  0
   35.5030   31.2200   40.7590 H   0  0  0  0  0  0  0  0  0  0  0  0
   34.3490   29.1220   40.9020 H   0  0  0  0  0  0  0  0  0  0  0  0
   35.7810   28.2030   40.4350 H   0  0  0  0  0  0  0  0  0  0  0  0
   34.5350   28.0300   38.6580 H   0  0  0  0  0  0  0  0  0  0  0  0
   35.2200   30.6090   37.6160 H   0  0  0  0  0  0  0  0  0  0  0  0
   35.5400   29.0290   36.9020 H   0  0  0  0  0  0  0  0  0  0  0  0
   37.4640   28.7600   38.5710 H   0  0  0  0  0  0  0  0  0  0  0  0
   37.5970   30.2400   37.5310 H   0  0  0  0  0  0  0  0  0  0  0  0
   37.2710   32.9620   39.7340 C   0  0  0  0  0  0  0  0  0  0  0  0
   37.8700   31.7120   39.6750 C   0  0  0  0  0  0  0  0  0  0  0  0
   39.2720   31.6650   39.8200 C   0  0  0  0  0  0  0  0  0  0  0  0
   39.9670   32.8110   40.0070 N   0  0  0  0  0  0  0  0  0  0  0  0
   39.3440   33.9990   40.0570 C   0  0  0  0  0  0  0  0  0  0  0  0
   38.0220   34.0730   39.9230 N   0  0  0  0  0  0  0  0  0  0  0  0
   36.2180   33.1400   39.6390 H   0  0  0  0  0  0  0  0  0  0  0  0
   39.6860   30.6770   39.7680 H   0  0  0  0  0  0  0  0  0  0  0  0
   39.9880   34.8600   40.2100 H   0  0  0  0  0  0  0  0  0  0  0  0
   36.8780   29.9120   41.7550 C   0  0  0  0  0  0  0  0  0  0  0  0
   36.2080   30.1120   42.6250 H   0  0  0  0  0  0  0  0  0  0  0  0
   37.7780   30.5200   41.8580 H   0  0  0  0  0  0  0  0  0  0  0  0
   37.1890   28.4390   41.8140 C   0  0  0  0  0  3  0  0  0  0  0  0
   38.6960   28.3260   41.5520 C   0  0  0  0  0  2  0  0  0  0  0  0
   39.2730   28.2780   42.9340 C   0  0  0  0  0  2  0  0  0  0  0  0
   38.3310   27.3770   43.6740 C   0  0  0  0  0  2  0  0  0  0  0  0
   36.9820   27.8500   43.1680 C   0  0  0  0  0  2  0  0  0  0  0  0
  1 16  1  0  0  0  0
  1  2  1  0  0  0  0
  2  7  1  1  0  0  0
  2 24  1  0  0  0  0
  3  9  1  0  0  0  0
  3  2  1  0  0  0  0
  3  8  1  0  0  0  0
  4  3  1  0  0  0  0
  5  6  1  0  0  0  0
  5  4  1  0  0  0  0
  6 13  1  0  0  0  0
  6  1  1  0  0  0  0
 10  4  1  0  0  0  0
 11  5  1  0  0  0  0
 12  5  1  0  0  0  0
 14  6  1  0  0  0  0
 15 20  1  0  0  0  0
 16 15  2  0  0  0  0
 16 17  1  0  0  0  0
 17 18  2  0  0  0  0
 18 19  1  0  0  0  0
 19 23  1  0  0  0  0
 20 19  2  0  0  0  0
 21 15  1  0  0  0  0
 22 17  1  0  0  0  0
 24 27  1  0  0  0  0
 24 26  1  0  0  0  0
 24 25  1  0  0  0  0
 27 31  1  0  0  0  0
 28 27  1  0  0  0  0
 28 29  1  0  0  0  0
 29 30  1  0  0  0  0
 31 30  1  0  0  0  0
M  END
>  <minimizedAffinity>
-4.86259031

$$$$

 OpenBabel03252508353D

 31 33  0  0  1  0  0  0  0  0999 V2000
   38.4290   30.8120   38.9300 N   0  0  0  0  0  0  0  0  0  0  0  0
   38.4120   30.8070   40.3670 C   0  0  1  0  0  0  0  0  0  0  0  0
   37.2990   31.6180   40.9460 C   0  0  0  0  0  0  0  0  0  0  0  0
   36.9900   32.8160   40.3020 N   0  0  0  0  0  0  0  0  0  0  0  0
   37.2230   32.9090   38.9240 C   0  0  0  0  0  0  0  0  0  0  0  0
   37.3710   31.5240   38.2980 C   0  0  0  0  0  0  0  0  0  0  0  0
   39.4110   31.1550   40.7380 H   0  0  0  0  0  0  0  0  0  0  0  0
   37.4880   31.7920   42.0220 H   0  0  0  0  0  0  0  0  0  0  0  0
   36.3770   30.9650   40.9310 H   0  0  0  0  0  0  0  0  0  0  0  0
   35.9700   33.0570   40.4860 H   0  0  0  0  0  0  0  0  0  0  0  0
   38.2280   33.3950   38.7580 H   0  0  0  0  0  0  0  0  0  0  0  0
   36.5190   33.5210   38.3480 H   0  0  0  0  0  0  0  0  0  0  0  0
   36.4150   30.9630   38.3580 H   0  0  0  0  0  0  0  0  0  0  0  0
   37.6470   31.6410   37.2150 H   0  0  0  0  0  0  0  0  0  0  0  0
   39.1410   29.0360   37.5060 C   0  0  0  0  0  0  0  0  0  0  0  0
   39.4790   30.1220   38.3000 C   0  0  0  0  0  0  0  0  0  0  0  0
   40.8490   30.4380   38.4060 C   0  0  0  0  0  0  0  0  0  0  0  0
   41.7640   29.6900   37.7450 N   0  0  0  0  0  0  0  0  0  0  0  0
   41.3900   28.6480   36.9880 C   0  0  0  0  0  0  0  0  0  0  0  0
   40.1030   28.3260   36.8710 N   0  0  0  0  0  0  0  0  0  0  0  0
   38.1400   28.6880   37.3410 H   0  0  0  0  0  0  0  0  0  0  0  0
   41.0590   31.2850   39.0290 H   0  0  0  0  0  0  0  0  0  0  0  0
   42.1960   28.1090   36.4980 H   0  0  0  0  0  0  0  0  0  0  0  0
   38.2090   29.3840   40.8280 C   0  0  0  0  0  0  0  0  0  0  0  0
   39.2100   29.0190   41.1590 H   0  0  0  0  0  0  0  0  0  0  0  0
   37.8550   28.7500   40.0140 H   0  0  0  0  0  0  0  0  0  0  0  0
   37.3190   29.2830   42.0400 C   0  0  0  0  0  3  0  0  0  0  0  0
   36.3280   28.1550   41.7310 C   0  0  0  0  0  2  0  0  0  0  0  0
   36.9670   26.9620   42.3740 C   0  0  0  0  0  2  0  0  0  0  0  0
   37.4740   27.4990   43.6790 C   0  0  0  0  0  2  0  0  0  0  0  0
   38.0470   28.8410   43.2650 C   0  0  0  0  0  2  0  0  0  0  0  0
  1  2  1  0  0  0  0
  2  7  1  1  0  0  0
  2 24  1  0  0  0  0
  2  3  1  0  0  0  0
  3  8  1  0  0  0  0
  4 10  1  0  0  0  0
  4  3  1  0  0  0  0
  5  4  1  0  0  0  0
  6 13  1  0  0  0  0
  6  5  1  0  0  0  0
  6  1  1  0  0  0  0
  9  3  1  0  0  0  0
 11  5  1  0  0  0  0
 12  5  1  0  0  0  0
 14  6  1  0  0  0  0
 15 16  1  0  0  0  0
 16 17  2  0  0  0  0
 16  1  1  0  0  0  0
 17 22  1  0  0  0  0
 18 17  1  0  0  0  0
 19 18  2  0  0  0  0
 20 19  1  0  0  0  0
 20 15  2  0  0  0  0
 21 15  1  0  0  0  0
 23 19  1  0  0  0  0
 24 25  1  0  0  0  0
 24 27  1  0  0  0  0
 26 24  1  0  0  0  0
 27 31  1  0  0  0  0
 28 27  1  0  0  0  0
 28 29  1  0  0  0  0
 29 30  1  0  0  0  0
 31 30  1  0  0  0  0
M  END
>  <minimizedAffinity>
-4.76208258

$$$$

 OpenBabel03252508353D

 31 33  0  0  1  0  0  0  0  0999 V2000
   38.1800   29.7930   39.9990 N   0  0  0  0  0  0  0  0  0  0  0  0
   37.3120   29.7600   41.1460 C   0  0  1  0  0  0  0  0  0  0  0  0
   36.2260   30.7840   41.0920 C   0  0  0  0  0  0  0  0  0  0  0  0
   36.5620   32.0350   40.5730 N   0  0  0  0  0  0  0  0  0  0  0  0
   37.5790   32.1040   39.6120 C   0  0  0  0  0  0  0  0  0  0  0  0
   37.8380   30.7350   38.9880 C   0  0  0  0  0  0  0  0  0  0  0  0
   37.9360   29.8710   42.0700 H   0  0  0  0  0  0  0  0  0  0  0  0
   35.7650   30.8890   42.0920 H   0  0  0  0  0  0  0  0  0  0  0  0
   35.4010   30.3510   40.4520 H   0  0  0  0  0  0  0  0  0  0  0  0
   35.6890   32.4910   40.1710 H   0  0  0  0  0  0  0  0  0  0  0  0
   38.5490   32.3600   40.1290 H   0  0  0  0  0  0  0  0  0  0  0  0
   37.4670   32.8700   38.8350 H   0  0  0  0  0  0  0  0  0  0  0  0
   36.9570   30.3970   38.4040 H   0  0  0  0  0  0  0  0  0  0  0  0
   38.7180   30.8120   38.2930 H   0  0  0  0  0  0  0  0  0  0  0  0
   40.2960   29.1490   40.8910 C   0  0  0  0  0  0  0  0  0  0  0  0
   39.2670   28.9030   39.9940 C   0  0  0  0  0  0  0  0  0  0  0  0
   39.4020   27.7780   39.1540 C   0  0  0  0  0  0  0  0  0  0  0  0
   40.5040   26.9970   39.2500 N   0  0  0  0  0  0  0  0  0  0  0  0
   41.4750   27.2750   40.1330 C   0  0  0  0  0  0  0  0  0  0  0  0
   41.3740   28.3310   40.9380 N   0  0  0  0  0  0  0  0  0  0  0  0
   40.3200   29.9680   41.5830 H   0  0  0  0  0  0  0  0  0  0  0  0
   38.5810   27.6300   38.4800 H   0  0  0  0  0  0  0  0  0  0  0  0
   42.3190   26.5900   40.1350 H   0  0  0  0  0  0  0  0  0  0  0  0
   36.6440   28.4080   41.1880 C   0  0  0  0  0  0  0  0  0  0  0  0
   37.2470   27.7430   40.5230 H   0  0  0  0  0  0  0  0  0  0  0  0
   35.6250   28.4560   40.8040 H   0  0  0  0  0  0  0  0  0  0  0  0
   36.6980   27.7710   42.5530 C   0  0  0  0  0  3  0  0  0  0  0  0
   37.0590   26.3010   42.3070 C   0  0  0  0  0  2  0  0  0  0  0  0
   38.5470   26.2880   42.4860 C   0  0  0  0  0  2  0  0  0  0  0  0
   38.7620   27.1700   43.6780 C   0  0  0  0  0  2  0  0  0  0  0  0
   37.7960   28.3070   43.4070 C   0  0  0  0  0  2  0  0  0  0  0  0
  1  2  1  0  0  0  0
  2 24  1  0  0  0  0
  2  7  1  1  0  0  0
  3  2  1  0  0  0  0
  3  8  1  0  0  0  0
  4  3  1  0  0  0  0
  5 11  1  0  0  0  0
  5  4  1  0  0  0  0
  6  5  1  0  0  0  0
  6  1  1  0  0  0  0
  9  3  1  0  0  0  0
 10  4  1  0  0  0  0
 12  5  1  0  0  0  0
 13  6  1  0  0  0  0
 14  6  1  0  0  0  0
 15 20  1  0  0  0  0
 15 21  1  0  0  0  0
 16  1  1  0  0  0  0
 16 15  2  0  0  0  0
 17 18  2  0  0  0  0
 17 16  1  0  0  0  0
 18 19  1  0  0  0  0
 19 23  1  0  0  0  0
 19 20  2  0  0  0  0
 22 17  1  0  0  0  0
 24 27  1  0  0  0  0
 25 24  1  0  0  0  0
 26 24  1  0  0  0  0
 27 31  1  0  0  0  0
 28 29  1  0  0  0  0
 28 27  1  0  0  0  0
 29 30  1  0  0  0  0
 31 30  1  0  0  0  0
M  END
>  <minimizedAffinity>
-4.75191689

$$$$

 OpenBabel03252508353D

 31 33  0  0  1  0  0  0  0  0999 V2000
   38.2040   30.8960   40.9850 N   0  0  0  0  0  0  0  0  0  0  0  0
   39.1400   30.2270   41.8490 C   0  0  1  0  0  0  0  0  0  0  0  0
   40.1820   31.1410   42.4070 C   0  0  0  0  0  0  0  0  0  0  0  0
   40.6800   32.1260   41.5540 N   0  0  0  0  0  0  0  0  0  0  0  0
   39.8400   32.6230   40.5490 C   0  0  0  0  0  0  0  0  0  0  0  0
   38.3770   32.3020   40.8490 C   0  0  0  0  0  0  0  0  0  0  0  0
   39.6000   29.3740   41.2850 H   0  0  0  0  0  0  0  0  0  0  0  0
   41.0080   30.5430   42.8360 H   0  0  0  0  0  0  0  0  0  0  0  0
   39.7200   31.6550   43.3010 H   0  0  0  0  0  0  0  0  0  0  0  0
   41.0300   32.9460   42.1350 H   0  0  0  0  0  0  0  0  0  0  0  0
   40.0520   32.0680   39.5900 H   0  0  0  0  0  0  0  0  0  0  0  0
   39.9580   33.6830   40.2920 H   0  0  0  0  0  0  0  0  0  0  0  0
   38.0360   32.8400   41.7590 H   0  0  0  0  0  0  0  0  0  0  0  0
   37.7460   32.6330   39.9810 H   0  0  0  0  0  0  0  0  0  0  0  0
   37.6410   29.2370   39.3670 C   0  0  0  0  0  0  0  0  0  0  0  0
   37.2230   30.1000   40.3680 C   0  0  0  0  0  0  0  0  0  0  0  0
   35.8470   30.1050   40.6790 C   0  0  0  0  0  0  0  0  0  0  0  0
   35.0050   29.2860   40.0070 N   0  0  0  0  0  0  0  0  0  0  0  0
   35.4550   28.4670   39.0450 C   0  0  0  0  0  0  0  0  0  0  0  0
   36.7480   28.4420   38.7300 N   0  0  0  0  0  0  0  0  0  0  0  0
   38.6550   29.1340   39.0320 H   0  0  0  0  0  0  0  0  0  0  0  0
   35.5750   30.7880   41.4600 H   0  0  0  0  0  0  0  0  0  0  0  0
   34.7020   27.8490   38.5630 H   0  0  0  0  0  0  0  0  0  0  0  0
   38.3750   29.6610   43.0200 C   0  0  0  0  0  0  0  0  0  0  0  0
   37.3010   29.6560   42.7150 H   0  0  0  0  0  0  0  0  0  0  0  0
   38.4850   30.2870   43.9060 H   0  0  0  0  0  0  0  0  0  0  0  0
   38.7220   28.2230   43.3050 C   0  0  0  0  0  3  0  0  0  0  0  0
   37.3980   27.5460   43.6800 C   0  0  0  0  0  2  0  0  0  0  0  0
   36.9470   26.9500   42.3820 C   0  0  0  0  0  2  0  0  0  0  0  0
   38.2090   26.3900   41.7990 C   0  0  0  0  0  2  0  0  0  0  0  0
   39.2090   27.4880   42.1020 C   0  0  0  0  0  2  0  0  0  0  0  0
  1  2  1  0  0  0  0
  2  7  1  6  0  0  0
  2  3  1  0  0  0  0
  2 24  1  0  0  0  0
  3  8  1  0  0  0  0
  3  9  1  0  0  0  0
  4 10  1  0  0  0  0
  4  3  1  0  0  0  0
  5  6  1  0  0  0  0
  5  4  1  0  0  0  0
  6  1  1  0  0  0  0
  6 13  1  0  0  0  0
 11  5  1  0  0  0  0
 12  5  1  0  0  0  0
 14  6  1  0  0  0  0
 15 16  1  0  0  0  0
 16 17  2  0  0  0  0
 16  1  1  0  0  0  0
 17 22  1  0  0  0  0
 18 17  1  0  0  0  0
 19 18  2  0  0  0  0
 20 19  1  0  0  0  0
 20 15  2  0  0  0  0
 21 15  1  0  0  0  0
 23 19  1  0  0  0  0
 24 27  1  0  0  0  0
 24 26  1  0  0  0  0
 25 24  1  0  0  0  0
 27 28  1  0  0  0  0
 29 28  1  0  0  0  0
 30 31  1  0  0  0  0
 30 29  1  0  0  0  0
 31 27  1  0  0  0  0
M  END
>  <minimizedAffinity>
-4.73748493

$$$$

 OpenBabel03252508353D

 31 33  0  0  1  0  0  0  0  0999 V2000
   37.6700   29.5720   39.6810 N   0  0  0  0  0  0  0  0  0  0  0  0
   37.1450   29.6340   41.0180 C   0  0  1  0  0  0  0  0  0  0  0  0
   36.1930   30.7670   41.2240 C   0  0  0  0  0  0  0  0  0  0  0  0
   36.5000   31.9730   40.5960 N   0  0  0  0  0  0  0  0  0  0  0  0
   37.2230   31.9320   39.3960 C   0  0  0  0  0  0  0  0  0  0  0  0
   37.1660   30.5410   38.7680 C   0  0  0  0  0  0  0  0  0  0  0  0
   38.0030   29.6820   41.7380 H   0  0  0  0  0  0  0  0  0  0  0  0
   36.0310   30.9220   42.3070 H   0  0  0  0  0  0  0  0  0  0  0  0
   35.1860   30.4210   40.8430 H   0  0  0  0  0  0  0  0  0  0  0  0
   35.6020   32.5180   40.4280 H   0  0  0  0  0  0  0  0  0  0  0  0
   38.3170   32.0860   39.6260 H   0  0  0  0  0  0  0  0  0  0  0  0
   36.9820   32.7020   38.6530 H   0  0  0  0  0  0  0  0  0  0  0  0
   36.1300   30.2960   38.4520 H   0  0  0  0  0  0  0  0  0  0  0  0
   37.8290   30.5230   37.8620 H   0  0  0  0  0  0  0  0  0  0  0  0
   38.2470   27.5560   38.5460 C   0  0  0  0  0  0  0  0  0  0  0  0
   38.6210   28.5720   39.4130 C   0  0  0  0  0  0  0  0  0  0  0  0
   39.9230   28.5120   39.9500 C   0  0  0  0  0  0  0  0  0  0  0  0
   40.7430   27.4900   39.6090 N   0  0  0  0  0  0  0  0  0  0  0  0
   40.3390   26.5280   38.7660 C   0  0  0  0  0  0  0  0  0  0  0  0
   39.1140   26.5600   38.2450 N   0  0  0  0  0  0  0  0  0  0  0  0
   37.2900   27.4800   38.0690 H   0  0  0  0  0  0  0  0  0  0  0  0
   40.1640   29.3190   40.6130 H   0  0  0  0  0  0  0  0  0  0  0  0
   41.0680   25.7510   38.5550 H   0  0  0  0  0  0  0  0  0  0  0  0
   36.3810   28.3600   41.2800 C   0  0  0  0  0  0  0  0  0  0  0  0
   36.7870   27.6020   40.5670 H   0  0  0  0  0  0  0  0  0  0  0  0
   35.3160   28.4880   41.0850 H   0  0  0  0  0  0  0  0  0  0  0  0
   36.6340   27.7980   42.6550 C   0  0  0  0  0  3  0  0  0  0  0  0
   36.9140   26.3050   42.4450 C   0  0  0  0  0  2  0  0  0  0  0  0
   38.4100   26.2500   42.3890 C   0  0  0  0  0  2  0  0  0  0  0  0
   38.8340   27.1890   43.4770 C   0  0  0  0  0  2  0  0  0  0  0  0
   37.8670   28.3420   43.2930 C   0  0  0  0  0  2  0  0  0  0  0  0
  1  2  1  0  0  0  0
  2  3  1  0  0  0  0
  2 24  1  0  0  0  0
  2  7  1  1  0  0  0
  3  8  1  0  0  0  0
  4  3  1  0  0  0  0
  5 11  1  0  0  0  0
  5  4  1  0  0  0  0
  6  5  1  0  0  0  0
  6  1  1  0  0  0  0
  9  3  1  0  0  0  0
 10  4  1  0  0  0  0
 12  5  1  0  0  0  0
 13  6  1  0  0  0  0
 14  6  1  0  0  0  0
 15 16  1  0  0  0  0
 16  1  1  0  0  0  0
 16 17  2  0  0  0  0
 17 22  1  0  0  0  0
 18 17  1  0  0  0  0
 19 18  2  0  0  0  0
 20 15  2  0  0  0  0
 20 19  1  0  0  0  0
 21 15  1  0  0  0  0
 23 19  1  0  0  0  0
 24 27  1  0  0  0  0
 25 24  1  0  0  0  0
 26 24  1  0  0  0  0
 27 31  1  0  0  0  0
 28 27  1  0  0  0  0
 29 28  1  0  0  0  0
 29 30  1  0  0  0  0
 31 30  1  0  0  0  0
M  END
>  <minimizedAffinity>
-4.69184875

$$$$

 OpenBabel03252508353D

 31 33  0  0  1  0  0  0  0  0999 V2000
   38.1270   29.1980   40.8020 N   0  0  0  0  0  0  0  0  0  0  0  0
   37.1660   28.4060   41.5220 C   0  0  1  0  0  0  0  0  0  0  0  0
   35.7530   28.7020   41.1360 C   0  0  0  0  0  0  0  0  0  0  0  0
   35.4330   30.0360   40.8860 N   0  0  0  0  0  0  0  0  0  0  0  0
   36.4380   30.8810   40.3980 C   0  0  0  0  0  0  0  0  0  0  0  0
   37.5970   30.0750   39.8150 C   0  0  0  0  0  0  0  0  0  0  0  0
   37.3320   28.5540   42.6210 H   0  0  0  0  0  0  0  0  0  0  0  0
   35.0660   28.2710   41.8880 H   0  0  0  0  0  0  0  0  0  0  0  0
   35.5410   28.1100   40.1970 H   0  0  0  0  0  0  0  0  0  0  0  0
   34.6060   30.0770   40.2170 H   0  0  0  0  0  0  0  0  0  0  0  0
   36.8980   31.4370   41.2650 H   0  0  0  0  0  0  0  0  0  0  0  0
   36.1220   31.6650   39.6990 H   0  0  0  0  0  0  0  0  0  0  0  0
   37.2710   29.5160   38.9120 H   0  0  0  0  0  0  0  0  0  0  0  0
   38.4190   30.7810   39.5190 H   0  0  0  0  0  0  0  0  0  0  0  0
   39.8570   29.3670   42.4350 C   0  0  0  0  0  0  0  0  0  0  0  0
   39.4800   29.0270   41.1440 C   0  0  0  0  0  0  0  0  0  0  0  0
   40.4890   28.5410   40.2860 C   0  0  0  0  0  0  0  0  0  0  0  0
   41.7580   28.4250   40.7420 N   0  0  0  0  0  0  0  0  0  0  0  0
   42.0770   28.7650   42.0000 C   0  0  0  0  0  0  0  0  0  0  0  0
   41.1450   29.2280   42.8310 N   0  0  0  0  0  0  0  0  0  0  0  0
   39.1930   29.7470   43.1860 H   0  0  0  0  0  0  0  0  0  0  0  0
   40.1470   28.2930   39.3010 H   0  0  0  0  0  0  0  0  0  0  0  0
   43.1210   28.6370   42.2710 H   0  0  0  0  0  0  0  0  0  0  0  0
   37.4190   26.9540   41.1980 C   0  0  0  0  0  0  0  0  0  0  0  0
   38.4070   26.9200   40.6800 H   0  0  0  0  0  0  0  0  0  0  0  0
   36.6570   26.5580   40.5260 H   0  0  0  0  0  0  0  0  0  0  0  0
   37.5770   26.0990   42.4290 C   0  0  0  0  0  3  0  0  0  0  0  0
   36.9290   24.7540   42.0820 C   0  0  0  0  0  2  0  0  0  0  0  0
   38.0930   23.9280   41.6280 C   0  0  0  0  0  2  0  0  0  0  0  0
   39.1720   24.2780   42.6080 C   0  0  0  0  0  2  0  0  0  0  0  0
   39.0000   25.7790   42.7410 C   0  0  0  0  0  2  0  0  0  0  0  0
  1 16  1  0  0  0  0
  1  2  1  0  0  0  0
  2  7  1  1  0  0  0
  3  2  1  0  0  0  0
  3  8  1  0  0  0  0
  4  3  1  0  0  0  0
  5  4  1  0  0  0  0
  5 11  1  0  0  0  0
  6  5  1  0  0  0  0
  6  1  1  0  0  0  0
  9  3  1  0  0  0  0
 10  4  1  0  0  0  0
 12  5  1  0  0  0  0
 13  6  1  0  0  0  0
 14  6  1  0  0  0  0
 15 20  1  0  0  0  0
 15 21  1  0  0  0  0
 16 15  2  0  0  0  0
 17 18  2  0  0  0  0
 17 16  1  0  0  0  0
 18 19  1  0  0  0  0
 19 23  1  0  0  0  0
 19 20  2  0  0  0  0
 22 17  1  0  0  0  0
 24  2  1  0  0  0  0
 24 27  1  0  0  0  0
 25 24  1  0  0  0  0
 26 24  1  0  0  0  0
 27 31  1  0  0  0  0
 28 27  1  0  0  0  0
 29 28  1  0  0  0  0
 29 30  1  0  0  0  0
 30 31  1  0  0  0  0
M  END
>  <minimizedAffinity>
-4.61731243

$$$$

 OpenBabel03252508353D

 31 33  0  0  1  0  0  0  0  0999 V2000
   37.9960   29.6780   41.1340 N   0  0  0  0  0  0  0  0  0  0  0  0
   36.5970   29.9970   41.2250 C   0  0  1  0  0  0  0  0  0  0  0  0
   36.2420   31.2820   40.5510 C   0  0  0  0  0  0  0  0  0  0  0  0
   37.1520   32.3320   40.6730 N   0  0  0  0  0  0  0  0  0  0  0  0
   38.5100   32.0210   40.8190 C   0  0  0  0  0  0  0  0  0  0  0  0
   38.7940   30.5860   40.3810 C   0  0  0  0  0  0  0  0  0  0  0  0
   36.3010   30.0040   42.3060 H   0  0  0  0  0  0  0  0  0  0  0  0
   35.2330   31.6030   40.8730 H   0  0  0  0  0  0  0  0  0  0  0  0
   36.1200   31.0520   39.4510 H   0  0  0  0  0  0  0  0  0  0  0  0
   37.0460   32.9840   39.8390 H   0  0  0  0  0  0  0  0  0  0  0  0
   38.7680   32.0290   41.9180 H   0  0  0  0  0  0  0  0  0  0  0  0
   39.2240   32.7140   40.3590 H   0  0  0  0  0  0  0  0  0  0  0  0
   38.6200   30.4670   39.2910 H   0  0  0  0  0  0  0  0  0  0  0  0
   39.8700   30.3440   40.5990 H   0  0  0  0  0  0  0  0  0  0  0  0
   39.0480   27.5410   41.0200 C   0  0  0  0  0  0  0  0  0  0  0  0
   38.4310   28.5140   41.7910 C   0  0  0  0  0  0  0  0  0  0  0  0
   38.2930   28.2500   43.1700 C   0  0  0  0  0  0  0  0  0  0  0  0
   38.7570   27.0850   43.6800 N   0  0  0  0  0  0  0  0  0  0  0  0
   39.3480   26.1720   42.8950 C   0  0  0  0  0  0  0  0  0  0  0  0
   39.4910   26.3950   41.5900 N   0  0  0  0  0  0  0  0  0  0  0  0
   39.2160   27.6130   39.9640 H   0  0  0  0  0  0  0  0  0  0  0  0
   37.8100   29.0330   43.7220 H   0  0  0  0  0  0  0  0  0  0  0  0
   39.6860   25.2690   43.3960 H   0  0  0  0  0  0  0  0  0  0  0  0
   35.8220   28.9040   40.5310 C   0  0  0  0  0  0  0  0  0  0  0  0
   34.8120   28.8920   41.0050 H   0  0  0  0  0  0  0  0  0  0  0  0
   36.2900   27.9300   40.6770 H   0  0  0  0  0  0  0  0  0  0  0  0
   35.5810   29.1940   39.0720 C   0  0  0  0  0  3  0  0  0  0  0  0
   36.4500   28.1910   38.3040 C   0  0  0  0  0  2  0  0  0  0  0  0
   35.4940   27.0750   38.0120 C   0  0  0  0  0  2  0  0  0  0  0  0
   34.2340   27.7870   37.6240 C   0  0  0  0  0  2  0  0  0  0  0  0
   34.1820   28.9110   38.6410 C   0  0  0  0  0  2  0  0  0  0  0  0
  1  2  1  0  0  0  0
  1 16  1  0  0  0  0
  2  7  1  1  0  0  0
  3  4  1  0  0  0  0
  3  8  1  0  0  0  0
  3  2  1  0  0  0  0
  4  5  1  0  0  0  0
  5 11  1  0  0  0  0
  6 14  1  0  0  0  0
  6  5  1  0  0  0  0
  6  1  1  0  0  0  0
  9  3  1  0  0  0  0
 10  4  1  0  0  0  0
 12  5  1  0  0  0  0
 13  6  1  0  0  0  0
 15 20  2  0  0  0  0
 15 16  1  0  0  0  0
 16 17  2  0  0  0  0
 17 18  1  0  0  0  0
 17 22  1  0  0  0  0
 19 23  1  0  0  0  0
 19 18  2  0  0  0  0
 20 19  1  0  0  0  0
 21 15  1  0  0  0  0
 24 26  1  0  0  0  0
 24 25  1  0  0  0  0
 24  2  1  0  0  0  0
 27 24  1  0  0  0  0
 28 27  1  0  0  0  0
 29 28  1  0  0  0  0
 30 29  1  0  0  0  0
 30 31  1  0  0  0  0
 31 27  1  0  0  0  0
M  END
>  <minimizedAffinity>
-4.59705639

$$$$

 OpenBabel03252508353D

 31 33  0  0  1  0  0  0  0  0999 V2000
   37.9070   27.1630   41.4640 N   0  0  0  0  0  0  0  0  0  0  0  0
   36.6900   27.8310   41.0910 C   0  0  1  0  0  0  0  0  0  0  0  0
   36.5880   29.2180   41.6370 C   0  0  0  0  0  0  0  0  0  0  0  0
   37.0650   29.4230   42.9320 N   0  0  0  0  0  0  0  0  0  0  0  0
   38.1100   28.6110   43.3920 C   0  0  0  0  0  0  0  0  0  0  0  0
   38.8300   27.9320   42.2290 C   0  0  0  0  0  0  0  0  0  0  0  0
   35.8220   27.1980   41.4100 H   0  0  0  0  0  0  0  0  0  0  0  0
   35.5460   29.5760   41.5450 H   0  0  0  0  0  0  0  0  0  0  0  0
   37.1720   29.8880   40.9390 H   0  0  0  0  0  0  0  0  0  0  0  0
   37.3600   30.4400   43.0370 H   0  0  0  0  0  0  0  0  0  0  0  0
   37.6710   27.7540   43.9810 H   0  0  0  0  0  0  0  0  0  0  0  0
   38.8300   29.0790   44.0730 H   0  0  0  0  0  0  0  0  0  0  0  0
   39.3490   28.6830   41.5970 H   0  0  0  0  0  0  0  0  0  0  0  0
   39.5970   27.2210   42.6400 H   0  0  0  0  0  0  0  0  0  0  0  0
   37.1380   24.9060   41.5080 C   0  0  0  0  0  0  0  0  0  0  0  0
   38.0610   25.8310   41.0430 C   0  0  0  0  0  0  0  0  0  0  0  0
   39.0750   25.3530   40.1870 C   0  0  0  0  0  0  0  0  0  0  0  0
   39.1110   24.0410   39.8560 N   0  0  0  0  0  0  0  0  0  0  0  0
   38.1960   23.1810   40.3300 C   0  0  0  0  0  0  0  0  0  0  0  0
   37.2280   23.6050   41.1410 N   0  0  0  0  0  0  0  0  0  0  0  0
   36.3210   25.1350   42.1620 H   0  0  0  0  0  0  0  0  0  0  0  0
   39.7620   26.1060   39.8550 H   0  0  0  0  0  0  0  0  0  0  0  0
   38.3090   22.1500   40.0090 H   0  0  0  0  0  0  0  0  0  0  0  0
   36.6620   27.9450   39.5860 C   0  0  0  0  0  0  0  0  0  0  0  0
   36.1370   27.0320   39.2160 H   0  0  0  0  0  0  0  0  0  0  0  0
   37.6700   27.9630   39.1700 H   0  0  0  0  0  0  0  0  0  0  0  0
   35.8370   29.1100   39.1030 C   0  0  0  0  0  3  0  0  0  0  0  0
   36.6100   29.6980   37.9170 C   0  0  0  0  0  2  0  0  0  0  0  0
   35.9660   29.0380   36.7370 C   0  0  0  0  0  2  0  0  0  0  0  0
   34.5060   29.0690   37.0740 C   0  0  0  0  0  2  0  0  0  0  0  0
   34.5160   28.7020   38.5460 C   0  0  0  0  0  2  0  0  0  0  0  0
  1  6  1  0  0  0  0
  2  7  1  1  0  0  0
  2  1  1  0  0  0  0
  2  3  1  0  0  0  0
  3  4  1  0  0  0  0
  4 10  1  0  0  0  0
  4  5  1  0  0  0  0
  5 11  1  0  0  0  0
  5 12  1  0  0  0  0
  6 14  1  0  0  0  0
  6  5  1  0  0  0  0
  8  3  1  0  0  0  0
  9  3  1  0  0  0  0
 13  6  1  0  0  0  0
 15 21  1  0  0  0  0
 16  1  1  0  0  0  0
 16 15  2  0  0  0  0
 17 16  1  0  0  0  0
 18 17  2  0  0  0  0
 18 19  1  0  0  0  0
 19 20  2  0  0  0  0
 20 15  1  0  0  0  0
 22 17  1  0  0  0  0
 23 19  1  0  0  0  0
 24  2  1  0  0  0  0
 25 24  1  0  0  0  0
 26 24  1  0  0  0  0
 27 24  1  0  0  0  0
 28 27  1  0  0  0  0
 29 30  1  0  0  0  0
 29 28  1  0  0  0  0
 30 31  1  0  0  0  0
 31 27  1  0  0  0  0
M  END
>  <minimizedAffinity>
-4.59156179

$$$$

 OpenBabel03252508353D

 31 33  0  0  1  0  0  0  0  0999 V2000
   38.8660   30.4670   40.6910 N   0  0  0  0  0  0  0  0  0  0  0  0
   37.4610   30.1780   40.7940 C   0  0  1  0  0  0  0  0  0  0  0  0
   36.5960   31.2640   40.2430 C   0  0  0  0  0  0  0  0  0  0  0  0
   37.0030   32.5770   40.4790 N   0  0  0  0  0  0  0  0  0  0  0  0
   38.3740   32.8340   40.6120 C   0  0  0  0  0  0  0  0  0  0  0  0
   39.2050   31.6870   40.0410 C   0  0  0  0  0  0  0  0  0  0  0  0
   37.2180   29.9620   41.8660 H   0  0  0  0  0  0  0  0  0  0  0  0
   35.5530   31.1140   40.5810 H   0  0  0  0  0  0  0  0  0  0  0  0
   36.5480   31.1090   39.1250 H   0  0  0  0  0  0  0  0  0  0  0  0
   36.6180   33.2050   39.7100 H   0  0  0  0  0  0  0  0  0  0  0  0
   38.6360   32.8430   41.7100 H   0  0  0  0  0  0  0  0  0  0  0  0
   38.7310   33.7980   40.2320 H   0  0  0  0  0  0  0  0  0  0  0  0
   39.0650   31.6110   38.9420 H   0  0  0  0  0  0  0  0  0  0  0  0
   40.2910   31.8860   40.2490 H   0  0  0  0  0  0  0  0  0  0  0  0
   40.5810   28.8430   40.3570 C   0  0  0  0  0  0  0  0  0  0  0  0
   39.7540   29.5250   41.2380 C   0  0  0  0  0  0  0  0  0  0  0  0
   39.8780   29.2120   42.6080 C   0  0  0  0  0  0  0  0  0  0  0  0
   40.7760   28.2810   43.0050 N   0  0  0  0  0  0  0  0  0  0  0  0
   41.5560   27.6470   42.1170 C   0  0  0  0  0  0  0  0  0  0  0  0
   41.4600   27.9220   40.8180 N   0  0  0  0  0  0  0  0  0  0  0  0
   40.5900   28.9840   39.2950 H   0  0  0  0  0  0  0  0  0  0  0  0
   39.2180   29.7660   43.2470 H   0  0  0  0  0  0  0  0  0  0  0  0
   42.2450   26.9160   42.5330 H   0  0  0  0  0  0  0  0  0  0  0  0
   37.1790   28.9350   39.9860 C   0  0  0  0  0  0  0  0  0  0  0  0
   38.1640   28.4320   39.8360 H   0  0  0  0  0  0  0  0  0  0  0  0
   36.7590   29.1820   39.0110 H   0  0  0  0  0  0  0  0  0  0  0  0
   36.3250   27.9380   40.7270 C   0  0  0  0  0  3  0  0  0  0  0  0
   36.8980   26.5610   40.3720 C   0  0  0  0  0  2  0  0  0  0  0  0
   37.8260   26.2810   41.5140 C   0  0  0  0  0  2  0  0  0  0  0  0
   37.0570   26.7490   42.7120 C   0  0  0  0  0  2  0  0  0  0  0  0
   36.4510   28.0450   42.2090 C   0  0  0  0  0  2  0  0  0  0  0  0
  1  2  1  0  0  0  0
  1 16  1  0  0  0  0
  2  7  1  1  0  0  0
  3  4  1  0  0  0  0
  3  8  1  0  0  0  0
  3  2  1  0  0  0  0
  4  5  1  0  0  0  0
  5 11  1  0  0  0  0
  6 14  1  0  0  0  0
  6  5  1  0  0  0  0
  6  1  1  0  0  0  0
  9  3  1  0  0  0  0
 10  4  1  0  0  0  0
 12  5  1  0  0  0  0
 13  6  1  0  0  0  0
 15 20  2  0  0  0  0
 15 16  1  0  0  0  0
 16 17  2  0  0  0  0
 17 18  1  0  0  0  0
 17 22  1  0  0  0  0
 19 23  1  0  0  0  0
 19 18  2  0  0  0  0
 20 19  1  0  0  0  0
 21 15  1  0  0  0  0
 24 27  1  0  0  0  0
 24  2  1  0  0  0  0
 25 24  1  0  0  0  0
 26 24  1  0  0  0  0
 27 31  1  0  0  0  0
 28 27  1  0  0  0  0
 28 29  1  0  0  0  0
 29 30  1  0  0  0  0
 31 30  1  0  0  0  0
M  END
>  <minimizedAffinity>
-4.52164793

$$$$
