
 OpenBabel03252504003D

 30 33  0  0  0  0  0  0  0  0999 V2000
   46.0380   31.7090   45.1710 C   0  0  0  0  0  0  0  0  0  0  0  0
   45.7680   33.0180   45.5760 C   0  0  0  0  0  0  0  0  0  0  0  0
   45.4850   33.2760   46.8920 C   0  0  0  0  0  0  0  0  0  0  0  0
   45.4680   32.2380   47.8000 C   0  0  0  0  0  0  0  0  0  0  0  0
   45.2340   32.1650   49.1160 N   0  0  0  0  0  0  0  0  0  0  0  0
   45.3340   30.9140   49.5710 C   0  0  0  0  0  0  0  0  0  0  0  0
   45.6560   30.0990   48.4950 C   0  0  0  0  0  0  0  0  0  0  0  0
   45.7360   30.9320   47.4010 C   0  0  0  0  0  0  0  0  0  0  0  0
   46.0210   30.6780   46.0710 C   0  0  0  0  0  0  0  0  0  0  0  0
   46.2690   31.4520   44.1320 H   0  0  0  0  0  0  0  0  0  0  0  0
   45.2750   34.2840   47.2150 H   0  0  0  0  0  0  0  0  0  0  0  0
   44.9990   32.9770   49.7320 H   0  0  0  0  0  0  0  0  0  0  0  0
   45.1950   30.5560   50.5990 H   0  0  0  0  0  0  0  0  0  0  0  0
   45.8130   29.0400   48.4880 H   0  0  0  0  0  0  0  0  0  0  0  0
   46.2300   29.6590   45.7650 H   0  0  0  0  0  0  0  0  0  0  0  0
   46.7800   34.9440   42.6490 C   0  0  0  0  0  0  0  0  0  0  0  0
   45.8790   36.0070   42.6150 C   0  0  0  0  0  0  0  0  0  0  0  0
   44.9100   36.0580   43.6170 C   0  0  0  0  0  0  0  0  0  0  0  0
   44.9000   35.0810   44.5550 N   0  0  0  0  0  0  0  0  0  0  0  0
   45.8050   34.0580   44.5480 C   0  0  0  0  0  0  0  0  0  0  0  0
   46.7400   33.9960   43.5940 N   0  0  0  0  0  0  0  0  0  0  0  0
   45.8520   36.7990   41.8930 H   0  0  0  0  0  0  0  0  0  0  0  0
   44.1680   36.8500   43.6680 H   0  0  0  0  0  0  0  0  0  0  0  0
   47.7500   34.9560   41.5880 C   0  0  0  0  0  0  0  0  0  0  0  0
   48.6780   35.7970   41.4210 O   0  0  0  0  0  0  0  0  0  0  0  0
   47.7100   33.8890   40.5410 C   0  0  0  0  0  0  0  0  0  0  0  0
   46.2970   33.4780   40.2220 C   0  0  0  0  0  0  0  0  0  0  0  0
   46.3000   33.2850   38.7370 C   0  0  0  0  0  0  0  0  0  0  0  0
   47.6540   33.6300   38.2060 C   0  0  0  0  0  0  0  0  0  0  0  0
   48.2740   34.4810   39.2660 C   0  0  0  0  0  0  0  0  0  0  0  0
  1  2  2  0  0  0  0
  1  9  1  0  0  0  0
  2  3  1  0  0  0  0
  3 11  1  0  0  0  0
  3  4  2  0  0  0  0
  4  5  1  0  0  0  0
  5  6  1  0  0  0  0
  5 12  1  0  0  0  0
  6 13  1  0  0  0  0
  7  6  2  0  0  0  0
  8  4  1  0  0  0  0
  8  7  1  0  0  0  0
  9  8  2  0  0  0  0
 10  1  1  0  0  0  0
 14  7  1  0  0  0  0
 15  9  1  0  0  0  0
 16 21  1  0  0  0  0
 17 16  2  0  0  0  0
 17 18  1  0  0  0  0
 18 23  1  0  0  0  0
 18 19  2  0  0  0  0
 20 19  1  0  0  0  0
 20  2  1  0  0  0  0
 21 20  2  0  0  0  0
 22 17  1  0  0  0  0
 24 16  1  0  0  0  0
 25 24  2  0  0  0  0
 26 24  1  0  0  0  0
 27 26  1  0  0  0  0
 28 27  1  0  0  0  0
 29 28  1  0  0  0  0
 29 30  1  0  0  0  0
 30 26  1  0  0  0  0
M  END
>  <minimizedAffinity>
-6.16602039

>  <minimizedRMSD>
0.523183405

$$$$
