
 OpenBabel03242517003D

 28 30  0  0  0  0  0  0  0  0999 V2000
   46.7060   34.8100   41.9720 C   0  0  0  0  0  0  0  0  0  0  0  0
   47.9920   35.3190   41.9420 C   0  0  0  0  0  0  0  0  0  0  0  0
   48.7360   35.1640   40.7890 C   0  0  0  0  0  0  0  0  0  0  0  0
   48.2020   34.5190   39.7100 C   0  0  0  0  0  0  0  0  0  0  0  0
   46.9360   34.0040   39.7040 C   0  0  0  0  0  0  0  0  0  0  0  0
   46.1970   34.1730   40.8840 C   0  0  0  0  0  0  0  0  0  0  0  0
   48.4190   35.8310   42.7980 H   0  0  0  0  0  0  0  0  0  0  0  0
   49.7440   35.5340   40.6920 H   0  0  0  0  0  0  0  0  0  0  0  0
   48.7860   34.3980   38.8070 H   0  0  0  0  0  0  0  0  0  0  0  0
   46.4760   33.4880   38.8710 H   0  0  0  0  0  0  0  0  0  0  0  0
   44.5180   36.1770   44.7380 C   0  0  0  0  0  0  0  0  0  0  0  0
   45.1910   36.1010   43.5000 C   0  0  0  0  0  0  0  0  0  0  0  0
   45.9630   35.0020   43.2150 C   0  0  0  0  0  0  0  0  0  0  0  0
   46.0350   34.0280   44.1670 N   0  0  0  0  0  0  0  0  0  0  0  0
   45.3960   34.0890   45.3540 C   0  0  0  0  0  0  0  0  0  0  0  0
   44.6280   35.1840   45.6370 N   0  0  0  0  0  0  0  0  0  0  0  0
   43.9080   37.0350   44.9750 H   0  0  0  0  0  0  0  0  0  0  0  0
   45.1170   36.8760   42.7760 H   0  0  0  0  0  0  0  0  0  0  0  0
   45.5200   33.2570   46.0430 H   0  0  0  0  0  0  0  0  0  0  0  0
   43.5740   34.2190   40.8210 C   0  0  0  0  0  0  0  0  0  0  0  0
   43.3130   35.3840   40.4780 O   0  0  0  0  0  0  0  0  0  0  0  0
   44.8730   33.6870   41.0180 N   0  0  0  0  0  0  0  0  0  0  0  0
   45.0590   32.6900   41.3450 H   0  0  0  0  0  0  0  0  0  0  0  0
   42.4850   33.2000   41.0770 C   0  0  0  0  0  3  0  0  0  0  0  0
   42.9810   31.9370   40.3990 C   0  0  0  0  0  2  0  0  0  0  0  0
   42.3520   31.8820   39.0370 C   0  0  0  0  0  2  0  0  0  0  0  0
   41.3290   32.9830   38.9730 C   0  0  0  0  0  2  0  0  0  0  0  0
   41.2820   33.6530   40.3170 C   0  0  0  0  0  2  0  0  0  0  0  0
  1 13  1  0  0  0  0
  2  1  1  0  0  0  0
  2  7  1  0  0  0  0
  3  2  2  0  0  0  0
  4  3  1  0  0  0  0
  5  4  2  0  0  0  0
  5  6  1  0  0  0  0
  6 22  1  0  0  0  0
  6  1  2  0  0  0  0
  8  3  1  0  0  0  0
  9  4  1  0  0  0  0
 10  5  1  0  0  0  0
 11 17  1  0  0  0  0
 11 16  1  0  0  0  0
 12 11  2  0  0  0  0
 13 12  1  0  0  0  0
 13 14  2  0  0  0  0
 14 15  1  0  0  0  0
 15 16  2  0  0  0  0
 15 19  1  0  0  0  0
 18 12  1  0  0  0  0
 20 22  1  0  0  0  0
 20 24  1  0  0  0  0
 21 20  2  0  0  0  0
 22 23  1  0  0  0  0
 25 24  1  0  0  0  0
 26 25  1  0  0  0  0
 27 26  1  0  0  0  0
 27 28  1  0  0  0  0
 28 24  1  0  0  0  0
M  END
>  <minimizedAffinity>
-5.76606894

>  <minimizedRMSD>
1.31226134

$$$$
