REMARK  Name = 
REMARK  3 active torsions:
REMARK  status: ('A' for Active; 'I' for Inactive)
REMARK    1  A    between atoms: N_1  and  C_8
REMARK    2  A    between atoms: C_2  and  C_13
REMARK    3  A    between atoms: C_13  and  C_27
REMARK                            x       y       z     vdW  Elec       q    Type
REMARK                         _______ _______ _______ _____ _____    ______ ____
ROOT
ATOM      1  N   UNL     1      45.613  34.417  41.842  0.00  0.00    +0.000 N 
ATOM      2  C   UNL     1      46.956  34.124  41.420  0.00  0.00    +0.000 C 
ATOM      3  C   UNL     1      47.094  34.005  39.937  0.00  0.00    +0.000 C 
ATOM      4  N   UNL     1      46.052  33.378  39.254  0.00  0.00    +0.000 NA
ATOM      5  C   UNL     1      44.760  33.464  39.789  0.00  0.00    +0.000 C 
ATOM      6  C   UNL     1      44.660  34.603  40.801  0.00  0.00    +0.000 C 
ATOM      7  H   UNL     1      47.300  33.193  41.941  0.00  0.00    +0.000 HD
ATOM      8  H   UNL     1      48.062  33.529  39.692  0.00  0.00    +0.000 HD
ATOM      9  H   UNL     1      47.194  35.056  39.533  0.00  0.00    +0.000 HD
ATOM     10  H   UNL     1      46.025  33.738  38.253  0.00  0.00    +0.000 HD
ATOM     11  H   UNL     1      44.557  32.536  40.398  0.00  0.00    +0.000 HD
ATOM     12  H   UNL     1      43.934  33.512  39.069  0.00  0.00    +0.000 HD
ATOM     13  H   UNL     1      44.796  35.585  40.301  0.00  0.00    +0.000 HD
ATOM     14  H   UNL     1      43.641  34.582  41.274  0.00  0.00    +0.000 HD
ENDROOT
BRANCH   1  16
ATOM     15  C   UNL     1      44.727  35.615  43.704  0.00  0.00    +0.000 A 
ATOM     16  C   UNL     1      45.379  34.488  43.226  0.00  0.00    +0.000 A 
ATOM     17  C   UNL     1      45.751  33.511  44.173  0.00  0.00    +0.000 A 
ATOM     18  N   UNL     1      45.465  33.702  45.482  0.00  0.00    +0.000 NA
ATOM     19  C   UNL     1      44.832  34.809  45.899  0.00  0.00    +0.000 A 
ATOM     20  N   UNL     1      44.470  35.748  45.027  0.00  0.00    +0.000 NA
ATOM     21  H   UNL     1      44.391  36.431  43.095  0.00  0.00    +0.000 HD
ATOM     22  H   UNL     1      46.251  32.660  43.754  0.00  0.00    +0.000 HD
ATOM     23  H   UNL     1      44.648  34.871  46.968  0.00  0.00    +0.000 HD
ENDBRANCH   1  16
BRANCH   2  24
ATOM     24  C   UNL     1      47.843  35.264  41.857  0.00  0.00    +0.000 C 
ATOM     25  H   UNL     1      47.831  35.256  42.973  0.00  0.00    +0.000 HD
ATOM     26  H   UNL     1      47.458  36.223  41.509  0.00  0.00    +0.000 HD
BRANCH  24  27
ATOM     27  C   UNL     1      49.285  35.066  41.466  0.00  0.00    +0.000 C 
ATOM     28  C   UNL     1      50.080  36.082  42.297  0.00  0.00    +0.000 C 
ATOM     29  C   UNL     1      50.520  35.276  43.480  0.00  0.00    +0.000 C 
ATOM     30  C   UNL     1      50.924  33.965  42.878  0.00  0.00    +0.000 C 
ATOM     31  C   UNL     1      49.822  33.732  41.862  0.00  0.00    +0.000 C 
ENDBRANCH  24  27
ENDBRANCH   2  24
TORSDOF 3
