
 OpenBabel03242523513D

 39 42  0  0  1  0  0  0  0  0999 V2000
   42.8140   34.3250   38.8980 C   0  0  1  0  0  0  0  0  0  0  0  0
   43.0510   35.1530   40.1620 C   0  0  1  0  0  0  0  0  0  0  0  0
   41.8160   35.6530   40.6200 O   0  0  0  0  0  0  0  0  0  0  0  0
   40.9340   35.9580   39.5880 C   0  0  0  0  0  0  0  0  0  0  0  0
   40.4430   34.6800   38.9050 C   0  0  2  0  0  0  0  0  0  0  0  0
   41.4990   33.6070   39.1430 C   0  0  1  0  0  0  0  0  0  0  0  0
   43.6420   33.6180   38.7180 H   0  0  0  0  0  0  0  0  0  0  0  0
   43.7490   35.9880   40.0050 H   0  0  0  0  0  0  0  0  0  0  0  0
   40.0450   36.3820   40.0810 H   0  0  0  0  0  0  0  0  0  0  0  0
   41.3200   36.7030   38.8790 H   0  0  0  0  0  0  0  0  0  0  0  0
   39.4430   34.3810   39.2340 H   0  0  0  0  0  0  0  0  0  0  0  0
   41.5130   33.2850   40.2100 H   0  0  0  0  0  0  0  0  0  0  0  0
   42.7020   35.1650   37.7890 O   0  0  0  0  0  0  0  0  0  0  0  0
   42.7930   34.6690   36.9620 H   0  0  0  0  0  0  0  0  0  0  0  0
   40.4890   34.9250   37.5160 O   0  0  0  0  0  0  0  0  0  0  0  0
   39.8180   34.3720   37.0380 H   0  0  0  0  0  0  0  0  0  0  0  0
   43.4520   34.2410   41.1480 O   0  0  0  0  0  0  0  0  0  0  0  0
   44.5840   34.3150   41.8570 C   0  0  0  0  0  0  0  0  0  0  0  0
   45.8100   34.4680   41.2140 C   0  0  0  0  0  0  0  0  0  0  0  0
   46.9600   34.5410   41.9820 C   0  0  0  0  0  0  0  0  0  0  0  0
   46.8660   34.4620   43.3660 N   0  0  0  0  0  0  0  0  0  0  0  0
   45.6660   34.3130   43.9440 C   0  0  0  0  0  0  0  0  0  0  0  0
   44.5280   34.2400   43.2080 N   0  0  0  0  0  0  0  0  0  0  0  0
   45.8830   34.5300   40.1320 H   0  0  0  0  0  0  0  0  0  0  0  0
   45.6590   34.2570   45.0280 H   0  0  0  0  0  0  0  0  0  0  0  0
   48.3140   34.6900   41.3360 C   0  0  0  0  0  0  0  0  0  0  0  0
   49.0350   36.0040   41.5310 C   0  0  0  0  0  0  0  0  0  0  0  0
   49.5000   34.6790   42.1510 C   0  0  0  0  0  0  0  0  0  0  0  0
   48.3390   34.2490   40.3080 H   0  0  0  0  0  0  0  0  0  0  0  0
   49.5830   36.3720   40.6510 H   0  0  0  0  0  0  0  0  0  0  0  0
   48.5700   36.7620   42.1690 H   0  0  0  0  0  0  0  0  0  0  0  0
   50.4450   34.2490   41.7810 H   0  0  0  0  0  0  0  0  0  0  0  0
   49.4260   34.6940   43.2610 H   0  0  0  0  0  0  0  0  0  0  0  0
   41.2990   32.5290   38.3040 O   0  0  0  0  0  0  0  0  0  0  0  0
   40.0560   31.9480   38.5430 C   0  0  0  0  0  0  0  0  0  0  0  0
   39.6380   30.9880   37.4580 C   0  0  0  0  0  0  0  0  0  0  0  0
   38.5280   30.2010   38.1060 C   0  0  0  0  0  0  0  0  0  0  0  0
   38.7080   30.3690   39.6140 C   0  0  0  0  0  0  0  0  0  0  0  0
   40.0840   31.0260   39.7600 C   0  0  0  0  0  0  0  0  0  0  0  0
  1  7  1  6  0  0  0
  1  6  1  0  0  0  0
  1  2  1  0  0  0  0
  2  8  1  6  0  0  0
  2  3  1  0  0  0  0
  2 17  1  0  0  0  0
  4  9  1  0  0  0  0
  4  3  1  0  0  0  0
  5  6  1  0  0  0  0
  5 11  1  1  0  0  0
  5  4  1  0  0  0  0
  6 12  1  1  0  0  0
 10  4  1  0  0  0  0
 13  1  1  0  0  0  0
 14 13  1  0  0  0  0
 15  5  1  0  0  0  0
 16 15  1  0  0  0  0
 17 18  1  0  0  0  0
 18 23  1  0  0  0  0
 19 18  2  0  0  0  0
 19 20  1  0  0  0  0
 20 21  2  0  0  0  0
 21 22  1  0  0  0  0
 22 25  1  0  0  0  0
 23 22  2  0  0  0  0
 24 19  1  0  0  0  0
 26 27  1  0  0  0  0
 26 20  1  0  0  0  0
 26 28  1  0  0  0  0
 27 28  1  0  0  0  0
 27 31  1  0  0  0  0
 28 33  1  0  0  0  0
 29 26  1  0  0  0  0
 30 27  1  0  0  0  0
 32 28  1  0  0  0  0
 34 35  1  0  0  0  0
 34  6  1  0  0  0  0
 35 39  1  0  0  0  0
 36 37  1  0  0  0  0
 36 35  1  0  0  0  0
 37 38  1  0  0  0  0
 38 39  1  0  0  0  0
M  END
>  <minimizedAffinity>
-6.06686497

>  <minimizedRMSD>
1.5981437

$$$$
