
 OpenBabel03242518553D

 38 40  0  0  1  0  0  0  0  0999 V2000
   45.7810   31.2530   46.6250 C   0  0  2  0  0  0  0  0  0  0  0  0
   45.9700   30.4360   47.8630 C   0  0  0  0  0  0  0  0  0  0  0  0
   45.1730   29.1920   47.6930 C   0  0  0  0  0  0  0  0  0  0  0  0
   44.3520   29.1150   46.4500 C   0  0  0  0  0  0  0  0  0  0  0  0
   45.2180   29.3260   45.2380 C   0  0  0  0  0  0  0  0  0  0  0  0
   46.1680   30.4140   45.4220 C   0  0  2  0  0  0  0  0  0  0  0  0
   44.6960   31.4400   46.4820 H   0  0  0  0  0  0  0  0  0  0  0  0
   45.5840   31.0710   48.7090 H   0  0  0  0  0  0  0  0  0  0  0  0
   47.0340   30.2550   48.1210 H   0  0  0  0  0  0  0  0  0  0  0  0
   44.4230   29.1630   48.5390 H   0  0  0  0  0  0  0  0  0  0  0  0
   45.7430   28.2410   47.8510 H   0  0  0  0  0  0  0  0  0  0  0  0
   43.9220   28.0880   46.4160 H   0  0  0  0  0  0  0  0  0  0  0  0
   43.4720   29.7900   46.4820 H   0  0  0  0  0  0  0  0  0  0  0  0
   44.4970   29.6190   44.4180 H   0  0  0  0  0  0  0  0  0  0  0  0
   45.5990   28.3370   44.9270 H   0  0  0  0  0  0  0  0  0  0  0  0
   46.2390   31.1080   44.5730 H   0  0  0  0  0  0  0  0  0  0  0  0
   47.4940   29.7740   45.6430 C   0  0  0  0  0  0  0  0  0  0  0  0
   47.4420   28.7710   46.1250 H   0  0  0  0  0  0  0  0  0  0  0  0
   48.0660   30.4040   46.3550 H   0  0  0  0  0  0  0  0  0  0  0  0
   48.3370   29.5820   44.4180 C   0  0  0  0  0  3  0  0  0  0  0  0
   48.5040   30.8400   43.6020 C   0  0  0  0  0  2  0  0  0  0  0  0
   49.4940   30.3000   42.5650 C   0  0  0  0  0  2  0  0  0  0  0  0
   50.5180   29.6630   43.4880 C   0  0  0  0  0  2  0  0  0  0  0  0
   49.8100   29.3680   44.7860 C   0  0  0  0  0  2  0  0  0  0  0  0
   46.4740   32.5650   46.6520 C   0  0  0  0  0  0  0  0  0  0  0  0
   47.4060   32.8340   47.4430 O   0  0  0  0  0  0  0  0  0  0  0  0
   44.6150   35.3280   45.1450 C   0  0  0  0  0  0  0  0  0  0  0  0
   45.1550   35.4430   43.8370 C   0  0  0  0  0  0  0  0  0  0  0  0
   46.1640   34.5550   43.5100 C   0  0  0  0  0  0  0  0  0  0  0  0
   46.5030   33.6970   44.4730 N   0  0  0  0  0  0  0  0  0  0  0  0
   46.0120   33.5780   45.6850 C   0  0  0  0  0  0  0  0  0  0  0  0
   45.0320   34.4280   46.0280 N   0  0  0  0  0  0  0  0  0  0  0  0
   43.8090   36.0270   45.4250 H   0  0  0  0  0  0  0  0  0  0  0  0
   44.7810   36.1940   43.1530 H   0  0  0  0  0  0  0  0  0  0  0  0
   46.7150   34.6640   42.1710 C   0  0  0  0  0  0  0  0  0  0  0  0
   47.4340   33.5110   41.8670 F   0  0  0  0  0  0  0  0  0  0  0  0
   47.5650   35.7220   42.1740 F   0  0  0  0  0  0  0  0  0  0  0  0
   45.7280   34.7550   41.1960 F   0  0  0  0  0  0  0  0  0  0  0  0
  1  7  1  6  0  0  0
  1 25  1  0  0  0  0
  1  2  1  0  0  0  0
  2  9  1  0  0  0  0
  2  8  1  0  0  0  0
  3 11  1  0  0  0  0
  3  2  1  0  0  0  0
  3 10  1  0  0  0  0
  4 13  1  0  0  0  0
  4  3  1  0  0  0  0
  5  6  1  0  0  0  0
  5  4  1  0  0  0  0
  6 16  1  6  0  0  0
  6 17  1  0  0  0  0
  6  1  1  0  0  0  0
 12  4  1  0  0  0  0
 14  5  1  0  0  0  0
 15  5  1  0  0  0  0
 17 18  1  0  0  0  0
 17 19  1  0  0  0  0
 20 24  1  0  0  0  0
 20 17  1  0  0  0  0
 21 20  1  0  0  0  0
 22 23  1  0  0  0  0
 22 21  1  0  0  0  0
 23 24  1  0  0  0  0
 25 26  2  0  0  0  0
 27 33  1  0  0  0  0
 27 32  1  0  0  0  0
 28 27  2  0  0  0  0
 29 28  1  0  0  0  0
 29 30  2  0  0  0  0
 30 31  1  0  0  0  0
 31 32  2  0  0  0  0
 31 25  1  0  0  0  0
 34 28  1  0  0  0  0
 35 37  1  0  0  0  0
 35 29  1  0  0  0  0
 36 35  1  0  0  0  0
 38 35  1  0  0  0  0
M  END
>  <minimizedAffinity>
-5.27326775

>  <minimizedRMSD>
0.967240214

$$$$
