
 OpenBabel03252503353D

 18 19  0  0  0  0  0  0  0  0999 V2000
   44.5330   36.0620   44.5590 C   0  0  0  0  0  0  0  0  0  0  0  0
   45.2200   35.9260   43.3460 C   0  0  0  0  0  0  0  0  0  0  0  0
   46.0740   34.8400   43.1670 C   0  0  0  0  0  0  0  0  0  0  0  0
   46.2180   33.9370   44.1790 N   0  0  0  0  0  0  0  0  0  0  0  0
   45.5290   34.1050   45.3460 C   0  0  0  0  0  0  0  0  0  0  0  0
   44.6990   35.1570   45.5270 N   0  0  0  0  0  0  0  0  0  0  0  0
   43.9140   36.9420   44.5540 H   0  0  0  0  0  0  0  0  0  0  0  0
   45.1790   36.5800   42.4870 H   0  0  0  0  0  0  0  0  0  0  0  0
   45.6110   33.4160   46.1730 H   0  0  0  0  0  0  0  0  0  0  0  0
   46.2570   33.9240   40.8640 C   0  0  0  0  0  0  0  0  0  0  0  0
   45.0910   33.4430   41.0850 O   0  0  0  0  0  0  0  0  0  0  0  0
   46.8060   34.6360   41.9630 N   0  0  0  0  0  0  0  0  0  0  0  0
   47.7800   35.0620   41.9740 H   0  0  0  0  0  0  0  0  0  0  0  0
   47.0480   33.8200   39.6450 C   0  0  0  0  0  3  0  0  0  0  0  0
   46.3440   33.1670   38.4760 C   0  0  0  0  0  2  0  0  0  0  0  0
   47.5030   33.1510   37.4690 C   0  0  0  0  0  2  0  0  0  0  0  0
   48.7620   32.9420   38.3090 C   0  0  0  0  0  2  0  0  0  0  0  0
   48.2610   32.9330   39.7590 C   0  0  0  0  0  2  0  0  0  0  0  0
  1  6  1  0  0  0  0
  2  1  2  0  0  0  0
  3  2  1  0  0  0  0
  3  4  2  0  0  0  0
  4  5  1  0  0  0  0
  5  6  2  0  0  0  0
  5  9  1  0  0  0  0
  7  1  1  0  0  0  0
  8  2  1  0  0  0  0
 10 11  2  0  0  0  0
 10 12  1  0  0  0  0
 12 13  1  0  0  0  0
 12  3  1  0  0  0  0
 14 18  1  0  0  0  0
 14 10  1  0  0  0  0
 15 14  1  0  0  0  0
 16 17  1  0  0  0  0
 16 15  1  0  0  0  0
 17 18  1  0  0  0  0
M  END
>  <minimizedAffinity>
-3.9721818

>  <minimizedRMSD>
0.420465708

$$$$
