
 OpenBabel03252503363D

 38 41  0  0  1  0  0  0  0  0999 V2000
   45.7680   32.7600   39.6110 C   0  0  0  0  0  0  0  0  0  0  0  0
   46.8100   33.4860   40.0180 C   0  0  0  0  0  0  0  0  0  0  0  0
   46.7570   34.1740   41.2550 N   0  0  0  0  0  0  0  0  0  0  0  0
   47.4080   34.6330   42.4260 C   0  0  0  0  0  0  0  0  0  0  0  0
   48.6060   34.6430   42.8490 O   0  0  0  0  0  0  0  0  0  0  0  0
   46.2040   35.1370   43.0660 C   0  0  1  0  0  0  0  0  0  0  0  0
   45.5400   34.7800   41.7570 C   0  0  2  0  0  0  0  0  0  0  0  0
   44.2950   33.4890   41.8300 S   0  0  0  0  0  0  0  0  0  0  0  0
   44.4710   32.5450   40.3180 C   0  0  0  0  0  0  0  0  0  0  0  0
   46.1570   36.2440   43.2340 H   0  0  0  0  0  0  0  0  0  0  0  0
   45.2530   35.6820   41.1650 H   0  0  0  0  0  0  0  0  0  0  0  0
   44.3870   31.4660   40.5720 H   0  0  0  0  0  0  0  0  0  0  0  0
   43.6180   32.8060   39.6410 H   0  0  0  0  0  0  0  0  0  0  0  0
   45.8130   34.3720   44.2390 C   0  0  0  0  0  0  0  0  0  0  0  0
   44.8690   34.4670   45.0420 O   0  0  0  0  0  0  0  0  0  0  0  0
   46.7010   33.2710   44.5300 N   0  0  0  0  0  0  0  0  0  0  0  0
   47.5640   32.8950   44.0750 H   0  0  0  0  0  0  0  0  0  0  0  0
   46.6740   31.9030   47.9790 C   0  0  0  0  0  0  0  0  0  0  0  0
   46.8810   32.7830   46.9160 C   0  0  0  0  0  0  0  0  0  0  0  0
   46.4890   32.4230   45.6430 C   0  0  0  0  0  0  0  0  0  0  0  0
   45.9130   31.2230   45.4630 N   0  0  0  0  0  0  0  0  0  0  0  0
   45.7150   30.3700   46.5120 C   0  0  0  0  0  0  0  0  0  0  0  0
   46.0970   30.7260   47.7460 N   0  0  0  0  0  0  0  0  0  0  0  0
   46.9760   32.1680   48.9930 H   0  0  0  0  0  0  0  0  0  0  0  0
   47.3470   33.7470   47.0760 H   0  0  0  0  0  0  0  0  0  0  0  0
   45.2380   29.4450   46.1980 H   0  0  0  0  0  0  0  0  0  0  0  0
   45.9440   32.0960   38.2970 C   0  0  0  0  0  0  0  0  0  0  0  0
   46.0430   32.8060   37.4510 H   0  0  0  0  0  0  0  0  0  0  0  0
   46.9240   31.5410   38.3770 H   0  0  0  0  0  0  0  0  0  0  0  0
   45.1820   31.2980   38.1010 H   0  0  0  0  0  0  0  0  0  0  0  0
   48.0190   33.5970   39.2220 C   0  0  0  0  0  0  0  0  0  0  0  0
   48.2790   34.6210   38.5270 O   0  0  0  0  0  0  0  0  0  0  0  0
   49.0890   32.7700   39.0020 O   0  0  0  0  0  0  0  0  0  0  0  0
   49.5430   31.7380   39.7960 C   0  0  0  0  0  0  0  0  0  0  0  0
   50.6600   30.9320   39.1860 C   0  0  0  0  0  0  0  0  0  0  0  0
   51.0500   30.0490   40.3560 C   0  0  0  0  0  0  0  0  0  0  0  0
   50.7130   30.8510   41.6060 C   0  0  0  0  0  0  0  0  0  0  0  0
   50.2190   32.1980   41.0760 C   0  0  0  0  0  0  0  0  0  0  0  0
  1  2  2  0  0  0  0
  1  9  1  0  0  0  0
  2  3  1  0  0  0  0
  3  7  1  0  0  0  0
  3  4  1  0  0  0  0
  4  5  2  0  0  0  0
  4  6  1  0  0  0  0
  6 10  1  1  0  0  0
  6 14  1  0  0  0  0
  7 11  1  6  0  0  0
  7  8  1  0  0  0  0
  7  6  1  0  0  0  0
  9 12  1  0  0  0  0
  9  8  1  0  0  0  0
 13  9  1  0  0  0  0
 14 16  1  0  0  0  0
 14 15  2  0  0  0  0
 16 20  1  0  0  0  0
 17 16  1  0  0  0  0
 18 24  1  0  0  0  0
 19 25  1  0  0  0  0
 19 18  2  0  0  0  0
 20 19  1  0  0  0  0
 21 20  2  0  0  0  0
 21 22  1  0  0  0  0
 22 23  2  0  0  0  0
 23 18  1  0  0  0  0
 26 22  1  0  0  0  0
 27 29  1  0  0  0  0
 27  1  1  0  0  0  0
 28 27  1  0  0  0  0
 30 27  1  0  0  0  0
 31  2  1  0  0  0  0
 32 31  2  0  0  0  0
 33 31  1  0  0  0  0
 33 34  1  0  0  0  0
 34 38  1  0  0  0  0
 35 34  1  0  0  0  0
 35 36  1  0  0  0  0
 36 37  1  0  0  0  0
 38 37  1  0  0  0  0
M  END
>  <minimizedAffinity>
-5.09318018

>  <minimizedRMSD>
4.00146914

$$$$
