
 OpenBabel03242518543D

 38 40  0  0  1  0  0  0  0  0999 V2000
   45.8170   31.3240   46.5200 C   0  0  2  0  0  0  0  0  0  0  0  0
   45.6720   30.6230   47.8330 C   0  0  0  0  0  0  0  0  0  0  0  0
   45.0070   29.3210   47.5640 C   0  0  0  0  0  0  0  0  0  0  0  0
   44.5840   29.0900   46.1520 C   0  0  0  0  0  0  0  0  0  0  0  0
   45.7550   29.2580   45.2230 C   0  0  0  0  0  0  0  0  0  0  0  0
   46.5680   30.4170   45.5630 C   0  0  2  0  0  0  0  0  0  0  0  0
   44.8140   31.4280   46.0570 H   0  0  0  0  0  0  0  0  0  0  0  0
   45.0340   31.2980   48.4700 H   0  0  0  0  0  0  0  0  0  0  0  0
   46.6220   30.5340   48.4000 H   0  0  0  0  0  0  0  0  0  0  0  0
   44.0460   29.3120   48.1610 H   0  0  0  0  0  0  0  0  0  0  0  0
   45.5450   28.4250   47.9690 H   0  0  0  0  0  0  0  0  0  0  0  0
   44.2230   28.0380   46.0960 H   0  0  0  0  0  0  0  0  0  0  0  0
   43.7070   29.7070   45.8670 H   0  0  0  0  0  0  0  0  0  0  0  0
   45.2910   29.4360   44.2070 H   0  0  0  0  0  0  0  0  0  0  0  0
   46.2480   28.2740   45.1290 H   0  0  0  0  0  0  0  0  0  0  0  0
   46.8540   31.0440   44.7070 H   0  0  0  0  0  0  0  0  0  0  0  0
   47.7980   29.8850   46.2130 C   0  0  0  0  0  0  0  0  0  0  0  0
   47.6330   29.4790   47.2380 H   0  0  0  0  0  0  0  0  0  0  0  0
   48.5070   30.7270   46.3500 H   0  0  0  0  0  0  0  0  0  0  0  0
   48.5110   28.7980   45.4650 C   0  0  0  0  0  3  0  0  0  0  0  0
   49.6190   29.3090   44.5770 C   0  0  0  0  0  2  0  0  0  0  0  0
   50.1710   27.9570   44.1160 C   0  0  0  0  0  2  0  0  0  0  0  0
   50.3180   27.2610   45.4580 C   0  0  0  0  0  2  0  0  0  0  0  0
   49.3670   27.9440   46.4080 C   0  0  0  0  0  2  0  0  0  0  0  0
   46.4210   32.6760   46.6160 C   0  0  0  0  0  0  0  0  0  0  0  0
   47.2560   32.9940   47.4930 O   0  0  0  0  0  0  0  0  0  0  0  0
   44.6100   35.4050   44.9940 C   0  0  0  0  0  0  0  0  0  0  0  0
   45.1900   35.4910   43.7000 C   0  0  0  0  0  0  0  0  0  0  0  0
   46.2070   34.5950   43.4230 C   0  0  0  0  0  0  0  0  0  0  0  0
   46.5160   33.7590   44.4150 N   0  0  0  0  0  0  0  0  0  0  0  0
   45.9890   33.6670   45.6150 C   0  0  0  0  0  0  0  0  0  0  0  0
   45.0000   34.5250   45.9090 N   0  0  0  0  0  0  0  0  0  0  0  0
   43.7980   36.1100   45.2350 H   0  0  0  0  0  0  0  0  0  0  0  0
   44.8360   36.2260   42.9890 H   0  0  0  0  0  0  0  0  0  0  0  0
   46.7970   34.6740   42.0990 C   0  0  0  0  0  0  0  0  0  0  0  0
   47.5350   33.5210   41.8480 F   0  0  0  0  0  0  0  0  0  0  0  0
   47.6370   35.7400   42.1000 F   0  0  0  0  0  0  0  0  0  0  0  0
   45.8400   34.7300   41.0930 F   0  0  0  0  0  0  0  0  0  0  0  0
  1  7  1  6  0  0  0
  1 25  1  0  0  0  0
  1  2  1  0  0  0  0
  2  9  1  0  0  0  0
  2  8  1  0  0  0  0
  3  2  1  0  0  0  0
  3 11  1  0  0  0  0
  3 10  1  0  0  0  0
  4  3  1  0  0  0  0
  5  6  1  0  0  0  0
  5  4  1  0  0  0  0
  6 16  1  6  0  0  0
  6 17  1  0  0  0  0
  6  1  1  0  0  0  0
 12  4  1  0  0  0  0
 13  4  1  0  0  0  0
 14  5  1  0  0  0  0
 15  5  1  0  0  0  0
 17 19  1  0  0  0  0
 17 18  1  0  0  0  0
 20 17  1  0  0  0  0
 20 24  1  0  0  0  0
 21 20  1  0  0  0  0
 22 21  1  0  0  0  0
 22 23  1  0  0  0  0
 23 24  1  0  0  0  0
 25 26  2  0  0  0  0
 27 33  1  0  0  0  0
 27 32  1  0  0  0  0
 28 27  2  0  0  0  0
 29 28  1  0  0  0  0
 29 30  2  0  0  0  0
 30 31  1  0  0  0  0
 31 32  2  0  0  0  0
 31 25  1  0  0  0  0
 34 28  1  0  0  0  0
 35 37  1  0  0  0  0
 35 29  1  0  0  0  0
 36 35  1  0  0  0  0
 38 35  1  0  0  0  0
M  END
>  <minimizedAffinity>
-5.05997896

>  <minimizedRMSD>
0.261429101

$$$$
