
 OpenBabel03242519413D

 25 27  0  0  1  0  0  0  0  0999 V2000
   47.9900   32.8920   41.6830 O   0  0  0  0  0  0  0  0  0  0  0  0
   47.1460   34.1060   41.2700 P   0  0  2  0  0  0  0  0  0  0  0  0
   45.5570   33.9090   41.8760 O   0  0  0  0  0  0  0  0  0  0  0  0
   44.3980   35.9200   44.6850 C   0  0  0  0  0  0  0  0  0  0  0  0
   44.6710   35.5070   43.3610 C   0  0  0  0  0  0  0  0  0  0  0  0
   45.3070   34.2760   43.1800 C   0  0  0  0  0  0  0  0  0  0  0  0
   45.6280   33.5420   44.2690 N   0  0  0  0  0  0  0  0  0  0  0  0
   45.3560   33.9620   45.5260 C   0  0  0  0  0  0  0  0  0  0  0  0
   44.7490   35.1320   45.7460 N   0  0  0  0  0  0  0  0  0  0  0  0
   43.9070   36.8680   44.8440 H   0  0  0  0  0  0  0  0  0  0  0  0
   44.3550   36.2000   42.5810 H   0  0  0  0  0  0  0  0  0  0  0  0
   45.6820   33.2510   46.2630 H   0  0  0  0  0  0  0  0  0  0  0  0
   47.0900   34.1950   39.6100 O   0  0  0  0  0  0  0  0  0  0  0  0
   46.7700   33.2210   38.7030 C   0  0  1  0  0  3  0  0  0  0  0  0
   46.9300   33.4910   37.4150 O   0  0  0  0  0  0  0  0  0  0  0  0
   46.3170   31.9300   38.1810 C   0  0  0  0  0  0  0  0  0  0  0  0
   46.3510   30.8260   39.2110 C   0  0  0  0  0  2  0  0  0  0  0  0
   45.0590   30.9960   39.9580 C   0  0  0  0  0  2  0  0  0  0  0  0
   44.2220   31.9630   39.2090 C   0  0  0  0  0  2  0  0  0  0  0  0
   44.8190   32.0510   37.8490 C   0  0  0  0  0  2  0  0  0  0  0  0
   47.8220   35.4350   41.9760 O   0  0  0  0  0  0  0  0  0  0  0  0
   49.0570   35.7660   41.4430 C   0  0  0  0  0  0  0  0  0  0  0  0
   49.4670   37.0500   41.7860 F   0  0  0  0  0  0  0  0  0  0  0  0
   49.9780   34.8230   41.7710 F   0  0  0  0  0  0  0  0  0  0  0  0
   48.8970   35.7780   40.0660 F   0  0  0  0  0  0  0  0  0  0  0  0
  2  1  2  1  0  0  0
  2  3  1  0  0  0  0
  2 21  1  0  0  0  0
  3  6  1  0  0  0  0
  4 10  1  0  0  0  0
  4  9  1  0  0  0  0
  5  4  2  0  0  0  0
  6  5  1  0  0  0  0
  6  7  2  0  0  0  0
  7  8  1  0  0  0  0
  8  9  2  0  0  0  0
  8 12  1  0  0  0  0
 11  5  1  0  0  0  0
 13  2  1  0  0  0  0
 14 13  1  1  0  0  0
 15 16  1  0  0  0  0
 15 14  1  0  0  0  0
 16 14  1  0  0  0  0
 16 17  1  0  0  0  0
 17 18  1  0  0  0  0
 19 18  1  0  0  0  0
 20 16  1  0  0  0  0
 20 19  1  0  0  0  0
 22 24  1  0  0  0  0
 22 23  1  0  0  0  0
 22 21  1  0  0  0  0
 25 22  1  0  0  0  0
M  END
>  <minimizedAffinity>
-4.85170174

>  <minimizedRMSD>
0.885873437

$$$$
