
 OpenBabel03242517363D

 19 20  0  0  0  0  0  0  0  0999 V2000
   39.0870   30.1910   41.5690 C   0  0  0  0  0  3  0  0  0  0  0  0
   38.2940   29.7250   42.5070 C   0  0  0  0  0  3  0  0  0  0  0  0
   38.0040   32.2530   40.6130 C   0  0  0  0  0  0  0  0  0  0  0  0
   39.1250   31.5520   41.0680 C   0  0  0  0  0  0  0  0  0  0  0  0
   40.3470   32.2000   41.0370 C   0  0  0  0  0  0  0  0  0  0  0  0
   40.4210   33.4900   40.5690 N   0  0  0  0  0  0  0  0  0  0  0  0
   39.3000   34.1300   40.1370 C   0  0  0  0  0  0  0  0  0  0  0  0
   38.1130   33.5080   40.1650 N   0  0  0  0  0  0  0  0  0  0  0  0
   37.0560   31.7410   40.6410 H   0  0  0  0  0  0  0  0  0  0  0  0
   41.2690   31.7200   41.3750 H   0  0  0  0  0  0  0  0  0  0  0  0
   39.3780   35.1410   39.7740 H   0  0  0  0  0  0  0  0  0  0  0  0
   38.3080   28.3070   42.9770 C   0  0  0  0  0  0  0  0  0  0  0  0
   38.9510   27.7510   42.2430 H   0  0  0  0  0  0  0  0  0  0  0  0
   38.7630   28.2290   43.9640 H   0  0  0  0  0  0  0  0  0  0  0  0
   36.9390   27.6790   42.8650 C   0  0  0  0  0  3  0  0  0  0  0  0
   36.2740   28.2280   41.6400 C   0  0  0  0  0  2  0  0  0  0  0  0
   36.6650   27.3330   40.5100 C   0  0  0  0  0  2  0  0  0  0  0  0
   37.4140   26.1630   41.1250 C   0  0  0  0  0  2  0  0  0  0  0  0
   37.0200   26.2000   42.5860 C   0  0  0  0  0  2  0  0  0  0  0  0
  1  2  2  0  0  0  0
  2 12  1  0  0  0  0
  3  9  1  0  0  0  0
  3  4  1  0  0  0  0
  4  1  1  0  0  0  0
  5  4  2  0  0  0  0
  5 10  1  0  0  0  0
  6  5  1  0  0  0  0
  7  8  1  0  0  0  0
  7  6  2  0  0  0  0
  8  3  2  0  0  0  0
 11  7  1  0  0  0  0
 12 14  1  0  0  0  0
 13 12  1  0  0  0  0
 15 12  1  0  0  0  0
 16 15  1  0  0  0  0
 17 18  1  0  0  0  0
 17 16  1  0  0  0  0
 18 19  1  0  0  0  0
 19 15  1  0  0  0  0
M  END
>  <minimizedAffinity>
-4.18260765

$$$$

 OpenBabel03242517363D

 19 20  0  0  0  0  0  0  0  0999 V2000
   36.9730   29.0650   41.5080 C   0  0  0  0  0  3  0  0  0  0  0  0
   37.4820   28.1760   42.3310 C   0  0  0  0  0  3  0  0  0  0  0  0
   36.8070   31.3840   40.5400 C   0  0  0  0  0  0  0  0  0  0  0  0
   37.5050   30.3860   41.2270 C   0  0  0  0  0  0  0  0  0  0  0  0
   38.7840   30.6780   41.6660 C   0  0  0  0  0  0  0  0  0  0  0  0
   39.3200   31.9200   41.4180 N   0  0  0  0  0  0  0  0  0  0  0  0
   38.6010   32.8580   40.7450 C   0  0  0  0  0  0  0  0  0  0  0  0
   37.3600   32.5810   40.3170 N   0  0  0  0  0  0  0  0  0  0  0  0
   35.8120   31.1480   40.2020 H   0  0  0  0  0  0  0  0  0  0  0  0
   39.3930   29.9520   42.2110 H   0  0  0  0  0  0  0  0  0  0  0  0
   39.0370   33.8240   40.5600 H   0  0  0  0  0  0  0  0  0  0  0  0
   36.8810   26.8310   42.5740 C   0  0  0  0  0  0  0  0  0  0  0  0
   36.7770   26.7410   43.6890 H   0  0  0  0  0  0  0  0  0  0  0  0
   35.8890   26.7620   42.1280 H   0  0  0  0  0  0  0  0  0  0  0  0
   37.8290   25.7260   42.1720 C   0  0  0  0  0  3  0  0  0  0  0  0
   37.0750   24.4310   42.2030 C   0  0  0  0  0  2  0  0  0  0  0  0
   36.4670   24.2640   40.8490 C   0  0  0  0  0  2  0  0  0  0  0  0
   37.0250   25.3820   39.9840 C   0  0  0  0  0  2  0  0  0  0  0  0
   38.2560   25.8470   40.7320 C   0  0  0  0  0  2  0  0  0  0  0  0
  1  2  2  0  0  0  0
  2 12  1  0  0  0  0
  3  4  1  0  0  0  0
  4  1  1  0  0  0  0
  4  5  2  0  0  0  0
  5 10  1  0  0  0  0
  6  5  1  0  0  0  0
  7  6  2  0  0  0  0
  8  3  2  0  0  0  0
  8  7  1  0  0  0  0
  9  3  1  0  0  0  0
 11  7  1  0  0  0  0
 12 13  1  0  0  0  0
 14 12  1  0  0  0  0
 15 16  1  0  0  0  0
 15 12  1  0  0  0  0
 17 16  1  0  0  0  0
 18 19  1  0  0  0  0
 18 17  1  0  0  0  0
 19 15  1  0  0  0  0
M  END
>  <minimizedAffinity>
-4.11180973

$$$$

 OpenBabel03242517363D

 19 20  0  0  0  0  0  0  0  0999 V2000
   38.7070   30.8520   40.8520 C   0  0  0  0  0  3  0  0  0  0  0  0
   38.3350   30.3480   42.0070 C   0  0  0  0  0  3  0  0  0  0  0  0
   39.4510   33.2430   40.5890 C   0  0  0  0  0  0  0  0  0  0  0  0
   39.7190   31.8720   40.6400 C   0  0  0  0  0  0  0  0  0  0  0  0
   41.0300   31.4630   40.4780 C   0  0  0  0  0  0  0  0  0  0  0  0
   42.0140   32.4010   40.2750 N   0  0  0  0  0  0  0  0  0  0  0  0
   41.7040   33.7250   40.2340 C   0  0  0  0  0  0  0  0  0  0  0  0
   40.4340   34.1280   40.3910 N   0  0  0  0  0  0  0  0  0  0  0  0
   38.4270   33.5530   40.7160 H   0  0  0  0  0  0  0  0  0  0  0  0
   41.3190   30.4090   40.5050 H   0  0  0  0  0  0  0  0  0  0  0  0
   42.4880   34.4450   40.0750 H   0  0  0  0  0  0  0  0  0  0  0  0
   37.2840   29.2970   42.1530 C   0  0  0  0  0  0  0  0  0  0  0  0
   36.3270   29.8510   42.3530 H   0  0  0  0  0  0  0  0  0  0  0  0
   37.1700   28.7310   41.2300 H   0  0  0  0  0  0  0  0  0  0  0  0
   37.5210   28.4530   43.3830 C   0  0  0  0  0  3  0  0  0  0  0  0
   36.5030   27.3540   43.3960 C   0  0  0  0  0  2  0  0  0  0  0  0
   37.0960   26.2200   42.6270 C   0  0  0  0  0  2  0  0  0  0  0  0
   38.5340   26.6080   42.3260 C   0  0  0  0  0  2  0  0  0  0  0  0
   38.8320   27.7140   43.3150 C   0  0  0  0  0  2  0  0  0  0  0  0
  1  2  2  0  0  0  0
  2 12  1  0  0  0  0
  3  4  1  0  0  0  0
  3  9  1  0  0  0  0
  4  1  1  0  0  0  0
  5 10  1  0  0  0  0
  5  4  2  0  0  0  0
  6  5  1  0  0  0  0
  7  6  2  0  0  0  0
  7  8  1  0  0  0  0
  8  3  2  0  0  0  0
 11  7  1  0  0  0  0
 12 13  1  0  0  0  0
 12 15  1  0  0  0  0
 14 12  1  0  0  0  0
 15 16  1  0  0  0  0
 17 16  1  0  0  0  0
 18 17  1  0  0  0  0
 18 19  1  0  0  0  0
 19 15  1  0  0  0  0
M  END
>  <minimizedAffinity>
-3.98220563

$$$$

 OpenBabel03242517363D

 19 20  0  0  0  0  0  0  0  0999 V2000
   35.9620   28.7700   38.6120 C   0  0  0  0  0  3  0  0  0  0  0  0
   35.3840   29.3480   39.6420 C   0  0  0  0  0  3  0  0  0  0  0  0
   36.7140   29.7260   36.4080 C   0  0  0  0  0  0  0  0  0  0  0  0
   35.7590   29.0970   37.2130 C   0  0  0  0  0  0  0  0  0  0  0  0
   34.5460   28.7660   36.6370 C   0  0  0  0  0  0  0  0  0  0  0  0
   34.3190   29.0610   35.3130 N   0  0  0  0  0  0  0  0  0  0  0  0
   35.2810   29.6750   34.5710 C   0  0  0  0  0  0  0  0  0  0  0  0
   36.4590   29.9970   35.1230 N   0  0  0  0  0  0  0  0  0  0  0  0
   37.6570   29.9800   36.8640 H   0  0  0  0  0  0  0  0  0  0  0  0
   33.7490   28.2730   37.2000 H   0  0  0  0  0  0  0  0  0  0  0  0
   35.0850   29.8970   33.5360 H   0  0  0  0  0  0  0  0  0  0  0  0
   35.6390   28.9610   41.0610 C   0  0  0  0  0  0  0  0  0  0  0  0
   35.6390   29.9220   41.6420 H   0  0  0  0  0  0  0  0  0  0  0  0
   34.8380   28.3280   41.4420 H   0  0  0  0  0  0  0  0  0  0  0  0
   37.0260   28.3900   41.2330 C   0  0  0  0  0  3  0  0  0  0  0  0
   37.7340   29.1940   42.2820 C   0  0  0  0  0  2  0  0  0  0  0  0
   37.4170   28.5510   43.5920 C   0  0  0  0  0  2  0  0  0  0  0  0
   36.6700   27.2670   43.2730 C   0  0  0  0  0  2  0  0  0  0  0  0
   36.9950   27.0010   41.8180 C   0  0  0  0  0  2  0  0  0  0  0  0
  1  2  2  0  0  0  0
  2 12  1  0  0  0  0
  3  9  1  0  0  0  0
  3  4  1  0  0  0  0
  4  1  1  0  0  0  0
  5 10  1  0  0  0  0
  5  4  2  0  0  0  0
  6  5  1  0  0  0  0
  7  8  1  0  0  0  0
  7  6  2  0  0  0  0
  8  3  2  0  0  0  0
 11  7  1  0  0  0  0
 12 15  1  0  0  0  0
 12 14  1  0  0  0  0
 12 13  1  0  0  0  0
 15 19  1  0  0  0  0
 15 16  1  0  0  0  0
 16 17  1  0  0  0  0
 18 17  1  0  0  0  0
 19 18  1  0  0  0  0
M  END
>  <minimizedAffinity>
-3.94527268

$$$$

 OpenBabel03242517363D

 19 20  0  0  0  0  0  0  0  0999 V2000
   39.1710   29.7750   40.8640 C   0  0  0  0  0  3  0  0  0  0  0  0
   39.5310   29.4230   42.0780 C   0  0  0  0  0  3  0  0  0  0  0  0
   37.5300   31.1740   39.5650 C   0  0  0  0  0  0  0  0  0  0  0  0
   38.5880   31.0440   40.4690 C   0  0  0  0  0  0  0  0  0  0  0  0
   39.1130   32.1990   41.0210 C   0  0  0  0  0  0  0  0  0  0  0  0
   38.5860   33.4200   40.6700 N   0  0  0  0  0  0  0  0  0  0  0  0
   37.5540   33.4950   39.7850 C   0  0  0  0  0  0  0  0  0  0  0  0
   37.0410   32.3780   39.2470 N   0  0  0  0  0  0  0  0  0  0  0  0
   37.1270   30.2700   39.1400 H   0  0  0  0  0  0  0  0  0  0  0  0
   39.9400   32.1800   41.7340 H   0  0  0  0  0  0  0  0  0  0  0  0
   37.1550   34.4590   39.5230 H   0  0  0  0  0  0  0  0  0  0  0  0
   40.1270   28.0960   42.4150 C   0  0  0  0  0  0  0  0  0  0  0  0
   39.9270   27.4390   41.5260 H   0  0  0  0  0  0  0  0  0  0  0  0
   41.2050   28.1770   42.5490 H   0  0  0  0  0  0  0  0  0  0  0  0
   39.3980   27.4430   43.5650 C   0  0  0  0  0  3  0  0  0  0  0  0
   37.9330   27.4480   43.2500 C   0  0  0  0  0  2  0  0  0  0  0  0
   37.6590   26.1890   42.4950 C   0  0  0  0  0  2  0  0  0  0  0  0
   38.9410   25.3750   42.5340 C   0  0  0  0  0  2  0  0  0  0  0  0
   39.7260   25.9770   43.6800 C   0  0  0  0  0  2  0  0  0  0  0  0
  1  2  2  0  0  0  0
  2 12  1  0  0  0  0
  3  4  1  0  0  0  0
  4  1  1  0  0  0  0
  4  5  2  0  0  0  0
  5 10  1  0  0  0  0
  6  5  1  0  0  0  0
  7  6  2  0  0  0  0
  8  3  2  0  0  0  0
  8  7  1  0  0  0  0
  9  3  1  0  0  0  0
 11  7  1  0  0  0  0
 12 14  1  0  0  0  0
 12 15  1  0  0  0  0
 13 12  1  0  0  0  0
 15 19  1  0  0  0  0
 16 15  1  0  0  0  0
 17 18  1  0  0  0  0
 17 16  1  0  0  0  0
 18 19  1  0  0  0  0
M  END
>  <minimizedAffinity>
-3.92006564

$$$$

 OpenBabel03242517363D

 19 20  0  0  0  0  0  0  0  0999 V2000
   36.7520   28.3820   40.3830 C   0  0  0  0  0  3  0  0  0  0  0  0
   36.6600   29.3570   41.2600 C   0  0  0  0  0  3  0  0  0  0  0  0
   36.5550   25.9590   39.7290 C   0  0  0  0  0  0  0  0  0  0  0  0
   36.7960   26.9610   40.6740 C   0  0  0  0  0  0  0  0  0  0  0  0
   37.0930   26.5710   41.9680 C   0  0  0  0  0  0  0  0  0  0  0  0
   37.1430   25.2320   42.2790 N   0  0  0  0  0  0  0  0  0  0  0  0
   36.9020   24.2940   41.3230 C   0  0  0  0  0  0  0  0  0  0  0  0
   36.6130   24.6660   40.0680 N   0  0  0  0  0  0  0  0  0  0  0  0
   36.3250   26.2710   38.7240 H   0  0  0  0  0  0  0  0  0  0  0  0
   37.2930   27.2940   42.7620 H   0  0  0  0  0  0  0  0  0  0  0  0
   36.9460   23.2520   41.5860 H   0  0  0  0  0  0  0  0  0  0  0  0
   36.6200   30.8030   40.8910 C   0  0  0  0  0  0  0  0  0  0  0  0
   35.6270   30.9600   40.3890 H   0  0  0  0  0  0  0  0  0  0  0  0
   36.6600   31.4330   41.7800 H   0  0  0  0  0  0  0  0  0  0  0  0
   37.6540   31.1310   39.8410 C   0  0  0  0  0  3  0  0  0  0  0  0
   37.1050   32.2200   38.9700 C   0  0  0  0  0  2  0  0  0  0  0  0
   37.4950   33.5110   39.6120 C   0  0  0  0  0  2  0  0  0  0  0  0
   38.4250   33.1590   40.7600 C   0  0  0  0  0  2  0  0  0  0  0  0
   38.8890   31.7530   40.4420 C   0  0  0  0  0  2  0  0  0  0  0  0
  1  4  1  0  0  0  0
  1  2  2  0  0  0  0
  3  8  2  0  0  0  0
  3  4  1  0  0  0  0
  4  5  2  0  0  0  0
  5  6  1  0  0  0  0
  5 10  1  0  0  0  0
  7 11  1  0  0  0  0
  7  6  2  0  0  0  0
  8  7  1  0  0  0  0
  9  3  1  0  0  0  0
 12  2  1  0  0  0  0
 12 14  1  0  0  0  0
 13 12  1  0  0  0  0
 15 19  1  0  0  0  0
 15 12  1  0  0  0  0
 16 17  1  0  0  0  0
 16 15  1  0  0  0  0
 17 18  1  0  0  0  0
 19 18  1  0  0  0  0
M  END
>  <minimizedAffinity>
-3.88315511

$$$$

 OpenBabel03242517363D

 19 20  0  0  0  0  0  0  0  0999 V2000
   37.9500   29.6200   41.5690 C   0  0  0  0  0  3  0  0  0  0  0  0
   37.0210   28.7880   41.1560 C   0  0  0  0  0  3  0  0  0  0  0  0
   39.2990   31.7370   41.3720 C   0  0  0  0  0  0  0  0  0  0  0  0
   38.1440   30.9880   41.1250 C   0  0  0  0  0  0  0  0  0  0  0  0
   37.1230   31.5920   40.4130 C   0  0  0  0  0  0  0  0  0  0  0  0
   37.2720   32.8870   39.9760 N   0  0  0  0  0  0  0  0  0  0  0  0
   38.4160   33.5750   40.2420 C   0  0  0  0  0  0  0  0  0  0  0  0
   39.4090   32.9950   40.9310 N   0  0  0  0  0  0  0  0  0  0  0  0
   40.0890   31.2600   41.9270 H   0  0  0  0  0  0  0  0  0  0  0  0
   36.1900   31.0720   40.1800 H   0  0  0  0  0  0  0  0  0  0  0  0
   38.5140   34.5870   39.8910 H   0  0  0  0  0  0  0  0  0  0  0  0
   36.8770   27.3890   41.6570 C   0  0  0  0  0  0  0  0  0  0  0  0
   37.3990   27.3680   42.6520 H   0  0  0  0  0  0  0  0  0  0  0  0
   35.8290   27.1370   41.8130 H   0  0  0  0  0  0  0  0  0  0  0  0
   37.6350   26.4140   40.7880 C   0  0  0  0  0  3  0  0  0  0  0  0
   38.7810   25.8720   41.5870 C   0  0  0  0  0  2  0  0  0  0  0  0
   38.2630   24.6700   42.3060 C   0  0  0  0  0  2  0  0  0  0  0  0
   36.8610   24.4210   41.7760 C   0  0  0  0  0  2  0  0  0  0  0  0
   36.8180   25.1880   40.4720 C   0  0  0  0  0  2  0  0  0  0  0  0
  2  1  2  0  0  0  0
  2 12  1  0  0  0  0
  3  9  1  0  0  0  0
  4  3  1  0  0  0  0
  4  1  1  0  0  0  0
  5  4  2  0  0  0  0
  6  7  2  0  0  0  0
  6  5  1  0  0  0  0
  7  8  1  0  0  0  0
  8  3  2  0  0  0  0
 10  5  1  0  0  0  0
 11  7  1  0  0  0  0
 12 14  1  0  0  0  0
 12 13  1  0  0  0  0
 15 16  1  0  0  0  0
 15 12  1  0  0  0  0
 16 17  1  0  0  0  0
 18 17  1  0  0  0  0
 19 15  1  0  0  0  0
 19 18  1  0  0  0  0
M  END
>  <minimizedAffinity>
-3.88073111

$$$$

 OpenBabel03242517363D

 19 20  0  0  0  0  0  0  0  0999 V2000
   37.4910   29.5930   42.0840 C   0  0  0  0  0  3  0  0  0  0  0  0
   37.3130   30.1180   40.8920 C   0  0  0  0  0  3  0  0  0  0  0  0
   39.1680   27.9800   43.0460 C   0  0  0  0  0  0  0  0  0  0  0  0
   37.9720   28.2550   42.3760 C   0  0  0  0  0  0  0  0  0  0  0  0
   37.2000   27.1830   41.9650 C   0  0  0  0  0  0  0  0  0  0  0  0
   37.6240   25.9020   42.2240 N   0  0  0  0  0  0  0  0  0  0  0  0
   38.7960   25.6840   42.8800 C   0  0  0  0  0  0  0  0  0  0  0  0
   39.5490   26.7190   43.2820 N   0  0  0  0  0  0  0  0  0  0  0  0
   39.7630   28.8200   43.3630 H   0  0  0  0  0  0  0  0  0  0  0  0
   36.2530   27.3170   41.4350 H   0  0  0  0  0  0  0  0  0  0  0  0
   39.1120   24.6740   43.0740 H   0  0  0  0  0  0  0  0  0  0  0  0
   36.8140   31.5070   40.6630 C   0  0  0  0  0  0  0  0  0  0  0  0
   35.7260   31.3990   40.4060 H   0  0  0  0  0  0  0  0  0  0  0  0
   36.8970   32.1040   41.5710 H   0  0  0  0  0  0  0  0  0  0  0  0
   37.4530   32.1250   39.4430 C   0  0  0  0  0  3  0  0  0  0  0  0
   37.2470   33.6070   39.5100 C   0  0  0  0  0  2  0  0  0  0  0  0
   38.4050   34.1610   40.2720 C   0  0  0  0  0  2  0  0  0  0  0  0
   39.3710   33.0090   40.4880 C   0  0  0  0  0  2  0  0  0  0  0  0
   38.9540   31.9800   39.4590 C   0  0  0  0  0  2  0  0  0  0  0  0
  1  4  1  0  0  0  0
  2  1  2  0  0  0  0
  3  8  1  0  0  0  0
  3  9  1  0  0  0  0
  4  3  2  0  0  0  0
  5  6  2  0  0  0  0
  5  4  1  0  0  0  0
  6  7  1  0  0  0  0
  7 11  1  0  0  0  0
  7  8  2  0  0  0  0
 10  5  1  0  0  0  0
 12  2  1  0  0  0  0
 12 14  1  0  0  0  0
 13 12  1  0  0  0  0
 15 19  1  0  0  0  0
 15 16  1  0  0  0  0
 15 12  1  0  0  0  0
 16 17  1  0  0  0  0
 17 18  1  0  0  0  0
 19 18  1  0  0  0  0
M  END
>  <minimizedAffinity>
-3.86893034

$$$$

 OpenBabel03242517363D

 19 20  0  0  0  0  0  0  0  0999 V2000
   36.5200   28.9850   40.7640 C   0  0  0  0  0  3  0  0  0  0  0  0
   37.4010   28.1050   41.1880 C   0  0  0  0  0  3  0  0  0  0  0  0
   36.9530   30.2460   38.6280 C   0  0  0  0  0  0  0  0  0  0  0  0
   36.8020   30.1970   40.0180 C   0  0  0  0  0  0  0  0  0  0  0  0
   36.9290   31.3800   40.7230 C   0  0  0  0  0  0  0  0  0  0  0  0
   37.1950   32.5480   40.0490 N   0  0  0  0  0  0  0  0  0  0  0  0
   37.3340   32.5450   38.6960 C   0  0  0  0  0  0  0  0  0  0  0  0
   37.2110   31.4010   38.0060 N   0  0  0  0  0  0  0  0  0  0  0  0
   36.8520   29.3210   38.0860 H   0  0  0  0  0  0  0  0  0  0  0  0
   36.8240   31.4240   41.8110 H   0  0  0  0  0  0  0  0  0  0  0  0
   37.5420   33.4690   38.1850 H   0  0  0  0  0  0  0  0  0  0  0  0
   37.0410   26.8740   41.9530 C   0  0  0  0  0  0  0  0  0  0  0  0
   37.8880   26.7050   42.6710 H   0  0  0  0  0  0  0  0  0  0  0  0
   36.1280   27.0260   42.5270 H   0  0  0  0  0  0  0  0  0  0  0  0
   37.0270   25.6580   41.0590 C   0  0  0  0  0  3  0  0  0  0  0  0
   38.3310   25.6050   40.3230 C   0  0  0  0  0  2  0  0  0  0  0  0
   39.2730   24.8330   41.1870 C   0  0  0  0  0  2  0  0  0  0  0  0
   38.4510   24.2890   42.3430 C   0  0  0  0  0  2  0  0  0  0  0  0
   37.0210   24.3760   41.8520 C   0  0  0  0  0  2  0  0  0  0  0  0
  1  2  2  0  0  0  0
  2 12  1  0  0  0  0
  3  4  1  0  0  0  0
  4  5  2  0  0  0  0
  4  1  1  0  0  0  0
  5 10  1  0  0  0  0
  6  5  1  0  0  0  0
  7  6  2  0  0  0  0
  8  3  2  0  0  0  0
  8  7  1  0  0  0  0
  9  3  1  0  0  0  0
 11  7  1  0  0  0  0
 12 14  1  0  0  0  0
 12 13  1  0  0  0  0
 15 19  1  0  0  0  0
 15 12  1  0  0  0  0
 16 15  1  0  0  0  0
 16 17  1  0  0  0  0
 17 18  1  0  0  0  0
 19 18  1  0  0  0  0
M  END
>  <minimizedAffinity>
-3.84414697

$$$$
