REMARK  Name = 
REMARK  8 active torsions:
REMARK  status: ('A' for Active; 'I' for Inactive)
REMARK    1  A    between atoms: P_2  and  O_3
REMARK    2  A    between atoms: P_2  and  O_4
REMARK    3  A    between atoms: P_2  and  O_12
REMARK    4  A    between atoms: O_4  and  C_5
REMARK    5  A    between atoms: C_5  and  C_8
REMARK    6  A    between atoms: O_12  and  C_13
REMARK    7  A    between atoms: C_17  and  C_18
REMARK    8  A    between atoms: C_18  and  C_35
REMARK                            x       y       z     vdW  Elec       q    Type
REMARK                         _______ _______ _______ _____ _____    ______ ____
ROOT
ATOM      1  C   UNL     1      46.933  34.091  42.286  0.00  0.00    +0.000 C 
ATOM      2  C   UNL     1      46.396  34.252  40.876  0.00  0.00    +0.000 C 
ATOM      3  C   UNL     1      47.342  33.374  40.096  0.00  0.00    +0.000 C 
ATOM      4  C   UNL     1      48.630  33.353  40.873  0.00  0.00    +0.000 C 
ATOM      5  C   UNL     1      48.417  34.292  42.050  0.00  0.00    +0.000 C 
ATOM      6  H   UNL     1      46.737  33.055  42.593  0.00  0.00    +0.000 HD
ATOM      7  H   UNL     1      46.357  35.290  40.557  0.00  0.00    +0.000 HD
ATOM      8  H   UNL     1      45.383  33.791  40.895  0.00  0.00    +0.000 HD
ATOM      9  H   UNL     1      46.927  32.373  39.886  0.00  0.00    +0.000 HD
ATOM     10  H   UNL     1      47.570  33.848  39.117  0.00  0.00    +0.000 HD
ATOM     11  H   UNL     1      49.505  33.630  40.284  0.00  0.00    +0.000 HD
ATOM     12  H   UNL     1      48.745  32.311  41.287  0.00  0.00    +0.000 HD
ATOM     13  H   UNL     1      49.008  33.973  42.935  0.00  0.00    +0.000 HD
ENDROOT
BRANCH   5  14
ATOM     14  C   UNL     1      48.755  35.714  41.706  0.00  0.00    +0.000 C 
ATOM     15  H   UNL     1      48.264  35.952  40.738  0.00  0.00    +0.000 HD
ATOM     16  H   UNL     1      48.375  36.438  42.447  0.00  0.00    +0.000 HD
BRANCH  14  17
ATOM     17  C   UNL     1      50.231  35.926  41.471  0.00  0.00    +0.000 C 
ATOM     18  C   UNL     1      50.752  36.645  42.717  0.00  0.00    +0.000 C 
ATOM     19  C   UNL     1      51.605  35.594  43.428  0.00  0.00    +0.000 C 
ATOM     20  C   UNL     1      52.228  34.917  42.206  0.00  0.00    +0.000 C 
ATOM     21  C   UNL     1      50.994  34.639  41.374  0.00  0.00    +0.000 C 
ENDBRANCH  14  17
ENDBRANCH   5  14
BRANCH   1  22
ATOM     22  O   UNL     1      46.410  35.031  43.162  0.00  0.00    +0.000 OA
BRANCH  22  24
ATOM     23  O   UNL     1      44.678  35.288  45.078  0.00  0.00    +0.000 OA
ATOM     24  P   UNL     1      45.494  34.255  44.337  0.00  0.00    +0.000 P 
BRANCH  24  25
ATOM     25  O   UNL     1      44.531  33.058  43.646  0.00  0.00    +0.000 OA
ATOM     26  H   UNL     1      43.652  33.498  43.429  0.00  0.00    +0.000 HD
ENDBRANCH  24  25
BRANCH  24  27
ATOM     27  O   UNL     1      46.521  33.462  45.405  0.00  0.00    +0.000 OA
BRANCH  27  28
ATOM     28  C   UNL     1      46.204  32.142  45.425  0.00  0.00    +0.000 C 
ATOM     29  H   UNL     1      47.153  31.595  45.139  0.00  0.00    +0.000 HD
ATOM     30  H   UNL     1      45.453  31.771  44.738  0.00  0.00    +0.000 HD
BRANCH  28  33
ATOM     31  C   UNL     1      45.753  32.036  49.114  0.00  0.00    +0.000 A 
ATOM     32  C   UNL     1      46.054  32.525  47.833  0.00  0.00    +0.000 A 
ATOM     33  C   UNL     1      45.893  31.651  46.779  0.00  0.00    +0.000 A 
ATOM     34  N   UNL     1      45.457  30.374  47.026  0.00  0.00    +0.000 NA
ATOM     35  C   UNL     1      45.178  29.937  48.265  0.00  0.00    +0.000 A 
ATOM     36  N   UNL     1      45.327  30.768  49.298  0.00  0.00    +0.000 NA
ATOM     37  H   UNL     1      45.881  32.729  49.945  0.00  0.00    +0.000 HD
ATOM     38  H   UNL     1      46.391  33.549  47.747  0.00  0.00    +0.000 HD
ATOM     39  H   UNL     1      44.837  28.920  48.404  0.00  0.00    +0.000 HD
ENDBRANCH  28  33
ENDBRANCH  27  28
ENDBRANCH  24  27
ENDBRANCH  22  24
ENDBRANCH   1  22
TORSDOF 8
