
 OpenBabel03242518543D

 38 40  0  0  1  0  0  0  0  0999 V2000
   45.7980   31.2830   46.6730 C   0  0  2  0  0  0  0  0  0  0  0  0
   45.6880   30.6230   48.0100 C   0  0  0  0  0  0  0  0  0  0  0  0
   44.9560   29.3440   47.8080 C   0  0  0  0  0  0  0  0  0  0  0  0
   44.4560   29.0970   46.4240 C   0  0  0  0  0  0  0  0  0  0  0  0
   45.5850   29.1910   45.4360 C   0  0  0  0  0  0  0  0  0  0  0  0
   46.4630   30.3220   45.7050 C   0  0  2  0  0  0  0  0  0  0  0  0
   44.7790   31.4190   46.2560 H   0  0  0  0  0  0  0  0  0  0  0  0
   45.1110   31.3400   48.6580 H   0  0  0  0  0  0  0  0  0  0  0  0
   46.6600   30.5060   48.5320 H   0  0  0  0  0  0  0  0  0  0  0  0
   44.0260   29.3920   48.4500 H   0  0  0  0  0  0  0  0  0  0  0  0
   45.4750   28.4360   48.2100 H   0  0  0  0  0  0  0  0  0  0  0  0
   44.0480   28.0610   46.4140 H   0  0  0  0  0  0  0  0  0  0  0  0
   43.5930   29.7440   46.1660 H   0  0  0  0  0  0  0  0  0  0  0  0
   45.0800   29.3630   44.4390 H   0  0  0  0  0  0  0  0  0  0  0  0
   46.0310   28.1840   45.3460 H   0  0  0  0  0  0  0  0  0  0  0  0
   46.7330   30.9130   44.8200 H   0  0  0  0  0  0  0  0  0  0  0  0
   47.6990   29.7520   46.3100 C   0  0  0  0  0  0  0  0  0  0  0  0
   47.5110   28.9840   47.0950 H   0  0  0  0  0  0  0  0  0  0  0  0
   48.2340   30.5710   46.8340 H   0  0  0  0  0  0  0  0  0  0  0  0
   48.6590   29.1140   45.3500 C   0  0  0  0  0  3  0  0  0  0  0  0
   48.9650   29.9740   44.1490 C   0  0  0  0  0  2  0  0  0  0  0  0
   50.0340   29.0830   43.5090 C   0  0  0  0  0  2  0  0  0  0  0  0
   50.9270   28.8390   44.7140 C   0  0  0  0  0  2  0  0  0  0  0  0
   50.0730   29.0540   45.9380 C   0  0  0  0  0  2  0  0  0  0  0  0
   46.4630   32.6100   46.7030 C   0  0  0  0  0  0  0  0  0  0  0  0
   47.3690   32.9050   47.5150 O   0  0  0  0  0  0  0  0  0  0  0  0
   44.6040   35.3390   45.1340 C   0  0  0  0  0  0  0  0  0  0  0  0
   45.1540   35.4320   43.8280 C   0  0  0  0  0  0  0  0  0  0  0  0
   46.1680   34.5410   43.5240 C   0  0  0  0  0  0  0  0  0  0  0  0
   46.5030   33.7020   44.5050 N   0  0  0  0  0  0  0  0  0  0  0  0
   46.0040   33.6030   45.7160 C   0  0  0  0  0  0  0  0  0  0  0  0
   45.0190   34.4570   46.0360 N   0  0  0  0  0  0  0  0  0  0  0  0
   43.7950   36.0390   45.3970 H   0  0  0  0  0  0  0  0  0  0  0  0
   44.7810   36.1690   43.1280 H   0  0  0  0  0  0  0  0  0  0  0  0
   46.7280   34.6280   42.1870 C   0  0  0  0  0  0  0  0  0  0  0  0
   47.4460   33.4700   41.9060 F   0  0  0  0  0  0  0  0  0  0  0  0
   47.5790   35.6850   42.1790 F   0  0  0  0  0  0  0  0  0  0  0  0
   45.7470   34.7060   41.2050 F   0  0  0  0  0  0  0  0  0  0  0  0
  1  7  1  6  0  0  0
  1 25  1  0  0  0  0
  1  2  1  0  0  0  0
  2  9  1  0  0  0  0
  2  8  1  0  0  0  0
  3  2  1  0  0  0  0
  3 11  1  0  0  0  0
  3 10  1  0  0  0  0
  4  3  1  0  0  0  0
  5  6  1  0  0  0  0
  5  4  1  0  0  0  0
  6 16  1  6  0  0  0
  6 17  1  0  0  0  0
  6  1  1  0  0  0  0
 12  4  1  0  0  0  0
 13  4  1  0  0  0  0
 14  5  1  0  0  0  0
 15  5  1  0  0  0  0
 17 19  1  0  0  0  0
 17 18  1  0  0  0  0
 20 24  1  0  0  0  0
 20 17  1  0  0  0  0
 21 20  1  0  0  0  0
 22 21  1  0  0  0  0
 22 23  1  0  0  0  0
 23 24  1  0  0  0  0
 25 26  2  0  0  0  0
 27 33  1  0  0  0  0
 27 32  1  0  0  0  0
 28 27  2  0  0  0  0
 29 28  1  0  0  0  0
 29 30  2  0  0  0  0
 30 31  1  0  0  0  0
 31 32  2  0  0  0  0
 31 25  1  0  0  0  0
 34 28  1  0  0  0  0
 35 29  1  0  0  0  0
 36 35  1  0  0  0  0
 37 35  1  0  0  0  0
 38 35  1  0  0  0  0
M  END
>  <minimizedAffinity>
-5.26886463

>  <minimizedRMSD>
0.598761022

$$$$
