
 OpenBabel03242518543D

 38 40  0  0  1  0  0  0  0  0999 V2000
   45.7580   31.2550   46.6260 C   0  0  2  0  0  0  0  0  0  0  0  0
   45.8180   30.4980   47.9140 C   0  0  0  0  0  0  0  0  0  0  0  0
   45.0370   29.2470   47.7240 C   0  0  0  0  0  0  0  0  0  0  0  0
   44.3460   29.1090   46.4090 C   0  0  0  0  0  0  0  0  0  0  0  0
   45.3310   29.2630   45.2830 C   0  0  0  0  0  0  0  0  0  0  0  0
   46.2630   30.3590   45.5100 C   0  0  2  0  0  0  0  0  0  0  0  0
   44.6950   31.4340   46.3650 H   0  0  0  0  0  0  0  0  0  0  0  0
   45.3510   31.1730   48.6860 H   0  0  0  0  0  0  0  0  0  0  0  0
   46.8500   30.3310   48.2880 H   0  0  0  0  0  0  0  0  0  0  0  0
   44.2050   29.2590   48.4900 H   0  0  0  0  0  0  0  0  0  0  0  0
   45.5850   28.3050   47.9850 H   0  0  0  0  0  0  0  0  0  0  0  0
   43.9180   28.0820   46.3810 H   0  0  0  0  0  0  0  0  0  0  0  0
   43.4710   29.7850   46.3190 H   0  0  0  0  0  0  0  0  0  0  0  0
   44.6990   29.5140   44.3800 H   0  0  0  0  0  0  0  0  0  0  0  0
   45.7380   28.2600   45.0600 H   0  0  0  0  0  0  0  0  0  0  0  0
   46.4220   31.0120   44.6400 H   0  0  0  0  0  0  0  0  0  0  0  0
   47.5570   29.7310   45.8950 C   0  0  0  0  0  0  0  0  0  0  0  0
   47.4870   28.6430   46.1230 H   0  0  0  0  0  0  0  0  0  0  0  0
   47.8980   30.1990   46.8420 H   0  0  0  0  0  0  0  0  0  0  0  0
   48.6660   29.8560   44.8930 C   0  0  0  0  0  3  0  0  0  0  0  0
   48.8630   28.6150   44.0590 C   0  0  0  0  0  2  0  0  0  0  0  0
   49.9310   29.1600   43.1050 C   0  0  0  0  0  2  0  0  0  0  0  0
   49.2650   30.4560   42.6770 C   0  0  0  0  0  2  0  0  0  0  0  0
   48.2810   30.8180   43.7610 C   0  0  0  0  0  2  0  0  0  0  0  0
   46.4510   32.5670   46.6590 C   0  0  0  0  0  0  0  0  0  0  0  0
   47.3810   32.8330   47.4540 O   0  0  0  0  0  0  0  0  0  0  0  0
   44.6010   35.3420   45.1650 C   0  0  0  0  0  0  0  0  0  0  0  0
   45.1360   35.4560   43.8550 C   0  0  0  0  0  0  0  0  0  0  0  0
   46.1390   34.5620   43.5220 C   0  0  0  0  0  0  0  0  0  0  0  0
   46.4760   33.7020   44.4820 N   0  0  0  0  0  0  0  0  0  0  0  0
   45.9910   33.5840   45.6970 C   0  0  0  0  0  0  0  0  0  0  0  0
   45.0170   34.4390   46.0440 N   0  0  0  0  0  0  0  0  0  0  0  0
   43.8000   36.0450   45.4500 H   0  0  0  0  0  0  0  0  0  0  0  0
   44.7630   36.2100   43.1730 H   0  0  0  0  0  0  0  0  0  0  0  0
   46.6840   34.6700   42.1810 C   0  0  0  0  0  0  0  0  0  0  0  0
   47.3940   33.5140   41.8720 F   0  0  0  0  0  0  0  0  0  0  0  0
   47.5400   35.7230   42.1820 F   0  0  0  0  0  0  0  0  0  0  0  0
   45.6930   34.7690   41.2100 F   0  0  0  0  0  0  0  0  0  0  0  0
  1  7  1  6  0  0  0
  1 25  1  0  0  0  0
  1  2  1  0  0  0  0
  2  9  1  0  0  0  0
  2  8  1  0  0  0  0
  3  2  1  0  0  0  0
  3 11  1  0  0  0  0
  3 10  1  0  0  0  0
  4  3  1  0  0  0  0
  5  6  1  0  0  0  0
  5  4  1  0  0  0  0
  6 16  1  6  0  0  0
  6 17  1  0  0  0  0
  6  1  1  0  0  0  0
 12  4  1  0  0  0  0
 13  4  1  0  0  0  0
 14  5  1  0  0  0  0
 15  5  1  0  0  0  0
 17 18  1  0  0  0  0
 17 19  1  0  0  0  0
 20 17  1  0  0  0  0
 21 20  1  0  0  0  0
 22 21  1  0  0  0  0
 23 22  1  0  0  0  0
 23 24  1  0  0  0  0
 24 20  1  0  0  0  0
 25 26  2  0  0  0  0
 27 33  1  0  0  0  0
 27 32  1  0  0  0  0
 28 27  2  0  0  0  0
 29 28  1  0  0  0  0
 29 30  2  0  0  0  0
 30 31  1  0  0  0  0
 31 32  2  0  0  0  0
 31 25  1  0  0  0  0
 34 28  1  0  0  0  0
 35 37  1  0  0  0  0
 35 29  1  0  0  0  0
 36 35  1  0  0  0  0
 38 35  1  0  0  0  0
M  END
>  <minimizedAffinity>
-5.21965551

>  <minimizedRMSD>
0.863164783

$$$$
