
 OpenBabel03242521443D

 34 36  0  0  1  0  0  0  0  0999 V2000
   45.1590   35.3740   44.3960 C   0  0  0  0  0  0  0  0  0  0  0  0
   46.1340   34.6880   43.6530 C   0  0  0  0  0  0  0  0  0  0  0  0
   46.7660   33.5720   44.2360 C   0  0  0  0  0  0  0  0  0  0  0  0
   46.3990   33.2280   45.4680 N   0  0  0  0  0  0  0  0  0  0  0  0
   45.4550   33.9020   46.1680 C   0  0  0  0  0  0  0  0  0  0  0  0
   44.8330   34.9780   45.6340 N   0  0  0  0  0  0  0  0  0  0  0  0
   46.3450   35.0660   42.6550 H   0  0  0  0  0  0  0  0  0  0  0  0
   45.2050   33.5660   47.1700 H   0  0  0  0  0  0  0  0  0  0  0  0
   48.6580   33.7940   42.6360 C   0  0  2  0  0  0  0  0  0  0  0  0
   47.7670   32.8970   43.4200 C   0  0  2  0  0  0  0  0  0  0  0  0
   47.2160   32.0880   42.3840 O   0  0  0  0  0  0  0  0  0  0  0  0
   48.3360   31.6770   41.6970 C   0  0  0  0  0  0  0  0  0  0  0  0
   49.4250   32.7070   41.8550 C   0  0  1  0  0  0  0  0  0  0  0  0
   48.1370   34.3650   41.8440 H   0  0  0  0  0  0  0  0  0  0  0  0
   48.3730   32.2250   44.0570 H   0  0  0  0  0  0  0  0  0  0  0  0
   48.0820   31.6270   40.6170 H   0  0  0  0  0  0  0  0  0  0  0  0
   48.6680   30.6600   41.9910 H   0  0  0  0  0  0  0  0  0  0  0  0
   50.2820   32.3710   42.4600 H   0  0  0  0  0  0  0  0  0  0  0  0
   49.4540   34.6090   43.3810 O   0  0  0  0  0  0  0  0  0  0  0  0
   49.4040   34.3600   44.3400 H   0  0  0  0  0  0  0  0  0  0  0  0
   49.8620   33.2490   40.6530 O   0  0  0  0  0  0  0  0  0  0  0  0
   49.1350   33.7220   40.1990 H   0  0  0  0  0  0  0  0  0  0  0  0
   44.4980   36.5670   43.7700 C   0  0  0  0  0  0  0  0  0  0  0  0
   44.6080   36.5290   42.6860 H   0  0  0  0  0  0  0  0  0  0  0  0
   43.4400   36.5290   44.1190 H   0  0  0  0  0  0  0  0  0  0  0  0
   45.2690   39.0400   43.7940 C   0  0  0  0  0  0  0  0  0  0  0  0
   44.7760   39.1800   42.6420 O   0  0  0  0  0  0  0  0  0  0  0  0
   45.1140   37.7410   44.3630 N   0  0  0  0  0  0  0  0  0  0  0  0
   45.4960   37.6120   45.3430 H   0  0  0  0  0  0  0  0  0  0  0  0
   45.9660   40.1040   44.5520 C   0  0  0  0  0  3  0  0  0  0  0  0
   45.8680   39.7670   46.0240 C   0  0  0  0  0  2  0  0  0  0  0  0
   44.4840   40.2240   46.4510 C   0  0  0  0  0  2  0  0  0  0  0  0
   44.3060   41.4890   45.6490 C   0  0  0  0  0  2  0  0  0  0  0  0
   45.1530   41.3710   44.4070 C   0  0  0  0  0  2  0  0  0  0  0  0
  1  6  1  0  0  0  0
  2  3  1  0  0  0  0
  2  1  2  0  0  0  0
  3  4  2  0  0  0  0
  4  5  1  0  0  0  0
  5  8  1  0  0  0  0
  6  5  2  0  0  0  0
  7  2  1  0  0  0  0
  9 14  1  6  0  0  0
  9 19  1  0  0  0  0
  9 10  1  0  0  0  0
 10 15  1  1  0  0  0
 10  3  1  0  0  0  0
 11 10  1  0  0  0  0
 12 13  1  0  0  0  0
 12 17  1  0  0  0  0
 12 11  1  0  0  0  0
 13 18  1  1  0  0  0
 13  9  1  0  0  0  0
 16 12  1  0  0  0  0
 19 20  1  0  0  0  0
 21 13  1  0  0  0  0
 22 21  1  0  0  0  0
 23 25  1  0  0  0  0
 23 28  1  0  0  0  0
 23  1  1  0  0  0  0
 24 23  1  0  0  0  0
 26 28  1  0  0  0  0
 26 30  1  0  0  0  0
 27 26  2  0  0  0  0
 28 29  1  0  0  0  0
 30 31  1  0  0  0  0
 31 32  1  0  0  0  0
 33 32  1  0  0  0  0
 34 30  1  0  0  0  0
 34 33  1  0  0  0  0
M  END
>  <minimizedAffinity>
-3.04547191

>  <minimizedRMSD>
0.951800883

$$$$
