
 OpenBabel03242519413D

 25 27  0  0  1  0  0  0  0  0999 V2000
   48.0610   32.9350   41.8010 O   0  0  0  0  0  0  0  0  0  0  0  0
   47.1780   34.0840   41.2920 P   0  0  2  0  0  0  0  0  0  0  0  0
   45.5890   33.8700   41.8910 O   0  0  0  0  0  0  0  0  0  0  0  0
   44.3930   35.9120   44.6620 C   0  0  0  0  0  0  0  0  0  0  0  0
   44.6800   35.4830   43.3460 C   0  0  0  0  0  0  0  0  0  0  0  0
   45.3250   34.2530   43.1870 C   0  0  0  0  0  0  0  0  0  0  0  0
   45.6410   33.5360   44.2900 N   0  0  0  0  0  0  0  0  0  0  0  0
   45.3550   33.9720   45.5380 C   0  0  0  0  0  0  0  0  0  0  0  0
   44.7390   35.1410   45.7370 N   0  0  0  0  0  0  0  0  0  0  0  0
   43.8940   36.8590   44.8030 H   0  0  0  0  0  0  0  0  0  0  0  0
   44.3670   36.1620   42.5540 H   0  0  0  0  0  0  0  0  0  0  0  0
   45.6790   33.2730   46.2880 H   0  0  0  0  0  0  0  0  0  0  0  0
   47.1440   34.0520   39.6290 O   0  0  0  0  0  0  0  0  0  0  0  0
   46.6990   33.0640   38.7930 C   0  0  1  0  0  3  0  0  0  0  0  0
   46.0840   33.4220   37.6750 O   0  0  0  0  0  0  0  0  0  0  0  0
   46.4380   31.7170   38.2800 C   0  0  0  0  0  0  0  0  0  0  0  0
   47.2130   31.3990   37.0230 C   0  0  0  0  0  2  0  0  0  0  0  0
   48.5570   30.9640   37.5320 C   0  0  0  0  0  2  0  0  0  0  0  0
   48.4520   30.7800   38.9990 C   0  0  0  0  0  2  0  0  0  0  0  0
   46.9950   30.7050   39.2970 C   0  0  0  0  0  2  0  0  0  0  0  0
   47.7940   35.4840   41.9080 O   0  0  0  0  0  0  0  0  0  0  0  0
   49.0490   35.7940   41.4100 C   0  0  0  0  0  0  0  0  0  0  0  0
   49.4790   37.0630   41.7800 F   0  0  0  0  0  0  0  0  0  0  0  0
   49.9410   34.8260   41.7470 F   0  0  0  0  0  0  0  0  0  0  0  0
   48.9230   35.8270   40.0300 F   0  0  0  0  0  0  0  0  0  0  0  0
  2  1  2  1  0  0  0
  2  3  1  0  0  0  0
  2 21  1  0  0  0  0
  3  6  1  0  0  0  0
  4 10  1  0  0  0  0
  4  9  1  0  0  0  0
  5  4  2  0  0  0  0
  6  5  1  0  0  0  0
  6  7  2  0  0  0  0
  7  8  1  0  0  0  0
  8  9  2  0  0  0  0
  8 12  1  0  0  0  0
 11  5  1  0  0  0  0
 13  2  1  0  0  0  0
 14 13  1  6  0  0  0
 15 16  1  0  0  0  0
 15 14  1  0  0  0  0
 16 14  1  0  0  0  0
 16 20  1  0  0  0  0
 17 18  1  0  0  0  0
 17 16  1  0  0  0  0
 18 19  1  0  0  0  0
 19 20  1  0  0  0  0
 22 24  1  0  0  0  0
 22 23  1  0  0  0  0
 22 21  1  0  0  0  0
 25 22  1  0  0  0  0
M  END
>  <minimizedAffinity>
-4.83422995

>  <minimizedRMSD>
0.321659893

$$$$
