
 OpenBabel03242518543D

 38 40  0  0  1  0  0  0  0  0999 V2000
   45.8980   31.3260   46.3070 C   0  0  2  0  0  0  0  0  0  0  0  0
   45.3380   30.7020   47.5450 C   0  0  0  0  0  0  0  0  0  0  0  0
   44.8350   29.3550   47.1670 C   0  0  0  0  0  0  0  0  0  0  0  0
   44.9160   29.0170   45.7170 C   0  0  0  0  0  0  0  0  0  0  0  0
   46.3260   29.1830   45.2210 C   0  0  0  0  0  0  0  0  0  0  0  0
   46.9500   30.3990   45.7250 C   0  0  2  0  0  0  0  0  0  0  0  0
   45.1070   31.3530   45.5300 H   0  0  0  0  0  0  0  0  0  0  0  0
   44.5070   31.3840   47.8810 H   0  0  0  0  0  0  0  0  0  0  0  0
   46.0450   30.6940   48.4010 H   0  0  0  0  0  0  0  0  0  0  0  0
   43.7290   29.3370   47.4090 H   0  0  0  0  0  0  0  0  0  0  0  0
   45.2270   28.5120   47.7940 H   0  0  0  0  0  0  0  0  0  0  0  0
   44.6210   27.9470   45.6230 H   0  0  0  0  0  0  0  0  0  0  0  0
   44.1710   29.5720   45.1110 H   0  0  0  0  0  0  0  0  0  0  0  0
   46.2260   29.2750   44.0980 H   0  0  0  0  0  0  0  0  0  0  0  0
   46.8460   28.2200   45.3710 H   0  0  0  0  0  0  0  0  0  0  0  0
   47.4910   30.9840   44.9700 H   0  0  0  0  0  0  0  0  0  0  0  0
   47.9020   29.9670   46.7860 C   0  0  0  0  0  0  0  0  0  0  0  0
   47.4300   29.7900   47.7790 H   0  0  0  0  0  0  0  0  0  0  0  0
   48.6250   30.7920   46.9560 H   0  0  0  0  0  0  0  0  0  0  0  0
   48.6840   28.7220   46.4910 C   0  0  0  0  0  3  0  0  0  0  0  0
   50.1720   28.9540   46.4060 C   0  0  0  0  0  2  0  0  0  0  0  0
   50.6120   27.4960   46.2400 C   0  0  0  0  0  2  0  0  0  0  0  0
   49.8460   26.8580   47.3880 C   0  0  0  0  0  2  0  0  0  0  0  0
   48.6820   27.7680   47.6920 C   0  0  0  0  0  2  0  0  0  0  0  0
   46.4020   32.7090   46.4980 C   0  0  0  0  0  0  0  0  0  0  0  0
   47.1180   33.0510   47.4660 O   0  0  0  0  0  0  0  0  0  0  0  0
   44.6780   35.4510   44.8040 C   0  0  0  0  0  0  0  0  0  0  0  0
   45.3040   35.5260   43.5310 C   0  0  0  0  0  0  0  0  0  0  0  0
   46.3210   34.6190   43.2930 C   0  0  0  0  0  0  0  0  0  0  0  0
   46.5860   33.7830   44.2980 N   0  0  0  0  0  0  0  0  0  0  0  0
   46.0160   33.7010   45.4780 C   0  0  0  0  0  0  0  0  0  0  0  0
   45.0260   34.5700   45.7340 N   0  0  0  0  0  0  0  0  0  0  0  0
   43.8640   36.1650   45.0130 H   0  0  0  0  0  0  0  0  0  0  0  0
   44.9840   36.2620   42.8050 H   0  0  0  0  0  0  0  0  0  0  0  0
   46.9590   34.6880   41.9910 C   0  0  0  0  0  0  0  0  0  0  0  0
   47.7530   33.5610   41.8010 F   0  0  0  0  0  0  0  0  0  0  0  0
   47.7530   35.7880   41.9930 F   0  0  0  0  0  0  0  0  0  0  0  0
   46.0400   34.6760   40.9480 F   0  0  0  0  0  0  0  0  0  0  0  0
  1  7  1  6  0  0  0
  1 25  1  0  0  0  0
  1  2  1  0  0  0  0
  2  8  1  0  0  0  0
  2  9  1  0  0  0  0
  3 10  1  0  0  0  0
  3  2  1  0  0  0  0
  3 11  1  0  0  0  0
  4  3  1  0  0  0  0
  5 15  1  0  0  0  0
  5  4  1  0  0  0  0
  5  6  1  0  0  0  0
  6 16  1  6  0  0  0
  6  1  1  0  0  0  0
  6 17  1  0  0  0  0
 12  4  1  0  0  0  0
 13  4  1  0  0  0  0
 14  5  1  0  0  0  0
 17 19  1  0  0  0  0
 17 18  1  0  0  0  0
 20 17  1  0  0  0  0
 20 24  1  0  0  0  0
 21 20  1  0  0  0  0
 22 21  1  0  0  0  0
 22 23  1  0  0  0  0
 23 24  1  0  0  0  0
 25 26  2  0  0  0  0
 27 33  1  0  0  0  0
 27 32  1  0  0  0  0
 28 27  2  0  0  0  0
 29 28  1  0  0  0  0
 29 30  2  0  0  0  0
 30 31  1  0  0  0  0
 31 32  2  0  0  0  0
 31 25  1  0  0  0  0
 34 28  1  0  0  0  0
 35 37  1  0  0  0  0
 35 29  1  0  0  0  0
 36 35  1  0  0  0  0
 38 35  1  0  0  0  0
M  END
>  <minimizedAffinity>
-5.15948534

>  <minimizedRMSD>
0.741497695

$$$$
