
 OpenBabel03242519503D

 46 49  0  0  1  0  0  0  0  0999 V2000
   37.2590   26.7080   37.1200 O   0  0  0  0  0  0  0  0  0  0  0  0
   38.0550   28.9100   36.6910 C   0  0  2  0  0  0  0  0  0  0  0  0
   36.9670   29.8530   36.9480 C   0  0  1  0  0  0  0  0  0  0  0  0
   35.8100   28.9610   37.2190 O   0  0  0  0  0  0  0  0  0  0  0  0
   35.8820   28.2300   36.0380 C   0  0  0  0  0  0  0  0  0  0  0  0
   37.4050   27.6630   36.1970 C   0  0  2  0  0  0  0  0  0  0  0  0
   38.8540   29.2880   36.0320 H   0  0  0  0  0  0  0  0  0  0  0  0
   36.6300   30.3700   36.0200 H   0  0  0  0  0  0  0  0  0  0  0  0
   35.2380   27.3530   36.0150 H   0  0  0  0  0  0  0  0  0  0  0  0
   35.8900   28.8650   35.1470 H   0  0  0  0  0  0  0  0  0  0  0  0
   37.5180   27.3790   35.1370 H   0  0  0  0  0  0  0  0  0  0  0  0
   36.4440   31.1880   40.3010 C   0  0  0  0  0  0  0  0  0  0  0  0
   37.2830   32.2960   40.3510 C   0  0  0  0  0  0  0  0  0  0  0  0
   38.0480   32.6150   39.2090 C   0  0  0  0  0  0  0  0  0  0  0  0
   37.9380   31.8340   38.1120 N   0  0  0  0  0  0  0  0  0  0  0  0
   37.1170   30.7600   38.0820 C   0  0  0  0  0  0  0  0  0  0  0  0
   36.3640   30.4280   39.1740 N   0  0  0  0  0  0  0  0  0  0  0  0
   37.3070   32.8620   41.2690 H   0  0  0  0  0  0  0  0  0  0  0  0
   38.6850   33.4720   39.2720 H   0  0  0  0  0  0  0  0  0  0  0  0
   35.6700   30.8310   41.4010 O   0  0  0  0  0  0  0  0  0  0  0  0
   34.8560   31.3230   41.7250 H   0  0  0  0  0  0  0  0  0  0  0  0
   38.6830   28.5820   37.9640 O   0  0  0  0  0  0  0  0  0  0  0  0
   39.6710   28.6780   37.8650 H   0  0  0  0  0  0  0  0  0  0  0  0
   36.5610   25.5820   36.9350 C   0  0  0  0  0  0  0  0  0  0  0  0
   36.4740   25.1630   35.9790 H   0  0  0  0  0  0  0  0  0  0  0  0
   37.4400   24.7780   37.3210 H   0  0  0  0  0  0  0  0  0  0  0  0
   35.5210   25.3290   38.0310 C   0  0  0  0  0  0  0  0  0  0  0  0
   34.8230   26.1480   38.1320 H   0  0  0  0  0  0  0  0  0  0  0  0
   34.9430   24.4240   37.7430 H   0  0  0  0  0  0  0  0  0  0  0  0
   36.5880   26.1550   40.0540 C   0  0  0  0  0  0  0  0  0  0  0  0
   36.2060   25.0350   39.2900 C   0  0  0  0  0  0  0  0  0  0  0  0
   36.5660   23.8310   39.8480 C   0  0  0  0  0  0  0  0  0  0  0  0
   37.2330   23.6770   41.0280 C   0  0  0  0  0  0  0  0  0  0  0  0
   37.5990   24.7940   41.7620 C   0  0  0  0  0  0  0  0  0  0  0  0
   37.2660   26.0680   41.2580 C   0  0  0  0  0  0  0  0  0  0  0  0
   36.2530   22.9920   39.2310 H   0  0  0  0  0  0  0  0  0  0  0  0
   37.4430   22.6590   41.3310 H   0  0  0  0  0  0  0  0  0  0  0  0
   38.1230   24.6270   42.6830 H   0  0  0  0  0  0  0  0  0  0  0  0
   36.3570   27.4790   39.7450 O   0  0  0  0  0  0  0  0  0  0  0  0
   35.4100   27.8540   39.7910 H   0  0  0  0  0  0  0  0  0  0  0  0
   37.6690   27.0710   42.0470 O   0  0  0  0  0  0  0  0  0  0  0  0
   37.9310   27.2660   43.3720 C   0  0  0  0  0  3  0  0  0  0  0  0
   37.6500   28.7640   43.6420 C   0  0  0  0  0  2  0  0  0  0  0  0
   38.6830   29.3770   42.6890 C   0  0  0  0  0  2  0  0  0  0  0  0
   39.8420   28.3880   42.6500 C   0  0  0  0  0  2  0  0  0  0  0  0
   39.4500   27.3200   43.6630 C   0  0  0  0  0  2  0  0  0  0  0  0
  2  7  1  6  0  0  0
  2  3  1  0  0  0  0
  2 22  1  0  0  0  0
  3  8  1  6  0  0  0
  3  4  1  0  0  0  0
  3 16  1  0  0  0  0
  5  6  1  0  0  0  0
  5  4  1  0  0  0  0
  6 11  1  6  0  0  0
  6  2  1  0  0  0  0
  6  1  1  0  0  0  0
  9  5  1  0  0  0  0
 10  5  1  0  0  0  0
 12 13  1  0  0  0  0
 12 20  1  0  0  0  0
 13 18  1  0  0  0  0
 14 19  1  0  0  0  0
 14 13  2  0  0  0  0
 15 14  1  0  0  0  0
 16 15  2  0  0  0  0
 16 17  1  0  0  0  0
 17 12  2  0  0  0  0
 20 21  1  0  0  0  0
 23 22  1  0  0  0  0
 24  1  1  0  0  0  0
 24 26  1  0  0  0  0
 24 27  1  0  0  0  0
 25 24  1  0  0  0  0
 27 28  1  0  0  0  0
 27 31  1  0  0  0  0
 29 27  1  0  0  0  0
 30 35  1  0  0  0  0
 31 32  1  0  0  0  0
 31 30  2  0  0  0  0
 32 33  2  0  0  0  0
 33 37  1  0  0  0  0
 33 34  1  0  0  0  0
 34 38  1  0  0  0  0
 35 34  2  0  0  0  0
 35 41  1  0  0  0  0
 36 32  1  0  0  0  0
 39 40  1  0  0  0  0
 39 30  1  0  0  0  0
 41 42  1  0  0  0  0
 42 43  1  0  0  0  0
 42 46  1  0  0  0  0
 44 43  1  0  0  0  0
 45 44  1  0  0  0  0
 45 46  1  0  0  0  0
M  END
>  <minimizedAffinity>
-6.0178194

$$$$

 OpenBabel03242519503D

 46 49  0  0  1  0  0  0  0  0999 V2000
   36.8440   26.5560   41.1680 O   0  0  0  0  0  0  0  0  0  0  0  0
   37.7890   26.9630   39.0220 C   0  0  2  0  0  0  0  0  0  0  0  0
   36.9260   26.3490   38.0130 C   0  0  1  0  0  0  0  0  0  0  0  0
   35.9240   25.6190   38.8310 O   0  0  0  0  0  0  0  0  0  0  0  0
   36.8290   24.8700   39.5750 C   0  0  0  0  0  0  0  0  0  0  0  0
   37.6800   26.0990   40.2310 C   0  0  2  0  0  0  0  0  0  0  0  0
   38.8270   27.1480   38.6980 H   0  0  0  0  0  0  0  0  0  0  0  0
   37.4290   25.5060   37.4840 H   0  0  0  0  0  0  0  0  0  0  0  0
   36.3850   24.3330   40.4120 H   0  0  0  0  0  0  0  0  0  0  0  0
   37.5360   24.3160   38.9490 H   0  0  0  0  0  0  0  0  0  0  0  0
   38.5410   25.4770   40.5300 H   0  0  0  0  0  0  0  0  0  0  0  0
   36.4000   28.5690   35.1680 C   0  0  0  0  0  0  0  0  0  0  0  0
   35.0520   28.9010   35.2510 C   0  0  0  0  0  0  0  0  0  0  0  0
   34.2900   28.3670   36.3120 C   0  0  0  0  0  0  0  0  0  0  0  0
   34.8970   27.5540   37.2050 N   0  0  0  0  0  0  0  0  0  0  0  0
   36.2090   27.2420   37.1070 C   0  0  0  0  0  0  0  0  0  0  0  0
   36.9710   27.7450   36.0900 N   0  0  0  0  0  0  0  0  0  0  0  0
   34.6530   29.5570   34.4940 H   0  0  0  0  0  0  0  0  0  0  0  0
   33.2570   28.6370   36.3550 H   0  0  0  0  0  0  0  0  0  0  0  0
   37.1940   29.0690   34.1390 O   0  0  0  0  0  0  0  0  0  0  0  0
   37.5140   30.0180   34.0590 H   0  0  0  0  0  0  0  0  0  0  0  0
   37.2240   28.2580   39.3760 O   0  0  0  0  0  0  0  0  0  0  0  0
   37.9490   28.9420   39.3410 H   0  0  0  0  0  0  0  0  0  0  0  0
   37.0090   26.3660   42.4810 C   0  0  0  0  0  0  0  0  0  0  0  0
   36.7930   25.4360   42.9150 H   0  0  0  0  0  0  0  0  0  0  0  0
   38.2480   26.1890   42.4680 H   0  0  0  0  0  0  0  0  0  0  0  0
   36.9710   27.6660   43.2910 C   0  0  0  0  0  0  0  0  0  0  0  0
   36.0310   28.1880   43.1860 H   0  0  0  0  0  0  0  0  0  0  0  0
   37.0930   27.3990   44.3630 H   0  0  0  0  0  0  0  0  0  0  0  0
   37.7910   29.6840   42.2090 C   0  0  0  0  0  0  0  0  0  0  0  0
   38.1080   28.5050   42.9120 C   0  0  0  0  0  0  0  0  0  0  0  0
   39.4570   28.3200   43.1080 C   0  0  0  0  0  0  0  0  0  0  0  0
   40.4390   29.1650   42.6830 C   0  0  0  0  0  0  0  0  0  0  0  0
   40.1020   30.3190   41.9920 C   0  0  0  0  0  0  0  0  0  0  0  0
   38.7380   30.5830   41.7500 C   0  0  0  0  0  0  0  0  0  0  0  0
   39.6610   27.4010   43.6540 H   0  0  0  0  0  0  0  0  0  0  0  0
   41.4560   28.8760   42.9180 H   0  0  0  0  0  0  0  0  0  0  0  0
   40.9060   30.9550   41.6760 H   0  0  0  0  0  0  0  0  0  0  0  0
   36.5290   30.1280   41.8750 O   0  0  0  0  0  0  0  0  0  0  0  0
   35.9020   30.4710   42.6010 H   0  0  0  0  0  0  0  0  0  0  0  0
   38.5320   31.7210   41.0760 O   0  0  0  0  0  0  0  0  0  0  0  0
   39.2680   32.5990   40.3360 C   0  0  0  0  0  3  0  0  0  0  0  0
   38.4060   33.8800   40.2200 C   0  0  0  0  0  2  0  0  0  0  0  0
   37.1950   33.2870   39.4910 C   0  0  0  0  0  2  0  0  0  0  0  0
   37.7480   32.1620   38.6250 C   0  0  0  0  0  2  0  0  0  0  0  0
   39.2550   32.2460   38.8290 C   0  0  0  0  0  2  0  0  0  0  0  0
  1 24  1  0  0  0  0
  2  7  1  6  0  0  0
  2 22  1  0  0  0  0
  2  6  1  0  0  0  0
  3  8  1  6  0  0  0
  3  4  1  0  0  0  0
  3  2  1  0  0  0  0
  4  5  1  0  0  0  0
  5  6  1  0  0  0  0
  5  9  1  0  0  0  0
  6 11  1  1  0  0  0
  6  1  1  0  0  0  0
 10  5  1  0  0  0  0
 12 13  2  0  0  0  0
 12 17  1  0  0  0  0
 13 14  1  0  0  0  0
 14 19  1  0  0  0  0
 14 15  2  0  0  0  0
 16 15  1  0  0  0  0
 16  3  1  0  0  0  0
 17 16  2  0  0  0  0
 18 13  1  0  0  0  0
 20 12  1  0  0  0  0
 21 20  1  0  0  0  0
 23 22  1  0  0  0  0
 24 25  1  0  0  0  0
 24 27  1  0  0  0  0
 26 24  1  0  0  0  0
 27 29  1  0  0  0  0
 28 27  1  0  0  0  0
 30 31  1  0  0  0  0
 31 32  2  0  0  0  0
 31 27  1  0  0  0  0
 32 36  1  0  0  0  0
 33 37  1  0  0  0  0
 33 32  1  0  0  0  0
 34 33  2  0  0  0  0
 35 34  1  0  0  0  0
 35 30  2  0  0  0  0
 38 34  1  0  0  0  0
 39 30  1  0  0  0  0
 39 40  1  0  0  0  0
 41 35  1  0  0  0  0
 42 41  1  0  0  0  0
 43 42  1  0  0  0  0
 44 43  1  0  0  0  0
 45 46  1  0  0  0  0
 45 44  1  0  0  0  0
 46 42  1  0  0  0  0
M  END
>  <minimizedAffinity>
-5.9180603

$$$$

 OpenBabel03242519503D

 46 49  0  0  1  0  0  0  0  0999 V2000
   39.6570   28.5150   43.0110 O   0  0  0  0  0  0  0  0  0  0  0  0
   41.0630   30.3050   42.3160 C   0  0  2  0  0  0  0  0  0  0  0  0
   40.7990   30.5790   40.9040 C   0  0  1  0  0  0  0  0  0  0  0  0
   39.8630   29.4910   40.5220 O   0  0  0  0  0  0  0  0  0  0  0  0
   40.6670   28.4290   40.9240 C   0  0  0  0  0  0  0  0  0  0  0  0
   40.8450   28.8420   42.4940 C   0  0  2  0  0  0  0  0  0  0  0  0
   42.0410   30.6580   42.6850 H   0  0  0  0  0  0  0  0  0  0  0  0
   41.6770   30.3470   40.2570 H   0  0  0  0  0  0  0  0  0  0  0  0
   40.1670   27.4630   40.9230 H   0  0  0  0  0  0  0  0  0  0  0  0
   41.6700   28.4710   40.4880 H   0  0  0  0  0  0  0  0  0  0  0  0
   41.7130   28.1840   42.6740 H   0  0  0  0  0  0  0  0  0  0  0  0
   38.1100   32.9640   40.2870 C   0  0  0  0  0  0  0  0  0  0  0  0
   38.7780   34.1570   40.0280 C   0  0  0  0  0  0  0  0  0  0  0  0
   40.1890   34.1590   40.0510 C   0  0  0  0  0  0  0  0  0  0  0  0
   40.8370   33.0040   40.3230 N   0  0  0  0  0  0  0  0  0  0  0  0
   40.1710   31.8550   40.5720 C   0  0  0  0  0  0  0  0  0  0  0  0
   38.8050   31.8240   40.5570 N   0  0  0  0  0  0  0  0  0  0  0  0
   38.1770   35.0280   39.8200 H   0  0  0  0  0  0  0  0  0  0  0  0
   40.6790   35.0870   39.8480 H   0  0  0  0  0  0  0  0  0  0  0  0
   36.7190   32.9100   40.2770 O   0  0  0  0  0  0  0  0  0  0  0  0
   36.1400   32.9540   39.4570 H   0  0  0  0  0  0  0  0  0  0  0  0
   40.0470   30.9820   43.1090 O   0  0  0  0  0  0  0  0  0  0  0  0
   40.4990   31.4910   43.8380 H   0  0  0  0  0  0  0  0  0  0  0  0
   39.3780   27.3320   43.5690 C   0  0  0  0  0  0  0  0  0  0  0  0
   40.0960   26.5690   43.5830 H   0  0  0  0  0  0  0  0  0  0  0  0
   39.5600   27.6670   44.7620 H   0  0  0  0  0  0  0  0  0  0  0  0
   37.8760   27.0360   43.6400 C   0  0  0  0  0  0  0  0  0  0  0  0
   37.6050   26.4970   44.5370 H   0  0  0  0  0  0  0  0  0  0  0  0
   37.3410   28.0100   43.6550 H   0  0  0  0  0  0  0  0  0  0  0  0
   37.0930   27.1370   41.3400 C   0  0  0  0  0  0  0  0  0  0  0  0
   37.4660   26.3250   42.4290 C   0  0  0  0  0  0  0  0  0  0  0  0
   37.3580   24.9770   42.1800 C   0  0  0  0  0  0  0  0  0  0  0  0
   36.9340   24.4230   41.0080 C   0  0  0  0  0  0  0  0  0  0  0  0
   36.5710   25.2420   39.9520 C   0  0  0  0  0  0  0  0  0  0  0  0
   36.6540   26.6390   40.1250 C   0  0  0  0  0  0  0  0  0  0  0  0
   37.6550   24.3840   43.0430 H   0  0  0  0  0  0  0  0  0  0  0  0
   36.9050   23.3400   40.9720 H   0  0  0  0  0  0  0  0  0  0  0  0
   36.2430   24.7640   39.0490 H   0  0  0  0  0  0  0  0  0  0  0  0
   37.1050   28.5160   41.3000 O   0  0  0  0  0  0  0  0  0  0  0  0
   37.9920   29.0160   41.2840 H   0  0  0  0  0  0  0  0  0  0  0  0
   36.2790   27.3300   39.0420 O   0  0  0  0  0  0  0  0  0  0  0  0
   36.6960   27.4820   37.7520 C   0  0  0  0  0  3  0  0  0  0  0  0
   37.0270   28.9860   37.5890 C   0  0  0  0  0  2  0  0  0  0  0  0
   35.6410   29.5690   37.8860 C   0  0  0  0  0  2  0  0  0  0  0  0
   34.6430   28.5260   37.3960 C   0  0  0  0  0  2  0  0  0  0  0  0
   35.5150   27.4560   36.7510 C   0  0  0  0  0  2  0  0  0  0  0  0
  1 24  1  0  0  0  0
  2  6  1  0  0  0  0
  2  7  1  1  0  0  0
  2 22  1  0  0  0  0
  3  8  1  6  0  0  0
  3  2  1  0  0  0  0
  4  3  1  0  0  0  0
  4  5  1  0  0  0  0
  5  6  1  0  0  0  0
  6 11  1  1  0  0  0
  6  1  1  0  0  0  0
  9  5  1  0  0  0  0
 10  5  1  0  0  0  0
 12 17  1  0  0  0  0
 13 14  1  0  0  0  0
 13 12  2  0  0  0  0
 14 15  2  0  0  0  0
 15 16  1  0  0  0  0
 16  3  1  0  0  0  0
 17 16  2  0  0  0  0
 18 13  1  0  0  0  0
 19 14  1  0  0  0  0
 20 12  1  0  0  0  0
 21 20  1  0  0  0  0
 22 23  1  0  0  0  0
 24 25  1  0  0  0  0
 24 27  1  0  0  0  0
 24 26  1  0  0  0  0
 27 29  1  0  0  0  0
 27 28  1  0  0  0  0
 30 31  1  0  0  0  0
 31 27  1  0  0  0  0
 32 31  2  0  0  0  0
 32 36  1  0  0  0  0
 33 32  1  0  0  0  0
 34 35  1  0  0  0  0
 34 33  2  0  0  0  0
 35 30  2  0  0  0  0
 37 33  1  0  0  0  0
 38 34  1  0  0  0  0
 39 30  1  0  0  0  0
 40 39  1  0  0  0  0
 41 35  1  0  0  0  0
 42 41  1  0  0  0  0
 43 42  1  0  0  0  0
 43 44  1  0  0  0  0
 45 44  1  0  0  0  0
 46 45  1  0  0  0  0
 46 42  1  0  0  0  0
M  END
>  <minimizedAffinity>
-5.81224298

$$$$

 OpenBabel03242519503D

 46 49  0  0  1  0  0  0  0  0999 V2000
   36.9060   26.4640   42.2970 O   0  0  0  0  0  0  0  0  0  0  0  0
   37.0060   28.8290   42.5430 C   0  0  2  0  0  0  0  0  0  0  0  0
   38.2610   29.3020   41.9580 C   0  0  1  0  0  0  0  0  0  0  0  0
   38.9630   28.0400   41.6110 O   0  0  0  0  0  0  0  0  0  0  0  0
   38.9160   27.4680   42.8770 C   0  0  0  0  0  0  0  0  0  0  0  0
   37.2960   27.4710   43.0830 C   0  0  2  0  0  0  0  0  0  0  0  0
   36.5460   29.5130   43.2760 H   0  0  0  0  0  0  0  0  0  0  0  0
   38.9480   29.7300   42.7240 H   0  0  0  0  0  0  0  0  0  0  0  0
   39.2190   26.4230   42.9080 H   0  0  0  0  0  0  0  0  0  0  0  0
   39.3180   28.1260   43.6540 H   0  0  0  0  0  0  0  0  0  0  0  0
   37.3330   27.3210   44.1760 H   0  0  0  0  0  0  0  0  0  0  0  0
   37.4470   32.1880   39.8820 C   0  0  0  0  0  0  0  0  0  0  0  0
   37.9500   31.8480   38.6300 C   0  0  0  0  0  0  0  0  0  0  0  0
   38.5770   30.5940   38.4730 C   0  0  0  0  0  0  0  0  0  0  0  0
   38.6680   29.7720   39.5420 N   0  0  0  0  0  0  0  0  0  0  0  0
   38.1740   30.1210   40.7510 C   0  0  0  0  0  0  0  0  0  0  0  0
   37.5610   31.3290   40.9320 N   0  0  0  0  0  0  0  0  0  0  0  0
   37.8320   32.5660   37.8340 H   0  0  0  0  0  0  0  0  0  0  0  0
   38.9540   30.3550   37.5020 H   0  0  0  0  0  0  0  0  0  0  0  0
   36.8200   33.4140   40.0880 O   0  0  0  0  0  0  0  0  0  0  0  0
   35.9080   33.6650   39.7510 H   0  0  0  0  0  0  0  0  0  0  0  0
   36.0390   28.6570   41.4670 O   0  0  0  0  0  0  0  0  0  0  0  0
   35.1880   29.1050   41.7310 H   0  0  0  0  0  0  0  0  0  0  0  0
   37.3740   25.2140   42.3850 C   0  0  0  0  0  0  0  0  0  0  0  0
   37.6310   24.8080   43.3170 H   0  0  0  0  0  0  0  0  0  0  0  0
   36.2740   24.6210   42.3120 H   0  0  0  0  0  0  0  0  0  0  0  0
   37.9950   24.7070   41.0800 C   0  0  0  0  0  0  0  0  0  0  0  0
   38.8080   25.3340   40.7400 H   0  0  0  0  0  0  0  0  0  0  0  0
   38.4080   23.6940   41.2750 H   0  0  0  0  0  0  0  0  0  0  0  0
   36.6980   25.7170   39.2880 C   0  0  0  0  0  0  0  0  0  0  0  0
   36.9490   24.5710   40.0670 C   0  0  0  0  0  0  0  0  0  0  0  0
   36.1400   23.5020   39.7600 C   0  0  0  0  0  0  0  0  0  0  0  0
   35.1690   23.4970   38.8020 C   0  0  0  0  0  0  0  0  0  0  0  0
   34.9400   24.6380   38.0490 C   0  0  0  0  0  0  0  0  0  0  0  0
   35.7290   25.7790   38.3020 C   0  0  0  0  0  0  0  0  0  0  0  0
   36.3640   22.6370   40.3810 H   0  0  0  0  0  0  0  0  0  0  0  0
   34.6170   22.5730   38.6830 H   0  0  0  0  0  0  0  0  0  0  0  0
   34.1660   24.5900   37.3070 H   0  0  0  0  0  0  0  0  0  0  0  0
   37.3550   26.9270   39.3700 O   0  0  0  0  0  0  0  0  0  0  0  0
   38.3210   27.0040   39.0540 H   0  0  0  0  0  0  0  0  0  0  0  0
   35.4200   26.8190   37.5170 O   0  0  0  0  0  0  0  0  0  0  0  0
   34.2920   27.4280   37.0530 C   0  0  0  0  0  3  0  0  0  0  0  0
   34.7430   28.2920   35.8490 C   0  0  0  0  0  2  0  0  0  0  0  0
   35.7200   29.2230   36.5760 C   0  0  0  0  0  2  0  0  0  0  0  0
   35.1680   29.3740   37.9890 C   0  0  0  0  0  2  0  0  0  0  0  0
   33.8530   28.6070   37.9550 C   0  0  0  0  0  2  0  0  0  0  0  0
  1 24  1  0  0  0  0
  1  6  1  0  0  0  0
  2  6  1  0  0  0  0
  2  7  1  1  0  0  0
  3  2  1  0  0  0  0
  3  8  1  1  0  0  0
  4  3  1  0  0  0  0
  4  5  1  0  0  0  0
  5  9  1  0  0  0  0
  5  6  1  0  0  0  0
  5 10  1  0  0  0  0
  6 11  1  1  0  0  0
 12 20  1  0  0  0  0
 12 17  1  0  0  0  0
 13 12  2  0  0  0  0
 14 13  1  0  0  0  0
 14 15  2  0  0  0  0
 15 16  1  0  0  0  0
 16 17  2  0  0  0  0
 16  3  1  0  0  0  0
 18 13  1  0  0  0  0
 19 14  1  0  0  0  0
 21 20  1  0  0  0  0
 22 23  1  0  0  0  0
 22  2  1  0  0  0  0
 24 25  1  0  0  0  0
 26 24  1  0  0  0  0
 27 29  1  0  0  0  0
 27 24  1  0  0  0  0
 28 27  1  0  0  0  0
 30 39  1  0  0  0  0
 30 31  1  0  0  0  0
 31 27  1  0  0  0  0
 32 31  2  0  0  0  0
 32 36  1  0  0  0  0
 33 32  1  0  0  0  0
 34 35  1  0  0  0  0
 34 33  2  0  0  0  0
 35 30  2  0  0  0  0
 37 33  1  0  0  0  0
 38 34  1  0  0  0  0
 40 39  1  0  0  0  0
 41 35  1  0  0  0  0
 42 41  1  0  0  0  0
 42 46  1  0  0  0  0
 43 44  1  0  0  0  0
 43 42  1  0  0  0  0
 44 45  1  0  0  0  0
 46 45  1  0  0  0  0
M  END
>  <minimizedAffinity>
-5.73504972

$$$$

 OpenBabel03242519503D

 46 49  0  0  1  0  0  0  0  0999 V2000
   36.5190   28.1800   36.9900 O   0  0  0  0  0  0  0  0  0  0  0  0
   36.6520   30.4930   37.5360 C   0  0  2  0  0  0  0  0  0  0  0  0
   36.6680   30.6250   38.9930 C   0  0  1  0  0  0  0  0  0  0  0  0
   36.4390   29.2320   39.4550 O   0  0  0  0  0  0  0  0  0  0  0  0
   35.2600   29.0130   38.7520 C   0  0  0  0  0  0  0  0  0  0  0  0
   35.8210   29.2920   37.2450 C   0  0  2  0  0  0  0  0  0  0  0  0
   36.3360   31.3980   36.9890 H   0  0  0  0  0  0  0  0  0  0  0  0
   35.7550   31.1350   39.3800 H   0  0  0  0  0  0  0  0  0  0  0  0
   34.9200   27.9790   38.7590 H   0  0  0  0  0  0  0  0  0  0  0  0
   34.5070   29.7850   38.9390 H   0  0  0  0  0  0  0  0  0  0  0  0
   34.8250   29.4210   36.7880 H   0  0  0  0  0  0  0  0  0  0  0  0
   38.8680   32.8970   40.8080 C   0  0  0  0  0  0  0  0  0  0  0  0
   40.0730   32.2050   40.8800 C   0  0  0  0  0  0  0  0  0  0  0  0
   40.1530   30.9280   40.2850 C   0  0  0  0  0  0  0  0  0  0  0  0
   39.0600   30.4250   39.6700 N   0  0  0  0  0  0  0  0  0  0  0  0
   37.8980   31.1130   39.6110 C   0  0  0  0  0  0  0  0  0  0  0  0
   37.7910   32.3520   40.1780 N   0  0  0  0  0  0  0  0  0  0  0  0
   40.8930   32.6840   41.3910 H   0  0  0  0  0  0  0  0  0  0  0  0
   41.0900   30.4160   40.3530 H   0  0  0  0  0  0  0  0  0  0  0  0
   38.7370   34.1590   41.3790 O   0  0  0  0  0  0  0  0  0  0  0  0
   39.1440   35.0060   41.0220 H   0  0  0  0  0  0  0  0  0  0  0  0
   38.0060   30.1880   37.0920 O   0  0  0  0  0  0  0  0  0  0  0  0
   38.2400   30.8010   36.3410 H   0  0  0  0  0  0  0  0  0  0  0  0
   35.9910   26.9530   36.9500 C   0  0  0  0  0  0  0  0  0  0  0  0
   34.9660   26.8090   37.1130 H   0  0  0  0  0  0  0  0  0  0  0  0
   35.9140   26.8470   35.7050 H   0  0  0  0  0  0  0  0  0  0  0  0
   37.0170   25.8450   37.2120 C   0  0  0  0  0  0  0  0  0  0  0  0
   36.9080   25.0140   36.5300 H   0  0  0  0  0  0  0  0  0  0  0  0
   38.0290   26.2790   37.0580 H   0  0  0  0  0  0  0  0  0  0  0  0
   37.6660   26.1910   39.5300 C   0  0  0  0  0  0  0  0  0  0  0  0
   36.9260   25.4220   38.6100 C   0  0  0  0  0  0  0  0  0  0  0  0
   36.2500   24.3690   39.1800 C   0  0  0  0  0  0  0  0  0  0  0  0
   36.2600   24.0520   40.5070 C   0  0  0  0  0  0  0  0  0  0  0  0
   36.9960   24.8220   41.3930 C   0  0  0  0  0  0  0  0  0  0  0  0
   37.7180   25.9220   40.8870 C   0  0  0  0  0  0  0  0  0  0  0  0
   35.6910   23.8020   38.4390 H   0  0  0  0  0  0  0  0  0  0  0  0
   35.6730   23.1890   40.7980 H   0  0  0  0  0  0  0  0  0  0  0  0
   36.9760   24.5370   42.4270 H   0  0  0  0  0  0  0  0  0  0  0  0
   38.4310   27.3020   39.2460 O   0  0  0  0  0  0  0  0  0  0  0  0
   37.9800   28.1760   38.9800 H   0  0  0  0  0  0  0  0  0  0  0  0
   38.3910   26.5920   41.8310 O   0  0  0  0  0  0  0  0  0  0  0  0
   38.4890   26.5870   43.1920 C   0  0  0  0  0  3  0  0  0  0  0  0
   37.6710   27.8070   43.6800 C   0  0  0  0  0  2  0  0  0  0  0  0
   38.4640   28.9200   42.9860 C   0  0  0  0  0  2  0  0  0  0  0  0
   39.9020   28.4190   42.9230 C   0  0  0  0  0  2  0  0  0  0  0  0
   39.8660   27.0970   43.6780 C   0  0  0  0  0  2  0  0  0  0  0  0
  1  6  1  0  0  0  0
  2  7  1  6  0  0  0
  2  3  1  0  0  0  0
  3  8  1  1  0  0  0
  3  4  1  0  0  0  0
  3 16  1  0  0  0  0
  5  9  1  0  0  0  0
  5 10  1  0  0  0  0
  5  4  1  0  0  0  0
  6 11  1  6  0  0  0
  6  2  1  0  0  0  0
  6  5  1  0  0  0  0
 12 13  1  0  0  0  0
 12 20  1  0  0  0  0
 13 18  1  0  0  0  0
 14 19  1  0  0  0  0
 14 13  2  0  0  0  0
 15 14  1  0  0  0  0
 16 15  2  0  0  0  0
 16 17  1  0  0  0  0
 17 12  2  0  0  0  0
 21 20  1  0  0  0  0
 22  2  1  0  0  0  0
 23 22  1  0  0  0  0
 24  1  1  0  0  0  0
 24 25  1  0  0  0  0
 24 27  1  0  0  0  0
 26 24  1  0  0  0  0
 27 31  1  0  0  0  0
 28 27  1  0  0  0  0
 29 27  1  0  0  0  0
 30 35  1  0  0  0  0
 31 32  1  0  0  0  0
 31 30  2  0  0  0  0
 32 33  2  0  0  0  0
 33 37  1  0  0  0  0
 33 34  1  0  0  0  0
 34 38  1  0  0  0  0
 35 34  2  0  0  0  0
 35 41  1  0  0  0  0
 36 32  1  0  0  0  0
 39 30  1  0  0  0  0
 40 39  1  0  0  0  0
 41 42  1  0  0  0  0
 42 46  1  0  0  0  0
 42 43  1  0  0  0  0
 44 43  1  0  0  0  0
 45 44  1  0  0  0  0
 45 46  1  0  0  0  0
M  END
>  <minimizedAffinity>
-5.72801352

$$$$

 OpenBabel03242519503D

 46 49  0  0  1  0  0  0  0  0999 V2000
   35.9200   28.8440   36.5520 O   0  0  0  0  0  0  0  0  0  0  0  0
   34.0070   28.4040   35.2060 C   0  0  2  0  0  0  0  0  0  0  0  0
   32.8100   28.6540   36.0080 C   0  0  1  0  0  0  0  0  0  0  0  0
   33.3650   28.9280   37.3580 O   0  0  0  0  0  0  0  0  0  0  0  0
   34.0960   27.7520   37.4810 C   0  0  0  0  0  0  0  0  0  0  0  0
   35.0420   27.9160   36.1610 C   0  0  2  0  0  0  0  0  0  0  0  0
   33.8560   27.7440   34.3360 H   0  0  0  0  0  0  0  0  0  0  0  0
   32.2270   27.7230   36.1980 H   0  0  0  0  0  0  0  0  0  0  0  0
   34.7730   27.7320   38.3330 H   0  0  0  0  0  0  0  0  0  0  0  0
   33.4900   26.8570   37.3070 H   0  0  0  0  0  0  0  0  0  0  0  0
   35.3520   26.8570   36.1260 H   0  0  0  0  0  0  0  0  0  0  0  0
   30.6350   31.5490   36.4420 C   0  0  0  0  0  0  0  0  0  0  0  0
   30.3910   31.9790   35.1410 C   0  0  0  0  0  0  0  0  0  0  0  0
   30.9720   31.2610   34.0740 C   0  0  0  0  0  0  0  0  0  0  0  0
   31.7420   30.1860   34.3550 N   0  0  0  0  0  0  0  0  0  0  0  0
   31.9670   29.7840   35.6250 C   0  0  0  0  0  0  0  0  0  0  0  0
   31.4170   30.4600   36.6780 N   0  0  0  0  0  0  0  0  0  0  0  0
   29.7640   32.8470   35.0130 H   0  0  0  0  0  0  0  0  0  0  0  0
   30.7690   31.6100   33.0840 H   0  0  0  0  0  0  0  0  0  0  0  0
   30.0860   32.2240   37.5290 O   0  0  0  0  0  0  0  0  0  0  0  0
   29.1180   32.2050   37.7970 H   0  0  0  0  0  0  0  0  0  0  0  0
   34.4810   29.6800   34.6860 O   0  0  0  0  0  0  0  0  0  0  0  0
   34.6480   29.5820   33.7080 H   0  0  0  0  0  0  0  0  0  0  0  0
   37.2420   28.6510   36.6160 C   0  0  0  0  0  0  0  0  0  0  0  0
   37.6340   27.6800   36.6720 H   0  0  0  0  0  0  0  0  0  0  0  0
   37.4890   28.7930   35.3970 H   0  0  0  0  0  0  0  0  0  0  0  0
   38.0060   29.8670   37.1500 C   0  0  0  0  0  0  0  0  0  0  0  0
   39.0770   29.7480   37.0670 H   0  0  0  0  0  0  0  0  0  0  0  0
   37.7140   30.7450   36.5330 H   0  0  0  0  0  0  0  0  0  0  0  0
   37.9920   29.1840   39.4840 C   0  0  0  0  0  0  0  0  0  0  0  0
   37.5890   30.1350   38.5260 C   0  0  0  0  0  0  0  0  0  0  0  0
   36.8370   31.1620   39.0450 C   0  0  0  0  0  0  0  0  0  0  0  0
   36.4840   31.2970   40.3560 C   0  0  0  0  0  0  0  0  0  0  0  0
   36.8910   30.3480   41.2790 C   0  0  0  0  0  0  0  0  0  0  0  0
   37.6670   29.2610   40.8270 C   0  0  0  0  0  0  0  0  0  0  0  0
   36.5460   31.8760   38.2770 H   0  0  0  0  0  0  0  0  0  0  0  0
   35.8860   32.1660   40.6050 H   0  0  0  0  0  0  0  0  0  0  0  0
   36.5910   30.4930   42.2990 H   0  0  0  0  0  0  0  0  0  0  0  0
   38.7530   28.0570   39.2530 O   0  0  0  0  0  0  0  0  0  0  0  0
   39.7430   28.1500   39.0260 H   0  0  0  0  0  0  0  0  0  0  0  0
   38.0020   28.4090   41.8030 O   0  0  0  0  0  0  0  0  0  0  0  0
   37.7530   28.2570   43.1350 C   0  0  0  0  0  3  0  0  0  0  0  0
   38.8770   27.3380   43.6740 C   0  0  0  0  0  2  0  0  0  0  0  0
   38.5960   26.0930   42.8250 C   0  0  0  0  0  2  0  0  0  0  0  0
   37.0900   26.0910   42.5870 C   0  0  0  0  0  2  0  0  0  0  0  0
   36.5870   27.2750   43.4020 C   0  0  0  0  0  2  0  0  0  0  0  0
  1 24  1  0  0  0  0
  2  7  1  6  0  0  0
  2  3  1  0  0  0  0
  2  6  1  0  0  0  0
  3  8  1  1  0  0  0
  3  4  1  0  0  0  0
  4  5  1  0  0  0  0
  5  9  1  0  0  0  0
  6 11  1  6  0  0  0
  6  1  1  0  0  0  0
  6  5  1  0  0  0  0
 10  5  1  0  0  0  0
 12 17  1  0  0  0  0
 12 20  1  0  0  0  0
 13 12  2  0  0  0  0
 14 15  2  0  0  0  0
 14 13  1  0  0  0  0
 15 16  1  0  0  0  0
 16  3  1  0  0  0  0
 16 17  2  0  0  0  0
 18 13  1  0  0  0  0
 19 14  1  0  0  0  0
 20 21  1  0  0  0  0
 22  2  1  0  0  0  0
 23 22  1  0  0  0  0
 24 25  1  0  0  0  0
 24 27  1  0  0  0  0
 26 24  1  0  0  0  0
 27 31  1  0  0  0  0
 28 27  1  0  0  0  0
 29 27  1  0  0  0  0
 30 35  1  0  0  0  0
 31 32  1  0  0  0  0
 31 30  2  0  0  0  0
 32 33  2  0  0  0  0
 33 37  1  0  0  0  0
 33 34  1  0  0  0  0
 34 38  1  0  0  0  0
 35 34  2  0  0  0  0
 35 41  1  0  0  0  0
 36 32  1  0  0  0  0
 39 30  1  0  0  0  0
 40 39  1  0  0  0  0
 41 42  1  0  0  0  0
 42 46  1  0  0  0  0
 42 43  1  0  0  0  0
 44 43  1  0  0  0  0
 45 44  1  0  0  0  0
 45 46  1  0  0  0  0
M  END
>  <minimizedAffinity>
-5.69521189

$$$$

 OpenBabel03242519503D

 46 49  0  0  1  0  0  0  0  0999 V2000
   36.4050   25.7020   37.3580 O   0  0  0  0  0  0  0  0  0  0  0  0
   36.4860   27.7750   36.1910 C   0  0  2  0  0  0  0  0  0  0  0  0
   35.6730   28.7490   36.9200 C   0  0  1  0  0  0  0  0  0  0  0  0
   35.0480   27.9270   37.9870 O   0  0  0  0  0  0  0  0  0  0  0  0
   34.4750   26.9740   37.1520 C   0  0  0  0  0  0  0  0  0  0  0  0
   35.8340   26.4540   36.4110 C   0  0  2  0  0  0  0  0  0  0  0  0
   36.6600   28.0150   35.1280 H   0  0  0  0  0  0  0  0  0  0  0  0
   34.7770   29.0690   36.3390 H   0  0  0  0  0  0  0  0  0  0  0  0
   34.0680   26.1090   37.6720 H   0  0  0  0  0  0  0  0  0  0  0  0
   33.8570   27.4180   36.3660 H   0  0  0  0  0  0  0  0  0  0  0  0
   35.3110   25.9630   35.5730 H   0  0  0  0  0  0  0  0  0  0  0  0
   37.8710   31.6460   37.1940 C   0  0  0  0  0  0  0  0  0  0  0  0
   37.7340   32.0410   38.5210 C   0  0  0  0  0  0  0  0  0  0  0  0
   36.8770   31.2980   39.3610 C   0  0  0  0  0  0  0  0  0  0  0  0
   36.2230   30.2340   38.8470 N   0  0  0  0  0  0  0  0  0  0  0  0
   36.3690   29.8650   37.5540 C   0  0  0  0  0  0  0  0  0  0  0  0
   37.1920   30.5660   36.7180 N   0  0  0  0  0  0  0  0  0  0  0  0
   38.2960   32.9030   38.8440 H   0  0  0  0  0  0  0  0  0  0  0  0
   36.7900   31.6210   40.3770 H   0  0  0  0  0  0  0  0  0  0  0  0
   38.7030   32.3460   36.3250 O   0  0  0  0  0  0  0  0  0  0  0  0
   39.7070   32.3310   36.3420 H   0  0  0  0  0  0  0  0  0  0  0  0
   37.7960   27.7110   36.8250 O   0  0  0  0  0  0  0  0  0  0  0  0
   38.4950   27.7870   36.1180 H   0  0  0  0  0  0  0  0  0  0  0  0
   36.0690   24.4350   37.6170 C   0  0  0  0  0  0  0  0  0  0  0  0
   35.8340   23.7770   36.8350 H   0  0  0  0  0  0  0  0  0  0  0  0
   37.2270   23.9880   37.7830 H   0  0  0  0  0  0  0  0  0  0  0  0
   35.5370   24.2290   39.0390 C   0  0  0  0  0  0  0  0  0  0  0  0
   34.7660   24.9410   39.2960 H   0  0  0  0  0  0  0  0  0  0  0  0
   35.0890   23.2120   39.0870 H   0  0  0  0  0  0  0  0  0  0  0  0
   37.0030   25.5410   40.4690 C   0  0  0  0  0  0  0  0  0  0  0  0
   36.6530   24.2650   39.9840 C   0  0  0  0  0  0  0  0  0  0  0  0
   37.4470   23.2500   40.4650 C   0  0  0  0  0  0  0  0  0  0  0  0
   38.4880   23.4070   41.3320 C   0  0  0  0  0  0  0  0  0  0  0  0
   38.8130   24.6720   41.7940 C   0  0  0  0  0  0  0  0  0  0  0  0
   38.0470   25.7680   41.3480 C   0  0  0  0  0  0  0  0  0  0  0  0
   37.1450   22.2820   40.0690 H   0  0  0  0  0  0  0  0  0  0  0  0
   39.0160   22.5050   41.6160 H   0  0  0  0  0  0  0  0  0  0  0  0
   39.6400   24.7500   42.4740 H   0  0  0  0  0  0  0  0  0  0  0  0
   36.3840   26.7350   40.1630 O   0  0  0  0  0  0  0  0  0  0  0  0
   35.4490   26.9280   40.5190 H   0  0  0  0  0  0  0  0  0  0  0  0
   38.4510   26.9380   41.8580 O   0  0  0  0  0  0  0  0  0  0  0  0
   38.8260   27.4300   43.0740 C   0  0  0  0  0  3  0  0  0  0  0  0
   37.5810   28.1580   43.6380 C   0  0  0  0  0  2  0  0  0  0  0  0
   37.4090   29.2180   42.5450 C   0  0  0  0  0  2  0  0  0  0  0  0
   38.8150   29.5170   42.0390 C   0  0  0  0  0  2  0  0  0  0  0  0
   39.7170   28.6880   42.9440 C   0  0  0  0  0  2  0  0  0  0  0  0
  1 24  1  0  0  0  0
  2  7  1  6  0  0  0
  2  6  1  0  0  0  0
  2 22  1  0  0  0  0
  2  3  1  0  0  0  0
  3  8  1  6  0  0  0
  3 16  1  0  0  0  0
  3  4  1  0  0  0  0
  5  9  1  0  0  0  0
  5  4  1  0  0  0  0
  6 11  1  6  0  0  0
  6  5  1  0  0  0  0
  6  1  1  0  0  0  0
 10  5  1  0  0  0  0
 12 13  1  0  0  0  0
 13 18  1  0  0  0  0
 13 14  2  0  0  0  0
 14 19  1  0  0  0  0
 15 14  1  0  0  0  0
 16 15  2  0  0  0  0
 17 12  2  0  0  0  0
 17 16  1  0  0  0  0
 20 21  1  0  0  0  0
 20 12  1  0  0  0  0
 23 22  1  0  0  0  0
 24 26  1  0  0  0  0
 24 27  1  0  0  0  0
 25 24  1  0  0  0  0
 27 29  1  0  0  0  0
 27 28  1  0  0  0  0
 27 31  1  0  0  0  0
 30 35  1  0  0  0  0
 31 32  1  0  0  0  0
 31 30  2  0  0  0  0
 32 33  2  0  0  0  0
 33 37  1  0  0  0  0
 33 34  1  0  0  0  0
 34 38  1  0  0  0  0
 35 34  2  0  0  0  0
 35 41  1  0  0  0  0
 36 32  1  0  0  0  0
 39 30  1  0  0  0  0
 39 40  1  0  0  0  0
 41 42  1  0  0  0  0
 42 43  1  0  0  0  0
 44 43  1  0  0  0  0
 45 44  1  0  0  0  0
 45 46  1  0  0  0  0
 46 42  1  0  0  0  0
M  END
>  <minimizedAffinity>
-5.6758709

$$$$

 OpenBabel03242519503D

 46 49  0  0  1  0  0  0  0  0999 V2000
   37.1360   28.3930   39.0910 O   0  0  0  0  0  0  0  0  0  0  0  0
   38.5390   29.6590   37.6430 C   0  0  2  0  0  0  0  0  0  0  0  0
   38.1020   31.0540   37.6790 C   0  0  1  0  0  0  0  0  0  0  0  0
   36.8710   30.9970   38.5070 O   0  0  0  0  0  0  0  0  0  0  0  0
   36.2030   30.0410   37.7500 C   0  0  0  0  0  0  0  0  0  0  0  0
   37.3080   28.8430   37.8440 C   0  0  2  0  0  0  0  0  0  0  0  0
   39.1210   29.3750   36.7500 H   0  0  0  0  0  0  0  0  0  0  0  0
   37.6900   31.3930   36.7000 H   0  0  0  0  0  0  0  0  0  0  0  0
   35.2990   29.6510   38.2140 H   0  0  0  0  0  0  0  0  0  0  0  0
   36.1420   30.3090   36.6900 H   0  0  0  0  0  0  0  0  0  0  0  0
   36.9010   28.2620   36.9990 H   0  0  0  0  0  0  0  0  0  0  0  0
   39.2920   33.5400   40.0670 C   0  0  0  0  0  0  0  0  0  0  0  0
   40.5700   33.8520   39.6120 C   0  0  0  0  0  0  0  0  0  0  0  0
   41.0470   33.2100   38.4500 C   0  0  0  0  0  0  0  0  0  0  0  0
   40.2480   32.3180   37.8240 N   0  0  0  0  0  0  0  0  0  0  0  0
   39.0100   32.0270   38.2820 C   0  0  0  0  0  0  0  0  0  0  0  0
   38.5210   32.6340   39.4050 N   0  0  0  0  0  0  0  0  0  0  0  0
   41.1350   34.5770   40.1760 H   0  0  0  0  0  0  0  0  0  0  0  0
   42.0310   33.4670   38.1200 H   0  0  0  0  0  0  0  0  0  0  0  0
   38.7760   34.1460   41.2100 O   0  0  0  0  0  0  0  0  0  0  0  0
   38.4710   35.1010   41.2750 H   0  0  0  0  0  0  0  0  0  0  0  0
   39.3970   29.4200   38.7950 O   0  0  0  0  0  0  0  0  0  0  0  0
   40.2280   28.9640   38.4840 H   0  0  0  0  0  0  0  0  0  0  0  0
   35.9440   28.1640   39.6510 C   0  0  0  0  0  0  0  0  0  0  0  0
   35.1030   27.9770   39.0530 H   0  0  0  0  0  0  0  0  0  0  0  0
   36.1300   26.9610   39.9460 H   0  0  0  0  0  0  0  0  0  0  0  0
   35.8210   28.7320   41.0680 C   0  0  0  0  0  0  0  0  0  0  0  0
   35.7740   29.8120   41.0750 H   0  0  0  0  0  0  0  0  0  0  0  0
   34.8730   28.3490   41.5040 H   0  0  0  0  0  0  0  0  0  0  0  0
   38.0970   29.0040   41.8840 C   0  0  0  0  0  0  0  0  0  0  0  0
   36.9220   28.2260   41.8890 C   0  0  0  0  0  0  0  0  0  0  0  0
   37.0110   27.0890   42.6580 C   0  0  0  0  0  0  0  0  0  0  0  0
   38.1090   26.7010   43.3670 C   0  0  0  0  0  0  0  0  0  0  0  0
   39.2530   27.4820   43.3450 C   0  0  0  0  0  0  0  0  0  0  0  0
   39.2440   28.6660   42.5800 C   0  0  0  0  0  0  0  0  0  0  0  0
   36.0850   26.5170   42.6380 H   0  0  0  0  0  0  0  0  0  0  0  0
   38.0180   25.7760   43.9240 H   0  0  0  0  0  0  0  0  0  0  0  0
   40.0940   27.1390   43.9170 H   0  0  0  0  0  0  0  0  0  0  0  0
   38.2940   30.1910   41.2100 O   0  0  0  0  0  0  0  0  0  0  0  0
   37.8150   31.0360   41.5180 H   0  0  0  0  0  0  0  0  0  0  0  0
   40.4000   29.3380   42.6320 O   0  0  0  0  0  0  0  0  0  0  0  0
   41.6480   29.2370   42.0890 C   0  0  0  0  0  3  0  0  0  0  0  0
   42.6320   29.6520   43.2100 C   0  0  0  0  0  2  0  0  0  0  0  0
   42.1460   31.0880   43.4350 C   0  0  0  0  0  2  0  0  0  0  0  0
   41.6420   31.5680   42.0790 C   0  0  0  0  0  2  0  0  0  0  0  0
   41.9660   30.4150   41.1370 C   0  0  0  0  0  2  0  0  0  0  0  0
  1 24  1  0  0  0  0
  2  7  1  6  0  0  0
  2  3  1  0  0  0  0
  2  6  1  0  0  0  0
  2 22  1  0  0  0  0
  3  8  1  6  0  0  0
  3 16  1  0  0  0  0
  3  4  1  0  0  0  0
  5  6  1  0  0  0  0
  5  9  1  0  0  0  0
  5  4  1  0  0  0  0
  6 11  1  6  0  0  0
  6  1  1  0  0  0  0
 10  5  1  0  0  0  0
 12 20  1  0  0  0  0
 13 12  1  0  0  0  0
 13 18  1  0  0  0  0
 14 13  2  0  0  0  0
 15 16  2  0  0  0  0
 15 14  1  0  0  0  0
 16 17  1  0  0  0  0
 17 12  2  0  0  0  0
 19 14  1  0  0  0  0
 20 21  1  0  0  0  0
 23 22  1  0  0  0  0
 24 26  1  0  0  0  0
 24 27  1  0  0  0  0
 25 24  1  0  0  0  0
 27 28  1  0  0  0  0
 27 29  1  0  0  0  0
 27 31  1  0  0  0  0
 30 31  2  0  0  0  0
 30 35  1  0  0  0  0
 31 32  1  0  0  0  0
 32 33  2  0  0  0  0
 33 37  1  0  0  0  0
 34 33  1  0  0  0  0
 34 38  1  0  0  0  0
 35 41  1  0  0  0  0
 35 34  2  0  0  0  0
 36 32  1  0  0  0  0
 39 40  1  0  0  0  0
 39 30  1  0  0  0  0
 42 41  1  0  0  0  0
 42 43  1  0  0  0  0
 43 44  1  0  0  0  0
 45 44  1  0  0  0  0
 46 45  1  0  0  0  0
 46 42  1  0  0  0  0
M  END
>  <minimizedAffinity>
-5.66719484

$$$$

 OpenBabel03242519503D

 46 49  0  0  1  0  0  0  0  0999 V2000
   39.6470   31.3510   39.6090 O   0  0  0  0  0  0  0  0  0  0  0  0
   40.4850   29.1950   40.1730 C   0  0  2  0  0  0  0  0  0  0  0  0
   40.1370   28.9130   41.5660 C   0  0  1  0  0  0  0  0  0  0  0  0
   39.5400   30.1930   42.0260 O   0  0  0  0  0  0  0  0  0  0  0  0
   40.6150   31.0100   41.6900 C   0  0  0  0  0  0  0  0  0  0  0  0
   40.6890   30.6690   40.0950 C   0  0  2  0  0  0  0  0  0  0  0  0
   41.3290   28.6070   39.7750 H   0  0  0  0  0  0  0  0  0  0  0  0
   41.0370   28.8470   42.2200 H   0  0  0  0  0  0  0  0  0  0  0  0
   40.4060   32.0760   41.7590 H   0  0  0  0  0  0  0  0  0  0  0  0
   41.5600   30.6600   42.1160 H   0  0  0  0  0  0  0  0  0  0  0  0
   41.7090   31.0670   39.9540 H   0  0  0  0  0  0  0  0  0  0  0  0
   37.1330   27.3100   42.8690 C   0  0  0  0  0  0  0  0  0  0  0  0
   37.2040   26.0140   42.3670 C   0  0  0  0  0  0  0  0  0  0  0  0
   38.3110   25.6610   41.5670 C   0  0  0  0  0  0  0  0  0  0  0  0
   39.2590   26.5920   41.3190 N   0  0  0  0  0  0  0  0  0  0  0  0
   39.1720   27.8460   41.8150 C   0  0  0  0  0  0  0  0  0  0  0  0
   38.1110   28.2160   42.5930 N   0  0  0  0  0  0  0  0  0  0  0  0
   36.4020   25.3380   42.6180 H   0  0  0  0  0  0  0  0  0  0  0  0
   38.3440   24.6600   41.1940 H   0  0  0  0  0  0  0  0  0  0  0  0
   36.0600   27.7080   43.6620 O   0  0  0  0  0  0  0  0  0  0  0  0
   35.9020   27.4250   44.6130 H   0  0  0  0  0  0  0  0  0  0  0  0
   39.3290   28.8850   39.3430 O   0  0  0  0  0  0  0  0  0  0  0  0
   39.6290   28.3190   38.5790 H   0  0  0  0  0  0  0  0  0  0  0  0
   39.3230   32.5950   39.9760 C   0  0  0  0  0  0  0  0  0  0  0  0
   39.8780   33.0930   40.7130 H   0  0  0  0  0  0  0  0  0  0  0  0
   39.8610   33.1940   39.0180 H   0  0  0  0  0  0  0  0  0  0  0  0
   37.8630   32.9520   39.6810 C   0  0  0  0  0  0  0  0  0  0  0  0
   37.4830   33.7140   40.3470 H   0  0  0  0  0  0  0  0  0  0  0  0
   37.8180   33.3540   38.6450 H   0  0  0  0  0  0  0  0  0  0  0  0
   36.8640   31.0860   38.4820 C   0  0  0  0  0  0  0  0  0  0  0  0
   37.0500   31.7360   39.7180 C   0  0  0  0  0  0  0  0  0  0  0  0
   36.4070   31.1270   40.7700 C   0  0  0  0  0  0  0  0  0  0  0  0
   35.6460   29.9980   40.6810 C   0  0  0  0  0  0  0  0  0  0  0  0
   35.4770   29.3770   39.4540 C   0  0  0  0  0  0  0  0  0  0  0  0
   36.1050   29.9400   38.3240 C   0  0  0  0  0  0  0  0  0  0  0  0
   36.5750   31.6560   41.7060 H   0  0  0  0  0  0  0  0  0  0  0  0
   35.2060   29.6430   41.6050 H   0  0  0  0  0  0  0  0  0  0  0  0
   34.8700   28.4920   39.4300 H   0  0  0  0  0  0  0  0  0  0  0  0
   37.3900   31.4670   37.2660 O   0  0  0  0  0  0  0  0  0  0  0  0
   38.3900   31.3700   37.0920 H   0  0  0  0  0  0  0  0  0  0  0  0
   35.8720   29.2580   37.1960 O   0  0  0  0  0  0  0  0  0  0  0  0
   35.7230   27.9550   36.8200 C   0  0  0  0  0  3  0  0  0  0  0  0
   37.1480   27.3500   36.8160 C   0  0  0  0  0  2  0  0  0  0  0  0
   37.7870   28.2530   35.7550 C   0  0  0  0  0  2  0  0  0  0  0  0
   36.6620   28.6140   34.7920 C   0  0  0  0  0  2  0  0  0  0  0  0
   35.4710   27.8130   35.3000 C   0  0  0  0  0  2  0  0  0  0  0  0
  1 24  1  0  0  0  0
  1  6  1  0  0  0  0
  2  7  1  6  0  0  0
  2  3  1  0  0  0  0
  3 16  1  0  0  0  0
  3  4  1  0  0  0  0
  3  8  1  1  0  0  0
  5  9  1  0  0  0  0
  5  4  1  0  0  0  0
  5 10  1  0  0  0  0
  6 11  1  6  0  0  0
  6  2  1  0  0  0  0
  6  5  1  0  0  0  0
 12 20  1  0  0  0  0
 13 18  1  0  0  0  0
 13 12  2  0  0  0  0
 14 13  1  0  0  0  0
 15 14  2  0  0  0  0
 15 16  1  0  0  0  0
 16 17  2  0  0  0  0
 17 12  1  0  0  0  0
 19 14  1  0  0  0  0
 20 21  1  0  0  0  0
 22  2  1  0  0  0  0
 23 22  1  0  0  0  0
 24 25  1  0  0  0  0
 26 24  1  0  0  0  0
 27 31  1  0  0  0  0
 27 24  1  0  0  0  0
 27 28  1  0  0  0  0
 29 27  1  0  0  0  0
 30 31  1  0  0  0  0
 31 32  2  0  0  0  0
 32 36  1  0  0  0  0
 33 32  1  0  0  0  0
 33 37  1  0  0  0  0
 34 33  2  0  0  0  0
 35 30  2  0  0  0  0
 35 34  1  0  0  0  0
 38 34  1  0  0  0  0
 39 30  1  0  0  0  0
 40 39  1  0  0  0  0
 41 35  1  0  0  0  0
 42 41  1  0  0  0  0
 43 42  1  0  0  0  0
 44 43  1  0  0  0  0
 45 46  1  0  0  0  0
 45 44  1  0  0  0  0
 46 42  1  0  0  0  0
M  END
>  <minimizedAffinity>
-5.54177904

$$$$
