REMARK  Name = 
REMARK  7 active torsions:
REMARK  status: ('A' for Active; 'I' for Inactive)
REMARK    1  A    between atoms: P_2  and  O_3
REMARK    2  A    between atoms: P_2  and  O_10
REMARK    3  A    between atoms: P_2  and  O_13
REMARK    4  A    between atoms: O_3  and  C_6
REMARK    5  A    between atoms: O_10  and  C_11
REMARK    6  A    between atoms: C_11  and  C_21
REMARK    7  A    between atoms: O_13  and  C_14
REMARK                            x       y       z     vdW  Elec       q    Type
REMARK                         _______ _______ _______ _____ _____    ______ ____
ROOT
ATOM      1  O   UNL     1      48.088  32.910  41.907  0.00  0.00    +0.000 OA
ATOM      2  P   UNL     1      47.201  34.026  41.337  0.00  0.00    +0.000 P 
ENDROOT
BRANCH   2   3
ATOM      3  O   UNL     1      45.605  33.818  41.919  0.00  0.00    +0.000 OA
BRANCH   3   6
ATOM      4  C   UNL     1      44.358  35.919  44.623  0.00  0.00    +0.000 A 
ATOM      5  C   UNL     1      44.666  35.460  43.322  0.00  0.00    +0.000 A 
ATOM      6  C   UNL     1      45.321  34.231  43.202  0.00  0.00    +0.000 A 
ATOM      7  N   UNL     1      45.627  33.544  44.326  0.00  0.00    +0.000 NA
ATOM      8  C   UNL     1      45.321  34.008  45.559  0.00  0.00    +0.000 A 
ATOM      9  N   UNL     1      44.695  35.177  45.721  0.00  0.00    +0.000 NA
ATOM     10  H   UNL     1      43.852  36.866  44.734  0.00  0.00    +0.000 HD
ATOM     11  H   UNL     1      44.359  36.118  42.509  0.00  0.00    +0.000 HD
ATOM     12  H   UNL     1      45.640  33.330  46.330  0.00  0.00    +0.000 HD
ENDBRANCH   3   6
ENDBRANCH   2   3
BRANCH   2  13
ATOM     13  O   UNL     1      47.194  33.925  39.676  0.00  0.00    +0.000 OA
BRANCH  13  14
ATOM     14  C   UNL     1      46.543  33.033  38.868  0.00  0.00    +0.000 C 
ATOM     15  O   UNL     1      45.888  33.506  37.817  0.00  0.00    +0.000 OA
BRANCH  14  16
ATOM     16  C   UNL     1      46.051  31.751  38.358  0.00  0.00    +0.000 C 
ATOM     17  C   UNL     1      44.873  31.895  37.423  0.00  0.00    +0.000 C 
ATOM     18  C   UNL     1      45.506  32.200  36.096  0.00  0.00    +0.000 C 
ATOM     19  C   UNL     1      46.964  31.965  36.220  0.00  0.00    +0.000 C 
ATOM     20  C   UNL     1      47.142  31.150  37.453  0.00  0.00    +0.000 C 
ENDBRANCH  14  16
ENDBRANCH  13  14
ENDBRANCH   2  13
BRANCH   2  21
ATOM     21  O   UNL     1      47.791  35.458  41.904  0.00  0.00    +0.000 OA
BRANCH  21  22
ATOM     22  C   UNL     1      49.044  35.769  41.401  0.00  0.00    +0.000 C 
ATOM     23  F   UNL     1      49.449  37.060  41.721  0.00  0.00    +0.000 F 
ATOM     24  F   UNL     1      49.950  34.832  41.784  0.00  0.00    +0.000 F 
ATOM     25  F   UNL     1      48.927  35.743  40.020  0.00  0.00    +0.000 F 
ENDBRANCH  21  22
ENDBRANCH   2  21
TORSDOF 7
