
     RDKit          3D

 47 49  0  0  0  0  0  0  0  0999 V2000
   45.8559   31.2471   46.3787 C   0  0  2  0  0  0  0  0  0  0  0  0
   45.5863   30.5674   47.6834 C   0  0  0  0  0  0  0  0  0  0  0  0
   44.9343   29.2666   47.3716 C   0  0  0  0  0  0  0  0  0  0  0  0
   44.6383   29.0195   45.9310 C   0  0  0  0  0  0  0  0  0  0  0  0
   45.8893   29.1638   45.1094 C   0  0  0  0  0  0  0  0  0  0  0  0
   46.6815   30.3200   45.5064 C   0  0  2  0  0  0  0  0  0  0  0  0
   46.4640   32.5949   46.5107 C   0  0  0  0  0  0  0  0  0  0  0  0
   47.2930   32.8896   47.4007 O   0  0  0  0  0  0  0  0  0  0  0  0
   44.6820   35.3740   44.9417 C   0  0  0  0  0  0  0  0  0  0  0  0
   45.2637   35.4803   43.6513 C   0  0  0  0  0  0  0  0  0  0  0  0
   46.2727   34.5804   43.3569 C   0  0  0  0  0  0  0  0  0  0  0  0
   46.5725   33.7208   44.3316 N   0  0  0  0  0  0  0  0  0  0  0  0
   46.0432   33.6104   45.5290 C   0  0  0  0  0  0  0  0  0  0  0  0
   45.0622   34.4721   45.8394 N   0  0  0  0  0  0  0  0  0  0  0  0
   46.8661   34.6796   42.0358 C   0  0  0  0  0  0  0  0  0  0  0  0
   47.6347   33.5483   41.7829 F   0  0  0  0  0  0  0  0  0  0  0  0
   47.6766   35.7676   42.0442 F   0  0  0  0  0  0  0  0  0  0  0  0
   45.9110   34.7150   41.0262 F   0  0  0  0  0  0  0  0  0  0  0  0
   47.8406   29.7846   46.2722 C   0  0  0  0  0  0  0  0  0  0  0  0
   44.8995   31.3540   45.8259 H   0  0  0  0  0  0  0  0  0  0  0  0
   44.9000   31.2573   48.2502 H   0  0  0  0  0  0  0  0  0  0  0  0
   46.4800   30.4772   48.3337 H   0  0  0  0  0  0  0  0  0  0  0  0
   43.9229   29.2757   47.8805 H   0  0  0  0  0  0  0  0  0  0  0  0
   45.4235   28.3719   47.8360 H   0  0  0  0  0  0  0  0  0  0  0  0
   44.2724   27.9706   45.8574 H   0  0  0  0  0  0  0  0  0  0  0  0
   43.7968   29.6407   45.5598 H   0  0  0  0  0  0  0  0  0  0  0  0
   45.5214   29.3310   44.0531 H   0  0  0  0  0  0  0  0  0  0  0  0
   46.3778   28.1744   45.0742 H   0  0  0  0  0  0  0  0  0  0  0  0
   47.0505   30.9307   44.6712 H   0  0  0  0  0  0  0  0  0  0  0  0
   43.8758   36.0822   45.1963 H   0  0  0  0  0  0  0  0  0  0  0  0
   44.9186   36.2332   42.9539 H   0  0  0  0  0  0  0  0  0  0  0  0
   47.5612   29.2313   47.1969 H   0  0  0  0  0  0  0  0  0  0  0  0
   48.4462   30.6452   46.6259 H   0  0  0  0  0  0  0  0  0  0  0  0
   48.7499   28.8621   45.5155 C   0  0  0  0  0  0  0  0  0  0  0  0
   50.1828   28.9146   45.9840 C   0  0  0  0  0  0  0  0  0  0  0  0
   50.7407   27.7868   45.1101 C   0  0  0  0  0  0  0  0  0  0  0  0
   49.7195   26.6997   45.4004 C   0  0  0  0  0  0  0  0  0  0  0  0
   48.4636   27.3956   45.8614 C   0  0  0  0  0  0  0  0  0  0  0  0
   48.6914   28.9205   44.4333 H   0  0  0  0  0  0  0  0  0  0  0  0
   50.2913   28.5110   47.0279 H   0  0  0  0  0  0  0  0  0  0  0  0
   50.6856   29.8693   45.8324 H   0  0  0  0  0  0  0  0  0  0  0  0
   50.6376   28.1749   44.0673 H   0  0  0  0  0  0  0  0  0  0  0  0
   51.7670   27.5154   45.3707 H   0  0  0  0  0  0  0  0  0  0  0  0
   49.5677   26.0367   44.5406 H   0  0  0  0  0  0  0  0  0  0  0  0
   50.1773   26.0929   46.2341 H   0  0  0  0  0  0  0  0  0  0  0  0
   47.5600   27.0351   45.3349 H   0  0  0  0  0  0  0  0  0  0  0  0
   48.3999   27.2989   46.9648 H   0  0  0  0  0  0  0  0  0  0  0  0
  1  7  1  0
  1  2  1  0
  3  2  1  0
  4  3  1  0
  5  6  1  0
  5  4  1  0
  6 19  1  0
  6  1  1  0
  7  8  2  0
  9 14  2  0
 10  9  1  0
 11 10  2  0
 11 12  1  0
 12 13  2  0
 13 14  1  0
 13  7  1  0
 15 17  1  0
 15 11  1  0
 16 15  1  0
 18 15  1  0
  1 20  1  6
  2 21  1  0
  2 22  1  0
  3 23  1  0
  3 24  1  0
  4 25  1  0
  4 26  1  0
  5 27  1  0
  5 28  1  0
  6 29  1  6
  9 30  1  0
 10 31  1  0
 19 32  1  0
 19 33  1  0
 34 35  1  0
 35 36  1  0
 36 37  1  0
 37 38  1  0
 38 34  1  0
 34 39  1  0
 35 40  1  0
 35 41  1  0
 36 42  1  0
 36 43  1  0
 37 44  1  0
 37 45  1  0
 38 46  1  0
 38 47  1  0
 19 34  1  0
M  ISO  8  20  13  21  13  22  13  23  13  24  13  25  13  26  13  27  13
M  ISO  6  28  13  29  13  30  14  31  14  32   8  33   8
M  END
>  <DihAtoms>  (1) 
5,18,33,34

>  <DihDeg>  (1) 
59.76696828976123

$$$$
