
 OpenBabel03252505433D

 38 41  0  0  1  0  0  0  0  0999 V2000
   43.9240   34.5250   42.2820 C   0  0  1  0  0  0  0  0  0  0  0  0
   44.0540   36.0070   41.7990 C   0  0  0  0  0  0  0  0  0  0  0  0
   43.9660   34.7960   40.8750 C   0  0  2  0  0  0  0  0  0  0  0  0
   42.9380   34.3780   42.8060 H   0  0  0  0  0  0  0  0  0  0  0  0
   45.0140   36.4890   41.9780 H   0  0  0  0  0  0  0  0  0  0  0  0
   43.1730   36.6440   41.8490 H   0  0  0  0  0  0  0  0  0  0  0  0
   44.8740   34.7230   40.2510 H   0  0  0  0  0  0  0  0  0  0  0  0
   45.0790   34.0480   43.0660 C   0  0  0  0  0  0  0  0  0  0  0  0
   46.3350   34.0220   42.4370 C   0  0  0  0  0  0  0  0  0  0  0  0
   47.4360   33.5790   43.1620 C   0  0  0  0  0  0  0  0  0  0  0  0
   47.2400   33.1920   44.4470 N   0  0  0  0  0  0  0  0  0  0  0  0
   46.0350   33.2290   45.0170 C   0  0  0  0  0  0  0  0  0  0  0  0
   44.9890   33.6570   44.3060 N   0  0  0  0  0  0  0  0  0  0  0  0
   46.5170   34.3270   41.4120 H   0  0  0  0  0  0  0  0  0  0  0  0
   48.4350   33.5430   42.7080 H   0  0  0  0  0  0  0  0  0  0  0  0
   46.0240   32.7650   46.4460 C   0  0  0  0  0  0  0  0  0  0  0  0
   45.0520   33.4240   47.1850 F   0  0  0  0  0  0  0  0  0  0  0  0
   47.2610   33.1070   47.0410 F   0  0  0  0  0  0  0  0  0  0  0  0
   45.9390   31.4010   46.4960 F   0  0  0  0  0  0  0  0  0  0  0  0
   42.6500   34.5900   40.1570 C   0  0  0  0  0  0  0  0  0  0  0  0
   42.4030   35.1840   38.9430 C   0  0  0  0  0  0  0  0  0  0  0  0
   41.2240   34.9930   38.2520 C   0  0  0  0  0  0  0  0  0  0  0  0
   40.2950   34.1930   38.8020 N   0  0  0  0  0  0  0  0  0  0  0  0
   40.5270   33.5960   40.0050 C   0  0  0  0  0  0  0  0  0  0  0  0
   41.6840   33.7840   40.6870 N   0  0  0  0  0  0  0  0  0  0  0  0
   43.1750   35.8200   38.5350 H   0  0  0  0  0  0  0  0  0  0  0  0
   41.0370   35.4640   37.2950 H   0  0  0  0  0  0  0  0  0  0  0  0
   39.5420   32.6840   40.6600 C   0  0  0  0  0  0  0  0  0  0  0  0
   38.5960   33.2100   40.7770 H   0  0  0  0  0  0  0  0  0  0  0  0
   39.9230   32.4000   41.6610 H   0  0  0  0  0  0  0  0  0  0  0  0
   39.4400   31.3980   39.8780 C   0  0  0  0  0  0  0  0  0  0  0  0
   39.6670   31.6370   38.8180 H   0  0  0  0  0  0  0  0  0  0  0  0
   40.1970   30.7020   40.2380 H   0  0  0  0  0  0  0  0  0  0  0  0
   38.0690   30.7870   39.9050 C   0  0  0  0  0  3  0  0  0  0  0  0
   37.4910   30.7500   41.2820 C   0  0  0  0  0  2  0  0  0  0  0  0
   37.5910   29.3540   41.8080 C   0  0  0  0  0  2  0  0  0  0  0  0
   37.9140   28.4760   40.6310 C   0  0  0  0  0  2  0  0  0  0  0  0
   38.0280   29.3700   39.4190 C   0  0  0  0  0  2  0  0  0  0  0  0
  1  4  1  1  0  0  0
  1  8  1  0  0  0  0
  2  6  1  0  0  0  0
  2  5  1  0  0  0  0
  2  1  1  0  0  0  0
  3  7  1  6  0  0  0
  3  2  1  0  0  0  0
  3  1  1  0  0  0  0
  8 13  1  0  0  0  0
  9  8  2  0  0  0  0
  9 10  1  0  0  0  0
 10 11  2  0  0  0  0
 11 12  1  0  0  0  0
 12 16  1  0  0  0  0
 13 12  2  0  0  0  0
 14  9  1  0  0  0  0
 15 10  1  0  0  0  0
 16 19  1  0  0  0  0
 16 18  1  0  0  0  0
 16 17  1  0  0  0  0
 20 25  1  0  0  0  0
 20  3  1  0  0  0  0
 21 20  2  0  0  0  0
 22 23  2  0  0  0  0
 22 21  1  0  0  0  0
 23 24  1  0  0  0  0
 24 28  1  0  0  0  0
 24 25  2  0  0  0  0
 26 21  1  0  0  0  0
 27 22  1  0  0  0  0
 28 29  1  0  0  0  0
 28 30  1  0  0  0  0
 31 34  1  0  0  0  0
 31 33  1  0  0  0  0
 31 28  1  0  0  0  0
 32 31  1  0  0  0  0
 34 35  1  0  0  0  0
 35 36  1  0  0  0  0
 37 36  1  0  0  0  0
 38 34  1  0  0  0  0
 38 37  1  0  0  0  0
M  END
>  <minimizedAffinity>
-5.60136127

>  <minimizedRMSD>
0.93098402

$$$$
