
 OpenBabel03242519493D

 46 49  0  0  1  0  0  0  0  0999 V2000
   45.0020   30.0460   48.5230 O   0  0  0  0  0  0  0  0  0  0  0  0
   45.7730   32.2880   48.3210 C   0  0  2  0  0  0  0  0  0  0  0  0
   46.7780   32.3380   47.2590 C   0  0  1  0  0  0  0  0  0  0  0  0
   46.9540   30.9070   46.9010 O   0  0  0  0  0  0  0  0  0  0  0  0
   47.2600   30.4500   48.1780 C   0  0  0  0  0  0  0  0  0  0  0  0
   45.9030   30.9400   48.9410 C   0  0  2  0  0  0  0  0  0  0  0  0
   45.8180   33.1190   49.0450 H   0  0  0  0  0  0  0  0  0  0  0  0
   47.7920   32.5900   47.6490 H   0  0  0  0  0  0  0  0  0  0  0  0
   47.2820   29.3660   48.2730 H   0  0  0  0  0  0  0  0  0  0  0  0
   48.0810   31.0070   48.6400 H   0  0  0  0  0  0  0  0  0  0  0  0
   46.3210   30.8520   49.9590 H   0  0  0  0  0  0  0  0  0  0  0  0
   45.0440   34.7430   45.1370 C   0  0  0  0  0  0  0  0  0  0  0  0
   45.6690   34.6060   43.9010 C   0  0  0  0  0  0  0  0  0  0  0  0
   46.7070   33.6600   43.7720 C   0  0  0  0  0  0  0  0  0  0  0  0
   47.0560   32.9240   44.8510 N   0  0  0  0  0  0  0  0  0  0  0  0
   46.4370   33.0720   46.0430 C   0  0  0  0  0  0  0  0  0  0  0  0
   45.4280   33.9810   46.1970 N   0  0  0  0  0  0  0  0  0  0  0  0
   45.3230   35.2360   43.0960 H   0  0  0  0  0  0  0  0  0  0  0  0
   47.1710   33.5720   42.8130 H   0  0  0  0  0  0  0  0  0  0  0  0
   44.0150   35.6640   45.3160 O   0  0  0  0  0  0  0  0  0  0  0  0
   43.0830   35.5730   44.9530 H   0  0  0  0  0  0  0  0  0  0  0  0
   44.4550   32.3430   47.7020 O   0  0  0  0  0  0  0  0  0  0  0  0
   43.9120   33.0360   48.1720 H   0  0  0  0  0  0  0  0  0  0  0  0
   45.0230   28.7480   48.8450 C   0  0  0  0  0  0  0  0  0  0  0  0
   45.1580   28.4500   49.8420 H   0  0  0  0  0  0  0  0  0  0  0  0
   43.7850   28.5580   48.8470 H   0  0  0  0  0  0  0  0  0  0  0  0
   45.3940   27.8390   47.6700 C   0  0  0  0  0  0  0  0  0  0  0  0
   46.1440   28.2810   47.0290 H   0  0  0  0  0  0  0  0  0  0  0  0
   45.8170   26.9010   48.0900 H   0  0  0  0  0  0  0  0  0  0  0  0
   43.7890   28.3930   45.9290 C   0  0  0  0  0  0  0  0  0  0  0  0
   44.1820   27.4840   46.9310 C   0  0  0  0  0  0  0  0  0  0  0  0
   43.3350   26.4100   47.0700 C   0  0  0  0  0  0  0  0  0  0  0  0
   42.2070   26.1930   46.3350 C   0  0  0  0  0  0  0  0  0  0  0  0
   41.8410   27.1020   45.3550 C   0  0  0  0  0  0  0  0  0  0  0  0
   42.6570   28.2330   45.1490 C   0  0  0  0  0  0  0  0  0  0  0  0
   43.6730   25.7310   47.8520 H   0  0  0  0  0  0  0  0  0  0  0  0
   41.6470   25.2960   46.5680 H   0  0  0  0  0  0  0  0  0  0  0  0
   40.9460   26.8940   44.8010 H   0  0  0  0  0  0  0  0  0  0  0  0
   44.4440   29.5510   45.5660 O   0  0  0  0  0  0  0  0  0  0  0  0
   45.3360   29.4990   45.0760 H   0  0  0  0  0  0  0  0  0  0  0  0
   42.2060   29.0400   44.1800 O   0  0  0  0  0  0  0  0  0  0  0  0
   42.3190   29.1460   42.8250 C   0  0  0  0  0  0  0  0  0  0  0  0
   42.0530   30.6340   42.4930 C   0  0  0  0  0  0  0  0  0  0  0  0
   40.6200   30.7460   43.0260 C   0  0  0  0  0  0  0  0  0  0  0  0
   39.9990   29.3690   42.8240 C   0  0  0  0  0  0  0  0  0  0  0  0
   41.0780   28.5820   42.0910 C   0  0  0  0  0  0  0  0  0  0  0  0
  1 24  1  0  0  0  0
  1  6  1  0  0  0  0
  2  6  1  0  0  0  0
  2  7  1  1  0  0  0
  3  8  1  1  0  0  0
  3  2  1  0  0  0  0
  4  3  1  0  0  0  0
  4  5  1  0  0  0  0
  5  9  1  0  0  0  0
  5 10  1  0  0  0  0
  5  6  1  0  0  0  0
  6 11  1  1  0  0  0
 12 20  1  0  0  0  0
 12 17  1  0  0  0  0
 13 12  2  0  0  0  0
 14 13  1  0  0  0  0
 14 15  2  0  0  0  0
 15 16  1  0  0  0  0
 16 17  2  0  0  0  0
 16  3  1  0  0  0  0
 18 13  1  0  0  0  0
 19 14  1  0  0  0  0
 21 20  1  0  0  0  0
 22 23  1  0  0  0  0
 22  2  1  0  0  0  0
 24 26  1  0  0  0  0
 24 25  1  0  0  0  0
 27 29  1  0  0  0  0
 27 24  1  0  0  0  0
 28 27  1  0  0  0  0
 30 31  1  0  0  0  0
 31 32  2  0  0  0  0
 31 27  1  0  0  0  0
 32 36  1  0  0  0  0
 33 37  1  0  0  0  0
 33 32  1  0  0  0  0
 34 33  2  0  0  0  0
 35 34  1  0  0  0  0
 35 30  2  0  0  0  0
 38 34  1  0  0  0  0
 39 30  1  0  0  0  0
 40 39  1  0  0  0  0
 41 35  1  0  0  0  0
 42 41  1  0  0  0  0
 43 42  1  0  0  0  0
 43 44  1  0  0  0  0
 45 44  1  0  0  0  0
 46 45  1  0  0  0  0
 46 42  1  0  0  0  0
M  END
>  <minimizedAffinity>
-5.94378901

>  <minimizedRMSD>
1.80015981

$$$$
