
     RDKit          3D

 49 52  0  0  0  0  0  0  0  0999 V2000
   44.5738   35.5935   44.6146 C   0  0  0  0  0  0  0  0  0  0  0  0
   45.2291   35.6009   43.3653 C   0  0  0  0  0  0  0  0  0  0  0  0
   46.3179   34.6846   43.1781 C   0  0  0  0  0  0  0  0  0  0  0  0
   46.6614   33.8607   44.2078 N   0  0  0  0  0  0  0  0  0  0  0  0
   46.0086   33.8927   45.3723 C   0  0  0  0  0  0  0  0  0  0  0  0
   44.9671   34.7502   45.5893 N   0  0  0  0  0  0  0  0  0  0  0  0
   46.4221   32.9809   46.4653 C   0  0  2  0  0  0  0  0  0  0  0  0
   46.9722   31.7557   45.7732 C   0  0  0  0  0  0  0  0  0  0  0  0
   46.1047   30.5616   45.7743 C   0  0  0  0  0  0  0  0  0  0  0  0
   45.8201   30.2970   47.2600 C   0  0  0  0  0  0  0  0  0  0  0  0
   45.0229   31.3529   47.8722 C   0  0  0  0  0  0  0  0  0  0  0  0
   45.3817   32.7260   47.4175 C   0  0  0  0  0  0  0  0  0  0  0  0
   44.6804   33.8663   47.9282 N   0  0  0  0  0  0  0  0  0  0  0  0
   47.0040   34.6673   41.9037 C   0  0  0  0  0  0  0  0  0  0  0  0
   48.1576   35.3921   41.7799 C   0  0  0  0  0  0  0  0  0  0  0  0
   48.7759   35.3348   40.5138 C   0  0  0  0  0  0  0  0  0  0  0  0
   48.1616   34.5659   39.5486 C   0  0  0  0  0  0  0  0  0  0  0  0
   47.0193   33.8503   39.6765 C   0  0  0  0  0  0  0  0  0  0  0  0
   46.4452   33.9254   40.9118 N   0  0  0  0  0  0  0  0  0  0  0  0
   46.4662   33.1053   38.6636 O   0  0  0  0  0  0  0  0  0  0  0  0
   43.7630   36.3051   44.6945 H   0  0  0  0  0  0  0  0  0  0  0  0
   44.9813   36.2338   42.5448 H   0  0  0  0  0  0  0  0  0  0  0  0
   47.2719   33.5172   46.9737 H   0  0  0  0  0  0  0  0  0  0  0  0
   47.3038   31.9695   44.7315 H   0  0  0  0  0  0  0  0  0  0  0  0
   47.9056   31.4705   46.3045 H   0  0  0  0  0  0  0  0  0  0  0  0
   46.7220   29.7013   45.4602 H   0  0  0  0  0  0  0  0  0  0  0  0
   45.1953   30.6005   45.1725 H   0  0  0  0  0  0  0  0  0  0  0  0
   45.1741   29.3915   47.2457 H   0  0  0  0  0  0  0  0  0  0  0  0
   46.7711   30.1258   47.7661 H   0  0  0  0  0  0  0  0  0  0  0  0
   44.2363   31.3861   48.5704 H   0  0  0  0  0  0  0  0  0  0  0  0
   45.0035   34.4207   48.7569 H   0  0  0  0  0  0  0  0  0  0  0  0
   43.8213   34.3971   47.7004 H   0  0  0  0  0  0  0  0  0  0  0  0
   48.5738   35.9675   42.5804 H   0  0  0  0  0  0  0  0  0  0  0  0
   49.6798   35.8973   40.4023 H   0  0  0  0  0  0  0  0  0  0  0  0
   48.7256   34.6004   38.6271 H   0  0  0  0  0  0  0  0  0  0  0  0
   46.9753   32.9650   37.3678 C   0  0  0  0  0  0  0  0  0  0  0  0
   46.8424   34.2702   36.5965 C   0  0  0  0  0  0  0  0  0  0  0  0
   47.8327   34.0249   35.4620 C   0  0  0  0  0  0  0  0  0  0  0  0
   49.0343   33.4710   36.1985 C   0  0  0  0  0  0  0  0  0  0  0  0
   48.4876   32.8512   37.4598 C   0  0  0  0  0  0  0  0  0  0  0  0
   46.5576   32.1448   36.7740 H   0  0  0  0  0  0  0  0  0  0  0  0
   47.1787   35.0616   37.2785 H   0  0  0  0  0  0  0  0  0  0  0  0
   45.8284   34.4572   36.2278 H   0  0  0  0  0  0  0  0  0  0  0  0
   48.0930   34.9387   34.9139 H   0  0  0  0  0  0  0  0  0  0  0  0
   47.3679   33.2780   34.7818 H   0  0  0  0  0  0  0  0  0  0  0  0
   49.5592   32.7253   35.5886 H   0  0  0  0  0  0  0  0  0  0  0  0
   49.7258   34.3087   36.4650 H   0  0  0  0  0  0  0  0  0  0  0  0
   48.8625   33.3476   38.3850 H   0  0  0  0  0  0  0  0  0  0  0  0
   48.8052   31.7789   37.5164 H   0  0  0  0  0  0  0  0  0  0  0  0
  1  6  2  0
  2  1  1  0
  3  2  2  0
  3  4  1  0
  4  5  2  0
  5  6  1  0
  5  7  1  0
  7 12  1  0
  8  9  1  0
  8  7  1  0
  9 10  1  0
 10 11  1  0
 12 11  2  0
 12 13  1  0
 14  3  1  0
 15 14  2  0
 16 15  1  0
 17 18  1  0
 17 16  2  0
 18 19  2  0
 19 14  1  0
 20 18  1  0
  1 21  1  0
  2 22  1  0
  7 23  1  1
  8 24  1  0
  8 25  1  0
  9 26  1  0
  9 27  1  0
 10 28  1  0
 10 29  1  0
 11 30  1  0
 13 31  1  0
 13 32  1  0
 15 33  1  0
 16 34  1  0
 17 35  1  0
 36 37  1  0
 37 38  1  0
 38 39  1  0
 39 40  1  0
 40 36  1  0
 36 41  1  0
 37 42  1  0
 37 43  1  0
 38 44  1  0
 38 45  1  0
 39 46  1  0
 39 47  1  0
 40 48  1  0
 40 49  1  0
 20 36  1  0
M  ISO  8  21  14  22  14  23  13  24  13  25  13  26  13  27  13  28  13
M  ISO  5  29  13  30  13  33  14  34  14  35  14
M  END
>  <DihAtoms>  (1) 
17,19,35,36

>  <DihDeg>  (1) 
125.45055134190468

$$$$
