
 OpenBabel03242517003D

 28 30  0  0  0  0  0  0  0  0999 V2000
   46.6610   34.7880   41.9650 C   0  0  0  0  0  0  0  0  0  0  0  0
   47.9470   35.2950   41.9100 C   0  0  0  0  0  0  0  0  0  0  0  0
   48.6760   35.1220   40.7490 C   0  0  0  0  0  0  0  0  0  0  0  0
   48.1250   34.4630   39.6870 C   0  0  0  0  0  0  0  0  0  0  0  0
   46.8590   33.9490   39.7050 C   0  0  0  0  0  0  0  0  0  0  0  0
   46.1360   34.1360   40.8930 C   0  0  0  0  0  0  0  0  0  0  0  0
   48.3870   35.8190   42.7520 H   0  0  0  0  0  0  0  0  0  0  0  0
   49.6820   35.4890   40.6330 H   0  0  0  0  0  0  0  0  0  0  0  0
   48.6970   34.3280   38.7780 H   0  0  0  0  0  0  0  0  0  0  0  0
   46.3870   33.4220   38.8870 H   0  0  0  0  0  0  0  0  0  0  0  0
   44.5260   36.2060   44.7470 C   0  0  0  0  0  0  0  0  0  0  0  0
   45.1840   36.1120   43.5020 C   0  0  0  0  0  0  0  0  0  0  0  0
   45.9360   34.9990   43.2150 C   0  0  0  0  0  0  0  0  0  0  0  0
   46.0040   34.0300   44.1710 N   0  0  0  0  0  0  0  0  0  0  0  0
   45.3790   34.1080   45.3660 C   0  0  0  0  0  0  0  0  0  0  0  0
   44.6310   35.2160   45.6510 N   0  0  0  0  0  0  0  0  0  0  0  0
   43.9330   37.0740   44.9850 H   0  0  0  0  0  0  0  0  0  0  0  0
   45.1140   36.8830   42.7740 H   0  0  0  0  0  0  0  0  0  0  0  0
   45.4990   33.2780   46.0580 H   0  0  0  0  0  0  0  0  0  0  0  0
   43.5120   34.1830   40.8590 C   0  0  0  0  0  0  0  0  0  0  0  0
   43.2480   35.3400   40.4950 O   0  0  0  0  0  0  0  0  0  0  0  0
   44.8140   33.6540   41.0520 N   0  0  0  0  0  0  0  0  0  0  0  0
   45.0030   32.6640   41.3980 H   0  0  0  0  0  0  0  0  0  0  0  0
   42.4260   33.1700   41.1480 C   0  0  0  0  0  3  0  0  0  0  0  0
   42.4420   32.2450   39.9460 C   0  0  0  0  0  2  0  0  0  0  0  0
   41.3810   32.7250   38.9960 C   0  0  0  0  0  2  0  0  0  0  0  0
   40.5960   33.7930   39.7080 C   0  0  0  0  0  2  0  0  0  0  0  0
   41.1280   33.9060   41.1090 C   0  0  0  0  0  2  0  0  0  0  0  0
  1 13  1  0  0  0  0
  2  1  1  0  0  0  0
  2  7  1  0  0  0  0
  3  2  2  0  0  0  0
  4  5  2  0  0  0  0
  4  3  1  0  0  0  0
  5  6  1  0  0  0  0
  6 22  1  0  0  0  0
  6  1  2  0  0  0  0
  8  3  1  0  0  0  0
  9  4  1  0  0  0  0
 10  5  1  0  0  0  0
 11 17  1  0  0  0  0
 11 16  1  0  0  0  0
 12 11  2  0  0  0  0
 13 12  1  0  0  0  0
 13 14  2  0  0  0  0
 14 15  1  0  0  0  0
 15 16  2  0  0  0  0
 15 19  1  0  0  0  0
 18 12  1  0  0  0  0
 20 22  1  0  0  0  0
 20 24  1  0  0  0  0
 21 20  2  0  0  0  0
 22 23  1  0  0  0  0
 25 24  1  0  0  0  0
 26 27  1  0  0  0  0
 26 25  1  0  0  0  0
 27 28  1  0  0  0  0
 28 24  1  0  0  0  0
M  END
>  <minimizedAffinity>
-5.95263958

>  <minimizedRMSD>
0.724371672

$$$$
