
 OpenBabel03252508343D

 31 33  0  0  1  0  0  0  0  0999 V2000
   44.8450   33.9810   41.7640 N   0  0  0  0  0  0  0  0  0  0  0  0
   46.0840   33.7050   41.0900 C   0  0  1  0  0  0  0  0  0  0  0  0
   45.9130   33.4350   39.6300 C   0  0  0  0  0  0  0  0  0  0  0  0
   44.7940   32.6930   39.2530 N   0  0  0  0  0  0  0  0  0  0  0  0
   43.6420   32.7770   40.0450 C   0  0  0  0  0  0  0  0  0  0  0  0
   43.6830   34.0120   40.9420 C   0  0  0  0  0  0  0  0  0  0  0  0
   46.5920   32.8520   41.6090 H   0  0  0  0  0  0  0  0  0  0  0  0
   46.8370   32.9800   39.2270 H   0  0  0  0  0  0  0  0  0  0  0  0
   45.8540   34.4400   39.1170 H   0  0  0  0  0  0  0  0  0  0  0  0
   44.5320   32.9420   38.2520 H   0  0  0  0  0  0  0  0  0  0  0  0
   43.6350   31.9110   40.7690 H   0  0  0  0  0  0  0  0  0  0  0  0
   42.6810   32.7110   39.5210 H   0  0  0  0  0  0  0  0  0  0  0  0
   43.6440   34.9400   40.3340 H   0  0  0  0  0  0  0  0  0  0  0  0
   42.7910   33.9960   41.6260 H   0  0  0  0  0  0  0  0  0  0  0  0
   44.4050   35.3880   43.6390 C   0  0  0  0  0  0  0  0  0  0  0  0
   44.9050   34.1890   43.1530 C   0  0  0  0  0  0  0  0  0  0  0  0
   45.4310   33.2820   44.0970 C   0  0  0  0  0  0  0  0  0  0  0  0
   45.4290   33.6060   45.4110 N   0  0  0  0  0  0  0  0  0  0  0  0
   44.9340   34.7780   45.8360 C   0  0  0  0  0  0  0  0  0  0  0  0
   44.4320   35.6530   44.9670 N   0  0  0  0  0  0  0  0  0  0  0  0
   43.9780   36.1630   43.0330 H   0  0  0  0  0  0  0  0  0  0  0  0
   45.8040   32.3710   43.6710 H   0  0  0  0  0  0  0  0  0  0  0  0
   44.9780   34.9460   46.9080 H   0  0  0  0  0  0  0  0  0  0  0  0
   46.9660   34.9240   41.2130 C   0  0  0  0  0  0  0  0  0  0  0  0
   47.0110   35.1640   42.3020 H   0  0  0  0  0  0  0  0  0  0  0  0
   46.5400   35.7770   40.6840 H   0  0  0  0  0  0  0  0  0  0  0  0
   48.3900   34.6610   40.7960 C   0  0  0  0  0  0  0  0  0  0  0  0
   49.1990   35.8540   41.3200 C   0  0  0  0  0  0  0  0  0  0  0  0
   49.7230   35.3540   42.6310 C   0  0  0  0  0  0  0  0  0  0  0  0
   50.1300   33.9430   42.3280 C   0  0  0  0  0  0  0  0  0  0  0  0
   48.9830   33.4650   41.4600 C   0  0  0  0  0  0  0  0  0  0  0  0
  1 16  1  0  0  0  0
  2 24  1  0  0  0  0
  2  7  1  1  0  0  0
  2  1  1  0  0  0  0
  3  2  1  0  0  0  0
  4  3  1  0  0  0  0
  4  5  1  0  0  0  0
  5 11  1  0  0  0  0
  5  6  1  0  0  0  0
  6 14  1  0  0  0  0
  6  1  1  0  0  0  0
  8  3  1  0  0  0  0
  9  3  1  0  0  0  0
 10  4  1  0  0  0  0
 12  5  1  0  0  0  0
 13  6  1  0  0  0  0
 15 20  1  0  0  0  0
 16 15  2  0  0  0  0
 16 17  1  0  0  0  0
 17 18  2  0  0  0  0
 18 19  1  0  0  0  0
 19 23  1  0  0  0  0
 20 19  2  0  0  0  0
 21 15  1  0  0  0  0
 22 17  1  0  0  0  0
 24 25  1  0  0  0  0
 26 24  1  0  0  0  0
 27 24  1  0  0  0  0
 27 28  1  0  0  0  0
 27 31  1  0  0  0  0
 28 29  1  0  0  0  0
 30 29  1  0  0  0  0
 31 30  1  0  0  0  0
M  END
>  <minimizedAffinity>
-5.04854631

>  <minimizedRMSD>
1.51955938

$$$$
