
     RDKit          3D

 48 51  0  0  0  0  0  0  0  0999 V2000
   45.7898   34.1164   41.0764 C   0  0  0  0  0  0  0  0  0  0  0  0
   46.4243   34.7566   42.1591 C   0  0  0  0  0  0  0  0  0  0  0  0
   47.7680   35.0939   41.9746 C   0  0  0  0  0  0  0  0  0  0  0  0
   48.3816   34.7989   40.7983 N   0  0  0  0  0  0  0  0  0  0  0  0
   47.7324   34.1914   39.8061 C   0  0  0  0  0  0  0  0  0  0  0  0
   46.4354   33.8491   39.9435 N   0  0  0  0  0  0  0  0  0  0  0  0
   45.6920   35.0281   43.3670 C   0  0  0  0  0  0  0  0  0  0  0  0
   45.0414   36.2397   43.6041 C   0  0  0  0  0  0  0  0  0  0  0  0
   44.4796   36.0756   44.8514 C   0  0  0  0  0  0  0  0  0  0  0  0
   44.7644   34.8574   45.3401 N   0  0  0  0  0  0  0  0  0  0  0  0
   45.4903   34.2537   44.4311 N   0  0  0  0  0  0  0  0  0  0  0  0
   44.4682   33.7717   41.2263 O   0  0  0  0  0  0  0  0  0  0  0  0
   43.3881   34.4855   40.7668 C   0  0  0  0  0  0  0  0  0  0  0  0
   43.2976   35.7271   40.5496 O   0  0  0  0  0  0  0  0  0  0  0  0
   42.0452   34.0614   40.3941 N   0  0  0  0  0  0  0  0  0  0  0  0
   41.6849   34.3639   39.0138 C   0  0  0  0  0  0  0  0  0  0  0  0
   40.8389   35.6272   39.0924 C   0  0  0  0  0  0  0  0  0  0  0  0
   40.0255   35.5343   40.3842 C   0  0  0  0  0  0  0  0  0  0  0  0
   39.7238   34.0907   40.7387 C   0  0  0  0  0  0  0  0  0  0  0  0
   41.0305   33.3946   41.1776 C   0  0  1  0  0  0  0  0  0  0  0  0
   48.2599   35.5902   42.8140 H   0  0  0  0  0  0  0  0  0  0  0  0
   48.2079   33.9489   38.8606 H   0  0  0  0  0  0  0  0  0  0  0  0
   44.9881   37.1049   42.9638 H   0  0  0  0  0  0  0  0  0  0  0  0
   43.8927   36.8651   45.3268 H   0  0  0  0  0  0  0  0  0  0  0  0
   44.4190   34.5442   46.2898 H   0  0  0  0  0  0  0  0  0  0  0  0
   42.5629   34.4793   38.3616 H   0  0  0  0  0  0  0  0  0  0  0  0
   41.0564   33.5161   38.6197 H   0  0  0  0  0  0  0  0  0  0  0  0
   40.1773   35.7384   38.2161 H   0  0  0  0  0  0  0  0  0  0  0  0
   41.5239   36.5038   39.1746 H   0  0  0  0  0  0  0  0  0  0  0  0
   39.0697   36.0272   40.1747 H   0  0  0  0  0  0  0  0  0  0  0  0
   40.5040   36.0851   41.2211 H   0  0  0  0  0  0  0  0  0  0  0  0
   39.2896   33.6194   39.8457 H   0  0  0  0  0  0  0  0  0  0  0  0
   39.0279   34.1504   41.6115 H   0  0  0  0  0  0  0  0  0  0  0  0
   41.1426   33.5892   42.2534 H   0  0  0  0  0  0  0  0  0  0  0  0
   40.8296   31.9446   40.8493 C   0  0  0  0  0  0  0  0  0  0  0  0
   42.0252   31.2191   40.3506 C   0  0  0  0  0  0  0  0  0  0  0  0
   41.6487   29.7532   40.6107 C   0  0  0  0  0  0  0  0  0  0  0  0
   41.1858   29.8667   42.0536 C   0  0  0  0  0  0  0  0  0  0  0  0
   40.5672   31.2440   42.1824 C   0  0  0  0  0  0  0  0  0  0  0  0
   39.9740   31.7569   40.1906 H   0  0  0  0  0  0  0  0  0  0  0  0
   42.9406   31.3934   40.9158 H   0  0  0  0  0  0  0  0  0  0  0  0
   42.1814   31.2931   39.2552 H   0  0  0  0  0  0  0  0  0  0  0  0
   40.8803   29.3874   39.9307 H   0  0  0  0  0  0  0  0  0  0  0  0
   42.5480   29.1183   40.5888 H   0  0  0  0  0  0  0  0  0  0  0  0
   40.4910   29.0709   42.3589 H   0  0  0  0  0  0  0  0  0  0  0  0
   42.0794   29.8059   42.7246 H   0  0  0  0  0  0  0  0  0  0  0  0
   41.0691   31.8026   42.9988 H   0  0  0  0  0  0  0  0  0  0  0  0
   39.4861   31.1081   42.3587 H   0  0  0  0  0  0  0  0  0  0  0  0
  1 12  1  0
  1  2  1  0
  2  7  1  0
  3  2  2  0
  4  3  1  0
  5  6  1  0
  5  4  2  0
  6  1  2  0
  7  8  1  0
  7 11  2  0
  8  9  2  0
  9 10  1  0
 11 10  1  0
 13 12  1  0
 14 13  2  0
 15 13  1  0
 15 20  1  0
 16 17  1  0
 16 15  1  0
 17 18  1  0
 18 19  1  0
 19 20  1  0
  3 21  1  0
  5 22  1  0
  8 23  1  0
  9 24  1  0
 10 25  1  0
 16 26  1  0
 16 27  1  0
 17 28  1  0
 17 29  1  0
 18 30  1  0
 18 31  1  0
 19 32  1  0
 19 33  1  0
 20 34  1  1
 35 36  1  0
 36 37  1  0
 37 38  1  0
 38 39  1  0
 39 35  1  0
 35 40  1  0
 36 41  1  0
 36 42  1  0
 37 43  1  0
 37 44  1  0
 38 45  1  0
 38 46  1  0
 39 47  1  0
 39 48  1  0
 20 35  1  0
M  ISO  8  21  14  22  14  23  14  24  14  25   9  26  13  27  13  28  13
M  ISO  6  29  13  30  13  31  13  32  13  33  13  34  13
M  END
>  <DihAtoms>  (1) 
14,19,34,35

>  <DihDeg>  (1) 
59.92243570281032

$$$$
