
 OpenBabel03252509293D

 17 18  0  0  0  0  0  0  0  0999 V2000
   44.5350   36.0600   44.4630 C   0  0  0  0  0  0  0  0  0  0  0  0
   45.3610   35.8660   43.3280 C   0  0  0  0  0  0  0  0  0  0  0  0
   46.2210   34.7670   43.3570 C   0  0  0  0  0  0  0  0  0  0  0  0
   46.2280   33.9470   44.4570 N   0  0  0  0  0  0  0  0  0  0  0  0
   45.4090   34.1920   45.5120 C   0  0  0  0  0  0  0  0  0  0  0  0
   44.5740   35.2340   45.5170 N   0  0  0  0  0  0  0  0  0  0  0  0
   43.8610   36.8980   44.4750 H   0  0  0  0  0  0  0  0  0  0  0  0
   45.3080   36.5500   42.4930 H   0  0  0  0  0  0  0  0  0  0  0  0
   45.5030   33.4790   46.3200 H   0  0  0  0  0  0  0  0  0  0  0  0
   47.0790   34.5530   42.1930 C   0  0  0  0  0  0  0  0  0  0  0  0
   47.2620   35.4980   41.6580 H   0  0  0  0  0  0  0  0  0  0  0  0
   46.6540   33.7530   41.5360 H   0  0  0  0  0  0  0  0  0  0  0  0
   48.3970   34.0150   42.7080 C   0  0  0  0  0  3  0  0  0  0  0  0
   48.7070   32.6690   42.1080 C   0  0  0  0  0  2  0  0  0  0  0  0
   50.1410   32.7280   41.6140 C   0  0  0  0  0  2  0  0  0  0  0  0
   50.7060   33.8620   42.4830 C   0  0  0  0  0  2  0  0  0  0  0  0
   49.5670   34.8530   42.3010 C   0  0  0  0  0  2  0  0  0  0  0  0
  1  7  1  0  0  0  0
  1  6  1  0  0  0  0
  2  3  1  0  0  0  0
  2  1  2  0  0  0  0
  3  4  2  0  0  0  0
  4  5  1  0  0  0  0
  5  6  2  0  0  0  0
  5  9  1  0  0  0  0
  8  2  1  0  0  0  0
 10 13  1  0  0  0  0
 10  3  1  0  0  0  0
 11 10  1  0  0  0  0
 12 10  1  0  0  0  0
 14 13  1  0  0  0  0
 15 14  1  0  0  0  0
 15 16  1  0  0  0  0
 17 16  1  0  0  0  0
 17 13  1  0  0  0  0
M  END
>  <minimizedAffinity>
-4.41936016

>  <minimizedRMSD>
0.939261138

$$$$
