
     RDKit          3D

 33 35  0  0  0  0  0  0  0  0999 V2000
   44.9600   35.9993   43.2717 Cl  0  0  0  0  0  0  0  0  0  0  0  0
   45.6676   34.6949   44.1465 C   0  0  0  0  0  0  0  0  0  0  0  0
   46.6890   33.9405   43.6135 C   0  0  0  0  0  0  0  0  0  0  0  0
   47.1851   32.9266   44.3880 C   0  0  0  0  0  0  0  0  0  0  0  0
   46.7549   32.5952   45.6491 C   0  0  0  0  0  0  0  0  0  0  0  0
   45.7208   33.3709   46.1690 C   0  0  0  0  0  0  0  0  0  0  0  0
   45.1647   32.9432   47.7791 Cl  0  0  0  0  0  0  0  0  0  0  0  0
   45.1819   34.4056   45.4340 C   0  0  0  0  0  0  0  0  0  0  0  0
   48.7645   35.4032   40.9796 C   0  0  0  0  0  0  0  0  0  0  0  0
   48.2644   34.7999   39.8051 C   0  0  0  0  0  0  0  0  0  0  0  0
   47.2066   33.8840   39.9315 C   0  0  0  0  0  0  0  0  0  0  0  0
   46.7260   33.6323   41.1826 N   0  0  0  0  0  0  0  0  0  0  0  0
   47.2198   34.2186   42.2725 C   0  0  0  0  0  0  0  0  0  0  0  0
   48.2477   35.1139   42.1879 N   0  0  0  0  0  0  0  0  0  0  0  0
   47.9890   32.3584   43.9229 H   0  0  0  0  0  0  0  0  0  0  0  0
   44.3817   34.9889   45.8636 H   0  0  0  0  0  0  0  0  0  0  0  0
   49.5765   36.1142   40.9408 H   0  0  0  0  0  0  0  0  0  0  0  0
   48.6744   35.0304   38.8518 H   0  0  0  0  0  0  0  0  0  0  0  0
   46.7770   33.3852   39.0629 H   0  0  0  0  0  0  0  0  0  0  0  0
   47.3300   31.4951   46.4219 C   0  0  0  0  0  0  0  0  0  0  0  0
   47.2726   31.6282   47.8944 C   0  0  0  0  0  0  0  0  0  0  0  0
   47.0627   30.2058   48.3721 C   0  0  0  0  0  0  0  0  0  0  0  0
   46.0525   29.6875   47.3433 C   0  0  0  0  0  0  0  0  0  0  0  0
   46.7214   30.1563   46.0666 C   0  0  0  0  0  0  0  0  0  0  0  0
   48.4254   31.4589   46.1443 H   0  0  0  0  0  0  0  0  0  0  0  0
   46.4483   32.2199   48.2954 H   0  0  0  0  0  0  0  0  0  0  0  0
   48.2217   31.9811   48.3665 H   0  0  0  0  0  0  0  0  0  0  0  0
   47.9732   29.5827   48.3027 H   0  0  0  0  0  0  0  0  0  0  0  0
   46.6039   30.2220   49.3694 H   0  0  0  0  0  0  0  0  0  0  0  0
   45.0777   30.1687   47.4596 H   0  0  0  0  0  0  0  0  0  0  0  0
   46.0257   28.5920   47.2930 H   0  0  0  0  0  0  0  0  0  0  0  0
   47.5226   29.4231   45.8027 H   0  0  0  0  0  0  0  0  0  0  0  0
   45.9901   30.2646   45.2594 H   0  0  0  0  0  0  0  0  0  0  0  0
  1  2  1  0
  2  8  2  0
  3  2  1  0
  3  4  2  0
  4  5  1  0
  5  6  2  0
  6  7  1  0
  8  6  1  0
  9 14  2  0
 10 11  2  0
 10  9  1  0
 11 12  1  0
 12 13  2  0
 13  3  1  0
 14 13  1  0
  4 15  1  0
  8 16  1  0
  9 17  1  0
 10 18  1  0
 11 19  1  0
 20 21  1  0
 21 22  1  0
 22 23  1  0
 23 24  1  0
 24 20  1  0
 20 25  1  0
 21 26  1  0
 21 27  1  0
 22 28  1  0
 22 29  1  0
 23 30  1  0
 23 31  1  0
 24 32  1  0
 24 33  1  0
  5 20  1  0
M  ISO  5  15  14  16  14  17  14  18  14  19  14
M  END
>  <DihAtoms>  (1) 
3,4,19,20

>  <DihDeg>  (1) 
-88.11916013511446

$$$$
