
 OpenBabel03242513543D

 15 16  0  0  0  0  0  0  0  0999 V2000
   44.9970   34.8840   44.7650 C   0  0  0  0  0  0  0  0  0  0  0  0
   45.8280   34.5490   43.6830 C   0  0  0  0  0  0  0  0  0  0  0  0
   46.7780   33.5680   43.9400 C   0  0  0  0  0  0  0  0  0  0  0  0
   46.8690   32.9980   45.1560 N   0  0  0  0  0  0  0  0  0  0  0  0
   46.0490   33.3480   46.1750 C   0  0  0  0  0  0  0  0  0  0  0  0
   45.1210   34.2940   45.9540 N   0  0  0  0  0  0  0  0  0  0  0  0
   44.2630   35.6510   44.5440 H   0  0  0  0  0  0  0  0  0  0  0  0
   47.4710   33.2320   43.1800 H   0  0  0  0  0  0  0  0  0  0  0  0
   46.1080   32.9010   47.1560 H   0  0  0  0  0  0  0  0  0  0  0  0
   45.7180   35.1420   42.4520 O   0  0  0  0  0  0  0  0  0  0  0  0
   44.8220   34.8560   41.4330 C   0  0  0  0  0  0  0  0  0  0  0  0
   44.1780   33.5030   41.7630 C   0  0  0  0  0  0  0  0  0  0  0  0
   42.7560   33.5740   41.2340 C   0  0  0  0  0  0  0  0  0  0  0  0
   42.6720   34.9240   40.5190 C   0  0  0  0  0  0  0  0  0  0  0  0
   43.5910   35.7330   41.4390 C   0  0  0  0  0  0  0  0  0  0  0  0
  1  6  1  0  0  0  0
  2  3  1  0  0  0  0
  2  1  2  0  0  0  0
  3  4  2  0  0  0  0
  4  5  1  0  0  0  0
  5  9  1  0  0  0  0
  6  5  2  0  0  0  0
  7  1  1  0  0  0  0
  8  3  1  0  0  0  0
 10  2  1  0  0  0  0
 11 15  1  0  0  0  0
 11 12  1  0  0  0  0
 11 10  1  0  0  0  0
 13 12  1  0  0  0  0
 14 13  1  0  0  0  0
 14 15  1  0  0  0  0
M  END
>  <minimizedAffinity>
-3.54241014

>  <minimizedRMSD>
2.2631042

$$$$
