
 OpenBabel03252501283D

 38 42  0  0  0  0  0  0  0  0999 V2000
   44.9230   33.9160   42.5520 C   0  0  0  0  0  0  0  0  0  0  0  0
   45.0080   35.2970   42.5020 C   0  0  0  0  0  0  0  0  0  0  0  0
   43.8790   35.7870   41.9170 C   0  0  0  0  0  0  0  0  0  0  0  0
   43.1160   34.7130   41.6150 N   0  0  0  0  0  0  0  0  0  0  0  0
   43.7450   33.6090   41.9960 N   0  0  0  0  0  0  0  0  0  0  0  0
   45.8400   35.8990   42.8690 H   0  0  0  0  0  0  0  0  0  0  0  0
   43.5780   36.8060   41.7020 H   0  0  0  0  0  0  0  0  0  0  0  0
   42.0110   32.4760   40.2890 F   0  0  0  0  0  0  0  0  0  0  0  0
   41.3190   33.6130   40.3560 C   0  0  0  0  0  0  0  0  0  0  0  0
   41.8600   34.6950   41.0010 C   0  0  0  0  0  0  0  0  0  0  0  0
   41.1360   35.8970   41.0770 C   0  0  0  0  0  0  0  0  0  0  0  0
   39.8970   36.0350   40.5280 C   0  0  0  0  0  0  0  0  0  0  0  0
   39.3720   34.9310   39.8830 C   0  0  0  0  0  0  0  0  0  0  0  0
   40.0700   33.7290   39.7940 C   0  0  0  0  0  0  0  0  0  0  0  0
   41.5370   36.7710   41.5810 H   0  0  0  0  0  0  0  0  0  0  0  0
   39.3200   36.9490   40.5720 H   0  0  0  0  0  0  0  0  0  0  0  0
   38.3890   35.0000   39.4320 H   0  0  0  0  0  0  0  0  0  0  0  0
   39.4240   32.6280   39.0930 C   0  0  0  0  0  0  0  0  0  0  0  0
   39.2070   32.4010   37.7550 C   0  0  0  0  0  0  0  0  0  0  0  0
   38.5560   31.2230   37.5810 N   0  0  0  0  0  0  0  0  0  0  0  0
   38.3650   30.7140   38.8010 C   0  0  0  0  0  0  0  0  0  0  0  0
   38.8840   31.5530   39.7050 N   0  0  0  0  0  0  0  0  0  0  0  0
   39.5610   33.1500   37.0310 H   0  0  0  0  0  0  0  0  0  0  0  0
   38.3290   30.9310   36.6110 H   0  0  0  0  0  0  0  0  0  0  0  0
   37.8710   29.7820   38.9380 H   0  0  0  0  0  0  0  0  0  0  0  0
   46.7720   31.8200   44.9100 C   0  0  0  0  0  0  0  0  0  0  0  0
   47.8380   31.3410   44.1220 C   0  0  0  0  0  0  0  0  0  0  0  0
   47.9010   31.7510   42.7850 C   0  0  0  0  0  0  0  0  0  0  0  0
   46.9370   32.5730   42.3480 N   0  0  0  0  0  0  0  0  0  0  0  0
   45.9200   33.0320   43.0980 C   0  0  0  0  0  0  0  0  0  0  0  0
   45.8340   32.6500   44.4010 N   0  0  0  0  0  0  0  0  0  0  0  0
   46.7660   31.4800   45.9230 H   0  0  0  0  0  0  0  0  0  0  0  0
   48.6040   30.6840   44.4750 H   0  0  0  0  0  0  0  0  0  0  0  0
   48.9630   31.3310   41.8310 C   0  0  0  0  0  0  0  0  0  0  0  0
   50.0270   30.6100   42.6120 C   0  0  0  0  0  0  0  0  0  0  0  0
   51.2750   31.4720   42.5260 C   0  0  0  0  0  0  0  0  0  0  0  0
   50.7830   32.8780   42.2060 C   0  0  0  0  0  0  0  0  0  0  0  0
   49.6550   32.5680   41.2470 C   0  0  0  0  0  0  0  0  0  0  0  0
  1 30  1  0  0  0  0
  2  1  1  0  0  0  0
  2  6  1  0  0  0  0
  3  2  2  0  0  0  0
  4  3  1  0  0  0  0
  4  5  1  0  0  0  0
  5  1  2  0  0  0  0
  7  3  1  0  0  0  0
  8  9  1  0  0  0  0
  9 10  1  0  0  0  0
 10 11  2  0  0  0  0
 10  4  1  0  0  0  0
 11 15  1  0  0  0  0
 12 16  1  0  0  0  0
 12 11  1  0  0  0  0
 13 12  2  0  0  0  0
 14 13  1  0  0  0  0
 14  9  2  0  0  0  0
 17 13  1  0  0  0  0
 18 22  1  0  0  0  0
 18 14  1  0  0  0  0
 19 18  2  0  0  0  0
 20 19  1  0  0  0  0
 20 21  1  0  0  0  0
 21 25  1  0  0  0  0
 21 22  2  0  0  0  0
 23 19  1  0  0  0  0
 24 20  1  0  0  0  0
 26 32  1  0  0  0  0
 27 33  1  0  0  0  0
 27 26  2  0  0  0  0
 28 27  1  0  0  0  0
 29 28  2  0  0  0  0
 29 30  1  0  0  0  0
 30 31  2  0  0  0  0
 31 26  1  0  0  0  0
 34 35  1  0  0  0  0
 34 28  1  0  0  0  0
 36 35  1  0  0  0  0
 37 36  1  0  0  0  0
 38 34  1  0  0  0  0
 38 37  1  0  0  0  0
M  END
>  <minimizedAffinity>
-5.85556126

>  <minimizedRMSD>
5.5641098

$$$$
