
     RDKit          3D

 39 41  0  0  0  0  0  0  0  0999 V2000
   46.8450   34.8848   42.7106 C   0  0  0  0  0  0  0  0  0  0  0  0
   48.0542   34.5559   42.0812 C   0  0  0  0  0  0  0  0  0  0  0  0
   48.7680   33.4616   42.5960 C   0  0  0  0  0  0  0  0  0  0  0  0
   48.2353   32.8040   43.6633 N   0  0  0  0  0  0  0  0  0  0  0  0
   47.0828   33.1457   44.2354 C   0  0  0  0  0  0  0  0  0  0  0  0
   46.3897   34.1880   43.7556 N   0  0  0  0  0  0  0  0  0  0  0  0
   46.0023   30.3672   43.5962 Cl  0  0  0  0  0  0  0  0  0  0  0  0
   46.0621   31.1256   45.1883 C   0  0  0  0  0  0  0  0  0  0  0  0
   46.5719   32.3935   45.3788 C   0  0  0  0  0  0  0  0  0  0  0  0
   46.6049   32.9592   46.6363 C   0  0  0  0  0  0  0  0  0  0  0  0
   46.1228   32.2540   47.7264 C   0  0  0  0  0  0  0  0  0  0  0  0
   45.6243   30.9969   47.4955 C   0  0  0  0  0  0  0  0  0  0  0  0
   45.0152   30.1070   48.8766 Cl  0  0  0  0  0  0  0  0  0  0  0  0
   45.5754   30.4040   46.2645 C   0  0  0  0  0  0  0  0  0  0  0  0
   48.5274   35.3321   40.9443 C   0  0  0  0  0  0  0  0  0  0  0  0
   48.1188   34.5905   39.6742 C   0  0  0  0  0  0  0  0  0  0  0  0
   46.2345   35.7173   42.3722 H   0  0  0  0  0  0  0  0  0  0  0  0
   49.7012   33.1648   42.1525 H   0  0  0  0  0  0  0  0  0  0  0  0
   47.0025   33.9573   46.8088 H   0  0  0  0  0  0  0  0  0  0  0  0
   46.1512   32.7026   48.7106 H   0  0  0  0  0  0  0  0  0  0  0  0
   45.1793   29.4181   46.1140 H   0  0  0  0  0  0  0  0  0  0  0  0
   48.0795   36.3333   40.9844 H   0  0  0  0  0  0  0  0  0  0  0  0
   49.6294   35.4328   40.9073 H   0  0  0  0  0  0  0  0  0  0  0  0
   48.4506   33.5524   39.6869 H   0  0  0  0  0  0  0  0  0  0  0  0
   47.0121   34.5624   39.5999 H   0  0  0  0  0  0  0  0  0  0  0  0
   48.6108   35.3992   38.5069 C   0  0  0  0  0  0  0  0  0  0  0  0
   49.0099   36.8111   38.8799 C   0  0  0  0  0  0  0  0  0  0  0  0
   49.7073   37.2490   37.5848 C   0  0  0  0  0  0  0  0  0  0  0  0
   50.5327   36.0483   37.2381 C   0  0  0  0  0  0  0  0  0  0  0  0
   49.8987   34.8616   37.9299 C   0  0  0  0  0  0  0  0  0  0  0  0
   47.8359   35.4073   37.7300 H   0  0  0  0  0  0  0  0  0  0  0  0
   49.7640   36.7432   39.6639 H   0  0  0  0  0  0  0  0  0  0  0  0
   48.1478   37.4703   39.1005 H   0  0  0  0  0  0  0  0  0  0  0  0
   50.3137   38.1593   37.7597 H   0  0  0  0  0  0  0  0  0  0  0  0
   48.8973   37.4439   36.8514 H   0  0  0  0  0  0  0  0  0  0  0  0
   51.5767   36.2340   37.5337 H   0  0  0  0  0  0  0  0  0  0  0  0
   50.4588   35.9036   36.1212 H   0  0  0  0  0  0  0  0  0  0  0  0
   49.6506   34.0736   37.1775 H   0  0  0  0  0  0  0  0  0  0  0  0
   50.5656   34.4767   38.7472 H   0  0  0  0  0  0  0  0  0  0  0  0
  1  6  2  0
  2  3  2  0
  2  1  1  0
  3  4  1  0
  4  5  2  0
  5  9  1  0
  6  5  1  0
  7  8  1  0
  8  9  2  0
  8 14  1  0
  9 10  1  0
 10 11  2  0
 12 11  1  0
 12 13  1  0
 14 12  2  0
 15  2  1  0
 16 15  1  0
  1 17  1  0
  3 18  1  0
 10 19  1  0
 11 20  1  0
 14 21  1  0
 15 22  1  0
 15 23  1  0
 16 24  1  0
 16 25  1  0
 26 27  1  0
 27 28  1  0
 28 29  1  0
 29 30  1  0
 30 26  1  0
 26 31  1  0
 27 32  1  0
 27 33  1  0
 28 34  1  0
 28 35  1  0
 29 36  1  0
 29 37  1  0
 30 38  1  0
 30 39  1  0
 16 26  1  0
M  ISO  8  17  14  18  14  19  14  20  14  21  14  22   8  23   8  24   8
M  ISO  1  25   8
M  END
>  <DihAtoms>  (1) 
14,15,25,26

>  <DihDeg>  (1) 
60.006915845126876

$$$$
