
 OpenBabel03252502173D

 20 21  0  0  0  0  0  0  0  0999 V2000
   46.4070   35.2010   42.6230 C   0  0  0  0  0  0  0  0  0  0  0  0
   46.8800   34.0970   43.3520 C   0  0  0  0  0  0  0  0  0  0  0  0
   46.2840   33.7890   44.5750 C   0  0  0  0  0  0  0  0  0  0  0  0
   45.2580   34.5930   44.9990 N   0  0  0  0  0  0  0  0  0  0  0  0
   44.8270   35.6420   44.2800 C   0  0  0  0  0  0  0  0  0  0  0  0
   45.4010   35.9530   43.0840 N   0  0  0  0  0  0  0  0  0  0  0  0
   46.8330   35.4820   41.6690 H   0  0  0  0  0  0  0  0  0  0  0  0
   44.0110   36.2720   44.6300 H   0  0  0  0  0  0  0  0  0  0  0  0
   46.7320   32.6560   45.3680 C   0  0  0  0  0  3  0  0  0  0  0  0
   46.0670   31.3460   45.0180 C   0  0  0  0  0  2  0  0  0  0  0  0
   46.2690   30.5670   46.3020 C   0  0  0  0  0  2  0  0  0  0  0  0
   45.8510   31.6200   47.3360 C   0  0  0  0  0  2  0  0  0  0  0  0
   46.6970   32.8050   46.8480 C   0  0  0  0  0  2  0  0  0  0  0  0
   47.9210   33.3700   42.8100 O   0  0  0  0  0  0  0  0  0  0  0  0
   50.3820   33.1350   41.8720 O   0  0  0  0  0  0  0  0  0  0  0  0
   49.3250   34.1450   42.1870 P   0  0  0  0  0  0  0  0  0  0  0  0
   48.9760   34.9750   40.7530 O   0  0  0  0  0  0  0  0  0  0  0  0
   48.6300   34.3980   40.0520 H   0  0  0  0  0  0  0  0  0  0  0  0
   49.9220   35.2490   43.3190 O   0  0  0  0  0  0  0  0  0  0  0  0
   49.4030   36.0990   43.1790 H   0  0  0  0  0  0  0  0  0  0  0  0
  1  6  2  0  0  0  0
  1  2  1  0  0  0  0
  2  3  2  0  0  0  0
  3  4  1  0  0  0  0
  3  9  1  0  0  0  0
  5  8  1  0  0  0  0
  5  4  2  0  0  0  0
  6  5  1  0  0  0  0
  7  1  1  0  0  0  0
  9 13  1  0  0  0  0
 10  9  1  0  0  0  0
 10 11  1  0  0  0  0
 11 12  1  0  0  0  0
 13 12  1  0  0  0  0
 14  2  1  0  0  0  0
 15 16  2  0  0  0  0
 16 14  1  0  0  0  0
 16 19  1  0  0  0  0
 17 16  1  0  0  0  0
 18 17  1  0  0  0  0
 20 19  1  0  0  0  0
M  END
>  <minimizedAffinity>
-5.26075888

>  <minimizedRMSD>
0.704256952

$$$$
