REMARK  Name = 
REMARK  5 active torsions:
REMARK  status: ('A' for Active; 'I' for Inactive)
REMARK    1  A    between atoms: C_1  and  C_2
REMARK    2  A    between atoms: C_1  and  C_9
REMARK    3  A    between atoms: C_4  and  C_5
REMARK    4  A    between atoms: C_8  and  C_14
REMARK    5  A    between atoms: C_12  and  C_31
REMARK                            x       y       z     vdW  Elec       q    Type
REMARK                         _______ _______ _______ _____ _____    ______ ____
ROOT
ATOM      1  C   UNL     1      47.143  31.275  46.718  0.00  0.00    +0.000 C 
ATOM      2  H   UNL     1      48.228  31.053  46.624  0.00  0.00    +0.000 HD
ATOM      3  H   UNL     1      46.559  30.381  46.501  0.00  0.00    +0.000 HD
ENDROOT
BRANCH   1   4
ATOM      4  C   UNL     1      46.780  31.777  48.095  0.00  0.00    +0.000 C 
ATOM      5  C   UNL     1      46.184  30.790  49.032  0.00  0.00    +0.000 C 
ATOM      6  C   UNL     1      47.524  31.288  49.281  0.00  0.00    +0.000 C 
ATOM      7  H   UNL     1      46.496  32.855  48.154  0.00  0.00    +0.000 HD
ATOM      8  H   UNL     1      45.342  31.059  49.698  0.00  0.00    +0.000 HD
ATOM      9  H   UNL     1      46.106  29.732  48.661  0.00  0.00    +0.000 HD
ATOM     10  H   UNL     1      47.602  31.980  50.176  0.00  0.00    +0.000 HD
BRANCH   6  11
ATOM     11  C   UNL     1      48.762  30.514  49.042  0.00  0.00    +0.000 C 
ATOM     12  C   UNL     1      49.609  30.237  50.315  0.00  0.00    +0.000 C 
ATOM     13  C   UNL     1      50.092  31.232  49.342  0.00  0.00    +0.000 C 
ATOM     14  H   UNL     1      48.773  29.695  48.304  0.00  0.00    +0.000 HD
ATOM     15  H   UNL     1      50.066  29.240  50.384  0.00  0.00    +0.000 HD
ATOM     16  H   UNL     1      49.198  30.605  51.275  0.00  0.00    +0.000 HD
ATOM     17  H   UNL     1      50.921  30.894  48.666  0.00  0.00    +0.000 HD
ATOM     18  H   UNL     1      50.065  32.310  49.544  0.00  0.00    +0.000 HD
ENDBRANCH   6  11
ENDBRANCH   1   4
BRANCH   1  20
ATOM     19  C   UNL     1      45.909  33.128  45.913  0.00  0.00    +0.000 C 
ATOM     20  C   UNL     1      46.912  32.370  45.690  0.00  0.00    +0.000 C 
BRANCH  19  25
ATOM     21  C   UNL     1      44.490  36.143  44.343  0.00  0.00    +0.000 A 
ATOM     22  C   UNL     1      45.142  36.205  43.117  0.00  0.00    +0.000 A 
ATOM     23  C   UNL     1      46.064  35.206  42.853  0.00  0.00    +0.000 A 
ATOM     24  N   UNL     1      46.248  34.274  43.789  0.00  0.00    +0.000 NA
ATOM     25  C   UNL     1      45.630  34.209  44.959  0.00  0.00    +0.000 A 
ATOM     26  N   UNL     1      44.748  35.164  45.216  0.00  0.00    +0.000 NA
ATOM     27  H   UNL     1      43.771  36.928  44.542  0.00  0.00    +0.000 HD
ATOM     28  H   UNL     1      45.005  36.948  42.352  0.00  0.00    +0.000 HD
BRANCH  23  29
ATOM     29  C   UNL     1      46.867  35.075  41.622  0.00  0.00    +0.000 C 
ATOM     30  C   UNL     1      46.555  36.090  40.565  0.00  0.00    +0.000 C 
ATOM     31  C   UNL     1      47.265  35.497  39.342  0.00  0.00    +0.000 C 
ATOM     32  C   UNL     1      47.401  34.013  39.615  0.00  0.00    +0.000 C 
ATOM     33  C   UNL     1      46.608  33.774  40.898  0.00  0.00    +0.000 C 
ENDBRANCH  23  29
ENDBRANCH  19  25
ENDBRANCH   1  20
TORSDOF 5
