
 OpenBabel03252504073D

 15 16  0  0  0  0  0  0  0  0999 V2000
   45.0690   35.2560   44.4160 C   0  0  0  0  0  0  0  0  0  0  0  0
   46.0630   34.6960   43.5650 C   0  0  0  0  0  0  0  0  0  0  0  0
   46.7840   33.6150   44.0880 C   0  0  0  0  0  0  0  0  0  0  0  0
   46.5140   33.1690   45.3310 N   0  0  0  0  0  0  0  0  0  0  0  0
   45.5600   33.7350   46.1000 C   0  0  0  0  0  0  0  0  0  0  0  0
   44.8430   34.7660   45.6540 N   0  0  0  0  0  0  0  0  0  0  0  0
   47.5230   33.1980   43.4550 H   0  0  0  0  0  0  0  0  0  0  0  0
   45.3260   33.3920   47.1020 H   0  0  0  0  0  0  0  0  0  0  0  0
   46.2490   35.2930   42.2180 C   0  0  0  0  0  0  0  0  0  0  0  0
   45.5330   34.4660   41.1750 C   0  0  0  0  0  0  0  0  0  0  0  0
   46.5980   33.6870   40.4420 C   0  0  0  0  0  0  0  0  0  0  0  0
   47.9340   34.3000   40.7870 C   0  0  0  0  0  0  0  0  0  0  0  0
   47.7000   35.3200   41.8750 C   0  0  0  0  0  0  0  0  0  0  0  0
   44.3480   36.3130   43.9350 O   0  0  0  0  0  0  0  0  0  0  0  0
   44.7570   37.2570   43.9590 H   0  0  0  0  0  0  0  0  0  0  0  0
  1  6  1  0  0  0  0
  2  3  1  0  0  0  0
  2  1  2  0  0  0  0
  3  4  2  0  0  0  0
  4  5  1  0  0  0  0
  5  8  1  0  0  0  0
  6  5  2  0  0  0  0
  7  3  1  0  0  0  0
  9  2  1  0  0  0  0
 10  9  1  0  0  0  0
 11 12  1  0  0  0  0
 11 10  1  0  0  0  0
 12 13  1  0  0  0  0
 13  9  1  0  0  0  0
 14 15  1  0  0  0  0
 14  1  1  0  0  0  0
M  END
>  <minimizedAffinity>
-4.51276827

>  <minimizedRMSD>
1.525545

$$$$
