
 OpenBabel03242522243D

 24 26  0  0  0  0  0  0  0  0999 V2000
   36.1800   30.7980   40.7520 C   0  0  0  0  0  0  0  0  0  0  0  0
   37.1630   31.5040   40.0590 C   0  0  0  0  0  0  0  0  0  0  0  0
   38.5220   31.3540   40.3030 C   0  0  0  0  0  0  0  0  0  0  0  0
   38.8530   30.4540   41.2800 N   0  0  0  0  0  0  0  0  0  0  0  0
   37.8990   29.7680   41.9520 C   0  0  0  0  0  0  0  0  0  0  0  0
   36.5980   29.9380   41.6930 N   0  0  0  0  0  0  0  0  0  0  0  0
   35.1430   30.9210   40.5570 H   0  0  0  0  0  0  0  0  0  0  0  0
   36.8860   32.2170   39.2840 H   0  0  0  0  0  0  0  0  0  0  0  0
   39.3930   29.9870   37.8640 Cl  0  0  0  0  0  0  0  0  0  0  0  0
   40.0190   31.5340   38.4090 C   0  0  0  0  0  0  0  0  0  0  0  0
   39.5420   32.0950   39.5750 C   0  0  0  0  0  0  0  0  0  0  0  0
   40.0600   33.3190   39.9780 C   0  0  0  0  0  0  0  0  0  0  0  0
   41.0260   33.9600   39.2330 C   0  0  0  0  0  0  0  0  0  0  0  0
   41.4780   33.3510   38.0580 C   0  0  0  0  0  0  0  0  0  0  0  0
   42.7020   34.1600   37.1130 Cl  0  0  0  0  0  0  0  0  0  0  0  0
   40.9880   32.1330   37.6260 C   0  0  0  0  0  0  0  0  0  0  0  0
   39.6660   33.7390   40.9010 H   0  0  0  0  0  0  0  0  0  0  0  0
   41.4000   34.9140   39.5870 H   0  0  0  0  0  0  0  0  0  0  0  0
   41.3690   31.6980   36.7050 H   0  0  0  0  0  0  0  0  0  0  0  0
   38.3810   28.8160   42.9960 C   0  0  0  0  0  3  0  0  0  0  0  0
   39.8860   28.6220   42.9020 C   0  0  0  0  0  2  0  0  0  0  0  0
   40.1820   27.3160   43.5720 C   0  0  0  0  0  2  0  0  0  0  0  0
   38.9280   26.5070   43.4010 C   0  0  0  0  0  2  0  0  0  0  0  0
   37.8870   27.4030   42.7660 C   0  0  0  0  0  2  0  0  0  0  0  0
  1  6  1  0  0  0  0
  2  3  1  0  0  0  0
  2  1  2  0  0  0  0
  3  4  2  0  0  0  0
  4  5  1  0  0  0  0
  5 20  1  0  0  0  0
  6  5  2  0  0  0  0
  7  1  1  0  0  0  0
  8  2  1  0  0  0  0
  9 10  1  0  0  0  0
 10 11  1  0  0  0  0
 11 12  2  0  0  0  0
 11  3  1  0  0  0  0
 12 17  1  0  0  0  0
 13 18  1  0  0  0  0
 13 12  1  0  0  0  0
 14 13  2  0  0  0  0
 15 14  1  0  0  0  0
 16 14  1  0  0  0  0
 16 10  2  0  0  0  0
 19 16  1  0  0  0  0
 21 20  1  0  0  0  0
 21 22  1  0  0  0  0
 23 22  1  0  0  0  0
 24 20  1  0  0  0  0
 24 23  1  0  0  0  0
M  END
>  <minimizedAffinity>
-5.27271891

$$$$

 OpenBabel03242522243D

 24 26  0  0  0  0  0  0  0  0999 V2000
   38.0020   32.6600   40.3010 C   0  0  0  0  0  0  0  0  0  0  0  0
   37.3470   32.0210   39.2480 C   0  0  0  0  0  0  0  0  0  0  0  0
   37.1300   30.6510   39.2060 C   0  0  0  0  0  0  0  0  0  0  0  0
   37.6000   29.9430   40.2800 N   0  0  0  0  0  0  0  0  0  0  0  0
   38.2340   30.5630   41.3020 C   0  0  0  0  0  0  0  0  0  0  0  0
   38.4290   31.8860   41.3100 N   0  0  0  0  0  0  0  0  0  0  0  0
   38.1630   33.7100   40.3220 H   0  0  0  0  0  0  0  0  0  0  0  0
   36.9780   32.5960   38.3990 H   0  0  0  0  0  0  0  0  0  0  0  0
   34.6750   29.2910   40.0440 Cl  0  0  0  0  0  0  0  0  0  0  0  0
   35.2760   29.3220   38.3940 C   0  0  0  0  0  0  0  0  0  0  0  0
   36.4450   29.9920   38.1020 C   0  0  0  0  0  0  0  0  0  0  0  0
   36.8930   29.9970   36.7880 C   0  0  0  0  0  0  0  0  0  0  0  0
   36.1880   29.3490   35.7970 C   0  0  0  0  0  0  0  0  0  0  0  0
   35.0070   28.6820   36.1420 C   0  0  0  0  0  0  0  0  0  0  0  0
   34.1130   27.8600   34.8900 Cl  0  0  0  0  0  0  0  0  0  0  0  0
   34.5320   28.6550   37.4400 C   0  0  0  0  0  0  0  0  0  0  0  0
   37.8170   30.5320   36.5860 H   0  0  0  0  0  0  0  0  0  0  0  0
   36.5760   29.3790   34.7850 H   0  0  0  0  0  0  0  0  0  0  0  0
   33.6090   28.1250   37.6610 H   0  0  0  0  0  0  0  0  0  0  0  0
   38.7040   29.6870   42.4160 C   0  0  0  0  0  3  0  0  0  0  0  0
   39.5990   28.5740   41.8940 C   0  0  0  0  0  2  0  0  0  0  0  0
   39.5680   27.4920   42.9270 C   0  0  0  0  0  2  0  0  0  0  0  0
   38.2320   27.6430   43.5980 C   0  0  0  0  0  2  0  0  0  0  0  0
   37.5780   28.8900   43.0420 C   0  0  0  0  0  2  0  0  0  0  0  0
  1  7  1  0  0  0  0
  1  6  1  0  0  0  0
  2  1  2  0  0  0  0
  3  2  1  0  0  0  0
  3  4  2  0  0  0  0
  4  5  1  0  0  0  0
  5  6  2  0  0  0  0
  5 20  1  0  0  0  0
  8  2  1  0  0  0  0
 10  9  1  0  0  0  0
 11 10  1  0  0  0  0
 11  3  1  0  0  0  0
 12 11  2  0  0  0  0
 13 14  2  0  0  0  0
 13 12  1  0  0  0  0
 14 16  1  0  0  0  0
 15 14  1  0  0  0  0
 16 19  1  0  0  0  0
 16 10  2  0  0  0  0
 17 12  1  0  0  0  0
 18 13  1  0  0  0  0
 20 24  1  0  0  0  0
 21 20  1  0  0  0  0
 21 22  1  0  0  0  0
 22 23  1  0  0  0  0
 24 23  1  0  0  0  0
M  END
>  <minimizedAffinity>
-5.24901962

$$$$

 OpenBabel03242522243D

 24 26  0  0  0  0  0  0  0  0999 V2000
   36.9260   27.3910   43.6790 C   0  0  0  0  0  0  0  0  0  0  0  0
   37.4030   28.6190   43.2210 C   0  0  0  0  0  0  0  0  0  0  0  0
   37.8490   28.8270   41.9230 C   0  0  0  0  0  0  0  0  0  0  0  0
   37.7910   27.7370   41.0950 N   0  0  0  0  0  0  0  0  0  0  0  0
   37.3280   26.5460   41.5380 C   0  0  0  0  0  0  0  0  0  0  0  0
   36.9070   26.3800   42.7980 N   0  0  0  0  0  0  0  0  0  0  0  0
   36.5870   27.2440   44.6740 H   0  0  0  0  0  0  0  0  0  0  0  0
   37.4430   29.4780   43.8900 H   0  0  0  0  0  0  0  0  0  0  0  0
   35.8030   30.3920   40.5290 Cl  0  0  0  0  0  0  0  0  0  0  0  0
   37.4570   30.9260   40.7830 C   0  0  0  0  0  0  0  0  0  0  0  0
   38.3450   30.1130   41.4530 C   0  0  0  0  0  0  0  0  0  0  0  0
   39.6460   30.5650   41.6360 C   0  0  0  0  0  0  0  0  0  0  0  0
   40.0410   31.7970   41.1620 C   0  0  0  0  0  0  0  0  0  0  0  0
   39.1030   32.5860   40.4880 C   0  0  0  0  0  0  0  0  0  0  0  0
   39.6000   34.1460   39.8850 Cl  0  0  0  0  0  0  0  0  0  0  0  0
   37.8010   32.1690   40.2860 C   0  0  0  0  0  0  0  0  0  0  0  0
   40.3250   29.9040   42.1680 H   0  0  0  0  0  0  0  0  0  0  0  0
   41.0660   32.1090   41.3280 H   0  0  0  0  0  0  0  0  0  0  0  0
   37.1060   32.8170   39.7560 H   0  0  0  0  0  0  0  0  0  0  0  0
   37.3150   25.4310   40.5450 C   0  0  0  0  0  3  0  0  0  0  0  0
   36.5040   25.8070   39.3150 C   0  0  0  0  0  2  0  0  0  0  0  0
   36.1040   24.5180   38.6680 C   0  0  0  0  0  2  0  0  0  0  0  0
   36.0490   23.5260   39.7950 C   0  0  0  0  0  2  0  0  0  0  0  0
   36.5540   24.2200   41.0420 C   0  0  0  0  0  2  0  0  0  0  0  0
  1  7  1  0  0  0  0
  2  1  1  0  0  0  0
  2  8  1  0  0  0  0
  3  2  2  0  0  0  0
  4  5  2  0  0  0  0
  4  3  1  0  0  0  0
  5  6  1  0  0  0  0
  6  1  2  0  0  0  0
  9 10  1  0  0  0  0
 10 11  1  0  0  0  0
 11 12  2  0  0  0  0
 11  3  1  0  0  0  0
 12 17  1  0  0  0  0
 13 18  1  0  0  0  0
 13 12  1  0  0  0  0
 14 13  2  0  0  0  0
 15 14  1  0  0  0  0
 16 14  1  0  0  0  0
 16 10  2  0  0  0  0
 19 16  1  0  0  0  0
 20 24  1  0  0  0  0
 20  5  1  0  0  0  0
 21 20  1  0  0  0  0
 22 21  1  0  0  0  0
 22 23  1  0  0  0  0
 23 24  1  0  0  0  0
M  END
>  <minimizedAffinity>
-5.19554424

$$$$

 OpenBabel03242522243D

 24 26  0  0  0  0  0  0  0  0999 V2000
   39.9280   26.6380   43.6800 C   0  0  0  0  0  0  0  0  0  0  0  0
   39.5060   27.8090   43.0500 C   0  0  0  0  0  0  0  0  0  0  0  0
   38.5740   27.8280   42.0220 C   0  0  0  0  0  0  0  0  0  0  0  0
   38.0770   26.6070   41.6510 N   0  0  0  0  0  0  0  0  0  0  0  0
   38.4860   25.4700   42.2610 C   0  0  0  0  0  0  0  0  0  0  0  0
   39.3880   25.4880   43.2490 N   0  0  0  0  0  0  0  0  0  0  0  0
   40.6420   26.6350   44.4650 H   0  0  0  0  0  0  0  0  0  0  0  0
   39.9100   28.7730   43.3560 H   0  0  0  0  0  0  0  0  0  0  0  0
   40.3740   28.6700   39.8710 Cl  0  0  0  0  0  0  0  0  0  0  0  0
   38.9220   29.5360   40.3420 C   0  0  0  0  0  0  0  0  0  0  0  0
   38.1390   29.0550   41.3710 C   0  0  0  0  0  0  0  0  0  0  0  0
   36.9970   29.7650   41.7190 C   0  0  0  0  0  0  0  0  0  0  0  0
   36.6510   30.9210   41.0530 C   0  0  0  0  0  0  0  0  0  0  0  0
   37.4770   31.3680   40.0160 C   0  0  0  0  0  0  0  0  0  0  0  0
   37.0420   32.8320   39.1720 Cl  0  0  0  0  0  0  0  0  0  0  0  0
   38.6210   30.6890   39.6430 C   0  0  0  0  0  0  0  0  0  0  0  0
   36.3990   29.3640   42.5330 H   0  0  0  0  0  0  0  0  0  0  0  0
   35.7510   31.4420   41.3590 H   0  0  0  0  0  0  0  0  0  0  0  0
   39.2320   31.0750   38.8300 H   0  0  0  0  0  0  0  0  0  0  0  0
   37.8740   24.2000   41.7690 C   0  0  0  0  0  3  0  0  0  0  0  0
   38.7470   23.5520   40.7060 C   0  0  0  0  0  2  0  0  0  0  0  0
   37.8490   22.6460   39.9220 C   0  0  0  0  0  2  0  0  0  0  0  0
   36.4860   23.2670   40.0370 C   0  0  0  0  0  2  0  0  0  0  0  0
   36.5930   24.4330   40.9950 C   0  0  0  0  0  2  0  0  0  0  0  0
  1  7  1  0  0  0  0
  2  8  1  0  0  0  0
  2  1  2  0  0  0  0
  3  2  1  0  0  0  0
  4  3  2  0  0  0  0
  4  5  1  0  0  0  0
  5  6  2  0  0  0  0
  6  1  1  0  0  0  0
  9 10  1  0  0  0  0
 10 11  1  0  0  0  0
 11 12  2  0  0  0  0
 11  3  1  0  0  0  0
 12 17  1  0  0  0  0
 13 18  1  0  0  0  0
 13 12  1  0  0  0  0
 14 13  2  0  0  0  0
 15 14  1  0  0  0  0
 16 14  1  0  0  0  0
 16 10  2  0  0  0  0
 19 16  1  0  0  0  0
 20  5  1  0  0  0  0
 21 20  1  0  0  0  0
 22 23  1  0  0  0  0
 22 21  1  0  0  0  0
 23 24  1  0  0  0  0
 24 20  1  0  0  0  0
M  END
>  <minimizedAffinity>
-5.11374235

$$$$

 OpenBabel03242522243D

 24 26  0  0  0  0  0  0  0  0999 V2000
   37.1530   29.9670   42.0120 C   0  0  0  0  0  0  0  0  0  0  0  0
   36.4510   29.9880   40.8070 C   0  0  0  0  0  0  0  0  0  0  0  0
   36.0530   28.8390   40.1370 C   0  0  0  0  0  0  0  0  0  0  0  0
   36.3910   27.6560   40.7380 N   0  0  0  0  0  0  0  0  0  0  0  0
   37.0720   27.6340   41.9070 C   0  0  0  0  0  0  0  0  0  0  0  0
   37.4420   28.7620   42.5260 N   0  0  0  0  0  0  0  0  0  0  0  0
   37.4530   30.8520   42.5160 H   0  0  0  0  0  0  0  0  0  0  0  0
   36.1880   30.9370   40.3400 H   0  0  0  0  0  0  0  0  0  0  0  0
   37.8150   28.8880   37.7990 Cl  0  0  0  0  0  0  0  0  0  0  0  0
   36.0610   28.8950   37.7170 C   0  0  0  0  0  0  0  0  0  0  0  0
   35.3200   28.8710   38.8790 C   0  0  0  0  0  0  0  0  0  0  0  0
   33.9350   28.8780   38.7800 C   0  0  0  0  0  0  0  0  0  0  0  0
   33.3130   28.9080   37.5500 C   0  0  0  0  0  0  0  0  0  0  0  0
   34.1080   28.9320   36.3990 C   0  0  0  0  0  0  0  0  0  0  0  0
   33.3250   28.9700   34.8410 Cl  0  0  0  0  0  0  0  0  0  0  0  0
   35.4890   28.9260   36.4600 C   0  0  0  0  0  0  0  0  0  0  0  0
   33.3750   28.8580   39.7110 H   0  0  0  0  0  0  0  0  0  0  0  0
   32.2290   28.9130   37.5200 H   0  0  0  0  0  0  0  0  0  0  0  0
   36.0660   28.9460   35.5380 H   0  0  0  0  0  0  0  0  0  0  0  0
   37.3860   26.2850   42.4640 C   0  0  0  0  0  3  0  0  0  0  0  0
   38.8880   26.0770   42.5730 C   0  0  0  0  0  2  0  0  0  0  0  0
   39.1030   24.5960   42.6080 C   0  0  0  0  0  2  0  0  0  0  0  0
   37.9370   24.0230   41.8540 C   0  0  0  0  0  2  0  0  0  0  0  0
   37.0000   25.1640   41.5220 C   0  0  0  0  0  2  0  0  0  0  0  0
  1  7  1  0  0  0  0
  1  6  1  0  0  0  0
  2  1  2  0  0  0  0
  3  4  2  0  0  0  0
  3  2  1  0  0  0  0
  4  5  1  0  0  0  0
  5 20  1  0  0  0  0
  5  6  2  0  0  0  0
  8  2  1  0  0  0  0
 10  9  1  0  0  0  0
 10 11  1  0  0  0  0
 11  3  1  0  0  0  0
 12 11  2  0  0  0  0
 12 17  1  0  0  0  0
 13 12  1  0  0  0  0
 14 16  1  0  0  0  0
 14 13  2  0  0  0  0
 15 14  1  0  0  0  0
 16 10  2  0  0  0  0
 18 13  1  0  0  0  0
 19 16  1  0  0  0  0
 20 21  1  0  0  0  0
 21 22  1  0  0  0  0
 23 22  1  0  0  0  0
 24 23  1  0  0  0  0
 24 20  1  0  0  0  0
M  END
>  <minimizedAffinity>
-5.11358881

$$$$

 OpenBabel03242522243D

 24 26  0  0  0  0  0  0  0  0999 V2000
   37.2900   32.8010   39.9310 C   0  0  0  0  0  0  0  0  0  0  0  0
   37.0180   31.4870   40.3130 C   0  0  0  0  0  0  0  0  0  0  0  0
   37.9660   30.4740   40.2840 C   0  0  0  0  0  0  0  0  0  0  0  0
   39.2130   30.8410   39.8530 N   0  0  0  0  0  0  0  0  0  0  0  0
   39.4780   32.1150   39.4820 C   0  0  0  0  0  0  0  0  0  0  0  0
   38.5390   33.0680   39.5210 N   0  0  0  0  0  0  0  0  0  0  0  0
   36.5570   33.5680   39.9570 H   0  0  0  0  0  0  0  0  0  0  0  0
   36.0220   31.2090   40.6550 H   0  0  0  0  0  0  0  0  0  0  0  0
   38.8680   29.8720   43.0040 Cl  0  0  0  0  0  0  0  0  0  0  0  0
   38.0590   28.7220   41.9520 C   0  0  0  0  0  0  0  0  0  0  0  0
   37.6740   29.1050   40.6850 C   0  0  0  0  0  0  0  0  0  0  0  0
   37.0360   28.1710   39.8780 C   0  0  0  0  0  0  0  0  0  0  0  0
   36.7940   26.8920   40.3310 C   0  0  0  0  0  0  0  0  0  0  0  0
   37.2040   26.5510   41.6240 C   0  0  0  0  0  0  0  0  0  0  0  0
   36.9000   24.9320   42.1990 Cl  0  0  0  0  0  0  0  0  0  0  0  0
   37.8420   27.4530   42.4540 C   0  0  0  0  0  0  0  0  0  0  0  0
   36.7430   28.5000   38.8840 H   0  0  0  0  0  0  0  0  0  0  0  0
   36.2940   26.1970   39.6660 H   0  0  0  0  0  0  0  0  0  0  0  0
   38.1430   27.1430   43.4520 H   0  0  0  0  0  0  0  0  0  0  0  0
   40.8720   32.3950   39.0280 C   0  0  0  0  0  3  0  0  0  0  0  0
   41.2600   33.8360   39.3170 C   0  0  0  0  0  2  0  0  0  0  0  0
   42.3880   34.1610   38.3880 C   0  0  0  0  0  2  0  0  0  0  0  0
   42.1710   33.2680   37.1980 C   0  0  0  0  0  2  0  0  0  0  0  0
   41.0120   32.3490   37.5210 C   0  0  0  0  0  2  0  0  0  0  0  0
  1  7  1  0  0  0  0
  1  2  1  0  0  0  0
  2  8  1  0  0  0  0
  3  2  2  0  0  0  0
  3 11  1  0  0  0  0
  4  3  1  0  0  0  0
  5  6  1  0  0  0  0
  5  4  2  0  0  0  0
  6  1  2  0  0  0  0
 10 16  1  0  0  0  0
 10  9  1  0  0  0  0
 11 10  2  0  0  0  0
 12 13  2  0  0  0  0
 12 11  1  0  0  0  0
 13 14  1  0  0  0  0
 14 15  1  0  0  0  0
 14 16  2  0  0  0  0
 16 19  1  0  0  0  0
 17 12  1  0  0  0  0
 18 13  1  0  0  0  0
 20 21  1  0  0  0  0
 20  5  1  0  0  0  0
 22 21  1  0  0  0  0
 23 24  1  0  0  0  0
 23 22  1  0  0  0  0
 24 20  1  0  0  0  0
M  END
>  <minimizedAffinity>
-5.07905197

$$$$

 OpenBabel03242522243D

 24 26  0  0  0  0  0  0  0  0999 V2000
   32.8360   26.8630   36.0590 C   0  0  0  0  0  0  0  0  0  0  0  0
   33.7640   27.3110   36.9980 C   0  0  0  0  0  0  0  0  0  0  0  0
   33.8370   28.6290   37.4280 C   0  0  0  0  0  0  0  0  0  0  0  0
   32.9270   29.4860   36.8690 N   0  0  0  0  0  0  0  0  0  0  0  0
   32.0260   29.0510   35.9570 C   0  0  0  0  0  0  0  0  0  0  0  0
   31.9840   27.7730   35.5640 N   0  0  0  0  0  0  0  0  0  0  0  0
   32.7900   25.8520   35.7370 H   0  0  0  0  0  0  0  0  0  0  0  0
   34.4830   26.6190   37.4350 H   0  0  0  0  0  0  0  0  0  0  0  0
   36.2910   29.6540   36.2020 Cl  0  0  0  0  0  0  0  0  0  0  0  0
   36.0010   29.5910   37.9320 C   0  0  0  0  0  0  0  0  0  0  0  0
   34.8090   29.0880   38.4100 C   0  0  0  0  0  0  0  0  0  0  0  0
   34.6120   29.0520   39.7850 C   0  0  0  0  0  0  0  0  0  0  0  0
   35.5810   29.5070   40.6520 C   0  0  0  0  0  0  0  0  0  0  0  0
   36.7740   30.0070   40.1190 C   0  0  0  0  0  0  0  0  0  0  0  0
   38.0040   30.5830   41.2140 Cl  0  0  0  0  0  0  0  0  0  0  0  0
   37.0060   30.0580   38.7570 C   0  0  0  0  0  0  0  0  0  0  0  0
   33.6640   28.6510   40.1340 H   0  0  0  0  0  0  0  0  0  0  0  0
   35.3840   29.4580   41.7170 H   0  0  0  0  0  0  0  0  0  0  0  0
   37.9490   30.4560   38.3890 H   0  0  0  0  0  0  0  0  0  0  0  0
   31.0860   30.0780   35.4170 C   0  0  0  0  0  3  0  0  0  0  0  0
   31.7570   30.9220   34.3460 C   0  0  0  0  0  2  0  0  0  0  0  0
   30.9770   32.1960   34.2670 C   0  0  0  0  0  2  0  0  0  0  0  0
   30.3930   32.3730   35.6400 C   0  0  0  0  0  2  0  0  0  0  0  0
   30.7270   31.1330   36.4420 C   0  0  0  0  0  2  0  0  0  0  0  0
  1  2  1  0  0  0  0
  2  3  2  0  0  0  0
  2  8  1  0  0  0  0
  3 11  1  0  0  0  0
  4  3  1  0  0  0  0
  5  4  2  0  0  0  0
  6  5  1  0  0  0  0
  6  1  2  0  0  0  0
  7  1  1  0  0  0  0
  9 10  1  0  0  0  0
 10 11  2  0  0  0  0
 10 16  1  0  0  0  0
 11 12  1  0  0  0  0
 12 17  1  0  0  0  0
 12 13  2  0  0  0  0
 13 18  1  0  0  0  0
 14 13  1  0  0  0  0
 14 15  1  0  0  0  0
 16 14  2  0  0  0  0
 19 16  1  0  0  0  0
 20  5  1  0  0  0  0
 20 24  1  0  0  0  0
 21 20  1  0  0  0  0
 22 21  1  0  0  0  0
 22 23  1  0  0  0  0
 23 24  1  0  0  0  0
M  END
>  <minimizedAffinity>
-5.05455351

$$$$

 OpenBabel03242522243D

 24 26  0  0  0  0  0  0  0  0999 V2000
   36.5810   30.6130   38.3290 C   0  0  0  0  0  0  0  0  0  0  0  0
   37.8280   31.2200   38.1790 C   0  0  0  0  0  0  0  0  0  0  0  0
   38.7660   31.2960   39.1990 C   0  0  0  0  0  0  0  0  0  0  0  0
   38.3950   30.7270   40.3880 N   0  0  0  0  0  0  0  0  0  0  0  0
   37.1860   30.1370   40.5340 C   0  0  0  0  0  0  0  0  0  0  0  0
   36.3040   30.0830   39.5290 N   0  0  0  0  0  0  0  0  0  0  0  0
   35.8710   30.5610   37.5410 H   0  0  0  0  0  0  0  0  0  0  0  0
   38.1100   31.6690   37.2270 H   0  0  0  0  0  0  0  0  0  0  0  0
   38.7580   34.1150   39.9920 Cl  0  0  0  0  0  0  0  0  0  0  0  0
   40.1660   33.2620   39.3810 C   0  0  0  0  0  0  0  0  0  0  0  0
   40.0660   31.9320   39.0340 C   0  0  0  0  0  0  0  0  0  0  0  0
   41.1980   31.2870   38.5530 C   0  0  0  0  0  0  0  0  0  0  0  0
   42.3950   31.9580   38.4250 C   0  0  0  0  0  0  0  0  0  0  0  0
   42.4470   33.3080   38.7900 C   0  0  0  0  0  0  0  0  0  0  0  0
   43.9600   34.1610   38.6290 Cl  0  0  0  0  0  0  0  0  0  0  0  0
   41.3410   33.9820   39.2710 C   0  0  0  0  0  0  0  0  0  0  0  0
   41.0900   30.2380   38.2870 H   0  0  0  0  0  0  0  0  0  0  0  0
   43.2520   31.4140   38.0450 H   0  0  0  0  0  0  0  0  0  0  0  0
   41.4290   35.0320   39.5430 H   0  0  0  0  0  0  0  0  0  0  0  0
   36.8940   29.5530   41.8770 C   0  0  0  0  0  3  0  0  0  0  0  0
   38.1770   29.2900   42.6470 C   0  0  0  0  0  2  0  0  0  0  0  0
   37.8420   28.2580   43.6790 C   0  0  0  0  0  2  0  0  0  0  0  0
   36.7050   27.4770   43.0830 C   0  0  0  0  0  2  0  0  0  0  0  0
   36.3110   28.1580   41.7890 C   0  0  0  0  0  2  0  0  0  0  0  0
  1  6  1  0  0  0  0
  2  1  2  0  0  0  0
  2  3  1  0  0  0  0
  3  4  2  0  0  0  0
  4  5  1  0  0  0  0
  5 20  1  0  0  0  0
  6  5  2  0  0  0  0
  7  1  1  0  0  0  0
  8  2  1  0  0  0  0
 10  9  1  0  0  0  0
 11  3  1  0  0  0  0
 11 10  2  0  0  0  0
 12 11  1  0  0  0  0
 13 12  2  0  0  0  0
 13 14  1  0  0  0  0
 14 16  2  0  0  0  0
 15 14  1  0  0  0  0
 16 10  1  0  0  0  0
 16 19  1  0  0  0  0
 17 12  1  0  0  0  0
 18 13  1  0  0  0  0
 20 21  1  0  0  0  0
 21 22  1  0  0  0  0
 23 22  1  0  0  0  0
 24 20  1  0  0  0  0
 24 23  1  0  0  0  0
M  END
>  <minimizedAffinity>
-5.04527521

$$$$

 OpenBabel03242522243D

 24 26  0  0  0  0  0  0  0  0999 V2000
   35.7760   30.4780   40.6950 C   0  0  0  0  0  0  0  0  0  0  0  0
   35.9320   29.0950   40.6050 C   0  0  0  0  0  0  0  0  0  0  0  0
   37.1630   28.4600   40.6880 C   0  0  0  0  0  0  0  0  0  0  0  0
   38.2430   29.2830   40.8690 N   0  0  0  0  0  0  0  0  0  0  0  0
   38.0930   30.6250   40.9570 C   0  0  0  0  0  0  0  0  0  0  0  0
   36.8900   31.2050   40.8710 N   0  0  0  0  0  0  0  0  0  0  0  0
   34.8290   30.9530   40.6300 H   0  0  0  0  0  0  0  0  0  0  0  0
   35.0640   28.4520   40.4600 H   0  0  0  0  0  0  0  0  0  0  0  0
   36.7260   27.1030   43.2460 Cl  0  0  0  0  0  0  0  0  0  0  0  0
   37.1300   26.2840   41.7460 C   0  0  0  0  0  0  0  0  0  0  0  0
   37.3170   27.0150   40.5930 C   0  0  0  0  0  0  0  0  0  0  0  0
   37.6360   26.3360   39.4240 C   0  0  0  0  0  0  0  0  0  0  0  0
   37.7630   24.9640   39.4150 C   0  0  0  0  0  0  0  0  0  0  0  0
   37.5650   24.2650   40.6100 C   0  0  0  0  0  0  0  0  0  0  0  0
   37.7260   22.5280   40.6020 Cl  0  0  0  0  0  0  0  0  0  0  0  0
   37.2470   24.9070   41.7920 C   0  0  0  0  0  0  0  0  0  0  0  0
   37.7770   26.9370   38.5300 H   0  0  0  0  0  0  0  0  0  0  0  0
   38.0140   24.4760   38.4790 H   0  0  0  0  0  0  0  0  0  0  0  0
   37.1020   24.3230   42.6980 H   0  0  0  0  0  0  0  0  0  0  0  0
   39.3420   31.4180   41.1530 C   0  0  0  0  0  3  0  0  0  0  0  0
   39.1160   32.8830   40.8180 C   0  0  0  0  0  2  0  0  0  0  0  0
   40.4660   33.4590   40.5220 C   0  0  0  0  0  2  0  0  0  0  0  0
   41.2720   32.2980   40.0130 C   0  0  0  0  0  2  0  0  0  0  0  0
   40.4240   31.0520   40.1580 C   0  0  0  0  0  2  0  0  0  0  0  0
  1  6  1  0  0  0  0
  2  3  1  0  0  0  0
  2  1  2  0  0  0  0
  3  4  2  0  0  0  0
  4  5  1  0  0  0  0
  5 20  1  0  0  0  0
  6  5  2  0  0  0  0
  7  1  1  0  0  0  0
  8  2  1  0  0  0  0
 10 16  1  0  0  0  0
 10  9  1  0  0  0  0
 11  3  1  0  0  0  0
 11 10  2  0  0  0  0
 12 11  1  0  0  0  0
 13 12  2  0  0  0  0
 13 14  1  0  0  0  0
 14 16  2  0  0  0  0
 15 14  1  0  0  0  0
 16 19  1  0  0  0  0
 17 12  1  0  0  0  0
 18 13  1  0  0  0  0
 21 20  1  0  0  0  0
 22 21  1  0  0  0  0
 23 24  1  0  0  0  0
 23 22  1  0  0  0  0
 24 20  1  0  0  0  0
M  END
>  <minimizedAffinity>
-4.86972904

$$$$
