
     RDKit          3D

 26 27  0  0  0  0  0  0  0  0999 V2000
   44.3882   35.7674   44.4271 C   0  0  0  0  0  0  0  0  0  0  0  0
   44.6655   35.0657   43.2607 C   0  0  0  0  0  0  0  0  0  0  0  0
   45.2933   33.8244   43.3891 C   0  0  0  0  0  0  0  0  0  0  0  0
   45.5876   33.3909   44.6340 N   0  0  0  0  0  0  0  0  0  0  0  0
   45.3077   34.0913   45.7481 C   0  0  0  0  0  0  0  0  0  0  0  0
   44.6983   35.3020   45.6685 N   0  0  0  0  0  0  0  0  0  0  0  0
   44.2584   35.7242   42.0095 C   0  0  0  0  0  0  0  0  0  0  0  0
   43.9029   36.7418   44.4440 H   0  0  0  0  0  0  0  0  0  0  0  0
   45.4879   33.3196   42.4718 H   0  0  0  0  0  0  0  0  0  0  0  0
   45.5539   33.7195   46.7167 H   0  0  0  0  0  0  0  0  0  0  0  0
   44.3067   36.8008   42.0971 H   0  0  0  0  0  0  0  0  0  0  0  0
   44.9425   35.4240   41.1743 H   0  0  0  0  0  0  0  0  0  0  0  0
   42.8520   35.3217   41.6537 C   0  0  0  0  0  0  0  0  0  0  0  0
   42.7739   33.9099   41.1055 C   0  0  0  0  0  0  0  0  0  0  0  0
   41.3157   33.8828   40.6740 C   0  0  0  0  0  0  0  0  0  0  0  0
   41.1861   35.2054   39.9445 C   0  0  0  0  0  0  0  0  0  0  0  0
   42.3069   36.1003   40.4848 C   0  0  0  0  0  0  0  0  0  0  0  0
   42.2046   35.4445   42.5543 H   0  0  0  0  0  0  0  0  0  0  0  0
   42.9988   33.1539   41.8734 H   0  0  0  0  0  0  0  0  0  0  0  0
   43.4548   33.8674   40.2290 H   0  0  0  0  0  0  0  0  0  0  0  0
   41.0809   33.0195   40.0279 H   0  0  0  0  0  0  0  0  0  0  0  0
   40.7325   33.9059   41.6079 H   0  0  0  0  0  0  0  0  0  0  0  0
   41.2433   35.0505   38.8625 H   0  0  0  0  0  0  0  0  0  0  0  0
   40.1949   35.6350   40.2621 H   0  0  0  0  0  0  0  0  0  0  0  0
   43.0919   36.1100   39.7031 H   0  0  0  0  0  0  0  0  0  0  0  0
   41.9140   37.0915   40.7502 H   0  0  0  0  0  0  0  0  0  0  0  0
  1  6  2  0
  2  3  2  0
  2  1  1  0
  3  4  1  0
  4  5  2  0
  6  5  1  0
  7  2  1  0
  1  8  1  0
  3  9  1  0
  5 10  1  0
  7 11  1  0
  7 12  1  0
 13 14  1  0
 14 15  1  0
 15 16  1  0
 16 17  1  0
 17 13  1  0
 13 18  1  0
 14 19  1  0
 14 20  1  0
 15 21  1  0
 15 22  1  0
 16 23  1  0
 16 24  1  0
 17 25  1  0
 17 26  1  0
  7 13  1  0
M  ISO  5   8  14   9  14  10  14  11   8  12   8
M  END
>  <DihAtoms>  (1) 
1,6,12,13

>  <DihDeg>  (1) 
-59.998963838777236

$$$$
