
 OpenBabel03252502353D

 36 38  0  0  1  0  0  0  0  0999 V2000
   36.6930   28.1820   41.4330 C   0  0  2  0  0  0  0  0  0  0  0  0
   37.4650   29.2320   42.2560 C   0  0  0  0  0  0  0  0  0  0  0  0
   37.4900   28.6410   43.6790 C   0  0  0  0  0  0  0  0  0  0  0  0
   38.5010   27.5290   43.5720 C   0  0  0  0  0  0  0  0  0  0  0  0
   38.0130   26.4700   42.6330 C   0  0  0  0  0  0  0  0  0  0  0  0
   37.5070   26.9570   41.3260 C   0  0  1  0  0  0  0  0  0  0  0  0
   35.7510   28.0060   42.0170 H   0  0  0  0  0  0  0  0  0  0  0  0
   38.5010   29.3120   41.9330 H   0  0  0  0  0  0  0  0  0  0  0  0
   36.8790   30.1610   42.2590 H   0  0  0  0  0  0  0  0  0  0  0  0
   37.7800   29.4190   44.3880 H   0  0  0  0  0  0  0  0  0  0  0  0
   36.4900   28.1950   43.9050 H   0  0  0  0  0  0  0  0  0  0  0  0
   39.4500   27.9790   43.2130 H   0  0  0  0  0  0  0  0  0  0  0  0
   38.6000   27.0590   44.5690 H   0  0  0  0  0  0  0  0  0  0  0  0
   38.8960   25.8100   42.4220 H   0  0  0  0  0  0  0  0  0  0  0  0
   37.2680   25.8470   43.1340 H   0  0  0  0  0  0  0  0  0  0  0  0
   38.4290   27.2570   40.7400 H   0  0  0  0  0  0  0  0  0  0  0  0
   34.9970   29.1340   38.2210 C   0  0  0  0  0  0  0  0  0  0  0  0
   35.2310   28.4360   39.4240 C   0  0  0  0  0  0  0  0  0  0  0  0
   36.3430   28.8320   40.1870 C   0  0  0  0  0  0  0  0  0  0  0  0
   37.1210   29.8600   39.7160 N   0  0  0  0  0  0  0  0  0  0  0  0
   36.8610   30.4920   38.5720 C   0  0  0  0  0  0  0  0  0  0  0  0
   35.7930   30.1250   37.8220 N   0  0  0  0  0  0  0  0  0  0  0  0
   34.6020   27.6380   39.7600 H   0  0  0  0  0  0  0  0  0  0  0  0
   33.8130   28.6930   37.4250 C   0  0  0  0  0  0  0  0  0  0  0  0
   33.7440   27.3380   37.3150 F   0  0  0  0  0  0  0  0  0  0  0  0
   32.6650   29.2430   38.0040 F   0  0  0  0  0  0  0  0  0  0  0  0
   33.8740   29.2900   36.1480 F   0  0  0  0  0  0  0  0  0  0  0  0
   37.7330   31.6030   38.0990 C   0  0  0  0  0  0  0  0  0  0  0  0
   39.0010   31.4870   38.6010 F   0  0  0  0  0  0  0  0  0  0  0  0
   37.1540   32.8420   38.4590 F   0  0  0  0  0  0  0  0  0  0  0  0
   37.7900   31.6460   36.7310 F   0  0  0  0  0  0  0  0  0  0  0  0
   36.9270   25.8060   40.6170 C   0  0  0  0  0  3  0  0  0  0  0  0
   37.5540   25.3340   39.3640 C   0  0  0  0  0  2  0  0  0  0  0  0
   36.6830   24.1020   39.0610 C   0  0  0  0  0  2  0  0  0  0  0  0
   36.3730   23.5420   40.4310 C   0  0  0  0  0  2  0  0  0  0  0  0
   36.9130   24.5360   41.4460 C   0  0  0  0  0  2  0  0  0  0  0  0
  1  7  1  1  0  0  0
  1  2  1  0  0  0  0
  2  9  1  0  0  0  0
  2  3  1  0  0  0  0
  3 11  1  0  0  0  0
  3 10  1  0  0  0  0
  4  3  1  0  0  0  0
  4 13  1  0  0  0  0
  5 15  1  0  0  0  0
  5  4  1  0  0  0  0
  6 16  1  6  0  0  0
  6  1  1  0  0  0  0
  6  5  1  0  0  0  0
  8  2  1  0  0  0  0
 12  4  1  0  0  0  0
 14  5  1  0  0  0  0
 17 18  1  0  0  0  0
 18 23  1  0  0  0  0
 18 19  2  0  0  0  0
 19  1  1  0  0  0  0
 20 19  1  0  0  0  0
 21 20  2  0  0  0  0
 22 17  2  0  0  0  0
 22 21  1  0  0  0  0
 24 26  1  0  0  0  0
 24 17  1  0  0  0  0
 25 24  1  0  0  0  0
 27 24  1  0  0  0  0
 28 30  1  0  0  0  0
 28 21  1  0  0  0  0
 28 29  1  0  0  0  0
 31 28  1  0  0  0  0
 32  6  1  0  0  0  0
 32 36  1  0  0  0  0
 33 32  1  0  0  0  0
 34 33  1  0  0  0  0
 34 35  1  0  0  0  0
 35 36  1  0  0  0  0
M  END
>  <minimizedAffinity>
-6.05864191

$$$$

 OpenBabel03252502353D

 36 38  0  0  1  0  0  0  0  0999 V2000
   36.7730   28.1230   41.3900 C   0  0  2  0  0  0  0  0  0  0  0  0
   37.5350   29.1430   42.2580 C   0  0  0  0  0  0  0  0  0  0  0  0
   37.4570   28.5520   43.6790 C   0  0  0  0  0  0  0  0  0  0  0  0
   38.4300   27.4030   43.6280 C   0  0  0  0  0  0  0  0  0  0  0  0
   37.9570   26.3630   42.6600 C   0  0  0  0  0  0  0  0  0  0  0  0
   37.5460   26.8680   41.3270 C   0  0  1  0  0  0  0  0  0  0  0  0
   35.7930   27.9820   41.9190 H   0  0  0  0  0  0  0  0  0  0  0  0
   38.5910   29.1840   41.9950 H   0  0  0  0  0  0  0  0  0  0  0  0
   36.9850   30.0930   42.2290 H   0  0  0  0  0  0  0  0  0  0  0  0
   37.7340   29.3180   44.4050 H   0  0  0  0  0  0  0  0  0  0  0  0
   36.4290   28.1430   43.8470 H   0  0  0  0  0  0  0  0  0  0  0  0
   39.4140   27.8170   43.3250 H   0  0  0  0  0  0  0  0  0  0  0  0
   38.4540   26.9300   44.6280 H   0  0  0  0  0  0  0  0  0  0  0  0
   38.8260   25.6700   42.4990 H   0  0  0  0  0  0  0  0  0  0  0  0
   37.1620   25.7680   43.1170 H   0  0  0  0  0  0  0  0  0  0  0  0
   38.5110   27.1330   40.7960 H   0  0  0  0  0  0  0  0  0  0  0  0
   37.0660   30.2930   38.3400 C   0  0  0  0  0  0  0  0  0  0  0  0
   37.4260   29.7010   39.5680 C   0  0  0  0  0  0  0  0  0  0  0  0
   36.5200   28.7840   40.1270 C   0  0  0  0  0  0  0  0  0  0  0  0
   35.3540   28.5270   39.4480 N   0  0  0  0  0  0  0  0  0  0  0  0
   35.0540   29.1110   38.2880 C   0  0  0  0  0  0  0  0  0  0  0  0
   35.9160   29.9980   37.7330 N   0  0  0  0  0  0  0  0  0  0  0  0
   38.3450   29.9260   40.0690 H   0  0  0  0  0  0  0  0  0  0  0  0
   38.0410   31.2680   37.7680 C   0  0  0  0  0  0  0  0  0  0  0  0
   39.2820   30.7260   37.6210 F   0  0  0  0  0  0  0  0  0  0  0  0
   37.5220   31.7520   36.5630 F   0  0  0  0  0  0  0  0  0  0  0  0
   38.0930   32.4050   38.6010 F   0  0  0  0  0  0  0  0  0  0  0  0
   33.7780   28.8020   37.5870 C   0  0  0  0  0  0  0  0  0  0  0  0
   33.7410   29.3790   36.3460 F   0  0  0  0  0  0  0  0  0  0  0  0
   32.6890   29.2320   38.3800 F   0  0  0  0  0  0  0  0  0  0  0  0
   33.5890   27.4520   37.4630 F   0  0  0  0  0  0  0  0  0  0  0  0
   36.9650   25.7400   40.5840 C   0  0  0  0  0  3  0  0  0  0  0  0
   37.6440   25.2440   39.3680 C   0  0  0  0  0  2  0  0  0  0  0  0
   36.7480   24.0450   39.0130 C   0  0  0  0  0  2  0  0  0  0  0  0
   36.3380   23.4970   40.3630 C   0  0  0  0  0  2  0  0  0  0  0  0
   36.8560   24.4710   41.4090 C   0  0  0  0  0  2  0  0  0  0  0  0
  1  7  1  1  0  0  0
  1  2  1  0  0  0  0
  2  3  1  0  0  0  0
  3 11  1  0  0  0  0
  3 10  1  0  0  0  0
  4  3  1  0  0  0  0
  4 13  1  0  0  0  0
  5 15  1  0  0  0  0
  5  4  1  0  0  0  0
  6 16  1  6  0  0  0
  6  1  1  0  0  0  0
  6  5  1  0  0  0  0
  8  2  1  0  0  0  0
  9  2  1  0  0  0  0
 12  4  1  0  0  0  0
 14  5  1  0  0  0  0
 17 18  1  0  0  0  0
 18 23  1  0  0  0  0
 18 19  2  0  0  0  0
 19  1  1  0  0  0  0
 20 19  1  0  0  0  0
 21 20  2  0  0  0  0
 22 21  1  0  0  0  0
 22 17  2  0  0  0  0
 24 17  1  0  0  0  0
 24 27  1  0  0  0  0
 25 24  1  0  0  0  0
 26 24  1  0  0  0  0
 28 21  1  0  0  0  0
 28 30  1  0  0  0  0
 29 28  1  0  0  0  0
 31 28  1  0  0  0  0
 32  6  1  0  0  0  0
 32 36  1  0  0  0  0
 33 32  1  0  0  0  0
 34 33  1  0  0  0  0
 34 35  1  0  0  0  0
 35 36  1  0  0  0  0
M  END
>  <minimizedAffinity>
-6.01377249

$$$$

 OpenBabel03252502353D

 36 38  0  0  1  0  0  0  0  0999 V2000
   37.7550   27.4270   41.8310 C   0  0  2  0  0  0  0  0  0  0  0  0
   38.9990   28.0000   42.5370 C   0  0  0  0  0  0  0  0  0  0  0  0
   39.2700   27.0020   43.6800 C   0  0  0  0  0  0  0  0  0  0  0  0
   39.8440   25.8080   42.9640 C   0  0  0  0  0  0  0  0  0  0  0  0
   38.8230   25.2080   42.0490 C   0  0  0  0  0  0  0  0  0  0  0  0
   38.1180   26.1640   41.1610 C   0  0  1  0  0  0  0  0  0  0  0  0
   37.0160   27.2610   42.6590 H   0  0  0  0  0  0  0  0  0  0  0  0
   39.8740   27.9780   41.8890 H   0  0  0  0  0  0  0  0  0  0  0  0
   38.7300   28.9760   42.9630 H   0  0  0  0  0  0  0  0  0  0  0  0
   39.9630   27.4500   44.3940 H   0  0  0  0  0  0  0  0  0  0  0  0
   38.2960   26.7080   44.1430 H   0  0  0  0  0  0  0  0  0  0  0  0
   40.7340   26.1570   42.4000 H   0  0  0  0  0  0  0  0  0  0  0  0
   40.0920   25.0410   43.7230 H   0  0  0  0  0  0  0  0  0  0  0  0
   39.3790   24.4900   41.3890 H   0  0  0  0  0  0  0  0  0  0  0  0
   38.1110   24.6130   42.6290 H   0  0  0  0  0  0  0  0  0  0  0  0
   38.8740   26.4490   40.3670 H   0  0  0  0  0  0  0  0  0  0  0  0
   37.2790   30.7110   40.0740 C   0  0  0  0  0  0  0  0  0  0  0  0
   37.8610   29.7550   40.9310 C   0  0  0  0  0  0  0  0  0  0  0  0
   37.2570   28.4860   40.9790 C   0  0  0  0  0  0  0  0  0  0  0  0
   36.1510   28.2640   40.1960 N   0  0  0  0  0  0  0  0  0  0  0  0
   35.6350   29.1980   39.3980 C   0  0  0  0  0  0  0  0  0  0  0  0
   36.2030   30.4280   39.3390 N   0  0  0  0  0  0  0  0  0  0  0  0
   38.7240   29.9630   41.5280 H   0  0  0  0  0  0  0  0  0  0  0  0
   37.9340   32.0520   40.0430 C   0  0  0  0  0  0  0  0  0  0  0  0
   38.6180   32.3150   41.1910 F   0  0  0  0  0  0  0  0  0  0  0  0
   38.7480   32.1170   38.9080 F   0  0  0  0  0  0  0  0  0  0  0  0
   36.9490   33.0360   39.8170 F   0  0  0  0  0  0  0  0  0  0  0  0
   34.4340   28.9130   38.5660 C   0  0  0  0  0  0  0  0  0  0  0  0
   33.2810   29.2410   39.2290 F   0  0  0  0  0  0  0  0  0  0  0  0
   34.4350   27.5500   38.1910 F   0  0  0  0  0  0  0  0  0  0  0  0
   34.4790   29.5880   37.3760 F   0  0  0  0  0  0  0  0  0  0  0  0
   37.0530   25.4250   40.4660 C   0  0  0  0  0  3  0  0  0  0  0  0
   37.2560   25.0060   39.0630 C   0  0  0  0  0  2  0  0  0  0  0  0
   35.9610   24.2150   38.8140 C   0  0  0  0  0  2  0  0  0  0  0  0
   35.6890   23.5520   40.1470 C   0  0  0  0  0  2  0  0  0  0  0  0
   36.7090   24.1040   41.1290 C   0  0  0  0  0  2  0  0  0  0  0  0
  1  2  1  0  0  0  0
  1  7  1  1  0  0  0
  2  9  1  0  0  0  0
  2  3  1  0  0  0  0
  3 11  1  0  0  0  0
  3 10  1  0  0  0  0
  4  3  1  0  0  0  0
  4 13  1  0  0  0  0
  5 15  1  0  0  0  0
  5  4  1  0  0  0  0
  6 16  1  6  0  0  0
  6  1  1  0  0  0  0
  6  5  1  0  0  0  0
  8  2  1  0  0  0  0
 12  4  1  0  0  0  0
 14  5  1  0  0  0  0
 17 18  1  0  0  0  0
 18 19  2  0  0  0  0
 18 23  1  0  0  0  0
 19  1  1  0  0  0  0
 20 19  1  0  0  0  0
 21 20  2  0  0  0  0
 22 21  1  0  0  0  0
 22 17  2  0  0  0  0
 24 17  1  0  0  0  0
 24 25  1  0  0  0  0
 26 24  1  0  0  0  0
 27 24  1  0  0  0  0
 28 29  1  0  0  0  0
 28 21  1  0  0  0  0
 30 28  1  0  0  0  0
 31 28  1  0  0  0  0
 32 36  1  0  0  0  0
 32  6  1  0  0  0  0
 33 32  1  0  0  0  0
 34 33  1  0  0  0  0
 34 35  1  0  0  0  0
 35 36  1  0  0  0  0
M  END
>  <minimizedAffinity>
-5.88136387

$$$$

 OpenBabel03252502353D

 36 38  0  0  1  0  0  0  0  0999 V2000
   37.1550   26.2150   39.4360 C   0  0  2  0  0  0  0  0  0  0  0  0
   36.5180   25.0870   38.6000 C   0  0  0  0  0  0  0  0  0  0  0  0
   37.3320   23.8360   38.9870 C   0  0  0  0  0  0  0  0  0  0  0  0
   36.8310   23.5150   40.3700 C   0  0  0  0  0  0  0  0  0  0  0  0
   37.1840   24.6160   41.3210 C   0  0  0  0  0  0  0  0  0  0  0  0
   36.8560   25.9880   40.8620 C   0  0  1  0  0  0  0  0  0  0  0  0
   38.2540   26.1350   39.2230 H   0  0  0  0  0  0  0  0  0  0  0  0
   35.4900   24.8960   38.9010 H   0  0  0  0  0  0  0  0  0  0  0  0
   36.6850   25.3140   37.5380 H   0  0  0  0  0  0  0  0  0  0  0  0
   37.1380   23.0420   38.2630 H   0  0  0  0  0  0  0  0  0  0  0  0
   38.4130   24.1120   39.0520 H   0  0  0  0  0  0  0  0  0  0  0  0
   35.7310   23.3800   40.3010 H   0  0  0  0  0  0  0  0  0  0  0  0
   37.3530   22.6030   40.7200 H   0  0  0  0  0  0  0  0  0  0  0  0
   36.5870   24.4260   42.2530 H   0  0  0  0  0  0  0  0  0  0  0  0
   38.2380   24.5370   41.6020 H   0  0  0  0  0  0  0  0  0  0  0  0
   35.7300   26.0730   40.9530 H   0  0  0  0  0  0  0  0  0  0  0  0
   36.8650   29.7740   38.2740 C   0  0  0  0  0  0  0  0  0  0  0  0
   37.4500   28.6230   38.8410 C   0  0  0  0  0  0  0  0  0  0  0  0
   36.6680   27.4550   38.8670 C   0  0  0  0  0  0  0  0  0  0  0  0
   35.4000   27.5100   38.3440 N   0  0  0  0  0  0  0  0  0  0  0  0
   34.8880   28.6220   37.8170 C   0  0  0  0  0  0  0  0  0  0  0  0
   35.6260   29.7580   37.7830 N   0  0  0  0  0  0  0  0  0  0  0  0
   38.4430   28.6160   39.2390 H   0  0  0  0  0  0  0  0  0  0  0  0
   37.7110   31.0030   38.2620 C   0  0  0  0  0  0  0  0  0  0  0  0
   38.9860   30.7530   38.6690 F   0  0  0  0  0  0  0  0  0  0  0  0
   37.6580   31.5600   36.9800 F   0  0  0  0  0  0  0  0  0  0  0  0
   37.1110   31.9790   39.0850 F   0  0  0  0  0  0  0  0  0  0  0  0
   33.5060   28.6360   37.2620 C   0  0  0  0  0  0  0  0  0  0  0  0
   32.6330   29.2520   38.1180 F   0  0  0  0  0  0  0  0  0  0  0  0
   33.0970   27.3120   36.9840 F   0  0  0  0  0  0  0  0  0  0  0  0
   33.4640   29.2620   36.0440 F   0  0  0  0  0  0  0  0  0  0  0  0
   37.4190   26.9310   41.8400 C   0  0  0  0  0  3  0  0  0  0  0  0
   36.5350   27.5310   42.8630 C   0  0  0  0  0  2  0  0  0  0  0  0
   37.5580   28.3390   43.6800 C   0  0  0  0  0  2  0  0  0  0  0  0
   38.7990   27.4750   43.6480 C   0  0  0  0  0  2  0  0  0  0  0  0
   38.5090   26.3210   42.7020 C   0  0  0  0  0  2  0  0  0  0  0  0
  1  7  1  6  0  0  0
  1  6  1  0  0  0  0
  2  8  1  0  0  0  0
  2  3  1  0  0  0  0
  2  1  1  0  0  0  0
  3 11  1  0  0  0  0
  3  4  1  0  0  0  0
  4 13  1  0  0  0  0
  4  5  1  0  0  0  0
  5 15  1  0  0  0  0
  5 14  1  0  0  0  0
  6 16  1  1  0  0  0
  6  5  1  0  0  0  0
  6 32  1  0  0  0  0
  9  2  1  0  0  0  0
 10  3  1  0  0  0  0
 12  4  1  0  0  0  0
 17 18  1  0  0  0  0
 18 19  2  0  0  0  0
 18 23  1  0  0  0  0
 19  1  1  0  0  0  0
 20 19  1  0  0  0  0
 21 20  2  0  0  0  0
 22 21  1  0  0  0  0
 22 17  2  0  0  0  0
 24 17  1  0  0  0  0
 24 25  1  0  0  0  0
 24 27  1  0  0  0  0
 26 24  1  0  0  0  0
 28 21  1  0  0  0  0
 28 29  1  0  0  0  0
 30 28  1  0  0  0  0
 31 28  1  0  0  0  0
 32 36  1  0  0  0  0
 32 33  1  0  0  0  0
 33 34  1  0  0  0  0
 35 34  1  0  0  0  0
 36 35  1  0  0  0  0
M  END
>  <minimizedAffinity>
-5.82280207

$$$$

 OpenBabel03252502353D

 36 38  0  0  1  0  0  0  0  0999 V2000
   40.7110   29.6580   42.3250 C   0  0  2  0  0  0  0  0  0  0  0  0
   42.2410   29.4810   42.2750 C   0  0  0  0  0  0  0  0  0  0  0  0
   42.5990   28.9560   43.6790 C   0  0  0  0  0  0  0  0  0  0  0  0
   42.1220   27.5280   43.6440 C   0  0  0  0  0  0  0  0  0  0  0  0
   40.6330   27.4800   43.4910 C   0  0  0  0  0  0  0  0  0  0  0  0
   40.0730   28.3320   42.4130 C   0  0  1  0  0  0  0  0  0  0  0  0
   40.5310   30.2700   43.2490 H   0  0  0  0  0  0  0  0  0  0  0  0
   42.5320   28.7050   41.5680 H   0  0  0  0  0  0  0  0  0  0  0  0
   42.6950   30.4710   42.1310 H   0  0  0  0  0  0  0  0  0  0  0  0
   43.6760   29.0460   43.8350 H   0  0  0  0  0  0  0  0  0  0  0  0
   42.0000   29.5150   44.4400 H   0  0  0  0  0  0  0  0  0  0  0  0
   42.6300   27.0290   42.7920 H   0  0  0  0  0  0  0  0  0  0  0  0
   42.3640   27.0620   44.6190 H   0  0  0  0  0  0  0  0  0  0  0  0
   40.3810   26.4150   43.2370 H   0  0  0  0  0  0  0  0  0  0  0  0
   40.1560   27.6950   44.4500 H   0  0  0  0  0  0  0  0  0  0  0  0
   40.3360   27.8040   41.4460 H   0  0  0  0  0  0  0  0  0  0  0  0
   40.8480   31.5600   39.0900 C   0  0  0  0  0  0  0  0  0  0  0  0
   41.2960   30.7570   40.1590 C   0  0  0  0  0  0  0  0  0  0  0  0
   40.3650   30.4620   41.1710 C   0  0  0  0  0  0  0  0  0  0  0  0
   39.0950   30.9690   41.0530 N   0  0  0  0  0  0  0  0  0  0  0  0
   38.7150   31.7250   40.0230 C   0  0  0  0  0  0  0  0  0  0  0  0
   39.5980   32.0210   39.0380 N   0  0  0  0  0  0  0  0  0  0  0  0
   42.2950   30.3780   40.2180 H   0  0  0  0  0  0  0  0  0  0  0  0
   41.8540   31.8650   38.0300 C   0  0  0  0  0  0  0  0  0  0  0  0
   42.7580   32.8000   38.4350 F   0  0  0  0  0  0  0  0  0  0  0  0
   42.4600   30.6660   37.6420 F   0  0  0  0  0  0  0  0  0  0  0  0
   41.1780   32.2990   36.8700 F   0  0  0  0  0  0  0  0  0  0  0  0
   37.3260   32.2550   39.9370 C   0  0  0  0  0  0  0  0  0  0  0  0
   37.3140   33.6230   39.9760 F   0  0  0  0  0  0  0  0  0  0  0  0
   36.5490   31.7080   40.9830 F   0  0  0  0  0  0  0  0  0  0  0  0
   36.6990   31.8290   38.7970 F   0  0  0  0  0  0  0  0  0  0  0  0
   38.6070   28.2810   42.5230 C   0  0  0  0  0  3  0  0  0  0  0  0
   37.8130   27.7400   41.4000 C   0  0  0  0  0  2  0  0  0  0  0  0
   36.3970   27.8020   41.9990 C   0  0  0  0  0  2  0  0  0  0  0  0
   36.6180   27.4860   43.4620 C   0  0  0  0  0  2  0  0  0  0  0  0
   38.1220   27.4250   43.6780 C   0  0  0  0  0  2  0  0  0  0  0  0
  1  6  1  0  0  0  0
  1  7  1  1  0  0  0
  2  1  1  0  0  0  0
  2  3  1  0  0  0  0
  3 10  1  0  0  0  0
  3 11  1  0  0  0  0
  4  3  1  0  0  0  0
  4 13  1  0  0  0  0
  5  4  1  0  0  0  0
  5 15  1  0  0  0  0
  6 16  1  6  0  0  0
  6 32  1  0  0  0  0
  6  5  1  0  0  0  0
  8  2  1  0  0  0  0
  9  2  1  0  0  0  0
 12  4  1  0  0  0  0
 14  5  1  0  0  0  0
 17 18  1  0  0  0  0
 18 23  1  0  0  0  0
 18 19  2  0  0  0  0
 19  1  1  0  0  0  0
 20 19  1  0  0  0  0
 21 20  2  0  0  0  0
 22 17  2  0  0  0  0
 22 21  1  0  0  0  0
 24 25  1  0  0  0  0
 24 17  1  0  0  0  0
 26 24  1  0  0  0  0
 27 24  1  0  0  0  0
 28 29  1  0  0  0  0
 28 21  1  0  0  0  0
 28 30  1  0  0  0  0
 31 28  1  0  0  0  0
 32 36  1  0  0  0  0
 33 34  1  0  0  0  0
 33 32  1  0  0  0  0
 34 35  1  0  0  0  0
 35 36  1  0  0  0  0
M  END
>  <minimizedAffinity>
-5.81082821

$$$$

 OpenBabel03252502353D

 36 38  0  0  1  0  0  0  0  0999 V2000
   37.2360   26.1590   39.4240 C   0  0  2  0  0  0  0  0  0  0  0  0
   36.6490   25.0170   38.5730 C   0  0  0  0  0  0  0  0  0  0  0  0
   37.5150   23.7970   38.9430 C   0  0  0  0  0  0  0  0  0  0  0  0
   37.0290   23.4350   40.3220 C   0  0  0  0  0  0  0  0  0  0  0  0
   37.3350   24.5380   41.2880 C   0  0  0  0  0  0  0  0  0  0  0  0
   36.9480   25.9010   40.8470 C   0  0  1  0  0  0  0  0  0  0  0  0
   38.3380   26.1290   39.2100 H   0  0  0  0  0  0  0  0  0  0  0  0
   35.6290   24.7780   38.8710 H   0  0  0  0  0  0  0  0  0  0  0  0
   36.8050   25.2650   37.5140 H   0  0  0  0  0  0  0  0  0  0  0  0
   37.3550   23.0050   38.2090 H   0  0  0  0  0  0  0  0  0  0  0  0
   38.5840   24.1170   39.0130 H   0  0  0  0  0  0  0  0  0  0  0  0
   35.9360   23.2550   40.2510 H   0  0  0  0  0  0  0  0  0  0  0  0
   37.5890   22.5420   40.6590 H   0  0  0  0  0  0  0  0  0  0  0  0
   36.7470   24.3100   42.2170 H   0  0  0  0  0  0  0  0  0  0  0  0
   38.3910   24.5010   41.5680 H   0  0  0  0  0  0  0  0  0  0  0  0
   35.8200   25.9360   40.9390 H   0  0  0  0  0  0  0  0  0  0  0  0
   34.9760   28.7090   37.8460 C   0  0  0  0  0  0  0  0  0  0  0  0
   35.3870   27.4670   38.3710 C   0  0  0  0  0  0  0  0  0  0  0  0
   36.6970   27.3850   38.8720 C   0  0  0  0  0  0  0  0  0  0  0  0
   37.4840   28.5090   38.8190 N   0  0  0  0  0  0  0  0  0  0  0  0
   37.0540   29.6640   38.3140 C   0  0  0  0  0  0  0  0  0  0  0  0
   35.7930   29.7630   37.8250 N   0  0  0  0  0  0  0  0  0  0  0  0
   34.7450   26.6110   38.3970 H   0  0  0  0  0  0  0  0  0  0  0  0
   33.5830   28.7710   37.3150 C   0  0  0  0  0  0  0  0  0  0  0  0
   33.4840   29.5890   36.2300 F   0  0  0  0  0  0  0  0  0  0  0  0
   33.1580   27.4670   37.0420 F   0  0  0  0  0  0  0  0  0  0  0  0
   32.7210   29.2060   38.3430 F   0  0  0  0  0  0  0  0  0  0  0  0
   37.9430   30.8590   38.2760 C   0  0  0  0  0  0  0  0  0  0  0  0
   37.2450   31.9860   37.9330 F   0  0  0  0  0  0  0  0  0  0  0  0
   39.0060   30.6250   37.3750 F   0  0  0  0  0  0  0  0  0  0  0  0
   38.5620   31.0590   39.4800 F   0  0  0  0  0  0  0  0  0  0  0  0
   37.4710   26.8540   41.8380 C   0  0  0  0  0  3  0  0  0  0  0  0
   36.5520   27.4380   42.8380 C   0  0  0  0  0  2  0  0  0  0  0  0
   37.5400   28.2640   43.6800 C   0  0  0  0  0  2  0  0  0  0  0  0
   38.7960   27.4210   43.6790 C   0  0  0  0  0  2  0  0  0  0  0  0
   38.5490   26.2630   42.7270 C   0  0  0  0  0  2  0  0  0  0  0  0
  1  7  1  6  0  0  0
  1  6  1  0  0  0  0
  2  8  1  0  0  0  0
  2  3  1  0  0  0  0
  2  1  1  0  0  0  0
  3 11  1  0  0  0  0
  3  4  1  0  0  0  0
  4 13  1  0  0  0  0
  4  5  1  0  0  0  0
  5 15  1  0  0  0  0
  5 14  1  0  0  0  0
  6 16  1  1  0  0  0
  6  5  1  0  0  0  0
  6 32  1  0  0  0  0
  9  2  1  0  0  0  0
 10  3  1  0  0  0  0
 12  4  1  0  0  0  0
 17 18  1  0  0  0  0
 18 23  1  0  0  0  0
 18 19  2  0  0  0  0
 19  1  1  0  0  0  0
 20 19  1  0  0  0  0
 21 20  2  0  0  0  0
 22 17  2  0  0  0  0
 22 21  1  0  0  0  0
 24 17  1  0  0  0  0
 24 27  1  0  0  0  0
 25 24  1  0  0  0  0
 26 24  1  0  0  0  0
 28 21  1  0  0  0  0
 28 31  1  0  0  0  0
 29 28  1  0  0  0  0
 30 28  1  0  0  0  0
 32 36  1  0  0  0  0
 32 33  1  0  0  0  0
 33 34  1  0  0  0  0
 35 34  1  0  0  0  0
 36 35  1  0  0  0  0
M  END
>  <minimizedAffinity>
-5.77385998

$$$$

 OpenBabel03252502353D

 36 38  0  0  1  0  0  0  0  0999 V2000
   36.2210   28.7640   38.2230 C   0  0  2  0  0  0  0  0  0  0  0  0
   36.0400   27.9310   36.9390 C   0  0  0  0  0  0  0  0  0  0  0  0
   35.3970   28.9180   35.9450 C   0  0  0  0  0  0  0  0  0  0  0  0
   36.5420   29.8210   35.5680 C   0  0  0  0  0  0  0  0  0  0  0  0
   37.0110   30.5950   36.7610 C   0  0  0  0  0  0  0  0  0  0  0  0
   37.2480   29.7960   37.9890 C   0  0  1  0  0  0  0  0  0  0  0  0
   35.2100   29.2160   38.4080 H   0  0  0  0  0  0  0  0  0  0  0  0
   36.9970   27.6380   36.5130 H   0  0  0  0  0  0  0  0  0  0  0  0
   35.3300   27.1210   37.1560 H   0  0  0  0  0  0  0  0  0  0  0  0
   34.9890   28.3640   35.0980 H   0  0  0  0  0  0  0  0  0  0  0  0
   34.6260   29.5240   36.4820 H   0  0  0  0  0  0  0  0  0  0  0  0
   37.3510   29.1770   35.1630 H   0  0  0  0  0  0  0  0  0  0  0  0
   36.1700   30.5560   34.8290 H   0  0  0  0  0  0  0  0  0  0  0  0
   37.9930   31.0540   36.4690 H   0  0  0  0  0  0  0  0  0  0  0  0
   36.3240   31.4220   36.9570 H   0  0  0  0  0  0  0  0  0  0  0  0
   38.2090   29.2300   37.7970 H   0  0  0  0  0  0  0  0  0  0  0  0
   36.8680   27.1850   41.5680 C   0  0  0  0  0  0  0  0  0  0  0  0
   36.5820   28.1970   40.6290 C   0  0  0  0  0  0  0  0  0  0  0  0
   36.4960   27.8130   39.2800 C   0  0  0  0  0  0  0  0  0  0  0  0
   36.6940   26.4910   38.9670 N   0  0  0  0  0  0  0  0  0  0  0  0
   36.9630   25.5670   39.8890 C   0  0  0  0  0  0  0  0  0  0  0  0
   37.0500   25.9180   41.1960 N   0  0  0  0  0  0  0  0  0  0  0  0
   36.4330   29.2190   40.9090 H   0  0  0  0  0  0  0  0  0  0  0  0
   36.9600   27.6180   42.9930 C   0  0  0  0  0  0  0  0  0  0  0  0
   35.8110   27.3700   43.6800 F   0  0  0  0  0  0  0  0  0  0  0  0
   38.0720   26.9960   43.5700 F   0  0  0  0  0  0  0  0  0  0  0  0
   37.2750   28.9920   43.0350 F   0  0  0  0  0  0  0  0  0  0  0  0
   37.1710   24.1430   39.5050 C   0  0  0  0  0  0  0  0  0  0  0  0
   38.4760   23.9060   39.1670 F   0  0  0  0  0  0  0  0  0  0  0  0
   36.3010   23.8110   38.4410 F   0  0  0  0  0  0  0  0  0  0  0  0
   36.8040   23.2940   40.5150 F   0  0  0  0  0  0  0  0  0  0  0  0
   37.5370   30.7380   39.0820 C   0  0  0  0  0  3  0  0  0  0  0  0
   38.9300   30.8980   39.5520 C   0  0  0  0  0  2  0  0  0  0  0  0
   38.7480   32.0130   40.5960 C   0  0  0  0  0  2  0  0  0  0  0  0
   37.6670   32.8860   39.9970 C   0  0  0  0  0  2  0  0  0  0  0  0
   37.1620   32.1700   38.7550 C   0  0  0  0  0  2  0  0  0  0  0  0
  1  7  1  1  0  0  0
  1 19  1  0  0  0  0
  2  9  1  0  0  0  0
  2  1  1  0  0  0  0
  3 11  1  0  0  0  0
  3  2  1  0  0  0  0
  4  3  1  0  0  0  0
  4  5  1  0  0  0  0
  5 15  1  0  0  0  0
  5  6  1  0  0  0  0
  6 16  1  6  0  0  0
  6  1  1  0  0  0  0
  6 32  1  0  0  0  0
  8  2  1  0  0  0  0
 10  3  1  0  0  0  0
 12  4  1  0  0  0  0
 13  4  1  0  0  0  0
 14  5  1  0  0  0  0
 17 24  1  0  0  0  0
 18 23  1  0  0  0  0
 18 17  2  0  0  0  0
 19 18  1  0  0  0  0
 20 19  2  0  0  0  0
 20 21  1  0  0  0  0
 21 22  2  0  0  0  0
 22 17  1  0  0  0  0
 24 27  1  0  0  0  0
 24 26  1  0  0  0  0
 24 25  1  0  0  0  0
 28 21  1  0  0  0  0
 28 31  1  0  0  0  0
 29 28  1  0  0  0  0
 30 28  1  0  0  0  0
 32 33  1  0  0  0  0
 33 34  1  0  0  0  0
 35 34  1  0  0  0  0
 36 32  1  0  0  0  0
 36 35  1  0  0  0  0
M  END
>  <minimizedAffinity>
-5.70216513

$$$$

 OpenBabel03252502353D

 36 38  0  0  1  0  0  0  0  0999 V2000
   37.1970   29.3620   38.9480 C   0  0  2  0  0  0  0  0  0  0  0  0
   36.2050   30.0300   37.9750 C   0  0  0  0  0  0  0  0  0  0  0  0
   35.0120   29.0560   37.9350 C   0  0  0  0  0  0  0  0  0  0  0  0
   34.3400   29.2820   39.2640 C   0  0  0  0  0  0  0  0  0  0  0  0
   35.2450   28.8690   40.3830 C   0  0  0  0  0  0  0  0  0  0  0  0
   36.6320   29.3910   40.3100 C   0  0  1  0  0  0  0  0  0  0  0  0
   37.3020   28.3130   38.5630 H   0  0  0  0  0  0  0  0  0  0  0  0
   35.8270   30.9710   38.3710 H   0  0  0  0  0  0  0  0  0  0  0  0
   36.6750   30.0690   36.9830 H   0  0  0  0  0  0  0  0  0  0  0  0
   34.3740   29.3000   37.0840 H   0  0  0  0  0  0  0  0  0  0  0  0
   35.4000   28.0080   37.9040 H   0  0  0  0  0  0  0  0  0  0  0  0
   34.0870   30.3610   39.3280 H   0  0  0  0  0  0  0  0  0  0  0  0
   33.4460   28.6300   39.3110 H   0  0  0  0  0  0  0  0  0  0  0  0
   34.7850   29.2790   41.3220 H   0  0  0  0  0  0  0  0  0  0  0  0
   35.2400   27.7810   40.4800 H   0  0  0  0  0  0  0  0  0  0  0  0
   36.5540   30.4880   40.5820 H   0  0  0  0  0  0  0  0  0  0  0  0
   40.7240   30.2090   37.9780 C   0  0  0  0  0  0  0  0  0  0  0  0
   39.5390   29.4520   38.0860 C   0  0  0  0  0  0  0  0  0  0  0  0
   38.4600   30.0460   38.7620 C   0  0  0  0  0  0  0  0  0  0  0  0
   38.6270   31.3110   39.2670 N   0  0  0  0  0  0  0  0  0  0  0  0
   39.7660   31.9910   39.1410 C   0  0  0  0  0  0  0  0  0  0  0  0
   40.8190   31.4350   38.4930 N   0  0  0  0  0  0  0  0  0  0  0  0
   39.4440   28.4680   37.6780 H   0  0  0  0  0  0  0  0  0  0  0  0
   41.8590   29.5570   37.2610 C   0  0  0  0  0  0  0  0  0  0  0  0
   41.5920   28.2570   36.9540 F   0  0  0  0  0  0  0  0  0  0  0  0
   42.1620   30.3220   36.1300 F   0  0  0  0  0  0  0  0  0  0  0  0
   43.0180   29.6500   38.0590 F   0  0  0  0  0  0  0  0  0  0  0  0
   39.9040   33.3620   39.7070 C   0  0  0  0  0  0  0  0  0  0  0  0
   40.4510   33.3290   40.9620 F   0  0  0  0  0  0  0  0  0  0  0  0
   38.6390   33.9940   39.7200 F   0  0  0  0  0  0  0  0  0  0  0  0
   40.6690   34.1610   38.9000 F   0  0  0  0  0  0  0  0  0  0  0  0
   37.4040   28.7540   41.3870 C   0  0  0  0  0  3  0  0  0  0  0  0
   38.0470   29.5980   42.4160 C   0  0  0  0  0  2  0  0  0  0  0  0
   38.6320   28.5180   43.3420 C   0  0  0  0  0  2  0  0  0  0  0  0
   37.5990   27.4130   43.2930 C   0  0  0  0  0  2  0  0  0  0  0  0
   36.5770   27.8130   42.2420 C   0  0  0  0  0  2  0  0  0  0  0  0
  1  7  1  6  0  0  0
  1  6  1  0  0  0  0
  2  8  1  0  0  0  0
  2  1  1  0  0  0  0
  3  2  1  0  0  0  0
  3  4  1  0  0  0  0
  4 13  1  0  0  0  0
  4 12  1  0  0  0  0
  4  5  1  0  0  0  0
  5 15  1  0  0  0  0
  5 14  1  0  0  0  0
  6  5  1  0  0  0  0
  6 16  1  1  0  0  0
  6 32  1  0  0  0  0
  9  2  1  0  0  0  0
 10  3  1  0  0  0  0
 11  3  1  0  0  0  0
 17 18  2  0  0  0  0
 17 22  1  0  0  0  0
 18 19  1  0  0  0  0
 19  1  1  0  0  0  0
 19 20  2  0  0  0  0
 21 20  1  0  0  0  0
 21 28  1  0  0  0  0
 22 21  2  0  0  0  0
 23 18  1  0  0  0  0
 24 17  1  0  0  0  0
 24 27  1  0  0  0  0
 25 24  1  0  0  0  0
 26 24  1  0  0  0  0
 28 30  1  0  0  0  0
 28 29  1  0  0  0  0
 31 28  1  0  0  0  0
 32 36  1  0  0  0  0
 32 33  1  0  0  0  0
 33 34  1  0  0  0  0
 35 34  1  0  0  0  0
 36 35  1  0  0  0  0
M  END
>  <minimizedAffinity>
-5.67965174

$$$$

 OpenBabel03252502353D

 36 38  0  0  1  0  0  0  0  0999 V2000
   38.5250   31.5760   40.9340 C   0  0  2  0  0  0  0  0  0  0  0  0
   37.7490   32.6240   40.1130 C   0  0  0  0  0  0  0  0  0  0  0  0
   38.4020   33.9630   40.5100 C   0  0  0  0  0  0  0  0  0  0  0  0
   39.7250   33.9260   39.7920 C   0  0  0  0  0  0  0  0  0  0  0  0
   40.5760   32.8140   40.3220 C   0  0  0  0  0  0  0  0  0  0  0  0
   39.9080   31.4930   40.4290 C   0  0  1  0  0  0  0  0  0  0  0  0
   38.4880   31.9620   41.9870 H   0  0  0  0  0  0  0  0  0  0  0  0
   37.9160   32.5010   39.0440 H   0  0  0  0  0  0  0  0  0  0  0  0
   36.7040   32.6160   40.4500 H   0  0  0  0  0  0  0  0  0  0  0  0
   37.7610   34.7860   40.1900 H   0  0  0  0  0  0  0  0  0  0  0  0
   38.5930   33.9610   41.6120 H   0  0  0  0  0  0  0  0  0  0  0  0
   39.5120   33.7890   38.7110 H   0  0  0  0  0  0  0  0  0  0  0  0
   40.2570   34.8730   40.0060 H   0  0  0  0  0  0  0  0  0  0  0  0
   41.4260   32.6990   39.5970 H   0  0  0  0  0  0  0  0  0  0  0  0
   41.0170   33.1100   41.2780 H   0  0  0  0  0  0  0  0  0  0  0  0
   39.8210   31.1150   39.3650 H   0  0  0  0  0  0  0  0  0  0  0  0
   36.8910   28.2960   41.7530 C   0  0  0  0  0  0  0  0  0  0  0  0
   37.6730   29.4550   41.9400 C   0  0  0  0  0  0  0  0  0  0  0  0
   37.7430   30.3590   40.8660 C   0  0  0  0  0  0  0  0  0  0  0  0
   37.0530   30.0580   39.7180 N   0  0  0  0  0  0  0  0  0  0  0  0
   36.3250   28.9500   39.5860 C   0  0  0  0  0  0  0  0  0  0  0  0
   36.2450   28.0660   40.6100 N   0  0  0  0  0  0  0  0  0  0  0  0
   38.1970   29.6570   42.8500 H   0  0  0  0  0  0  0  0  0  0  0  0
   36.8340   27.3480   42.9050 C   0  0  0  0  0  0  0  0  0  0  0  0
   35.7320   27.5470   43.6790 F   0  0  0  0  0  0  0  0  0  0  0  0
   36.9090   26.0450   42.4040 F   0  0  0  0  0  0  0  0  0  0  0  0
   38.0100   27.4900   43.6710 F   0  0  0  0  0  0  0  0  0  0  0  0
   35.5930   28.6640   38.3210 C   0  0  0  0  0  0  0  0  0  0  0  0
   34.3360   29.2070   38.3410 F   0  0  0  0  0  0  0  0  0  0  0  0
   35.5410   27.2670   38.1130 F   0  0  0  0  0  0  0  0  0  0  0  0
   36.2740   29.1390   37.2310 F   0  0  0  0  0  0  0  0  0  0  0  0
   40.8360   30.5800   41.1150 C   0  0  0  0  0  3  0  0  0  0  0  0
   40.6990   30.3640   42.5710 C   0  0  0  0  0  2  0  0  0  0  0  0
   41.7860   29.3000   42.8010 C   0  0  0  0  0  2  0  0  0  0  0  0
   41.7360   28.4650   41.5410 C   0  0  0  0  0  2  0  0  0  0  0  0
   40.7750   29.1580   40.5900 C   0  0  0  0  0  2  0  0  0  0  0  0
  1  7  1  1  0  0  0
  2  9  1  0  0  0  0
  2  3  1  0  0  0  0
  2  1  1  0  0  0  0
  3 11  1  0  0  0  0
  4 13  1  0  0  0  0
  4  5  1  0  0  0  0
  4  3  1  0  0  0  0
  5  6  1  0  0  0  0
  5 15  1  0  0  0  0
  6 16  1  6  0  0  0
  6  1  1  0  0  0  0
  6 32  1  0  0  0  0
  8  2  1  0  0  0  0
 10  3  1  0  0  0  0
 12  4  1  0  0  0  0
 14  5  1  0  0  0  0
 17 18  1  0  0  0  0
 17 24  1  0  0  0  0
 18 23  1  0  0  0  0
 19  1  1  0  0  0  0
 19 18  2  0  0  0  0
 20 19  1  0  0  0  0
 21 20  2  0  0  0  0
 21 22  1  0  0  0  0
 22 17  2  0  0  0  0
 24 27  1  0  0  0  0
 24 25  1  0  0  0  0
 26 24  1  0  0  0  0
 28 29  1  0  0  0  0
 28 21  1  0  0  0  0
 30 28  1  0  0  0  0
 31 28  1  0  0  0  0
 32 33  1  0  0  0  0
 33 34  1  0  0  0  0
 35 34  1  0  0  0  0
 36 32  1  0  0  0  0
 36 35  1  0  0  0  0
M  END
>  <minimizedAffinity>
-5.63550186

$$$$
