
 OpenBabel03252504243D

 17 18  0  0  0  0  0  0  0  0999 V2000
   44.3570   35.8950   43.7400 C   0  0  0  0  0  0  0  0  0  0  0  0
   44.2590   35.0820   42.6190 C   0  0  0  0  0  0  0  0  0  0  0  0
   44.6900   33.7580   42.7430 C   0  0  0  0  0  0  0  0  0  0  0  0
   45.1730   33.3610   43.9410 N   0  0  0  0  0  0  0  0  0  0  0  0
   45.2580   34.1710   45.0110 C   0  0  0  0  0  0  0  0  0  0  0  0
   44.8490   35.4640   44.9350 N   0  0  0  0  0  0  0  0  0  0  0  0
   44.0510   36.9410   43.7560 H   0  0  0  0  0  0  0  0  0  0  0  0
   44.5980   33.1690   41.8620 H   0  0  0  0  0  0  0  0  0  0  0  0
   45.6440   33.8250   45.9430 H   0  0  0  0  0  0  0  0  0  0  0  0
   43.7020   35.7190   41.4160 C   0  0  0  0  0  0  0  0  0  0  0  0
   43.4840   36.7640   41.5890 H   0  0  0  0  0  0  0  0  0  0  0  0
   44.4400   35.6670   40.5730 H   0  0  0  0  0  0  0  0  0  0  0  0
   42.4390   35.0140   41.0000 C   0  0  0  0  0  3  0  0  0  0  0  0
   42.2140   35.0620   39.5010 C   0  0  0  0  0  2  0  0  0  0  0  0
   40.8170   34.4650   39.4320 C   0  0  0  0  0  2  0  0  0  0  0  0
   40.1040   35.2200   40.5360 C   0  0  0  0  0  2  0  0  0  0  0  0
   41.1990   35.7180   41.4870 C   0  0  0  0  0  2  0  0  0  0  0  0
  1  7  1  0  0  0  0
  1  6  1  0  0  0  0
  2  3  1  0  0  0  0
  2  1  2  0  0  0  0
  3  4  2  0  0  0  0
  4  5  1  0  0  0  0
  5  9  1  0  0  0  0
  6  5  2  0  0  0  0
  8  3  1  0  0  0  0
 10 11  1  0  0  0  0
 10  2  1  0  0  0  0
 12 10  1  0  0  0  0
 13 10  1  0  0  0  0
 13 17  1  0  0  0  0
 14 13  1  0  0  0  0
 15 14  1  0  0  0  0
 15 16  1  0  0  0  0
 16 17  1  0  0  0  0
M  END
>  <minimizedAffinity>
-4.0796423

>  <minimizedRMSD>
1.13346505

$$$$
