
 OpenBabel03242511103D

 39 43  0  0  1  0  0  0  0  0999 V2000
   37.0920   29.0810   41.5240 C   0  0  0  0  0  0  0  0  0  0  0  0
   37.5800   29.2470   42.8130 C   0  0  0  0  0  0  0  0  0  0  0  0
   37.9250   28.1930   43.6430 C   0  0  0  0  0  0  0  0  0  0  0  0
   37.7950   26.8910   43.2050 C   0  0  0  0  0  0  0  0  0  0  0  0
   37.3160   26.6870   41.9330 C   0  0  0  0  0  0  0  0  0  0  0  0
   37.1960   25.3860   41.4990 C   0  0  0  0  0  0  0  0  0  0  0  0
   36.7290   25.1120   40.2190 C   0  0  0  0  0  0  0  0  0  0  0  0
   36.4010   26.2000   39.4250 C   0  0  0  0  0  0  0  0  0  0  0  0
   36.5240   27.4830   39.8690 C   0  0  0  0  0  0  0  0  0  0  0  0
   36.9820   27.7560   41.1340 C   0  0  0  0  0  0  0  0  0  0  0  0
   37.6870   30.2700   43.1710 H   0  0  0  0  0  0  0  0  0  0  0  0
   38.2920   28.4580   44.6240 H   0  0  0  0  0  0  0  0  0  0  0  0
   38.0720   26.0920   43.8740 H   0  0  0  0  0  0  0  0  0  0  0  0
   37.4800   24.5990   42.1960 H   0  0  0  0  0  0  0  0  0  0  0  0
   36.6880   24.0280   40.0190 H   0  0  0  0  0  0  0  0  0  0  0  0
   36.0770   25.7330   38.5050 H   0  0  0  0  0  0  0  0  0  0  0  0
   36.1240   28.4500   38.8250 C   0  0  0  0  0  3  0  0  0  0  0  0
   34.8500   27.9270   38.0590 C   0  0  0  0  0  2  0  0  0  0  0  0
   34.7360   29.1370   37.0960 C   0  0  0  0  0  2  0  0  0  0  0  0
   36.1940   29.4290   36.7200 C   0  0  0  0  0  2  0  0  0  0  0  0
   36.9420   28.4560   37.5810 C   0  0  0  0  0  2  0  0  0  0  0  0
   36.7370   30.1800   40.7140 N   0  0  0  0  0  0  0  0  0  0  0  0
   35.7010   30.2260   40.5700 H   0  0  0  0  0  0  0  0  0  0  0  0
   38.1740   32.3140   40.7580 C   0  0  1  0  0  0  0  0  0  0  0  0
   37.2400   32.3700   39.5640 C   0  0  0  0  0  0  0  0  0  0  0  0
   37.7430   31.0570   40.1950 C   0  0  2  0  0  0  0  0  0  0  0  0
   37.7080   32.8660   41.6140 H   0  0  0  0  0  0  0  0  0  0  0  0
   36.1760   32.5760   39.6770 H   0  0  0  0  0  0  0  0  0  0  0  0
   37.6570   32.5760   38.5680 H   0  0  0  0  0  0  0  0  0  0  0  0
   38.5310   30.4950   39.6180 H   0  0  0  0  0  0  0  0  0  0  0  0
   41.1520   34.1430   39.4780 C   0  0  0  0  0  0  0  0  0  0  0  0
   42.2030   33.5020   40.2000 C   0  0  0  0  0  0  0  0  0  0  0  0
   41.8560   32.4560   41.1210 C   0  0  0  0  0  0  0  0  0  0  0  0
   40.5670   32.1280   41.2650 N   0  0  0  0  0  0  0  0  0  0  0  0
   39.5910   32.7590   40.5620 C   0  0  0  0  0  0  0  0  0  0  0  0
   39.8880   33.7640   39.6720 N   0  0  0  0  0  0  0  0  0  0  0  0
   41.4180   34.9270   38.7890 H   0  0  0  0  0  0  0  0  0  0  0  0
   43.2250   33.8070   40.0430 H   0  0  0  0  0  0  0  0  0  0  0  0
   42.6600   31.9750   41.6640 H   0  0  0  0  0  0  0  0  0  0  0  0
  1  2  1  0  0  0  0
  2 11  1  0  0  0  0
  2  3  2  0  0  0  0
  3 12  1  0  0  0  0
  4  3  1  0  0  0  0
  4 13  1  0  0  0  0
  5  4  2  0  0  0  0
  6  5  1  0  0  0  0
  6 14  1  0  0  0  0
  7  6  2  0  0  0  0
  8  9  2  0  0  0  0
  8  7  1  0  0  0  0
  9 10  1  0  0  0  0
 10  1  2  0  0  0  0
 10  5  1  0  0  0  0
 15  7  1  0  0  0  0
 16  8  1  0  0  0  0
 17  9  1  0  0  0  0
 18 17  1  0  0  0  0
 19 18  1  0  0  0  0
 20 19  1  0  0  0  0
 20 21  1  0  0  0  0
 21 17  1  0  0  0  0
 22  1  1  0  0  0  0
 23 22  1  0  0  0  0
 24 27  1  1  0  0  0
 25 28  1  0  0  0  0
 25 26  1  0  0  0  0
 25 24  1  0  0  0  0
 26 30  1  6  0  0  0
 26 22  1  0  0  0  0
 26 24  1  0  0  0  0
 29 25  1  0  0  0  0
 31 36  2  0  0  0  0
 31 32  1  0  0  0  0
 32 33  2  0  0  0  0
 33 34  1  0  0  0  0
 33 39  1  0  0  0  0
 35 24  1  0  0  0  0
 35 34  2  0  0  0  0
 36 35  1  0  0  0  0
 37 31  1  0  0  0  0
 38 32  1  0  0  0  0
M  END
>  <minimizedAffinity>
-6.23715162

$$$$

 OpenBabel03242511103D

 39 43  0  0  1  0  0  0  0  0999 V2000
   37.0600   31.3050   40.6120 C   0  0  0  0  0  0  0  0  0  0  0  0
   36.9330   32.4910   39.9010 C   0  0  0  0  0  0  0  0  0  0  0  0
   37.9520   33.4210   39.7760 C   0  0  0  0  0  0  0  0  0  0  0  0
   39.1760   33.1970   40.3740 C   0  0  0  0  0  0  0  0  0  0  0  0
   39.3380   32.0340   41.0870 C   0  0  0  0  0  0  0  0  0  0  0  0
   40.5640   31.8130   41.6740 C   0  0  0  0  0  0  0  0  0  0  0  0
   40.7960   30.6500   42.3990 C   0  0  0  0  0  0  0  0  0  0  0  0
   39.7480   29.7490   42.4920 C   0  0  0  0  0  0  0  0  0  0  0  0
   38.5390   29.9810   41.9050 C   0  0  0  0  0  0  0  0  0  0  0  0
   38.3060   31.1300   41.1910 C   0  0  0  0  0  0  0  0  0  0  0  0
   35.9730   32.6790   39.4240 H   0  0  0  0  0  0  0  0  0  0  0  0
   37.7250   34.3020   39.1940 H   0  0  0  0  0  0  0  0  0  0  0  0
   39.9490   33.9400   40.2580 H   0  0  0  0  0  0  0  0  0  0  0  0
   41.3250   32.5810   41.5440 H   0  0  0  0  0  0  0  0  0  0  0  0
   41.8210   30.6180   42.8070 H   0  0  0  0  0  0  0  0  0  0  0  0
   40.1720   28.9510   43.0860 H   0  0  0  0  0  0  0  0  0  0  0  0
   37.6060   28.8610   42.1430 C   0  0  0  0  0  3  0  0  0  0  0  0
   37.5900   28.4810   43.6720 C   0  0  0  0  0  2  0  0  0  0  0  0
   36.5570   27.3320   43.5390 C   0  0  0  0  0  2  0  0  0  0  0  0
   36.9760   26.6270   42.2420 C   0  0  0  0  0  2  0  0  0  0  0  0
   38.0870   27.5060   41.7510 C   0  0  0  0  0  2  0  0  0  0  0  0
   35.9930   30.3890   40.7290 N   0  0  0  0  0  0  0  0  0  0  0  0
   35.4430   30.5570   41.6040 H   0  0  0  0  0  0  0  0  0  0  0  0
   35.4650   29.6030   38.3370 C   0  0  1  0  0  0  0  0  0  0  0  0
   34.3260   29.1980   39.2540 C   0  0  0  0  0  0  0  0  0  0  0  0
   35.7810   29.3870   39.7290 C   0  0  2  0  0  0  0  0  0  0  0  0
   35.2110   30.5770   37.8450 H   0  0  0  0  0  0  0  0  0  0  0  0
   33.6060   29.9240   39.6280 H   0  0  0  0  0  0  0  0  0  0  0  0
   33.9880   28.1530   39.2570 H   0  0  0  0  0  0  0  0  0  0  0  0
   36.3610   28.4470   39.9480 H   0  0  0  0  0  0  0  0  0  0  0  0
   35.5700   26.6330   36.0970 C   0  0  0  0  0  0  0  0  0  0  0  0
   36.8490   26.7940   35.4820 C   0  0  0  0  0  0  0  0  0  0  0  0
   37.6420   27.9330   35.8500 C   0  0  0  0  0  0  0  0  0  0  0  0
   37.1520   28.7940   36.7500 N   0  0  0  0  0  0  0  0  0  0  0  0
   35.9310   28.6100   37.3160 C   0  0  0  0  0  0  0  0  0  0  0  0
   35.1460   27.5310   36.9870 N   0  0  0  0  0  0  0  0  0  0  0  0
   34.9800   25.7770   35.8160 H   0  0  0  0  0  0  0  0  0  0  0  0
   37.1930   26.0680   34.7630 H   0  0  0  0  0  0  0  0  0  0  0  0
   38.6100   28.0480   35.3790 H   0  0  0  0  0  0  0  0  0  0  0  0
  1 22  1  0  0  0  0
  1 10  1  0  0  0  0
  2  1  2  0  0  0  0
  3  2  1  0  0  0  0
  3  4  2  0  0  0  0
  4  5  1  0  0  0  0
  5 10  2  0  0  0  0
  5  6  1  0  0  0  0
  6  7  2  0  0  0  0
  7  8  1  0  0  0  0
  7 15  1  0  0  0  0
  8 16  1  0  0  0  0
  9 17  1  0  0  0  0
  9  8  2  0  0  0  0
 10  9  1  0  0  0  0
 11  2  1  0  0  0  0
 12  3  1  0  0  0  0
 13  4  1  0  0  0  0
 14  6  1  0  0  0  0
 17 18  1  0  0  0  0
 19 18  1  0  0  0  0
 20 19  1  0  0  0  0
 21 17  1  0  0  0  0
 21 20  1  0  0  0  0
 22 23  1  0  0  0  0
 24 27  1  6  0  0  0
 24 25  1  0  0  0  0
 24 26  1  0  0  0  0
 25 29  1  0  0  0  0
 25 28  1  0  0  0  0
 25 26  1  0  0  0  0
 26 30  1  1  0  0  0
 26 22  1  0  0  0  0
 31 36  1  0  0  0  0
 32 33  1  0  0  0  0
 32 31  2  0  0  0  0
 33 34  2  0  0  0  0
 34 35  1  0  0  0  0
 35 24  1  0  0  0  0
 36 35  2  0  0  0  0
 37 31  1  0  0  0  0
 38 32  1  0  0  0  0
 39 33  1  0  0  0  0
M  END
>  <minimizedAffinity>
-6.12846708

$$$$

 OpenBabel03242511103D

 39 43  0  0  1  0  0  0  0  0999 V2000
   37.1240   31.1510   40.3840 C   0  0  0  0  0  0  0  0  0  0  0  0
   37.0100   32.3160   39.6370 C   0  0  0  0  0  0  0  0  0  0  0  0
   37.9670   33.3160   39.6290 C   0  0  0  0  0  0  0  0  0  0  0  0
   39.1130   33.1910   40.3890 C   0  0  0  0  0  0  0  0  0  0  0  0
   39.2600   32.0510   41.1420 C   0  0  0  0  0  0  0  0  0  0  0  0
   40.4090   31.9280   41.8910 C   0  0  0  0  0  0  0  0  0  0  0  0
   40.6240   30.7940   42.6650 C   0  0  0  0  0  0  0  0  0  0  0  0
   39.6400   29.8190   42.6370 C   0  0  0  0  0  0  0  0  0  0  0  0
   38.5080   29.9540   41.8900 C   0  0  0  0  0  0  0  0  0  0  0  0
   38.2910   31.0750   41.1270 C   0  0  0  0  0  0  0  0  0  0  0  0
   36.1110   32.4270   39.0330 H   0  0  0  0  0  0  0  0  0  0  0  0
   37.7580   34.1720   39.0040 H   0  0  0  0  0  0  0  0  0  0  0  0
   39.8390   33.9870   40.3610 H   0  0  0  0  0  0  0  0  0  0  0  0
   41.1240   32.7480   41.8470 H   0  0  0  0  0  0  0  0  0  0  0  0
   41.5840   30.8420   43.2060 H   0  0  0  0  0  0  0  0  0  0  0  0
   40.0370   29.0620   43.2990 H   0  0  0  0  0  0  0  0  0  0  0  0
   37.6340   28.7710   42.0250 C   0  0  0  0  0  3  0  0  0  0  0  0
   37.3940   28.4430   43.5480 C   0  0  0  0  0  2  0  0  0  0  0  0
   36.4840   27.2110   43.3030 C   0  0  0  0  0  2  0  0  0  0  0  0
   37.1630   26.4980   42.1260 C   0  0  0  0  0  2  0  0  0  0  0  0
   38.2710   27.4470   41.7810 C   0  0  0  0  0  2  0  0  0  0  0  0
   36.1190   30.1600   40.3780 N   0  0  0  0  0  0  0  0  0  0  0  0
   35.8070   29.9310   41.3500 H   0  0  0  0  0  0  0  0  0  0  0  0
   34.4010   28.9360   38.9060 C   0  0  1  0  0  0  0  0  0  0  0  0
   35.6250   28.0560   39.0740 C   0  0  0  0  0  0  0  0  0  0  0  0
   35.6620   29.5960   39.1440 C   0  0  2  0  0  0  0  0  0  0  0  0
   33.6340   28.6470   39.6710 H   0  0  0  0  0  0  0  0  0  0  0  0
   35.8310   27.5320   40.0060 H   0  0  0  0  0  0  0  0  0  0  0  0
   36.1100   27.6390   38.1800 H   0  0  0  0  0  0  0  0  0  0  0  0
   36.1010   30.1270   38.2530 H   0  0  0  0  0  0  0  0  0  0  0  0
   33.9890   28.9460   35.2070 C   0  0  0  0  0  0  0  0  0  0  0  0
   32.5940   29.2250   35.0840 C   0  0  0  0  0  0  0  0  0  0  0  0
   31.8260   29.3940   36.2850 C   0  0  0  0  0  0  0  0  0  0  0  0
   32.4450   29.2830   37.4650 N   0  0  0  0  0  0  0  0  0  0  0  0
   33.7750   29.0170   37.5470 C   0  0  0  0  0  0  0  0  0  0  0  0
   34.5410   28.8500   36.4180 N   0  0  0  0  0  0  0  0  0  0  0  0
   34.5600   28.8210   34.3030 H   0  0  0  0  0  0  0  0  0  0  0  0
   32.1480   29.3040   34.1060 H   0  0  0  0  0  0  0  0  0  0  0  0
   30.7690   29.6040   36.1820 H   0  0  0  0  0  0  0  0  0  0  0  0
  1 10  1  0  0  0  0
  2  1  2  0  0  0  0
  3  2  1  0  0  0  0
  3  4  2  0  0  0  0
  4  5  1  0  0  0  0
  5  6  1  0  0  0  0
  6  7  2  0  0  0  0
  7 15  1  0  0  0  0
  8  7  1  0  0  0  0
  8 16  1  0  0  0  0
  9 17  1  0  0  0  0
  9  8  2  0  0  0  0
 10  5  2  0  0  0  0
 10  9  1  0  0  0  0
 11  2  1  0  0  0  0
 12  3  1  0  0  0  0
 13  4  1  0  0  0  0
 14  6  1  0  0  0  0
 17 18  1  0  0  0  0
 19 18  1  0  0  0  0
 20 19  1  0  0  0  0
 21 17  1  0  0  0  0
 21 20  1  0  0  0  0
 22  1  1  0  0  0  0
 22 23  1  0  0  0  0
 24 25  1  0  0  0  0
 24 26  1  0  0  0  0
 24 27  1  1  0  0  0
 25 26  1  0  0  0  0
 25 28  1  0  0  0  0
 26 30  1  6  0  0  0
 26 22  1  0  0  0  0
 29 25  1  0  0  0  0
 31 36  1  0  0  0  0
 32 31  2  0  0  0  0
 32 33  1  0  0  0  0
 33 34  2  0  0  0  0
 34 35  1  0  0  0  0
 35 24  1  0  0  0  0
 36 35  2  0  0  0  0
 37 31  1  0  0  0  0
 38 32  1  0  0  0  0
 39 33  1  0  0  0  0
M  END
>  <minimizedAffinity>
-6.12119055

$$$$

 OpenBabel03242511103D

 39 43  0  0  1  0  0  0  0  0999 V2000
   36.0250   28.9860   38.9140 C   0  0  0  0  0  0  0  0  0  0  0  0
   35.4430   29.2830   37.6880 C   0  0  0  0  0  0  0  0  0  0  0  0
   35.0730   28.3200   36.7640 C   0  0  0  0  0  0  0  0  0  0  0  0
   35.2740   26.9810   37.0340 C   0  0  0  0  0  0  0  0  0  0  0  0
   35.8470   26.6500   38.2380 C   0  0  0  0  0  0  0  0  0  0  0  0
   36.0370   25.3130   38.5060 C   0  0  0  0  0  0  0  0  0  0  0  0
   36.6010   24.9100   39.7110 C   0  0  0  0  0  0  0  0  0  0  0  0
   36.9500   25.9100   40.6050 C   0  0  0  0  0  0  0  0  0  0  0  0
   36.7560   27.2300   40.3270 C   0  0  0  0  0  0  0  0  0  0  0  0
   36.2030   27.6300   39.1360 C   0  0  0  0  0  0  0  0  0  0  0  0
   35.2800   30.3350   37.4630 H   0  0  0  0  0  0  0  0  0  0  0  0
   34.6310   28.6830   35.8480 H   0  0  0  0  0  0  0  0  0  0  0  0
   34.9760   26.2560   36.2950 H   0  0  0  0  0  0  0  0  0  0  0  0
   35.7290   24.6010   37.7410 H   0  0  0  0  0  0  0  0  0  0  0  0
   36.6890   23.8120   39.7770 H   0  0  0  0  0  0  0  0  0  0  0  0
   37.3520   25.3520   41.4400 H   0  0  0  0  0  0  0  0  0  0  0  0
   37.1990   28.0830   41.4480 C   0  0  0  0  0  3  0  0  0  0  0  0
   38.7560   27.9510   41.6510 C   0  0  0  0  0  2  0  0  0  0  0  0
   38.8430   28.9340   42.8480 C   0  0  0  0  0  2  0  0  0  0  0  0
   37.6000   28.5910   43.6800 C   0  0  0  0  0  2  0  0  0  0  0  0
   36.9180   27.5710   42.8190 C   0  0  0  0  0  2  0  0  0  0  0  0
   36.4010   29.9970   39.8240 N   0  0  0  0  0  0  0  0  0  0  0  0
   35.9680   29.8410   40.7640 H   0  0  0  0  0  0  0  0  0  0  0  0
   38.5210   31.4430   40.0090 C   0  0  1  0  0  0  0  0  0  0  0  0
   37.3090   32.2960   40.3360 C   0  0  0  0  0  0  0  0  0  0  0  0
   37.2640   31.0630   39.4120 C   0  0  2  0  0  0  0  0  0  0  0  0
   38.9620   31.0520   40.9620 H   0  0  0  0  0  0  0  0  0  0  0  0
   36.7800   32.2000   41.2830 H   0  0  0  0  0  0  0  0  0  0  0  0
   37.1710   33.2520   39.8120 H   0  0  0  0  0  0  0  0  0  0  0  0
   37.1760   31.2690   38.3080 H   0  0  0  0  0  0  0  0  0  0  0  0
   40.9970   31.9100   37.2700 C   0  0  0  0  0  0  0  0  0  0  0  0
   41.5840   33.1580   37.6380 C   0  0  0  0  0  0  0  0  0  0  0  0
   41.1030   33.8150   38.8210 C   0  0  0  0  0  0  0  0  0  0  0  0
   40.1280   33.2330   39.5270 N   0  0  0  0  0  0  0  0  0  0  0  0
   39.5900   32.0440   39.1490 C   0  0  0  0  0  0  0  0  0  0  0  0
   40.0270   31.3880   38.0220 N   0  0  0  0  0  0  0  0  0  0  0  0
   41.3620   31.4230   36.3820 H   0  0  0  0  0  0  0  0  0  0  0  0
   42.3690   33.5810   37.0300 H   0  0  0  0  0  0  0  0  0  0  0  0
   41.5550   34.7610   39.0910 H   0  0  0  0  0  0  0  0  0  0  0  0
  1 10  1  0  0  0  0
  1 22  1  0  0  0  0
  2  1  2  0  0  0  0
  3  4  2  0  0  0  0
  3  2  1  0  0  0  0
  4  5  1  0  0  0  0
  5  6  2  0  0  0  0
  5 10  1  0  0  0  0
  6  7  1  0  0  0  0
  7 15  1  0  0  0  0
  7  8  2  0  0  0  0
  8 16  1  0  0  0  0
  9  8  1  0  0  0  0
  9 17  1  0  0  0  0
 10  9  2  0  0  0  0
 11  2  1  0  0  0  0
 12  3  1  0  0  0  0
 13  4  1  0  0  0  0
 14  6  1  0  0  0  0
 17 18  1  0  0  0  0
 17 21  1  0  0  0  0
 18 19  1  0  0  0  0
 19 20  1  0  0  0  0
 21 20  1  0  0  0  0
 22 23  1  0  0  0  0
 24 25  1  0  0  0  0
 24 27  1  1  0  0  0
 25 28  1  0  0  0  0
 26 30  1  6  0  0  0
 26 22  1  0  0  0  0
 26 24  1  0  0  0  0
 26 25  1  0  0  0  0
 29 25  1  0  0  0  0
 31 32  2  0  0  0  0
 31 36  1  0  0  0  0
 32 33  1  0  0  0  0
 33 39  1  0  0  0  0
 33 34  2  0  0  0  0
 35 34  1  0  0  0  0
 35 24  1  0  0  0  0
 36 35  2  0  0  0  0
 37 31  1  0  0  0  0
 38 32  1  0  0  0  0
M  END
>  <minimizedAffinity>
-5.9488349

$$$$

 OpenBabel03242511103D

 39 43  0  0  1  0  0  0  0  0999 V2000
   36.2590   27.5150   39.0690 C   0  0  0  0  0  0  0  0  0  0  0  0
   35.7010   27.3360   37.8100 C   0  0  0  0  0  0  0  0  0  0  0  0
   35.3910   26.0950   37.2800 C   0  0  0  0  0  0  0  0  0  0  0  0
   35.6320   24.9470   38.0080 C   0  0  0  0  0  0  0  0  0  0  0  0
   36.1830   25.0850   39.2580 C   0  0  0  0  0  0  0  0  0  0  0  0
   36.4130   23.9370   39.9820 C   0  0  0  0  0  0  0  0  0  0  0  0
   36.9580   24.0090   41.2600 C   0  0  0  0  0  0  0  0  0  0  0  0
   37.2470   25.2730   41.7480 C   0  0  0  0  0  0  0  0  0  0  0  0
   37.0140   26.4020   41.0190 C   0  0  0  0  0  0  0  0  0  0  0  0
   36.4790   26.3330   39.7570 C   0  0  0  0  0  0  0  0  0  0  0  0
   35.5070   28.2340   37.2250 H   0  0  0  0  0  0  0  0  0  0  0  0
   34.9610   26.0930   36.2890 H   0  0  0  0  0  0  0  0  0  0  0  0
   35.3800   23.9960   37.5680 H   0  0  0  0  0  0  0  0  0  0  0  0
   36.1520   22.9900   39.5130 H   0  0  0  0  0  0  0  0  0  0  0  0
   37.0830   23.0100   41.7100 H   0  0  0  0  0  0  0  0  0  0  0  0
   37.6450   25.0630   42.7310 H   0  0  0  0  0  0  0  0  0  0  0  0
   37.3950   27.6130   41.7740 C   0  0  0  0  0  3  0  0  0  0  0  0
   38.9300   27.5740   42.1280 C   0  0  0  0  0  2  0  0  0  0  0  0
   38.9550   28.9320   42.8770 C   0  0  0  0  0  2  0  0  0  0  0  0
   37.6480   28.9170   43.6800 C   0  0  0  0  0  2  0  0  0  0  0  0
   37.0050   27.6470   43.2110 C   0  0  0  0  0  2  0  0  0  0  0  0
   36.5750   28.7970   39.5680 N   0  0  0  0  0  0  0  0  0  0  0  0
   36.1220   28.9630   40.4980 H   0  0  0  0  0  0  0  0  0  0  0  0
   38.3040   30.6880   39.3430 C   0  0  1  0  0  0  0  0  0  0  0  0
   36.9740   31.1640   38.7900 C   0  0  0  0  0  0  0  0  0  0  0  0
   37.4090   29.6860   38.8180 C   0  0  2  0  0  0  0  0  0  0  0  0
   38.3970   31.0180   40.4090 H   0  0  0  0  0  0  0  0  0  0  0  0
   36.1430   31.4280   39.4430 H   0  0  0  0  0  0  0  0  0  0  0  0
   36.9390   31.6010   37.7820 H   0  0  0  0  0  0  0  0  0  0  0  0
   37.7170   29.2370   37.8310 H   0  0  0  0  0  0  0  0  0  0  0  0
   41.0240   32.6600   37.7420 C   0  0  0  0  0  0  0  0  0  0  0  0
   41.7960   31.6240   37.1320 C   0  0  0  0  0  0  0  0  0  0  0  0
   41.3610   30.2650   37.2970 C   0  0  0  0  0  0  0  0  0  0  0  0
   40.2570   30.0260   38.0130 N   0  0  0  0  0  0  0  0  0  0  0  0
   39.5460   31.0350   38.5800 C   0  0  0  0  0  0  0  0  0  0  0  0
   39.9330   32.3470   38.4420 N   0  0  0  0  0  0  0  0  0  0  0  0
   41.3550   33.6760   37.6140 H   0  0  0  0  0  0  0  0  0  0  0  0
   42.6780   31.8760   36.5650 H   0  0  0  0  0  0  0  0  0  0  0  0
   41.9520   29.4870   36.8320 H   0  0  0  0  0  0  0  0  0  0  0  0
  1 22  1  0  0  0  0
  1 10  1  0  0  0  0
  2  1  2  0  0  0  0
  3  2  1  0  0  0  0
  3  4  2  0  0  0  0
  4  5  1  0  0  0  0
  5 10  2  0  0  0  0
  5  6  1  0  0  0  0
  6  7  2  0  0  0  0
  7 15  1  0  0  0  0
  7  8  1  0  0  0  0
  8 16  1  0  0  0  0
  9  8  2  0  0  0  0
  9 17  1  0  0  0  0
 10  9  1  0  0  0  0
 11  2  1  0  0  0  0
 12  3  1  0  0  0  0
 13  4  1  0  0  0  0
 14  6  1  0  0  0  0
 17 18  1  0  0  0  0
 17 21  1  0  0  0  0
 18 19  1  0  0  0  0
 19 20  1  0  0  0  0
 21 20  1  0  0  0  0
 22 23  1  0  0  0  0
 24 27  1  1  0  0  0
 25 26  1  0  0  0  0
 25 24  1  0  0  0  0
 25 28  1  0  0  0  0
 26 30  1  6  0  0  0
 26 24  1  0  0  0  0
 26 22  1  0  0  0  0
 29 25  1  0  0  0  0
 31 36  1  0  0  0  0
 32 33  1  0  0  0  0
 32 31  2  0  0  0  0
 33 34  2  0  0  0  0
 34 35  1  0  0  0  0
 35 24  1  0  0  0  0
 36 35  2  0  0  0  0
 37 31  1  0  0  0  0
 38 32  1  0  0  0  0
 39 33  1  0  0  0  0
M  END
>  <minimizedAffinity>
-5.87612772

$$$$

 OpenBabel03242511103D

 39 43  0  0  1  0  0  0  0  0999 V2000
   36.3880   29.3280   39.6990 C   0  0  0  0  0  0  0  0  0  0  0  0
   35.5370   28.2440   39.5350 C   0  0  0  0  0  0  0  0  0  0  0  0
   35.0290   27.8470   38.3090 C   0  0  0  0  0  0  0  0  0  0  0  0
   35.3620   28.5380   37.1610 C   0  0  0  0  0  0  0  0  0  0  0  0
   36.2030   29.6170   37.2840 C   0  0  0  0  0  0  0  0  0  0  0  0
   36.5380   30.2970   36.1350 C   0  0  0  0  0  0  0  0  0  0  0  0
   37.3950   31.3910   36.1900 C   0  0  0  0  0  0  0  0  0  0  0  0
   37.8800   31.7460   37.4380 C   0  0  0  0  0  0  0  0  0  0  0  0
   37.5390   31.0630   38.5680 C   0  0  0  0  0  0  0  0  0  0  0  0
   36.6910   29.9850   38.5170 C   0  0  0  0  0  0  0  0  0  0  0  0
   35.2660   27.6900   40.4330 H   0  0  0  0  0  0  0  0  0  0  0  0
   34.3770   26.9860   38.3180 H   0  0  0  0  0  0  0  0  0  0  0  0
   34.9510   28.2050   36.2220 H   0  0  0  0  0  0  0  0  0  0  0  0
   36.1070   29.9410   35.2000 H   0  0  0  0  0  0  0  0  0  0  0  0
   37.5670   31.8290   35.1920 H   0  0  0  0  0  0  0  0  0  0  0  0
   38.5070   32.5980   37.2150 H   0  0  0  0  0  0  0  0  0  0  0  0
   38.2030   31.6350   39.7580 C   0  0  0  0  0  3  0  0  0  0  0  0
   38.1880   33.2090   39.6850 C   0  0  0  0  0  2  0  0  0  0  0  0
   38.9310   33.4360   41.0280 C   0  0  0  0  0  2  0  0  0  0  0  0
   40.0170   32.3520   41.0200 C   0  0  0  0  0  2  0  0  0  0  0  0
   39.6910   31.5910   39.7700 C   0  0  0  0  0  2  0  0  0  0  0  0
   36.8730   29.7100   40.9680 N   0  0  0  0  0  0  0  0  0  0  0  0
   36.5260   30.6600   41.2360 H   0  0  0  0  0  0  0  0  0  0  0  0
   37.3380   27.8160   42.6450 C   0  0  1  0  0  0  0  0  0  0  0  0
   37.8490   29.1240   43.2200 C   0  0  0  0  0  0  0  0  0  0  0  0
   37.7350   28.8400   41.7100 C   0  0  2  0  0  0  0  0  0  0  0  0
   36.3060   27.6210   43.0370 H   0  0  0  0  0  0  0  0  0  0  0  0
   37.1720   29.8800   43.6150 H   0  0  0  0  0  0  0  0  0  0  0  0
   38.8840   29.1780   43.5870 H   0  0  0  0  0  0  0  0  0  0  0  0
   38.7010   28.6420   41.1640 H   0  0  0  0  0  0  0  0  0  0  0  0
   40.1250   25.5730   43.6700 C   0  0  0  0  0  0  0  0  0  0  0  0
   39.7510   24.3540   43.0280 C   0  0  0  0  0  0  0  0  0  0  0  0
   38.5370   24.3340   42.2610 C   0  0  0  0  0  0  0  0  0  0  0  0
   37.8080   25.4530   42.1820 N   0  0  0  0  0  0  0  0  0  0  0  0
   38.1930   26.5970   42.8060 C   0  0  0  0  0  0  0  0  0  0  0  0
   39.3500   26.6510   43.5480 N   0  0  0  0  0  0  0  0  0  0  0  0
   41.0370   25.5810   44.2440 H   0  0  0  0  0  0  0  0  0  0  0  0
   40.3780   23.4820   43.1260 H   0  0  0  0  0  0  0  0  0  0  0  0
   38.2610   23.4050   41.7780 H   0  0  0  0  0  0  0  0  0  0  0  0
  1 22  1  0  0  0  0
  2  1  1  0  0  0  0
  2 11  1  0  0  0  0
  3 12  1  0  0  0  0
  3  2  2  0  0  0  0
  4  5  2  0  0  0  0
  4  3  1  0  0  0  0
  5 10  1  0  0  0  0
  6  7  2  0  0  0  0
  6  5  1  0  0  0  0
  7  8  1  0  0  0  0
  8  9  2  0  0  0  0
  9 17  1  0  0  0  0
 10  9  1  0  0  0  0
 10  1  2  0  0  0  0
 13  4  1  0  0  0  0
 14  6  1  0  0  0  0
 15  7  1  0  0  0  0
 16  8  1  0  0  0  0
 17 21  1  0  0  0  0
 18 17  1  0  0  0  0
 18 19  1  0  0  0  0
 20 19  1  0  0  0  0
 21 20  1  0  0  0  0
 22 23  1  0  0  0  0
 22 26  1  0  0  0  0
 24 35  1  0  0  0  0
 24 27  1  1  0  0  0
 24 25  1  0  0  0  0
 25 29  1  0  0  0  0
 25 28  1  0  0  0  0
 26 30  1  6  0  0  0
 26 24  1  0  0  0  0
 26 25  1  0  0  0  0
 31 37  1  0  0  0  0
 32 38  1  0  0  0  0
 32 31  2  0  0  0  0
 33 32  1  0  0  0  0
 34 33  2  0  0  0  0
 34 35  1  0  0  0  0
 35 36  2  0  0  0  0
 36 31  1  0  0  0  0
 39 33  1  0  0  0  0
M  END
>  <minimizedAffinity>
-5.83399153

$$$$

 OpenBabel03242511103D

 39 43  0  0  1  0  0  0  0  0999 V2000
   36.9460   28.8820   41.8840 C   0  0  0  0  0  0  0  0  0  0  0  0
   36.6330   27.7590   42.6390 C   0  0  0  0  0  0  0  0  0  0  0  0
   37.5460   27.0970   43.4420 C   0  0  0  0  0  0  0  0  0  0  0  0
   38.8500   27.5430   43.5280 C   0  0  0  0  0  0  0  0  0  0  0  0
   39.1970   28.6530   42.7950 C   0  0  0  0  0  0  0  0  0  0  0  0
   40.4960   29.0980   42.8920 C   0  0  0  0  0  0  0  0  0  0  0  0
   40.9080   30.2220   42.1850 C   0  0  0  0  0  0  0  0  0  0  0  0
   39.9570   30.8520   41.3990 C   0  0  0  0  0  0  0  0  0  0  0  0
   38.6730   30.4000   41.3130 C   0  0  0  0  0  0  0  0  0  0  0  0
   38.2650   29.2880   42.0070 C   0  0  0  0  0  0  0  0  0  0  0  0
   35.6080   27.3970   42.5800 H   0  0  0  0  0  0  0  0  0  0  0  0
   37.1750   26.2360   43.9780 H   0  0  0  0  0  0  0  0  0  0  0  0
   39.5370   27.0070   44.1620 H   0  0  0  0  0  0  0  0  0  0  0  0
   41.1700   28.5360   43.5370 H   0  0  0  0  0  0  0  0  0  0  0  0
   41.9720   30.4520   42.3640 H   0  0  0  0  0  0  0  0  0  0  0  0
   40.5110   31.6750   40.9700 H   0  0  0  0  0  0  0  0  0  0  0  0
   37.8630   31.2570   40.4240 C   0  0  0  0  0  3  0  0  0  0  0  0
   38.4400   31.2190   38.9580 C   0  0  0  0  0  2  0  0  0  0  0  0
   37.3890   32.1840   38.3490 C   0  0  0  0  0  2  0  0  0  0  0  0
   37.2270   33.2590   39.4320 C   0  0  0  0  0  2  0  0  0  0  0  0
   38.0880   32.7250   40.5370 C   0  0  0  0  0  2  0  0  0  0  0  0
   35.9900   29.5200   41.0660 N   0  0  0  0  0  0  0  0  0  0  0  0
   35.8710   30.5250   41.3350 H   0  0  0  0  0  0  0  0  0  0  0  0
   35.8910   28.2900   38.8090 C   0  0  1  0  0  0  0  0  0  0  0  0
   35.0650   29.5600   38.7180 C   0  0  0  0  0  0  0  0  0  0  0  0
   35.3160   28.7950   40.0320 C   0  0  2  0  0  0  0  0  0  0  0  0
   36.9190   28.4920   38.4110 H   0  0  0  0  0  0  0  0  0  0  0  0
   35.5300   30.5420   38.6430 H   0  0  0  0  0  0  0  0  0  0  0  0
   34.0290   29.4990   38.3570 H   0  0  0  0  0  0  0  0  0  0  0  0
   34.4500   28.1980   40.4360 H   0  0  0  0  0  0  0  0  0  0  0  0
   33.7090   25.9930   36.8550 C   0  0  0  0  0  0  0  0  0  0  0  0
   34.3150   24.7310   37.1350 C   0  0  0  0  0  0  0  0  0  0  0  0
   35.4710   24.7050   37.9860 C   0  0  0  0  0  0  0  0  0  0  0  0
   35.9320   25.8590   38.4790 N   0  0  0  0  0  0  0  0  0  0  0  0
   35.3310   27.0440   38.1940 C   0  0  0  0  0  0  0  0  0  0  0  0
   34.2230   27.1060   37.3830 N   0  0  0  0  0  0  0  0  0  0  0  0
   32.8420   26.0070   36.2170 H   0  0  0  0  0  0  0  0  0  0  0  0
   33.9000   23.8310   36.7090 H   0  0  0  0  0  0  0  0  0  0  0  0
   35.9240   23.7430   38.1920 H   0  0  0  0  0  0  0  0  0  0  0  0
  1 10  2  0  0  0  0
  1  2  1  0  0  0  0
  2  3  2  0  0  0  0
  3  4  1  0  0  0  0
  3 12  1  0  0  0  0
  4 13  1  0  0  0  0
  5  6  1  0  0  0  0
  5  4  2  0  0  0  0
  6 14  1  0  0  0  0
  7 15  1  0  0  0  0
  7  6  2  0  0  0  0
  8  7  1  0  0  0  0
  9  8  2  0  0  0  0
  9 10  1  0  0  0  0
 10  5  1  0  0  0  0
 11  2  1  0  0  0  0
 16  8  1  0  0  0  0
 17 21  1  0  0  0  0
 17  9  1  0  0  0  0
 18 17  1  0  0  0  0
 19 18  1  0  0  0  0
 19 20  1  0  0  0  0
 20 21  1  0  0  0  0
 22 23  1  0  0  0  0
 22  1  1  0  0  0  0
 24 27  1  6  0  0  0
 24 26  1  0  0  0  0
 25 24  1  0  0  0  0
 25 26  1  0  0  0  0
 26 30  1  1  0  0  0
 26 22  1  0  0  0  0
 28 25  1  0  0  0  0
 29 25  1  0  0  0  0
 31 32  2  0  0  0  0
 31 36  1  0  0  0  0
 32 33  1  0  0  0  0
 33 39  1  0  0  0  0
 33 34  2  0  0  0  0
 35 34  1  0  0  0  0
 35 24  1  0  0  0  0
 36 35  2  0  0  0  0
 37 31  1  0  0  0  0
 38 32  1  0  0  0  0
M  END
>  <minimizedAffinity>
-5.82193756

$$$$

 OpenBabel03242511103D

 39 43  0  0  1  0  0  0  0  0999 V2000
   37.1040   26.8840   39.8280 C   0  0  0  0  0  0  0  0  0  0  0  0
   36.9590   25.5040   39.7710 C   0  0  0  0  0  0  0  0  0  0  0  0
   36.9130   24.6920   40.8920 C   0  0  0  0  0  0  0  0  0  0  0  0
   37.0130   25.2410   42.1540 C   0  0  0  0  0  0  0  0  0  0  0  0
   37.1570   26.6040   42.2500 C   0  0  0  0  0  0  0  0  0  0  0  0
   37.2480   27.1470   43.5120 C   0  0  0  0  0  0  0  0  0  0  0  0
   37.3830   28.5210   43.6780 C   0  0  0  0  0  0  0  0  0  0  0  0
   37.4190   29.2910   42.5270 C   0  0  0  0  0  0  0  0  0  0  0  0
   37.3280   28.7400   41.2840 C   0  0  0  0  0  0  0  0  0  0  0  0
   37.1980   27.3830   41.1170 C   0  0  0  0  0  0  0  0  0  0  0  0
   36.8790   25.0580   38.7810 H   0  0  0  0  0  0  0  0  0  0  0  0
   36.7970   23.6330   40.7100 H   0  0  0  0  0  0  0  0  0  0  0  0
   36.9740   24.5830   43.0070 H   0  0  0  0  0  0  0  0  0  0  0  0
   37.2090   26.4590   44.3560 H   0  0  0  0  0  0  0  0  0  0  0  0
   37.4430   28.8020   44.7430 H   0  0  0  0  0  0  0  0  0  0  0  0
   37.5230   30.2940   42.9160 H   0  0  0  0  0  0  0  0  0  0  0  0
   37.3770   29.7780   40.2340 C   0  0  0  0  0  3  0  0  0  0  0  0
   38.7520   30.5450   40.2910 C   0  0  0  0  0  2  0  0  0  0  0  0
   38.4490   31.5030   39.1090 C   0  0  0  0  0  2  0  0  0  0  0  0
   36.9780   31.8790   39.3270 C   0  0  0  0  0  2  0  0  0  0  0  0
   36.6050   31.0230   40.5000 C   0  0  0  0  0  2  0  0  0  0  0  0
   37.1610   27.6760   38.6620 N   0  0  0  0  0  0  0  0  0  0  0  0
   36.3820   28.3760   38.6410 H   0  0  0  0  0  0  0  0  0  0  0  0
   39.2160   28.3940   37.2920 C   0  0  1  0  0  0  0  0  0  0  0  0
   38.0310   28.2300   36.3580 C   0  0  0  0  0  0  0  0  0  0  0  0
   38.1870   27.4630   37.6860 C   0  0  2  0  0  0  0  0  0  0  0  0
   39.3030   29.4710   37.5880 H   0  0  0  0  0  0  0  0  0  0  0  0
   37.2240   28.9600   36.3220 H   0  0  0  0  0  0  0  0  0  0  0  0
   38.1380   27.6000   35.4640 H   0  0  0  0  0  0  0  0  0  0  0  0
   38.4680   26.3750   37.6050 H   0  0  0  0  0  0  0  0  0  0  0  0
   42.7790   28.2670   36.2240 C   0  0  0  0  0  0  0  0  0  0  0  0
   42.9390   26.8730   35.9570 C   0  0  0  0  0  0  0  0  0  0  0  0
   41.8120   26.0070   36.1620 C   0  0  0  0  0  0  0  0  0  0  0  0
   40.6630   26.5400   36.5940 N   0  0  0  0  0  0  0  0  0  0  0  0
   40.5440   27.8710   36.8380 C   0  0  0  0  0  0  0  0  0  0  0  0
   41.6030   28.7280   36.6520 N   0  0  0  0  0  0  0  0  0  0  0  0
   43.6280   28.9110   36.0680 H   0  0  0  0  0  0  0  0  0  0  0  0
   43.8890   26.5000   35.6100 H   0  0  0  0  0  0  0  0  0  0  0  0
   41.9430   24.9520   35.9580 H   0  0  0  0  0  0  0  0  0  0  0  0
  1 10  1  0  0  0  0
  2  1  2  0  0  0  0
  2  3  1  0  0  0  0
  3  4  2  0  0  0  0
  4  5  1  0  0  0  0
  4 13  1  0  0  0  0
  5  6  1  0  0  0  0
  6  7  2  0  0  0  0
  6 14  1  0  0  0  0
  7 15  1  0  0  0  0
  8 16  1  0  0  0  0
  8  7  1  0  0  0  0
  9  8  2  0  0  0  0
 10  9  1  0  0  0  0
 10  5  2  0  0  0  0
 11  2  1  0  0  0  0
 12  3  1  0  0  0  0
 17 18  1  0  0  0  0
 17 21  1  0  0  0  0
 17  9  1  0  0  0  0
 19 20  1  0  0  0  0
 19 18  1  0  0  0  0
 20 21  1  0  0  0  0
 22  1  1  0  0  0  0
 23 22  1  0  0  0  0
 24 27  1  1  0  0  0
 24 26  1  0  0  0  0
 25 24  1  0  0  0  0
 25 26  1  0  0  0  0
 26 30  1  6  0  0  0
 26 22  1  0  0  0  0
 28 25  1  0  0  0  0
 29 25  1  0  0  0  0
 31 36  1  0  0  0  0
 32 33  1  0  0  0  0
 32 31  2  0  0  0  0
 33 34  2  0  0  0  0
 34 35  1  0  0  0  0
 35 24  1  0  0  0  0
 36 35  2  0  0  0  0
 37 31  1  0  0  0  0
 38 32  1  0  0  0  0
 39 33  1  0  0  0  0
M  END
>  <minimizedAffinity>
-5.73866463

$$$$

 OpenBabel03242511103D

 39 43  0  0  1  0  0  0  0  0999 V2000
   37.9880   29.4550   42.2170 C   0  0  0  0  0  0  0  0  0  0  0  0
   36.9500   28.6470   42.6640 C   0  0  0  0  0  0  0  0  0  0  0  0
   37.1450   27.4750   43.3750 C   0  0  0  0  0  0  0  0  0  0  0  0
   38.4220   27.0490   43.6800 C   0  0  0  0  0  0  0  0  0  0  0  0
   39.4740   27.8230   43.2540 C   0  0  0  0  0  0  0  0  0  0  0  0
   40.7450   27.3980   43.5680 C   0  0  0  0  0  0  0  0  0  0  0  0
   41.8530   28.1420   43.1770 C   0  0  0  0  0  0  0  0  0  0  0  0
   41.6060   29.3090   42.4720 C   0  0  0  0  0  0  0  0  0  0  0  0
   40.3420   29.7180   42.1680 C   0  0  0  0  0  0  0  0  0  0  0  0
   39.2470   28.9840   42.5500 C   0  0  0  0  0  0  0  0  0  0  0  0
   35.9380   28.9720   42.4300 H   0  0  0  0  0  0  0  0  0  0  0  0
   36.2530   26.9380   43.6640 H   0  0  0  0  0  0  0  0  0  0  0  0
   38.5410   26.1330   44.2340 H   0  0  0  0  0  0  0  0  0  0  0  0
   40.8370   26.4670   44.1270 H   0  0  0  0  0  0  0  0  0  0  0  0
   42.7980   27.6730   43.5000 H   0  0  0  0  0  0  0  0  0  0  0  0
   42.6010   29.6930   42.2940 H   0  0  0  0  0  0  0  0  0  0  0  0
   40.3580   30.9960   41.4270 C   0  0  0  0  0  3  0  0  0  0  0  0
   40.8060   30.7550   39.9360 C   0  0  0  0  0  2  0  0  0  0  0  0
   40.7090   32.2410   39.4990 C   0  0  0  0  0  2  0  0  0  0  0  0
   41.2800   33.0010   40.7020 C   0  0  0  0  0  2  0  0  0  0  0  0
   41.5140   31.8980   41.6900 C   0  0  0  0  0  2  0  0  0  0  0  0
   37.7500   30.6360   41.4820 N   0  0  0  0  0  0  0  0  0  0  0  0
   38.3180   31.4340   41.8520 H   0  0  0  0  0  0  0  0  0  0  0  0
   37.1000   30.3250   39.0120 C   0  0  1  0  0  0  0  0  0  0  0  0
   36.9680   31.7920   39.3780 C   0  0  0  0  0  0  0  0  0  0  0  0
   36.8210   30.6400   40.3920 C   0  0  2  0  0  0  0  0  0  0  0  0
   38.1060   30.1520   38.5490 H   0  0  0  0  0  0  0  0  0  0  0  0
   37.8410   32.4310   39.5080 H   0  0  0  0  0  0  0  0  0  0  0  0
   36.0280   32.3150   39.1570 H   0  0  0  0  0  0  0  0  0  0  0  0
   35.7730   30.4060   40.7340 H   0  0  0  0  0  0  0  0  0  0  0  0
   33.9300   28.6610   37.9950 C   0  0  0  0  0  0  0  0  0  0  0  0
   34.1130   28.5570   36.5830 C   0  0  0  0  0  0  0  0  0  0  0  0
   35.3250   29.0740   36.0130 C   0  0  0  0  0  0  0  0  0  0  0  0
   36.2310   29.6300   36.8260 N   0  0  0  0  0  0  0  0  0  0  0  0
   36.0260   29.7130   38.1660 C   0  0  0  0  0  0  0  0  0  0  0  0
   34.8760   29.2290   38.7450 N   0  0  0  0  0  0  0  0  0  0  0  0
   33.0190   28.2720   38.4160 H   0  0  0  0  0  0  0  0  0  0  0  0
   33.3480   28.0980   35.9760 H   0  0  0  0  0  0  0  0  0  0  0  0
   35.4540   28.9900   34.9420 H   0  0  0  0  0  0  0  0  0  0  0  0
  1 10  2  0  0  0  0
  1  2  1  0  0  0  0
  2  3  2  0  0  0  0
  3 12  1  0  0  0  0
  3  4  1  0  0  0  0
  4 13  1  0  0  0  0
  5  6  1  0  0  0  0
  5  4  2  0  0  0  0
  6 14  1  0  0  0  0
  7 15  1  0  0  0  0
  7  6  2  0  0  0  0
  8  7  1  0  0  0  0
  9  8  2  0  0  0  0
  9 10  1  0  0  0  0
 10  5  1  0  0  0  0
 11  2  1  0  0  0  0
 16  8  1  0  0  0  0
 17 21  1  0  0  0  0
 17  9  1  0  0  0  0
 18 17  1  0  0  0  0
 19 18  1  0  0  0  0
 19 20  1  0  0  0  0
 20 21  1  0  0  0  0
 22 23  1  0  0  0  0
 22  1  1  0  0  0  0
 24 27  1  6  0  0  0
 24 25  1  0  0  0  0
 24 26  1  0  0  0  0
 25 28  1  0  0  0  0
 25 26  1  0  0  0  0
 26 30  1  1  0  0  0
 26 22  1  0  0  0  0
 29 25  1  0  0  0  0
 31 37  1  0  0  0  0
 31 36  1  0  0  0  0
 32 31  2  0  0  0  0
 33 32  1  0  0  0  0
 33 34  2  0  0  0  0
 34 35  1  0  0  0  0
 35 36  2  0  0  0  0
 35 24  1  0  0  0  0
 38 32  1  0  0  0  0
 39 33  1  0  0  0  0
M  END
>  <minimizedAffinity>
-5.73255301

$$$$
