
 OpenBabel03242518333D

 24 26  0  0  0  0  0  0  0  0999 V2000
   36.2520   30.8460   38.9920 O   0  0  0  0  0  0  0  0  0  0  0  0
   36.3220   29.5630   39.5810 C   0  0  0  0  0  0  0  0  0  0  0  0
   36.2990   28.2990   39.0640 C   0  0  0  0  0  0  0  0  0  0  0  0
   36.4020   27.4100   40.1140 C   0  0  0  0  0  0  0  0  0  0  0  0
   36.4830   28.1810   41.2470 C   0  0  0  0  0  0  0  0  0  0  0  0
   36.4350   29.4630   40.9110 O   0  0  0  0  0  0  0  0  0  0  0  0
   36.2130   28.1440   37.9980 H   0  0  0  0  0  0  0  0  0  0  0  0
   36.4110   26.3520   40.0190 H   0  0  0  0  0  0  0  0  0  0  0  0
   36.6100   27.6880   42.6610 C   0  0  0  0  0  3  0  0  0  0  0  0
   37.5170   28.5330   43.4970 C   0  0  0  0  0  2  0  0  0  0  0  0
   38.8750   27.8770   43.3520 C   0  0  0  0  0  2  0  0  0  0  0  0
   38.6200   26.4730   42.8820 C   0  0  0  0  0  2  0  0  0  0  0  0
   37.1490   26.2980   42.6670 C   0  0  0  0  0  2  0  0  0  0  0  0
   37.3030   31.2820   38.1640 C   0  0  0  0  0  0  0  0  0  0  0  0
   37.3590   30.8120   37.0160 O   0  0  0  0  0  0  0  0  0  0  0  0
   38.1830   32.2320   38.7860 C   0  0  0  0  0  0  0  0  0  0  0  0
   37.4940   33.1800   39.5270 C   0  0  0  0  0  0  0  0  0  0  0  0
   38.2800   34.1610   40.1790 C   0  0  0  0  0  0  0  0  0  0  0  0
   39.6300   34.1140   40.0400 N   0  0  0  0  0  0  0  0  0  0  0  0
   40.2260   33.1630   39.3020 C   0  0  0  0  0  0  0  0  0  0  0  0
   39.5060   32.2140   38.6690 N   0  0  0  0  0  0  0  0  0  0  0  0
   36.4260   33.2380   39.6530 H   0  0  0  0  0  0  0  0  0  0  0  0
   37.7800   34.9310   40.7770 H   0  0  0  0  0  0  0  0  0  0  0  0
   41.3190   33.1860   39.2350 H   0  0  0  0  0  0  0  0  0  0  0  0
  1  2  1  0  0  0  0
  2  6  1  0  0  0  0
  3  2  2  0  0  0  0
  3  4  1  0  0  0  0
  4  5  2  0  0  0  0
  5  9  1  0  0  0  0
  6  5  1  0  0  0  0
  7  3  1  0  0  0  0
  8  4  1  0  0  0  0
  9 13  1  0  0  0  0
  9 10  1  0  0  0  0
 11 10  1  0  0  0  0
 12 11  1  0  0  0  0
 13 12  1  0  0  0  0
 14 16  1  0  0  0  0
 14  1  1  0  0  0  0
 15 14  2  0  0  0  0
 16 17  1  0  0  0  0
 17 22  1  0  0  0  0
 17 18  2  0  0  0  0
 18 23  1  0  0  0  0
 19 18  1  0  0  0  0
 20 19  2  0  0  0  0
 21 16  2  0  0  0  0
 21 20  1  0  0  0  0
 24 20  1  0  0  0  0
M  END
>  <minimizedAffinity>
-5.21620464

$$$$

 OpenBabel03242518333D

 24 26  0  0  0  0  0  0  0  0999 V2000
   36.5290   31.3790   40.3160 O   0  0  0  0  0  0  0  0  0  0  0  0
   37.4060   30.7200   41.2070 C   0  0  0  0  0  0  0  0  0  0  0  0
   38.7280   30.8870   41.5080 C   0  0  0  0  0  0  0  0  0  0  0  0
   39.0670   29.9520   42.4640 C   0  0  0  0  0  0  0  0  0  0  0  0
   37.9190   29.2410   42.7100 C   0  0  0  0  0  0  0  0  0  0  0  0
   36.9370   29.7120   41.9530 O   0  0  0  0  0  0  0  0  0  0  0  0
   39.3090   31.6560   41.0170 H   0  0  0  0  0  0  0  0  0  0  0  0
   40.0320   29.8410   42.8930 H   0  0  0  0  0  0  0  0  0  0  0  0
   37.7590   28.1030   43.6790 C   0  0  0  0  0  3  0  0  0  0  0  0
   38.9240   27.1660   43.6800 C   0  0  0  0  0  2  0  0  0  0  0  0
   38.5450   26.1020   42.6690 C   0  0  0  0  0  2  0  0  0  0  0  0
   37.0530   26.1800   42.5090 C   0  0  0  0  0  2  0  0  0  0  0  0
   36.5410   27.3150   43.3390 C   0  0  0  0  0  2  0  0  0  0  0  0
   36.9040   31.5290   38.9670 C   0  0  0  0  0  0  0  0  0  0  0  0
   37.3050   32.6480   38.6070 O   0  0  0  0  0  0  0  0  0  0  0  0
   36.7620   30.3340   38.1830 C   0  0  0  0  0  0  0  0  0  0  0  0
   37.9480   29.9650   37.5680 C   0  0  0  0  0  0  0  0  0  0  0  0
   37.9060   28.7960   36.7720 C   0  0  0  0  0  0  0  0  0  0  0  0
   36.7320   28.1230   36.6620 N   0  0  0  0  0  0  0  0  0  0  0  0
   35.6220   28.5440   37.2900 C   0  0  0  0  0  0  0  0  0  0  0  0
   35.6290   29.6540   38.0560 N   0  0  0  0  0  0  0  0  0  0  0  0
   38.8910   30.4820   37.6400 H   0  0  0  0  0  0  0  0  0  0  0  0
   38.8200   28.4650   36.2650 H   0  0  0  0  0  0  0  0  0  0  0  0
   34.7100   27.9510   37.1560 H   0  0  0  0  0  0  0  0  0  0  0  0
  1  2  1  0  0  0  0
  2  3  2  0  0  0  0
  2  6  1  0  0  0  0
  3  4  1  0  0  0  0
  4  5  2  0  0  0  0
  4  8  1  0  0  0  0
  5  9  1  0  0  0  0
  6  5  1  0  0  0  0
  7  3  1  0  0  0  0
  9 10  1  0  0  0  0
 11 10  1  0  0  0  0
 12 11  1  0  0  0  0
 12 13  1  0  0  0  0
 13  9  1  0  0  0  0
 14  1  1  0  0  0  0
 15 14  2  0  0  0  0
 16 14  1  0  0  0  0
 17 22  1  0  0  0  0
 17 16  2  0  0  0  0
 18 17  1  0  0  0  0
 19 18  2  0  0  0  0
 19 20  1  0  0  0  0
 20 21  2  0  0  0  0
 21 16  1  0  0  0  0
 23 18  1  0  0  0  0
 24 20  1  0  0  0  0
M  END
>  <minimizedAffinity>
-5.15651941

$$$$

 OpenBabel03242518333D

 24 26  0  0  0  0  0  0  0  0999 V2000
   36.1990   27.9550   42.1600 O   0  0  0  0  0  0  0  0  0  0  0  0
   36.2610   28.6740   40.9450 C   0  0  0  0  0  0  0  0  0  0  0  0
   35.4630   28.7010   39.8370 C   0  0  0  0  0  0  0  0  0  0  0  0
   36.0090   29.5980   38.9430 C   0  0  0  0  0  0  0  0  0  0  0  0
   37.1370   30.0890   39.5520 C   0  0  0  0  0  0  0  0  0  0  0  0
   37.2730   29.5280   40.7460 O   0  0  0  0  0  0  0  0  0  0  0  0
   34.5790   28.0820   39.7830 H   0  0  0  0  0  0  0  0  0  0  0  0
   35.6070   29.8300   37.9880 H   0  0  0  0  0  0  0  0  0  0  0  0
   38.0920   31.1040   38.9880 C   0  0  0  0  0  3  0  0  0  0  0  0
   39.0660   31.6170   39.9990 C   0  0  0  0  0  2  0  0  0  0  0  0
   38.3950   32.8500   40.5680 C   0  0  0  0  0  2  0  0  0  0  0  0
   37.3550   33.2680   39.5680 C   0  0  0  0  0  2  0  0  0  0  0  0
   37.3340   32.2700   38.4530 C   0  0  0  0  0  2  0  0  0  0  0  0
   37.3370   27.9010   42.9870 C   0  0  0  0  0  0  0  0  0  0  0  0
   37.5880   28.9010   43.6800 O   0  0  0  0  0  0  0  0  0  0  0  0
   38.0620   26.6630   42.9060 C   0  0  0  0  0  0  0  0  0  0  0  0
   39.2860   26.7280   43.5540 C   0  0  0  0  0  0  0  0  0  0  0  0
   40.0730   25.5520   43.5280 C   0  0  0  0  0  0  0  0  0  0  0  0
   39.5910   24.4580   42.8840 N   0  0  0  0  0  0  0  0  0  0  0  0
   38.3930   24.4730   42.2780 C   0  0  0  0  0  0  0  0  0  0  0  0
   37.6190   25.5770   42.2840 N   0  0  0  0  0  0  0  0  0  0  0  0
   39.6890   27.5830   44.0710 H   0  0  0  0  0  0  0  0  0  0  0  0
   41.0490   25.5550   44.0270 H   0  0  0  0  0  0  0  0  0  0  0  0
   38.0680   23.5540   41.7780 H   0  0  0  0  0  0  0  0  0  0  0  0
  1 14  1  0  0  0  0
  2  1  1  0  0  0  0
  3  2  2  0  0  0  0
  4  5  2  0  0  0  0
  4  3  1  0  0  0  0
  5  6  1  0  0  0  0
  6  2  1  0  0  0  0
  7  3  1  0  0  0  0
  8  4  1  0  0  0  0
  9  5  1  0  0  0  0
  9 10  1  0  0  0  0
 10 11  1  0  0  0  0
 12 11  1  0  0  0  0
 13  9  1  0  0  0  0
 13 12  1  0  0  0  0
 14 15  2  0  0  0  0
 16 14  1  0  0  0  0
 16 17  1  0  0  0  0
 17 22  1  0  0  0  0
 18 17  2  0  0  0  0
 18 23  1  0  0  0  0
 19 18  1  0  0  0  0
 20 21  1  0  0  0  0
 20 19  2  0  0  0  0
 21 16  2  0  0  0  0
 24 20  1  0  0  0  0
M  END
>  <minimizedAffinity>
-5.12415075

$$$$

 OpenBabel03242518333D

 24 26  0  0  0  0  0  0  0  0999 V2000
   37.1460   32.2760   40.2290 O   0  0  0  0  0  0  0  0  0  0  0  0
   36.7830   31.0010   40.7190 C   0  0  0  0  0  0  0  0  0  0  0  0
   35.8510   30.0830   40.3260 C   0  0  0  0  0  0  0  0  0  0  0  0
   35.9360   29.0010   41.1770 C   0  0  0  0  0  0  0  0  0  0  0  0
   36.9320   29.3090   42.0700 C   0  0  0  0  0  0  0  0  0  0  0  0
   37.4270   30.5050   41.7830 O   0  0  0  0  0  0  0  0  0  0  0  0
   35.2120   30.2800   39.4760 H   0  0  0  0  0  0  0  0  0  0  0  0
   35.3330   28.1290   41.1180 H   0  0  0  0  0  0  0  0  0  0  0  0
   37.4150   28.4520   43.2060 C   0  0  0  0  0  3  0  0  0  0  0  0
   38.8780   28.1550   43.1360 C   0  0  0  0  0  2  0  0  0  0  0  0
   38.9550   26.8480   42.3730 C   0  0  0  0  0  2  0  0  0  0  0  0
   37.5950   26.2180   42.4720 C   0  0  0  0  0  2  0  0  0  0  0  0
   36.6850   27.1520   43.2070 C   0  0  0  0  0  2  0  0  0  0  0  0
   37.9370   32.3690   39.0690 C   0  0  0  0  0  0  0  0  0  0  0  0
   37.3740   32.1790   37.9780 O   0  0  0  0  0  0  0  0  0  0  0  0
   39.3170   32.6760   39.3230 C   0  0  0  0  0  0  0  0  0  0  0  0
   40.1460   32.2640   38.2900 C   0  0  0  0  0  0  0  0  0  0  0  0
   41.5280   32.5250   38.4520 C   0  0  0  0  0  0  0  0  0  0  0  0
   41.9460   33.1490   39.5830 N   0  0  0  0  0  0  0  0  0  0  0  0
   41.0800   33.5180   40.5410 C   0  0  0  0  0  0  0  0  0  0  0  0
   39.7580   33.2840   40.4180 N   0  0  0  0  0  0  0  0  0  0  0  0
   39.8370   31.7690   37.3840 H   0  0  0  0  0  0  0  0  0  0  0  0
   42.2220   32.2180   37.6620 H   0  0  0  0  0  0  0  0  0  0  0  0
   41.4890   34.0170   41.4260 H   0  0  0  0  0  0  0  0  0  0  0  0
  1  2  1  0  0  0  0
  2  6  1  0  0  0  0
  3  2  2  0  0  0  0
  3  4  1  0  0  0  0
  4  5  2  0  0  0  0
  5  9  1  0  0  0  0
  6  5  1  0  0  0  0
  7  3  1  0  0  0  0
  8  4  1  0  0  0  0
  9 13  1  0  0  0  0
 10  9  1  0  0  0  0
 11 12  1  0  0  0  0
 11 10  1  0  0  0  0
 12 13  1  0  0  0  0
 14 16  1  0  0  0  0
 14  1  1  0  0  0  0
 15 14  2  0  0  0  0
 16 21  1  0  0  0  0
 17 18  1  0  0  0  0
 17 16  2  0  0  0  0
 18 19  2  0  0  0  0
 19 20  1  0  0  0  0
 20 24  1  0  0  0  0
 21 20  2  0  0  0  0
 22 17  1  0  0  0  0
 23 18  1  0  0  0  0
M  END
>  <minimizedAffinity>
-5.09579659

$$$$

 OpenBabel03242518333D

 24 26  0  0  0  0  0  0  0  0999 V2000
   38.2770   28.3480   43.5820 O   0  0  0  0  0  0  0  0  0  0  0  0
   38.3460   29.4250   42.6700 C   0  0  0  0  0  0  0  0  0  0  0  0
   39.3150   30.3450   42.3860 C   0  0  0  0  0  0  0  0  0  0  0  0
   38.8360   31.1750   41.3940 C   0  0  0  0  0  0  0  0  0  0  0  0
   37.5720   30.7200   41.1090 C   0  0  0  0  0  0  0  0  0  0  0  0
   37.2960   29.6750   41.8780 O   0  0  0  0  0  0  0  0  0  0  0  0
   40.2590   30.3280   42.9140 H   0  0  0  0  0  0  0  0  0  0  0  0
   39.3690   31.9880   40.9680 H   0  0  0  0  0  0  0  0  0  0  0  0
   36.6230   31.2870   40.0910 C   0  0  0  0  0  3  0  0  0  0  0  0
   36.1280   30.2670   39.1180 C   0  0  0  0  0  2  0  0  0  0  0  0
   37.1070   30.3490   37.9640 C   0  0  0  0  0  2  0  0  0  0  0  0
   37.7870   31.6830   38.0780 C   0  0  0  0  0  2  0  0  0  0  0  0
   37.2960   32.3670   39.3160 C   0  0  0  0  0  2  0  0  0  0  0  0
   37.4200   27.2660   43.3050 C   0  0  0  0  0  0  0  0  0  0  0  0
   36.2400   27.3630   43.6800 O   0  0  0  0  0  0  0  0  0  0  0  0
   38.0520   26.1790   42.6120 C   0  0  0  0  0  0  0  0  0  0  0  0
   37.1370   25.3660   41.9620 C   0  0  0  0  0  0  0  0  0  0  0  0
   37.6680   24.2640   41.2500 C   0  0  0  0  0  0  0  0  0  0  0  0
   39.0130   24.0760   41.2480 N   0  0  0  0  0  0  0  0  0  0  0  0
   39.8380   24.9090   41.9040 C   0  0  0  0  0  0  0  0  0  0  0  0
   39.3630   25.9670   42.5920 N   0  0  0  0  0  0  0  0  0  0  0  0
   36.0670   25.4950   41.9490 H   0  0  0  0  0  0  0  0  0  0  0  0
   36.9830   23.5930   40.7200 H   0  0  0  0  0  0  0  0  0  0  0  0
   40.9120   24.6960   41.8580 H   0  0  0  0  0  0  0  0  0  0  0  0
  2  1  1  0  0  0  0
  3  2  2  0  0  0  0
  3  7  1  0  0  0  0
  4  3  1  0  0  0  0
  5  4  2  0  0  0  0
  5  6  1  0  0  0  0
  6  2  1  0  0  0  0
  8  4  1  0  0  0  0
  9  5  1  0  0  0  0
 10  9  1  0  0  0  0
 11 12  1  0  0  0  0
 11 10  1  0  0  0  0
 12 13  1  0  0  0  0
 13  9  1  0  0  0  0
 14  1  1  0  0  0  0
 14 15  2  0  0  0  0
 16 14  1  0  0  0  0
 17 16  2  0  0  0  0
 18 17  1  0  0  0  0
 19 18  2  0  0  0  0
 19 20  1  0  0  0  0
 20 21  2  0  0  0  0
 21 16  1  0  0  0  0
 22 17  1  0  0  0  0
 23 18  1  0  0  0  0
 24 20  1  0  0  0  0
M  END
>  <minimizedAffinity>
-5.06869888

$$$$

 OpenBabel03242518333D

 24 26  0  0  0  0  0  0  0  0999 V2000
   36.5530   30.1280   41.5770 O   0  0  0  0  0  0  0  0  0  0  0  0
   37.0930   28.9700   42.1810 C   0  0  0  0  0  0  0  0  0  0  0  0
   37.9610   28.7790   43.2190 C   0  0  0  0  0  0  0  0  0  0  0  0
   38.1390   27.4200   43.3780 C   0  0  0  0  0  0  0  0  0  0  0  0
   37.3610   26.8290   42.4140 C   0  0  0  0  0  0  0  0  0  0  0  0
   36.7430   27.7670   41.7090 O   0  0  0  0  0  0  0  0  0  0  0  0
   38.3720   29.6240   43.7520 H   0  0  0  0  0  0  0  0  0  0  0  0
   38.7620   26.9680   44.1090 H   0  0  0  0  0  0  0  0  0  0  0  0
   37.2060   25.3540   42.1660 C   0  0  0  0  0  3  0  0  0  0  0  0
   38.4490   24.5770   42.4550 C   0  0  0  0  0  2  0  0  0  0  0  0
   39.1730   24.5270   41.1240 C   0  0  0  0  0  2  0  0  0  0  0  0
   38.1430   24.8160   40.0700 C   0  0  0  0  0  2  0  0  0  0  0  0
   36.8390   25.1150   40.7410 C   0  0  0  0  0  2  0  0  0  0  0  0
   37.0530   30.5520   40.3320 C   0  0  0  0  0  0  0  0  0  0  0  0
   36.6370   29.9660   39.3190 O   0  0  0  0  0  0  0  0  0  0  0  0
   37.9980   31.6310   40.4160 C   0  0  0  0  0  0  0  0  0  0  0  0
   37.4490   32.8430   40.0280 C   0  0  0  0  0  0  0  0  0  0  0  0
   38.3080   33.9670   40.0780 C   0  0  0  0  0  0  0  0  0  0  0  0
   39.5880   33.7920   40.4950 N   0  0  0  0  0  0  0  0  0  0  0  0
   40.0480   32.5830   40.8550 C   0  0  0  0  0  0  0  0  0  0  0  0
   39.2560   31.4920   40.8180 N   0  0  0  0  0  0  0  0  0  0  0  0
   36.4370   33.0070   39.6940 H   0  0  0  0  0  0  0  0  0  0  0  0
   37.9180   34.9470   39.7810 H   0  0  0  0  0  0  0  0  0  0  0  0
   41.0920   32.5160   41.1810 H   0  0  0  0  0  0  0  0  0  0  0  0
  1  2  1  0  0  0  0
  2  3  2  0  0  0  0
  3  4  1  0  0  0  0
  3  7  1  0  0  0  0
  4  8  1  0  0  0  0
  5  4  2  0  0  0  0
  6  2  1  0  0  0  0
  6  5  1  0  0  0  0
  9  5  1  0  0  0  0
  9 10  1  0  0  0  0
 11 10  1  0  0  0  0
 12 13  1  0  0  0  0
 12 11  1  0  0  0  0
 13  9  1  0  0  0  0
 14 16  1  0  0  0  0
 14  1  1  0  0  0  0
 15 14  2  0  0  0  0
 16 21  1  0  0  0  0
 17 18  1  0  0  0  0
 17 16  2  0  0  0  0
 18 19  2  0  0  0  0
 19 20  1  0  0  0  0
 20 24  1  0  0  0  0
 21 20  2  0  0  0  0
 22 17  1  0  0  0  0
 23 18  1  0  0  0  0
M  END
>  <minimizedAffinity>
-5.05988073

$$$$

 OpenBabel03242518333D

 24 26  0  0  0  0  0  0  0  0999 V2000
   38.3130   27.1520   43.6210 O   0  0  0  0  0  0  0  0  0  0  0  0
   38.2800   28.3820   42.9240 C   0  0  0  0  0  0  0  0  0  0  0  0
   39.2210   29.3420   42.6830 C   0  0  0  0  0  0  0  0  0  0  0  0
   38.6270   30.3400   41.9400 C   0  0  0  0  0  0  0  0  0  0  0  0
   37.3270   29.9420   41.7550 C   0  0  0  0  0  0  0  0  0  0  0  0
   37.1350   28.7710   42.3480 O   0  0  0  0  0  0  0  0  0  0  0  0
   40.2270   29.2300   43.0610 H   0  0  0  0  0  0  0  0  0  0  0  0
   39.1140   31.2210   41.6020 H   0  0  0  0  0  0  0  0  0  0  0  0
   36.2580   30.6860   41.0040 C   0  0  0  0  0  3  0  0  0  0  0  0
   35.4140   29.7960   40.1500 C   0  0  0  0  0  2  0  0  0  0  0  0
   36.1030   29.8140   38.8010 C   0  0  0  0  0  2  0  0  0  0  0  0
   36.9720   31.0390   38.7840 C   0  0  0  0  0  2  0  0  0  0  0  0
   36.8810   31.7100   40.1180 C   0  0  0  0  0  2  0  0  0  0  0  0
   39.0660   26.0850   43.0970 C   0  0  0  0  0  0  0  0  0  0  0  0
   40.1230   25.7910   43.6790 O   0  0  0  0  0  0  0  0  0  0  0  0
   38.4870   25.4750   41.9320 C   0  0  0  0  0  0  0  0  0  0  0  0
   37.3030   24.8120   42.2190 C   0  0  0  0  0  0  0  0  0  0  0  0
   36.6580   24.1780   41.1310 C   0  0  0  0  0  0  0  0  0  0  0  0
   37.2250   24.2570   39.9000 N   0  0  0  0  0  0  0  0  0  0  0  0
   38.3770   24.9190   39.7000 C   0  0  0  0  0  0  0  0  0  0  0  0
   39.0170   25.5330   40.7160 N   0  0  0  0  0  0  0  0  0  0  0  0
   36.8340   24.7360   43.1870 H   0  0  0  0  0  0  0  0  0  0  0  0
   35.7190   23.6420   41.3090 H   0  0  0  0  0  0  0  0  0  0  0  0
   38.7760   24.9410   38.6800 H   0  0  0  0  0  0  0  0  0  0  0  0
  2  1  1  0  0  0  0
  3  2  2  0  0  0  0
  3  7  1  0  0  0  0
  4  3  1  0  0  0  0
  5  4  2  0  0  0  0
  5  6  1  0  0  0  0
  6  2  1  0  0  0  0
  8  4  1  0  0  0  0
  9  5  1  0  0  0  0
 10  9  1  0  0  0  0
 11 10  1  0  0  0  0
 12 11  1  0  0  0  0
 12 13  1  0  0  0  0
 13  9  1  0  0  0  0
 14  1  1  0  0  0  0
 14 15  2  0  0  0  0
 16 17  1  0  0  0  0
 16 14  1  0  0  0  0
 17 22  1  0  0  0  0
 18 23  1  0  0  0  0
 18 17  2  0  0  0  0
 19 18  1  0  0  0  0
 20 19  2  0  0  0  0
 20 21  1  0  0  0  0
 21 16  2  0  0  0  0
 24 20  1  0  0  0  0
M  END
>  <minimizedAffinity>
-5.04604435

$$$$

 OpenBabel03242518333D

 24 26  0  0  0  0  0  0  0  0999 V2000
   36.2200   30.3530   41.4290 O   0  0  0  0  0  0  0  0  0  0  0  0
   36.9520   29.3050   42.0320 C   0  0  0  0  0  0  0  0  0  0  0  0
   37.9800   29.2830   42.9300 C   0  0  0  0  0  0  0  0  0  0  0  0
   38.3070   27.9640   43.1690 C   0  0  0  0  0  0  0  0  0  0  0  0
   37.4500   27.2230   42.3940 C   0  0  0  0  0  0  0  0  0  0  0  0
   36.6480   28.0380   41.7220 O   0  0  0  0  0  0  0  0  0  0  0  0
   38.3880   30.2050   43.3190 H   0  0  0  0  0  0  0  0  0  0  0  0
   39.0730   27.6350   43.8270 H   0  0  0  0  0  0  0  0  0  0  0  0
   37.3970   25.7250   42.2960 C   0  0  0  0  0  3  0  0  0  0  0  0
   38.7170   25.0730   42.5550 C   0  0  0  0  0  2  0  0  0  0  0  0
   39.3450   24.9460   41.1820 C   0  0  0  0  0  2  0  0  0  0  0  0
   38.2210   25.0540   40.1900 C   0  0  0  0  0  2  0  0  0  0  0  0
   36.9500   25.3210   40.9330 C   0  0  0  0  0  2  0  0  0  0  0  0
   36.8050   31.0860   40.3790 C   0  0  0  0  0  0  0  0  0  0  0  0
   37.4420   32.1080   40.6810 O   0  0  0  0  0  0  0  0  0  0  0  0
   36.5720   30.5290   39.0750 C   0  0  0  0  0  0  0  0  0  0  0  0
   37.4760   30.9980   38.1340 C   0  0  0  0  0  0  0  0  0  0  0  0
   37.3240   30.5040   36.8160 C   0  0  0  0  0  0  0  0  0  0  0  0
   36.3260   29.6190   36.5620 N   0  0  0  0  0  0  0  0  0  0  0  0
   35.4890   29.2110   37.5290 C   0  0  0  0  0  0  0  0  0  0  0  0
   35.6060   29.6630   38.7940 N   0  0  0  0  0  0  0  0  0  0  0  0
   38.2750   31.6990   38.3120 H   0  0  0  0  0  0  0  0  0  0  0  0
   38.0150   30.8470   36.0380 H   0  0  0  0  0  0  0  0  0  0  0  0
   34.7070   28.4960   37.2510 H   0  0  0  0  0  0  0  0  0  0  0  0
  1  2  1  0  0  0  0
  2  3  2  0  0  0  0
  3  4  1  0  0  0  0
  3  7  1  0  0  0  0
  4  8  1  0  0  0  0
  5  4  2  0  0  0  0
  6  2  1  0  0  0  0
  6  5  1  0  0  0  0
  9  5  1  0  0  0  0
  9 10  1  0  0  0  0
 11 10  1  0  0  0  0
 12 13  1  0  0  0  0
 12 11  1  0  0  0  0
 13  9  1  0  0  0  0
 14 15  2  0  0  0  0
 14  1  1  0  0  0  0
 16 14  1  0  0  0  0
 17 22  1  0  0  0  0
 17 16  2  0  0  0  0
 18 17  1  0  0  0  0
 19 18  2  0  0  0  0
 19 20  1  0  0  0  0
 20 21  2  0  0  0  0
 21 16  1  0  0  0  0
 23 18  1  0  0  0  0
 24 20  1  0  0  0  0
M  END
>  <minimizedAffinity>
-4.8020153

$$$$

 OpenBabel03242518333D

 24 26  0  0  0  0  0  0  0  0999 V2000
   36.7370   27.6060   41.4850 O   0  0  0  0  0  0  0  0  0  0  0  0
   36.8470   28.9880   41.2100 C   0  0  0  0  0  0  0  0  0  0  0  0
   35.9810   29.9060   40.6890 C   0  0  0  0  0  0  0  0  0  0  0  0
   36.6280   31.1230   40.6450 C   0  0  0  0  0  0  0  0  0  0  0  0
   37.8840   30.8930   41.1480 C   0  0  0  0  0  0  0  0  0  0  0  0
   37.9990   29.6150   41.4820 O   0  0  0  0  0  0  0  0  0  0  0  0
   34.9820   29.6130   40.3970 H   0  0  0  0  0  0  0  0  0  0  0  0
   36.2030   32.0270   40.2850 H   0  0  0  0  0  0  0  0  0  0  0  0
   38.9830   31.9050   41.3140 C   0  0  0  0  0  3  0  0  0  0  0  0
   38.8170   33.1010   40.4330 C   0  0  0  0  0  2  0  0  0  0  0  0
   39.5950   32.7490   39.1810 C   0  0  0  0  0  2  0  0  0  0  0  0
   40.5440   31.6500   39.5650 C   0  0  0  0  0  2  0  0  0  0  0  0
   40.2990   31.2820   40.9940 C   0  0  0  0  0  2  0  0  0  0  0  0
   36.9970   27.1410   42.7880 C   0  0  0  0  0  0  0  0  0  0  0  0
   36.1880   27.4520   43.6770 O   0  0  0  0  0  0  0  0  0  0  0  0
   38.1920   26.3530   42.9020 C   0  0  0  0  0  0  0  0  0  0  0  0
   38.1380   25.2000   42.1330 C   0  0  0  0  0  0  0  0  0  0  0  0
   39.2740   24.3580   42.1810 C   0  0  0  0  0  0  0  0  0  0  0  0
   40.3250   24.7240   42.9600 N   0  0  0  0  0  0  0  0  0  0  0  0
   40.3030   25.8580   43.6790 C   0  0  0  0  0  0  0  0  0  0  0  0
   39.2350   26.6820   43.6550 N   0  0  0  0  0  0  0  0  0  0  0  0
   37.3170   24.8890   41.5080 H   0  0  0  0  0  0  0  0  0  0  0  0
   39.2780   23.4350   41.5900 H   0  0  0  0  0  0  0  0  0  0  0  0
   41.1860   26.0890   44.2850 H   0  0  0  0  0  0  0  0  0  0  0  0
  1 14  1  0  0  0  0
  2  6  1  0  0  0  0
  2  1  1  0  0  0  0
  3  2  2  0  0  0  0
  4  3  1  0  0  0  0
  4  5  2  0  0  0  0
  5  9  1  0  0  0  0
  5  6  1  0  0  0  0
  7  3  1  0  0  0  0
  8  4  1  0  0  0  0
 10  9  1  0  0  0  0
 11 12  1  0  0  0  0
 11 10  1  0  0  0  0
 12 13  1  0  0  0  0
 13  9  1  0  0  0  0
 14 16  1  0  0  0  0
 14 15  2  0  0  0  0
 16 21  1  0  0  0  0
 17 18  1  0  0  0  0
 17 16  2  0  0  0  0
 18 19  2  0  0  0  0
 19 20  1  0  0  0  0
 20 24  1  0  0  0  0
 21 20  2  0  0  0  0
 22 17  1  0  0  0  0
 23 18  1  0  0  0  0
M  END
>  <minimizedAffinity>
-4.7288909

$$$$
