
 OpenBabel03252507583D

 23 25  0  0  1  0  0  0  0  0999 V2000
   46.8220   32.2730   46.1760 C   0  0  1  0  0  0  0  0  0  0  0  0
   47.1540   32.4850   47.6200 C   0  0  0  0  0  0  0  0  0  0  0  0
   45.9010   31.7730   47.2430 C   0  0  2  0  0  0  0  0  0  0  0  0
   47.4640   31.5720   45.6090 H   0  0  0  0  0  0  0  0  0  0  0  0
   48.0160   31.9020   47.9970 H   0  0  0  0  0  0  0  0  0  0  0  0
   47.1710   33.5380   47.9250 H   0  0  0  0  0  0  0  0  0  0  0  0
   44.9600   32.3470   47.4590 H   0  0  0  0  0  0  0  0  0  0  0  0
   46.2390   34.6700   43.4580 C   0  0  0  0  0  0  0  0  0  0  0  0
   45.1990   35.4820   43.9650 C   0  0  0  0  0  0  0  0  0  0  0  0
   44.6930   35.1930   45.2570 C   0  0  0  0  0  0  0  0  0  0  0  0
   45.2490   34.1450   45.9240 N   0  0  0  0  0  0  0  0  0  0  0  0
   46.2510   33.4020   45.3710 C   0  0  0  0  0  0  0  0  0  0  0  0
   46.7400   33.6540   44.1650 N   0  0  0  0  0  0  0  0  0  0  0  0
   44.7600   36.3150   43.4320 H   0  0  0  0  0  0  0  0  0  0  0  0
   43.8990   35.7790   45.6980 H   0  0  0  0  0  0  0  0  0  0  0  0
   46.6720   35.0570   42.1600 C   0  0  0  0  0  0  0  0  0  0  0  0
   47.8600   35.3850   41.8510 O   0  0  0  0  0  0  0  0  0  0  0  0
   46.0880   35.1400   41.2310 H   0  0  0  0  0  0  0  0  0  0  0  0
   45.8340   30.3370   47.6220 C   0  0  0  0  0  3  0  0  0  0  0  0
   47.0200   29.5310   47.1540 C   0  0  0  0  0  2  0  0  0  0  0  0
   46.5430   28.1050   47.4440 C   0  0  0  0  0  2  0  0  0  0  0  0
   45.0480   28.1710   47.6330 C   0  0  0  0  0  2  0  0  0  0  0  0
   44.6880   29.5560   47.0750 C   0  0  0  0  0  2  0  0  0  0  0  0
  1  4  1  6  0  0  0
  1  3  1  0  0  0  0
  1  2  1  0  0  0  0
  2  6  1  0  0  0  0
  2  5  1  0  0  0  0
  3  7  1  1  0  0  0
  3  2  1  0  0  0  0
  3 19  1  0  0  0  0
  8  9  2  0  0  0  0
  8 13  1  0  0  0  0
  9 10  1  0  0  0  0
 10 15  1  0  0  0  0
 10 11  2  0  0  0  0
 12 11  1  0  0  0  0
 12  1  1  0  0  0  0
 13 12  2  0  0  0  0
 14  9  1  0  0  0  0
 16  8  1  0  0  0  0
 17 16  2  0  0  0  0
 18 16  1  0  0  0  0
 20 21  1  0  0  0  0
 20 19  1  0  0  0  0
 21 22  1  0  0  0  0
 23 19  1  0  0  0  0
 23 22  1  0  0  0  0
M  END
>  <minimizedAffinity>
-4.6352706

>  <minimizedRMSD>
1.25207186

$$$$
