
 OpenBabel03252507583D

 23 25  0  0  1  0  0  0  0  0999 V2000
   46.1120   32.4990   45.3190 C   0  0  1  0  0  0  0  0  0  0  0  0
   47.2300   32.6040   46.3090 C   0  0  0  0  0  0  0  0  0  0  0  0
   45.8290   32.8690   46.7410 C   0  0  2  0  0  0  0  0  0  0  0  0
   45.8680   31.4890   44.9390 H   0  0  0  0  0  0  0  0  0  0  0  0
   47.7090   31.6450   46.5830 H   0  0  0  0  0  0  0  0  0  0  0  0
   47.9470   33.4040   46.0910 H   0  0  0  0  0  0  0  0  0  0  0  0
   45.6170   33.9440   46.9880 H   0  0  0  0  0  0  0  0  0  0  0  0
   46.2310   34.5750   42.2950 C   0  0  0  0  0  0  0  0  0  0  0  0
   45.4260   35.6860   42.6370 C   0  0  0  0  0  0  0  0  0  0  0  0
   44.8350   35.7120   43.9250 C   0  0  0  0  0  0  0  0  0  0  0  0
   45.0850   34.6580   44.7470 N   0  0  0  0  0  0  0  0  0  0  0  0
   45.8720   33.6170   44.3480 C   0  0  0  0  0  0  0  0  0  0  0  0
   46.4350   33.5710   43.1500 N   0  0  0  0  0  0  0  0  0  0  0  0
   45.2300   36.5240   41.9800 H   0  0  0  0  0  0  0  0  0  0  0  0
   44.2100   36.5350   44.2440 H   0  0  0  0  0  0  0  0  0  0  0  0
   46.7770   34.6600   40.9840 C   0  0  0  0  0  0  0  0  0  0  0  0
   47.9940   34.9030   40.7130 O   0  0  0  0  0  0  0  0  0  0  0  0
   46.2730   34.5370   40.0140 H   0  0  0  0  0  0  0  0  0  0  0  0
   45.2570   31.9000   47.7120 C   0  0  0  0  0  3  0  0  0  0  0  0
   45.7020   32.1350   49.1350 C   0  0  0  0  0  2  0  0  0  0  0  0
   45.1890   30.8650   49.8180 C   0  0  0  0  0  2  0  0  0  0  0  0
   44.8980   29.8650   48.7280 C   0  0  0  0  0  2  0  0  0  0  0  0
   45.6070   30.4660   47.5070 C   0  0  0  0  0  2  0  0  0  0  0  0
  1  4  1  6  0  0  0
  1  2  1  0  0  0  0
  1  3  1  0  0  0  0
  2  5  1  0  0  0  0
  2  3  1  0  0  0  0
  3  7  1  1  0  0  0
  3 19  1  0  0  0  0
  6  2  1  0  0  0  0
  8  9  2  0  0  0  0
  8 13  1  0  0  0  0
  9 10  1  0  0  0  0
 10 15  1  0  0  0  0
 10 11  2  0  0  0  0
 12 11  1  0  0  0  0
 12  1  1  0  0  0  0
 13 12  2  0  0  0  0
 14  9  1  0  0  0  0
 16  8  1  0  0  0  0
 17 16  2  0  0  0  0
 18 16  1  0  0  0  0
 19 20  1  0  0  0  0
 20 21  1  0  0  0  0
 22 21  1  0  0  0  0
 23 19  1  0  0  0  0
 23 22  1  0  0  0  0
M  END
>  <minimizedAffinity>
-4.33073425

>  <minimizedRMSD>
1.23778915

$$$$
