
 OpenBabel03242518373D

 31 34  0  0  1  0  0  0  0  0999 V2000
   38.1490   31.7070   41.0490 C   0  0  0  0  0  0  0  0  0  0  0  0
   36.9810   31.7520   40.2950 C   0  0  0  0  0  0  0  0  0  0  0  0
   36.2230   30.6190   40.5700 C   0  0  0  0  0  0  0  0  0  0  0  0
   36.9820   29.9380   41.4890 C   0  0  0  0  0  0  0  0  0  0  0  0
   38.1000   30.5820   41.7580 O   0  0  0  0  0  0  0  0  0  0  0  0
   36.7560   32.5710   39.6170 H   0  0  0  0  0  0  0  0  0  0  0  0
   35.2640   30.3720   40.1390 H   0  0  0  0  0  0  0  0  0  0  0  0
   36.5900   28.6590   42.0940 C   0  0  2  0  0  0  0  0  0  0  0  0
   37.3360   28.1300   43.2480 C   0  0  0  0  0  0  0  0  0  0  0  0
   37.6100   27.5330   41.9030 C   0  0  1  0  0  0  0  0  0  0  0  0
   35.5320   28.3920   41.9020 H   0  0  0  0  0  0  0  0  0  0  0  0
   36.7960   27.4980   43.9880 H   0  0  0  0  0  0  0  0  0  0  0  0
   38.0880   28.7950   43.7120 H   0  0  0  0  0  0  0  0  0  0  0  0
   38.5850   27.7990   41.4630 H   0  0  0  0  0  0  0  0  0  0  0  0
   37.1380   26.1540   41.6270 C   0  0  0  0  0  3  0  0  0  0  0  0
   36.9230   25.8470   40.1770 C   0  0  0  0  0  2  0  0  0  0  0  0
   36.9250   24.3220   40.1230 C   0  0  0  0  0  2  0  0  0  0  0  0
   37.3460   23.8390   41.4910 C   0  0  0  0  0  2  0  0  0  0  0  0
   38.0410   25.0650   42.0970 C   0  0  0  0  0  2  0  0  0  0  0  0
   39.2290   32.6030   41.1320 O   0  0  0  0  0  0  0  0  0  0  0  0
   39.3280   33.6730   40.2110 C   0  0  0  0  0  0  0  0  0  0  0  0
   38.5490   34.6380   40.4120 O   0  0  0  0  0  0  0  0  0  0  0  0
   40.2900   33.5250   39.1800 C   0  0  0  0  0  0  0  0  0  0  0  0
   41.2670   34.4820   39.1610 C   0  0  0  0  0  0  0  0  0  0  0  0
   42.2460   34.3970   38.1720 C   0  0  0  0  0  0  0  0  0  0  0  0
   42.1830   33.3740   37.2810 N   0  0  0  0  0  0  0  0  0  0  0  0
   41.2140   32.4620   37.3340 C   0  0  0  0  0  0  0  0  0  0  0  0
   40.2830   32.5560   38.2870 N   0  0  0  0  0  0  0  0  0  0  0  0
   41.4050   35.3350   39.8260 H   0  0  0  0  0  0  0  0  0  0  0  0
   43.0550   35.1050   38.0800 H   0  0  0  0  0  0  0  0  0  0  0  0
   41.0840   31.6170   36.6690 H   0  0  0  0  0  0  0  0  0  0  0  0
  1 20  1  0  0  0  0
  1  5  1  0  0  0  0
  2  3  1  0  0  0  0
  2  1  2  0  0  0  0
  3  4  2  0  0  0  0
  4  5  1  0  0  0  0
  4  8  1  0  0  0  0
  6  2  1  0  0  0  0
  7  3  1  0  0  0  0
  8 11  1  6  0  0  0
  8  9  1  0  0  0  0
  9 13  1  0  0  0  0
  9 12  1  0  0  0  0
 10 14  1  6  0  0  0
 10  8  1  0  0  0  0
 10  9  1  0  0  0  0
 15 10  1  0  0  0  0
 15 19  1  0  0  0  0
 16 15  1  0  0  0  0
 17 16  1  0  0  0  0
 17 18  1  0  0  0  0
 18 19  1  0  0  0  0
 21 22  2  0  0  0  0
 21 20  1  0  0  0  0
 23 21  1  0  0  0  0
 24 23  1  0  0  0  0
 24 29  1  0  0  0  0
 25 24  2  0  0  0  0
 26 27  2  0  0  0  0
 26 25  1  0  0  0  0
 27 28  1  0  0  0  0
 28 23  2  0  0  0  0
 30 25  1  0  0  0  0
 31 27  1  0  0  0  0
M  END
>  <minimizedAffinity>
-5.75234985

$$$$

 OpenBabel03242518373D

 31 34  0  0  1  0  0  0  0  0999 V2000
   36.3790   28.6870   41.3400 C   0  0  0  0  0  0  0  0  0  0  0  0
   35.3790   29.0200   40.4330 C   0  0  0  0  0  0  0  0  0  0  0  0
   35.6130   30.3050   39.9570 C   0  0  0  0  0  0  0  0  0  0  0  0
   36.7590   30.6870   40.6080 C   0  0  0  0  0  0  0  0  0  0  0  0
   37.1930   29.7360   41.4110 O   0  0  0  0  0  0  0  0  0  0  0  0
   34.5690   28.3400   40.1810 H   0  0  0  0  0  0  0  0  0  0  0  0
   35.0080   30.8410   39.2390 H   0  0  0  0  0  0  0  0  0  0  0  0
   37.4140   31.9890   40.4260 C   0  0  2  0  0  0  0  0  0  0  0  0
   37.2780   32.7110   39.1500 C   0  0  0  0  0  0  0  0  0  0  0  0
   38.5580   31.9810   39.4080 C   0  0  1  0  0  0  0  0  0  0  0  0
   37.6190   32.5110   41.3810 H   0  0  0  0  0  0  0  0  0  0  0  0
   37.3110   33.8240   39.1610 H   0  0  0  0  0  0  0  0  0  0  0  0
   36.5590   32.3060   38.4140 H   0  0  0  0  0  0  0  0  0  0  0  0
   38.7030   31.0650   38.8130 H   0  0  0  0  0  0  0  0  0  0  0  0
   39.7850   32.7710   39.6780 C   0  0  0  0  0  3  0  0  0  0  0  0
   40.7480   32.8380   38.5330 C   0  0  0  0  0  2  0  0  0  0  0  0
   41.6260   34.0420   38.8650 C   0  0  0  0  0  2  0  0  0  0  0  0
   40.9980   34.7220   40.0590 C   0  0  0  0  0  2  0  0  0  0  0  0
   39.5560   34.1990   40.0410 C   0  0  0  0  0  2  0  0  0  0  0  0
   36.5940   27.5160   42.0890 O   0  0  0  0  0  0  0  0  0  0  0  0
   37.5340   27.5210   43.1470 C   0  0  0  0  0  0  0  0  0  0  0  0
   37.3290   28.3640   44.0540 O   0  0  0  0  0  0  0  0  0  0  0  0
   38.5880   26.5770   43.0520 C   0  0  0  0  0  0  0  0  0  0  0  0
   39.7450   26.9380   43.6840 C   0  0  0  0  0  0  0  0  0  0  0  0
   40.8230   26.0560   43.6310 C   0  0  0  0  0  0  0  0  0  0  0  0
   40.6720   24.8860   42.9570 N   0  0  0  0  0  0  0  0  0  0  0  0
   39.5280   24.5710   42.3540 C   0  0  0  0  0  0  0  0  0  0  0  0
   38.5040   25.4260   42.4130 N   0  0  0  0  0  0  0  0  0  0  0  0
   39.9640   27.8460   44.2470 H   0  0  0  0  0  0  0  0  0  0  0  0
   41.7730   26.2550   44.1000 H   0  0  0  0  0  0  0  0  0  0  0  0
   39.3180   23.6660   41.7960 H   0  0  0  0  0  0  0  0  0  0  0  0
  1  5  1  0  0  0  0
  1 20  1  0  0  0  0
  2  1  2  0  0  0  0
  3  2  1  0  0  0  0
  3  4  2  0  0  0  0
  4  5  1  0  0  0  0
  6  2  1  0  0  0  0
  7  3  1  0  0  0  0
  8  4  1  0  0  0  0
  8 11  1  1  0  0  0
  9 12  1  0  0  0  0
  9 10  1  0  0  0  0
  9  8  1  0  0  0  0
 10 14  1  6  0  0  0
 10 15  1  0  0  0  0
 10  8  1  0  0  0  0
 13  9  1  0  0  0  0
 15 19  1  0  0  0  0
 16 17  1  0  0  0  0
 16 15  1  0  0  0  0
 17 18  1  0  0  0  0
 19 18  1  0  0  0  0
 20 21  1  0  0  0  0
 21 22  2  0  0  0  0
 23 21  1  0  0  0  0
 23 24  1  0  0  0  0
 24 29  1  0  0  0  0
 25 24  2  0  0  0  0
 25 30  1  0  0  0  0
 26 25  1  0  0  0  0
 27 28  1  0  0  0  0
 27 26  2  0  0  0  0
 28 23  2  0  0  0  0
 31 27  1  0  0  0  0
M  END
>  <minimizedAffinity>
-5.59038544

$$$$

 OpenBabel03242518373D

 31 34  0  0  1  0  0  0  0  0999 V2000
   39.4790   33.9190   40.3220 C   0  0  0  0  0  0  0  0  0  0  0  0
   38.2550   34.4110   39.8840 C   0  0  0  0  0  0  0  0  0  0  0  0
   37.3620   33.3520   39.7600 C   0  0  0  0  0  0  0  0  0  0  0  0
   38.1030   32.2600   40.1360 C   0  0  0  0  0  0  0  0  0  0  0  0
   39.3340   32.6040   40.4590 O   0  0  0  0  0  0  0  0  0  0  0  0
   38.0870   35.4670   39.6860 H   0  0  0  0  0  0  0  0  0  0  0  0
   36.3320   33.4180   39.4400 H   0  0  0  0  0  0  0  0  0  0  0  0
   37.5830   30.8860   40.1740 C   0  0  2  0  0  0  0  0  0  0  0  0
   36.1910   30.6360   40.5830 C   0  0  0  0  0  0  0  0  0  0  0  0
   37.2740   30.3690   41.5820 C   0  0  1  0  0  0  0  0  0  0  0  0
   38.1390   30.1920   39.5140 H   0  0  0  0  0  0  0  0  0  0  0  0
   35.6600   29.7560   40.1570 H   0  0  0  0  0  0  0  0  0  0  0  0
   35.5360   31.5170   40.7130 H   0  0  0  0  0  0  0  0  0  0  0  0
   37.3320   31.0910   42.4130 H   0  0  0  0  0  0  0  0  0  0  0  0
   37.5880   28.9620   41.9310 C   0  0  0  0  0  3  0  0  0  0  0  0
   38.4030   28.7960   43.1770 C   0  0  0  0  0  2  0  0  0  0  0  0
   38.1770   27.3380   43.5690 C   0  0  0  0  0  2  0  0  0  0  0  0
   37.0920   26.8070   42.6620 C   0  0  0  0  0  2  0  0  0  0  0  0
   36.4060   28.0820   42.1540 C   0  0  0  0  0  2  0  0  0  0  0  0
   40.6910   34.5750   40.5990 O   0  0  0  0  0  0  0  0  0  0  0  0
   41.8200   34.3420   39.7780 C   0  0  0  0  0  0  0  0  0  0  0  0
   41.5780   34.1460   38.5610 O   0  0  0  0  0  0  0  0  0  0  0  0
   43.0810   34.3600   40.4270 C   0  0  0  0  0  0  0  0  0  0  0  0
   43.0420   34.6870   41.7540 C   0  0  0  0  0  0  0  0  0  0  0  0
   44.2470   34.7230   42.4550 C   0  0  0  0  0  0  0  0  0  0  0  0
   45.3940   34.4330   41.7890 N   0  0  0  0  0  0  0  0  0  0  0  0
   45.3900   34.1180   40.4950 C   0  0  0  0  0  0  0  0  0  0  0  0
   44.2280   34.0880   39.8370 N   0  0  0  0  0  0  0  0  0  0  0  0
   42.1800   34.9340   42.3750 H   0  0  0  0  0  0  0  0  0  0  0  0
   44.3130   34.9700   43.5020 H   0  0  0  0  0  0  0  0  0  0  0  0
   46.2510   33.8740   39.8850 H   0  0  0  0  0  0  0  0  0  0  0  0
  1  5  1  0  0  0  0
  1 20  1  0  0  0  0
  2  1  2  0  0  0  0
  3  2  1  0  0  0  0
  3  4  2  0  0  0  0
  4  8  1  0  0  0  0
  4  5  1  0  0  0  0
  6  2  1  0  0  0  0
  7  3  1  0  0  0  0
  8 11  1  6  0  0  0
  8  9  1  0  0  0  0
  8 10  1  0  0  0  0
  9 13  1  0  0  0  0
  9 10  1  0  0  0  0
 10 15  1  0  0  0  0
 10 14  1  1  0  0  0
 12  9  1  0  0  0  0
 15 19  1  0  0  0  0
 15 16  1  0  0  0  0
 16 17  1  0  0  0  0
 18 17  1  0  0  0  0
 19 18  1  0  0  0  0
 21 23  1  0  0  0  0
 21 20  1  0  0  0  0
 22 21  2  0  0  0  0
 23 24  1  0  0  0  0
 24 29  1  0  0  0  0
 24 25  2  0  0  0  0
 25 30  1  0  0  0  0
 26 25  1  0  0  0  0
 27 26  2  0  0  0  0
 28 23  2  0  0  0  0
 28 27  1  0  0  0  0
 31 27  1  0  0  0  0
M  END
>  <minimizedAffinity>
-5.57093859

$$$$

 OpenBabel03242518373D

 31 34  0  0  1  0  0  0  0  0999 V2000
   37.1590   26.7350   42.6170 C   0  0  0  0  0  0  0  0  0  0  0  0
   37.8090   27.5400   43.5460 C   0  0  0  0  0  0  0  0  0  0  0  0
   37.6190   28.8730   43.1980 C   0  0  0  0  0  0  0  0  0  0  0  0
   36.8530   28.8040   42.0620 C   0  0  0  0  0  0  0  0  0  0  0  0
   36.5930   27.5540   41.7340 O   0  0  0  0  0  0  0  0  0  0  0  0
   38.3620   27.1300   44.3880 H   0  0  0  0  0  0  0  0  0  0  0  0
   38.0020   29.7330   43.7290 H   0  0  0  0  0  0  0  0  0  0  0  0
   36.3830   29.9770   41.3140 C   0  0  2  0  0  0  0  0  0  0  0  0
   36.3900   29.9650   39.8420 C   0  0  0  0  0  0  0  0  0  0  0  0
   37.4820   30.7130   40.5410 C   0  0  1  0  0  0  0  0  0  0  0  0
   35.6900   30.6160   41.8960 H   0  0  0  0  0  0  0  0  0  0  0  0
   35.6240   30.5630   39.2990 H   0  0  0  0  0  0  0  0  0  0  0  0
   36.6200   29.0030   39.3450 H   0  0  0  0  0  0  0  0  0  0  0  0
   38.4760   30.2400   40.4970 H   0  0  0  0  0  0  0  0  0  0  0  0
   37.4730   32.1960   40.4880 C   0  0  0  0  0  3  0  0  0  0  0  0
   38.7500   32.8420   40.9330 C   0  0  0  0  0  2  0  0  0  0  0  0
   38.6690   34.2490   40.3460 C   0  0  0  0  0  2  0  0  0  0  0  0
   37.4680   34.2700   39.4300 C   0  0  0  0  0  2  0  0  0  0  0  0
   37.2210   32.7830   39.1420 C   0  0  0  0  0  2  0  0  0  0  0  0
   37.0490   25.3370   42.5240 O   0  0  0  0  0  0  0  0  0  0  0  0
   38.0080   24.6040   41.7830 C   0  0  0  0  0  0  0  0  0  0  0  0
   39.2090   24.8770   42.0270 O   0  0  0  0  0  0  0  0  0  0  0  0
   37.4950   23.6560   40.8610 C   0  0  0  0  0  0  0  0  0  0  0  0
   36.2670   23.9610   40.3430 C   0  0  0  0  0  0  0  0  0  0  0  0
   35.7030   23.0720   39.4290 C   0  0  0  0  0  0  0  0  0  0  0  0
   36.3970   21.9520   39.1000 N   0  0  0  0  0  0  0  0  0  0  0  0
   37.5920   21.6910   39.6270 C   0  0  0  0  0  0  0  0  0  0  0  0
   38.1190   22.5520   40.5010 N   0  0  0  0  0  0  0  0  0  0  0  0
   35.6350   24.8280   40.5410 H   0  0  0  0  0  0  0  0  0  0  0  0
   34.7410   23.2300   38.9680 H   0  0  0  0  0  0  0  0  0  0  0  0
   38.2130   20.8280   39.4250 H   0  0  0  0  0  0  0  0  0  0  0  0
  1  2  2  0  0  0  0
  2  6  1  0  0  0  0
  3  2  1  0  0  0  0
  3  7  1  0  0  0  0
  4  3  2  0  0  0  0
  5  4  1  0  0  0  0
  5  1  1  0  0  0  0
  8 11  1  1  0  0  0
  8  4  1  0  0  0  0
  9 10  1  0  0  0  0
  9  8  1  0  0  0  0
 10 14  1  6  0  0  0
 10  8  1  0  0  0  0
 12  9  1  0  0  0  0
 13  9  1  0  0  0  0
 15 10  1  0  0  0  0
 15 16  1  0  0  0  0
 17 16  1  0  0  0  0
 18 17  1  0  0  0  0
 19 18  1  0  0  0  0
 19 15  1  0  0  0  0
 20  1  1  0  0  0  0
 21 22  2  0  0  0  0
 21 20  1  0  0  0  0
 23 21  1  0  0  0  0
 24 29  1  0  0  0  0
 24 23  2  0  0  0  0
 25 24  1  0  0  0  0
 26 25  2  0  0  0  0
 26 27  1  0  0  0  0
 27 28  2  0  0  0  0
 28 23  1  0  0  0  0
 30 25  1  0  0  0  0
 31 27  1  0  0  0  0
M  END
>  <minimizedAffinity>
-5.50973082

$$$$

 OpenBabel03242518373D

 31 34  0  0  1  0  0  0  0  0999 V2000
   36.9780   29.2560   42.1030 C   0  0  0  0  0  0  0  0  0  0  0  0
   37.9490   29.0690   43.0810 C   0  0  0  0  0  0  0  0  0  0  0  0
   38.0970   27.7060   43.3140 C   0  0  0  0  0  0  0  0  0  0  0  0
   37.1950   27.1310   42.4540 C   0  0  0  0  0  0  0  0  0  0  0  0
   36.5500   28.0450   41.7550 O   0  0  0  0  0  0  0  0  0  0  0  0
   38.4720   29.8980   43.5500 H   0  0  0  0  0  0  0  0  0  0  0  0
   38.7760   27.2480   44.0190 H   0  0  0  0  0  0  0  0  0  0  0  0
   36.9850   25.6830   42.3280 C   0  0  2  0  0  0  0  0  0  0  0  0
   38.1400   24.7730   42.2580 C   0  0  0  0  0  0  0  0  0  0  0  0
   37.4250   25.0970   40.9830 C   0  0  1  0  0  0  0  0  0  0  0  0
   35.9950   25.3530   42.7000 H   0  0  0  0  0  0  0  0  0  0  0  0
   38.0310   23.7410   42.6580 H   0  0  0  0  0  0  0  0  0  0  0  0
   39.1390   25.2090   42.4470 H   0  0  0  0  0  0  0  0  0  0  0  0
   37.9730   25.7600   40.2950 H   0  0  0  0  0  0  0  0  0  0  0  0
   36.6050   24.0410   40.3410 C   0  0  0  0  0  3  0  0  0  0  0  0
   35.9510   24.4530   39.0570 C   0  0  0  0  0  2  0  0  0  0  0  0
   35.6030   23.1290   38.3830 C   0  0  0  0  0  2  0  0  0  0  0  0
   36.2550   22.0400   39.2030 C   0  0  0  0  0  2  0  0  0  0  0  0
   37.3380   22.7920   39.9870 C   0  0  0  0  0  2  0  0  0  0  0  0
   36.4690   30.4290   41.5200 O   0  0  0  0  0  0  0  0  0  0  0  0
   36.9880   30.8830   40.2840 C   0  0  0  0  0  0  0  0  0  0  0  0
   36.5160   30.3310   39.2590 O   0  0  0  0  0  0  0  0  0  0  0  0
   37.9730   31.9010   40.3540 C   0  0  0  0  0  0  0  0  0  0  0  0
   37.5320   33.1540   40.0300 C   0  0  0  0  0  0  0  0  0  0  0  0
   38.4480   34.2040   40.0780 C   0  0  0  0  0  0  0  0  0  0  0  0
   39.7280   33.9320   40.4420 N   0  0  0  0  0  0  0  0  0  0  0  0
   40.1190   32.6970   40.7510 C   0  0  0  0  0  0  0  0  0  0  0  0
   39.2290   31.7010   40.7010 N   0  0  0  0  0  0  0  0  0  0  0  0
   36.5330   33.4730   39.7280 H   0  0  0  0  0  0  0  0  0  0  0  0
   38.1910   35.2230   39.8400 H   0  0  0  0  0  0  0  0  0  0  0  0
   41.1120   32.3880   41.0500 H   0  0  0  0  0  0  0  0  0  0  0  0
  1  2  2  0  0  0  0
  2  3  1  0  0  0  0
  2  6  1  0  0  0  0
  3  7  1  0  0  0  0
  4  3  2  0  0  0  0
  5  1  1  0  0  0  0
  5  4  1  0  0  0  0
  8  4  1  0  0  0  0
  8 11  1  1  0  0  0
  9  8  1  0  0  0  0
  9 13  1  0  0  0  0
  9 12  1  0  0  0  0
 10 14  1  6  0  0  0
 10  9  1  0  0  0  0
 10  8  1  0  0  0  0
 15 10  1  0  0  0  0
 16 15  1  0  0  0  0
 17 16  1  0  0  0  0
 17 18  1  0  0  0  0
 18 19  1  0  0  0  0
 19 15  1  0  0  0  0
 20  1  1  0  0  0  0
 21 23  1  0  0  0  0
 21 20  1  0  0  0  0
 22 21  2  0  0  0  0
 23 28  1  0  0  0  0
 24 25  1  0  0  0  0
 24 23  2  0  0  0  0
 25 26  2  0  0  0  0
 26 27  1  0  0  0  0
 27 31  1  0  0  0  0
 28 27  2  0  0  0  0
 29 24  1  0  0  0  0
 30 25  1  0  0  0  0
M  END
>  <minimizedAffinity>
-5.47975922

$$$$

 OpenBabel03242518373D

 31 34  0  0  1  0  0  0  0  0999 V2000
   38.3170   32.6540   40.2420 C   0  0  0  0  0  0  0  0  0  0  0  0
   37.2850   32.3610   39.3580 C   0  0  0  0  0  0  0  0  0  0  0  0
   36.6230   31.2210   39.7990 C   0  0  0  0  0  0  0  0  0  0  0  0
   37.2980   30.8780   40.9430 C   0  0  0  0  0  0  0  0  0  0  0  0
   38.2820   31.7200   41.1890 O   0  0  0  0  0  0  0  0  0  0  0  0
   37.0810   32.9680   38.4790 H   0  0  0  0  0  0  0  0  0  0  0  0
   35.7760   30.7480   39.3210 H   0  0  0  0  0  0  0  0  0  0  0  0
   36.9590   29.7220   41.7840 C   0  0  2  0  0  0  0  0  0  0  0  0
   37.9360   29.2060   42.7560 C   0  0  0  0  0  0  0  0  0  0  0  0
   37.7640   28.4580   41.4710 C   0  0  1  0  0  0  0  0  0  0  0  0
   35.8680   29.5820   41.9120 H   0  0  0  0  0  0  0  0  0  0  0  0
   37.5600   28.7210   43.6850 H   0  0  0  0  0  0  0  0  0  0  0  0
   38.8520   29.8040   42.9190 H   0  0  0  0  0  0  0  0  0  0  0  0
   38.6010   28.5510   40.7600 H   0  0  0  0  0  0  0  0  0  0  0  0
   37.0940   27.1350   41.5030 C   0  0  0  0  0  3  0  0  0  0  0  0
   37.1040   26.4000   40.1970 C   0  0  0  0  0  2  0  0  0  0  0  0
   36.8190   24.9530   40.5920 C   0  0  0  0  0  2  0  0  0  0  0  0
   36.8700   24.8960   42.1010 C   0  0  0  0  0  2  0  0  0  0  0  0
   37.6620   26.1560   42.4720 C   0  0  0  0  0  2  0  0  0  0  0  0
   39.2660   33.6910   40.2440 O   0  0  0  0  0  0  0  0  0  0  0  0
   40.5670   33.4550   39.7380 C   0  0  0  0  0  0  0  0  0  0  0  0
   40.6330   33.1750   38.5150 O   0  0  0  0  0  0  0  0  0  0  0  0
   41.6300   33.5630   40.6700 C   0  0  0  0  0  0  0  0  0  0  0  0
   41.9470   32.4030   41.3210 C   0  0  0  0  0  0  0  0  0  0  0  0
   42.9840   32.4380   42.2530 C   0  0  0  0  0  0  0  0  0  0  0  0
   43.6260   33.6150   42.4660 N   0  0  0  0  0  0  0  0  0  0  0  0
   43.2870   34.7240   41.8110 C   0  0  0  0  0  0  0  0  0  0  0  0
   42.2910   34.6750   40.9210 N   0  0  0  0  0  0  0  0  0  0  0  0
   41.4960   31.4150   41.2210 H   0  0  0  0  0  0  0  0  0  0  0  0
   43.3030   31.5730   42.8120 H   0  0  0  0  0  0  0  0  0  0  0  0
   43.7400   35.7010   41.9160 H   0  0  0  0  0  0  0  0  0  0  0  0
  1 20  1  0  0  0  0
  1  5  1  0  0  0  0
  2  3  1  0  0  0  0
  2  1  2  0  0  0  0
  3  4  2  0  0  0  0
  4  5  1  0  0  0  0
  4  8  1  0  0  0  0
  6  2  1  0  0  0  0
  7  3  1  0  0  0  0
  8 11  1  1  0  0  0
  8  9  1  0  0  0  0
  9 13  1  0  0  0  0
  9 12  1  0  0  0  0
 10 14  1  6  0  0  0
 10 15  1  0  0  0  0
 10  8  1  0  0  0  0
 10  9  1  0  0  0  0
 15 19  1  0  0  0  0
 16 17  1  0  0  0  0
 16 15  1  0  0  0  0
 17 18  1  0  0  0  0
 18 19  1  0  0  0  0
 21 20  1  0  0  0  0
 21 23  1  0  0  0  0
 22 21  2  0  0  0  0
 23 28  2  0  0  0  0
 23 24  1  0  0  0  0
 24 25  2  0  0  0  0
 25 26  1  0  0  0  0
 25 30  1  0  0  0  0
 27 31  1  0  0  0  0
 27 26  2  0  0  0  0
 28 27  1  0  0  0  0
 29 24  1  0  0  0  0
M  END
>  <minimizedAffinity>
-5.46596193

$$$$

 OpenBabel03242518373D

 31 34  0  0  1  0  0  0  0  0999 V2000
   38.6150   32.4000   40.5710 C   0  0  0  0  0  0  0  0  0  0  0  0
   37.5240   32.3440   39.7110 C   0  0  0  0  0  0  0  0  0  0  0  0
   36.7250   31.2630   40.0670 C   0  0  0  0  0  0  0  0  0  0  0  0
   37.3830   30.7140   41.1380 C   0  0  0  0  0  0  0  0  0  0  0  0
   38.4820   31.3850   41.4200 O   0  0  0  0  0  0  0  0  0  0  0  0
   37.3760   33.0620   38.9070 H   0  0  0  0  0  0  0  0  0  0  0  0
   35.8060   30.9610   39.5840 H   0  0  0  0  0  0  0  0  0  0  0  0
   36.9150   29.5320   41.8740 C   0  0  2  0  0  0  0  0  0  0  0  0
   37.7430   28.9570   42.9470 C   0  0  0  0  0  0  0  0  0  0  0  0
   37.7390   28.2650   41.6200 C   0  0  1  0  0  0  0  0  0  0  0  0
   35.8160   29.4080   41.8450 H   0  0  0  0  0  0  0  0  0  0  0  0
   37.2360   28.4430   43.7940 H   0  0  0  0  0  0  0  0  0  0  0  0
   38.6360   29.5300   43.2600 H   0  0  0  0  0  0  0  0  0  0  0  0
   38.6660   28.3710   41.0340 H   0  0  0  0  0  0  0  0  0  0  0  0
   37.0520   26.9560   41.5020 C   0  0  0  0  0  3  0  0  0  0  0  0
   37.0540   26.3720   40.1230 C   0  0  0  0  0  2  0  0  0  0  0  0
   36.7510   24.8940   40.3520 C   0  0  0  0  0  2  0  0  0  0  0  0
   36.7990   24.6670   41.8450 C   0  0  0  0  0  2  0  0  0  0  0  0
   37.6060   25.8670   42.3560 C   0  0  0  0  0  2  0  0  0  0  0  0
   39.6980   33.2950   40.6310 O   0  0  0  0  0  0  0  0  0  0  0  0
   41.0210   32.7950   40.6800 C   0  0  0  0  0  0  0  0  0  0  0  0
   41.2770   32.0220   41.6360 O   0  0  0  0  0  0  0  0  0  0  0  0
   41.8910   33.2270   39.6470 C   0  0  0  0  0  0  0  0  0  0  0  0
   41.3330   33.2620   38.3990 C   0  0  0  0  0  0  0  0  0  0  0  0
   42.1330   33.6770   37.3350 C   0  0  0  0  0  0  0  0  0  0  0  0
   43.4210   34.0250   37.5890 N   0  0  0  0  0  0  0  0  0  0  0  0
   43.9280   33.9770   38.8190 C   0  0  0  0  0  0  0  0  0  0  0  0
   43.1490   33.5770   39.8290 N   0  0  0  0  0  0  0  0  0  0  0  0
   40.3180   33.0060   38.0950 H   0  0  0  0  0  0  0  0  0  0  0  0
   41.7790   33.7370   36.3190 H   0  0  0  0  0  0  0  0  0  0  0  0
   44.9380   34.2340   39.1140 H   0  0  0  0  0  0  0  0  0  0  0  0
  1 20  1  0  0  0  0
  1  5  1  0  0  0  0
  2  3  1  0  0  0  0
  2  1  2  0  0  0  0
  3  4  2  0  0  0  0
  4  5  1  0  0  0  0
  4  8  1  0  0  0  0
  6  2  1  0  0  0  0
  7  3  1  0  0  0  0
  8 11  1  1  0  0  0
  8  9  1  0  0  0  0
  9 13  1  0  0  0  0
  9 12  1  0  0  0  0
 10 14  1  6  0  0  0
 10  8  1  0  0  0  0
 10  9  1  0  0  0  0
 15 10  1  0  0  0  0
 15 19  1  0  0  0  0
 16 17  1  0  0  0  0
 16 15  1  0  0  0  0
 17 18  1  0  0  0  0
 18 19  1  0  0  0  0
 20 21  1  0  0  0  0
 21 22  2  0  0  0  0
 23 28  1  0  0  0  0
 23 21  1  0  0  0  0
 24 23  2  0  0  0  0
 25 26  2  0  0  0  0
 25 24  1  0  0  0  0
 26 27  1  0  0  0  0
 27 31  1  0  0  0  0
 27 28  2  0  0  0  0
 29 24  1  0  0  0  0
 30 25  1  0  0  0  0
M  END
>  <minimizedAffinity>
-5.35428476

$$$$

 OpenBabel03242518373D

 31 34  0  0  1  0  0  0  0  0999 V2000
   39.9720   33.9590   40.2790 C   0  0  0  0  0  0  0  0  0  0  0  0
   38.7330   34.5570   40.0810 C   0  0  0  0  0  0  0  0  0  0  0  0
   37.7620   33.5660   39.9960 C   0  0  0  0  0  0  0  0  0  0  0  0
   38.4740   32.4030   40.1490 C   0  0  0  0  0  0  0  0  0  0  0  0
   39.7600   32.6460   40.3120 O   0  0  0  0  0  0  0  0  0  0  0  0
   38.6100   35.6350   40.0120 H   0  0  0  0  0  0  0  0  0  0  0  0
   36.7030   33.7190   39.8450 H   0  0  0  0  0  0  0  0  0  0  0  0
   37.8740   31.0620   40.1370 C   0  0  2  0  0  0  0  0  0  0  0  0
   36.4340   30.8970   40.3930 C   0  0  0  0  0  0  0  0  0  0  0  0
   37.3840   30.5790   41.5050 C   0  0  1  0  0  0  0  0  0  0  0  0
   38.4570   30.3300   39.5450 H   0  0  0  0  0  0  0  0  0  0  0  0
   35.9020   30.0440   39.9150 H   0  0  0  0  0  0  0  0  0  0  0  0
   35.8210   31.8160   40.4460 H   0  0  0  0  0  0  0  0  0  0  0  0
   37.3930   31.3050   42.3340 H   0  0  0  0  0  0  0  0  0  0  0  0
   37.5750   29.1600   41.8930 C   0  0  0  0  0  3  0  0  0  0  0  0
   38.0550   28.9570   43.2970 C   0  0  0  0  0  2  0  0  0  0  0  0
   37.7110   27.4990   43.5930 C   0  0  0  0  0  2  0  0  0  0  0  0
   36.8730   27.0070   42.4360 C   0  0  0  0  0  2  0  0  0  0  0  0
   36.3570   28.3050   41.8010 C   0  0  0  0  0  2  0  0  0  0  0  0
   41.2540   34.5170   40.4280 O   0  0  0  0  0  0  0  0  0  0  0  0
   42.3730   33.6700   40.6100 C   0  0  0  0  0  0  0  0  0  0  0  0
   42.5650   33.2660   41.7840 O   0  0  0  0  0  0  0  0  0  0  0  0
   43.1370   33.3840   39.4500 C   0  0  0  0  0  0  0  0  0  0  0  0
   44.3360   34.0370   39.3730 C   0  0  0  0  0  0  0  0  0  0  0  0
   45.1380   33.8020   38.2570 C   0  0  0  0  0  0  0  0  0  0  0  0
   44.6940   32.9390   37.3070 N   0  0  0  0  0  0  0  0  0  0  0  0
   43.5190   32.3220   37.4200 C   0  0  0  0  0  0  0  0  0  0  0  0
   42.7600   32.5580   38.4940 N   0  0  0  0  0  0  0  0  0  0  0  0
   44.7790   34.7420   40.0770 H   0  0  0  0  0  0  0  0  0  0  0  0
   46.0980   34.2710   38.1120 H   0  0  0  0  0  0  0  0  0  0  0  0
   43.0850   31.6230   36.7160 H   0  0  0  0  0  0  0  0  0  0  0  0
  1  5  1  0  0  0  0
  1 20  1  0  0  0  0
  2  1  2  0  0  0  0
  3  2  1  0  0  0  0
  3  4  2  0  0  0  0
  4  5  1  0  0  0  0
  6  2  1  0  0  0  0
  7  3  1  0  0  0  0
  8 11  1  6  0  0  0
  8  4  1  0  0  0  0
  8  9  1  0  0  0  0
  8 10  1  0  0  0  0
  9 13  1  0  0  0  0
  9 10  1  0  0  0  0
 10 15  1  0  0  0  0
 10 14  1  1  0  0  0
 12  9  1  0  0  0  0
 15 16  1  0  0  0  0
 16 17  1  0  0  0  0
 18 17  1  0  0  0  0
 19 15  1  0  0  0  0
 19 18  1  0  0  0  0
 20 21  1  0  0  0  0
 21 22  2  0  0  0  0
 23 21  1  0  0  0  0
 24 23  1  0  0  0  0
 24 29  1  0  0  0  0
 25 24  2  0  0  0  0
 26 27  2  0  0  0  0
 26 25  1  0  0  0  0
 27 28  1  0  0  0  0
 28 23  2  0  0  0  0
 30 25  1  0  0  0  0
 31 27  1  0  0  0  0
M  END
>  <minimizedAffinity>
-5.32998276

$$$$

 OpenBabel03242518373D

 31 34  0  0  1  0  0  0  0  0999 V2000
   39.1600   31.2630   41.4290 C   0  0  0  0  0  0  0  0  0  0  0  0
   38.9130   30.2780   42.3800 C   0  0  0  0  0  0  0  0  0  0  0  0
   37.6570   29.7300   42.1450 C   0  0  0  0  0  0  0  0  0  0  0  0
   37.2030   30.4200   41.0490 C   0  0  0  0  0  0  0  0  0  0  0  0
   38.0870   31.3100   40.6430 O   0  0  0  0  0  0  0  0  0  0  0  0
   39.6290   30.0260   43.1580 H   0  0  0  0  0  0  0  0  0  0  0  0
   37.1860   28.9430   42.7170 H   0  0  0  0  0  0  0  0  0  0  0  0
   35.9000   30.1880   40.4130 C   0  0  2  0  0  0  0  0  0  0  0  0
   35.2160   28.8950   40.5810 C   0  0  0  0  0  0  0  0  0  0  0  0
   35.9240   29.1480   39.2880 C   0  0  1  0  0  0  0  0  0  0  0  0
   35.3490   31.1230   40.1950 H   0  0  0  0  0  0  0  0  0  0  0  0
   34.1040   28.8730   40.5610 H   0  0  0  0  0  0  0  0  0  0  0  0
   35.6500   28.1840   41.3100 H   0  0  0  0  0  0  0  0  0  0  0  0
   36.8550   28.5770   39.1440 H   0  0  0  0  0  0  0  0  0  0  0  0
   35.1140   29.3720   38.0650 C   0  0  0  0  0  3  0  0  0  0  0  0
   35.8750   29.2490   36.7810 C   0  0  0  0  0  2  0  0  0  0  0  0
   34.7880   29.0370   35.7310 C   0  0  0  0  0  2  0  0  0  0  0  0
   33.4910   28.8400   36.4820 C   0  0  0  0  0  2  0  0  0  0  0  0
   33.9580   28.4470   37.8900 C   0  0  0  0  0  2  0  0  0  0  0  0
   40.2710   32.1010   41.2350 O   0  0  0  0  0  0  0  0  0  0  0  0
   40.1280   33.3000   40.4970 C   0  0  0  0  0  0  0  0  0  0  0  0
   39.3300   34.1430   40.9780 O   0  0  0  0  0  0  0  0  0  0  0  0
   40.8980   33.4020   39.3120 C   0  0  0  0  0  0  0  0  0  0  0  0
   41.6570   34.5360   39.2120 C   0  0  0  0  0  0  0  0  0  0  0  0
   42.4400   34.7010   38.0700 C   0  0  0  0  0  0  0  0  0  0  0  0
   42.4120   33.7340   37.1180 N   0  0  0  0  0  0  0  0  0  0  0  0
   41.6590   32.6430   37.2520 C   0  0  0  0  0  0  0  0  0  0  0  0
   40.9140   32.4990   38.3520 N   0  0  0  0  0  0  0  0  0  0  0  0
   41.7480   35.3640   39.9160 H   0  0  0  0  0  0  0  0  0  0  0  0
   43.0690   35.5610   37.9060 H   0  0  0  0  0  0  0  0  0  0  0  0
   41.5740   31.8250   36.5480 H   0  0  0  0  0  0  0  0  0  0  0  0
  1  2  2  0  0  0  0
  2  6  1  0  0  0  0
  3  2  1  0  0  0  0
  3  7  1  0  0  0  0
  4  3  2  0  0  0  0
  5  4  1  0  0  0  0
  5  1  1  0  0  0  0
  8 11  1  6  0  0  0
  8  9  1  0  0  0  0
  8  4  1  0  0  0  0
  9 13  1  0  0  0  0
 10 14  1  6  0  0  0
 10  8  1  0  0  0  0
 10  9  1  0  0  0  0
 12  9  1  0  0  0  0
 15 10  1  0  0  0  0
 16 15  1  0  0  0  0
 17 18  1  0  0  0  0
 17 16  1  0  0  0  0
 18 19  1  0  0  0  0
 19 15  1  0  0  0  0
 20  1  1  0  0  0  0
 21 22  2  0  0  0  0
 21 20  1  0  0  0  0
 23 21  1  0  0  0  0
 24 23  1  0  0  0  0
 24 29  1  0  0  0  0
 25 24  2  0  0  0  0
 26 27  2  0  0  0  0
 26 25  1  0  0  0  0
 27 28  1  0  0  0  0
 28 23  2  0  0  0  0
 30 25  1  0  0  0  0
 31 27  1  0  0  0  0
M  END
>  <minimizedAffinity>
-5.23292542

$$$$
