
 OpenBabel03252507583D

 23 25  0  0  1  0  0  0  0  0999 V2000
   38.1000   28.3830   42.4400 C   0  0  1  0  0  0  0  0  0  0  0  0
   37.3360   28.0380   43.6800 C   0  0  0  0  0  0  0  0  0  0  0  0
   37.0070   27.3620   42.3930 C   0  0  2  0  0  0  0  0  0  0  0  0
   39.1620   28.0770   42.3990 H   0  0  0  0  0  0  0  0  0  0  0  0
   37.9100   27.4880   44.4490 H   0  0  0  0  0  0  0  0  0  0  0  0
   36.7430   28.8660   44.0840 H   0  0  0  0  0  0  0  0  0  0  0  0
   36.0130   27.6520   41.9590 H   0  0  0  0  0  0  0  0  0  0  0  0
   38.3610   31.7540   41.0110 C   0  0  0  0  0  0  0  0  0  0  0  0
   37.1230   31.9190   40.3510 C   0  0  0  0  0  0  0  0  0  0  0  0
   36.1920   30.8510   40.3970 C   0  0  0  0  0  0  0  0  0  0  0  0
   36.5590   29.7330   41.0800 N   0  0  0  0  0  0  0  0  0  0  0  0
   37.7750   29.6440   41.6930 C   0  0  0  0  0  0  0  0  0  0  0  0
   38.6600   30.6280   41.6630 N   0  0  0  0  0  0  0  0  0  0  0  0
   36.8330   32.8100   39.8090 H   0  0  0  0  0  0  0  0  0  0  0  0
   35.2280   30.9190   39.9120 H   0  0  0  0  0  0  0  0  0  0  0  0
   39.2100   32.8900   40.9030 C   0  0  0  0  0  0  0  0  0  0  0  0
   38.8220   34.0990   40.9330 O   0  0  0  0  0  0  0  0  0  0  0  0
   40.3030   32.9300   40.7810 H   0  0  0  0  0  0  0  0  0  0  0  0
   37.2900   25.9040   42.3390 C   0  0  0  0  0  3  0  0  0  0  0  0
   38.7470   25.5610   42.5330 C   0  0  0  0  0  2  0  0  0  0  0  0
   38.7530   24.0760   42.1620 C   0  0  0  0  0  2  0  0  0  0  0  0
   37.4770   23.8040   41.4090 C   0  0  0  0  0  2  0  0  0  0  0  0
   36.9740   25.2120   41.0570 C   0  0  0  0  0  2  0  0  0  0  0  0
  1  4  1  6  0  0  0
  1  2  1  0  0  0  0
  2  6  1  0  0  0  0
  2  5  1  0  0  0  0
  3  7  1  6  0  0  0
  3  1  1  0  0  0  0
  3  2  1  0  0  0  0
  8 13  1  0  0  0  0
  9 10  1  0  0  0  0
  9  8  2  0  0  0  0
 10 11  2  0  0  0  0
 11 12  1  0  0  0  0
 12  1  1  0  0  0  0
 13 12  2  0  0  0  0
 14  9  1  0  0  0  0
 15 10  1  0  0  0  0
 16 17  2  0  0  0  0
 16  8  1  0  0  0  0
 18 16  1  0  0  0  0
 19  3  1  0  0  0  0
 19 20  1  0  0  0  0
 21 20  1  0  0  0  0
 22 21  1  0  0  0  0
 23 22  1  0  0  0  0
 23 19  1  0  0  0  0
M  END
>  <minimizedAffinity>
-4.97216082

$$$$

 OpenBabel03252507583D

 23 25  0  0  1  0  0  0  0  0999 V2000
   38.3100   28.1630   42.8230 C   0  0  1  0  0  0  0  0  0  0  0  0
   37.1080   27.9100   43.6790 C   0  0  0  0  0  0  0  0  0  0  0  0
   37.1230   27.4430   42.2650 C   0  0  2  0  0  0  0  0  0  0  0  0
   39.2360   27.6150   43.0770 H   0  0  0  0  0  0  0  0  0  0  0  0
   37.2570   27.1750   44.4940 H   0  0  0  0  0  0  0  0  0  0  0  0
   36.5880   28.8200   44.0000 H   0  0  0  0  0  0  0  0  0  0  0  0
   36.4220   27.9990   41.5870 H   0  0  0  0  0  0  0  0  0  0  0  0
   37.8450   31.1980   40.8110 C   0  0  0  0  0  0  0  0  0  0  0  0
   38.9720   31.9810   41.1470 C   0  0  0  0  0  0  0  0  0  0  0  0
   39.8980   31.4550   42.0830 C   0  0  0  0  0  0  0  0  0  0  0  0
   39.6330   30.2220   42.5950 N   0  0  0  0  0  0  0  0  0  0  0  0
   38.5220   29.5230   42.2250 C   0  0  0  0  0  0  0  0  0  0  0  0
   37.6440   29.9950   41.3520 N   0  0  0  0  0  0  0  0  0  0  0  0
   39.1800   32.9610   40.7370 H   0  0  0  0  0  0  0  0  0  0  0  0
   40.7790   32.0070   42.3790 H   0  0  0  0  0  0  0  0  0  0  0  0
   36.9910   31.8220   39.8600 C   0  0  0  0  0  0  0  0  0  0  0  0
   37.1330   33.0030   39.4130 O   0  0  0  0  0  0  0  0  0  0  0  0
   36.0970   31.4190   39.3600 H   0  0  0  0  0  0  0  0  0  0  0  0
   37.1120   25.9700   42.0700 C   0  0  0  0  0  3  0  0  0  0  0  0
   38.4380   25.3100   42.3620 C   0  0  0  0  0  2  0  0  0  0  0  0
   38.1900   23.8980   41.8250 C   0  0  0  0  0  2  0  0  0  0  0  0
   36.9820   23.9730   40.9270 C   0  0  0  0  0  2  0  0  0  0  0  0
   36.8170   25.4820   40.6920 C   0  0  0  0  0  2  0  0  0  0  0  0
  1  4  1  1  0  0  0
  1  2  1  0  0  0  0
  2  6  1  0  0  0  0
  2  5  1  0  0  0  0
  3  7  1  6  0  0  0
  3  1  1  0  0  0  0
  3  2  1  0  0  0  0
  8  9  2  0  0  0  0
  8 13  1  0  0  0  0
  9 10  1  0  0  0  0
 10 15  1  0  0  0  0
 10 11  2  0  0  0  0
 12 11  1  0  0  0  0
 12  1  1  0  0  0  0
 13 12  2  0  0  0  0
 14  9  1  0  0  0  0
 16  8  1  0  0  0  0
 17 16  2  0  0  0  0
 18 16  1  0  0  0  0
 19  3  1  0  0  0  0
 19 20  1  0  0  0  0
 21 20  1  0  0  0  0
 22 21  1  0  0  0  0
 23 22  1  0  0  0  0
 23 19  1  0  0  0  0
M  END
>  <minimizedAffinity>
-4.73387814

$$$$

 OpenBabel03252507583D

 23 25  0  0  1  0  0  0  0  0999 V2000
   36.1830   28.4050   39.6460 C   0  0  1  0  0  0  0  0  0  0  0  0
   34.8090   28.9880   39.7610 C   0  0  0  0  0  0  0  0  0  0  0  0
   35.9640   29.6740   40.4070 C   0  0  2  0  0  0  0  0  0  0  0  0
   36.6560   28.4190   38.6450 H   0  0  0  0  0  0  0  0  0  0  0  0
   34.3920   29.3990   38.8220 H   0  0  0  0  0  0  0  0  0  0  0  0
   34.1030   28.3610   40.3170 H   0  0  0  0  0  0  0  0  0  0  0  0
   35.9540   29.6370   41.5290 H   0  0  0  0  0  0  0  0  0  0  0  0
   36.8840   24.9870   40.7890 C   0  0  0  0  0  0  0  0  0  0  0  0
   37.2600   25.1730   42.1390 C   0  0  0  0  0  0  0  0  0  0  0  0
   37.2750   26.4930   42.6550 C   0  0  0  0  0  0  0  0  0  0  0  0
   36.9240   27.4970   41.8070 N   0  0  0  0  0  0  0  0  0  0  0  0
   36.5730   27.2440   40.5130 C   0  0  0  0  0  0  0  0  0  0  0  0
   36.5520   26.0190   40.0100 N   0  0  0  0  0  0  0  0  0  0  0  0
   37.5390   24.3710   42.8110 H   0  0  0  0  0  0  0  0  0  0  0  0
   37.5540   26.6970   43.6800 H   0  0  0  0  0  0  0  0  0  0  0  0
   36.8980   23.6240   40.3840 C   0  0  0  0  0  0  0  0  0  0  0  0
   37.7960   22.7790   40.6890 O   0  0  0  0  0  0  0  0  0  0  0  0
   36.1710   23.0780   39.7650 H   0  0  0  0  0  0  0  0  0  0  0  0
   36.3210   31.0030   39.8480 C   0  0  0  0  0  3  0  0  0  0  0  0
   36.9690   30.9330   38.4860 C   0  0  0  0  0  2  0  0  0  0  0  0
   37.4490   32.3760   38.3130 C   0  0  0  0  0  2  0  0  0  0  0  0
   37.4340   33.0130   39.6790 C   0  0  0  0  0  2  0  0  0  0  0  0
   37.3080   31.8080   40.6230 C   0  0  0  0  0  2  0  0  0  0  0  0
  1  4  1  6  0  0  0
  1  2  1  0  0  0  0
  1  3  1  0  0  0  0
  1 12  1  0  0  0  0
  2  6  1  0  0  0  0
  2  3  1  0  0  0  0
  3  7  1  1  0  0  0
  5  2  1  0  0  0  0
  8  9  1  0  0  0  0
  9 10  2  0  0  0  0
  9 14  1  0  0  0  0
 10 15  1  0  0  0  0
 11 10  1  0  0  0  0
 12 11  2  0  0  0  0
 13 12  1  0  0  0  0
 13  8  2  0  0  0  0
 16 17  2  0  0  0  0
 16  8  1  0  0  0  0
 18 16  1  0  0  0  0
 19  3  1  0  0  0  0
 19 23  1  0  0  0  0
 20 19  1  0  0  0  0
 21 20  1  0  0  0  0
 21 22  1  0  0  0  0
 22 23  1  0  0  0  0
M  END
>  <minimizedAffinity>
-4.61369896

$$$$

 OpenBabel03252507583D

 23 25  0  0  1  0  0  0  0  0999 V2000
   35.8500   29.6300   40.4770 C   0  0  1  0  0  0  0  0  0  0  0  0
   36.5560   30.6890   39.6890 C   0  0  0  0  0  0  0  0  0  0  0  0
   36.2240   29.3840   39.0500 C   0  0  2  0  0  0  0  0  0  0  0  0
   34.7990   29.8270   40.7610 H   0  0  0  0  0  0  0  0  0  0  0  0
   35.9470   31.5810   39.4470 H   0  0  0  0  0  0  0  0  0  0  0  0
   37.5580   30.9310   40.0610 H   0  0  0  0  0  0  0  0  0  0  0  0
   37.1160   28.7390   38.8270 H   0  0  0  0  0  0  0  0  0  0  0  0
   37.3310   26.7320   42.1750 C   0  0  0  0  0  0  0  0  0  0  0  0
   38.0140   27.3140   43.2670 C   0  0  0  0  0  0  0  0  0  0  0  0
   37.9640   28.7230   43.4130 C   0  0  0  0  0  0  0  0  0  0  0  0
   37.2570   29.4220   42.4830 N   0  0  0  0  0  0  0  0  0  0  0  0
   36.6230   28.7910   41.4530 C   0  0  0  0  0  0  0  0  0  0  0  0
   36.6550   27.4760   41.2970 N   0  0  0  0  0  0  0  0  0  0  0  0
   38.5750   26.7560   44.0050 H   0  0  0  0  0  0  0  0  0  0  0  0
   38.4660   29.2260   44.2280 H   0  0  0  0  0  0  0  0  0  0  0  0
   37.4430   25.3150   42.1350 C   0  0  0  0  0  0  0  0  0  0  0  0
   38.4460   24.6480   42.5390 O   0  0  0  0  0  0  0  0  0  0  0  0
   36.7210   24.5720   41.7650 H   0  0  0  0  0  0  0  0  0  0  0  0
   35.2260   29.4390   37.9500 C   0  0  0  0  0  3  0  0  0  0  0  0
   33.8890   28.8400   38.3160 C   0  0  0  0  0  2  0  0  0  0  0  0
   33.2010   28.7980   36.9500 C   0  0  0  0  0  2  0  0  0  0  0  0
   34.2790   28.9510   35.9080 C   0  0  0  0  0  2  0  0  0  0  0  0
   35.5690   28.6990   36.7020 C   0  0  0  0  0  2  0  0  0  0  0  0
  1  4  1  1  0  0  0
  1 12  1  0  0  0  0
  2  6  1  0  0  0  0
  2  1  1  0  0  0  0
  3  7  1  6  0  0  0
  3  2  1  0  0  0  0
  3  1  1  0  0  0  0
  5  2  1  0  0  0  0
  8  9  1  0  0  0  0
  9 10  2  0  0  0  0
  9 14  1  0  0  0  0
 10 15  1  0  0  0  0
 11 10  1  0  0  0  0
 12 11  2  0  0  0  0
 13 12  1  0  0  0  0
 13  8  2  0  0  0  0
 16  8  1  0  0  0  0
 16 17  2  0  0  0  0
 18 16  1  0  0  0  0
 19 20  1  0  0  0  0
 19  3  1  0  0  0  0
 21 20  1  0  0  0  0
 22 23  1  0  0  0  0
 22 21  1  0  0  0  0
 23 19  1  0  0  0  0
M  END
>  <minimizedAffinity>
-4.5168767

$$$$

 OpenBabel03252507583D

 23 25  0  0  1  0  0  0  0  0999 V2000
   38.3730   29.5450   41.5090 C   0  0  1  0  0  0  0  0  0  0  0  0
   37.8970   29.3060   42.9080 C   0  0  0  0  0  0  0  0  0  0  0  0
   37.0230   28.9490   41.7560 C   0  0  2  0  0  0  0  0  0  0  0  0
   39.2100   28.9190   41.1460 H   0  0  0  0  0  0  0  0  0  0  0  0
   38.4280   28.5020   43.4550 H   0  0  0  0  0  0  0  0  0  0  0  0
   37.7620   30.2200   43.4970 H   0  0  0  0  0  0  0  0  0  0  0  0
   36.1150   29.6000   41.6460 H   0  0  0  0  0  0  0  0  0  0  0  0
   39.3440   32.9340   40.4880 C   0  0  0  0  0  0  0  0  0  0  0  0
   38.1630   33.4430   39.9010 C   0  0  0  0  0  0  0  0  0  0  0  0
   37.0230   32.6020   39.8550 C   0  0  0  0  0  0  0  0  0  0  0  0
   37.1470   31.3540   40.3840 N   0  0  0  0  0  0  0  0  0  0  0  0
   38.3210   30.9290   40.9330 C   0  0  0  0  0  0  0  0  0  0  0  0
   39.3990   31.6980   40.9870 N   0  0  0  0  0  0  0  0  0  0  0  0
   38.0680   34.4370   39.4830 H   0  0  0  0  0  0  0  0  0  0  0  0
   36.0910   32.9360   39.4200 H   0  0  0  0  0  0  0  0  0  0  0  0
   40.4190   33.8660   40.4850 C   0  0  0  0  0  0  0  0  0  0  0  0
   41.4100   33.8380   39.6910 O   0  0  0  0  0  0  0  0  0  0  0  0
   40.5820   34.7380   41.1360 H   0  0  0  0  0  0  0  0  0  0  0  0
   36.7540   27.4990   41.5740 C   0  0  0  0  0  3  0  0  0  0  0  0
   37.1570   26.6540   42.7580 C   0  0  0  0  0  2  0  0  0  0  0  0
   37.0160   25.2450   42.1760 C   0  0  0  0  0  2  0  0  0  0  0  0
   36.9740   25.3880   40.6770 C   0  0  0  0  0  2  0  0  0  0  0  0
   37.4660   26.8250   40.4510 C   0  0  0  0  0  2  0  0  0  0  0  0
  1  4  1  6  0  0  0
  1  3  1  0  0  0  0
  1  2  1  0  0  0  0
  2  5  1  0  0  0  0
  2  6  1  0  0  0  0
  3  7  1  6  0  0  0
  3  2  1  0  0  0  0
  8 13  1  0  0  0  0
  9  8  2  0  0  0  0
 10  9  1  0  0  0  0
 10 11  2  0  0  0  0
 11 12  1  0  0  0  0
 12 13  2  0  0  0  0
 12  1  1  0  0  0  0
 14  9  1  0  0  0  0
 15 10  1  0  0  0  0
 16  8  1  0  0  0  0
 16 18  1  0  0  0  0
 17 16  2  0  0  0  0
 19  3  1  0  0  0  0
 19 20  1  0  0  0  0
 21 20  1  0  0  0  0
 22 21  1  0  0  0  0
 23 22  1  0  0  0  0
 23 19  1  0  0  0  0
M  END
>  <minimizedAffinity>
-4.4615407

$$$$

 OpenBabel03252507583D

 23 25  0  0  1  0  0  0  0  0999 V2000
   36.8630   30.8160   39.4230 C   0  0  1  0  0  0  0  0  0  0  0  0
   37.5620   30.7010   38.1050 C   0  0  0  0  0  0  0  0  0  0  0  0
   36.5890   29.6540   38.5220 C   0  0  2  0  0  0  0  0  0  0  0  0
   36.1240   31.6330   39.5340 H   0  0  0  0  0  0  0  0  0  0  0  0
   37.2610   31.4480   37.3450 H   0  0  0  0  0  0  0  0  0  0  0  0
   38.6470   30.5710   38.1840 H   0  0  0  0  0  0  0  0  0  0  0  0
   37.0540   28.6600   38.7630 H   0  0  0  0  0  0  0  0  0  0  0  0
   37.7360   29.1610   42.5820 C   0  0  0  0  0  0  0  0  0  0  0  0
   38.9230   29.8220   42.9720 C   0  0  0  0  0  0  0  0  0  0  0  0
   39.4270   30.8450   42.1310 C   0  0  0  0  0  0  0  0  0  0  0  0
   38.7260   31.1220   40.9970 N   0  0  0  0  0  0  0  0  0  0  0  0
   37.5870   30.4410   40.6830 C   0  0  0  0  0  0  0  0  0  0  0  0
   37.0970   29.4820   41.4540 N   0  0  0  0  0  0  0  0  0  0  0  0
   39.4770   29.6000   43.8750 H   0  0  0  0  0  0  0  0  0  0  0  0
   40.3300   31.3870   42.3760 H   0  0  0  0  0  0  0  0  0  0  0  0
   37.3210   28.1610   43.5030 C   0  0  0  0  0  0  0  0  0  0  0  0
   36.2910   27.4290   43.3750 O   0  0  0  0  0  0  0  0  0  0  0  0
   37.7920   27.8510   44.4490 H   0  0  0  0  0  0  0  0  0  0  0  0
   35.3500   29.5600   37.7070 C   0  0  0  0  0  3  0  0  0  0  0  0
   34.2350   28.8000   38.3840 C   0  0  0  0  0  2  0  0  0  0  0  0
   33.2400   28.6470   37.2310 C   0  0  0  0  0  2  0  0  0  0  0  0
   33.9950   28.9220   35.9560 C   0  0  0  0  0  2  0  0  0  0  0  0
   35.4640   28.8520   36.4010 C   0  0  0  0  0  2  0  0  0  0  0  0
  1  4  1  1  0  0  0
  1 12  1  0  0  0  0
  2  6  1  0  0  0  0
  2  3  1  0  0  0  0
  2  1  1  0  0  0  0
  3  7  1  1  0  0  0
  3  1  1  0  0  0  0
  5  2  1  0  0  0  0
  8  9  1  0  0  0  0
  8 16  1  0  0  0  0
  9 14  1  0  0  0  0
 10 15  1  0  0  0  0
 10  9  2  0  0  0  0
 11 10  1  0  0  0  0
 12 11  2  0  0  0  0
 12 13  1  0  0  0  0
 13  8  2  0  0  0  0
 16 18  1  0  0  0  0
 17 16  2  0  0  0  0
 19 20  1  0  0  0  0
 19  3  1  0  0  0  0
 21 20  1  0  0  0  0
 22 23  1  0  0  0  0
 22 21  1  0  0  0  0
 23 19  1  0  0  0  0
M  END
>  <minimizedAffinity>
-4.375772

$$$$

 OpenBabel03252507583D

 23 25  0  0  1  0  0  0  0  0999 V2000
   38.4230   29.0970   42.4070 C   0  0  1  0  0  0  0  0  0  0  0  0
   37.5800   28.8240   43.6130 C   0  0  0  0  0  0  0  0  0  0  0  0
   37.7510   27.7710   42.5720 C   0  0  2  0  0  0  0  0  0  0  0  0
   39.5130   29.2030   42.5660 H   0  0  0  0  0  0  0  0  0  0  0  0
   38.1350   28.7380   44.5660 H   0  0  0  0  0  0  0  0  0  0  0  0
   36.6840   29.4510   43.6830 H   0  0  0  0  0  0  0  0  0  0  0  0
   36.8240   27.5560   41.9760 H   0  0  0  0  0  0  0  0  0  0  0  0
   36.6260   30.0620   39.3540 C   0  0  0  0  0  0  0  0  0  0  0  0
   36.9040   31.4430   39.2430 C   0  0  0  0  0  0  0  0  0  0  0  0
   37.7170   32.0450   40.2360 C   0  0  0  0  0  0  0  0  0  0  0  0
   38.1760   31.2440   41.2350 N   0  0  0  0  0  0  0  0  0  0  0  0
   37.8660   29.9170   41.2800 C   0  0  0  0  0  0  0  0  0  0  0  0
   37.1080   29.3330   40.3640 N   0  0  0  0  0  0  0  0  0  0  0  0
   36.5380   32.0780   38.4450 H   0  0  0  0  0  0  0  0  0  0  0  0
   37.9640   33.0970   40.2030 H   0  0  0  0  0  0  0  0  0  0  0  0
   35.8100   29.5660   38.3010 C   0  0  0  0  0  0  0  0  0  0  0  0
   35.4390   28.3580   38.1680 O   0  0  0  0  0  0  0  0  0  0  0  0
   35.3710   30.1090   37.4500 H   0  0  0  0  0  0  0  0  0  0  0  0
   38.4930   26.5560   42.9970 C   0  0  0  0  0  3  0  0  0  0  0  0
   39.8430   26.8510   43.6030 C   0  0  0  0  0  2  0  0  0  0  0  0
   40.4470   25.4470   43.6780 C   0  0  0  0  0  2  0  0  0  0  0  0
   39.6320   24.5670   42.7670 C   0  0  0  0  0  2  0  0  0  0  0  0
   38.8370   25.5780   41.9270 C   0  0  0  0  0  2  0  0  0  0  0  0
  1  4  1  1  0  0  0
  1  3  1  0  0  0  0
  1  2  1  0  0  0  0
  2  6  1  0  0  0  0
  2  5  1  0  0  0  0
  3  7  1  6  0  0  0
  3 19  1  0  0  0  0
  3  2  1  0  0  0  0
  8 13  1  0  0  0  0
  9  8  2  0  0  0  0
  9 10  1  0  0  0  0
 10 11  2  0  0  0  0
 11 12  1  0  0  0  0
 12  1  1  0  0  0  0
 13 12  2  0  0  0  0
 14  9  1  0  0  0  0
 15 10  1  0  0  0  0
 16  8  1  0  0  0  0
 17 16  2  0  0  0  0
 18 16  1  0  0  0  0
 19 20  1  0  0  0  0
 20 21  1  0  0  0  0
 22 21  1  0  0  0  0
 23 22  1  0  0  0  0
 23 19  1  0  0  0  0
M  END
>  <minimizedAffinity>
-4.31886911

$$$$

 OpenBabel03252507583D

 23 25  0  0  1  0  0  0  0  0999 V2000
   37.5830   30.7360   41.1790 C   0  0  1  0  0  0  0  0  0  0  0  0
   37.0210   29.8300   40.1280 C   0  0  0  0  0  0  0  0  0  0  0  0
   38.2560   29.4380   40.8640 C   0  0  2  0  0  0  0  0  0  0  0  0
   36.9950   30.8580   42.1080 H   0  0  0  0  0  0  0  0  0  0  0  0
   36.0600   29.3470   40.3880 H   0  0  0  0  0  0  0  0  0  0  0  0
   37.0400   30.2520   39.1170 H   0  0  0  0  0  0  0  0  0  0  0  0
   39.1890   29.4490   40.2390 H   0  0  0  0  0  0  0  0  0  0  0  0
   40.4050   32.9960   40.5450 C   0  0  0  0  0  0  0  0  0  0  0  0
   39.7780   34.1610   40.0490 C   0  0  0  0  0  0  0  0  0  0  0  0
   38.3650   34.1610   39.9290 C   0  0  0  0  0  0  0  0  0  0  0  0
   37.7080   33.0300   40.3030 N   0  0  0  0  0  0  0  0  0  0  0  0
   38.3810   31.9400   40.7730 C   0  0  0  0  0  0  0  0  0  0  0  0
   39.7000   31.9170   40.8930 N   0  0  0  0  0  0  0  0  0  0  0  0
   40.3030   35.0600   39.7540 H   0  0  0  0  0  0  0  0  0  0  0  0
   37.8290   35.0230   39.5570 H   0  0  0  0  0  0  0  0  0  0  0  0
   41.8200   33.1130   40.6290 C   0  0  0  0  0  0  0  0  0  0  0  0
   42.5140   34.0200   40.0730 O   0  0  0  0  0  0  0  0  0  0  0  0
   42.5380   32.4730   41.1640 H   0  0  0  0  0  0  0  0  0  0  0  0
   38.1330   28.2490   41.7460 C   0  0  0  0  0  3  0  0  0  0  0  0
   36.7060   27.8930   42.0890 C   0  0  0  0  0  2  0  0  0  0  0  0
   36.9180   26.8450   43.1840 C   0  0  0  0  0  2  0  0  0  0  0  0
   38.3390   26.9900   43.6650 C   0  0  0  0  0  2  0  0  0  0  0  0
   38.7620   28.3510   43.0940 C   0  0  0  0  0  2  0  0  0  0  0  0
  1  4  1  1  0  0  0
  2  5  1  0  0  0  0
  2  3  1  0  0  0  0
  2  1  1  0  0  0  0
  3  7  1  6  0  0  0
  3  1  1  0  0  0  0
  3 19  1  0  0  0  0
  6  2  1  0  0  0  0
  8 16  1  0  0  0  0
  8 13  1  0  0  0  0
  9  8  2  0  0  0  0
 10  9  1  0  0  0  0
 10 11  2  0  0  0  0
 11 12  1  0  0  0  0
 12 13  2  0  0  0  0
 12  1  1  0  0  0  0
 14  9  1  0  0  0  0
 15 10  1  0  0  0  0
 16 18  1  0  0  0  0
 17 16  2  0  0  0  0
 19 20  1  0  0  0  0
 19 23  1  0  0  0  0
 20 21  1  0  0  0  0
 21 22  1  0  0  0  0
 23 22  1  0  0  0  0
M  END
>  <minimizedAffinity>
-4.26098776

$$$$

 OpenBabel03252507583D

 23 25  0  0  1  0  0  0  0  0999 V2000
   36.5910   28.2250   39.6930 C   0  0  1  0  0  0  0  0  0  0  0  0
   35.1730   28.6890   39.8140 C   0  0  0  0  0  0  0  0  0  0  0  0
   36.2650   29.4570   40.4770 C   0  0  2  0  0  0  0  0  0  0  0  0
   37.0640   28.2990   38.6950 H   0  0  0  0  0  0  0  0  0  0  0  0
   34.7250   29.0810   38.8820 H   0  0  0  0  0  0  0  0  0  0  0  0
   34.5210   27.9950   40.3560 H   0  0  0  0  0  0  0  0  0  0  0  0
   36.2560   29.3990   41.5990 H   0  0  0  0  0  0  0  0  0  0  0  0
   38.4060   26.2970   42.2360 C   0  0  0  0  0  0  0  0  0  0  0  0
   37.9410   24.9780   42.0290 C   0  0  0  0  0  0  0  0  0  0  0  0
   36.9890   24.7570   41.0030 C   0  0  0  0  0  0  0  0  0  0  0  0
   36.5850   25.8390   40.2840 N   0  0  0  0  0  0  0  0  0  0  0  0
   37.0750   27.0860   40.5410 C   0  0  0  0  0  0  0  0  0  0  0  0
   37.9660   27.3160   41.4940 N   0  0  0  0  0  0  0  0  0  0  0  0
   38.2660   24.1190   42.6020 H   0  0  0  0  0  0  0  0  0  0  0  0
   36.5970   23.7700   40.7970 H   0  0  0  0  0  0  0  0  0  0  0  0
   39.3620   26.3970   43.2830 C   0  0  0  0  0  0  0  0  0  0  0  0
   40.1170   25.4550   43.6780 O   0  0  0  0  0  0  0  0  0  0  0  0
   39.6130   27.2640   43.9120 H   0  0  0  0  0  0  0  0  0  0  0  0
   36.5110   30.8220   39.9440 C   0  0  0  0  0  3  0  0  0  0  0  0
   37.1070   30.8330   38.5570 C   0  0  0  0  0  2  0  0  0  0  0  0
   37.4830   32.3090   38.4080 C   0  0  0  0  0  2  0  0  0  0  0  0
   37.4810   32.9060   39.7920 C   0  0  0  0  0  2  0  0  0  0  0  0
   37.4720   31.6710   40.7040 C   0  0  0  0  0  2  0  0  0  0  0  0
  1  4  1  6  0  0  0
  1  2  1  0  0  0  0
  1  3  1  0  0  0  0
  1 12  1  0  0  0  0
  2  6  1  0  0  0  0
  2  3  1  0  0  0  0
  3  7  1  1  0  0  0
  5  2  1  0  0  0  0
  8 16  1  0  0  0  0
  9  8  1  0  0  0  0
  9 14  1  0  0  0  0
 10  9  2  0  0  0  0
 11 12  2  0  0  0  0
 11 10  1  0  0  0  0
 12 13  1  0  0  0  0
 13  8  2  0  0  0  0
 15 10  1  0  0  0  0
 16 17  2  0  0  0  0
 16 18  1  0  0  0  0
 19  3  1  0  0  0  0
 19 23  1  0  0  0  0
 20 19  1  0  0  0  0
 21 20  1  0  0  0  0
 21 22  1  0  0  0  0
 22 23  1  0  0  0  0
M  END
>  <minimizedAffinity>
-4.25555372

$$$$
