
     RDKit          3D

 24 25  0  0  0  0  0  0  0  0999 V2000
   45.0032   35.4828   44.1882 C   0  0  0  0  0  0  0  0  0  0  0  0
   45.9913   34.9240   43.3300 C   0  0  0  0  0  0  0  0  0  0  0  0
   46.7082   33.8355   43.8433 C   0  0  0  0  0  0  0  0  0  0  0  0
   46.4403   33.3815   45.0829 N   0  0  0  0  0  0  0  0  0  0  0  0
   45.4913   33.9468   45.8596 C   0  0  0  0  0  0  0  0  0  0  0  0
   44.7783   34.9853   45.4226 N   0  0  0  0  0  0  0  0  0  0  0  0
   44.2853   36.5470   43.7173 O   0  0  0  0  0  0  0  0  0  0  0  0
   47.4429   33.4201   43.2049 H   0  0  0  0  0  0  0  0  0  0  0  0
   45.2589   33.5981   46.8602 H   0  0  0  0  0  0  0  0  0  0  0  0
   44.6988   37.4883   43.7473 H   0  0  0  0  0  0  0  0  0  0  0  0
   46.1764   35.5301   41.9869 C   0  0  0  0  0  0  0  0  0  0  0  0
   47.2638   34.8027   41.2297 C   0  0  0  0  0  0  0  0  0  0  0  0
   48.4795   35.6967   41.2645 C   0  0  0  0  0  0  0  0  0  0  0  0
   48.0302   37.0672   41.7084 C   0  0  0  0  0  0  0  0  0  0  0  0
   46.5839   36.9570   42.1295 C   0  0  0  0  0  0  0  0  0  0  0  0
   45.2066   35.4185   41.4401 H   0  0  0  0  0  0  0  0  0  0  0  0
   46.9764   34.5457   40.1826 H   0  0  0  0  0  0  0  0  0  0  0  0
   47.5161   33.8549   41.7410 H   0  0  0  0  0  0  0  0  0  0  0  0
   48.9966   35.6994   40.2773 H   0  0  0  0  0  0  0  0  0  0  0  0
   49.2337   35.3041   41.9990 H   0  0  0  0  0  0  0  0  0  0  0  0
   48.6342   37.4471   42.5581 H   0  0  0  0  0  0  0  0  0  0  0  0
   48.0997   37.8077   40.8590 H   0  0  0  0  0  0  0  0  0  0  0  0
   46.4146   37.3842   43.1380 H   0  0  0  0  0  0  0  0  0  0  0  0
   45.9222   37.5567   41.4383 H   0  0  0  0  0  0  0  0  0  0  0  0
  1  6  2  0
  2  3  2  0
  2  1  1  0
  3  4  1  0
  4  5  2  0
  6  5  1  0
  7  1  1  0
  3  8  1  0
  5  9  1  0
  7 10  1  0
 11 12  1  0
 12 13  1  0
 13 14  1  0
 14 15  1  0
 15 11  1  0
 11 16  1  0
 12 17  1  0
 12 18  1  0
 13 19  1  0
 13 20  1  0
 14 21  1  0
 14 22  1  0
 15 23  1  0
 15 24  1  0
  2 11  1  0
M  ISO  3   8  14   9  14  10   3
M  END
>  <DihAtoms>  (1) 
2,1,10,11

>  <DihDeg>  (1) 
89.99152022864307

$$$$
