
     RDKit          3D

 24 25  0  0  0  0  0  0  0  0999 V2000
   45.0032   35.4828   44.1882 C   0  0  0  0  0  0  0  0  0  0  0  0
   45.9913   34.9240   43.3300 C   0  0  0  0  0  0  0  0  0  0  0  0
   46.7082   33.8355   43.8433 C   0  0  0  0  0  0  0  0  0  0  0  0
   46.4403   33.3815   45.0829 N   0  0  0  0  0  0  0  0  0  0  0  0
   45.4913   33.9468   45.8596 C   0  0  0  0  0  0  0  0  0  0  0  0
   44.7783   34.9853   45.4226 N   0  0  0  0  0  0  0  0  0  0  0  0
   44.2853   36.5470   43.7173 O   0  0  0  0  0  0  0  0  0  0  0  0
   47.4429   33.4201   43.2049 H   0  0  0  0  0  0  0  0  0  0  0  0
   45.2589   33.5981   46.8602 H   0  0  0  0  0  0  0  0  0  0  0  0
   44.6988   37.4883   43.7473 H   0  0  0  0  0  0  0  0  0  0  0  0
   46.1764   35.5301   41.9869 C   0  0  0  0  0  0  0  0  0  0  0  0
   46.9787   34.6047   41.1011 C   0  0  0  0  0  0  0  0  0  0  0  0
   48.3680   35.1892   41.0201 C   0  0  0  0  0  0  0  0  0  0  0  0
   48.3021   36.6053   41.5374 C   0  0  0  0  0  0  0  0  0  0  0  0
   46.9212   36.8154   42.1121 C   0  0  0  0  0  0  0  0  0  0  0  0
   45.1572   35.6715   41.5475 H   0  0  0  0  0  0  0  0  0  0  0  0
   46.5338   34.4687   40.0868 H   0  0  0  0  0  0  0  0  0  0  0  0
   47.0511   33.6022   41.5629 H   0  0  0  0  0  0  0  0  0  0  0  0
   48.7679   35.1160   39.9825 H   0  0  0  0  0  0  0  0  0  0  0  0
   49.0791   34.5996   41.6598 H   0  0  0  0  0  0  0  0  0  0  0  0
   49.0620   36.7960   42.3232 H   0  0  0  0  0  0  0  0  0  0  0  0
   48.4574   37.3468   40.7003 H   0  0  0  0  0  0  0  0  0  0  0  0
   46.9610   37.2246   43.1413 H   0  0  0  0  0  0  0  0  0  0  0  0
   46.3527   37.5828   41.5094 H   0  0  0  0  0  0  0  0  0  0  0  0
  1  6  2  0
  2  3  2  0
  2  1  1  0
  3  4  1  0
  4  5  2  0
  6  5  1  0
  7  1  1  0
  3  8  1  0
  5  9  1  0
  7 10  1  0
 11 12  1  0
 12 13  1  0
 13 14  1  0
 14 15  1  0
 15 11  1  0
 11 16  1  0
 12 17  1  0
 12 18  1  0
 13 19  1  0
 13 20  1  0
 14 21  1  0
 14 22  1  0
 15 23  1  0
 15 24  1  0
  2 11  1  0
M  ISO  3   8  14   9  14  10   3
M  END
>  <DihAtoms>  (1) 
2,1,10,11

>  <DihDeg>  (1) 
89.99152022864307

$$$$
