
 OpenBabel03242517083D

 30 32  0  0  1  0  0  0  0  0999 V2000
   46.3550   33.7940   43.3440 C   0  0  2  0  0  0  0  0  0  0  0  0
   45.6740   34.8450   42.5560 C   0  0  2  0  0  0  0  0  0  0  0  0
   45.3090   36.0560   43.3670 C   0  0  0  0  0  0  0  0  0  0  0  0
   44.5450   35.7460   44.6340 C   0  0  0  0  0  0  0  0  0  0  0  0
   45.0330   34.5220   45.3530 C   0  0  0  0  0  0  0  0  0  0  0  0
   46.3780   34.0690   44.8410 C   0  0  0  0  0  0  0  0  0  0  0  0
   45.8970   32.7680   43.2570 H   0  0  0  0  0  0  0  0  0  0  0  0
   46.4020   35.2360   41.7880 H   0  0  0  0  0  0  0  0  0  0  0  0
   46.1070   36.7510   43.5890 H   0  0  0  0  0  0  0  0  0  0  0  0
   44.5860   36.6370   42.7200 H   0  0  0  0  0  0  0  0  0  0  0  0
   43.4580   35.7130   44.4420 H   0  0  0  0  0  0  0  0  0  0  0  0
   44.6830   36.6150   45.3240 H   0  0  0  0  0  0  0  0  0  0  0  0
   45.1920   34.7120   46.4480 H   0  0  0  0  0  0  0  0  0  0  0  0
   44.3250   33.6770   45.2650 H   0  0  0  0  0  0  0  0  0  0  0  0
   47.1050   34.8910   44.9980 H   0  0  0  0  0  0  0  0  0  0  0  0
   46.6880   33.1770   45.3880 H   0  0  0  0  0  0  0  0  0  0  0  0
   47.7600   33.6150   42.9240 C   0  0  0  0  0  0  0  0  0  0  0  0
   48.5040   34.8110   42.7420 C   0  0  0  0  0  0  0  0  0  0  0  0
   49.8410   34.7480   42.3360 C   0  0  0  0  0  0  0  0  0  0  0  0
   50.3590   33.4850   42.1350 N   0  0  0  0  0  0  0  0  0  0  0  0
   49.6280   32.3700   42.3160 C   0  0  0  0  0  0  0  0  0  0  0  0
   48.3350   32.4320   42.7090 N   0  0  0  0  0  0  0  0  0  0  0  0
   48.1750   35.8170   42.8790 H   0  0  0  0  0  0  0  0  0  0  0  0
   50.4590   35.6160   42.1800 H   0  0  0  0  0  0  0  0  0  0  0  0
   50.1610   31.4550   42.1230 H   0  0  0  0  0  0  0  0  0  0  0  0
   44.5390   34.3660   41.6850 C   0  0  0  0  0  0  0  0  0  0  0  0
   43.7510   35.5840   41.2520 C   0  0  0  0  0  0  0  0  0  0  0  0
   42.8340   34.9980   40.2100 C   0  0  0  0  0  0  0  0  0  0  0  0
   43.6200   33.8920   39.5810 C   0  0  0  0  0  0  0  0  0  0  0  0
   44.8900   33.7130   40.4220 C   0  0  0  0  0  0  0  0  0  0  0  0
  1  7  1  6  0  0  0
  1  6  1  0  0  0  0
  2  8  1  6  0  0  0
  2  1  1  0  0  0  0
  2  3  1  0  0  0  0
  3  9  1  0  0  0  0
  3  4  1  0  0  0  0
  4 12  1  0  0  0  0
  4  5  1  0  0  0  0
  5 13  1  0  0  0  0
  6 15  1  0  0  0  0
  6  5  1  0  0  0  0
  6 16  1  0  0  0  0
 10  3  1  0  0  0  0
 11  4  1  0  0  0  0
 14  5  1  0  0  0  0
 17  1  1  0  0  0  0
 18 23  1  0  0  0  0
 18 17  1  0  0  0  0
 19 18  2  0  0  0  0
 20 21  2  0  0  0  0
 20 19  1  0  0  0  0
 21 22  1  0  0  0  0
 22 17  2  0  0  0  0
 24 19  1  0  0  0  0
 25 21  1  0  0  0  0
 26  2  1  0  0  0  0
 27 26  1  0  0  0  0
 28 27  1  0  0  0  0
 29 28  1  0  0  0  0
 29 30  1  0  0  0  0
 30 26  1  0  0  0  0
M  END
>  <minimizedAffinity>
-5.1509409

>  <minimizedRMSD>
2.23279929

$$$$
