
 OpenBabel03252509303D

 17 18  0  0  0  0  0  0  0  0999 V2000
   44.5370   36.0690   44.4590 C   0  0  0  0  0  0  0  0  0  0  0  0
   45.3630   35.8580   43.3270 C   0  0  0  0  0  0  0  0  0  0  0  0
   46.2160   34.7540   43.3690 C   0  0  0  0  0  0  0  0  0  0  0  0
   46.2150   33.9440   44.4770 N   0  0  0  0  0  0  0  0  0  0  0  0
   45.3950   34.2060   45.5280 C   0  0  0  0  0  0  0  0  0  0  0  0
   44.5680   35.2530   45.5200 N   0  0  0  0  0  0  0  0  0  0  0  0
   43.8680   36.9110   44.4600 H   0  0  0  0  0  0  0  0  0  0  0  0
   45.3170   36.5340   42.4850 H   0  0  0  0  0  0  0  0  0  0  0  0
   45.4820   33.5000   46.3430 H   0  0  0  0  0  0  0  0  0  0  0  0
   47.0750   34.5220   42.2090 C   0  0  0  0  0  0  0  0  0  0  0  0
   47.2300   35.4520   41.6400 H   0  0  0  0  0  0  0  0  0  0  0  0
   46.6700   33.6880   41.5830 H   0  0  0  0  0  0  0  0  0  0  0  0
   48.4090   34.0390   42.7370 C   0  0  0  0  0  3  0  0  0  0  0  0
   48.7600   32.6870   42.1730 C   0  0  0  0  0  2  0  0  0  0  0  0
   50.1920   32.7770   41.6750 C   0  0  0  0  0  2  0  0  0  0  0  0
   50.7210   33.9510   42.5110 C   0  0  0  0  0  2  0  0  0  0  0  0
   49.5530   34.9010   42.3050 C   0  0  0  0  0  2  0  0  0  0  0  0
  1  7  1  0  0  0  0
  1  6  1  0  0  0  0
  2  3  1  0  0  0  0
  2  1  2  0  0  0  0
  3  4  2  0  0  0  0
  4  5  1  0  0  0  0
  5  9  1  0  0  0  0
  6  5  2  0  0  0  0
  8  2  1  0  0  0  0
 10 13  1  0  0  0  0
 10  3  1  0  0  0  0
 11 10  1  0  0  0  0
 12 10  1  0  0  0  0
 14 13  1  0  0  0  0
 15 14  1  0  0  0  0
 15 16  1  0  0  0  0
 17 16  1  0  0  0  0
 17 13  1  0  0  0  0
M  END
>  <minimizedAffinity>
-4.41854382

>  <minimizedRMSD>
1.07171738

$$$$
