REMARK  Name = 
REMARK  4 active torsions:
REMARK  status: ('A' for Active; 'I' for Inactive)
REMARK    1  A    between atoms: C_1  and  O_12
REMARK    2  A    between atoms: C_2  and  C_7
REMARK    3  A    between atoms: O_12  and  C_13
REMARK    4  A    between atoms: C_20  and  C_35
REMARK                            x       y       z     vdW  Elec       q    Type
REMARK                         _______ _______ _______ _____ _____    ______ ____
ROOT
ATOM      1  C   UNL     1      43.388  34.486  40.767  0.00  0.00    +0.000 C 
ATOM      2  O   UNL     1      43.298  35.727  40.550  0.00  0.00    +0.000 OA
ATOM      3  N   UNL     1      42.045  34.061  40.394  0.00  0.00    +0.000 N 
ATOM      4  C   UNL     1      41.685  34.364  39.014  0.00  0.00    +0.000 C 
ATOM      5  C   UNL     1      40.839  35.627  39.092  0.00  0.00    +0.000 C 
ATOM      6  C   UNL     1      40.026  35.534  40.384  0.00  0.00    +0.000 C 
ATOM      7  C   UNL     1      39.724  34.091  40.739  0.00  0.00    +0.000 C 
ATOM      8  C   UNL     1      41.031  33.395  41.178  0.00  0.00    +0.000 C 
ATOM      9  H   UNL     1      42.563  34.479  38.362  0.00  0.00    +0.000 HD
ATOM     10  H   UNL     1      41.056  33.516  38.620  0.00  0.00    +0.000 HD
ATOM     11  H   UNL     1      40.177  35.738  38.216  0.00  0.00    +0.000 HD
ATOM     12  H   UNL     1      41.524  36.504  39.175  0.00  0.00    +0.000 HD
ATOM     13  H   UNL     1      39.070  36.027  40.175  0.00  0.00    +0.000 HD
ATOM     14  H   UNL     1      40.504  36.085  41.221  0.00  0.00    +0.000 HD
ATOM     15  H   UNL     1      39.290  33.619  39.846  0.00  0.00    +0.000 HD
ATOM     16  H   UNL     1      39.028  34.150  41.611  0.00  0.00    +0.000 HD
ATOM     17  H   UNL     1      41.143  33.589  42.253  0.00  0.00    +0.000 HD
ENDROOT
BRANCH   8  18
ATOM     18  C   UNL     1      40.830  31.945  40.849  0.00  0.00    +0.000 C 
ATOM     19  C   UNL     1      41.664  30.983  41.614  0.00  0.00    +0.000 C 
ATOM     20  C   UNL     1      40.886  29.670  41.444  0.00  0.00    +0.000 C 
ATOM     21  C   UNL     1      39.492  30.158  41.805  0.00  0.00    +0.000 C 
ATOM     22  C   UNL     1      39.422  31.595  41.331  0.00  0.00    +0.000 C 
ENDBRANCH   8  18
BRANCH   1  23
ATOM     23  O   UNL     1      44.468  33.772  41.226  0.00  0.00    +0.000 OA
BRANCH  23  24
ATOM     24  C   UNL     1      45.790  34.116  41.076  0.00  0.00    +0.000 A 
ATOM     25  C   UNL     1      46.424  34.757  42.159  0.00  0.00    +0.000 A 
ATOM     26  C   UNL     1      47.768  35.094  41.975  0.00  0.00    +0.000 A 
ATOM     27  N   UNL     1      48.382  34.799  40.798  0.00  0.00    +0.000 NA
ATOM     28  C   UNL     1      47.732  34.191  39.806  0.00  0.00    +0.000 A 
ATOM     29  N   UNL     1      46.435  33.849  39.944  0.00  0.00    +0.000 NA
ATOM     30  H   UNL     1      48.260  35.590  42.814  0.00  0.00    +0.000 HD
ATOM     31  H   UNL     1      48.208  33.949  38.861  0.00  0.00    +0.000 HD
BRANCH  25  32
ATOM     32  C   UNL     1      45.692  35.028  43.367  0.00  0.00    +0.000 A 
ATOM     33  C   UNL     1      45.041  36.240  43.604  0.00  0.00    +0.000 A 
ATOM     34  C   UNL     1      44.480  36.076  44.851  0.00  0.00    +0.000 A 
ATOM     35  N   UNL     1      44.764  34.857  45.340  0.00  0.00    +0.000 N 
ATOM     36  N   UNL     1      45.490  34.254  44.431  0.00  0.00    +0.000 NA
ATOM     37  H   UNL     1      44.988  37.105  42.964  0.00  0.00    +0.000 HD
ATOM     38  H   UNL     1      43.893  36.865  45.327  0.00  0.00    +0.000 HD
ATOM     39  H   UNL     1      44.419  34.544  46.290  0.00  0.00    +0.000 HD
ENDBRANCH  25  32
ENDBRANCH  23  24
ENDBRANCH   1  23
TORSDOF 4
