
 OpenBabel03242515543D

 32 35  0  0  0  0  0  0  0  0999 V2000
   37.5150   29.2670   41.1360 C   0  0  0  0  0  0  0  0  0  0  0  0
   37.8050   29.5650   42.4740 C   0  0  0  0  0  0  0  0  0  0  0  0
   37.8250   28.6200   43.4820 C   0  0  0  0  0  0  0  0  0  0  0  0
   37.5560   27.3200   43.2090 C   0  0  0  0  0  0  0  0  0  0  0  0
   37.2560   26.9720   41.9030 C   0  0  0  0  0  0  0  0  0  0  0  0
   37.0050   25.6530   41.6620 C   0  0  0  0  0  0  0  0  0  0  0  0
   36.7000   25.2690   40.3600 C   0  0  0  0  0  0  0  0  0  0  0  0
   36.6550   26.2170   39.3920 C   0  0  0  0  0  0  0  0  0  0  0  0
   36.9150   27.5180   39.6920 C   0  0  0  0  0  0  0  0  0  0  0  0
   37.2350   27.9450   40.9210 C   0  0  0  0  0  0  0  0  0  0  0  0
   38.0270   30.5970   42.7310 H   0  0  0  0  0  0  0  0  0  0  0  0
   38.0610   28.9570   44.4820 H   0  0  0  0  0  0  0  0  0  0  0  0
   37.5830   26.6000   44.0020 H   0  0  0  0  0  0  0  0  0  0  0  0
   37.0510   24.9460   42.4860 H   0  0  0  0  0  0  0  0  0  0  0  0
   36.5290   24.1890   40.2980 H   0  0  0  0  0  0  0  0  0  0  0  0
   36.4190   25.6590   38.4880 H   0  0  0  0  0  0  0  0  0  0  0  0
   39.5230   30.6470   38.5030 C   0  0  0  0  0  0  0  0  0  0  0  0
   38.6560   31.6020   37.8760 C   0  0  0  0  0  0  0  0  0  0  0  0
   37.3510   31.8180   38.3930 C   0  0  0  0  0  0  0  0  0  0  0  0
   37.0310   31.0800   39.4640 N   0  0  0  0  0  0  0  0  0  0  0  0
   37.8110   30.2010   40.0550 C   0  0  0  0  0  0  0  0  0  0  0  0
   39.0730   29.9710   39.5810 N   0  0  0  0  0  0  0  0  0  0  0  0
   40.5110   30.4980   38.0910 H   0  0  0  0  0  0  0  0  0  0  0  0
   36.7390   32.5380   37.8960 H   0  0  0  0  0  0  0  0  0  0  0  0
   39.2070   32.2780   36.7550 N   0  0  0  0  0  0  0  0  0  0  0  0
   40.1090   32.7610   36.7170 H   0  0  0  0  0  0  0  0  0  0  0  0
   38.4910   32.1730   35.9890 H   0  0  0  0  0  0  0  0  0  0  0  0
   36.5500   28.3490   38.5120 C   0  0  0  0  0  3  0  0  0  0  0  0
   36.5610   27.7040   37.1910 C   0  0  0  0  0  2  0  0  0  0  0  0
   35.8050   28.7610   36.3660 C   0  0  0  0  0  2  0  0  0  0  0  0
   34.6040   29.0090   37.2550 C   0  0  0  0  0  2  0  0  0  0  0  0
   34.9590   28.2850   38.5340 C   0  0  0  0  0  2  0  0  0  0  0  0
  1  2  1  0  0  0  0
  2 11  1  0  0  0  0
  2  3  2  0  0  0  0
  3 12  1  0  0  0  0
  4  3  1  0  0  0  0
  4 13  1  0  0  0  0
  5  4  2  0  0  0  0
  6  5  1  0  0  0  0
  6 14  1  0  0  0  0
  7  6  2  0  0  0  0
  8  9  2  0  0  0  0
  8  7  1  0  0  0  0
  9 10  1  0  0  0  0
 10  1  2  0  0  0  0
 10  5  1  0  0  0  0
 15  7  1  0  0  0  0
 16  8  1  0  0  0  0
 17 22  1  0  0  0  0
 18 19  1  0  0  0  0
 18 17  2  0  0  0  0
 19 20  2  0  0  0  0
 20 21  1  0  0  0  0
 21  1  1  0  0  0  0
 22 21  2  0  0  0  0
 23 17  1  0  0  0  0
 24 19  1  0  0  0  0
 25 18  1  0  0  0  0
 26 25  1  0  0  0  0
 27 25  1  0  0  0  0
 28 32  1  0  0  0  0
 28  9  1  0  0  0  0
 29 28  1  0  0  0  0
 30 29  1  0  0  0  0
 30 31  1  0  0  0  0
 31 32  1  0  0  0  0
M  END
>  <minimizedAffinity>
-6.32398891

$$$$

 OpenBabel03242515543D

 32 35  0  0  0  0  0  0  0  0999 V2000
   36.4120   27.3240   39.1310 C   0  0  0  0  0  0  0  0  0  0  0  0
   35.8200   27.0190   37.8990 C   0  0  0  0  0  0  0  0  0  0  0  0
   35.4630   25.7390   37.5170 C   0  0  0  0  0  0  0  0  0  0  0  0
   35.6770   24.6900   38.3490 C   0  0  0  0  0  0  0  0  0  0  0  0
   36.2670   24.9370   39.5780 C   0  0  0  0  0  0  0  0  0  0  0  0
   36.4540   23.8610   40.3950 C   0  0  0  0  0  0  0  0  0  0  0  0
   37.0440   24.0740   41.6370 C   0  0  0  0  0  0  0  0  0  0  0  0
   37.4140   25.3310   41.9780 C   0  0  0  0  0  0  0  0  0  0  0  0
   37.2030   26.3670   41.1210 C   0  0  0  0  0  0  0  0  0  0  0  0
   36.6200   26.2280   39.9230 C   0  0  0  0  0  0  0  0  0  0  0  0
   35.6320   27.8340   37.2060 H   0  0  0  0  0  0  0  0  0  0  0  0
   35.0130   25.6120   36.5430 H   0  0  0  0  0  0  0  0  0  0  0  0
   35.3880   23.7060   38.0400 H   0  0  0  0  0  0  0  0  0  0  0  0
   36.1390   22.8770   40.0560 H   0  0  0  0  0  0  0  0  0  0  0  0
   37.1290   23.1360   42.1980 H   0  0  0  0  0  0  0  0  0  0  0  0
   37.8220   25.2230   42.9820 H   0  0  0  0  0  0  0  0  0  0  0  0
   37.6260   30.7000   39.1880 C   0  0  0  0  0  0  0  0  0  0  0  0
   36.7740   31.3530   40.1400 C   0  0  0  0  0  0  0  0  0  0  0  0
   35.7750   30.6100   40.8210 C   0  0  0  0  0  0  0  0  0  0  0  0
   35.7120   29.3110   40.5030 N   0  0  0  0  0  0  0  0  0  0  0  0
   36.4830   28.6920   39.6360 C   0  0  0  0  0  0  0  0  0  0  0  0
   37.4550   29.3810   38.9630 N   0  0  0  0  0  0  0  0  0  0  0  0
   38.3780   31.2860   38.6800 H   0  0  0  0  0  0  0  0  0  0  0  0
   35.1630   31.1350   41.5210 H   0  0  0  0  0  0  0  0  0  0  0  0
   37.0240   32.7390   40.3270 N   0  0  0  0  0  0  0  0  0  0  0  0
   37.9290   33.1740   40.5260 H   0  0  0  0  0  0  0  0  0  0  0  0
   36.0860   33.2060   40.2180 H   0  0  0  0  0  0  0  0  0  0  0  0
   37.9250   27.5580   41.6440 C   0  0  0  0  0  3  0  0  0  0  0  0
   37.7140   27.9240   43.0520 C   0  0  0  0  0  2  0  0  0  0  0  0
   38.8690   28.9210   43.2510 C   0  0  0  0  0  2  0  0  0  0  0  0
   40.0270   28.1330   42.6720 C   0  0  0  0  0  2  0  0  0  0  0  0
   39.3510   26.9530   42.0110 C   0  0  0  0  0  2  0  0  0  0  0  0
  1 21  1  0  0  0  0
  1 10  1  0  0  0  0
  2  1  2  0  0  0  0
  3  2  1  0  0  0  0
  3  4  2  0  0  0  0
  4  5  1  0  0  0  0
  5 10  2  0  0  0  0
  5  6  1  0  0  0  0
  6  7  2  0  0  0  0
  7  8  1  0  0  0  0
  7 15  1  0  0  0  0
  8 16  1  0  0  0  0
  9 28  1  0  0  0  0
  9  8  2  0  0  0  0
 10  9  1  0  0  0  0
 11  2  1  0  0  0  0
 12  3  1  0  0  0  0
 13  4  1  0  0  0  0
 14  6  1  0  0  0  0
 17 18  1  0  0  0  0
 18 25  1  0  0  0  0
 18 19  2  0  0  0  0
 19 24  1  0  0  0  0
 20 19  1  0  0  0  0
 21 20  2  0  0  0  0
 22 17  2  0  0  0  0
 22 21  1  0  0  0  0
 23 17  1  0  0  0  0
 25 26  1  0  0  0  0
 27 25  1  0  0  0  0
 28 32  1  0  0  0  0
 28 29  1  0  0  0  0
 29 30  1  0  0  0  0
 31 30  1  0  0  0  0
 32 31  1  0  0  0  0
M  END
>  <minimizedAffinity>
-6.28513527

$$$$

 OpenBabel03242515543D

 32 35  0  0  0  0  0  0  0  0999 V2000
   36.9140   27.2630   39.0180 C   0  0  0  0  0  0  0  0  0  0  0  0
   36.4480   26.7400   37.8040 C   0  0  0  0  0  0  0  0  0  0  0  0
   36.0150   25.4370   37.6480 C   0  0  0  0  0  0  0  0  0  0  0  0
   36.0240   24.5800   38.6990 C   0  0  0  0  0  0  0  0  0  0  0  0
   36.4820   25.0450   39.9200 C   0  0  0  0  0  0  0  0  0  0  0  0
   36.4630   24.1600   40.9580 C   0  0  0  0  0  0  0  0  0  0  0  0
   36.9170   24.5950   42.2000 C   0  0  0  0  0  0  0  0  0  0  0  0
   37.3660   25.8680   42.3240 C   0  0  0  0  0  0  0  0  0  0  0  0
   37.3610   26.7050   41.2520 C   0  0  0  0  0  0  0  0  0  0  0  0
   36.9160   26.3520   40.0380 C   0  0  0  0  0  0  0  0  0  0  0  0
   36.4250   27.3970   36.9400 H   0  0  0  0  0  0  0  0  0  0  0  0
   35.6760   25.1340   36.6670 H   0  0  0  0  0  0  0  0  0  0  0  0
   35.6790   23.5760   38.5610 H   0  0  0  0  0  0  0  0  0  0  0  0
   36.0970   23.1510   40.7880 H   0  0  0  0  0  0  0  0  0  0  0  0
   36.8420   23.7970   42.9470 H   0  0  0  0  0  0  0  0  0  0  0  0
   37.6370   25.9510   43.3750 H   0  0  0  0  0  0  0  0  0  0  0  0
   35.8320   30.4950   40.1360 C   0  0  0  0  0  0  0  0  0  0  0  0
   36.9990   31.3160   39.9890 C   0  0  0  0  0  0  0  0  0  0  0  0
   38.1890   30.7630   39.4490 C   0  0  0  0  0  0  0  0  0  0  0  0
   38.1160   29.4690   39.1100 N   0  0  0  0  0  0  0  0  0  0  0  0
   37.0570   28.6990   39.2360 C   0  0  0  0  0  0  0  0  0  0  0  0
   35.8950   29.2030   39.7520 N   0  0  0  0  0  0  0  0  0  0  0  0
   34.9380   30.9380   40.5510 H   0  0  0  0  0  0  0  0  0  0  0  0
   39.0340   31.4090   39.3560 H   0  0  0  0  0  0  0  0  0  0  0  0
   36.8480   32.6660   40.4060 N   0  0  0  0  0  0  0  0  0  0  0  0
   36.1040   33.3110   40.1260 H   0  0  0  0  0  0  0  0  0  0  0  0
   37.6590   32.8480   41.0530 H   0  0  0  0  0  0  0  0  0  0  0  0
   38.1290   27.9280   41.6140 C   0  0  0  0  0  3  0  0  0  0  0  0
   37.7890   28.6010   42.8760 C   0  0  0  0  0  2  0  0  0  0  0  0
   39.0040   29.5350   43.0230 C   0  0  0  0  0  2  0  0  0  0  0  0
   40.1400   28.5620   42.7790 C   0  0  0  0  0  2  0  0  0  0  0  0
   39.4360   27.3170   42.2880 C   0  0  0  0  0  2  0  0  0  0  0  0
  1 21  1  0  0  0  0
  1 10  1  0  0  0  0
  2  1  2  0  0  0  0
  3  2  1  0  0  0  0
  3  4  2  0  0  0  0
  4  5  1  0  0  0  0
  5 10  2  0  0  0  0
  5  6  1  0  0  0  0
  6  7  2  0  0  0  0
  7  8  1  0  0  0  0
  7 15  1  0  0  0  0
  8 16  1  0  0  0  0
  9 28  1  0  0  0  0
  9  8  2  0  0  0  0
 10  9  1  0  0  0  0
 11  2  1  0  0  0  0
 12  3  1  0  0  0  0
 13  4  1  0  0  0  0
 14  6  1  0  0  0  0
 17 23  1  0  0  0  0
 18 17  1  0  0  0  0
 18 25  1  0  0  0  0
 19 18  2  0  0  0  0
 20 21  2  0  0  0  0
 20 19  1  0  0  0  0
 21 22  1  0  0  0  0
 22 17  2  0  0  0  0
 24 19  1  0  0  0  0
 25 27  1  0  0  0  0
 26 25  1  0  0  0  0
 28 32  1  0  0  0  0
 28 29  1  0  0  0  0
 29 30  1  0  0  0  0
 31 30  1  0  0  0  0
 32 31  1  0  0  0  0
M  END
>  <minimizedAffinity>
-6.22607136

$$$$

 OpenBabel03242515543D

 32 35  0  0  0  0  0  0  0  0999 V2000
   37.3990   27.3280   40.4830 C   0  0  0  0  0  0  0  0  0  0  0  0
   36.6030   26.4590   39.7250 C   0  0  0  0  0  0  0  0  0  0  0  0
   36.5580   25.0920   39.9250 C   0  0  0  0  0  0  0  0  0  0  0  0
   37.3060   24.5160   40.8980 C   0  0  0  0  0  0  0  0  0  0  0  0
   38.1150   25.3310   41.6720 C   0  0  0  0  0  0  0  0  0  0  0  0
   38.8430   24.7190   42.6510 C   0  0  0  0  0  0  0  0  0  0  0  0
   39.6670   25.5090   43.4470 C   0  0  0  0  0  0  0  0  0  0  0  0
   39.7200   26.8430   43.2130 C   0  0  0  0  0  0  0  0  0  0  0  0
   38.9710   27.3970   42.2210 C   0  0  0  0  0  0  0  0  0  0  0  0
   38.1440   26.6930   41.4380 C   0  0  0  0  0  0  0  0  0  0  0  0
   35.9890   26.8840   38.9370 H   0  0  0  0  0  0  0  0  0  0  0  0
   35.9110   24.5110   39.2840 H   0  0  0  0  0  0  0  0  0  0  0  0
   37.2530   23.4570   41.0440 H   0  0  0  0  0  0  0  0  0  0  0  0
   38.7590   23.6440   42.7800 H   0  0  0  0  0  0  0  0  0  0  0  0
   40.1880   24.9030   44.1960 H   0  0  0  0  0  0  0  0  0  0  0  0
   40.4080   27.2160   43.9690 H   0  0  0  0  0  0  0  0  0  0  0  0
   37.8210   30.6520   39.2010 C   0  0  0  0  0  0  0  0  0  0  0  0
   36.9070   31.4380   39.9800 C   0  0  0  0  0  0  0  0  0  0  0  0
   36.1470   30.8240   41.0100 C   0  0  0  0  0  0  0  0  0  0  0  0
   36.3590   29.5110   41.1710 N   0  0  0  0  0  0  0  0  0  0  0  0
   37.1910   28.7730   40.4700 C   0  0  0  0  0  0  0  0  0  0  0  0
   37.9370   29.3360   39.4710 N   0  0  0  0  0  0  0  0  0  0  0  0
   38.3870   31.1410   38.4210 H   0  0  0  0  0  0  0  0  0  0  0  0
   35.4790   31.4450   41.5650 H   0  0  0  0  0  0  0  0  0  0  0  0
   36.8500   32.8160   39.6410 N   0  0  0  0  0  0  0  0  0  0  0  0
   37.6440   33.4550   39.5480 H   0  0  0  0  0  0  0  0  0  0  0  0
   35.8250   33.0270   39.5110 H   0  0  0  0  0  0  0  0  0  0  0  0
   39.4160   28.8040   42.0350 C   0  0  0  0  0  3  0  0  0  0  0  0
   39.1310   29.7620   43.1140 C   0  0  0  0  0  2  0  0  0  0  0  0
   40.0410   30.9290   42.6900 C   0  0  0  0  0  2  0  0  0  0  0  0
   41.3420   30.1960   42.4340 C   0  0  0  0  0  2  0  0  0  0  0  0
   40.9400   28.7390   42.4900 C   0  0  0  0  0  2  0  0  0  0  0  0
  1 10  1  0  0  0  0
  2  3  1  0  0  0  0
  2  1  2  0  0  0  0
  3  4  2  0  0  0  0
  4 13  1  0  0  0  0
  4  5  1  0  0  0  0
  5  6  1  0  0  0  0
  6 14  1  0  0  0  0
  6  7  2  0  0  0  0
  7 15  1  0  0  0  0
  8  7  1  0  0  0  0
  8 16  1  0  0  0  0
  9  8  2  0  0  0  0
 10  5  2  0  0  0  0
 10  9  1  0  0  0  0
 11  2  1  0  0  0  0
 12  3  1  0  0  0  0
 17 22  2  0  0  0  0
 17 18  1  0  0  0  0
 18 19  2  0  0  0  0
 19 20  1  0  0  0  0
 19 24  1  0  0  0  0
 21  1  1  0  0  0  0
 21 20  2  0  0  0  0
 22 21  1  0  0  0  0
 23 17  1  0  0  0  0
 25 18  1  0  0  0  0
 26 25  1  0  0  0  0
 27 25  1  0  0  0  0
 28  9  1  0  0  0  0
 28 32  1  0  0  0  0
 28 29  1  0  0  0  0
 30 29  1  0  0  0  0
 31 32  1  0  0  0  0
 31 30  1  0  0  0  0
M  END
>  <minimizedAffinity>
-6.10173988

$$$$

 OpenBabel03242515543D

 32 35  0  0  0  0  0  0  0  0999 V2000
   36.6010   26.8660   39.7870 C   0  0  0  0  0  0  0  0  0  0  0  0
   36.5710   25.4650   39.8070 C   0  0  0  0  0  0  0  0  0  0  0  0
   36.8150   24.7110   40.9390 C   0  0  0  0  0  0  0  0  0  0  0  0
   37.1030   25.3160   42.1190 C   0  0  0  0  0  0  0  0  0  0  0  0
   37.1510   26.7000   42.1510 C   0  0  0  0  0  0  0  0  0  0  0  0
   37.4290   27.2750   43.3560 C   0  0  0  0  0  0  0  0  0  0  0  0
   37.4850   28.6640   43.4240 C   0  0  0  0  0  0  0  0  0  0  0  0
   37.2740   29.3830   42.2950 C   0  0  0  0  0  0  0  0  0  0  0  0
   37.0010   28.7530   41.1200 C   0  0  0  0  0  0  0  0  0  0  0  0
   36.9120   27.4220   40.9970 C   0  0  0  0  0  0  0  0  0  0  0  0
   36.3430   24.9450   38.8820 H   0  0  0  0  0  0  0  0  0  0  0  0
   36.7680   23.6350   40.8470 H   0  0  0  0  0  0  0  0  0  0  0  0
   37.2830   24.7160   42.9870 H   0  0  0  0  0  0  0  0  0  0  0  0
   37.5950   26.6380   44.2210 H   0  0  0  0  0  0  0  0  0  0  0  0
   37.7060   28.9990   44.4430 H   0  0  0  0  0  0  0  0  0  0  0  0
   37.3550   30.4180   42.6230 H   0  0  0  0  0  0  0  0  0  0  0  0
   36.5670   28.2320   36.4700 C   0  0  0  0  0  0  0  0  0  0  0  0
   35.2520   28.7920   36.3440 C   0  0  0  0  0  0  0  0  0  0  0  0
   34.3550   28.7420   37.4420 C   0  0  0  0  0  0  0  0  0  0  0  0
   34.8340   28.1520   38.5450 N   0  0  0  0  0  0  0  0  0  0  0  0
   36.0350   27.6340   38.6830 C   0  0  0  0  0  0  0  0  0  0  0  0
   36.9220   27.6670   37.6420 N   0  0  0  0  0  0  0  0  0  0  0  0
   37.2320   28.2790   35.6190 H   0  0  0  0  0  0  0  0  0  0  0  0
   33.3860   29.1700   37.3060 H   0  0  0  0  0  0  0  0  0  0  0  0
   34.9590   29.3760   35.0830 N   0  0  0  0  0  0  0  0  0  0  0  0
   35.5270   30.0670   34.5840 H   0  0  0  0  0  0  0  0  0  0  0  0
   34.0440   28.9470   34.7850 H   0  0  0  0  0  0  0  0  0  0  0  0
   37.0660   29.7610   40.0270 C   0  0  0  0  0  3  0  0  0  0  0  0
   36.5640   31.1140   40.3120 C   0  0  0  0  0  2  0  0  0  0  0  0
   37.1360   31.8760   39.1030 C   0  0  0  0  0  2  0  0  0  0  0  0
   38.5770   31.4080   39.1280 C   0  0  0  0  0  2  0  0  0  0  0  0
   38.5640   30.2880   40.1430 C   0  0  0  0  0  2  0  0  0  0  0  0
  1  2  2  0  0  0  0
  1 10  1  0  0  0  0
  2  3  1  0  0  0  0
  3  4  2  0  0  0  0
  4  5  1  0  0  0  0
  4 13  1  0  0  0  0
  5  6  1  0  0  0  0
  6  7  2  0  0  0  0
  6 14  1  0  0  0  0
  7 15  1  0  0  0  0
  8 16  1  0  0  0  0
  8  7  1  0  0  0  0
  9  8  2  0  0  0  0
 10  9  1  0  0  0  0
 10  5  2  0  0  0  0
 11  2  1  0  0  0  0
 12  3  1  0  0  0  0
 17 22  1  0  0  0  0
 18 17  2  0  0  0  0
 18 19  1  0  0  0  0
 19 20  2  0  0  0  0
 20 21  1  0  0  0  0
 21  1  1  0  0  0  0
 22 21  2  0  0  0  0
 23 17  1  0  0  0  0
 24 19  1  0  0  0  0
 25 18  1  0  0  0  0
 26 25  1  0  0  0  0
 27 25  1  0  0  0  0
 28 32  1  0  0  0  0
 28 29  1  0  0  0  0
 28  9  1  0  0  0  0
 30 31  1  0  0  0  0
 30 29  1  0  0  0  0
 31 32  1  0  0  0  0
M  END
>  <minimizedAffinity>
-6.02005529

$$$$

 OpenBabel03242515543D

 32 35  0  0  0  0  0  0  0  0999 V2000
   36.8250   27.2920   41.1310 C   0  0  0  0  0  0  0  0  0  0  0  0
   36.9720   26.8090   42.4380 C   0  0  0  0  0  0  0  0  0  0  0  0
   37.0260   25.4650   42.7550 C   0  0  0  0  0  0  0  0  0  0  0  0
   36.9380   24.5260   41.7800 C   0  0  0  0  0  0  0  0  0  0  0  0
   36.7850   24.9510   40.4710 C   0  0  0  0  0  0  0  0  0  0  0  0
   36.7140   23.9800   39.5160 C   0  0  0  0  0  0  0  0  0  0  0  0
   36.5600   24.3730   38.1900 C   0  0  0  0  0  0  0  0  0  0  0  0
   36.4780   25.6950   37.9050 C   0  0  0  0  0  0  0  0  0  0  0  0
   36.5550   26.6190   38.9010 C   0  0  0  0  0  0  0  0  0  0  0  0
   36.7250   26.3030   40.1920 C   0  0  0  0  0  0  0  0  0  0  0  0
   37.0470   27.5310   43.2450 H   0  0  0  0  0  0  0  0  0  0  0  0
   37.1400   25.1980   43.7960 H   0  0  0  0  0  0  0  0  0  0  0  0
   36.9890   23.4890   42.0440 H   0  0  0  0  0  0  0  0  0  0  0  0
   36.7800   22.9370   39.8150 H   0  0  0  0  0  0  0  0  0  0  0  0
   36.5260   23.5040   37.5240 H   0  0  0  0  0  0  0  0  0  0  0  0
   36.3820   25.7250   36.8210 H   0  0  0  0  0  0  0  0  0  0  0  0
   36.0380   30.7870   40.9310 C   0  0  0  0  0  0  0  0  0  0  0  0
   37.2640   31.3890   40.4930 C   0  0  0  0  0  0  0  0  0  0  0  0
   38.3920   30.5740   40.2140 C   0  0  0  0  0  0  0  0  0  0  0  0
   38.2050   29.2590   40.3900 N   0  0  0  0  0  0  0  0  0  0  0  0
   37.0900   28.6860   40.7900 C   0  0  0  0  0  0  0  0  0  0  0  0
   35.9860   29.4460   41.0670 N   0  0  0  0  0  0  0  0  0  0  0  0
   35.1940   31.4280   41.1410 H   0  0  0  0  0  0  0  0  0  0  0  0
   39.2840   31.0620   39.8900 H   0  0  0  0  0  0  0  0  0  0  0  0
   37.2350   32.8040   40.3660 N   0  0  0  0  0  0  0  0  0  0  0  0
   36.5390   33.3560   39.8570 H   0  0  0  0  0  0  0  0  0  0  0  0
   38.0740   33.1470   40.9030 H   0  0  0  0  0  0  0  0  0  0  0  0
   36.1870   27.9440   38.3340 C   0  0  0  0  0  3  0  0  0  0  0  0
   36.6410   28.2570   36.9710 C   0  0  0  0  0  2  0  0  0  0  0  0
   35.7720   29.4910   36.6690 C   0  0  0  0  0  2  0  0  0  0  0  0
   34.4060   28.9850   37.0870 C   0  0  0  0  0  2  0  0  0  0  0  0
   34.7150   27.6800   37.7860 C   0  0  0  0  0  2  0  0  0  0  0  0
  1  2  1  0  0  0  0
  2  3  2  0  0  0  0
  2 11  1  0  0  0  0
  3 12  1  0  0  0  0
  4 13  1  0  0  0  0
  4  3  1  0  0  0  0
  5  4  2  0  0  0  0
  6 14  1  0  0  0  0
  6  5  1  0  0  0  0
  7  6  2  0  0  0  0
  8  7  1  0  0  0  0
  8  9  2  0  0  0  0
  9 10  1  0  0  0  0
 10  5  1  0  0  0  0
 10  1  2  0  0  0  0
 15  7  1  0  0  0  0
 16  8  1  0  0  0  0
 17 22  1  0  0  0  0
 17 23  1  0  0  0  0
 18 17  2  0  0  0  0
 19 20  2  0  0  0  0
 19 18  1  0  0  0  0
 20 21  1  0  0  0  0
 21 22  2  0  0  0  0
 21  1  1  0  0  0  0
 24 19  1  0  0  0  0
 25 18  1  0  0  0  0
 25 27  1  0  0  0  0
 26 25  1  0  0  0  0
 28  9  1  0  0  0  0
 29 28  1  0  0  0  0
 30 29  1  0  0  0  0
 30 31  1  0  0  0  0
 31 32  1  0  0  0  0
 32 28  1  0  0  0  0
M  END
>  <minimizedAffinity>
-5.9803319

$$$$

 OpenBabel03242515543D

 32 35  0  0  0  0  0  0  0  0999 V2000
   39.3970   28.2660   41.9200 C   0  0  0  0  0  0  0  0  0  0  0  0
   40.3810   28.2050   42.9150 C   0  0  0  0  0  0  0  0  0  0  0  0
   40.6310   27.0790   43.6760 C   0  0  0  0  0  0  0  0  0  0  0  0
   39.9090   25.9470   43.4840 C   0  0  0  0  0  0  0  0  0  0  0  0
   38.9190   25.9560   42.5160 C   0  0  0  0  0  0  0  0  0  0  0  0
   38.2230   24.7970   42.3410 C   0  0  0  0  0  0  0  0  0  0  0  0
   37.2200   24.7720   41.3760 C   0  0  0  0  0  0  0  0  0  0  0  0
   36.9710   25.8960   40.6620 C   0  0  0  0  0  0  0  0  0  0  0  0
   37.6980   27.0250   40.8820 C   0  0  0  0  0  0  0  0  0  0  0  0
   38.6900   27.1030   41.7800 C   0  0  0  0  0  0  0  0  0  0  0  0
   40.9800   29.0920   43.0970 H   0  0  0  0  0  0  0  0  0  0  0  0
   41.4130   27.1380   44.4200 H   0  0  0  0  0  0  0  0  0  0  0  0
   40.1210   25.0820   44.0790 H   0  0  0  0  0  0  0  0  0  0  0  0
   38.4700   23.9330   42.9530 H   0  0  0  0  0  0  0  0  0  0  0  0
   36.7460   23.7850   41.3270 H   0  0  0  0  0  0  0  0  0  0  0  0
   36.1730   25.6050   39.9820 H   0  0  0  0  0  0  0  0  0  0  0  0
   38.7310   31.5950   40.7610 C   0  0  0  0  0  0  0  0  0  0  0  0
   39.3200   31.6270   39.4530 C   0  0  0  0  0  0  0  0  0  0  0  0
   39.9310   30.4590   38.9250 C   0  0  0  0  0  0  0  0  0  0  0  0
   39.9030   29.3870   39.7270 N   0  0  0  0  0  0  0  0  0  0  0  0
   39.3680   29.3360   40.9270 C   0  0  0  0  0  0  0  0  0  0  0  0
   38.7720   30.4450   41.4630 N   0  0  0  0  0  0  0  0  0  0  0  0
   38.2730   32.4970   41.1430 H   0  0  0  0  0  0  0  0  0  0  0  0
   40.3570   30.5260   37.9480 H   0  0  0  0  0  0  0  0  0  0  0  0
   39.2270   32.8710   38.7750 N   0  0  0  0  0  0  0  0  0  0  0  0
   38.3780   33.4270   38.6330 H   0  0  0  0  0  0  0  0  0  0  0  0
   40.2080   33.0870   38.4570 H   0  0  0  0  0  0  0  0  0  0  0  0
   37.0490   28.1460   40.1510 C   0  0  0  0  0  3  0  0  0  0  0  0
   36.1360   27.8080   39.0490 C   0  0  0  0  0  2  0  0  0  0  0  0
   35.4460   29.1680   38.8390 C   0  0  0  0  0  2  0  0  0  0  0  0
   35.0720   29.5200   40.2650 C   0  0  0  0  0  2  0  0  0  0  0  0
   35.8030   28.4810   41.0850 C   0  0  0  0  0  2  0  0  0  0  0  0
  1  2  1  0  0  0  0
  2 11  1  0  0  0  0
  2  3  2  0  0  0  0
  3 12  1  0  0  0  0
  4  3  1  0  0  0  0
  4 13  1  0  0  0  0
  5  4  2  0  0  0  0
  6  5  1  0  0  0  0
  6 14  1  0  0  0  0
  7  6  2  0  0  0  0
  8  9  2  0  0  0  0
  8  7  1  0  0  0  0
  9 10  1  0  0  0  0
 10  1  2  0  0  0  0
 10  5  1  0  0  0  0
 15  7  1  0  0  0  0
 16  8  1  0  0  0  0
 17 23  1  0  0  0  0
 17 22  1  0  0  0  0
 18 17  2  0  0  0  0
 19 18  1  0  0  0  0
 19 20  2  0  0  0  0
 20 21  1  0  0  0  0
 21 22  2  0  0  0  0
 21  1  1  0  0  0  0
 24 19  1  0  0  0  0
 25 18  1  0  0  0  0
 26 25  1  0  0  0  0
 27 25  1  0  0  0  0
 28  9  1  0  0  0  0
 28 32  1  0  0  0  0
 29 28  1  0  0  0  0
 30 29  1  0  0  0  0
 30 31  1  0  0  0  0
 31 32  1  0  0  0  0
M  END
>  <minimizedAffinity>
-5.94803905

$$$$

 OpenBabel03242515543D

 32 35  0  0  0  0  0  0  0  0999 V2000
   37.6360   30.3290   40.0340 C   0  0  0  0  0  0  0  0  0  0  0  0
   36.5460   30.2100   39.1610 C   0  0  0  0  0  0  0  0  0  0  0  0
   35.4580   29.3930   39.4030 C   0  0  0  0  0  0  0  0  0  0  0  0
   35.3980   28.6480   40.5350 C   0  0  0  0  0  0  0  0  0  0  0  0
   36.4530   28.7240   41.4280 C   0  0  0  0  0  0  0  0  0  0  0  0
   36.3520   27.9720   42.5610 C   0  0  0  0  0  0  0  0  0  0  0  0
   37.3960   28.0260   43.4800 C   0  0  0  0  0  0  0  0  0  0  0  0
   38.4670   28.8100   43.2090 C   0  0  0  0  0  0  0  0  0  0  0  0
   38.5130   29.5380   42.0600 C   0  0  0  0  0  0  0  0  0  0  0  0
   37.5300   29.5450   41.1490 C   0  0  0  0  0  0  0  0  0  0  0  0
   36.5580   30.7930   38.2450 H   0  0  0  0  0  0  0  0  0  0  0  0
   34.6700   29.3730   38.6640 H   0  0  0  0  0  0  0  0  0  0  0  0
   34.5440   28.0250   40.7080 H   0  0  0  0  0  0  0  0  0  0  0  0
   35.4680   27.3590   42.7130 H   0  0  0  0  0  0  0  0  0  0  0  0
   37.1900   27.3870   44.3460 H   0  0  0  0  0  0  0  0  0  0  0  0
   39.1120   28.6860   44.0770 H   0  0  0  0  0  0  0  0  0  0  0  0
   40.5350   31.9640   38.6940 C   0  0  0  0  0  0  0  0  0  0  0  0
   40.4810   33.2790   39.2650 C   0  0  0  0  0  0  0  0  0  0  0  0
   39.4420   33.6130   40.1740 C   0  0  0  0  0  0  0  0  0  0  0  0
   38.5690   32.6300   40.4290 N   0  0  0  0  0  0  0  0  0  0  0  0
   38.6010   31.4190   39.9190 C   0  0  0  0  0  0  0  0  0  0  0  0
   39.5890   31.0670   39.0400 N   0  0  0  0  0  0  0  0  0  0  0  0
   41.3330   31.7340   38.0030 H   0  0  0  0  0  0  0  0  0  0  0  0
   39.4390   34.6020   40.5750 H   0  0  0  0  0  0  0  0  0  0  0  0
   41.5170   34.1610   38.8580 N   0  0  0  0  0  0  0  0  0  0  0  0
   42.5230   33.9690   38.8760 H   0  0  0  0  0  0  0  0  0  0  0  0
   41.0260   35.0390   38.5430 H   0  0  0  0  0  0  0  0  0  0  0  0
   39.8860   30.0900   41.9140 C   0  0  0  0  0  3  0  0  0  0  0  0
   40.3580   31.0340   42.9380 C   0  0  0  0  0  2  0  0  0  0  0  0
   41.8630   31.0550   42.6170 C   0  0  0  0  0  2  0  0  0  0  0  0
   42.1560   29.5710   42.5330 C   0  0  0  0  0  2  0  0  0  0  0  0
   40.7820   28.9400   42.5560 C   0  0  0  0  0  2  0  0  0  0  0  0
  1 10  1  0  0  0  0
  2  3  1  0  0  0  0
  2  1  2  0  0  0  0
  3  4  2  0  0  0  0
  4 13  1  0  0  0  0
  4  5  1  0  0  0  0
  5  6  1  0  0  0  0
  6 14  1  0  0  0  0
  6  7  2  0  0  0  0
  7 15  1  0  0  0  0
  8  7  1  0  0  0  0
  8 16  1  0  0  0  0
  9  8  2  0  0  0  0
 10  5  2  0  0  0  0
 10  9  1  0  0  0  0
 11  2  1  0  0  0  0
 12  3  1  0  0  0  0
 17 22  2  0  0  0  0
 17 18  1  0  0  0  0
 18 19  2  0  0  0  0
 19 20  1  0  0  0  0
 19 24  1  0  0  0  0
 21  1  1  0  0  0  0
 21 20  2  0  0  0  0
 22 21  1  0  0  0  0
 23 17  1  0  0  0  0
 25 26  1  0  0  0  0
 25 18  1  0  0  0  0
 27 25  1  0  0  0  0
 28  9  1  0  0  0  0
 28 32  1  0  0  0  0
 28 29  1  0  0  0  0
 30 29  1  0  0  0  0
 31 32  1  0  0  0  0
 31 30  1  0  0  0  0
M  END
>  <minimizedAffinity>
-5.91078472

$$$$

 OpenBabel03242515543D

 32 35  0  0  0  0  0  0  0  0999 V2000
   37.4320   31.5950   40.2640 C   0  0  0  0  0  0  0  0  0  0  0  0
   37.3920   32.9260   39.8300 C   0  0  0  0  0  0  0  0  0  0  0  0
   38.4070   33.8360   40.0580 C   0  0  0  0  0  0  0  0  0  0  0  0
   39.5220   33.4650   40.7340 C   0  0  0  0  0  0  0  0  0  0  0  0
   39.6090   32.1610   41.1910 C   0  0  0  0  0  0  0  0  0  0  0  0
   40.7510   31.8190   41.8550 C   0  0  0  0  0  0  0  0  0  0  0  0
   40.8710   30.5160   42.3280 C   0  0  0  0  0  0  0  0  0  0  0  0
   39.8510   29.6480   42.1200 C   0  0  0  0  0  0  0  0  0  0  0  0
   38.7350   30.0470   41.4510 C   0  0  0  0  0  0  0  0  0  0  0  0
   38.5710   31.2800   40.9540 C   0  0  0  0  0  0  0  0  0  0  0  0
   36.5150   33.2590   39.2840 H   0  0  0  0  0  0  0  0  0  0  0  0
   38.2760   34.8410   39.6810 H   0  0  0  0  0  0  0  0  0  0  0  0
   40.3010   34.1820   40.8960 H   0  0  0  0  0  0  0  0  0  0  0  0
   41.5280   32.5670   41.9930 H   0  0  0  0  0  0  0  0  0  0  0  0
   41.8320   30.3670   42.8310 H   0  0  0  0  0  0  0  0  0  0  0  0
   40.2010   28.7180   42.5630 H   0  0  0  0  0  0  0  0  0  0  0  0
   36.3770   29.0540   37.9610 C   0  0  0  0  0  0  0  0  0  0  0  0
   35.1960   28.5120   38.5670 C   0  0  0  0  0  0  0  0  0  0  0  0
   34.7130   29.0570   39.7860 C   0  0  0  0  0  0  0  0  0  0  0  0
   35.4320   30.0720   40.2830 N   0  0  0  0  0  0  0  0  0  0  0  0
   36.5160   30.5850   39.7430 C   0  0  0  0  0  0  0  0  0  0  0  0
   37.0060   30.0810   38.5690 N   0  0  0  0  0  0  0  0  0  0  0  0
   36.7270   28.6220   37.0350 H   0  0  0  0  0  0  0  0  0  0  0  0
   33.8310   28.6240   40.2030 H   0  0  0  0  0  0  0  0  0  0  0  0
   34.5880   27.4400   37.8600 N   0  0  0  0  0  0  0  0  0  0  0  0
   34.3350   27.4300   36.8690 H   0  0  0  0  0  0  0  0  0  0  0  0
   34.4590   26.6760   38.5750 H   0  0  0  0  0  0  0  0  0  0  0  0
   37.7030   28.9840   41.5940 C   0  0  0  0  0  3  0  0  0  0  0  0
   38.1220   27.5900   41.3840 C   0  0  0  0  0  2  0  0  0  0  0  0
   36.9040   26.8490   41.9640 C   0  0  0  0  0  2  0  0  0  0  0  0
   36.7390   27.5680   43.2880 C   0  0  0  0  0  2  0  0  0  0  0  0
   37.6820   28.7440   43.1680 C   0  0  0  0  0  2  0  0  0  0  0  0
  1 10  1  0  0  0  0
  2  3  1  0  0  0  0
  2  1  2  0  0  0  0
  3  4  2  0  0  0  0
  4 13  1  0  0  0  0
  4  5  1  0  0  0  0
  5  6  1  0  0  0  0
  6 14  1  0  0  0  0
  6  7  2  0  0  0  0
  7 15  1  0  0  0  0
  8  7  1  0  0  0  0
  8 16  1  0  0  0  0
  9 28  1  0  0  0  0
  9  8  2  0  0  0  0
 10  5  2  0  0  0  0
 10  9  1  0  0  0  0
 11  2  1  0  0  0  0
 12  3  1  0  0  0  0
 17 18  2  0  0  0  0
 17 22  1  0  0  0  0
 18 19  1  0  0  0  0
 19 24  1  0  0  0  0
 19 20  2  0  0  0  0
 21  1  1  0  0  0  0
 21 20  1  0  0  0  0
 22 21  2  0  0  0  0
 23 17  1  0  0  0  0
 25 18  1  0  0  0  0
 25 27  1  0  0  0  0
 26 25  1  0  0  0  0
 28 32  1  0  0  0  0
 29 28  1  0  0  0  0
 29 30  1  0  0  0  0
 30 31  1  0  0  0  0
 32 31  1  0  0  0  0
M  END
>  <minimizedAffinity>
-5.87325096

$$$$
