
 OpenBabel03242517513D

 15 16  0  0  0  0  0  0  0  0999 V2000
   37.1030   30.9050   38.1480 C   0  0  0  0  0  0  0  0  0  0  0  0
   37.4190   32.2530   38.3870 C   0  0  0  0  0  0  0  0  0  0  0  0
   37.3540   32.6980   39.7110 C   0  0  0  0  0  0  0  0  0  0  0  0
   36.9930   31.8080   40.6700 N   0  0  0  0  0  0  0  0  0  0  0  0
   36.6990   30.5310   40.3980 C   0  0  0  0  0  0  0  0  0  0  0  0
   36.7560   30.0890   39.1410 N   0  0  0  0  0  0  0  0  0  0  0  0
   37.1740   30.6410   37.1180 H   0  0  0  0  0  0  0  0  0  0  0  0
   37.7100   33.0180   37.7090 H   0  0  0  0  0  0  0  0  0  0  0  0
   37.5520   33.6770   40.1170 H   0  0  0  0  0  0  0  0  0  0  0  0
   36.3260   29.6090   41.3810 O   0  0  0  0  0  0  0  0  0  0  0  0
   37.3370   28.6940   41.7900 C   0  0  0  0  0  3  0  0  0  0  0  0
   37.4520   28.6930   43.3110 C   0  0  0  0  0  2  0  0  0  0  0  0
   36.5680   27.4960   43.6720 C   0  0  0  0  0  2  0  0  0  0  0  0
   37.0800   26.4970   42.6360 C   0  0  0  0  0  2  0  0  0  0  0  0
   36.9000   27.3230   41.3750 C   0  0  0  0  0  2  0  0  0  0  0  0
  1  2  2  0  0  0  0
  1  6  1  0  0  0  0
  2  3  1  0  0  0  0
  3  9  1  0  0  0  0
  3  4  2  0  0  0  0
  5  4  1  0  0  0  0
  5 10  1  0  0  0  0
  6  5  2  0  0  0  0
  7  1  1  0  0  0  0
  8  2  1  0  0  0  0
 10 11  1  0  0  0  0
 11 12  1  0  0  0  0
 12 13  1  0  0  0  0
 14 13  1  0  0  0  0
 15 11  1  0  0  0  0
 15 14  1  0  0  0  0
M  END
>  <minimizedAffinity>
-4.02783728

$$$$

 OpenBabel03242517513D

 15 16  0  0  0  0  0  0  0  0999 V2000
   37.3390   32.6740   39.5600 C   0  0  0  0  0  0  0  0  0  0  0  0
   38.6450   33.1010   39.8530 C   0  0  0  0  0  0  0  0  0  0  0  0
   39.3450   32.3900   40.8320 C   0  0  0  0  0  0  0  0  0  0  0  0
   38.7220   31.3430   41.4310 N   0  0  0  0  0  0  0  0  0  0  0  0
   37.4750   30.9690   41.1230 C   0  0  0  0  0  0  0  0  0  0  0  0
   36.7930   31.6370   40.1910 N   0  0  0  0  0  0  0  0  0  0  0  0
   36.8720   33.2640   38.8060 H   0  0  0  0  0  0  0  0  0  0  0  0
   39.2120   33.9010   39.4410 H   0  0  0  0  0  0  0  0  0  0  0  0
   40.3430   32.5410   41.2100 H   0  0  0  0  0  0  0  0  0  0  0  0
   36.8290   29.8920   41.7360 O   0  0  0  0  0  0  0  0  0  0  0  0
   37.6440   28.7610   42.0230 C   0  0  0  0  0  3  0  0  0  0  0  0
   37.6800   28.5140   43.5280 C   0  0  0  0  0  2  0  0  0  0  0  0
   36.5840   27.4550   43.6800 C   0  0  0  0  0  2  0  0  0  0  0  0
   36.9680   26.5440   42.5140 C   0  0  0  0  0  2  0  0  0  0  0  0
   36.9980   27.5660   41.3920 C   0  0  0  0  0  2  0  0  0  0  0  0
  1  2  2  0  0  0  0
  1  6  1  0  0  0  0
  2  3  1  0  0  0  0
  3  9  1  0  0  0  0
  3  4  2  0  0  0  0
  5  4  1  0  0  0  0
  5 10  1  0  0  0  0
  6  5  2  0  0  0  0
  7  1  1  0  0  0  0
  8  2  1  0  0  0  0
 10 11  1  0  0  0  0
 11 12  1  0  0  0  0
 12 13  1  0  0  0  0
 14 13  1  0  0  0  0
 15 11  1  0  0  0  0
 15 14  1  0  0  0  0
M  END
>  <minimizedAffinity>
-3.99397135

$$$$

 OpenBabel03242517513D

 15 16  0  0  0  0  0  0  0  0999 V2000
   36.8780   27.2930   41.3350 C   0  0  0  0  0  0  0  0  0  0  0  0
   37.3680   26.9760   42.6130 C   0  0  0  0  0  0  0  0  0  0  0  0
   37.7060   28.0430   43.4510 C   0  0  0  0  0  0  0  0  0  0  0  0
   37.5410   29.3060   42.9780 N   0  0  0  0  0  0  0  0  0  0  0  0
   37.0710   29.5640   41.7530 C   0  0  0  0  0  0  0  0  0  0  0  0
   36.7430   28.5580   40.9410 N   0  0  0  0  0  0  0  0  0  0  0  0
   36.6440   26.4300   40.7570 H   0  0  0  0  0  0  0  0  0  0  0  0
   37.5300   26.0290   43.0670 H   0  0  0  0  0  0  0  0  0  0  0  0
   38.0940   28.0320   44.4560 H   0  0  0  0  0  0  0  0  0  0  0  0
   36.8980   30.8620   41.2610 O   0  0  0  0  0  0  0  0  0  0  0  0
   37.8490   31.2900   40.2920 C   0  0  0  0  0  3  0  0  0  0  0  0
   37.1320   31.9460   39.1160 C   0  0  0  0  0  2  0  0  0  0  0  0
   37.2250   33.4250   39.5010 C   0  0  0  0  0  2  0  0  0  0  0  0
   38.6940   33.4720   39.9220 C   0  0  0  0  0  2  0  0  0  0  0  0
   38.7060   32.3390   40.9320 C   0  0  0  0  0  2  0  0  0  0  0  0
  1  2  1  0  0  0  0
  2  8  1  0  0  0  0
  2  3  2  0  0  0  0
  3  9  1  0  0  0  0
  4  3  1  0  0  0  0
  5  4  2  0  0  0  0
  6  1  2  0  0  0  0
  6  5  1  0  0  0  0
  7  1  1  0  0  0  0
 10  5  1  0  0  0  0
 11 15  1  0  0  0  0
 11 10  1  0  0  0  0
 12 13  1  0  0  0  0
 12 11  1  0  0  0  0
 13 14  1  0  0  0  0
 14 15  1  0  0  0  0
M  END
>  <minimizedAffinity>
-3.81519556

$$$$

 OpenBabel03242517513D

 15 16  0  0  0  0  0  0  0  0999 V2000
   38.4720   24.3810   42.3900 C   0  0  0  0  0  0  0  0  0  0  0  0
   39.6510   24.6010   43.1210 C   0  0  0  0  0  0  0  0  0  0  0  0
   39.8720   25.8940   43.6050 C   0  0  0  0  0  0  0  0  0  0  0  0
   38.9410   26.8450   43.3370 N   0  0  0  0  0  0  0  0  0  0  0  0
   37.8300   26.5940   42.6350 C   0  0  0  0  0  0  0  0  0  0  0  0
   37.6040   25.3660   42.1660 N   0  0  0  0  0  0  0  0  0  0  0  0
   38.3750   23.3750   42.0550 H   0  0  0  0  0  0  0  0  0  0  0  0
   40.4310   23.9260   43.3800 H   0  0  0  0  0  0  0  0  0  0  0  0
   40.6960   26.2810   44.1810 H   0  0  0  0  0  0  0  0  0  0  0  0
   36.8680   27.5700   42.3560 O   0  0  0  0  0  0  0  0  0  0  0  0
   37.1270   28.3910   41.2230 C   0  0  0  0  0  3  0  0  0  0  0  0
   36.1310   28.0720   40.1120 C   0  0  0  0  0  2  0  0  0  0  0  0
   35.0720   29.1530   40.3470 C   0  0  0  0  0  2  0  0  0  0  0  0
   35.9950   30.3560   40.5380 C   0  0  0  0  0  2  0  0  0  0  0  0
   36.8960   29.8130   41.6320 C   0  0  0  0  0  2  0  0  0  0  0  0
  1  2  1  0  0  0  0
  2  8  1  0  0  0  0
  2  3  2  0  0  0  0
  3  9  1  0  0  0  0
  4  3  1  0  0  0  0
  5  4  2  0  0  0  0
  6  1  2  0  0  0  0
  6  5  1  0  0  0  0
  7  1  1  0  0  0  0
 10  5  1  0  0  0  0
 11 15  1  0  0  0  0
 11 10  1  0  0  0  0
 12 13  1  0  0  0  0
 12 11  1  0  0  0  0
 13 14  1  0  0  0  0
 14 15  1  0  0  0  0
M  END
>  <minimizedAffinity>
-3.78392649

$$$$

 OpenBabel03242517513D

 15 16  0  0  0  0  0  0  0  0999 V2000
   39.1780   28.1560   43.1280 C   0  0  0  0  0  0  0  0  0  0  0  0
   38.4290   26.9770   43.2760 C   0  0  0  0  0  0  0  0  0  0  0  0
   37.1200   26.9850   42.7850 C   0  0  0  0  0  0  0  0  0  0  0  0
   36.6620   28.1230   42.2020 N   0  0  0  0  0  0  0  0  0  0  0  0
   37.4100   29.2260   42.0810 C   0  0  0  0  0  0  0  0  0  0  0  0
   38.6610   29.2350   42.5440 N   0  0  0  0  0  0  0  0  0  0  0  0
   40.1620   28.0720   43.5260 H   0  0  0  0  0  0  0  0  0  0  0  0
   38.6980   26.0460   43.7140 H   0  0  0  0  0  0  0  0  0  0  0  0
   36.3780   26.2040   42.7910 H   0  0  0  0  0  0  0  0  0  0  0  0
   36.9440   30.4000   41.4810 O   0  0  0  0  0  0  0  0  0  0  0  0
   37.8430   31.0360   40.5790 C   0  0  0  0  0  3  0  0  0  0  0  0
   37.9390   30.2300   39.2870 C   0  0  0  0  0  2  0  0  0  0  0  0
   36.9240   30.9650   38.4060 C   0  0  0  0  0  2  0  0  0  0  0  0
   37.3360   32.4040   38.7130 C   0  0  0  0  0  2  0  0  0  0  0  0
   37.2640   32.3720   40.2290 C   0  0  0  0  0  2  0  0  0  0  0  0
  1  2  1  0  0  0  0
  1  7  1  0  0  0  0
  2  8  1  0  0  0  0
  3  9  1  0  0  0  0
  3  2  2  0  0  0  0
  4  3  1  0  0  0  0
  5  4  2  0  0  0  0
  5  6  1  0  0  0  0
  6  1  2  0  0  0  0
 10  5  1  0  0  0  0
 11 10  1  0  0  0  0
 12 11  1  0  0  0  0
 13 14  1  0  0  0  0
 13 12  1  0  0  0  0
 14 15  1  0  0  0  0
 15 11  1  0  0  0  0
M  END
>  <minimizedAffinity>
-3.71480417

$$$$

 OpenBabel03242517513D

 15 16  0  0  0  0  0  0  0  0999 V2000
   40.3680   32.3600   39.6300 C   0  0  0  0  0  0  0  0  0  0  0  0
   39.6290   33.5150   39.9370 C   0  0  0  0  0  0  0  0  0  0  0  0
   38.4360   33.3410   40.6440 C   0  0  0  0  0  0  0  0  0  0  0  0
   38.0720   32.0780   40.9840 N   0  0  0  0  0  0  0  0  0  0  0  0
   38.8050   31.0040   40.6720 C   0  0  0  0  0  0  0  0  0  0  0  0
   39.9470   31.1520   39.9970 N   0  0  0  0  0  0  0  0  0  0  0  0
   41.2620   32.5730   39.0910 H   0  0  0  0  0  0  0  0  0  0  0  0
   39.8310   34.5350   39.7150 H   0  0  0  0  0  0  0  0  0  0  0  0
   37.7220   34.0750   40.9800 H   0  0  0  0  0  0  0  0  0  0  0  0
   38.4350   29.7010   41.0200 O   0  0  0  0  0  0  0  0  0  0  0  0
   37.3990   29.5880   41.9890 C   0  0  0  0  0  3  0  0  0  0  0  0
   36.3920   28.5290   41.5510 C   0  0  0  0  0  2  0  0  0  0  0  0
   36.9020   27.3030   42.3130 C   0  0  0  0  0  2  0  0  0  0  0  0
   37.1360   27.9480   43.6790 C   0  0  0  0  0  2  0  0  0  0  0  0
   38.0230   29.1080   43.2640 C   0  0  0  0  0  2  0  0  0  0  0  0
  1  2  2  0  0  0  0
  1  6  1  0  0  0  0
  2  3  1  0  0  0  0
  3  9  1  0  0  0  0
  3  4  2  0  0  0  0
  5  4  1  0  0  0  0
  5 10  1  0  0  0  0
  6  5  2  0  0  0  0
  7  1  1  0  0  0  0
  8  2  1  0  0  0  0
 10 11  1  0  0  0  0
 11 15  1  0  0  0  0
 12 11  1  0  0  0  0
 12 13  1  0  0  0  0
 13 14  1  0  0  0  0
 15 14  1  0  0  0  0
M  END
>  <minimizedAffinity>
-3.66272092

$$$$

 OpenBabel03242517513D

 15 16  0  0  0  0  0  0  0  0999 V2000
   35.5200   29.7990   40.3810 C   0  0  0  0  0  0  0  0  0  0  0  0
   36.3960   30.8800   40.5760 C   0  0  0  0  0  0  0  0  0  0  0  0
   37.4900   30.6720   41.4210 C   0  0  0  0  0  0  0  0  0  0  0  0
   37.6320   29.4500   41.9950 N   0  0  0  0  0  0  0  0  0  0  0  0
   36.7740   28.4460   41.7840 C   0  0  0  0  0  0  0  0  0  0  0  0
   35.7250   28.6270   40.9790 N   0  0  0  0  0  0  0  0  0  0  0  0
   34.7140   30.0340   39.7270 H   0  0  0  0  0  0  0  0  0  0  0  0
   36.3680   31.8640   40.1740 H   0  0  0  0  0  0  0  0  0  0  0  0
   38.2760   31.3510   41.7080 H   0  0  0  0  0  0  0  0  0  0  0  0
   36.9150   27.1850   42.3720 O   0  0  0  0  0  0  0  0  0  0  0  0
   37.3420   26.1400   41.5040 C   0  0  0  0  0  3  0  0  0  0  0  0
   38.8660   26.0840   41.4700 C   0  0  0  0  0  2  0  0  0  0  0  0
   39.1450   24.9980   42.5140 C   0  0  0  0  0  2  0  0  0  0  0  0
   38.1020   23.9700   42.0750 C   0  0  0  0  0  2  0  0  0  0  0  0
   36.8620   24.8450   42.0850 C   0  0  0  0  0  2  0  0  0  0  0  0
  1  2  2  0  0  0  0
  1  6  1  0  0  0  0
  2  3  1  0  0  0  0
  3  9  1  0  0  0  0
  3  4  2  0  0  0  0
  5  4  1  0  0  0  0
  5 10  1  0  0  0  0
  6  5  2  0  0  0  0
  7  1  1  0  0  0  0
  8  2  1  0  0  0  0
 11 15  1  0  0  0  0
 11 10  1  0  0  0  0
 12 11  1  0  0  0  0
 12 13  1  0  0  0  0
 14 15  1  0  0  0  0
 14 13  1  0  0  0  0
M  END
>  <minimizedAffinity>
-3.61730981

$$$$

 OpenBabel03242517513D

 15 16  0  0  0  0  0  0  0  0999 V2000
   39.5830   27.6260   42.6130 C   0  0  0  0  0  0  0  0  0  0  0  0
   38.6040   27.3390   43.5790 C   0  0  0  0  0  0  0  0  0  0  0  0
   37.5230   28.2200   43.6750 C   0  0  0  0  0  0  0  0  0  0  0  0
   37.4910   29.2880   42.8360 N   0  0  0  0  0  0  0  0  0  0  0  0
   38.4450   29.5250   41.9290 C   0  0  0  0  0  0  0  0  0  0  0  0
   39.4830   28.6940   41.8240 N   0  0  0  0  0  0  0  0  0  0  0  0
   40.3720   26.9120   42.6000 H   0  0  0  0  0  0  0  0  0  0  0  0
   38.5440   26.5360   44.2730 H   0  0  0  0  0  0  0  0  0  0  0  0
   36.6710   28.1940   44.3340 H   0  0  0  0  0  0  0  0  0  0  0  0
   38.4160   30.6220   41.0630 O   0  0  0  0  0  0  0  0  0  0  0  0
   37.1760   30.8640   40.4080 C   0  0  0  0  0  3  0  0  0  0  0  0
   37.1870   32.2500   39.7690 C   0  0  0  0  0  2  0  0  0  0  0  0
   37.5980   31.9090   38.3340 C   0  0  0  0  0  2  0  0  0  0  0  0
   36.6770   30.7130   38.0970 C   0  0  0  0  0  2  0  0  0  0  0  0
   37.0470   29.8640   39.3000 C   0  0  0  0  0  2  0  0  0  0  0  0
  1  2  1  0  0  0  0
  2  3  2  0  0  0  0
  2  8  1  0  0  0  0
  3  9  1  0  0  0  0
  4  3  1  0  0  0  0
  5  4  2  0  0  0  0
  6  5  1  0  0  0  0
  6  1  2  0  0  0  0
  7  1  1  0  0  0  0
 10  5  1  0  0  0  0
 11 10  1  0  0  0  0
 12 11  1  0  0  0  0
 13 12  1  0  0  0  0
 14 13  1  0  0  0  0
 14 15  1  0  0  0  0
 15 11  1  0  0  0  0
M  END
>  <minimizedAffinity>
-3.52005386

$$$$

 OpenBabel03242517513D

 15 16  0  0  0  0  0  0  0  0999 V2000
   42.9700   29.0970   43.3340 C   0  0  0  0  0  0  0  0  0  0  0  0
   43.1110   30.4940   43.3230 C   0  0  0  0  0  0  0  0  0  0  0  0
   42.0000   31.2450   42.9280 C   0  0  0  0  0  0  0  0  0  0  0  0
   40.8670   30.5810   42.5820 N   0  0  0  0  0  0  0  0  0  0  0  0
   40.7750   29.2460   42.6050 C   0  0  0  0  0  0  0  0  0  0  0  0
   41.8260   28.5140   42.9800 N   0  0  0  0  0  0  0  0  0  0  0  0
   43.8560   28.5950   43.6440 H   0  0  0  0  0  0  0  0  0  0  0  0
   43.9480   31.0990   43.5750 H   0  0  0  0  0  0  0  0  0  0  0  0
   41.8850   32.3140   42.8470 H   0  0  0  0  0  0  0  0  0  0  0  0
   39.6120   28.5560   42.2500 O   0  0  0  0  0  0  0  0  0  0  0  0
   38.4680   28.8130   43.0560 C   0  0  0  0  0  3  0  0  0  0  0  0
   37.3110   29.2850   42.1800 C   0  0  0  0  0  2  0  0  0  0  0  0
   36.5550   27.9720   41.9570 C   0  0  0  0  0  2  0  0  0  0  0  0
   36.5640   27.4430   43.3910 C   0  0  0  0  0  2  0  0  0  0  0  0
   38.0530   27.5160   43.6800 C   0  0  0  0  0  2  0  0  0  0  0  0
  1  7  1  0  0  0  0
  2  1  1  0  0  0  0
  2  8  1  0  0  0  0
  3  2  2  0  0  0  0
  4  5  2  0  0  0  0
  4  3  1  0  0  0  0
  5  6  1  0  0  0  0
  6  1  2  0  0  0  0
  9  3  1  0  0  0  0
 10  5  1  0  0  0  0
 10 11  1  0  0  0  0
 11 15  1  0  0  0  0
 12 11  1  0  0  0  0
 13 12  1  0  0  0  0
 13 14  1  0  0  0  0
 14 15  1  0  0  0  0
M  END
>  <minimizedAffinity>
-3.38168621

$$$$
