
 OpenBabel03252509293D

 17 18  0  0  0  0  0  0  0  0999 V2000
   44.7680   36.1640   44.0880 C   0  0  0  0  0  0  0  0  0  0  0  0
   45.2540   35.6610   42.8560 C   0  0  0  0  0  0  0  0  0  0  0  0
   45.7540   34.3580   42.8610 C   0  0  0  0  0  0  0  0  0  0  0  0
   45.7520   33.6420   44.0320 N   0  0  0  0  0  0  0  0  0  0  0  0
   45.2710   34.1860   45.1790 C   0  0  0  0  0  0  0  0  0  0  0  0
   44.7860   35.4290   45.2080 N   0  0  0  0  0  0  0  0  0  0  0  0
   44.3760   37.1640   44.1200 H   0  0  0  0  0  0  0  0  0  0  0  0
   45.2270   36.2780   41.9680 H   0  0  0  0  0  0  0  0  0  0  0  0
   45.3210   33.5280   46.0360 H   0  0  0  0  0  0  0  0  0  0  0  0
   46.2580   33.8250   41.5970 C   0  0  0  0  0  0  0  0  0  0  0  0
   45.8560   34.3900   40.7420 H   0  0  0  0  0  0  0  0  0  0  0  0
   46.0600   32.7260   41.5280 H   0  0  0  0  0  0  0  0  0  0  0  0
   47.7640   33.9770   41.6230 C   0  0  0  0  0  0  0  0  0  0  0  0
   48.2140   35.0950   40.7170 C   0  0  0  0  0  0  0  0  0  0  0  0
   49.1790   35.9490   41.5210 C   0  0  0  0  0  0  0  0  0  0  0  0
   49.6480   34.9440   42.5830 C   0  0  0  0  0  0  0  0  0  0  0  0
   48.2850   34.3870   42.9640 C   0  0  0  0  0  0  0  0  0  0  0  0
  1  7  1  0  0  0  0
  1  6  1  0  0  0  0
  2  3  1  0  0  0  0
  2  1  2  0  0  0  0
  3  4  2  0  0  0  0
  4  5  1  0  0  0  0
  5  6  2  0  0  0  0
  5  9  1  0  0  0  0
  8  2  1  0  0  0  0
 10 13  1  0  0  0  0
 10  3  1  0  0  0  0
 11 10  1  0  0  0  0
 12 10  1  0  0  0  0
 13 17  1  0  0  0  0
 14 15  1  0  0  0  0
 14 13  1  0  0  0  0
 15 16  1  0  0  0  0
 16 17  1  0  0  0  0
M  END
>  <minimizedAffinity>
-4.67860699

>  <minimizedRMSD>
1.72082925

$$$$
