
 OpenBabel03252509303D

 17 18  0  0  0  0  0  0  0  0999 V2000
   44.6120   35.9840   44.4450 C   0  0  0  0  0  0  0  0  0  0  0  0
   45.3970   36.0150   43.2650 C   0  0  0  0  0  0  0  0  0  0  0  0
   46.3140   34.9780   43.0930 C   0  0  0  0  0  0  0  0  0  0  0  0
   46.4110   34.0000   44.0500 N   0  0  0  0  0  0  0  0  0  0  0  0
   45.6270   34.0310   45.1580 C   0  0  0  0  0  0  0  0  0  0  0  0
   44.7400   35.0090   45.3540 N   0  0  0  0  0  0  0  0  0  0  0  0
   43.8960   36.7690   44.6100 H   0  0  0  0  0  0  0  0  0  0  0  0
   45.2720   36.8160   42.5490 H   0  0  0  0  0  0  0  0  0  0  0  0
   45.7930   33.2090   45.8410 H   0  0  0  0  0  0  0  0  0  0  0  0
   47.1310   34.9960   41.8800 C   0  0  0  0  0  0  0  0  0  0  0  0
   48.1050   34.5140   42.0530 H   0  0  0  0  0  0  0  0  0  0  0  0
   47.2220   36.0390   41.4850 H   0  0  0  0  0  0  0  0  0  0  0  0
   46.3740   34.2150   40.8270 C   0  0  0  0  0  3  0  0  0  0  0  0
   46.6010   32.7320   40.9800 C   0  0  0  0  0  2  0  0  0  0  0  0
   45.2350   32.0720   40.9290 C   0  0  0  0  0  2  0  0  0  0  0  0
   44.4220   33.1330   40.1750 C   0  0  0  0  0  2  0  0  0  0  0  0
   44.8900   34.3520   40.9540 C   0  0  0  0  0  2  0  0  0  0  0  0
  1  7  1  0  0  0  0
  1  6  1  0  0  0  0
  2  1  2  0  0  0  0
  3  2  1  0  0  0  0
  3  4  2  0  0  0  0
  4  5  1  0  0  0  0
  5  6  2  0  0  0  0
  5  9  1  0  0  0  0
  8  2  1  0  0  0  0
 10 11  1  0  0  0  0
 10  3  1  0  0  0  0
 12 10  1  0  0  0  0
 13 17  1  0  0  0  0
 13 14  1  0  0  0  0
 13 10  1  0  0  0  0
 15 14  1  0  0  0  0
 16 15  1  0  0  0  0
 16 17  1  0  0  0  0
M  END
>  <minimizedAffinity>
-3.67127824

>  <minimizedRMSD>
2.63122153

$$$$
