
 OpenBabel03252509303D

 17 18  0  0  0  0  0  0  0  0999 V2000
   44.5360   36.0690   44.4580 C   0  0  0  0  0  0  0  0  0  0  0  0
   45.3630   35.8580   43.3260 C   0  0  0  0  0  0  0  0  0  0  0  0
   46.2160   34.7540   43.3680 C   0  0  0  0  0  0  0  0  0  0  0  0
   46.2150   33.9450   44.4760 N   0  0  0  0  0  0  0  0  0  0  0  0
   45.3960   34.2060   45.5270 C   0  0  0  0  0  0  0  0  0  0  0  0
   44.5680   35.2530   45.5190 N   0  0  0  0  0  0  0  0  0  0  0  0
   43.8670   36.9110   44.4590 H   0  0  0  0  0  0  0  0  0  0  0  0
   45.3160   36.5340   42.4830 H   0  0  0  0  0  0  0  0  0  0  0  0
   45.4830   33.5000   46.3420 H   0  0  0  0  0  0  0  0  0  0  0  0
   47.0740   34.5230   42.2080 C   0  0  0  0  0  0  0  0  0  0  0  0
   47.2290   35.4520   41.6390 H   0  0  0  0  0  0  0  0  0  0  0  0
   46.6700   33.6880   41.5820 H   0  0  0  0  0  0  0  0  0  0  0  0
   48.4090   34.0400   42.7350 C   0  0  0  0  0  3  0  0  0  0  0  0
   48.7590   32.6870   42.1720 C   0  0  0  0  0  2  0  0  0  0  0  0
   50.1920   32.7770   41.6740 C   0  0  0  0  0  2  0  0  0  0  0  0
   50.7210   33.9500   42.5110 C   0  0  0  0  0  2  0  0  0  0  0  0
   49.5530   34.9010   42.3040 C   0  0  0  0  0  2  0  0  0  0  0  0
  1  7  1  0  0  0  0
  1  6  1  0  0  0  0
  2  3  1  0  0  0  0
  2  1  2  0  0  0  0
  3  4  2  0  0  0  0
  4  5  1  0  0  0  0
  5  9  1  0  0  0  0
  6  5  2  0  0  0  0
  8  2  1  0  0  0  0
 10 13  1  0  0  0  0
 10  3  1  0  0  0  0
 11 10  1  0  0  0  0
 12 10  1  0  0  0  0
 14 13  1  0  0  0  0
 15 14  1  0  0  0  0
 15 16  1  0  0  0  0
 17 16  1  0  0  0  0
 17 13  1  0  0  0  0
M  END
>  <minimizedAffinity>
-4.4184885

>  <minimizedRMSD>
1.83132625

$$$$
