
     RDKit          3D

 26 27  0  0  0  0  0  0  0  0999 V2000
   44.3882   35.7674   44.4271 C   0  0  0  0  0  0  0  0  0  0  0  0
   44.6655   35.0657   43.2607 C   0  0  0  0  0  0  0  0  0  0  0  0
   45.2933   33.8244   43.3891 C   0  0  0  0  0  0  0  0  0  0  0  0
   45.5876   33.3909   44.6340 N   0  0  0  0  0  0  0  0  0  0  0  0
   45.3077   34.0913   45.7481 C   0  0  0  0  0  0  0  0  0  0  0  0
   44.6983   35.3020   45.6685 N   0  0  0  0  0  0  0  0  0  0  0  0
   44.2584   35.7242   42.0095 C   0  0  0  0  0  0  0  0  0  0  0  0
   43.9029   36.7418   44.4440 H   0  0  0  0  0  0  0  0  0  0  0  0
   45.4879   33.3196   42.4718 H   0  0  0  0  0  0  0  0  0  0  0  0
   45.5539   33.7195   46.7167 H   0  0  0  0  0  0  0  0  0  0  0  0
   44.3067   36.8008   42.0971 H   0  0  0  0  0  0  0  0  0  0  0  0
   44.9425   35.4240   41.1743 H   0  0  0  0  0  0  0  0  0  0  0  0
   42.8520   35.3217   41.6537 C   0  0  0  0  0  0  0  0  0  0  0  0
   42.4973   35.6603   40.2187 C   0  0  0  0  0  0  0  0  0  0  0  0
   41.0137   35.3254   40.2354 C   0  0  0  0  0  0  0  0  0  0  0  0
   40.5624   35.9923   41.5198 C   0  0  0  0  0  0  0  0  0  0  0  0
   41.8162   36.1305   42.3904 C   0  0  0  0  0  0  0  0  0  0  0  0
   42.7282   34.2314   41.8567 H   0  0  0  0  0  0  0  0  0  0  0  0
   43.0583   35.0468   39.4970 H   0  0  0  0  0  0  0  0  0  0  0  0
   42.6631   36.7517   40.0956 H   0  0  0  0  0  0  0  0  0  0  0  0
   40.4819   35.7122   39.3492 H   0  0  0  0  0  0  0  0  0  0  0  0
   40.9610   34.2302   40.3378 H   0  0  0  0  0  0  0  0  0  0  0  0
   40.0821   36.9514   41.3023 H   0  0  0  0  0  0  0  0  0  0  0  0
   39.8582   35.2646   42.0122 H   0  0  0  0  0  0  0  0  0  0  0  0
   42.1198   37.1936   42.3198 H   0  0  0  0  0  0  0  0  0  0  0  0
   41.6162   35.7792   43.4120 H   0  0  0  0  0  0  0  0  0  0  0  0
  1  6  2  0
  2  3  2  0
  2  1  1  0
  3  4  1  0
  4  5  2  0
  6  5  1  0
  7  2  1  0
  1  8  1  0
  3  9  1  0
  5 10  1  0
  7 11  1  0
  7 12  1  0
 13 14  1  0
 14 15  1  0
 15 16  1  0
 16 17  1  0
 17 13  1  0
 13 18  1  0
 14 19  1  0
 14 20  1  0
 15 21  1  0
 15 22  1  0
 16 23  1  0
 16 24  1  0
 17 25  1  0
 17 26  1  0
  7 13  1  0
M  ISO  5   8  14   9  14  10  14  11   8  12   8
M  END
>  <DihAtoms>  (1) 
1,6,12,13

>  <DihDeg>  (1) 
-59.998963838777236

$$$$
