
 OpenBabel03242515363D

 28 31  0  0  0  0  0  0  0  0999 V2000
   41.4170   33.4660   38.1200 C   0  0  0  0  0  0  0  0  0  0  0  0
   40.4960   32.5720   38.6720 C   0  0  0  0  0  0  0  0  0  0  0  0
   40.5510   31.2310   38.3620 C   0  0  0  0  0  0  0  0  0  0  0  0
   41.5060   30.7420   37.5080 C   0  0  0  0  0  0  0  0  0  0  0  0
   42.4380   31.6260   36.9440 C   0  0  0  0  0  0  0  0  0  0  0  0
   42.3870   32.9760   37.2540 C   0  0  0  0  0  0  0  0  0  0  0  0
   43.3060   30.8910   36.1100 O   0  0  0  0  0  0  0  0  0  0  0  0
   42.6680   29.6360   35.9290 C   0  0  0  0  0  0  0  0  0  0  0  0
   41.7990   29.4560   37.0190 O   0  0  0  0  0  0  0  0  0  0  0  0
   41.3980   34.5100   38.3420 H   0  0  0  0  0  0  0  0  0  0  0  0
   39.8320   30.5630   38.7990 H   0  0  0  0  0  0  0  0  0  0  0  0
   43.0990   33.6960   36.8320 H   0  0  0  0  0  0  0  0  0  0  0  0
   43.4860   28.8680   36.0120 H   0  0  0  0  0  0  0  0  0  0  0  0
   42.1930   29.5510   34.9390 H   0  0  0  0  0  0  0  0  0  0  0  0
   39.2740   33.2750   39.7810 S   0  0  0  0  0  0  0  0  0  0  0  0
   38.3680   31.9230   40.5990 C   0  0  0  0  0  0  0  0  0  0  0  0
   37.0340   31.8040   40.1750 C   0  0  0  0  0  0  0  0  0  0  0  0
   36.2790   30.7710   40.7750 C   0  0  0  0  0  0  0  0  0  0  0  0
   36.8640   29.9840   41.6890 N   0  0  0  0  0  0  0  0  0  0  0  0
   38.1510   30.1370   42.0640 C   0  0  0  0  0  0  0  0  0  0  0  0
   38.8860   31.1030   41.5140 N   0  0  0  0  0  0  0  0  0  0  0  0
   36.5000   32.3830   39.4620 H   0  0  0  0  0  0  0  0  0  0  0  0
   35.2550   30.6130   40.5080 H   0  0  0  0  0  0  0  0  0  0  0  0
   38.7370   29.2350   43.0780 C   0  0  0  0  0  3  0  0  0  0  0  0
   37.9810   27.9160   43.1570 C   0  0  0  0  0  2  0  0  0  0  0  0
   39.0070   26.8760   43.5290 C   0  0  0  0  0  2  0  0  0  0  0  0
   40.3550   27.5190   43.4000 C   0  0  0  0  0  2  0  0  0  0  0  0
   40.1420   28.8560   42.7210 C   0  0  0  0  0  2  0  0  0  0  0  0
  1 10  1  0  0  0  0
  1  2  1  0  0  0  0
  2 15  1  0  0  0  0
  3  2  2  0  0  0  0
  3 11  1  0  0  0  0
  4  3  1  0  0  0  0
  5  6  1  0  0  0  0
  5  4  2  0  0  0  0
  6  1  2  0  0  0  0
  7  5  1  0  0  0  0
  8 13  1  0  0  0  0
  8  7  1  0  0  0  0
  8  9  1  0  0  0  0
  9  4  1  0  0  0  0
 12  6  1  0  0  0  0
 14  8  1  0  0  0  0
 15 16  1  0  0  0  0
 16 21  1  0  0  0  0
 17 16  2  0  0  0  0
 17 18  1  0  0  0  0
 18 19  2  0  0  0  0
 19 20  1  0  0  0  0
 20 24  1  0  0  0  0
 21 20  2  0  0  0  0
 22 17  1  0  0  0  0
 23 18  1  0  0  0  0
 24 25  1  0  0  0  0
 25 26  1  0  0  0  0
 27 26  1  0  0  0  0
 28 24  1  0  0  0  0
 28 27  1  0  0  0  0
M  END
>  <minimizedAffinity>
-5.62333679

$$$$

 OpenBabel03242515363D

 28 31  0  0  0  0  0  0  0  0999 V2000
   39.1900   30.3490   42.5370 C   0  0  0  0  0  0  0  0  0  0  0  0
   37.9660   29.6820   42.4270 C   0  0  0  0  0  0  0  0  0  0  0  0
   37.0970   29.9820   41.4010 C   0  0  0  0  0  0  0  0  0  0  0  0
   37.4070   30.9360   40.4680 C   0  0  0  0  0  0  0  0  0  0  0  0
   38.6310   31.6160   40.5650 C   0  0  0  0  0  0  0  0  0  0  0  0
   39.5090   31.3170   41.5940 C   0  0  0  0  0  0  0  0  0  0  0  0
   38.7170   32.5390   39.5010 O   0  0  0  0  0  0  0  0  0  0  0  0
   37.3980   32.6290   38.9840 C   0  0  0  0  0  0  0  0  0  0  0  0
   36.7350   31.4420   39.3400 O   0  0  0  0  0  0  0  0  0  0  0  0
   39.8820   30.1380   43.3220 H   0  0  0  0  0  0  0  0  0  0  0  0
   36.1620   29.4550   41.3380 H   0  0  0  0  0  0  0  0  0  0  0  0
   40.4750   31.8280   41.7010 H   0  0  0  0  0  0  0  0  0  0  0  0
   37.5140   32.6340   37.8650 H   0  0  0  0  0  0  0  0  0  0  0  0
   36.8920   33.5550   39.2990 H   0  0  0  0  0  0  0  0  0  0  0  0
   37.6210   28.4450   43.6790 S   0  0  0  0  0  0  0  0  0  0  0  0
   38.4280   26.8820   43.2050 C   0  0  0  0  0  0  0  0  0  0  0  0
   39.7470   26.7670   43.6760 C   0  0  0  0  0  0  0  0  0  0  0  0
   40.4260   25.5740   43.3400 C   0  0  0  0  0  0  0  0  0  0  0  0
   39.7900   24.6450   42.6120 N   0  0  0  0  0  0  0  0  0  0  0  0
   38.5200   24.8010   42.1830 C   0  0  0  0  0  0  0  0  0  0  0  0
   37.8560   25.9170   42.4850 N   0  0  0  0  0  0  0  0  0  0  0  0
   40.3180   27.4500   44.2530 H   0  0  0  0  0  0  0  0  0  0  0  0
   41.4330   25.4070   43.6590 H   0  0  0  0  0  0  0  0  0  0  0  0
   37.8750   23.7400   41.3830 C   0  0  0  0  0  3  0  0  0  0  0  0
   36.4500   24.1140   41.0000 C   0  0  0  0  0  2  0  0  0  0  0  0
   36.2010   23.4710   39.6610 C   0  0  0  0  0  2  0  0  0  0  0  0
   37.5220   22.9740   39.1560 C   0  0  0  0  0  2  0  0  0  0  0  0
   38.5850   23.5340   40.0790 C   0  0  0  0  0  2  0  0  0  0  0  0
  1 10  1  0  0  0  0
  2  1  1  0  0  0  0
  2 15  1  0  0  0  0
  3  2  2  0  0  0  0
  4  5  2  0  0  0  0
  4  3  1  0  0  0  0
  5  6  1  0  0  0  0
  6 12  1  0  0  0  0
  6  1  2  0  0  0  0
  7  5  1  0  0  0  0
  8 14  1  0  0  0  0
  8  9  1  0  0  0  0
  8  7  1  0  0  0  0
  9  4  1  0  0  0  0
 11  3  1  0  0  0  0
 13  8  1  0  0  0  0
 16 17  1  0  0  0  0
 16 15  1  0  0  0  0
 17 22  1  0  0  0  0
 18 23  1  0  0  0  0
 18 17  2  0  0  0  0
 19 18  1  0  0  0  0
 20 21  1  0  0  0  0
 20 19  2  0  0  0  0
 21 16  2  0  0  0  0
 24 20  1  0  0  0  0
 25 24  1  0  0  0  0
 26 25  1  0  0  0  0
 27 26  1  0  0  0  0
 27 28  1  0  0  0  0
 28 24  1  0  0  0  0
M  END
>  <minimizedAffinity>
-5.57346678

$$$$

 OpenBabel03242515363D

 28 31  0  0  0  0  0  0  0  0999 V2000
   39.2990   31.9100   38.1310 C   0  0  0  0  0  0  0  0  0  0  0  0
   38.9830   32.6360   39.2830 C   0  0  0  0  0  0  0  0  0  0  0  0
   39.9400   33.4020   39.9110 C   0  0  0  0  0  0  0  0  0  0  0  0
   41.2200   33.4710   39.4260 C   0  0  0  0  0  0  0  0  0  0  0  0
   41.5550   32.7480   38.2710 C   0  0  0  0  0  0  0  0  0  0  0  0
   40.5950   31.9770   37.6350 C   0  0  0  0  0  0  0  0  0  0  0  0
   42.9140   32.9790   37.9750 O   0  0  0  0  0  0  0  0  0  0  0  0
   43.4520   33.5690   39.1490 C   0  0  0  0  0  0  0  0  0  0  0  0
   42.3780   34.1510   39.8450 O   0  0  0  0  0  0  0  0  0  0  0  0
   38.5780   31.3080   37.6240 H   0  0  0  0  0  0  0  0  0  0  0  0
   39.6730   33.9510   40.7960 H   0  0  0  0  0  0  0  0  0  0  0  0
   40.8210   31.3980   36.7300 H   0  0  0  0  0  0  0  0  0  0  0  0
   44.1180   34.4010   38.7890 H   0  0  0  0  0  0  0  0  0  0  0  0
   44.0510   32.8550   39.7350 H   0  0  0  0  0  0  0  0  0  0  0  0
   37.2920   32.5020   39.8650 S   0  0  0  0  0  0  0  0  0  0  0  0
   37.0750   30.8930   40.6900 C   0  0  0  0  0  0  0  0  0  0  0  0
   35.9040   30.2180   40.3040 C   0  0  0  0  0  0  0  0  0  0  0  0
   35.6810   28.9610   40.9110 C   0  0  0  0  0  0  0  0  0  0  0  0
   36.5750   28.4970   41.7950 N   0  0  0  0  0  0  0  0  0  0  0  0
   37.6870   29.1830   42.1340 C   0  0  0  0  0  0  0  0  0  0  0  0
   37.9220   30.3700   41.5770 N   0  0  0  0  0  0  0  0  0  0  0  0
   35.1520   30.5140   39.6170 H   0  0  0  0  0  0  0  0  0  0  0  0
   34.8130   28.3830   40.6730 H   0  0  0  0  0  0  0  0  0  0  0  0
   38.6330   28.6160   43.1170 C   0  0  0  0  0  3  0  0  0  0  0  0
   38.3510   27.1430   43.3810 C   0  0  0  0  0  2  0  0  0  0  0  0
   39.6880   26.5150   43.6800 C   0  0  0  0  0  2  0  0  0  0  0  0
   40.7390   27.5250   43.3300 C   0  0  0  0  0  2  0  0  0  0  0  0
   40.0400   28.6530   42.6010 C   0  0  0  0  0  2  0  0  0  0  0  0
  1  2  1  0  0  0  0
  2 15  1  0  0  0  0
  2  3  2  0  0  0  0
  3 11  1  0  0  0  0
  4  9  1  0  0  0  0
  4  3  1  0  0  0  0
  5  4  2  0  0  0  0
  6  1  2  0  0  0  0
  6  5  1  0  0  0  0
  7  5  1  0  0  0  0
  7  8  1  0  0  0  0
  8 14  1  0  0  0  0
  8  9  1  0  0  0  0
 10  1  1  0  0  0  0
 12  6  1  0  0  0  0
 13  8  1  0  0  0  0
 15 16  1  0  0  0  0
 16 21  1  0  0  0  0
 17 16  2  0  0  0  0
 17 18  1  0  0  0  0
 18 19  2  0  0  0  0
 19 20  1  0  0  0  0
 20 24  1  0  0  0  0
 21 20  2  0  0  0  0
 22 17  1  0  0  0  0
 23 18  1  0  0  0  0
 24 25  1  0  0  0  0
 25 26  1  0  0  0  0
 27 26  1  0  0  0  0
 28 24  1  0  0  0  0
 28 27  1  0  0  0  0
M  END
>  <minimizedAffinity>
-5.55337334

$$$$

 OpenBabel03242515363D

 28 31  0  0  0  0  0  0  0  0999 V2000
   38.1550   30.5720   38.9010 C   0  0  0  0  0  0  0  0  0  0  0  0
   37.5710   31.0930   40.0590 C   0  0  0  0  0  0  0  0  0  0  0  0
   38.0330   32.2700   40.6060 C   0  0  0  0  0  0  0  0  0  0  0  0
   39.0720   32.9560   40.0320 C   0  0  0  0  0  0  0  0  0  0  0  0
   39.6700   32.4460   38.8700 C   0  0  0  0  0  0  0  0  0  0  0  0
   39.2080   31.2630   38.3160 C   0  0  0  0  0  0  0  0  0  0  0  0
   40.7040   33.3210   38.4760 O   0  0  0  0  0  0  0  0  0  0  0  0
   40.9230   34.1610   39.6000 C   0  0  0  0  0  0  0  0  0  0  0  0
   39.7400   34.1510   40.3570 O   0  0  0  0  0  0  0  0  0  0  0  0
   37.8180   29.6620   38.4560 H   0  0  0  0  0  0  0  0  0  0  0  0
   37.5680   32.6510   41.4970 H   0  0  0  0  0  0  0  0  0  0  0  0
   39.6520   30.8350   37.4070 H   0  0  0  0  0  0  0  0  0  0  0  0
   41.0520   35.1970   39.1790 H   0  0  0  0  0  0  0  0  0  0  0  0
   41.8320   33.8820   40.1550 H   0  0  0  0  0  0  0  0  0  0  0  0
   36.2170   30.1490   40.7590 S   0  0  0  0  0  0  0  0  0  0  0  0
   36.8970   28.7180   41.6600 C   0  0  0  0  0  0  0  0  0  0  0  0
   37.6860   29.0750   42.7660 C   0  0  0  0  0  0  0  0  0  0  0  0
   38.2420   28.0060   43.5050 C   0  0  0  0  0  0  0  0  0  0  0  0
   37.9900   26.7480   43.1200 N   0  0  0  0  0  0  0  0  0  0  0  0
   37.2240   26.4540   42.0480 C   0  0  0  0  0  0  0  0  0  0  0  0
   36.6870   27.4430   41.3330 N   0  0  0  0  0  0  0  0  0  0  0  0
   37.9320   30.0400   43.1350 H   0  0  0  0  0  0  0  0  0  0  0  0
   38.8550   28.1920   44.3620 H   0  0  0  0  0  0  0  0  0  0  0  0
   36.9840   25.0440   41.6750 C   0  0  0  0  0  3  0  0  0  0  0  0
   36.5720   24.9140   40.2150 C   0  0  0  0  0  2  0  0  0  0  0  0
   37.1140   23.5860   39.7520 C   0  0  0  0  0  2  0  0  0  0  0  0
   38.0420   23.0890   40.8200 C   0  0  0  0  0  2  0  0  0  0  0  0
   38.2360   24.2300   41.7990 C   0  0  0  0  0  2  0  0  0  0  0  0
  1  2  1  0  0  0  0
  2  3  2  0  0  0  0
  2 15  1  0  0  0  0
  3 11  1  0  0  0  0
  4  9  1  0  0  0  0
  4  3  1  0  0  0  0
  5  4  2  0  0  0  0
  6  5  1  0  0  0  0
  6  1  2  0  0  0  0
  7  5  1  0  0  0  0
  7  8  1  0  0  0  0
  8 14  1  0  0  0  0
  8  9  1  0  0  0  0
 10  1  1  0  0  0  0
 12  6  1  0  0  0  0
 13  8  1  0  0  0  0
 15 16  1  0  0  0  0
 16 17  1  0  0  0  0
 17 22  1  0  0  0  0
 17 18  2  0  0  0  0
 18 23  1  0  0  0  0
 19 18  1  0  0  0  0
 20 19  2  0  0  0  0
 21 16  2  0  0  0  0
 21 20  1  0  0  0  0
 24 28  1  0  0  0  0
 24 20  1  0  0  0  0
 25 24  1  0  0  0  0
 26 25  1  0  0  0  0
 26 27  1  0  0  0  0
 27 28  1  0  0  0  0
M  END
>  <minimizedAffinity>
-5.4611516

$$$$

 OpenBabel03242515363D

 28 31  0  0  0  0  0  0  0  0999 V2000
   39.2200   26.0040   43.0130 C   0  0  0  0  0  0  0  0  0  0  0  0
   37.9940   26.6580   42.8580 C   0  0  0  0  0  0  0  0  0  0  0  0
   36.9700   26.0670   42.1510 C   0  0  0  0  0  0  0  0  0  0  0  0
   37.1270   24.8280   41.5850 C   0  0  0  0  0  0  0  0  0  0  0  0
   38.3510   24.1580   41.7290 C   0  0  0  0  0  0  0  0  0  0  0  0
   39.3830   24.7490   42.4400 C   0  0  0  0  0  0  0  0  0  0  0  0
   38.2650   22.9170   41.0650 O   0  0  0  0  0  0  0  0  0  0  0  0
   37.1060   23.0140   40.2520 C   0  0  0  0  0  0  0  0  0  0  0  0
   36.2820   23.9970   40.8270 O   0  0  0  0  0  0  0  0  0  0  0  0
   40.0300   26.4390   43.5540 H   0  0  0  0  0  0  0  0  0  0  0  0
   36.0370   26.5890   42.0460 H   0  0  0  0  0  0  0  0  0  0  0  0
   40.3540   24.2550   42.5740 H   0  0  0  0  0  0  0  0  0  0  0  0
   36.5820   22.0240   40.3560 H   0  0  0  0  0  0  0  0  0  0  0  0
   37.3550   23.1810   39.1920 H   0  0  0  0  0  0  0  0  0  0  0  0
   37.8550   28.2740   43.6240 S   0  0  0  0  0  0  0  0  0  0  0  0
   38.1540   29.5540   42.3630 C   0  0  0  0  0  0  0  0  0  0  0  0
   39.2260   30.4080   42.6730 C   0  0  0  0  0  0  0  0  0  0  0  0
   39.5060   31.4240   41.7310 C   0  0  0  0  0  0  0  0  0  0  0  0
   38.7550   31.5110   40.6250 N   0  0  0  0  0  0  0  0  0  0  0  0
   37.7340   30.6660   40.3700 C   0  0  0  0  0  0  0  0  0  0  0  0
   37.4480   29.6990   41.2410 N   0  0  0  0  0  0  0  0  0  0  0  0
   39.8650   30.4060   43.5210 H   0  0  0  0  0  0  0  0  0  0  0  0
   40.3060   32.1160   41.8920 H   0  0  0  0  0  0  0  0  0  0  0  0
   36.9430   30.8160   39.1310 C   0  0  0  0  0  3  0  0  0  0  0  0
   37.8390   30.9360   37.9060 C   0  0  0  0  0  2  0  0  0  0  0  0
   37.0730   30.3040   36.7720 C   0  0  0  0  0  2  0  0  0  0  0  0
   35.8960   29.5960   37.3740 C   0  0  0  0  0  2  0  0  0  0  0  0
   36.0980   29.6050   38.8750 C   0  0  0  0  0  2  0  0  0  0  0  0
  1 10  1  0  0  0  0
  2  1  1  0  0  0  0
  2 15  1  0  0  0  0
  3  2  2  0  0  0  0
  4  5  2  0  0  0  0
  4  3  1  0  0  0  0
  5  6  1  0  0  0  0
  6 12  1  0  0  0  0
  6  1  2  0  0  0  0
  7  5  1  0  0  0  0
  8 13  1  0  0  0  0
  8  9  1  0  0  0  0
  8  7  1  0  0  0  0
  9  4  1  0  0  0  0
 11  3  1  0  0  0  0
 14  8  1  0  0  0  0
 16 17  1  0  0  0  0
 16 15  1  0  0  0  0
 17 22  1  0  0  0  0
 18 23  1  0  0  0  0
 18 17  2  0  0  0  0
 19 18  1  0  0  0  0
 20 19  2  0  0  0  0
 20 21  1  0  0  0  0
 21 16  2  0  0  0  0
 24 20  1  0  0  0  0
 25 24  1  0  0  0  0
 26 27  1  0  0  0  0
 26 25  1  0  0  0  0
 27 28  1  0  0  0  0
 28 24  1  0  0  0  0
M  END
>  <minimizedAffinity>
-5.4601388

$$$$

 OpenBabel03242515363D

 28 31  0  0  0  0  0  0  0  0999 V2000
   34.5560   29.0630   39.1920 C   0  0  0  0  0  0  0  0  0  0  0  0
   35.7920   29.6980   39.3380 C   0  0  0  0  0  0  0  0  0  0  0  0
   36.5660   29.9830   38.2350 C   0  0  0  0  0  0  0  0  0  0  0  0
   36.1450   29.6530   36.9720 C   0  0  0  0  0  0  0  0  0  0  0  0
   34.9070   29.0140   36.8080 C   0  0  0  0  0  0  0  0  0  0  0  0
   34.1250   28.7260   37.9150 C   0  0  0  0  0  0  0  0  0  0  0  0
   34.7010   28.7810   35.4330 O   0  0  0  0  0  0  0  0  0  0  0  0
   35.9700   28.9820   34.8310 C   0  0  0  0  0  0  0  0  0  0  0  0
   36.7060   29.8140   35.6920 O   0  0  0  0  0  0  0  0  0  0  0  0
   33.9360   28.8290   40.0290 H   0  0  0  0  0  0  0  0  0  0  0  0
   37.5130   30.4730   38.3720 H   0  0  0  0  0  0  0  0  0  0  0  0
   33.1510   28.2270   37.8250 H   0  0  0  0  0  0  0  0  0  0  0  0
   35.7670   29.5600   33.8870 H   0  0  0  0  0  0  0  0  0  0  0  0
   36.4630   28.0320   34.5720 H   0  0  0  0  0  0  0  0  0  0  0  0
   36.2830   30.1030   41.0140 S   0  0  0  0  0  0  0  0  0  0  0  0
   37.0430   28.6360   41.7800 C   0  0  0  0  0  0  0  0  0  0  0  0
   37.9770   28.9460   42.7840 C   0  0  0  0  0  0  0  0  0  0  0  0
   38.6000   27.8470   43.4160 C   0  0  0  0  0  0  0  0  0  0  0  0
   38.2740   26.6040   43.0320 N   0  0  0  0  0  0  0  0  0  0  0  0
   37.3700   26.3560   42.0620 C   0  0  0  0  0  0  0  0  0  0  0  0
   36.7660   27.3740   41.4500 N   0  0  0  0  0  0  0  0  0  0  0  0
   38.2880   29.8950   43.1430 H   0  0  0  0  0  0  0  0  0  0  0  0
   39.3230   27.9960   44.1900 H   0  0  0  0  0  0  0  0  0  0  0  0
   37.0550   24.9620   41.6860 C   0  0  0  0  0  3  0  0  0  0  0  0
   36.5720   24.8660   40.2450 C   0  0  0  0  0  2  0  0  0  0  0  0
   37.0360   23.5230   39.7440 C   0  0  0  0  0  2  0  0  0  0  0  0
   37.9890   22.9750   40.7640 C   0  0  0  0  0  2  0  0  0  0  0  0
   38.2750   24.0940   41.7440 C   0  0  0  0  0  2  0  0  0  0  0  0
  1  2  1  0  0  0  0
  1 10  1  0  0  0  0
  2 15  1  0  0  0  0
  3 11  1  0  0  0  0
  3  2  2  0  0  0  0
  4  3  1  0  0  0  0
  5  4  2  0  0  0  0
  5  6  1  0  0  0  0
  6  1  2  0  0  0  0
  7  5  1  0  0  0  0
  8  7  1  0  0  0  0
  8  9  1  0  0  0  0
  9  4  1  0  0  0  0
 12  6  1  0  0  0  0
 13  8  1  0  0  0  0
 14  8  1  0  0  0  0
 15 16  1  0  0  0  0
 16 17  1  0  0  0  0
 17 22  1  0  0  0  0
 17 18  2  0  0  0  0
 18 23  1  0  0  0  0
 19 18  1  0  0  0  0
 20 19  2  0  0  0  0
 21 16  2  0  0  0  0
 21 20  1  0  0  0  0
 24 28  1  0  0  0  0
 24 20  1  0  0  0  0
 25 24  1  0  0  0  0
 26 25  1  0  0  0  0
 26 27  1  0  0  0  0
 27 28  1  0  0  0  0
M  END
>  <minimizedAffinity>
-5.44501591

$$$$

 OpenBabel03242515363D

 28 31  0  0  0  0  0  0  0  0999 V2000
   38.2750   32.7940   40.6780 C   0  0  0  0  0  0  0  0  0  0  0  0
   38.0310   31.4920   40.2320 C   0  0  0  0  0  0  0  0  0  0  0  0
   38.8190   30.9300   39.2520 C   0  0  0  0  0  0  0  0  0  0  0  0
   39.8570   31.6300   38.6920 C   0  0  0  0  0  0  0  0  0  0  0  0
   40.1150   32.9380   39.1280 C   0  0  0  0  0  0  0  0  0  0  0  0
   39.3250   33.5070   40.1140 C   0  0  0  0  0  0  0  0  0  0  0  0
   41.2190   33.4410   38.4090 O   0  0  0  0  0  0  0  0  0  0  0  0
   41.3890   32.5450   37.3210 C   0  0  0  0  0  0  0  0  0  0  0  0
   40.8050   31.3240   37.6990 O   0  0  0  0  0  0  0  0  0  0  0  0
   37.6810   33.2540   41.4360 H   0  0  0  0  0  0  0  0  0  0  0  0
   38.6120   29.9280   38.9250 H   0  0  0  0  0  0  0  0  0  0  0  0
   39.4980   34.5280   40.4800 H   0  0  0  0  0  0  0  0  0  0  0  0
   42.4990   32.3830   37.2360 H   0  0  0  0  0  0  0  0  0  0  0  0
   41.0130   32.9660   36.3750 H   0  0  0  0  0  0  0  0  0  0  0  0
   36.6610   30.6320   41.0050 S   0  0  0  0  0  0  0  0  0  0  0  0
   37.2780   29.0970   41.7670 C   0  0  0  0  0  0  0  0  0  0  0  0
   38.2530   29.3140   42.7560 C   0  0  0  0  0  0  0  0  0  0  0  0
   38.7700   28.1590   43.3850 C   0  0  0  0  0  0  0  0  0  0  0  0
   38.3140   26.9550   43.0120 N   0  0  0  0  0  0  0  0  0  0  0  0
   37.3760   26.7970   42.0550 C   0  0  0  0  0  0  0  0  0  0  0  0
   36.8700   27.8690   41.4460 N   0  0  0  0  0  0  0  0  0  0  0  0
   38.6640   30.2280   43.1070 H   0  0  0  0  0  0  0  0  0  0  0  0
   39.5150   28.2370   44.1480 H   0  0  0  0  0  0  0  0  0  0  0  0
   36.9150   25.4410   41.6890 C   0  0  0  0  0  3  0  0  0  0  0  0
   36.6630   25.3200   40.1930 C   0  0  0  0  0  2  0  0  0  0  0  0
   36.9890   23.8930   39.8350 C   0  0  0  0  0  2  0  0  0  0  0  0
   37.6690   23.2830   41.0230 C   0  0  0  0  0  2  0  0  0  0  0  0
   37.9620   24.4120   41.9900 C   0  0  0  0  0  2  0  0  0  0  0  0
  1 10  1  0  0  0  0
  2  1  1  0  0  0  0
  2 15  1  0  0  0  0
  3  2  2  0  0  0  0
  4  5  2  0  0  0  0
  4  3  1  0  0  0  0
  5  6  1  0  0  0  0
  6 12  1  0  0  0  0
  6  1  2  0  0  0  0
  7  5  1  0  0  0  0
  8  9  1  0  0  0  0
  8  7  1  0  0  0  0
  9  4  1  0  0  0  0
 11  3  1  0  0  0  0
 13  8  1  0  0  0  0
 14  8  1  0  0  0  0
 15 16  1  0  0  0  0
 16 17  1  0  0  0  0
 17 22  1  0  0  0  0
 17 18  2  0  0  0  0
 18 23  1  0  0  0  0
 19 18  1  0  0  0  0
 20 19  2  0  0  0  0
 21 16  2  0  0  0  0
 21 20  1  0  0  0  0
 24 28  1  0  0  0  0
 24 20  1  0  0  0  0
 25 24  1  0  0  0  0
 26 25  1  0  0  0  0
 26 27  1  0  0  0  0
 27 28  1  0  0  0  0
M  END
>  <minimizedAffinity>
-5.42394209

$$$$

 OpenBabel03242515363D

 28 31  0  0  0  0  0  0  0  0999 V2000
   36.8130   29.3030   36.8850 C   0  0  0  0  0  0  0  0  0  0  0  0
   36.1800   28.6260   37.9310 C   0  0  0  0  0  0  0  0  0  0  0  0
   36.0100   29.2340   39.1550 C   0  0  0  0  0  0  0  0  0  0  0  0
   36.4540   30.5110   39.3780 C   0  0  0  0  0  0  0  0  0  0  0  0
   37.0920   31.2060   38.3380 C   0  0  0  0  0  0  0  0  0  0  0  0
   37.2640   30.5980   37.1050 C   0  0  0  0  0  0  0  0  0  0  0  0
   37.4520   32.4850   38.8090 O   0  0  0  0  0  0  0  0  0  0  0  0
   37.3230   32.4090   40.2200 C   0  0  0  0  0  0  0  0  0  0  0  0
   36.4210   31.3660   40.4940 O   0  0  0  0  0  0  0  0  0  0  0  0
   36.9580   28.8570   35.9260 H   0  0  0  0  0  0  0  0  0  0  0  0
   35.5210   28.6920   39.9450 H   0  0  0  0  0  0  0  0  0  0  0  0
   37.7580   31.1110   36.2690 H   0  0  0  0  0  0  0  0  0  0  0  0
   36.8350   33.3750   40.5300 H   0  0  0  0  0  0  0  0  0  0  0  0
   38.2990   32.3220   40.7220 H   0  0  0  0  0  0  0  0  0  0  0  0
   35.6230   26.9590   37.5750 S   0  0  0  0  0  0  0  0  0  0  0  0
   36.1970   25.8470   38.8990 C   0  0  0  0  0  0  0  0  0  0  0  0
   36.2030   24.4910   38.5300 C   0  0  0  0  0  0  0  0  0  0  0  0
   36.6390   23.5780   39.5170 C   0  0  0  0  0  0  0  0  0  0  0  0
   37.0130   24.0460   40.7160 N   0  0  0  0  0  0  0  0  0  0  0  0
   36.9910   25.3600   41.0240 C   0  0  0  0  0  0  0  0  0  0  0  0
   36.5840   26.2420   40.1120 N   0  0  0  0  0  0  0  0  0  0  0  0
   35.9240   24.0430   37.6080 H   0  0  0  0  0  0  0  0  0  0  0  0
   36.6730   22.5280   39.3170 H   0  0  0  0  0  0  0  0  0  0  0  0
   37.4160   25.8110   42.3650 C   0  0  0  0  0  3  0  0  0  0  0  0
   38.9310   25.9120   42.4680 C   0  0  0  0  0  2  0  0  0  0  0  0
   39.2050   27.0390   43.4300 C   0  0  0  0  0  2  0  0  0  0  0  0
   37.9040   27.7470   43.6630 C   0  0  0  0  0  2  0  0  0  0  0  0
   36.9150   27.1930   42.6580 C   0  0  0  0  0  2  0  0  0  0  0  0
  1  6  2  0  0  0  0
  1  2  1  0  0  0  0
  2  3  2  0  0  0  0
  3  4  1  0  0  0  0
  3 11  1  0  0  0  0
  4  9  1  0  0  0  0
  5  7  1  0  0  0  0
  5  4  2  0  0  0  0
  6  5  1  0  0  0  0
  7  8  1  0  0  0  0
  8  9  1  0  0  0  0
  8 13  1  0  0  0  0
  8 14  1  0  0  0  0
 10  1  1  0  0  0  0
 12  6  1  0  0  0  0
 15  2  1  0  0  0  0
 15 16  1  0  0  0  0
 16 21  1  0  0  0  0
 17 16  2  0  0  0  0
 17 18  1  0  0  0  0
 18 19  2  0  0  0  0
 19 20  1  0  0  0  0
 20 24  1  0  0  0  0
 21 20  2  0  0  0  0
 22 17  1  0  0  0  0
 23 18  1  0  0  0  0
 24 25  1  0  0  0  0
 24 28  1  0  0  0  0
 25 26  1  0  0  0  0
 26 27  1  0  0  0  0
 28 27  1  0  0  0  0
M  END
>  <minimizedAffinity>
-5.30818081

$$$$

 OpenBabel03242515363D

 28 31  0  0  0  0  0  0  0  0999 V2000
   38.5340   28.9060   42.6260 C   0  0  0  0  0  0  0  0  0  0  0  0
   37.3820   28.6370   41.8810 C   0  0  0  0  0  0  0  0  0  0  0  0
   36.9720   27.3390   41.6730 C   0  0  0  0  0  0  0  0  0  0  0  0
   37.6800   26.2830   42.1870 C   0  0  0  0  0  0  0  0  0  0  0  0
   38.8400   26.5360   42.9360 C   0  0  0  0  0  0  0  0  0  0  0  0
   39.2550   27.8400   43.1490 C   0  0  0  0  0  0  0  0  0  0  0  0
   39.3840   25.3020   43.3500 O   0  0  0  0  0  0  0  0  0  0  0  0
   38.7260   24.3250   42.5580 C   0  0  0  0  0  0  0  0  0  0  0  0
   37.5090   24.8880   42.1380 O   0  0  0  0  0  0  0  0  0  0  0  0
   38.8750   29.9020   42.8030 H   0  0  0  0  0  0  0  0  0  0  0  0
   36.0830   27.1570   41.0970 H   0  0  0  0  0  0  0  0  0  0  0  0
   40.1560   28.0760   43.7300 H   0  0  0  0  0  0  0  0  0  0  0  0
   38.4880   23.4790   43.2610 H   0  0  0  0  0  0  0  0  0  0  0  0
   39.3680   23.9490   41.7460 H   0  0  0  0  0  0  0  0  0  0  0  0
   36.5020   30.0610   41.2380 S   0  0  0  0  0  0  0  0  0  0  0  0
   37.3860   30.6920   39.7750 C   0  0  0  0  0  0  0  0  0  0  0  0
   36.6300   30.6280   38.5920 C   0  0  0  0  0  0  0  0  0  0  0  0
   37.2630   31.1040   37.4220 C   0  0  0  0  0  0  0  0  0  0  0  0
   38.5140   31.5770   37.5050 N   0  0  0  0  0  0  0  0  0  0  0  0
   39.2010   31.6190   38.6660 C   0  0  0  0  0  0  0  0  0  0  0  0
   38.6280   31.1760   39.7850 N   0  0  0  0  0  0  0  0  0  0  0  0
   35.6420   30.2700   38.4430 H   0  0  0  0  0  0  0  0  0  0  0  0
   36.7570   31.0900   36.4790 H   0  0  0  0  0  0  0  0  0  0  0  0
   40.5790   32.1520   38.6910 C   0  0  0  0  0  3  0  0  0  0  0  0
   41.1840   32.2050   37.2950 C   0  0  0  0  0  2  0  0  0  0  0  0
   42.1150   33.3900   37.2950 C   0  0  0  0  0  2  0  0  0  0  0  0
   41.8510   34.1600   38.5540 C   0  0  0  0  0  2  0  0  0  0  0  0
   40.6040   33.5700   39.1770 C   0  0  0  0  0  2  0  0  0  0  0  0
  1 10  1  0  0  0  0
  1  6  1  0  0  0  0
  2  1  2  0  0  0  0
  3  2  1  0  0  0  0
  3  4  2  0  0  0  0
  4  5  1  0  0  0  0
  5  6  2  0  0  0  0
  5  7  1  0  0  0  0
  6 12  1  0  0  0  0
  8 13  1  0  0  0  0
  8  7  1  0  0  0  0
  9  4  1  0  0  0  0
  9  8  1  0  0  0  0
 11  3  1  0  0  0  0
 14  8  1  0  0  0  0
 15  2  1  0  0  0  0
 16 21  1  0  0  0  0
 16 15  1  0  0  0  0
 17 16  2  0  0  0  0
 18 19  2  0  0  0  0
 18 17  1  0  0  0  0
 19 20  1  0  0  0  0
 20 24  1  0  0  0  0
 20 21  2  0  0  0  0
 22 17  1  0  0  0  0
 23 18  1  0  0  0  0
 24 28  1  0  0  0  0
 25 24  1  0  0  0  0
 26 25  1  0  0  0  0
 26 27  1  0  0  0  0
 27 28  1  0  0  0  0
M  END
>  <minimizedAffinity>
-5.24369478

$$$$
