
 OpenBabel03242522233D

 24 26  0  0  0  0  0  0  0  0999 V2000
   44.5030   35.7080   44.9760 C   0  0  0  0  0  0  0  0  0  0  0  0
   45.1500   35.6440   43.7420 C   0  0  0  0  0  0  0  0  0  0  0  0
   46.1000   34.6810   43.4290 C   0  0  0  0  0  0  0  0  0  0  0  0
   46.3730   33.7750   44.4190 N   0  0  0  0  0  0  0  0  0  0  0  0
   45.7460   33.8360   45.6160 C   0  0  0  0  0  0  0  0  0  0  0  0
   44.8350   34.7790   45.8850 N   0  0  0  0  0  0  0  0  0  0  0  0
   43.7780   36.4490   45.2050 H   0  0  0  0  0  0  0  0  0  0  0  0
   44.9230   36.3710   42.9640 H   0  0  0  0  0  0  0  0  0  0  0  0
   44.6560   33.0450   41.4760 Cl  0  0  0  0  0  0  0  0  0  0  0  0
   46.1680   33.8750   41.1480 C   0  0  0  0  0  0  0  0  0  0  0  0
   46.7700   34.6220   42.1380 C   0  0  0  0  0  0  0  0  0  0  0  0
   47.9670   35.2650   41.8450 C   0  0  0  0  0  0  0  0  0  0  0  0
   48.5400   35.1600   40.5970 C   0  0  0  0  0  0  0  0  0  0  0  0
   47.8910   34.3910   39.6250 C   0  0  0  0  0  0  0  0  0  0  0  0
   48.6150   34.2560   38.0430 Cl  0  0  0  0  0  0  0  0  0  0  0  0
   46.7010   33.7360   39.8800 C   0  0  0  0  0  0  0  0  0  0  0  0
   48.4190   35.8470   42.6440 H   0  0  0  0  0  0  0  0  0  0  0  0
   49.4740   35.6790   40.4140 H   0  0  0  0  0  0  0  0  0  0  0  0
   46.2320   33.1490   39.0930 H   0  0  0  0  0  0  0  0  0  0  0  0
   46.1280   32.7950   46.6160 C   0  0  0  0  0  3  0  0  0  0  0  0
   45.9470   31.3980   46.0450 C   0  0  0  0  0  2  0  0  0  0  0  0
   45.8250   30.4790   47.2190 C   0  0  0  0  0  2  0  0  0  0  0  0
   45.2490   31.3320   48.3150 C   0  0  0  0  0  2  0  0  0  0  0  0
   45.1840   32.7550   47.8000 C   0  0  0  0  0  2  0  0  0  0  0  0
  1  7  1  0  0  0  0
  1  6  1  0  0  0  0
  2  1  2  0  0  0  0
  3  2  1  0  0  0  0
  3  4  2  0  0  0  0
  4  5  1  0  0  0  0
  5  6  2  0  0  0  0
  5 20  1  0  0  0  0
  8  2  1  0  0  0  0
 10  9  1  0  0  0  0
 10 11  1  0  0  0  0
 11  3  1  0  0  0  0
 12 11  2  0  0  0  0
 12 17  1  0  0  0  0
 13 12  1  0  0  0  0
 14 16  1  0  0  0  0
 14 13  2  0  0  0  0
 15 14  1  0  0  0  0
 16 10  2  0  0  0  0
 18 13  1  0  0  0  0
 19 16  1  0  0  0  0
 20 24  1  0  0  0  0
 21 20  1  0  0  0  0
 21 22  1  0  0  0  0
 22 23  1  0  0  0  0
 24 23  1  0  0  0  0
M  END
>  <minimizedAffinity>
-6.39489794

>  <minimizedRMSD>
0.334575623

$$$$
