
     RDKit          3D

 33 35  0  0  0  0  0  0  0  0999 V2000
   44.5497   33.1691   41.3308 Cl  0  0  0  0  0  0  0  0  0  0  0  0
   46.1037   33.9197   41.0080 C   0  0  0  0  0  0  0  0  0  0  0  0
   46.7212   34.6690   41.9868 C   0  0  0  0  0  0  0  0  0  0  0  0
   47.9503   35.2495   41.6991 C   0  0  0  0  0  0  0  0  0  0  0  0
   48.5403   35.0816   40.4647 C   0  0  0  0  0  0  0  0  0  0  0  0
   47.8753   34.3129   39.5044 C   0  0  0  0  0  0  0  0  0  0  0  0
   48.6200   34.0989   37.9414 Cl  0  0  0  0  0  0  0  0  0  0  0  0
   46.6517   33.7204   39.7552 C   0  0  0  0  0  0  0  0  0  0  0  0
   44.4857   35.9631   44.7627 C   0  0  0  0  0  0  0  0  0  0  0  0
   45.1513   35.8329   43.5445 C   0  0  0  0  0  0  0  0  0  0  0  0
   46.0305   34.7967   43.2627 C   0  0  0  0  0  0  0  0  0  0  0  0
   46.2141   33.8865   44.2693 N   0  0  0  0  0  0  0  0  0  0  0  0
   45.5694   34.0110   45.4518 C   0  0  0  0  0  0  0  0  0  0  0  0
   44.7278   35.0236   45.6897 N   0  0  0  0  0  0  0  0  0  0  0  0
   48.4137   35.8343   42.4890 H   0  0  0  0  0  0  0  0  0  0  0  0
   49.4996   35.5531   40.2851 H   0  0  0  0  0  0  0  0  0  0  0  0
   46.1718   33.1309   38.9767 H   0  0  0  0  0  0  0  0  0  0  0  0
   43.8153   36.7599   44.9673 H   0  0  0  0  0  0  0  0  0  0  0  0
   44.9959   36.5647   42.7517 H   0  0  0  0  0  0  0  0  0  0  0  0
   45.8497   32.9579   46.4722 C   0  0  0  0  0  0  0  0  0  0  0  0
   46.5078   33.5554   47.7051 C   0  0  0  0  0  0  0  0  0  0  0  0
   47.2139   32.4269   48.3902 C   0  0  0  0  0  0  0  0  0  0  0  0
   47.5499   31.4611   47.2885 C   0  0  0  0  0  0  0  0  0  0  0  0
   46.9103   31.9766   46.0172 C   0  0  0  0  0  0  0  0  0  0  0  0
   44.9363   32.4107   46.7668 H   0  0  0  0  0  0  0  0  0  0  0  0
   45.8211   34.1324   48.3402 H   0  0  0  0  0  0  0  0  0  0  0  0
   47.2890   34.2707   47.3424 H   0  0  0  0  0  0  0  0  0  0  0  0
   48.1366   32.7593   48.9002 H   0  0  0  0  0  0  0  0  0  0  0  0
   46.5021   32.0039   49.1438 H   0  0  0  0  0  0  0  0  0  0  0  0
   48.6307   31.4250   47.1026 H   0  0  0  0  0  0  0  0  0  0  0  0
   47.1421   30.4761   47.6021 H   0  0  0  0  0  0  0  0  0  0  0  0
   46.4195   31.1332   45.4730 H   0  0  0  0  0  0  0  0  0  0  0  0
   47.6166   32.5319   45.3666 H   0  0  0  0  0  0  0  0  0  0  0  0
  2  1  1  0
  2  3  2  0
  3 11  1  0
  4  3  1  0
  5  4  2  0
  6  8  2  0
  6  5  1  0
  7  6  1  0
  8  2  1  0
  9 14  2  0
 10  9  1  0
 11 10  2  0
 11 12  1  0
 12 13  2  0
 13 14  1  0
  4 15  1  0
  5 16  1  0
  8 17  1  0
  9 18  1  0
 10 19  1  0
 20 21  1  0
 21 22  1  0
 22 23  1  0
 23 24  1  0
 24 20  1  0
 20 25  1  0
 21 26  1  0
 21 27  1  0
 22 28  1  0
 22 29  1  0
 23 30  1  0
 23 31  1  0
 24 32  1  0
 24 33  1  0
 13 20  1  0
M  ISO  5  15  14  16  14  17  14  18  14  19  14
M  END
>  <DihAtoms>  (1) 
11,12,19,20

>  <DihDeg>  (1) 
57.01559171480472

$$$$
