
 OpenBabel03242516503D

 39 42  0  0  1  0  0  0  0  0999 V2000
   47.8680   32.9560   41.8130 C   0  0  1  0  0  0  0  0  0  0  0  0
   47.5590   32.1870   40.5900 C   0  0  0  0  0  0  0  0  0  0  0  0
   48.5910   32.6380   39.5510 C   0  0  0  0  0  0  0  0  0  0  0  0
   48.2260   34.0610   39.1840 C   0  0  0  0  0  0  0  0  0  0  0  0
   48.1520   34.9930   40.3580 C   0  0  0  0  0  0  0  0  0  0  0  0
   47.6560   34.4460   41.6260 C   0  0  1  0  0  0  0  0  0  0  0  0
   48.9780   32.8760   42.0160 H   0  0  0  0  0  0  0  0  0  0  0  0
   46.5470   32.3110   40.2090 H   0  0  0  0  0  0  0  0  0  0  0  0
   47.7050   31.1050   40.8230 H   0  0  0  0  0  0  0  0  0  0  0  0
   49.5940   32.5610   40.0060 H   0  0  0  0  0  0  0  0  0  0  0  0
   48.4570   32.0170   38.6650 H   0  0  0  0  0  0  0  0  0  0  0  0
   48.9930   34.4030   38.4640 H   0  0  0  0  0  0  0  0  0  0  0  0
   47.2690   33.9920   38.6120 H   0  0  0  0  0  0  0  0  0  0  0  0
   47.5350   35.8640   40.0530 H   0  0  0  0  0  0  0  0  0  0  0  0
   49.1830   35.4130   40.4740 H   0  0  0  0  0  0  0  0  0  0  0  0
   48.2430   34.9210   42.4710 H   0  0  0  0  0  0  0  0  0  0  0  0
   45.5120   31.1040   44.1130 C   0  0  0  0  0  0  0  0  0  0  0  0
   46.1790   31.5710   42.9820 C   0  0  0  0  0  0  0  0  0  0  0  0
   47.2100   32.4990   43.0320 C   0  0  0  0  0  0  0  0  0  0  0  0
   47.5430   32.9370   44.2560 N   0  0  0  0  0  0  0  0  0  0  0  0
   46.9020   32.4910   45.3660 C   0  0  0  0  0  0  0  0  0  0  0  0
   45.9170   31.6050   45.3100 N   0  0  0  0  0  0  0  0  0  0  0  0
   44.7410   30.3920   43.9120 H   0  0  0  0  0  0  0  0  0  0  0  0
   45.9070   31.2150   41.9810 H   0  0  0  0  0  0  0  0  0  0  0  0
   47.1640   32.8390   46.3590 H   0  0  0  0  0  0  0  0  0  0  0  0
   46.2600   34.8230   41.9090 C   0  0  0  0  0  0  0  0  0  0  0  0
   45.7950   35.5610   43.0070 C   0  0  0  0  0  0  0  0  0  0  0  0
   44.4110   35.8080   43.0320 C   0  0  0  0  0  0  0  0  0  0  0  0
   43.6430   35.3180   42.0050 C   0  0  0  0  0  0  0  0  0  0  0  0
   44.1140   34.5940   40.9340 C   0  0  0  0  0  0  0  0  0  0  0  0
   45.4540   34.3580   40.9130 N   0  0  0  0  0  0  0  0  0  0  0  0
   46.5380   35.8540   43.7000 H   0  0  0  0  0  0  0  0  0  0  0  0
   44.0750   36.3670   43.8670 H   0  0  0  0  0  0  0  0  0  0  0  0
   42.5820   35.5330   42.0680 H   0  0  0  0  0  0  0  0  0  0  0  0
   43.1740   34.1180   39.8820 C   0  0  0  0  0  0  0  0  0  0  0  0
   42.1730   33.1430   40.3430 C   0  0  0  0  0  0  0  0  0  0  0  0
   40.9840   33.4070   39.4380 C   0  0  0  0  0  0  0  0  0  0  0  0
   40.9710   34.8830   39.2080 C   0  0  0  0  0  0  0  0  0  0  0  0
   42.4050   35.2980   39.3080 C   0  0  0  0  0  0  0  0  0  0  0  0
  1  7  1  1  0  0  0
  1 19  1  0  0  0  0
  2  9  1  0  0  0  0
  2  1  1  0  0  0  0
  3 10  1  0  0  0  0
  3  2  1  0  0  0  0
  4  3  1  0  0  0  0
  4  5  1  0  0  0  0
  5 15  1  0  0  0  0
  5  6  1  0  0  0  0
  6  1  1  0  0  0  0
  6 26  1  0  0  0  0
  6 16  1  1  0  0  0
  8  2  1  0  0  0  0
 11  3  1  0  0  0  0
 12  4  1  0  0  0  0
 13  4  1  0  0  0  0
 14  5  1  0  0  0  0
 17 22  1  0  0  0  0
 18 19  1  0  0  0  0
 18 17  2  0  0  0  0
 19 20  2  0  0  0  0
 20 21  1  0  0  0  0
 21 25  1  0  0  0  0
 22 21  2  0  0  0  0
 23 17  1  0  0  0  0
 24 18  1  0  0  0  0
 26 27  1  0  0  0  0
 27 28  2  0  0  0  0
 27 32  1  0  0  0  0
 28 33  1  0  0  0  0
 29 34  1  0  0  0  0
 29 28  1  0  0  0  0
 30 29  2  0  0  0  0
 31 30  1  0  0  0  0
 31 26  2  0  0  0  0
 35 36  1  0  0  0  0
 35 30  1  0  0  0  0
 37 36  1  0  0  0  0
 38 39  1  0  0  0  0
 38 37  1  0  0  0  0
 39 35  1  0  0  0  0
M  END
>  <minimizedAffinity>
-5.58376503

>  <minimizedRMSD>
0.594474852

$$$$
