
 OpenBabel03242520383D

 31 34  0  0  1  0  0  0  0  0999 V2000
   38.6300   30.7700   41.3730 C   0  0  0  0  0  0  0  0  0  0  0  0
   37.4130   31.2910   40.7950 C   0  0  0  0  0  0  0  0  0  0  0  0
   36.2460   30.6420   41.1030 C   0  0  0  0  0  0  0  0  0  0  0  0
   36.2750   29.5590   41.9200 N   0  0  0  0  0  0  0  0  0  0  0  0
   37.4340   29.0930   42.4470 C   0  0  0  0  0  0  0  0  0  0  0  0
   38.6000   29.7120   42.1620 N   0  0  0  0  0  0  0  0  0  0  0  0
   39.5490   31.2680   41.1410 H   0  0  0  0  0  0  0  0  0  0  0  0
   35.2950   30.9720   40.7100 H   0  0  0  0  0  0  0  0  0  0  0  0
   37.4180   32.4720   39.8870 C   0  0  1  0  0  0  0  0  0  0  0  0
   38.5460   32.7710   39.0610 C   0  0  0  0  0  0  0  0  0  0  0  0
   37.3760   32.1970   38.3720 C   0  0  1  0  0  0  0  0  0  0  0  0
   36.7070   33.2530   40.2430 H   0  0  0  0  0  0  0  0  0  0  0  0
   39.4660   32.1470   39.0770 H   0  0  0  0  0  0  0  0  0  0  0  0
   38.7430   33.8550   38.8390 H   0  0  0  0  0  0  0  0  0  0  0  0
   36.6580   32.8750   37.8290 H   0  0  0  0  0  0  0  0  0  0  0  0
   37.3280   30.8090   37.8570 C   0  0  0  0  0  0  0  0  0  0  0  0
   36.1350   30.1820   38.1750 F   0  0  0  0  0  0  0  0  0  0  0  0
   38.3870   30.0440   38.3480 F   0  0  0  0  0  0  0  0  0  0  0  0
   37.3960   30.8740   36.4880 F   0  0  0  0  0  0  0  0  0  0  0  0
   37.3750   27.9010   43.3370 C   0  0  2  0  0  0  0  0  0  0  0  0
   38.7290   27.2420   43.5370 C   0  0  0  0  0  0  0  0  0  0  0  0
   37.6420   26.5440   42.7830 C   0  0  2  0  0  0  0  0  0  0  0  0
   36.6760   28.0070   44.1940 H   0  0  0  0  0  0  0  0  0  0  0  0
   38.9930   26.8660   44.5480 H   0  0  0  0  0  0  0  0  0  0  0  0
   39.5880   27.5840   42.9620 H   0  0  0  0  0  0  0  0  0  0  0  0
   37.1780   25.6900   43.3210 H   0  0  0  0  0  0  0  0  0  0  0  0
   37.6360   26.4010   41.3030 C   0  0  0  0  0  3  0  0  0  0  0  0
   39.0510   26.0890   40.8600 C   0  0  0  0  0  2  0  0  0  0  0  0
   39.2030   24.5870   40.9130 C   0  0  0  0  0  2  0  0  0  0  0  0
   37.9190   24.0480   41.4740 C   0  0  0  0  0  2  0  0  0  0  0  0
   36.9210   25.0790   40.9980 C   0  0  0  0  0  2  0  0  0  0  0  0
  1  6  1  0  0  0  0
  2  3  1  0  0  0  0
  2  1  2  0  0  0  0
  3  4  2  0  0  0  0
  4  5  1  0  0  0  0
  5 20  1  0  0  0  0
  6  5  2  0  0  0  0
  7  1  1  0  0  0  0
  8  3  1  0  0  0  0
  9 12  1  1  0  0  0
  9  2  1  0  0  0  0
 10 13  1  0  0  0  0
 10  9  1  0  0  0  0
 11 15  1  6  0  0  0
 11 10  1  0  0  0  0
 11  9  1  0  0  0  0
 14 10  1  0  0  0  0
 16 17  1  0  0  0  0
 16 18  1  0  0  0  0
 16 11  1  0  0  0  0
 19 16  1  0  0  0  0
 20 21  1  0  0  0  0
 20 23  1  1  0  0  0
 21 24  1  0  0  0  0
 22 26  1  1  0  0  0
 22 20  1  0  0  0  0
 22 21  1  0  0  0  0
 25 21  1  0  0  0  0
 27 22  1  0  0  0  0
 28 29  1  0  0  0  0
 28 27  1  0  0  0  0
 29 30  1  0  0  0  0
 31 27  1  0  0  0  0
 31 30  1  0  0  0  0
M  END
>  <minimizedAffinity>
-5.51951981

$$$$

 OpenBabel03242520383D

 31 34  0  0  1  0  0  0  0  0999 V2000
   36.6680   30.8800   41.0350 C   0  0  0  0  0  0  0  0  0  0  0  0
   37.1310   30.8670   39.6660 C   0  0  0  0  0  0  0  0  0  0  0  0
   37.3750   29.6430   39.1000 C   0  0  0  0  0  0  0  0  0  0  0  0
   37.1770   28.5160   39.8270 N   0  0  0  0  0  0  0  0  0  0  0  0
   36.7410   28.5590   41.1100 C   0  0  0  0  0  0  0  0  0  0  0  0
   36.4920   29.7500   41.6960 N   0  0  0  0  0  0  0  0  0  0  0  0
   36.4730   31.8300   41.4890 H   0  0  0  0  0  0  0  0  0  0  0  0
   37.7230   29.5510   38.0820 H   0  0  0  0  0  0  0  0  0  0  0  0
   37.3550   32.1260   38.9020 C   0  0  1  0  0  0  0  0  0  0  0  0
   37.3250   33.4020   39.5440 C   0  0  0  0  0  0  0  0  0  0  0  0
   38.6600   32.8960   39.1790 C   0  0  1  0  0  0  0  0  0  0  0  0
   37.1120   31.9870   37.8230 H   0  0  0  0  0  0  0  0  0  0  0  0
   37.1150   33.5070   40.6320 H   0  0  0  0  0  0  0  0  0  0  0  0
   36.9640   34.2730   38.9320 H   0  0  0  0  0  0  0  0  0  0  0  0
   39.1570   33.2580   38.2350 H   0  0  0  0  0  0  0  0  0  0  0  0
   39.6420   32.3900   40.1650 C   0  0  0  0  0  0  0  0  0  0  0  0
   40.0210   31.0870   39.8930 F   0  0  0  0  0  0  0  0  0  0  0  0
   39.1400   32.4530   41.4660 F   0  0  0  0  0  0  0  0  0  0  0  0
   40.7690   33.1660   40.0630 F   0  0  0  0  0  0  0  0  0  0  0  0
   36.5470   27.2730   41.8350 C   0  0  2  0  0  0  0  0  0  0  0  0
   36.5930   27.4290   43.3450 C   0  0  0  0  0  0  0  0  0  0  0  0
   37.6680   26.6850   42.6210 C   0  0  2  0  0  0  0  0  0  0  0  0
   35.8000   26.5970   41.3670 H   0  0  0  0  0  0  0  0  0  0  0  0
   35.8730   26.8500   43.9610 H   0  0  0  0  0  0  0  0  0  0  0  0
   36.8650   28.3890   43.7820 H   0  0  0  0  0  0  0  0  0  0  0  0
   37.6470   25.5830   42.7630 H   0  0  0  0  0  0  0  0  0  0  0  0
   39.0280   27.2370   42.3830 C   0  0  0  0  0  3  0  0  0  0  0  0
   39.8070   27.1260   43.6790 C   0  0  0  0  0  2  0  0  0  0  0  0
   40.4600   25.7640   43.6790 C   0  0  0  0  0  2  0  0  0  0  0  0
   39.9810   25.0620   42.4410 C   0  0  0  0  0  2  0  0  0  0  0  0
   39.7600   26.2210   41.4980 C   0  0  0  0  0  2  0  0  0  0  0  0
  1  7  1  0  0  0  0
  1  6  1  0  0  0  0
  2  1  2  0  0  0  0
  3  2  1  0  0  0  0
  3  4  2  0  0  0  0
  4  5  1  0  0  0  0
  5  6  2  0  0  0  0
  5 20  1  0  0  0  0
  8  3  1  0  0  0  0
  9 12  1  6  0  0  0
  9 11  1  0  0  0  0
  9 10  1  0  0  0  0
  9  2  1  0  0  0  0
 10 13  1  0  0  0  0
 11 15  1  6  0  0  0
 11 10  1  0  0  0  0
 11 16  1  0  0  0  0
 14 10  1  0  0  0  0
 16 18  1  0  0  0  0
 17 16  1  0  0  0  0
 19 16  1  0  0  0  0
 20 23  1  6  0  0  0
 20 22  1  0  0  0  0
 20 21  1  0  0  0  0
 21 25  1  0  0  0  0
 21 24  1  0  0  0  0
 22 26  1  1  0  0  0
 22 21  1  0  0  0  0
 27 22  1  0  0  0  0
 27 28  1  0  0  0  0
 28 29  1  0  0  0  0
 30 29  1  0  0  0  0
 31 27  1  0  0  0  0
 31 30  1  0  0  0  0
M  END
>  <minimizedAffinity>
-5.48726177

$$$$

 OpenBabel03242520383D

 31 34  0  0  1  0  0  0  0  0999 V2000
   38.1980   29.6830   39.8610 C   0  0  0  0  0  0  0  0  0  0  0  0
   37.4150   30.8970   39.8990 C   0  0  0  0  0  0  0  0  0  0  0  0
   36.4510   30.9890   40.8690 C   0  0  0  0  0  0  0  0  0  0  0  0
   36.2710   29.9630   41.7360 N   0  0  0  0  0  0  0  0  0  0  0  0
   37.0200   28.8350   41.6760 C   0  0  0  0  0  0  0  0  0  0  0  0
   37.9790   28.7140   40.7320 N   0  0  0  0  0  0  0  0  0  0  0  0
   38.9550   29.5970   39.1090 H   0  0  0  0  0  0  0  0  0  0  0  0
   35.8260   31.8650   40.9610 H   0  0  0  0  0  0  0  0  0  0  0  0
   37.6280   31.9980   38.9190 C   0  0  1  0  0  0  0  0  0  0  0  0
   37.3000   33.3520   39.2380 C   0  0  0  0  0  0  0  0  0  0  0  0
   38.7360   33.0200   39.2370 C   0  0  1  0  0  0  0  0  0  0  0  0
   37.6340   31.6080   37.8750 H   0  0  0  0  0  0  0  0  0  0  0  0
   36.8570   33.6320   40.2190 H   0  0  0  0  0  0  0  0  0  0  0  0
   36.9630   34.0090   38.3900 H   0  0  0  0  0  0  0  0  0  0  0  0
   39.3670   33.2680   38.3360 H   0  0  0  0  0  0  0  0  0  0  0  0
   39.5490   32.8960   40.4680 C   0  0  0  0  0  0  0  0  0  0  0  0
   40.3030   31.7350   40.4730 F   0  0  0  0  0  0  0  0  0  0  0  0
   38.7510   32.9230   41.6130 F   0  0  0  0  0  0  0  0  0  0  0  0
   40.4290   33.9480   40.4910 F   0  0  0  0  0  0  0  0  0  0  0  0
   36.7580   27.7580   42.6700 C   0  0  2  0  0  0  0  0  0  0  0  0
   38.0100   27.3100   43.4050 C   0  0  0  0  0  0  0  0  0  0  0  0
   37.3130   26.3920   42.4520 C   0  0  2  0  0  0  0  0  0  0  0  0
   35.8000   27.8710   43.2200 H   0  0  0  0  0  0  0  0  0  0  0  0
   37.9400   27.0940   44.4920 H   0  0  0  0  0  0  0  0  0  0  0  0
   38.9830   27.6930   43.1000 H   0  0  0  0  0  0  0  0  0  0  0  0
   36.7650   25.5540   42.9320 H   0  0  0  0  0  0  0  0  0  0  0  0
   37.8300   26.0780   41.0930 C   0  0  0  0  0  3  0  0  0  0  0  0
   38.8680   24.9820   41.2340 C   0  0  0  0  0  2  0  0  0  0  0  0
   38.1280   23.6680   41.1570 C   0  0  0  0  0  2  0  0  0  0  0  0
   36.6670   24.0060   41.0710 C   0  0  0  0  0  2  0  0  0  0  0  0
   36.7030   25.3390   40.3610 C   0  0  0  0  0  2  0  0  0  0  0  0
  1  2  2  0  0  0  0
  1  6  1  0  0  0  0
  2  3  1  0  0  0  0
  3  8  1  0  0  0  0
  3  4  2  0  0  0  0
  5  4  1  0  0  0  0
  5 20  1  0  0  0  0
  6  5  2  0  0  0  0
  7  1  1  0  0  0  0
  9 12  1  6  0  0  0
  9 11  1  0  0  0  0
  9 10  1  0  0  0  0
  9  2  1  0  0  0  0
 10 13  1  0  0  0  0
 11 15  1  6  0  0  0
 11 10  1  0  0  0  0
 11 16  1  0  0  0  0
 14 10  1  0  0  0  0
 16 17  1  0  0  0  0
 16 19  1  0  0  0  0
 16 18  1  0  0  0  0
 20 23  1  1  0  0  0
 20 21  1  0  0  0  0
 21 24  1  0  0  0  0
 22 20  1  0  0  0  0
 22 26  1  1  0  0  0
 22 21  1  0  0  0  0
 25 21  1  0  0  0  0
 27 28  1  0  0  0  0
 27 22  1  0  0  0  0
 29 28  1  0  0  0  0
 30 29  1  0  0  0  0
 31 30  1  0  0  0  0
 31 27  1  0  0  0  0
M  END
>  <minimizedAffinity>
-5.4390378

$$$$

 OpenBabel03242520383D

 31 34  0  0  1  0  0  0  0  0999 V2000
   35.8880   29.4540   40.3250 C   0  0  0  0  0  0  0  0  0  0  0  0
   36.7420   30.5780   40.6310 C   0  0  0  0  0  0  0  0  0  0  0  0
   37.5900   30.4460   41.7000 C   0  0  0  0  0  0  0  0  0  0  0  0
   37.5960   29.2930   42.4140 N   0  0  0  0  0  0  0  0  0  0  0  0
   36.7820   28.2550   42.1030 C   0  0  0  0  0  0  0  0  0  0  0  0
   35.9360   28.3540   41.0550 N   0  0  0  0  0  0  0  0  0  0  0  0
   35.2210   29.5430   39.4920 H   0  0  0  0  0  0  0  0  0  0  0  0
   38.2590   31.2430   41.9910 H   0  0  0  0  0  0  0  0  0  0  0  0
   36.6970   31.8370   39.8360 C   0  0  1  0  0  0  0  0  0  0  0  0
   37.7650   32.7860   39.8840 C   0  0  0  0  0  0  0  0  0  0  0  0
   37.6870   31.9650   38.6630 C   0  0  1  0  0  0  0  0  0  0  0  0
   35.6460   32.1220   39.5980 H   0  0  0  0  0  0  0  0  0  0  0  0
   38.6580   32.6320   40.5290 H   0  0  0  0  0  0  0  0  0  0  0  0
   37.4910   33.8680   39.7480 H   0  0  0  0  0  0  0  0  0  0  0  0
   37.2050   32.3870   37.7350 H   0  0  0  0  0  0  0  0  0  0  0  0
   38.6340   30.8720   38.3490 C   0  0  0  0  0  0  0  0  0  0  0  0
   37.9780   29.7190   37.9510 F   0  0  0  0  0  0  0  0  0  0  0  0
   39.4520   30.5740   39.4410 F   0  0  0  0  0  0  0  0  0  0  0  0
   39.4040   31.2820   37.2900 F   0  0  0  0  0  0  0  0  0  0  0  0
   36.8560   27.0240   42.9370 C   0  0  2  0  0  0  0  0  0  0  0  0
   38.2690   26.4830   43.0730 C   0  0  0  0  0  0  0  0  0  0  0  0
   37.2290   25.7230   42.3140 C   0  0  2  0  0  0  0  0  0  0  0  0
   36.1740   27.0280   43.8140 H   0  0  0  0  0  0  0  0  0  0  0  0
   38.5940   26.0890   44.0590 H   0  0  0  0  0  0  0  0  0  0  0  0
   39.0770   26.9270   42.4950 H   0  0  0  0  0  0  0  0  0  0  0  0
   36.8580   24.8070   42.8220 H   0  0  0  0  0  0  0  0  0  0  0  0
   37.1940   25.6460   40.8290 C   0  0  0  0  0  3  0  0  0  0  0  0
   38.6150   25.4490   40.3400 C   0  0  0  0  0  2  0  0  0  0  0  0
   38.8660   23.9600   40.3210 C   0  0  0  0  0  2  0  0  0  0  0  0
   37.6340   23.3120   40.8850 C   0  0  0  0  0  2  0  0  0  0  0  0
   36.5600   24.2940   40.4800 C   0  0  0  0  0  2  0  0  0  0  0  0
  1  2  2  0  0  0  0
  1  6  1  0  0  0  0
  2  3  1  0  0  0  0
  3  8  1  0  0  0  0
  3  4  2  0  0  0  0
  5  4  1  0  0  0  0
  5 20  1  0  0  0  0
  6  5  2  0  0  0  0
  7  1  1  0  0  0  0
  9 12  1  6  0  0  0
  9 10  1  0  0  0  0
  9  2  1  0  0  0  0
 10 13  1  0  0  0  0
 11 15  1  6  0  0  0
 11  9  1  0  0  0  0
 11 10  1  0  0  0  0
 14 10  1  0  0  0  0
 16 11  1  0  0  0  0
 16 18  1  0  0  0  0
 17 16  1  0  0  0  0
 19 16  1  0  0  0  0
 20 21  1  0  0  0  0
 20 23  1  1  0  0  0
 21 24  1  0  0  0  0
 22 26  1  1  0  0  0
 22 20  1  0  0  0  0
 22 21  1  0  0  0  0
 25 21  1  0  0  0  0
 27 22  1  0  0  0  0
 28 27  1  0  0  0  0
 29 28  1  0  0  0  0
 29 30  1  0  0  0  0
 31 27  1  0  0  0  0
 31 30  1  0  0  0  0
M  END
>  <minimizedAffinity>
-5.31402969

$$$$

 OpenBabel03242520383D

 31 34  0  0  1  0  0  0  0  0999 V2000
   36.6360   27.5650   39.0750 C   0  0  0  0  0  0  0  0  0  0  0  0
   36.2480   28.9350   38.8310 C   0  0  0  0  0  0  0  0  0  0  0  0
   36.0490   29.7330   39.9270 C   0  0  0  0  0  0  0  0  0  0  0  0
   36.2180   29.2210   41.1710 N   0  0  0  0  0  0  0  0  0  0  0  0
   36.5820   27.9300   41.3690 C   0  0  0  0  0  0  0  0  0  0  0  0
   36.7870   27.1190   40.3090 N   0  0  0  0  0  0  0  0  0  0  0  0
   36.7960   26.9300   38.2280 H   0  0  0  0  0  0  0  0  0  0  0  0
   35.7570   30.7690   39.8260 H   0  0  0  0  0  0  0  0  0  0  0  0
   36.0530   29.4610   37.4510 C   0  0  1  0  0  0  0  0  0  0  0  0
   35.9370   28.5830   36.3290 C   0  0  0  0  0  0  0  0  0  0  0  0
   34.6850   29.2120   36.7890 C   0  0  1  0  0  0  0  0  0  0  0  0
   36.4340   30.5050   37.3640 H   0  0  0  0  0  0  0  0  0  0  0  0
   36.0060   27.4790   36.4400 H   0  0  0  0  0  0  0  0  0  0  0  0
   36.3240   28.9610   35.3440 H   0  0  0  0  0  0  0  0  0  0  0  0
   34.2890   30.1240   36.2580 H   0  0  0  0  0  0  0  0  0  0  0  0
   33.6180   28.4810   37.5090 C   0  0  0  0  0  0  0  0  0  0  0  0
   33.3820   29.0170   38.7630 F   0  0  0  0  0  0  0  0  0  0  0  0
   33.9280   27.1260   37.6460 F   0  0  0  0  0  0  0  0  0  0  0  0
   32.4600   28.6220   36.7870 F   0  0  0  0  0  0  0  0  0  0  0  0
   36.7500   27.4500   42.7680 C   0  0  2  0  0  0  0  0  0  0  0  0
   37.3880   28.4840   43.6790 C   0  0  0  0  0  0  0  0  0  0  0  0
   38.1160   27.2280   43.3210 C   0  0  2  0  0  0  0  0  0  0  0  0
   35.9080   26.8260   43.1380 H   0  0  0  0  0  0  0  0  0  0  0  0
   37.0010   28.5920   44.7140 H   0  0  0  0  0  0  0  0  0  0  0  0
   37.7700   29.4130   43.2590 H   0  0  0  0  0  0  0  0  0  0  0  0
   38.2010   26.4890   44.1460 H   0  0  0  0  0  0  0  0  0  0  0  0
   39.2420   27.1830   42.3510 C   0  0  0  0  0  3  0  0  0  0  0  0
   40.5090   27.5600   43.0930 C   0  0  0  0  0  2  0  0  0  0  0  0
   41.0730   26.2820   43.6680 C   0  0  0  0  0  2  0  0  0  0  0  0
   40.0880   25.1960   43.3420 C   0  0  0  0  0  2  0  0  0  0  0  0
   39.4940   25.7010   42.0480 C   0  0  0  0  0  2  0  0  0  0  0  0
  1  6  1  0  0  0  0
  2  1  2  0  0  0  0
  2  3  1  0  0  0  0
  3  4  2  0  0  0  0
  4  5  1  0  0  0  0
  5 20  1  0  0  0  0
  6  5  2  0  0  0  0
  7  1  1  0  0  0  0
  8  3  1  0  0  0  0
  9 12  1  6  0  0  0
  9  2  1  0  0  0  0
 10 13  1  0  0  0  0
 10 11  1  0  0  0  0
 10  9  1  0  0  0  0
 11 15  1  6  0  0  0
 11  9  1  0  0  0  0
 11 16  1  0  0  0  0
 14 10  1  0  0  0  0
 16 18  1  0  0  0  0
 16 17  1  0  0  0  0
 19 16  1  0  0  0  0
 20 23  1  1  0  0  0
 20 22  1  0  0  0  0
 20 21  1  0  0  0  0
 21 24  1  0  0  0  0
 22 21  1  0  0  0  0
 22 26  1  1  0  0  0
 25 21  1  0  0  0  0
 27 28  1  0  0  0  0
 27 22  1  0  0  0  0
 28 29  1  0  0  0  0
 30 29  1  0  0  0  0
 31 27  1  0  0  0  0
 31 30  1  0  0  0  0
M  END
>  <minimizedAffinity>
-5.29020834

$$$$

 OpenBabel03242520383D

 31 34  0  0  1  0  0  0  0  0999 V2000
   37.0290   28.2180   40.1020 C   0  0  0  0  0  0  0  0  0  0  0  0
   36.7770   28.5650   41.4820 C   0  0  0  0  0  0  0  0  0  0  0  0
   36.6790   29.8990   41.7830 C   0  0  0  0  0  0  0  0  0  0  0  0
   36.8190   30.8220   40.7990 N   0  0  0  0  0  0  0  0  0  0  0  0
   37.0560   30.4650   39.5130 C   0  0  0  0  0  0  0  0  0  0  0  0
   37.1570   29.1590   39.1850 N   0  0  0  0  0  0  0  0  0  0  0  0
   37.1070   27.1800   39.8530 H   0  0  0  0  0  0  0  0  0  0  0  0
   36.4920   30.2380   42.7920 H   0  0  0  0  0  0  0  0  0  0  0  0
   36.6450   27.5270   42.5410 C   0  0  1  0  0  0  0  0  0  0  0  0
   37.1770   26.2110   42.3640 C   0  0  0  0  0  0  0  0  0  0  0  0
   37.9330   27.0960   43.2690 C   0  0  1  0  0  0  0  0  0  0  0  0
   35.7790   27.7430   43.2080 H   0  0  0  0  0  0  0  0  0  0  0  0
   37.6890   25.9080   41.4250 H   0  0  0  0  0  0  0  0  0  0  0  0
   36.6310   25.3690   42.8700 H   0  0  0  0  0  0  0  0  0  0  0  0
   37.7920   27.0090   44.3840 H   0  0  0  0  0  0  0  0  0  0  0  0
   39.2380   27.7020   42.9190 C   0  0  0  0  0  0  0  0  0  0  0  0
   39.2800   29.0500   43.2310 F   0  0  0  0  0  0  0  0  0  0  0  0
   39.5310   27.5400   41.5640 F   0  0  0  0  0  0  0  0  0  0  0  0
   40.1980   27.0830   43.6800 F   0  0  0  0  0  0  0  0  0  0  0  0
   37.1930   31.5420   38.4950 C   0  0  2  0  0  0  0  0  0  0  0  0
   37.6960   31.0330   37.1550 C   0  0  0  0  0  0  0  0  0  0  0  0
   38.5440   31.9310   37.9990 C   0  0  2  0  0  0  0  0  0  0  0  0
   36.3900   32.3090   38.5330 H   0  0  0  0  0  0  0  0  0  0  0  0
   37.2500   31.4490   36.2270 H   0  0  0  0  0  0  0  0  0  0  0  0
   38.0190   29.9980   37.0560 H   0  0  0  0  0  0  0  0  0  0  0  0
   38.6490   32.9680   37.6140 H   0  0  0  0  0  0  0  0  0  0  0  0
   39.7170   31.4540   38.7780 C   0  0  0  0  0  3  0  0  0  0  0  0
   40.5630   30.5930   37.8620 C   0  0  0  0  0  2  0  0  0  0  0  0
   41.5240   31.5210   37.1570 C   0  0  0  0  0  2  0  0  0  0  0  0
   41.1680   32.9140   37.5920 C   0  0  0  0  0  2  0  0  0  0  0  0
   40.6270   32.6710   38.9820 C   0  0  0  0  0  2  0  0  0  0  0  0
  1  2  1  0  0  0  0
  2  3  2  0  0  0  0
  2  9  1  0  0  0  0
  3  8  1  0  0  0  0
  4  3  1  0  0  0  0
  5  4  2  0  0  0  0
  6  5  1  0  0  0  0
  6  1  2  0  0  0  0
  7  1  1  0  0  0  0
  9 12  1  1  0  0  0
  9 11  1  0  0  0  0
 10  9  1  0  0  0  0
 10 14  1  0  0  0  0
 10 11  1  0  0  0  0
 11 15  1  1  0  0  0
 13 10  1  0  0  0  0
 16 17  1  0  0  0  0
 16 11  1  0  0  0  0
 16 19  1  0  0  0  0
 18 16  1  0  0  0  0
 20 23  1  6  0  0  0
 20  5  1  0  0  0  0
 21 22  1  0  0  0  0
 21 20  1  0  0  0  0
 22 26  1  6  0  0  0
 22 20  1  0  0  0  0
 22 27  1  0  0  0  0
 24 21  1  0  0  0  0
 25 21  1  0  0  0  0
 27 31  1  0  0  0  0
 28 27  1  0  0  0  0
 29 30  1  0  0  0  0
 29 28  1  0  0  0  0
 30 31  1  0  0  0  0
M  END
>  <minimizedAffinity>
-5.15134621

$$$$

 OpenBabel03242520383D

 31 34  0  0  1  0  0  0  0  0999 V2000
   36.9530   26.6870   40.5190 C   0  0  0  0  0  0  0  0  0  0  0  0
   37.0090   26.1700   41.8670 C   0  0  0  0  0  0  0  0  0  0  0  0
   36.8340   27.0670   42.8880 C   0  0  0  0  0  0  0  0  0  0  0  0
   36.6190   28.3760   42.6040 N   0  0  0  0  0  0  0  0  0  0  0  0
   36.5720   28.8320   41.3280 C   0  0  0  0  0  0  0  0  0  0  0  0
   36.7410   27.9720   40.3000 N   0  0  0  0  0  0  0  0  0  0  0  0
   37.0880   25.9970   39.7110 H   0  0  0  0  0  0  0  0  0  0  0  0
   36.8630   26.7570   43.9230 H   0  0  0  0  0  0  0  0  0  0  0  0
   37.2650   24.7290   42.1450 C   0  0  1  0  0  0  0  0  0  0  0  0
   38.0230   23.9200   41.2420 C   0  0  0  0  0  0  0  0  0  0  0  0
   38.7120   24.3230   42.4810 C   0  0  1  0  0  0  0  0  0  0  0  0
   36.4890   24.3100   42.8250 H   0  0  0  0  0  0  0  0  0  0  0  0
   38.4330   24.3280   40.2920 H   0  0  0  0  0  0  0  0  0  0  0  0
   37.7510   22.8320   41.1820 H   0  0  0  0  0  0  0  0  0  0  0  0
   38.7700   23.6050   43.3480 H   0  0  0  0  0  0  0  0  0  0  0  0
   39.7920   25.3350   42.5260 C   0  0  0  0  0  0  0  0  0  0  0  0
   39.6260   26.2200   43.5780 F   0  0  0  0  0  0  0  0  0  0  0  0
   39.8650   26.0580   41.3340 F   0  0  0  0  0  0  0  0  0  0  0  0
   40.9730   24.6720   42.7410 F   0  0  0  0  0  0  0  0  0  0  0  0
   36.3280   30.2830   41.1050 C   0  0  2  0  0  0  0  0  0  0  0  0
   36.5720   30.7130   39.6690 C   0  0  0  0  0  0  0  0  0  0  0  0
   37.4640   31.1870   40.7710 C   0  0  2  0  0  0  0  0  0  0  0  0
   35.4610   30.6900   41.6680 H   0  0  0  0  0  0  0  0  0  0  0  0
   35.8740   31.4420   39.2060 H   0  0  0  0  0  0  0  0  0  0  0  0
   36.9980   30.0070   38.9570 H   0  0  0  0  0  0  0  0  0  0  0  0
   37.3400   32.2570   41.0420 H   0  0  0  0  0  0  0  0  0  0  0  0
   38.8380   30.6620   40.9950 C   0  0  0  0  0  3  0  0  0  0  0  0
   39.4880   30.4700   39.6390 C   0  0  0  0  0  2  0  0  0  0  0  0
   40.1450   31.7820   39.2820 C   0  0  0  0  0  2  0  0  0  0  0  0
   39.7940   32.7480   40.3770 C   0  0  0  0  0  2  0  0  0  0  0  0
   39.6590   31.8250   41.5660 C   0  0  0  0  0  2  0  0  0  0  0  0
  1  2  1  0  0  0  0
  2  9  1  0  0  0  0
  2  3  2  0  0  0  0
  3  8  1  0  0  0  0
  4  3  1  0  0  0  0
  5  4  2  0  0  0  0
  6  1  2  0  0  0  0
  6  5  1  0  0  0  0
  7  1  1  0  0  0  0
  9 11  1  0  0  0  0
  9 12  1  1  0  0  0
 10  9  1  0  0  0  0
 10 11  1  0  0  0  0
 11 16  1  0  0  0  0
 11 15  1  1  0  0  0
 13 10  1  0  0  0  0
 14 10  1  0  0  0  0
 16 19  1  0  0  0  0
 16 17  1  0  0  0  0
 18 16  1  0  0  0  0
 20  5  1  0  0  0  0
 20 23  1  1  0  0  0
 21 22  1  0  0  0  0
 21 20  1  0  0  0  0
 22 27  1  0  0  0  0
 22 26  1  1  0  0  0
 22 20  1  0  0  0  0
 24 21  1  0  0  0  0
 25 21  1  0  0  0  0
 27 31  1  0  0  0  0
 28 27  1  0  0  0  0
 29 28  1  0  0  0  0
 29 30  1  0  0  0  0
 30 31  1  0  0  0  0
M  END
>  <minimizedAffinity>
-5.11631489

$$$$

 OpenBabel03242520383D

 31 34  0  0  1  0  0  0  0  0999 V2000
   36.7230   26.9190   39.4520 C   0  0  0  0  0  0  0  0  0  0  0  0
   35.7520   27.9350   39.1160 C   0  0  0  0  0  0  0  0  0  0  0  0
   35.3180   28.7450   40.1330 C   0  0  0  0  0  0  0  0  0  0  0  0
   35.8030   28.5670   41.3870 N   0  0  0  0  0  0  0  0  0  0  0  0
   36.7140   27.6050   41.6720 C   0  0  0  0  0  0  0  0  0  0  0  0
   37.1610   26.7910   40.6910 N   0  0  0  0  0  0  0  0  0  0  0  0
   37.0710   26.2790   38.6670 H   0  0  0  0  0  0  0  0  0  0  0  0
   34.5930   29.5270   39.9610 H   0  0  0  0  0  0  0  0  0  0  0  0
   35.2260   28.0900   37.7310 C   0  0  1  0  0  0  0  0  0  0  0  0
   34.4370   29.2220   37.3570 C   0  0  0  0  0  0  0  0  0  0  0  0
   35.8280   29.2180   36.8710 C   0  0  1  0  0  0  0  0  0  0  0  0
   35.1450   27.1030   37.2210 H   0  0  0  0  0  0  0  0  0  0  0  0
   34.1700   30.0180   38.0880 H   0  0  0  0  0  0  0  0  0  0  0  0
   33.6560   29.0600   36.5650 H   0  0  0  0  0  0  0  0  0  0  0  0
   36.0520   28.8860   35.8180 H   0  0  0  0  0  0  0  0  0  0  0  0
   36.8880   30.0980   37.4130 C   0  0  0  0  0  0  0  0  0  0  0  0
   37.9930   29.3770   37.8330 F   0  0  0  0  0  0  0  0  0  0  0  0
   36.4180   30.8690   38.4780 F   0  0  0  0  0  0  0  0  0  0  0  0
   37.3060   30.9180   36.3950 F   0  0  0  0  0  0  0  0  0  0  0  0
   37.1970   27.4820   43.0740 C   0  0  2  0  0  0  0  0  0  0  0  0
   37.7820   28.7740   43.6170 C   0  0  0  0  0  0  0  0  0  0  0  0
   38.6530   27.5830   43.3720 C   0  0  2  0  0  0  0  0  0  0  0  0
   36.5550   26.8460   43.7220 H   0  0  0  0  0  0  0  0  0  0  0  0
   37.5610   29.0580   44.6670 H   0  0  0  0  0  0  0  0  0  0  0  0
   37.9150   29.6280   42.9540 H   0  0  0  0  0  0  0  0  0  0  0  0
   39.0070   27.0690   44.2920 H   0  0  0  0  0  0  0  0  0  0  0  0
   39.5910   27.4780   42.2230 C   0  0  0  0  0  3  0  0  0  0  0  0
   40.2560   28.8280   42.0400 C   0  0  0  0  0  2  0  0  0  0  0  0
   41.4820   28.8320   42.9230 C   0  0  0  0  0  2  0  0  0  0  0  0
   41.4680   27.5340   43.6780 C   0  0  0  0  0  2  0  0  0  0  0  0
   40.7680   26.6190   42.7000 C   0  0  0  0  0  2  0  0  0  0  0  0
  1  6  1  0  0  0  0
  2  1  2  0  0  0  0
  2  3  1  0  0  0  0
  3  4  2  0  0  0  0
  4  5  1  0  0  0  0
  5 20  1  0  0  0  0
  6  5  2  0  0  0  0
  7  1  1  0  0  0  0
  8  3  1  0  0  0  0
  9 12  1  6  0  0  0
  9  2  1  0  0  0  0
 10  9  1  0  0  0  0
 10 13  1  0  0  0  0
 11 15  1  6  0  0  0
 11 10  1  0  0  0  0
 11 16  1  0  0  0  0
 11  9  1  0  0  0  0
 14 10  1  0  0  0  0
 16 17  1  0  0  0  0
 16 18  1  0  0  0  0
 19 16  1  0  0  0  0
 20 22  1  0  0  0  0
 20 21  1  0  0  0  0
 20 23  1  1  0  0  0
 21 24  1  0  0  0  0
 22 21  1  0  0  0  0
 22 26  1  1  0  0  0
 25 21  1  0  0  0  0
 27 31  1  0  0  0  0
 27 22  1  0  0  0  0
 28 27  1  0  0  0  0
 28 29  1  0  0  0  0
 29 30  1  0  0  0  0
 31 30  1  0  0  0  0
M  END
>  <minimizedAffinity>
-5.11526442

$$$$

 OpenBabel03242520383D

 31 34  0  0  1  0  0  0  0  0999 V2000
   36.7430   30.0260   39.5570 C   0  0  0  0  0  0  0  0  0  0  0  0
   37.7660   30.9800   39.9160 C   0  0  0  0  0  0  0  0  0  0  0  0
   38.2980   30.8840   41.1760 C   0  0  0  0  0  0  0  0  0  0  0  0
   37.8540   29.9200   42.0200 N   0  0  0  0  0  0  0  0  0  0  0  0
   36.8910   29.0380   41.6550 C   0  0  0  0  0  0  0  0  0  0  0  0
   36.3490   29.1070   40.4200 N   0  0  0  0  0  0  0  0  0  0  0  0
   36.3190   30.0890   38.5760 H   0  0  0  0  0  0  0  0  0  0  0  0
   39.0670   31.5610   41.5170 H   0  0  0  0  0  0  0  0  0  0  0  0
   38.2180   32.0390   38.9700 C   0  0  1  0  0  0  0  0  0  0  0  0
   39.4900   32.6750   39.1170 C   0  0  0  0  0  0  0  0  0  0  0  0
   39.3840   31.6900   38.0260 C   0  0  1  0  0  0  0  0  0  0  0  0
   37.3490   32.5340   38.4800 H   0  0  0  0  0  0  0  0  0  0  0  0
   40.1810   32.4190   39.9500 H   0  0  0  0  0  0  0  0  0  0  0  0
   39.5660   33.7450   38.7840 H   0  0  0  0  0  0  0  0  0  0  0  0
   39.2050   32.0410   36.9700 H   0  0  0  0  0  0  0  0  0  0  0  0
   40.0150   30.3510   38.0670 C   0  0  0  0  0  0  0  0  0  0  0  0
   41.0350   30.2330   37.1370 F   0  0  0  0  0  0  0  0  0  0  0  0
   39.0810   29.3370   37.8460 F   0  0  0  0  0  0  0  0  0  0  0  0
   40.5820   30.1990   39.3070 F   0  0  0  0  0  0  0  0  0  0  0  0
   36.4650   28.0080   42.6420 C   0  0  2  0  0  0  0  0  0  0  0  0
   37.5600   27.6430   43.6290 C   0  0  0  0  0  0  0  0  0  0  0  0
   37.0820   26.6520   42.6160 C   0  0  2  0  0  0  0  0  0  0  0  0
   35.4160   28.1190   42.9900 H   0  0  0  0  0  0  0  0  0  0  0  0
   37.2850   27.4830   44.6930 H   0  0  0  0  0  0  0  0  0  0  0  0
   38.5650   28.0400   43.4950 H   0  0  0  0  0  0  0  0  0  0  0  0
   36.4690   25.8230   43.0310 H   0  0  0  0  0  0  0  0  0  0  0  0
   37.8590   26.2810   41.4040 C   0  0  0  0  0  3  0  0  0  0  0  0
   38.8540   25.2090   41.8000 C   0  0  0  0  0  2  0  0  0  0  0  0
   38.1500   23.8820   41.6430 C   0  0  0  0  0  2  0  0  0  0  0  0
   36.7340   24.1940   41.2530 C   0  0  0  0  0  2  0  0  0  0  0  0
   36.9030   25.4930   40.5000 C   0  0  0  0  0  2  0  0  0  0  0  0
  1  2  2  0  0  0  0
  1  6  1  0  0  0  0
  2  3  1  0  0  0  0
  3  8  1  0  0  0  0
  3  4  2  0  0  0  0
  5  4  1  0  0  0  0
  5 20  1  0  0  0  0
  6  5  2  0  0  0  0
  7  1  1  0  0  0  0
  9 12  1  6  0  0  0
  9 10  1  0  0  0  0
  9  2  1  0  0  0  0
 10 13  1  0  0  0  0
 11 15  1  6  0  0  0
 11 16  1  0  0  0  0
 11  9  1  0  0  0  0
 11 10  1  0  0  0  0
 14 10  1  0  0  0  0
 16 19  1  0  0  0  0
 17 16  1  0  0  0  0
 18 16  1  0  0  0  0
 20 23  1  1  0  0  0
 20 21  1  0  0  0  0
 21 24  1  0  0  0  0
 22 20  1  0  0  0  0
 22 26  1  1  0  0  0
 22 21  1  0  0  0  0
 25 21  1  0  0  0  0
 27 28  1  0  0  0  0
 27 22  1  0  0  0  0
 29 28  1  0  0  0  0
 30 29  1  0  0  0  0
 31 30  1  0  0  0  0
 31 27  1  0  0  0  0
M  END
>  <minimizedAffinity>
-5.0207777

$$$$
