
 OpenBabel03252505343D

 26 28  0  0  0  0  0  0  0  0999 V2000
   46.6450   34.7950   42.0760 C   0  0  0  0  0  0  0  0  0  0  0  0
   47.9120   35.2980   41.9740 C   0  0  0  0  0  0  0  0  0  0  0  0
   48.7160   35.1980   40.8470 C   0  0  0  0  0  0  0  0  0  0  0  0
   48.1970   34.5390   39.7360 C   0  0  0  0  0  0  0  0  0  0  0  0
   46.9180   34.0310   39.8370 C   0  0  0  0  0  0  0  0  0  0  0  0
   46.1420   34.1470   40.9760 C   0  0  0  0  0  0  0  0  0  0  0  0
   48.3800   35.8260   42.8070 H   0  0  0  0  0  0  0  0  0  0  0  0
   49.7140   35.6140   40.8200 H   0  0  0  0  0  0  0  0  0  0  0  0
   48.8250   34.4650   38.8640 H   0  0  0  0  0  0  0  0  0  0  0  0
   46.5570   33.5260   38.9450 H   0  0  0  0  0  0  0  0  0  0  0  0
   44.4660   36.1450   44.8200 C   0  0  0  0  0  0  0  0  0  0  0  0
   45.1220   36.0960   43.5660 C   0  0  0  0  0  0  0  0  0  0  0  0
   45.9210   34.9730   43.3140 C   0  0  0  0  0  0  0  0  0  0  0  0
   46.0410   33.9890   44.2520 N   0  0  0  0  0  0  0  0  0  0  0  0
   45.3770   34.1090   45.4380 C   0  0  0  0  0  0  0  0  0  0  0  0
   44.5980   35.1750   45.7180 N   0  0  0  0  0  0  0  0  0  0  0  0
   45.5010   33.1010   46.4270 N   0  0  0  0  0  0  0  0  0  0  0  0
   43.8750   37.0430   44.9250 H   0  0  0  0  0  0  0  0  0  0  0  0
   45.0580   36.8440   42.7980 H   0  0  0  0  0  0  0  0  0  0  0  0
   46.3590   33.2110   47.0120 H   0  0  0  0  0  0  0  0  0  0  0  0
   44.6520   32.4930   46.2890 H   0  0  0  0  0  0  0  0  0  0  0  0
   44.7690   33.5810   41.0300 C   0  0  0  0  0  3  0  0  0  0  0  0
   43.7580   34.5700   40.4390 C   0  0  0  0  0  2  0  0  0  0  0  0
   42.6790   33.5940   39.9860 C   0  0  0  0  0  2  0  0  0  0  0  0
   43.5530   32.6070   39.2060 C   0  0  0  0  0  2  0  0  0  0  0  0
   44.5990   32.3100   40.2670 C   0  0  0  0  0  2  0  0  0  0  0  0
  1 13  1  0  0  0  0
  2  1  1  0  0  0  0
  2  7  1  0  0  0  0
  3  2  2  0  0  0  0
  4  5  2  0  0  0  0
  4  3  1  0  0  0  0
  5  6  1  0  0  0  0
  6 22  1  0  0  0  0
  6  1  2  0  0  0  0
  8  3  1  0  0  0  0
  9  4  1  0  0  0  0
 10  5  1  0  0  0  0
 11 18  1  0  0  0  0
 11 16  1  0  0  0  0
 12 11  2  0  0  0  0
 13 12  1  0  0  0  0
 13 14  2  0  0  0  0
 14 15  1  0  0  0  0
 15 16  2  0  0  0  0
 15 17  1  0  0  0  0
 17 20  1  0  0  0  0
 19 12  1  0  0  0  0
 21 17  1  0  0  0  0
 23 22  1  0  0  0  0
 24 23  1  0  0  0  0
 25 24  1  0  0  0  0
 25 26  1  0  0  0  0
 26 22  1  0  0  0  0
M  END
>  <minimizedAffinity>
-5.95559359

>  <minimizedRMSD>
0.551549435

$$$$
