
     RDKit          3D

 29 30  0  0  0  0  0  0  0  0999 V2000
   46.3485   35.2128   42.5922 C   0  0  0  0  0  0  0  0  0  0  0  0
   46.8733   34.1047   43.2788 C   0  0  0  0  0  0  0  0  0  0  0  0
   46.3403   33.7666   44.5230 C   0  0  0  0  0  0  0  0  0  0  0  0
   45.3223   34.5473   45.0075 N   0  0  0  0  0  0  0  0  0  0  0  0
   44.8416   35.6002   44.3284 C   0  0  0  0  0  0  0  0  0  0  0  0
   45.3540   35.9396   43.1130 N   0  0  0  0  0  0  0  0  0  0  0  0
   47.8990   33.4048   42.6769 O   0  0  0  0  0  0  0  0  0  0  0  0
   50.3896   33.1915   41.8161 O   0  0  0  0  0  0  0  0  0  0  0  0
   49.3328   34.1958   42.1473 P   0  0  0  0  0  0  0  0  0  0  0  0
   49.0435   35.1050   40.7483 O   0  0  0  0  0  0  0  0  0  0  0  0
   49.8991   35.2296   43.3584 O   0  0  0  0  0  0  0  0  0  0  0  0
   46.7262   35.5166   41.6251 H   0  0  0  0  0  0  0  0  0  0  0  0
   44.0328   36.2103   44.7269 H   0  0  0  0  0  0  0  0  0  0  0  0
   48.7181   34.5710   40.0049 H   0  0  0  0  0  0  0  0  0  0  0  0
   49.3940   36.0934   43.2448 H   0  0  0  0  0  0  0  0  0  0  0  0
   46.8429   32.6286   45.2751 C   0  0  0  0  0  0  0  0  0  0  0  0
   47.3123   31.4741   44.4213 C   0  0  0  0  0  0  0  0  0  0  0  0
   47.2037   30.3256   45.4043 C   0  0  0  0  0  0  0  0  0  0  0  0
   45.8127   30.5930   45.9941 C   0  0  0  0  0  0  0  0  0  0  0  0
   45.9685   32.0800   46.3452 C   0  0  0  0  0  0  0  0  0  0  0  0
   47.7845   32.9818   45.8000 H   0  0  0  0  0  0  0  0  0  0  0  0
   46.6199   31.2512   43.5862 H   0  0  0  0  0  0  0  0  0  0  0  0
   48.3531   31.5709   44.1093 H   0  0  0  0  0  0  0  0  0  0  0  0
   47.9443   30.4442   46.2413 H   0  0  0  0  0  0  0  0  0  0  0  0
   47.2643   29.3405   44.9294 H   0  0  0  0  0  0  0  0  0  0  0  0
   45.6276   29.9731   46.8877 H   0  0  0  0  0  0  0  0  0  0  0  0
   45.0907   30.4295   45.1882 H   0  0  0  0  0  0  0  0  0  0  0  0
   45.0069   32.5764   46.4989 H   0  0  0  0  0  0  0  0  0  0  0  0
   46.4765   32.0404   47.3574 H   0  0  0  0  0  0  0  0  0  0  0  0
  1  6  2  0
  1  2  1  0
  2  3  2  0
  3  4  1  0
  5  4  2  0
  6  5  1  0
  7  2  1  0
  8  9  2  0
  9  7  1  0
  9 11  1  0
 10  9  1  0
  1 12  1  0
  5 13  1  0
 10 14  1  0
 11 15  1  0
 16 17  1  0
 17 18  1  0
 18 19  1  0
 19 20  1  0
 20 16  1  0
 16 21  1  0
 17 22  1  0
 17 23  1  0
 18 24  1  0
 18 25  1  0
 19 26  1  0
 19 27  1  0
 20 28  1  0
 20 29  1  0
  3 16  1  0
M  ISO  4  12  14  13  14  14   3  15   3
M  END
>  <DihAtoms>  (1) 
1,2,15,16

>  <DihDeg>  (1) 
86.89611680970998

$$$$
