
 OpenBabel03242520493D

 15 16  0  0  0  0  0  0  0  0999 V2000
   37.2790   33.0980   39.5720 C   0  0  0  0  0  0  0  0  0  0  0  0
   37.0950   31.7600   39.9300 C   0  0  0  0  0  0  0  0  0  0  0  0
   38.0310   31.1540   40.7630 C   0  0  0  0  0  0  0  0  0  0  0  0
   39.0870   31.8820   41.1950 N   0  0  0  0  0  0  0  0  0  0  0  0
   39.2360   33.1830   40.8260 C   0  0  0  0  0  0  0  0  0  0  0  0
   38.3310   33.7880   40.0150 N   0  0  0  0  0  0  0  0  0  0  0  0
   36.5390   33.5520   38.9240 H   0  0  0  0  0  0  0  0  0  0  0  0
   36.2610   31.1420   39.6060 H   0  0  0  0  0  0  0  0  0  0  0  0
   40.0940   33.7240   41.1940 H   0  0  0  0  0  0  0  0  0  0  0  0
   37.9770   29.8420   41.1970 O   0  0  0  0  0  0  0  0  0  0  0  0
   37.2040   29.3470   42.2350 C   0  0  0  0  0  3  0  0  0  0  0  0
   37.9960   28.8910   43.4330 C   0  0  0  0  0  2  0  0  0  0  0  0
   38.4880   27.5480   42.9880 C   0  0  0  0  0  2  0  0  0  0  0  0
   37.2360   26.9230   42.4250 C   0  0  0  0  0  2  0  0  0  0  0  0
   36.5080   28.0620   41.7890 C   0  0  0  0  0  2  0  0  0  0  0  0
  1  2  2  0  0  0  0
  1  6  1  0  0  0  0
  2  3  1  0  0  0  0
  3  4  2  0  0  0  0
  3 10  1  0  0  0  0
  5  9  1  0  0  0  0
  5  4  1  0  0  0  0
  6  5  2  0  0  0  0
  7  1  1  0  0  0  0
  8  2  1  0  0  0  0
 10 11  1  0  0  0  0
 11 12  1  0  0  0  0
 13 12  1  0  0  0  0
 14 13  1  0  0  0  0
 15 11  1  0  0  0  0
 15 14  1  0  0  0  0
M  END
>  <minimizedAffinity>
-3.96911311

$$$$

 OpenBabel03242520493D

 15 16  0  0  0  0  0  0  0  0999 V2000
   36.8620   30.5560   38.2490 C   0  0  0  0  0  0  0  0  0  0  0  0
   36.4330   29.4670   39.0120 C   0  0  0  0  0  0  0  0  0  0  0  0
   36.2690   29.6330   40.3840 C   0  0  0  0  0  0  0  0  0  0  0  0
   36.5330   30.8430   40.9310 N   0  0  0  0  0  0  0  0  0  0  0  0
   36.9490   31.8830   40.1580 C   0  0  0  0  0  0  0  0  0  0  0  0
   37.1120   31.7360   38.8180 N   0  0  0  0  0  0  0  0  0  0  0  0
   36.9830   30.4080   37.1820 H   0  0  0  0  0  0  0  0  0  0  0  0
   36.2110   28.4810   38.6120 H   0  0  0  0  0  0  0  0  0  0  0  0
   37.1470   32.8290   40.6370 H   0  0  0  0  0  0  0  0  0  0  0  0
   35.8530   28.6470   41.2590 O   0  0  0  0  0  0  0  0  0  0  0  0
   36.6100   27.5850   41.7280 C   0  0  0  0  0  3  0  0  0  0  0  0
   36.5770   27.4140   43.2240 C   0  0  0  0  0  2  0  0  0  0  0  0
   37.5390   28.4680   43.6800 C   0  0  0  0  0  2  0  0  0  0  0  0
   38.7120   28.2460   42.7570 C   0  0  0  0  0  2  0  0  0  0  0  0
   38.0900   27.8510   41.4570 C   0  0  0  0  0  2  0  0  0  0  0  0
  1  6  2  0  0  0  0
  1  2  1  0  0  0  0
  2  3  2  0  0  0  0
  3  4  1  0  0  0  0
  3 10  1  0  0  0  0
  5  9  1  0  0  0  0
  5  4  2  0  0  0  0
  6  5  1  0  0  0  0
  7  1  1  0  0  0  0
  8  2  1  0  0  0  0
 10 11  1  0  0  0  0
 11 12  1  0  0  0  0
 12 13  1  0  0  0  0
 14 13  1  0  0  0  0
 15 11  1  0  0  0  0
 15 14  1  0  0  0  0
M  END
>  <minimizedAffinity>
-3.86282969

$$$$

 OpenBabel03242520493D

 15 16  0  0  0  0  0  0  0  0999 V2000
   39.5010   33.0700   40.6940 C   0  0  0  0  0  0  0  0  0  0  0  0
   39.4850   31.7680   41.2000 C   0  0  0  0  0  0  0  0  0  0  0  0
   38.3380   30.9970   41.0330 C   0  0  0  0  0  0  0  0  0  0  0  0
   37.2780   31.5370   40.3880 N   0  0  0  0  0  0  0  0  0  0  0  0
   37.3270   32.8100   39.9080 C   0  0  0  0  0  0  0  0  0  0  0  0
   38.4390   33.5720   40.0620 N   0  0  0  0  0  0  0  0  0  0  0  0
   40.4020   33.6540   40.8330 H   0  0  0  0  0  0  0  0  0  0  0  0
   40.3140   31.2970   41.7230 H   0  0  0  0  0  0  0  0  0  0  0  0
   36.4570   33.1980   39.4000 H   0  0  0  0  0  0  0  0  0  0  0  0
   38.1820   29.6980   41.4810 O   0  0  0  0  0  0  0  0  0  0  0  0
   37.2000   29.2340   42.3430 C   0  0  0  0  0  3  0  0  0  0  0  0
   37.7200   28.7700   43.6790 C   0  0  0  0  0  2  0  0  0  0  0  0
   38.2550   27.4100   43.3500 C   0  0  0  0  0  2  0  0  0  0  0  0
   37.1270   26.8120   42.5470 C   0  0  0  0  0  2  0  0  0  0  0  0
   36.5740   27.9630   41.7710 C   0  0  0  0  0  2  0  0  0  0  0  0
  1  7  1  0  0  0  0
  1  2  1  0  0  0  0
  2  8  1  0  0  0  0
  3  2  2  0  0  0  0
  3 10  1  0  0  0  0
  4  3  1  0  0  0  0
  5  6  1  0  0  0  0
  5  4  2  0  0  0  0
  6  1  2  0  0  0  0
  9  5  1  0  0  0  0
 10 11  1  0  0  0  0
 11 12  1  0  0  0  0
 13 12  1  0  0  0  0
 14 13  1  0  0  0  0
 15 11  1  0  0  0  0
 15 14  1  0  0  0  0
M  END
>  <minimizedAffinity>
-3.81112218

$$$$

 OpenBabel03242520493D

 15 16  0  0  0  0  0  0  0  0999 V2000
   37.1600   32.4070   39.5310 C   0  0  0  0  0  0  0  0  0  0  0  0
   36.9990   31.5540   40.6250 C   0  0  0  0  0  0  0  0  0  0  0  0
   37.1990   30.1880   40.4460 C   0  0  0  0  0  0  0  0  0  0  0  0
   37.5410   29.7350   39.2170 N   0  0  0  0  0  0  0  0  0  0  0  0
   37.6890   30.5940   38.1720 C   0  0  0  0  0  0  0  0  0  0  0  0
   37.4980   31.9280   38.3330 N   0  0  0  0  0  0  0  0  0  0  0  0
   37.0010   33.4670   39.6900 H   0  0  0  0  0  0  0  0  0  0  0  0
   36.7270   31.8770   41.6270 H   0  0  0  0  0  0  0  0  0  0  0  0
   37.9620   30.1870   37.2110 H   0  0  0  0  0  0  0  0  0  0  0  0
   37.0750   29.2300   41.4360 O   0  0  0  0  0  0  0  0  0  0  0  0
   37.5330   29.3270   42.7410 C   0  0  0  0  0  3  0  0  0  0  0  0
   39.0320   29.4130   42.8650 C   0  0  0  0  0  2  0  0  0  0  0  0
   39.4410   27.9820   42.6910 C   0  0  0  0  0  2  0  0  0  0  0  0
   38.4840   27.2650   43.6110 C   0  0  0  0  0  2  0  0  0  0  0  0
   37.2110   28.0380   43.4940 C   0  0  0  0  0  2  0  0  0  0  0  0
  1  7  1  0  0  0  0
  1  2  1  0  0  0  0
  2  8  1  0  0  0  0
  3  2  2  0  0  0  0
  3 10  1  0  0  0  0
  4  3  1  0  0  0  0
  5  6  1  0  0  0  0
  5  4  2  0  0  0  0
  6  1  2  0  0  0  0
  9  5  1  0  0  0  0
 10 11  1  0  0  0  0
 11 12  1  0  0  0  0
 11 15  1  0  0  0  0
 13 12  1  0  0  0  0
 13 14  1  0  0  0  0
 15 14  1  0  0  0  0
M  END
>  <minimizedAffinity>
-3.77178478

$$$$

 OpenBabel03242520493D

 15 16  0  0  0  0  0  0  0  0999 V2000
   39.0180   27.8400   43.2770 C   0  0  0  0  0  0  0  0  0  0  0  0
   38.9690   29.1260   42.7310 C   0  0  0  0  0  0  0  0  0  0  0  0
   37.8140   29.5280   42.0660 C   0  0  0  0  0  0  0  0  0  0  0  0
   36.7800   28.6600   41.9700 N   0  0  0  0  0  0  0  0  0  0  0  0
   36.8620   27.4150   42.5130 C   0  0  0  0  0  0  0  0  0  0  0  0
   37.9810   27.0090   43.1650 N   0  0  0  0  0  0  0  0  0  0  0  0
   39.9240   27.5460   43.7920 H   0  0  0  0  0  0  0  0  0  0  0  0
   39.7750   29.8520   42.7870 H   0  0  0  0  0  0  0  0  0  0  0  0
   36.0130   26.7560   42.4110 H   0  0  0  0  0  0  0  0  0  0  0  0
   37.6270   30.7660   41.4790 O   0  0  0  0  0  0  0  0  0  0  0  0
   38.0920   31.1710   40.2380 C   0  0  0  0  0  3  0  0  0  0  0  0
   39.2800   32.0960   40.2940 C   0  0  0  0  0  2  0  0  0  0  0  0
   38.6380   33.4090   40.6240 C   0  0  0  0  0  2  0  0  0  0  0  0
   37.4880   33.4510   39.6490 C   0  0  0  0  0  2  0  0  0  0  0  0
   37.0350   32.0310   39.5480 C   0  0  0  0  0  2  0  0  0  0  0  0
  1  7  1  0  0  0  0
  2  8  1  0  0  0  0
  2  1  2  0  0  0  0
  3  2  1  0  0  0  0
  4  3  2  0  0  0  0
  4  5  1  0  0  0  0
  5  6  2  0  0  0  0
  6  1  1  0  0  0  0
  9  5  1  0  0  0  0
 10  3  1  0  0  0  0
 11 12  1  0  0  0  0
 11 10  1  0  0  0  0
 12 13  1  0  0  0  0
 14 13  1  0  0  0  0
 15 14  1  0  0  0  0
 15 11  1  0  0  0  0
M  END
>  <minimizedAffinity>
-3.6857636

$$$$

 OpenBabel03242520493D

 15 16  0  0  0  0  0  0  0  0999 V2000
   39.2910   27.4030   42.2960 C   0  0  0  0  0  0  0  0  0  0  0  0
   39.2540   28.5960   41.5700 C   0  0  0  0  0  0  0  0  0  0  0  0
   38.3310   29.5730   41.9310 C   0  0  0  0  0  0  0  0  0  0  0  0
   37.5010   29.3330   42.9730 N   0  0  0  0  0  0  0  0  0  0  0  0
   37.5640   28.1590   43.6600 C   0  0  0  0  0  0  0  0  0  0  0  0
   38.4600   27.1980   43.3190 N   0  0  0  0  0  0  0  0  0  0  0  0
   40.0170   26.6550   42.0000 H   0  0  0  0  0  0  0  0  0  0  0  0
   39.9020   28.8290   40.7280 H   0  0  0  0  0  0  0  0  0  0  0  0
   36.8830   28.0110   44.4830 H   0  0  0  0  0  0  0  0  0  0  0  0
   38.1820   30.7970   41.3040 O   0  0  0  0  0  0  0  0  0  0  0  0
   37.0160   31.3090   40.7590 C   0  0  0  0  0  3  0  0  0  0  0  0
   36.4060   30.4480   39.6830 C   0  0  0  0  0  2  0  0  0  0  0  0
   37.2590   30.7810   38.4970 C   0  0  0  0  0  2  0  0  0  0  0  0
   37.3010   32.2880   38.5510 C   0  0  0  0  0  2  0  0  0  0  0  0
   37.3240   32.6050   40.0110 C   0  0  0  0  0  2  0  0  0  0  0  0
  1  6  1  0  0  0  0
  2  3  1  0  0  0  0
  2  1  2  0  0  0  0
  3  4  2  0  0  0  0
  4  5  1  0  0  0  0
  5  9  1  0  0  0  0
  6  5  2  0  0  0  0
  7  1  1  0  0  0  0
  8  2  1  0  0  0  0
 10  3  1  0  0  0  0
 11 10  1  0  0  0  0
 12 11  1  0  0  0  0
 13 14  1  0  0  0  0
 13 12  1  0  0  0  0
 14 15  1  0  0  0  0
 15 11  1  0  0  0  0
M  END
>  <minimizedAffinity>
-3.63393021

$$$$

 OpenBabel03242520493D

 15 16  0  0  0  0  0  0  0  0999 V2000
   40.0430   32.8460   40.4960 C   0  0  0  0  0  0  0  0  0  0  0  0
   39.4780   31.9800   41.4360 C   0  0  0  0  0  0  0  0  0  0  0  0
   38.5940   30.9990   40.9970 C   0  0  0  0  0  0  0  0  0  0  0  0
   38.3120   30.9180   39.6760 N   0  0  0  0  0  0  0  0  0  0  0  0
   38.8800   31.7790   38.7870 C   0  0  0  0  0  0  0  0  0  0  0  0
   39.7450   32.7400   39.2010 N   0  0  0  0  0  0  0  0  0  0  0  0
   40.7290   33.6030   40.8570 H   0  0  0  0  0  0  0  0  0  0  0  0
   39.6780   32.0110   42.5040 H   0  0  0  0  0  0  0  0  0  0  0  0
   38.6260   31.6770   37.7430 H   0  0  0  0  0  0  0  0  0  0  0  0
   37.9620   30.0770   41.8120 O   0  0  0  0  0  0  0  0  0  0  0  0
   37.9450   28.7010   41.6450 C   0  0  0  0  0  3  0  0  0  0  0  0
   36.7290   28.0230   42.2200 C   0  0  0  0  0  2  0  0  0  0  0  0
   37.0620   27.9710   43.6800 C   0  0  0  0  0  2  0  0  0  0  0  0
   38.4780   27.4530   43.6630 C   0  0  0  0  0  2  0  0  0  0  0  0
   39.0850   28.0740   42.4470 C   0  0  0  0  0  2  0  0  0  0  0  0
  1  7  1  0  0  0  0
  1  2  1  0  0  0  0
  2  8  1  0  0  0  0
  3  2  2  0  0  0  0
  3 10  1  0  0  0  0
  4  3  1  0  0  0  0
  5  6  1  0  0  0  0
  5  4  2  0  0  0  0
  6  1  2  0  0  0  0
  9  5  1  0  0  0  0
 11 10  1  0  0  0  0
 11 12  1  0  0  0  0
 11 15  1  0  0  0  0
 12 13  1  0  0  0  0
 14 13  1  0  0  0  0
 15 14  1  0  0  0  0
M  END
>  <minimizedAffinity>
-3.53416824

$$$$

 OpenBabel03242520493D

 15 16  0  0  0  0  0  0  0  0999 V2000
   37.9400   29.5200   37.3850 C   0  0  0  0  0  0  0  0  0  0  0  0
   38.2460   28.9950   38.6430 C   0  0  0  0  0  0  0  0  0  0  0  0
   38.0580   29.7950   39.7670 C   0  0  0  0  0  0  0  0  0  0  0  0
   37.5860   31.0520   39.6010 N   0  0  0  0  0  0  0  0  0  0  0  0
   37.2980   31.5320   38.3600 C   0  0  0  0  0  0  0  0  0  0  0  0
   37.4760   30.7640   37.2560 N   0  0  0  0  0  0  0  0  0  0  0  0
   38.0930   28.8820   36.5230 H   0  0  0  0  0  0  0  0  0  0  0  0
   38.6260   27.9920   38.8200 H   0  0  0  0  0  0  0  0  0  0  0  0
   36.9240   32.5410   38.2760 H   0  0  0  0  0  0  0  0  0  0  0  0
   38.3180   29.4080   41.0690 O   0  0  0  0  0  0  0  0  0  0  0  0
   37.3990   29.3230   42.1040 C   0  0  0  0  0  3  0  0  0  0  0  0
   38.0050   28.9880   43.4420 C   0  0  0  0  0  2  0  0  0  0  0  0
   38.2100   27.5080   43.3300 C   0  0  0  0  0  2  0  0  0  0  0  0
   36.8830   27.0460   42.7830 C   0  0  0  0  0  2  0  0  0  0  0  0
   36.4610   28.1420   41.8610 C   0  0  0  0  0  2  0  0  0  0  0  0
  1  2  1  0  0  0  0
  2  8  1  0  0  0  0
  2  3  2  0  0  0  0
  3 10  1  0  0  0  0
  4  3  1  0  0  0  0
  5  4  2  0  0  0  0
  6  1  2  0  0  0  0
  6  5  1  0  0  0  0
  7  1  1  0  0  0  0
  9  5  1  0  0  0  0
 10 11  1  0  0  0  0
 11 12  1  0  0  0  0
 13 12  1  0  0  0  0
 14 13  1  0  0  0  0
 15 11  1  0  0  0  0
 15 14  1  0  0  0  0
M  END
>  <minimizedAffinity>
-3.51081204

$$$$

 OpenBabel03242520493D

 15 16  0  0  0  0  0  0  0  0999 V2000
   39.4600   26.2630   43.1650 C   0  0  0  0  0  0  0  0  0  0  0  0
   39.0310   27.5920   43.1540 C   0  0  0  0  0  0  0  0  0  0  0  0
   37.7740   27.8870   42.6330 C   0  0  0  0  0  0  0  0  0  0  0  0
   37.0130   26.8750   42.1540 N   0  0  0  0  0  0  0  0  0  0  0  0
   37.4630   25.5910   42.1800 C   0  0  0  0  0  0  0  0  0  0  0  0
   38.6860   25.2890   42.6850 N   0  0  0  0  0  0  0  0  0  0  0  0
   40.4410   26.0530   43.5750 H   0  0  0  0  0  0  0  0  0  0  0  0
   39.6100   28.4320   43.5290 H   0  0  0  0  0  0  0  0  0  0  0  0
   36.8220   24.8170   41.7860 H   0  0  0  0  0  0  0  0  0  0  0  0
   37.2220   29.1530   42.5580 O   0  0  0  0  0  0  0  0  0  0  0  0
   37.4600   30.1010   41.5760 C   0  0  0  0  0  3  0  0  0  0  0  0
   36.2270   30.8310   41.1090 C   0  0  0  0  0  2  0  0  0  0  0  0
   35.6090   29.8330   40.1780 C   0  0  0  0  0  2  0  0  0  0  0  0
   36.7900   29.4030   39.3450 C   0  0  0  0  0  2  0  0  0  0  0  0
   37.9380   29.4090   40.3000 C   0  0  0  0  0  2  0  0  0  0  0  0
  1  7  1  0  0  0  0
  2  1  1  0  0  0  0
  2  8  1  0  0  0  0
  3  2  2  0  0  0  0
  4  5  2  0  0  0  0
  4  3  1  0  0  0  0
  5  6  1  0  0  0  0
  6  1  2  0  0  0  0
  9  5  1  0  0  0  0
 10  3  1  0  0  0  0
 11 10  1  0  0  0  0
 12 11  1  0  0  0  0
 13 12  1  0  0  0  0
 14 13  1  0  0  0  0
 14 15  1  0  0  0  0
 15 11  1  0  0  0  0
M  END
>  <minimizedAffinity>
-3.48732424

$$$$
