
 OpenBabel03252506023D

 24 26  0  0  0  0  0  0  0  0999 V2000
   44.8330   36.2130   43.0000 Cl  0  0  0  0  0  0  0  0  0  0  0  0
   45.4950   34.9730   43.9960 C   0  0  0  0  0  0  0  0  0  0  0  0
   46.5280   34.1740   43.5610 C   0  0  0  0  0  0  0  0  0  0  0  0
   46.9840   33.2170   44.4260 C   0  0  0  0  0  0  0  0  0  0  0  0
   46.5030   32.9830   45.6910 C   0  0  0  0  0  0  0  0  0  0  0  0
   45.4580   33.8030   46.1120 C   0  0  0  0  0  0  0  0  0  0  0  0
   44.8370   33.4990   47.7260 Cl  0  0  0  0  0  0  0  0  0  0  0  0
   44.9570   34.7840   45.2820 C   0  0  0  0  0  0  0  0  0  0  0  0
   47.8000   32.6100   44.0360 H   0  0  0  0  0  0  0  0  0  0  0  0
   44.1470   35.4020   45.6360 H   0  0  0  0  0  0  0  0  0  0  0  0
   48.7420   35.3910   40.9150 C   0  0  0  0  0  0  0  0  0  0  0  0
   48.2570   34.7340   39.7630 C   0  0  0  0  0  0  0  0  0  0  0  0
   47.1620   33.8670   39.9080 C   0  0  0  0  0  0  0  0  0  0  0  0
   46.6320   33.7120   41.1560 N   0  0  0  0  0  0  0  0  0  0  0  0
   47.1120   34.3480   42.2240 C   0  0  0  0  0  0  0  0  0  0  0  0
   48.1770   35.1970   42.1200 N   0  0  0  0  0  0  0  0  0  0  0  0
   49.5830   36.0680   40.8610 H   0  0  0  0  0  0  0  0  0  0  0  0
   48.7060   34.8890   38.8120 H   0  0  0  0  0  0  0  0  0  0  0  0
   46.7410   33.3310   39.0580 H   0  0  0  0  0  0  0  0  0  0  0  0
   47.0380   31.9400   46.5650 C   0  0  0  0  0  3  0  0  0  0  0  0
   47.1820   32.2930   47.9950 C   0  0  0  0  0  2  0  0  0  0  0  0
   46.8690   30.9960   48.7140 C   0  0  0  0  0  2  0  0  0  0  0  0
   45.6830   30.4760   47.8950 C   0  0  0  0  0  2  0  0  0  0  0  0
   46.2370   30.6580   46.4960 C   0  0  0  0  0  2  0  0  0  0  0  0
  1  2  1  0  0  0  0
  2  8  1  0  0  0  0
  3  2  2  0  0  0  0
  3  4  1  0  0  0  0
  4  5  2  0  0  0  0
  5  6  1  0  0  0  0
  5 20  1  0  0  0  0
  6  7  1  0  0  0  0
  8 10  1  0  0  0  0
  8  6  2  0  0  0  0
  9  4  1  0  0  0  0
 11 16  1  0  0  0  0
 12 13  1  0  0  0  0
 12 11  2  0  0  0  0
 13 14  2  0  0  0  0
 14 15  1  0  0  0  0
 15  3  1  0  0  0  0
 16 15  2  0  0  0  0
 17 11  1  0  0  0  0
 18 12  1  0  0  0  0
 19 13  1  0  0  0  0
 20 21  1  0  0  0  0
 21 22  1  0  0  0  0
 23 22  1  0  0  0  0
 24 20  1  0  0  0  0
 24 23  1  0  0  0  0
M  END
>  <minimizedAffinity>
-5.95908356

>  <minimizedRMSD>
0.436949879

$$$$
