
     RDKit          3D

 43 46  0  0  0  0  0  0  0  0999 V2000
   46.8860   34.9152   42.1545 C   0  0  2  0  0  0  0  0  0  0  0  0
   46.3804   33.9032   41.1585 C   0  0  0  0  0  0  0  0  0  0  0  0
   47.5804   33.8877   40.2110 C   0  0  0  0  0  0  0  0  0  0  0  0
   48.7860   34.1008   41.1103 C   0  0  1  0  0  0  0  0  0  0  0  0
   48.2449   34.2914   42.4785 C   0  0  0  0  0  0  0  0  0  0  0  0
   44.4330   36.0873   44.7706 C   0  0  0  0  0  0  0  0  0  0  0  0
   45.1611   36.0776   43.5703 C   0  0  0  0  0  0  0  0  0  0  0  0
   46.0500   35.0156   43.3800 C   0  0  0  0  0  0  0  0  0  0  0  0
   46.1857   34.0293   44.3516 N   0  0  0  0  0  0  0  0  0  0  0  0
   45.4505   34.1019   45.4884 C   0  0  0  0  0  0  0  0  0  0  0  0
   44.5885   35.1134   45.6949 N   0  0  0  0  0  0  0  0  0  0  0  0
   49.7076   32.9425   41.1559 C   0  0  2  0  0  0  0  0  0  0  0  0
   49.5990   32.0283   42.3139 C   0  0  0  0  0  0  0  0  0  0  0  0
   50.8700   32.7628   41.9607 C   0  0  2  0  0  0  0  0  0  0  0  0
   47.0096   35.8996   41.7025 H   0  0  0  0  0  0  0  0  0  0  0  0
   45.4592   34.2285   40.6370 H   0  0  0  0  0  0  0  0  0  0  0  0
   46.2396   32.9513   41.6778 H   0  0  0  0  0  0  0  0  0  0  0  0
   47.6183   32.9328   39.6518 H   0  0  0  0  0  0  0  0  0  0  0  0
   47.4694   34.7853   39.5688 H   0  0  0  0  0  0  0  0  0  0  0  0
   49.3267   35.0285   40.8316 H   0  0  0  0  0  0  0  0  0  0  0  0
   47.8699   33.4006   43.0061 H   0  0  0  0  0  0  0  0  0  0  0  0
   48.7223   35.0601   43.0887 H   0  0  0  0  0  0  0  0  0  0  0  0
   43.7350   36.8952   44.9507 H   0  0  0  0  0  0  0  0  0  0  0  0
   45.0642   36.8351   42.8120 H   0  0  0  0  0  0  0  0  0  0  0  0
   45.6552   33.2734   46.1545 H   0  0  0  0  0  0  0  0  0  0  0  0
   49.6506   32.4143   40.1518 H   0  0  0  0  0  0  0  0  0  0  0  0
   49.5035   30.9236   42.0835 H   0  0  0  0  0  0  0  0  0  0  0  0
   49.4211   32.1851   43.3521 H   0  0  0  0  0  0  0  0  0  0  0  0
   51.6250   32.0343   41.5021 H   0  0  0  0  0  0  0  0  0  0  0  0
   51.6004   33.6692   42.8542 C   0  0  0  0  0  0  0  0  0  0  0  0
   50.6740   34.5072   43.6756 C   0  0  0  0  0  0  0  0  0  0  0  0
   50.0318   35.3667   42.5747 C   0  0  0  0  0  0  0  0  0  0  0  0
   51.1732   35.6176   41.5990 C   0  0  0  0  0  0  0  0  0  0  0  0
   52.3220   34.7460   42.0560 C   0  0  0  0  0  0  0  0  0  0  0  0
   52.4156   33.2112   43.4462 H   0  0  0  0  0  0  0  0  0  0  0  0
   51.2690   35.2670   44.2716 H   0  0  0  0  0  0  0  0  0  0  0  0
   49.9476   33.9898   44.2893 H   0  0  0  0  0  0  0  0  0  0  0  0
   49.1877   34.8451   42.0923 H   0  0  0  0  0  0  0  0  0  0  0  0
   49.7446   36.3649   42.9795 H   0  0  0  0  0  0  0  0  0  0  0  0
   51.5494   36.6665   41.6497 H   0  0  0  0  0  0  0  0  0  0  0  0
   50.9032   35.3853   40.5616 H   0  0  0  0  0  0  0  0  0  0  0  0
   52.8107   34.2125   41.2153 H   0  0  0  0  0  0  0  0  0  0  0  0
   53.0194   35.3146   42.6978 H   0  0  0  0  0  0  0  0  0  0  0  0
  1  5  1  0
  1  8  1  0
  2  1  1  0
  3  4  1  0
  3  2  1  0
  4 12  1  0
  4  5  1  0
  6 11  2  0
  7  6  1  0
  8  7  2  0
  8  9  1  0
  9 10  2  0
 10 11  1  0
 12 14  1  0
 12 13  1  0
 14 13  1  0
  1 15  1  6
  2 16  1  0
  2 17  1  0
  3 18  1  0
  3 19  1  0
  4 20  1  6
  5 21  1  0
  5 22  1  0
  6 23  1  0
  7 24  1  0
 10 25  1  0
 12 26  1  6
 13 27  1  0
 13 28  1  0
 14 29  1  6
 30 31  1  0
 31 32  1  0
 32 33  1  0
 33 34  1  0
 34 30  1  0
 30 35  1  0
 31 36  1  0
 31 37  1  0
 32 38  1  0
 32 39  1  0
 33 40  1  0
 33 41  1  0
 34 42  1  0
 34 43  1  0
 14 30  1  0
M  ISO  8  15  13  16  13  17  13  18  13  19  13  20  13  21  13  22  13
M  ISO  7  23  14  24  14  25  14  26  13  27  13  28  13  29  13
M  END
>  <DihAtoms>  (1) 
11,13,29,30

>  <DihDeg>  (1) 
-63.64595113753874

$$$$
