
 OpenBabel03252503243D

 43 48  0  0  1  0  0  0  0  0999 V2000
   47.5540   33.4680   42.8180 C   0  0  1  0  0  0  0  0  0  0  0  0
   48.5620   34.5210   42.7650 C   0  0  0  0  0  0  0  0  0  0  0  0
   48.9930   33.1360   42.4580 C   0  0  2  0  0  0  0  0  0  0  0  0
   46.8100   33.3740   42.0070 H   0  0  0  0  0  0  0  0  0  0  0  0
   48.9890   34.8960   43.7500 H   0  0  0  0  0  0  0  0  0  0  0  0
   48.3960   35.3260   42.0700 H   0  0  0  0  0  0  0  0  0  0  0  0
   49.5140   32.4800   43.1600 H   0  0  0  0  0  0  0  0  0  0  0  0
   49.1920   32.7920   41.0220 C   0  0  0  0  0  0  0  0  0  0  0  0
   50.1030   31.8600   40.5700 C   0  0  0  0  0  0  0  0  0  0  0  0
   50.2430   31.6040   39.2190 C   0  0  0  0  0  0  0  0  0  0  0  0
   49.4730   32.2770   38.2970 C   0  0  0  0  0  0  0  0  0  0  0  0
   49.5870   32.0460   36.9600 N   0  0  0  0  0  0  0  0  0  0  0  0
   48.8170   32.7230   36.0770 C   0  0  0  0  0  0  0  0  0  0  0  0
   47.8610   33.6940   36.4550 C   0  0  0  0  0  0  0  0  0  0  0  0
   47.7320   33.9390   37.8030 C   0  0  0  0  0  0  0  0  0  0  0  0
   48.5330   33.2330   38.7000 C   0  0  0  0  0  0  0  0  0  0  0  0
   48.4300   33.4540   40.0600 C   0  0  0  0  0  0  0  0  0  0  0  0
   50.6910   31.3500   41.3160 H   0  0  0  0  0  0  0  0  0  0  0  0
   50.9670   30.8650   38.8710 H   0  0  0  0  0  0  0  0  0  0  0  0
   48.9220   32.5260   35.0180 H   0  0  0  0  0  0  0  0  0  0  0  0
   47.2840   34.1910   35.6870 H   0  0  0  0  0  0  0  0  0  0  0  0
   47.0160   34.6710   38.1460 H   0  0  0  0  0  0  0  0  0  0  0  0
   47.6920   34.2070   40.3010 H   0  0  0  0  0  0  0  0  0  0  0  0
   46.0190   33.6820   44.8060 C   0  0  0  0  0  0  0  0  0  0  0  0
   47.0630   32.9570   44.1300 C   0  0  0  0  0  0  0  0  0  0  0  0
   47.5620   31.8310   44.7340 C   0  0  0  0  0  0  0  0  0  0  0  0
   47.0180   31.4920   45.9320 N   0  0  0  0  0  0  0  0  0  0  0  0
   46.0500   32.1660   46.5550 C   0  0  0  0  0  0  0  0  0  0  0  0
   45.5430   33.2710   45.9920 N   0  0  0  0  0  0  0  0  0  0  0  0
   45.6130   34.5690   44.3520 H   0  0  0  0  0  0  0  0  0  0  0  0
   48.3380   31.2710   44.2550 H   0  0  0  0  0  0  0  0  0  0  0  0
   45.5610   31.6440   47.8550 C   0  0  2  0  0  0  0  0  0  0  0  0
   46.3410   30.7600   48.6970 C   0  0  0  0  0  0  0  0  0  0  0  0
   45.2200   30.1490   47.8740 C   0  0  2  0  0  0  0  0  0  0  0  0
   44.7360   32.3090   48.2660 H   0  0  0  0  0  0  0  0  0  0  0  0
   47.4010   30.5980   48.4380 H   0  0  0  0  0  0  0  0  0  0  0  0
   46.2020   30.8820   49.7900 H   0  0  0  0  0  0  0  0  0  0  0  0
   44.3310   29.9040   48.5200 H   0  0  0  0  0  0  0  0  0  0  0  0
   45.6090   29.2170   46.7860 C   0  0  0  0  0  0  0  0  0  0  0  0
   44.2950   28.5570   46.3060 C   0  0  0  0  0  0  0  0  0  0  0  0
   43.9670   27.6890   47.4990 C   0  0  0  0  0  0  0  0  0  0  0  0
   45.2920   27.2420   48.0500 C   0  0  0  0  0  0  0  0  0  0  0  0
   46.3200   27.9690   47.2400 C   0  0  0  0  0  0  0  0  0  0  0  0
  1  4  1  6  0  0  0
  1 25  1  0  0  0  0
  2  1  1  0  0  0  0
  2  5  1  0  0  0  0
  3  2  1  0  0  0  0
  3  1  1  0  0  0  0
  3  7  1  1  0  0  0
  6  2  1  0  0  0  0
  8  3  1  0  0  0  0
  9  8  1  0  0  0  0
  9 18  1  0  0  0  0
 10  9  2  0  0  0  0
 11 16  1  0  0  0  0
 11 10  1  0  0  0  0
 12 11  2  0  0  0  0
 13 14  2  0  0  0  0
 13 12  1  0  0  0  0
 14 15  1  0  0  0  0
 15 22  1  0  0  0  0
 15 16  2  0  0  0  0
 16 17  1  0  0  0  0
 17 23  1  0  0  0  0
 17  8  2  0  0  0  0
 19 10  1  0  0  0  0
 20 13  1  0  0  0  0
 21 14  1  0  0  0  0
 24 29  1  0  0  0  0
 25 26  1  0  0  0  0
 25 24  2  0  0  0  0
 26 27  2  0  0  0  0
 27 28  1  0  0  0  0
 28 32  1  0  0  0  0
 29 28  2  0  0  0  0
 30 24  1  0  0  0  0
 31 26  1  0  0  0  0
 32 34  1  0  0  0  0
 32 35  1  1  0  0  0
 32 33  1  0  0  0  0
 33 37  1  0  0  0  0
 34 38  1  1  0  0  0
 34 33  1  0  0  0  0
 36 33  1  0  0  0  0
 39 43  1  0  0  0  0
 39 34  1  0  0  0  0
 40 39  1  0  0  0  0
 40 41  1  0  0  0  0
 41 42  1  0  0  0  0
 43 42  1  0  0  0  0
M  END
>  <minimizedAffinity>
-5.29587078

>  <minimizedRMSD>
1.29675877

$$$$
