
 OpenBabel03252508123D

 26 28  0  0  1  0  0  0  0  0999 V2000
   47.5710   30.3410   44.6550 C   0  0  0  0  0  0  0  0  0  0  0  0
   48.2380   30.4170   45.5290 H   0  0  0  0  0  0  0  0  0  0  0  0
   47.7670   29.3060   44.2530 H   0  0  0  0  0  0  0  0  0  0  0  0
   46.1080   30.5310   44.9460 C   0  0  1  0  0  0  0  0  0  0  0  0
   45.3880   29.3610   45.5360 C   0  0  0  0  0  0  0  0  0  0  0  0
   45.6040   30.5600   46.3400 C   0  0  1  0  0  0  0  0  0  0  0  0
   45.4980   30.9690   44.0960 H   0  0  0  0  0  0  0  0  0  0  0  0
   44.3750   29.0730   45.1930 H   0  0  0  0  0  0  0  0  0  0  0  0
   46.0160   28.4640   45.7200 H   0  0  0  0  0  0  0  0  0  0  0  0
   44.6680   31.1710   46.5050 H   0  0  0  0  0  0  0  0  0  0  0  0
   46.5750   30.7240   47.4570 C   0  0  0  0  0  0  0  0  0  0  0  0
   46.8170   32.1820   47.7060 C   0  0  0  0  0  0  0  0  0  0  0  0
   45.8150   32.5650   48.7640 C   0  0  0  0  0  0  0  0  0  0  0  0
   45.2340   31.3020   49.3240 C   0  0  0  0  0  0  0  0  0  0  0  0
   46.0360   30.1860   48.7370 C   0  0  0  0  0  0  0  0  0  0  0  0
   47.5870   32.5700   43.7840 C   0  0  0  0  0  0  0  0  0  0  0  0
   48.0310   31.3640   43.6520 C   0  0  0  0  0  0  0  0  0  0  0  0
   47.7360   34.6920   40.8040 C   0  0  0  0  0  0  0  0  0  0  0  0
   48.8400   35.5160   41.0470 C   0  0  0  0  0  0  0  0  0  0  0  0
   49.5140   35.3200   42.2270 C   0  0  0  0  0  0  0  0  0  0  0  0
   49.0810   34.3630   43.0660 N   0  0  0  0  0  0  0  0  0  0  0  0
   48.0240   33.5800   42.8270 C   0  0  0  0  0  0  0  0  0  0  0  0
   47.3550   33.7520   41.6870 N   0  0  0  0  0  0  0  0  0  0  0  0
   47.2400   34.8870   39.8610 H   0  0  0  0  0  0  0  0  0  0  0  0
   49.2160   36.2860   40.4090 H   0  0  0  0  0  0  0  0  0  0  0  0
   50.3800   35.8770   42.5490 H   0  0  0  0  0  0  0  0  0  0  0  0
  1  4  1  0  0  0  0
  1  2  1  0  0  0  0
  3  1  1  0  0  0  0
  4  7  1  6  0  0  0
  4  5  1  0  0  0  0
  4  6  1  0  0  0  0
  5  9  1  0  0  0  0
  5  6  1  0  0  0  0
  6 10  1  1  0  0  0
  6 11  1  0  0  0  0
  8  5  1  0  0  0  0
 11 12  1  0  0  0  0
 11 15  1  0  0  0  0
 12 13  1  0  0  0  0
 13 14  1  0  0  0  0
 15 14  1  0  0  0  0
 17 16  2  0  0  0  0
 17  1  1  0  0  0  0
 18 19  2  0  0  0  0
 18 23  1  0  0  0  0
 19 20  1  0  0  0  0
 20 26  1  0  0  0  0
 20 21  2  0  0  0  0
 22 21  1  0  0  0  0
 22 16  1  0  0  0  0
 23 22  2  0  0  0  0
 24 18  1  0  0  0  0
 25 19  1  0  0  0  0
M  END
>  <minimizedAffinity>
-4.26456881

>  <minimizedRMSD>
3.50647759

$$$$
