
     RDKit          3D

 26 27  0  0  0  0  0  0  0  0999 V2000
   44.3882   35.7674   44.4271 C   0  0  0  0  0  0  0  0  0  0  0  0
   44.6655   35.0657   43.2607 C   0  0  0  0  0  0  0  0  0  0  0  0
   45.2933   33.8244   43.3891 C   0  0  0  0  0  0  0  0  0  0  0  0
   45.5876   33.3909   44.6340 N   0  0  0  0  0  0  0  0  0  0  0  0
   45.3077   34.0913   45.7481 C   0  0  0  0  0  0  0  0  0  0  0  0
   44.6983   35.3020   45.6685 N   0  0  0  0  0  0  0  0  0  0  0  0
   44.2584   35.7242   42.0095 C   0  0  0  0  0  0  0  0  0  0  0  0
   43.9029   36.7418   44.4440 H   0  0  0  0  0  0  0  0  0  0  0  0
   45.4879   33.3196   42.4718 H   0  0  0  0  0  0  0  0  0  0  0  0
   45.5539   33.7195   46.7167 H   0  0  0  0  0  0  0  0  0  0  0  0
   44.3067   36.8008   42.0971 H   0  0  0  0  0  0  0  0  0  0  0  0
   44.9425   35.4240   41.1743 H   0  0  0  0  0  0  0  0  0  0  0  0
   42.8520   35.3217   41.6537 C   0  0  0  0  0  0  0  0  0  0  0  0
   42.5058   33.9290   42.1437 C   0  0  0  0  0  0  0  0  0  0  0  0
   41.1491   33.7531   41.4790 C   0  0  0  0  0  0  0  0  0  0  0  0
   41.4328   34.2329   40.0692 C   0  0  0  0  0  0  0  0  0  0  0  0
   42.6597   35.1460   40.1698 C   0  0  0  0  0  0  0  0  0  0  0  0
   42.1462   36.0835   42.0621 H   0  0  0  0  0  0  0  0  0  0  0  0
   42.4452   33.8788   43.2417 H   0  0  0  0  0  0  0  0  0  0  0  0
   43.2601   33.2388   41.7096 H   0  0  0  0  0  0  0  0  0  0  0  0
   40.7960   32.7080   41.5063 H   0  0  0  0  0  0  0  0  0  0  0  0
   40.4771   34.4590   41.9918 H   0  0  0  0  0  0  0  0  0  0  0  0
   41.5853   33.3800   39.4004 H   0  0  0  0  0  0  0  0  0  0  0  0
   40.5424   34.8545   39.7717 H   0  0  0  0  0  0  0  0  0  0  0  0
   43.5150   34.5485   39.7973 H   0  0  0  0  0  0  0  0  0  0  0  0
   42.4866   36.0848   39.6258 H   0  0  0  0  0  0  0  0  0  0  0  0
  1  6  2  0
  2  3  2  0
  2  1  1  0
  3  4  1  0
  4  5  2  0
  6  5  1  0
  7  2  1  0
  1  8  1  0
  3  9  1  0
  5 10  1  0
  7 11  1  0
  7 12  1  0
 13 14  1  0
 14 15  1  0
 15 16  1  0
 16 17  1  0
 17 13  1  0
 13 18  1  0
 14 19  1  0
 14 20  1  0
 15 21  1  0
 15 22  1  0
 16 23  1  0
 16 24  1  0
 17 25  1  0
 17 26  1  0
  7 13  1  0
M  ISO  5   8  14   9  14  10  14  11   8  12   8
M  END
>  <DihAtoms>  (1) 
1,6,12,13

>  <DihDeg>  (1) 
-59.998963838777236

$$$$
