
     RDKit          3D

 44 47  0  0  0  0  0  0  0  0999 V2000
   47.1431   31.2749   46.7184 C   0  0  0  0  0  0  0  0  0  0  0  0
   46.7802   31.7771   48.0954 C   0  0  1  0  0  0  0  0  0  0  0  0
   46.1845   30.7896   49.0318 C   0  0  0  0  0  0  0  0  0  0  0  0
   47.5242   31.2885   49.2809 C   0  0  1  0  0  0  0  0  0  0  0  0
   48.7618   30.5144   49.0419 C   0  0  0  0  0  0  0  0  0  0  0  0
   49.6089   30.2368   50.3148 C   0  0  0  0  0  0  0  0  0  0  0  0
   50.0919   31.2322   49.3417 C   0  0  0  0  0  0  0  0  0  0  0  0
   45.9088   33.1284   45.9135 C   0  0  0  0  0  0  0  0  0  0  0  0
   46.9117   32.3702   45.6899 C   0  0  0  0  0  0  0  0  0  0  0  0
   44.4905   36.1434   44.3427 C   0  0  0  0  0  0  0  0  0  0  0  0
   45.1420   36.2050   43.1168 C   0  0  0  0  0  0  0  0  0  0  0  0
   46.0636   35.2059   42.8527 C   0  0  0  0  0  0  0  0  0  0  0  0
   46.2482   34.2742   43.7886 N   0  0  0  0  0  0  0  0  0  0  0  0
   45.6302   34.2095   44.9591 C   0  0  0  0  0  0  0  0  0  0  0  0
   44.7482   35.1639   45.2158 N   0  0  0  0  0  0  0  0  0  0  0  0
   48.2279   31.0534   46.6242 H   0  0  0  0  0  0  0  0  0  0  0  0
   46.5594   30.3815   46.5010 H   0  0  0  0  0  0  0  0  0  0  0  0
   46.4963   32.8551   48.1540 H   0  0  0  0  0  0  0  0  0  0  0  0
   45.3424   31.0586   49.6977 H   0  0  0  0  0  0  0  0  0  0  0  0
   46.1060   29.7323   48.6611 H   0  0  0  0  0  0  0  0  0  0  0  0
   47.6019   31.9802   50.1757 H   0  0  0  0  0  0  0  0  0  0  0  0
   48.7727   29.6952   48.3041 H   0  0  0  0  0  0  0  0  0  0  0  0
   50.0661   29.2401   50.3842 H   0  0  0  0  0  0  0  0  0  0  0  0
   49.1977   30.6054   51.2753 H   0  0  0  0  0  0  0  0  0  0  0  0
   50.9213   30.8936   48.6659 H   0  0  0  0  0  0  0  0  0  0  0  0
   50.0653   32.3105   49.5437 H   0  0  0  0  0  0  0  0  0  0  0  0
   45.1859   33.1001   46.7467 H   0  0  0  0  0  0  0  0  0  0  0  0
   47.5415   32.5194   44.8154 H   0  0  0  0  0  0  0  0  0  0  0  0
   43.7712   36.9284   44.5424 H   0  0  0  0  0  0  0  0  0  0  0  0
   45.0054   36.9477   42.3516 H   0  0  0  0  0  0  0  0  0  0  0  0
   46.8666   35.0751   41.6224 C   0  0  0  0  0  0  0  0  0  0  0  0
   46.5554   36.0904   40.5647 C   0  0  0  0  0  0  0  0  0  0  0  0
   47.2650   35.4967   39.3416 C   0  0  0  0  0  0  0  0  0  0  0  0
   47.4011   34.0127   39.6151 C   0  0  0  0  0  0  0  0  0  0  0  0
   46.6082   33.7738   40.8981 C   0  0  0  0  0  0  0  0  0  0  0  0
   47.9651   35.1053   41.7932 H   0  0  0  0  0  0  0  0  0  0  0  0
   45.4909   36.1268   40.2863 H   0  0  0  0  0  0  0  0  0  0  0  0
   46.9514   37.0749   40.8485 H   0  0  0  0  0  0  0  0  0  0  0  0
   46.6750   35.6782   38.4142 H   0  0  0  0  0  0  0  0  0  0  0  0
   48.2320   36.0039   39.2159 H   0  0  0  0  0  0  0  0  0  0  0  0
   48.4976   33.8155   39.7978 H   0  0  0  0  0  0  0  0  0  0  0  0
   47.0092   33.4277   38.7711 H   0  0  0  0  0  0  0  0  0  0  0  0
   47.1489   32.9725   41.4315 H   0  0  0  0  0  0  0  0  0  0  0  0
   45.5630   33.5746   40.6666 H   0  0  0  0  0  0  0  0  0  0  0  0
  1  2  1  0
  2  3  1  0
  2  4  1  0
  3  4  1  0
  5  4  1  0
  5  7  1  0
  5  6  1  0
  7  6  1  0
  9  8  2  0
  9  1  1  0
 10 15  2  0
 11 10  1  0
 12 11  2  0
 12 13  1  0
 13 14  2  0
 14 15  1  0
 14  8  1  0
  1 16  1  0
  1 17  1  0
  2 18  1  6
  3 19  1  0
  3 20  1  0
  4 21  1  1
  5 22  1  0
  6 23  1  0
  6 24  1  0
  7 25  1  0
  7 26  1  0
  8 27  1  0
  9 28  1  0
 10 29  1  0
 11 30  1  0
 31 32  1  0
 32 33  1  0
 33 34  1  0
 34 35  1  0
 35 31  1  0
 31 36  1  0
 32 37  1  0
 32 38  1  0
 33 39  1  0
 33 40  1  0
 34 41  1  0
 34 42  1  0
 35 43  1  0
 35 44  1  0
 12 31  1  0
M  ISO  8  16   8  17   8  18  13  19  13  20  13  21  13  22  13  23  13
M  ISO  5  24  13  25  13  26  13  29  14  30  14
M  END
>  <DihAtoms>  (1) 
10,11,30,31

>  <DihDeg>  (1) 
56.01069497694322

$$$$
