
     RDKit          3D

 26 27  0  0  0  0  0  0  0  0999 V2000
   44.3882   35.7674   44.4271 C   0  0  0  0  0  0  0  0  0  0  0  0
   44.6655   35.0657   43.2607 C   0  0  0  0  0  0  0  0  0  0  0  0
   45.2933   33.8244   43.3891 C   0  0  0  0  0  0  0  0  0  0  0  0
   45.5876   33.3909   44.6340 N   0  0  0  0  0  0  0  0  0  0  0  0
   45.3077   34.0913   45.7481 C   0  0  0  0  0  0  0  0  0  0  0  0
   44.6983   35.3020   45.6685 N   0  0  0  0  0  0  0  0  0  0  0  0
   44.2584   35.7242   42.0095 C   0  0  0  0  0  0  0  0  0  0  0  0
   43.9029   36.7418   44.4440 H   0  0  0  0  0  0  0  0  0  0  0  0
   45.4879   33.3196   42.4718 H   0  0  0  0  0  0  0  0  0  0  0  0
   45.5539   33.7195   46.7167 H   0  0  0  0  0  0  0  0  0  0  0  0
   44.3067   36.8008   42.0971 H   0  0  0  0  0  0  0  0  0  0  0  0
   44.9425   35.4240   41.1743 H   0  0  0  0  0  0  0  0  0  0  0  0
   42.8520   35.3217   41.6537 C   0  0  0  0  0  0  0  0  0  0  0  0
   42.2404   36.2225   40.5982 C   0  0  0  0  0  0  0  0  0  0  0  0
   40.8132   35.6967   40.6079 C   0  0  0  0  0  0  0  0  0  0  0  0
   40.5228   35.6231   42.0940 C   0  0  0  0  0  0  0  0  0  0  0  0
   41.8856   35.5350   42.7896 C   0  0  0  0  0  0  0  0  0  0  0  0
   42.8558   34.2552   41.3254 H   0  0  0  0  0  0  0  0  0  0  0  0
   42.7260   36.1013   39.6176 H   0  0  0  0  0  0  0  0  0  0  0  0
   42.2908   37.2597   40.9924 H   0  0  0  0  0  0  0  0  0  0  0  0
   40.1131   36.3611   40.0732 H   0  0  0  0  0  0  0  0  0  0  0  0
   40.8709   34.6827   40.1820 H   0  0  0  0  0  0  0  0  0  0  0  0
   39.9339   36.4899   42.4101 H   0  0  0  0  0  0  0  0  0  0  0  0
   39.9726   34.6533   42.2514 H   0  0  0  0  0  0  0  0  0  0  0  0
   42.0825   36.5442   43.2019 H   0  0  0  0  0  0  0  0  0  0  0  0
   41.8856   34.7285   43.5358 H   0  0  0  0  0  0  0  0  0  0  0  0
  1  6  2  0
  2  3  2  0
  2  1  1  0
  3  4  1  0
  4  5  2  0
  6  5  1  0
  7  2  1  0
  1  8  1  0
  3  9  1  0
  5 10  1  0
  7 11  1  0
  7 12  1  0
 13 14  1  0
 14 15  1  0
 15 16  1  0
 16 17  1  0
 17 13  1  0
 13 18  1  0
 14 19  1  0
 14 20  1  0
 15 21  1  0
 15 22  1  0
 16 23  1  0
 16 24  1  0
 17 25  1  0
 17 26  1  0
  7 13  1  0
M  ISO  5   8  14   9  14  10  14  11   8  12   8
M  END
>  <DihAtoms>  (1) 
1,6,12,13

>  <DihDeg>  (1) 
-59.998963838777236

$$$$
