
 OpenBabel03252509163D

 21 23  0  0  0  0  0  0  0  0999 V2000
   45.8450   33.2560   46.2860 C   0  0  0  0  0  0  0  0  0  0  0  0
   45.1980   33.1500   47.5490 C   0  0  0  0  0  0  0  0  0  0  0  0
   45.5940   32.1650   48.3940 C   0  0  0  0  0  0  0  0  0  0  0  0
   46.6330   31.2910   47.9760 C   0  0  0  0  0  0  0  0  0  0  0  0
   47.0670   31.9000   46.2970 S   0  0  0  0  0  0  0  0  0  0  0  0
   44.4160   33.8480   47.8020 H   0  0  0  0  0  0  0  0  0  0  0  0
   45.1770   32.0000   49.3510 H   0  0  0  0  0  0  0  0  0  0  0  0
   44.4670   36.1320   44.3880 C   0  0  0  0  0  0  0  0  0  0  0  0
   45.1680   35.9610   43.1650 C   0  0  0  0  0  0  0  0  0  0  0  0
   46.0640   34.8910   43.0450 C   0  0  0  0  0  0  0  0  0  0  0  0
   46.2090   34.0660   44.1310 N   0  0  0  0  0  0  0  0  0  0  0  0
   45.5190   34.2700   45.2750 C   0  0  0  0  0  0  0  0  0  0  0  0
   44.6470   35.2990   45.4120 N   0  0  0  0  0  0  0  0  0  0  0  0
   43.7790   36.9600   44.4720 H   0  0  0  0  0  0  0  0  0  0  0  0
   45.0480   36.6110   42.3230 H   0  0  0  0  0  0  0  0  0  0  0  0
   46.6330   34.6950   42.1480 H   0  0  0  0  0  0  0  0  0  0  0  0
   47.2840   30.1920   48.5740 C   0  0  0  0  0  0  0  0  0  0  0  0
   47.8400   29.1340   47.6640 C   0  0  0  0  0  0  0  0  0  0  0  0
   49.2220   29.5810   47.3530 C   0  0  0  0  0  0  0  0  0  0  0  0
   49.7010   30.2280   48.6300 C   0  0  0  0  0  0  0  0  0  0  0  0
   48.4730   30.6230   49.3900 C   0  0  0  0  0  0  0  0  0  0  0  0
  1  5  1  0  0  0  0
  1  2  2  0  0  0  0
  2  6  1  0  0  0  0
  2  3  1  0  0  0  0
  3  7  1  0  0  0  0
  4  3  2  0  0  0  0
  4 17  1  0  0  0  0
  5  4  1  0  0  0  0
  8 14  1  0  0  0  0
  8 13  1  0  0  0  0
  9  8  2  0  0  0  0
 10  9  1  0  0  0  0
 10 11  2  0  0  0  0
 11 12  1  0  0  0  0
 12 13  2  0  0  0  0
 12  1  1  0  0  0  0
 15  9  1  0  0  0  0
 16 10  1  0  0  0  0
 17 21  1  0  0  0  0
 18 17  1  0  0  0  0
 19 18  1  0  0  0  0
 19 20  1  0  0  0  0
 20 21  1  0  0  0  0
M  END
>  <minimizedAffinity>
-4.77243376

>  <minimizedRMSD>
0.661383688

$$$$
