REMARK  Name = 
REMARK  2 active torsions:
REMARK  status: ('A' for Active; 'I' for Inactive)
REMARK    1  A    between atoms: C_5  and  C_7
REMARK    2  A    between atoms: C_10  and  C_17
REMARK                            x       y       z     vdW  Elec       q    Type
REMARK                         _______ _______ _______ _____ _____    ______ ____
ROOT
ATOM      1  C   UNL     1      45.867  32.931  46.712  0.00  0.00    +0.000 A 
ATOM      2  C   UNL     1      45.100  32.770  47.900  0.00  0.00    +0.000 A 
ATOM      3  C   UNL     1      45.477  31.811  48.783  0.00  0.00    +0.000 A 
ATOM      4  C   UNL     1      46.616  31.018  48.479  0.00  0.00    +0.000 A 
ATOM      5  S   UNL     1      47.178  31.669  46.854  0.00  0.00    +0.000 S 
ATOM      6  H   UNL     1      44.247  33.407  48.068  0.00  0.00    +0.000 HD
ATOM      7  H   UNL     1      44.974  31.609  49.691  0.00  0.00    +0.000 HD
ENDROOT
BRANCH   1  12
ATOM      8  C   UNL     1      44.599  35.802  44.733  0.00  0.00    +0.000 A 
ATOM      9  C   UNL     1      45.277  35.560  43.510  0.00  0.00    +0.000 A 
ATOM     10  C   UNL     1      46.123  34.447  43.417  0.00  0.00    +0.000 A 
ATOM     11  N   UNL     1      46.243  33.652  44.528  0.00  0.00    +0.000 NA
ATOM     12  C   UNL     1      45.576  33.925  45.671  0.00  0.00    +0.000 A 
ATOM     13  N   UNL     1      44.753  34.996  45.782  0.00  0.00    +0.000 NA
ATOM     14  H   UNL     1      43.949  36.663  44.796  0.00  0.00    +0.000 HD
ATOM     15  H   UNL     1      45.177  36.187  42.648  0.00  0.00    +0.000 HD
ATOM     16  H   UNL     1      46.673  34.196  42.521  0.00  0.00    +0.000 HD
ENDBRANCH   1  12
BRANCH   4  17
ATOM     17  C   UNL     1      47.279  29.966  49.144  0.00  0.00    +0.000 C 
ATOM     18  C   UNL     1      46.727  28.580  48.976  0.00  0.00    +0.000 C 
ATOM     19  C   UNL     1      47.409  28.038  47.773  0.00  0.00    +0.000 C 
ATOM     20  C   UNL     1      48.803  28.614  47.842  0.00  0.00    +0.000 C 
ATOM     21  C   UNL     1      48.711  29.839  48.699  0.00  0.00    +0.000 C 
ENDBRANCH   4  17
TORSDOF 2
