REMARK  Name = 
REMARK  4 active torsions:
REMARK  status: ('A' for Active; 'I' for Inactive)
REMARK    1  A    between atoms: C_2  and  C_7
REMARK    2  A    between atoms: C_5  and  O_11
REMARK    3  A    between atoms: O_11  and  C_12
REMARK    4  A    between atoms: C_12  and  C_17
REMARK                            x       y       z     vdW  Elec       q    Type
REMARK                         _______ _______ _______ _____ _____    ______ ____
ROOT
ATOM      1  C   UNL     1      44.730  35.390  45.025  0.00  0.00    +0.000 A 
ATOM      2  C   UNL     1      45.605  34.927  44.045  0.00  0.00    +0.000 A 
ATOM      3  C   UNL     1      46.343  33.770  44.329  0.00  0.00    +0.000 A 
ATOM      4  N   UNL     1      46.188  33.155  45.514  0.00  0.00    +0.000 NA
ATOM      5  C   UNL     1      45.334  33.633  46.434  0.00  0.00    +0.000 A 
ATOM      6  N   UNL     1      44.602  34.736  46.215  0.00  0.00    +0.000 NA
ATOM      7  H   UNL     1      44.129  36.277  44.873  0.00  0.00    +0.000 HD
ATOM      8  H   UNL     1      47.005  33.440  43.560  0.00  0.00    +0.000 HD
ENDROOT
BRANCH   2   9
ATOM      9  C   UNL     1      45.675  35.711  42.777  0.00  0.00    +0.000 C 
ATOM     10  F   UNL     1      45.257  36.980  43.080  0.00  0.00    +0.000 F 
ATOM     11  F   UNL     1      44.799  35.096  41.886  0.00  0.00    +0.000 F 
ATOM     12  F   UNL     1      46.963  35.647  42.308  0.00  0.00    +0.000 F 
ENDBRANCH   2   9
BRANCH   5  13
ATOM     13  O   UNL     1      45.124  33.046  47.679  0.00  0.00    +0.000 OA
BRANCH  13  14
ATOM     14  C   UNL     1      46.157  32.323  48.316  0.00  0.00    +0.000 C 
ATOM     15  H   UNL     1      45.810  31.938  49.277  0.00  0.00    +0.000 HD
ATOM     16  H   UNL     1      46.498  31.564  47.593  0.00  0.00    +0.000 HD
BRANCH  14  17
ATOM     17  C   UNL     1      47.293  33.311  48.503  0.00  0.00    +0.000 C 
ATOM     18  C   UNL     1      48.560  32.901  47.811  0.00  0.00    +0.000 C 
ATOM     19  C   UNL     1      49.683  33.016  48.846  0.00  0.00    +0.000 C 
ATOM     20  C   UNL     1      49.083  34.003  49.825  0.00  0.00    +0.000 C 
ATOM     21  C   UNL     1      47.665  33.438  49.976  0.00  0.00    +0.000 C 
ENDBRANCH  14  17
ENDBRANCH  13  14
ENDBRANCH   5  13
TORSDOF 4
