
 OpenBabel03242516103D

 21 23  0  0  0  0  0  0  0  0999 V2000
   37.1370   27.3580   42.3740 C   0  0  0  0  0  0  0  0  0  0  0  0
   37.8120   27.6540   43.6740 C   0  0  0  0  0  0  0  0  0  0  0  0
   36.3710   27.3460   43.6410 C   0  0  0  0  0  0  0  0  0  0  0  0
   38.1530   28.7190   43.7980 H   0  0  0  0  0  0  0  0  0  0  0  0
   38.4400   26.9440   44.2140 H   0  0  0  0  0  0  0  0  0  0  0  0
   36.0050   26.3850   44.0820 H   0  0  0  0  0  0  0  0  0  0  0  0
   35.6810   28.2210   43.7930 H   0  0  0  0  0  0  0  0  0  0  0  0
   35.6710   28.8730   40.9940 C   0  0  0  0  0  0  0  0  0  0  0  0
   36.9490   28.5180   41.4320 C   0  0  0  0  0  0  0  0  0  0  0  0
   38.0420   29.2960   40.9630 C   0  0  0  0  0  0  0  0  0  0  0  0
   37.7800   30.3300   40.1230 N   0  0  0  0  0  0  0  0  0  0  0  0
   36.5360   30.6330   39.7300 C   0  0  0  0  0  0  0  0  0  0  0  0
   35.4890   29.9130   40.1600 N   0  0  0  0  0  0  0  0  0  0  0  0
   34.7890   28.3290   41.3050 H   0  0  0  0  0  0  0  0  0  0  0  0
   39.0050   28.9870   41.3240 H   0  0  0  0  0  0  0  0  0  0  0  0
   36.5440   31.4930   39.0600 H   0  0  0  0  0  0  0  0  0  0  0  0
   37.6220   26.1270   41.6810 C   0  0  0  0  0  3  0  0  0  0  0  0
   37.3570   26.0780   40.2160 C   0  0  0  0  0  2  0  0  0  0  0  0
   37.5930   24.5760   39.9580 C   0  0  0  0  0  2  0  0  0  0  0  0
   36.7520   23.9600   41.0540 C   0  0  0  0  0  2  0  0  0  0  0  0
   36.7970   24.9460   42.2110 C   0  0  0  0  0  2  0  0  0  0  0  0
  1  3  1  0  0  0  0
  1  2  1  0  0  0  0
  2  4  1  0  0  0  0
  2  5  1  0  0  0  0
  3  2  1  0  0  0  0
  3  7  1  0  0  0  0
  3  6  1  0  0  0  0
  8 14  1  0  0  0  0
  8  9  1  0  0  0  0
  9  1  1  0  0  0  0
 10 15  1  0  0  0  0
 10  9  2  0  0  0  0
 11 10  1  0  0  0  0
 12 11  2  0  0  0  0
 12 13  1  0  0  0  0
 13  8  2  0  0  0  0
 16 12  1  0  0  0  0
 17 21  1  0  0  0  0
 17  1  1  0  0  0  0
 18 17  1  0  0  0  0
 19 18  1  0  0  0  0
 19 20  1  0  0  0  0
 20 21  1  0  0  0  0
M  END
>  <minimizedAffinity>
-4.56870127

$$$$

 OpenBabel03242516103D

 21 23  0  0  0  0  0  0  0  0999 V2000
   36.1910   28.9870   40.3840 C   0  0  0  0  0  0  0  0  0  0  0  0
   34.7710   29.1490   39.9480 C   0  0  0  0  0  0  0  0  0  0  0  0
   35.6790   28.2610   39.2010 C   0  0  0  0  0  0  0  0  0  0  0  0
   34.5160   30.1640   39.5340 H   0  0  0  0  0  0  0  0  0  0  0  0
   33.9210   28.6670   40.4330 H   0  0  0  0  0  0  0  0  0  0  0  0
   35.5120   27.1540   39.2320 H   0  0  0  0  0  0  0  0  0  0  0  0
   36.0350   28.6500   38.2070 H   0  0  0  0  0  0  0  0  0  0  0  0
   38.3090   30.0080   39.4770 C   0  0  0  0  0  0  0  0  0  0  0  0
   37.1030   30.1650   40.1640 C   0  0  0  0  0  0  0  0  0  0  0  0
   36.7800   31.4690   40.6290 C   0  0  0  0  0  0  0  0  0  0  0  0
   37.6560   32.4750   40.3790 N   0  0  0  0  0  0  0  0  0  0  0  0
   38.8020   32.2750   39.7140 C   0  0  0  0  0  0  0  0  0  0  0  0
   39.1280   31.0530   39.2660 N   0  0  0  0  0  0  0  0  0  0  0  0
   38.6260   29.0470   39.0940 H   0  0  0  0  0  0  0  0  0  0  0  0
   35.8450   31.5440   41.1520 H   0  0  0  0  0  0  0  0  0  0  0  0
   39.3580   33.2080   39.6210 H   0  0  0  0  0  0  0  0  0  0  0  0
   36.3650   28.3670   41.7320 C   0  0  0  0  0  3  0  0  0  0  0  0
   37.3360   29.0590   42.6260 C   0  0  0  0  0  2  0  0  0  0  0  0
   37.5530   27.9530   43.6800 C   0  0  0  0  0  2  0  0  0  0  0  0
   37.8290   26.7610   42.7910 C   0  0  0  0  0  2  0  0  0  0  0  0
   37.0200   26.9950   41.5260 C   0  0  0  0  0  2  0  0  0  0  0  0
  1 17  1  0  0  0  0
  2  1  1  0  0  0  0
  2  5  1  0  0  0  0
  3  6  1  0  0  0  0
  3  2  1  0  0  0  0
  3  1  1  0  0  0  0
  4  2  1  0  0  0  0
  7  3  1  0  0  0  0
  8  9  1  0  0  0  0
  9  1  1  0  0  0  0
  9 10  2  0  0  0  0
 10 15  1  0  0  0  0
 11 10  1  0  0  0  0
 12 11  2  0  0  0  0
 13  8  2  0  0  0  0
 13 12  1  0  0  0  0
 14  8  1  0  0  0  0
 16 12  1  0  0  0  0
 17 18  1  0  0  0  0
 18 19  1  0  0  0  0
 20 19  1  0  0  0  0
 21 17  1  0  0  0  0
 21 20  1  0  0  0  0
M  END
>  <minimizedAffinity>
-4.41138077

$$$$

 OpenBabel03242516103D

 21 23  0  0  0  0  0  0  0  0999 V2000
   37.5360   27.7590   42.5460 C   0  0  0  0  0  0  0  0  0  0  0  0
   36.4840   27.3970   43.5430 C   0  0  0  0  0  0  0  0  0  0  0  0
   36.9650   26.3950   42.5760 C   0  0  0  0  0  0  0  0  0  0  0  0
   35.4880   27.8950   43.3830 H   0  0  0  0  0  0  0  0  0  0  0  0
   36.6820   27.1820   44.5940 H   0  0  0  0  0  0  0  0  0  0  0  0
   37.5700   25.5260   42.9420 H   0  0  0  0  0  0  0  0  0  0  0  0
   36.2610   26.1490   41.7340 H   0  0  0  0  0  0  0  0  0  0  0  0
   37.0110   28.2160   40.1240 C   0  0  0  0  0  0  0  0  0  0  0  0
   37.1210   28.6870   41.4350 C   0  0  0  0  0  0  0  0  0  0  0  0
   36.8190   30.0570   41.6660 C   0  0  0  0  0  0  0  0  0  0  0  0
   36.4440   30.8190   40.6070 N   0  0  0  0  0  0  0  0  0  0  0  0
   36.3530   30.3210   39.3660 C   0  0  0  0  0  0  0  0  0  0  0  0
   36.6330   29.0320   39.1240 N   0  0  0  0  0  0  0  0  0  0  0  0
   37.2260   27.1870   39.8680 H   0  0  0  0  0  0  0  0  0  0  0  0
   36.9170   30.3760   42.6870 H   0  0  0  0  0  0  0  0  0  0  0  0
   36.0370   31.0950   38.6660 H   0  0  0  0  0  0  0  0  0  0  0  0
   38.8590   28.1240   43.1360 C   0  0  0  0  0  3  0  0  0  0  0  0
   39.8790   28.6000   42.1600 C   0  0  0  0  0  2  0  0  0  0  0  0
   41.1500   28.4670   43.0240 C   0  0  0  0  0  2  0  0  0  0  0  0
   40.9900   27.0600   43.5550 C   0  0  0  0  0  2  0  0  0  0  0  0
   39.4910   26.8350   43.6780 C   0  0  0  0  0  2  0  0  0  0  0  0
  1  3  1  0  0  0  0
  1 17  1  0  0  0  0
  1  2  1  0  0  0  0
  2  5  1  0  0  0  0
  3  6  1  0  0  0  0
  3  2  1  0  0  0  0
  4  2  1  0  0  0  0
  7  3  1  0  0  0  0
  8  9  1  0  0  0  0
  9 10  2  0  0  0  0
  9  1  1  0  0  0  0
 10 15  1  0  0  0  0
 11 10  1  0  0  0  0
 12 11  2  0  0  0  0
 13 12  1  0  0  0  0
 13  8  2  0  0  0  0
 14  8  1  0  0  0  0
 16 12  1  0  0  0  0
 17 21  1  0  0  0  0
 18 19  1  0  0  0  0
 18 17  1  0  0  0  0
 19 20  1  0  0  0  0
 20 21  1  0  0  0  0
M  END
>  <minimizedAffinity>
-4.40335894

$$$$

 OpenBabel03242516103D

 21 23  0  0  0  0  0  0  0  0999 V2000
   37.0460   27.7780   42.3700 C   0  0  0  0  0  0  0  0  0  0  0  0
   36.4280   27.4100   43.6800 C   0  0  0  0  0  0  0  0  0  0  0  0
   37.5700   28.3400   43.6350 C   0  0  0  0  0  0  0  0  0  0  0  0
   36.5890   26.3420   43.9960 H   0  0  0  0  0  0  0  0  0  0  0  0
   35.4900   27.8230   44.0530 H   0  0  0  0  0  0  0  0  0  0  0  0
   37.4120   29.4170   43.8950 H   0  0  0  0  0  0  0  0  0  0  0  0
   38.5570   27.9200   43.9750 H   0  0  0  0  0  0  0  0  0  0  0  0
   39.1420   26.9660   41.2320 C   0  0  0  0  0  0  0  0  0  0  0  0
   37.8430   26.7060   41.6750 C   0  0  0  0  0  0  0  0  0  0  0  0
   37.3230   25.4020   41.4520 C   0  0  0  0  0  0  0  0  0  0  0  0
   38.1150   24.4940   40.8260 N   0  0  0  0  0  0  0  0  0  0  0  0
   39.3560   24.7900   40.4180 C   0  0  0  0  0  0  0  0  0  0  0  0
   39.8670   26.0140   40.6180 N   0  0  0  0  0  0  0  0  0  0  0  0
   39.6060   27.9340   41.3630 H   0  0  0  0  0  0  0  0  0  0  0  0
   36.3220   25.2470   41.8080 H   0  0  0  0  0  0  0  0  0  0  0  0
   39.8190   23.9260   39.9410 H   0  0  0  0  0  0  0  0  0  0  0  0
   36.1440   28.5200   41.4380 C   0  0  0  0  0  3  0  0  0  0  0  0
   36.1960   28.0750   40.0170 C   0  0  0  0  0  2  0  0  0  0  0  0
   35.5090   29.2790   39.3410 C   0  0  0  0  0  2  0  0  0  0  0  0
   36.2710   30.4290   39.9610 C   0  0  0  0  0  2  0  0  0  0  0  0
   36.6560   29.9640   41.3560 C   0  0  0  0  0  2  0  0  0  0  0  0
  1  3  1  0  0  0  0
  1  2  1  0  0  0  0
  2  4  1  0  0  0  0
  2  5  1  0  0  0  0
  3  2  1  0  0  0  0
  3  6  1  0  0  0  0
  3  7  1  0  0  0  0
  8 14  1  0  0  0  0
  8  9  1  0  0  0  0
  9  1  1  0  0  0  0
 10  9  2  0  0  0  0
 10 15  1  0  0  0  0
 11 10  1  0  0  0  0
 12 13  1  0  0  0  0
 12 11  2  0  0  0  0
 13  8  2  0  0  0  0
 16 12  1  0  0  0  0
 17  1  1  0  0  0  0
 18 17  1  0  0  0  0
 19 20  1  0  0  0  0
 19 18  1  0  0  0  0
 20 21  1  0  0  0  0
 21 17  1  0  0  0  0
M  END
>  <minimizedAffinity>
-4.28795862

$$$$

 OpenBabel03242516103D

 21 23  0  0  0  0  0  0  0  0999 V2000
   39.0850   25.5520   42.3420 C   0  0  0  0  0  0  0  0  0  0  0  0
   39.6900   24.4140   43.0960 C   0  0  0  0  0  0  0  0  0  0  0  0
   40.4920   25.1580   42.1090 C   0  0  0  0  0  0  0  0  0  0  0  0
   39.2810   23.3990   42.8330 H   0  0  0  0  0  0  0  0  0  0  0  0
   40.0290   24.4750   44.1320 H   0  0  0  0  0  0  0  0  0  0  0  0
   41.3360   25.8040   42.4620 H   0  0  0  0  0  0  0  0  0  0  0  0
   40.6880   24.6270   41.1380 H   0  0  0  0  0  0  0  0  0  0  0  0
   38.1300   25.7570   40.0190 C   0  0  0  0  0  0  0  0  0  0  0  0
   38.0580   25.1990   41.2970 C   0  0  0  0  0  0  0  0  0  0  0  0
   36.9960   24.2910   41.5580 C   0  0  0  0  0  0  0  0  0  0  0  0
   36.1210   24.0230   40.5550 N   0  0  0  0  0  0  0  0  0  0  0  0
   36.2310   24.5840   39.3430 C   0  0  0  0  0  0  0  0  0  0  0  0
   37.2250   25.4430   39.0750 N   0  0  0  0  0  0  0  0  0  0  0  0
   38.9070   26.4570   39.7450 H   0  0  0  0  0  0  0  0  0  0  0  0
   36.9800   23.8870   42.5530 H   0  0  0  0  0  0  0  0  0  0  0  0
   35.4320   24.2370   38.6870 H   0  0  0  0  0  0  0  0  0  0  0  0
   38.6720   26.7140   43.1850 C   0  0  0  0  0  3  0  0  0  0  0  0
   37.2530   27.1410   43.0250 C   0  0  0  0  0  2  0  0  0  0  0  0
   37.3250   28.5350   43.6800 C   0  0  0  0  0  2  0  0  0  0  0  0
   38.5320   29.1190   42.9800 C   0  0  0  0  0  2  0  0  0  0  0  0
   39.4480   27.9410   42.6890 C   0  0  0  0  0  2  0  0  0  0  0  0
  1  2  1  0  0  0  0
  1 17  1  0  0  0  0
  2  5  1  0  0  0  0
  3  1  1  0  0  0  0
  3  6  1  0  0  0  0
  3  2  1  0  0  0  0
  4  2  1  0  0  0  0
  7  3  1  0  0  0  0
  8  9  1  0  0  0  0
  9 10  2  0  0  0  0
  9  1  1  0  0  0  0
 10 15  1  0  0  0  0
 11 10  1  0  0  0  0
 12 11  2  0  0  0  0
 13 12  1  0  0  0  0
 13  8  2  0  0  0  0
 14  8  1  0  0  0  0
 16 12  1  0  0  0  0
 18 17  1  0  0  0  0
 18 19  1  0  0  0  0
 20 19  1  0  0  0  0
 21 20  1  0  0  0  0
 21 17  1  0  0  0  0
M  END
>  <minimizedAffinity>
-4.18539

$$$$

 OpenBabel03242516103D

 21 23  0  0  0  0  0  0  0  0999 V2000
   39.0270   29.5960   41.9910 C   0  0  0  0  0  0  0  0  0  0  0  0
   40.5160   29.7260   41.9800 C   0  0  0  0  0  0  0  0  0  0  0  0
   39.7020   30.5990   42.8450 C   0  0  0  0  0  0  0  0  0  0  0  0
   40.9490   30.1330   41.0240 H   0  0  0  0  0  0  0  0  0  0  0  0
   41.1950   29.0440   42.4930 H   0  0  0  0  0  0  0  0  0  0  0  0
   39.7500   30.4690   43.9560 H   0  0  0  0  0  0  0  0  0  0  0  0
   39.6000   31.6660   42.5050 H   0  0  0  0  0  0  0  0  0  0  0  0
   38.6930   29.6380   39.4930 C   0  0  0  0  0  0  0  0  0  0  0  0
   38.2990   30.0730   40.7610 C   0  0  0  0  0  0  0  0  0  0  0  0
   37.1930   30.9630   40.8350 C   0  0  0  0  0  0  0  0  0  0  0  0
   36.5900   31.3340   39.6770 N   0  0  0  0  0  0  0  0  0  0  0  0
   37.0040   30.8890   38.4820 C   0  0  0  0  0  0  0  0  0  0  0  0
   38.0450   30.0490   38.3890 N   0  0  0  0  0  0  0  0  0  0  0  0
   39.5260   28.9620   39.3550 H   0  0  0  0  0  0  0  0  0  0  0  0
   36.9260   31.2710   41.8280 H   0  0  0  0  0  0  0  0  0  0  0  0
   36.3870   31.3050   37.6850 H   0  0  0  0  0  0  0  0  0  0  0  0
   38.5170   28.2840   42.4890 C   0  0  0  0  0  3  0  0  0  0  0  0
   37.6180   27.5550   41.5490 C   0  0  0  0  0  2  0  0  0  0  0  0
   36.9940   26.5350   42.5240 C   0  0  0  0  0  2  0  0  0  0  0  0
   36.5750   27.4420   43.6590 C   0  0  0  0  0  2  0  0  0  0  0  0
   37.5920   28.5730   43.6790 C   0  0  0  0  0  2  0  0  0  0  0  0
  1 17  1  0  0  0  0
  1  3  1  0  0  0  0
  2  1  1  0  0  0  0
  2  5  1  0  0  0  0
  2  3  1  0  0  0  0
  3  6  1  0  0  0  0
  4  2  1  0  0  0  0
  7  3  1  0  0  0  0
  8  9  1  0  0  0  0
  9 10  2  0  0  0  0
  9  1  1  0  0  0  0
 10 15  1  0  0  0  0
 11 10  1  0  0  0  0
 12 11  2  0  0  0  0
 13 12  1  0  0  0  0
 13  8  2  0  0  0  0
 14  8  1  0  0  0  0
 16 12  1  0  0  0  0
 17 21  1  0  0  0  0
 18 17  1  0  0  0  0
 18 19  1  0  0  0  0
 19 20  1  0  0  0  0
 20 21  1  0  0  0  0
M  END
>  <minimizedAffinity>
-4.15582609

$$$$

 OpenBabel03242516103D

 21 23  0  0  0  0  0  0  0  0999 V2000
   37.3220   27.4630   42.4910 C   0  0  0  0  0  0  0  0  0  0  0  0
   36.4180   27.4660   43.6800 C   0  0  0  0  0  0  0  0  0  0  0  0
   37.2780   28.6290   43.4010 C   0  0  0  0  0  0  0  0  0  0  0  0
   36.7020   26.7430   44.4930 H   0  0  0  0  0  0  0  0  0  0  0  0
   35.3420   27.6450   43.6320 H   0  0  0  0  0  0  0  0  0  0  0  0
   36.8100   29.5940   43.0780 H   0  0  0  0  0  0  0  0  0  0  0  0
   38.1730   28.7490   44.0730 H   0  0  0  0  0  0  0  0  0  0  0  0
   39.7920   27.0640   42.7910 C   0  0  0  0  0  0  0  0  0  0  0  0
   38.5160   26.5470   42.5540 C   0  0  0  0  0  0  0  0  0  0  0  0
   38.4000   25.1400   42.3890 C   0  0  0  0  0  0  0  0  0  0  0  0
   39.5270   24.3890   42.4700 N   0  0  0  0  0  0  0  0  0  0  0  0
   40.7310   24.9310   42.6990 C   0  0  0  0  0  0  0  0  0  0  0  0
   40.8650   26.2560   42.8590 N   0  0  0  0  0  0  0  0  0  0  0  0
   39.9620   28.1230   42.9260 H   0  0  0  0  0  0  0  0  0  0  0  0
   37.4010   24.7870   42.2080 H   0  0  0  0  0  0  0  0  0  0  0  0
   41.5000   24.1580   42.7280 H   0  0  0  0  0  0  0  0  0  0  0  0
   36.6230   27.4070   41.1720 C   0  0  0  0  0  3  0  0  0  0  0  0
   37.5190   27.3630   39.9810 C   0  0  0  0  0  2  0  0  0  0  0  0
   36.5050   27.7300   38.8790 C   0  0  0  0  0  2  0  0  0  0  0  0
   35.8570   28.9570   39.4810 C   0  0  0  0  0  2  0  0  0  0  0  0
   35.8860   28.7400   40.9860 C   0  0  0  0  0  2  0  0  0  0  0  0
  1  9  1  0  0  0  0
  1  3  1  0  0  0  0
  1  2  1  0  0  0  0
  2  4  1  0  0  0  0
  3  2  1  0  0  0  0
  3  7  1  0  0  0  0
  5  2  1  0  0  0  0
  6  3  1  0  0  0  0
  8 13  1  0  0  0  0
  8 14  1  0  0  0  0
  9  8  2  0  0  0  0
 10 11  2  0  0  0  0
 10  9  1  0  0  0  0
 11 12  1  0  0  0  0
 12 16  1  0  0  0  0
 12 13  2  0  0  0  0
 15 10  1  0  0  0  0
 17  1  1  0  0  0  0
 18 17  1  0  0  0  0
 19 20  1  0  0  0  0
 19 18  1  0  0  0  0
 20 21  1  0  0  0  0
 21 17  1  0  0  0  0
M  END
>  <minimizedAffinity>
-4.09449387

$$$$

 OpenBabel03242516103D

 21 23  0  0  0  0  0  0  0  0999 V2000
   37.8000   25.7150   41.8460 C   0  0  0  0  0  0  0  0  0  0  0  0
   37.0980   24.9530   40.7700 C   0  0  0  0  0  0  0  0  0  0  0  0
   36.9280   24.5660   42.1810 C   0  0  0  0  0  0  0  0  0  0  0  0
   37.7710   24.3480   40.1010 H   0  0  0  0  0  0  0  0  0  0  0  0
   36.1990   25.3010   40.2570 H   0  0  0  0  0  0  0  0  0  0  0  0
   35.9370   24.7220   42.6780 H   0  0  0  0  0  0  0  0  0  0  0  0
   37.4670   23.6310   42.5010 H   0  0  0  0  0  0  0  0  0  0  0  0
   39.9010   25.2830   43.1690 C   0  0  0  0  0  0  0  0  0  0  0  0
   39.2930   25.5340   41.9370 C   0  0  0  0  0  0  0  0  0  0  0  0
   40.1330   25.6000   40.7930 C   0  0  0  0  0  0  0  0  0  0  0  0
   41.4670   25.4170   40.9650 N   0  0  0  0  0  0  0  0  0  0  0  0
   42.0050   25.1770   42.1680 C   0  0  0  0  0  0  0  0  0  0  0  0
   41.2310   25.1110   43.2620 N   0  0  0  0  0  0  0  0  0  0  0  0
   39.3290   25.2190   44.0850 H   0  0  0  0  0  0  0  0  0  0  0  0
   39.6240   25.7960   39.8680 H   0  0  0  0  0  0  0  0  0  0  0  0
   43.0860   25.0600   42.0880 H   0  0  0  0  0  0  0  0  0  0  0  0
   37.3840   27.1440   41.9760 C   0  0  0  0  0  3  0  0  0  0  0  0
   38.4510   28.1430   41.6870 C   0  0  0  0  0  2  0  0  0  0  0  0
   37.8070   29.3990   42.3100 C   0  0  0  0  0  2  0  0  0  0  0  0
   37.4030   28.8700   43.6680 C   0  0  0  0  0  2  0  0  0  0  0  0
   37.0770   27.4000   43.4570 C   0  0  0  0  0  2  0  0  0  0  0  0
  1  9  1  0  0  0  0
  1 17  1  0  0  0  0
  1  3  1  0  0  0  0
  2  1  1  0  0  0  0
  2  3  1  0  0  0  0
  3  7  1  0  0  0  0
  3  6  1  0  0  0  0
  4  2  1  0  0  0  0
  5  2  1  0  0  0  0
  8 13  1  0  0  0  0
  8 14  1  0  0  0  0
  9  8  2  0  0  0  0
 10 11  2  0  0  0  0
 10  9  1  0  0  0  0
 11 12  1  0  0  0  0
 12 13  2  0  0  0  0
 15 10  1  0  0  0  0
 16 12  1  0  0  0  0
 17 21  1  0  0  0  0
 18 17  1  0  0  0  0
 18 19  1  0  0  0  0
 19 20  1  0  0  0  0
 21 20  1  0  0  0  0
M  END
>  <minimizedAffinity>
-4.04498243

$$$$

 OpenBabel03242516103D

 21 23  0  0  0  0  0  0  0  0999 V2000
   37.1820   27.6550   42.0330 C   0  0  0  0  0  0  0  0  0  0  0  0
   37.1900   26.2770   42.6100 C   0  0  0  0  0  0  0  0  0  0  0  0
   36.4580   27.3600   43.2890 C   0  0  0  0  0  0  0  0  0  0  0  0
   38.1850   25.9380   43.0120 H   0  0  0  0  0  0  0  0  0  0  0  0
   36.5840   25.4510   42.2350 H   0  0  0  0  0  0  0  0  0  0  0  0
   35.3390   27.3340   43.3150 H   0  0  0  0  0  0  0  0  0  0  0  0
   36.9350   27.7620   44.2250 H   0  0  0  0  0  0  0  0  0  0  0  0
   38.4860   29.7330   42.6090 C   0  0  0  0  0  0  0  0  0  0  0  0
   38.4730   28.4280   42.1120 C   0  0  0  0  0  0  0  0  0  0  0  0
   39.7140   27.8690   41.7030 C   0  0  0  0  0  0  0  0  0  0  0  0
   40.8300   28.6340   41.8170 N   0  0  0  0  0  0  0  0  0  0  0  0
   40.7930   29.8830   42.3000 C   0  0  0  0  0  0  0  0  0  0  0  0
   39.6330   30.4300   42.6930 N   0  0  0  0  0  0  0  0  0  0  0  0
   37.5820   30.2270   42.9380 H   0  0  0  0  0  0  0  0  0  0  0  0
   39.6570   26.8650   41.3270 H   0  0  0  0  0  0  0  0  0  0  0  0
   41.7920   30.3200   42.3090 H   0  0  0  0  0  0  0  0  0  0  0  0
   36.5230   27.7710   40.6970 C   0  0  0  0  0  3  0  0  0  0  0  0
   37.4010   28.2600   39.5970 C   0  0  0  0  0  2  0  0  0  0  0  0
   36.3290   28.6370   38.5550 C   0  0  0  0  0  2  0  0  0  0  0  0
   35.3870   29.4650   39.3990 C   0  0  0  0  0  2  0  0  0  0  0  0
   35.4680   28.8810   40.8000 C   0  0  0  0  0  2  0  0  0  0  0  0
  1  9  1  0  0  0  0
  1  2  1  0  0  0  0
  1  3  1  0  0  0  0
  2  4  1  0  0  0  0
  2  3  1  0  0  0  0
  3  6  1  0  0  0  0
  3  7  1  0  0  0  0
  5  2  1  0  0  0  0
  8 13  1  0  0  0  0
  8 14  1  0  0  0  0
  9  8  2  0  0  0  0
 10 11  2  0  0  0  0
 10  9  1  0  0  0  0
 11 12  1  0  0  0  0
 12 16  1  0  0  0  0
 12 13  2  0  0  0  0
 15 10  1  0  0  0  0
 17 21  1  0  0  0  0
 17  1  1  0  0  0  0
 18 17  1  0  0  0  0
 19 20  1  0  0  0  0
 19 18  1  0  0  0  0
 20 21  1  0  0  0  0
M  END
>  <minimizedAffinity>
-4.01362228

$$$$
