
     RDKit          3D

 30 31  0  0  0  0  0  0  0  0999 V2000
   44.7304   35.3903   45.0246 C   0  0  0  0  0  0  0  0  0  0  0  0
   45.6053   34.9270   44.0454 C   0  0  0  0  0  0  0  0  0  0  0  0
   46.3435   33.7705   44.3287 C   0  0  0  0  0  0  0  0  0  0  0  0
   46.1877   33.1550   45.5144 N   0  0  0  0  0  0  0  0  0  0  0  0
   45.3335   33.6326   46.4339 C   0  0  0  0  0  0  0  0  0  0  0  0
   44.6015   34.7362   46.2155 N   0  0  0  0  0  0  0  0  0  0  0  0
   45.6753   35.7111   42.7772 C   0  0  0  0  0  0  0  0  0  0  0  0
   45.2574   36.9798   43.0796 F   0  0  0  0  0  0  0  0  0  0  0  0
   44.7989   35.0957   41.8856 F   0  0  0  0  0  0  0  0  0  0  0  0
   46.9634   35.6473   42.3076 F   0  0  0  0  0  0  0  0  0  0  0  0
   45.1242   33.0458   47.6791 O   0  0  0  0  0  0  0  0  0  0  0  0
   46.1568   32.3227   48.3164 C   0  0  0  0  0  0  0  0  0  0  0  0
   44.1292   36.2772   44.8732 H   0  0  0  0  0  0  0  0  0  0  0  0
   47.0049   33.4403   43.5596 H   0  0  0  0  0  0  0  0  0  0  0  0
   45.8103   31.9378   49.2769 H   0  0  0  0  0  0  0  0  0  0  0  0
   46.4979   31.5640   47.5934 H   0  0  0  0  0  0  0  0  0  0  0  0
   47.2929   33.3110   48.5028 C   0  0  0  0  0  0  0  0  0  0  0  0
   48.4280   33.1025   47.5437 C   0  0  0  0  0  0  0  0  0  0  0  0
   49.7104   33.0721   48.3809 C   0  0  0  0  0  0  0  0  0  0  0  0
   49.2731   33.8234   49.6207 C   0  0  0  0  0  0  0  0  0  0  0  0
   47.9102   33.1717   49.8896 C   0  0  0  0  0  0  0  0  0  0  0  0
   46.9380   34.3588   48.4486 H   0  0  0  0  0  0  0  0  0  0  0  0
   48.5634   33.9484   46.8204 H   0  0  0  0  0  0  0  0  0  0  0  0
   48.2922   32.1773   46.9510 H   0  0  0  0  0  0  0  0  0  0  0  0
   49.9366   32.0225   48.6902 H   0  0  0  0  0  0  0  0  0  0  0  0
   50.5558   33.5718   47.8640 H   0  0  0  0  0  0  0  0  0  0  0  0
   49.0793   34.8853   49.3224 H   0  0  0  0  0  0  0  0  0  0  0  0
   49.9599   33.7197   50.4725 H   0  0  0  0  0  0  0  0  0  0  0  0
   48.0520   32.0994   50.1210 H   0  0  0  0  0  0  0  0  0  0  0  0
   47.3225   33.7053   50.6423 H   0  0  0  0  0  0  0  0  0  0  0  0
  1  6  2  0
  2  3  2  0
  2  1  1  0
  3  4  1  0
  4  5  2  0
  5 11  1  0
  6  5  1  0
  7  8  1  0
  7  2  1  0
  9  7  1  0
 10  7  1  0
 11 12  1  0
  1 13  1  0
  3 14  1  0
 12 15  1  0
 12 16  1  0
 17 18  1  0
 18 19  1  0
 19 20  1  0
 20 21  1  0
 21 17  1  0
 17 22  1  0
 18 23  1  0
 18 24  1  0
 19 25  1  0
 19 26  1  0
 20 27  1  0
 20 28  1  0
 21 29  1  0
 21 30  1  0
 12 17  1  0
M  ISO  4  13  14  14  14  15   8  16   8
M  END
>  <DihAtoms>  (1) 
10,11,16,17

>  <DihDeg>  (1) 
-179.99660458982115

$$$$
