
 OpenBabel03252508273D

 37 41  0  0  1  0  0  0  0  0999 V2000
   34.3560   28.6570   37.3450 C   0  0  1  0  0  0  0  0  0  0  0  0
   33.6140   27.5080   36.8050 C   0  0  0  0  0  0  0  0  0  0  0  0
   32.9170   28.8260   37.3250 C   0  0  2  0  0  0  0  0  0  0  0  0
   35.0780   28.9620   36.5070 H   0  0  0  0  0  0  0  0  0  0  0  0
   33.4110   26.6050   37.3960 H   0  0  0  0  0  0  0  0  0  0  0  0
   33.3720   27.3800   35.7350 H   0  0  0  0  0  0  0  0  0  0  0  0
   32.2230   28.4340   38.1350 H   0  0  0  0  0  0  0  0  0  0  0  0
   32.1740   29.6720   36.3890 C   0  0  0  0  0  0  0  0  0  0  0  0
   32.5050   29.9810   35.1070 C   0  0  0  0  0  0  0  0  0  0  0  0
   31.8440   30.8920   34.2920 C   0  0  0  0  0  0  0  0  0  0  0  0
   30.7370   31.5440   34.8580 C   0  0  0  0  0  0  0  0  0  0  0  0
   30.3760   31.2420   36.1710 C   0  0  0  0  0  0  0  0  0  0  0  0
   29.2430   31.8650   36.6580 C   0  0  0  0  0  0  0  0  0  0  0  0
   28.7980   31.5460   37.9400 C   0  0  0  0  0  0  0  0  0  0  0  0
   29.4740   30.6200   38.7080 C   0  0  0  0  0  0  0  0  0  0  0  0
   30.5950   30.0340   38.1700 C   0  0  0  0  0  0  0  0  0  0  0  0
   31.0820   30.3250   36.9060 C   0  0  0  0  0  0  0  0  0  0  0  0
   33.3730   29.4490   34.7120 H   0  0  0  0  0  0  0  0  0  0  0  0
   32.1760   31.0790   33.2770 H   0  0  0  0  0  0  0  0  0  0  0  0
   30.2280   32.2540   34.2260 H   0  0  0  0  0  0  0  0  0  0  0  0
   28.7250   32.5900   36.0320 H   0  0  0  0  0  0  0  0  0  0  0  0
   27.8930   32.1010   38.2250 H   0  0  0  0  0  0  0  0  0  0  0  0
   28.9850   30.5100   39.6440 H   0  0  0  0  0  0  0  0  0  0  0  0
   30.8770   29.3210   38.8920 H   0  0  0  0  0  0  0  0  0  0  0  0
   35.6480   29.5440   40.6890 C   0  0  0  0  0  0  0  0  0  0  0  0
   36.4320   28.3850   41.0250 C   0  0  0  0  0  0  0  0  0  0  0  0
   36.4790   27.3160   40.0760 C   0  0  0  0  0  0  0  0  0  0  0  0
   35.8000   27.4320   38.9280 N   0  0  0  0  0  0  0  0  0  0  0  0
   35.0640   28.5660   38.6560 C   0  0  0  0  0  0  0  0  0  0  0  0
   34.9920   29.5830   39.5090 N   0  0  0  0  0  0  0  0  0  0  0  0
   35.6350   30.3310   41.4290 H   0  0  0  0  0  0  0  0  0  0  0  0
   36.9700   28.2990   41.9390 H   0  0  0  0  0  0  0  0  0  0  0  0
   37.2580   26.0930   40.3410 C   0  0  0  0  0  3  0  0  0  0  0  0
   37.4610   25.8520   41.8220 C   0  0  0  0  0  2  0  0  0  0  0  0
   36.9230   24.4790   42.1110 C   0  0  0  0  0  2  0  0  0  0  0  0
   36.9870   23.7710   40.7840 C   0  0  0  0  0  2  0  0  0  0  0  0
   36.5660   24.8390   39.8180 C   0  0  0  0  0  2  0  0  0  0  0  0
  1  4  1  6  0  0  0
  1 29  1  0  0  0  0
  2  3  1  0  0  0  0
  2  1  1  0  0  0  0
  2  5  1  0  0  0  0
  3  1  1  0  0  0  0
  3  7  1  1  0  0  0
  6  2  1  0  0  0  0
  8 17  1  0  0  0  0
  8  3  1  0  0  0  0
  9  8  2  0  0  0  0
 10 11  2  0  0  0  0
 10  9  1  0  0  0  0
 11 12  1  0  0  0  0
 12 13  2  0  0  0  0
 12 17  1  0  0  0  0
 13 14  1  0  0  0  0
 14 22  1  0  0  0  0
 14 15  2  0  0  0  0
 15 23  1  0  0  0  0
 16 15  1  0  0  0  0
 16 24  1  0  0  0  0
 17 16  2  0  0  0  0
 18  9  1  0  0  0  0
 19 10  1  0  0  0  0
 20 11  1  0  0  0  0
 21 13  1  0  0  0  0
 25 26  1  0  0  0  0
 25 31  1  0  0  0  0
 26 32  1  0  0  0  0
 27 33  1  0  0  0  0
 27 26  2  0  0  0  0
 28 27  1  0  0  0  0
 29 28  2  0  0  0  0
 29 30  1  0  0  0  0
 30 25  2  0  0  0  0
 33 34  1  0  0  0  0
 34 35  1  0  0  0  0
 36 35  1  0  0  0  0
 37 33  1  0  0  0  0
 37 36  1  0  0  0  0
M  END
>  <minimizedAffinity>
-6.63966322

$$$$

 OpenBabel03252508273D

 37 41  0  0  1  0  0  0  0  0999 V2000
   38.7820   29.3000   42.6840 C   0  0  1  0  0  0  0  0  0  0  0  0
   37.6730   28.9740   43.5940 C   0  0  0  0  0  0  0  0  0  0  0  0
   38.1190   28.0440   42.3980 C   0  0  2  0  0  0  0  0  0  0  0  0
   39.6950   29.4340   43.3670 H   0  0  0  0  0  0  0  0  0  0  0  0
   36.6770   29.4230   43.4930 H   0  0  0  0  0  0  0  0  0  0  0  0
   37.7970   28.4160   44.5390 H   0  0  0  0  0  0  0  0  0  0  0  0
   37.1650   27.9580   41.7850 H   0  0  0  0  0  0  0  0  0  0  0  0
   38.6610   26.7130   42.6760 C   0  0  0  0  0  0  0  0  0  0  0  0
   39.6620   26.3890   43.5370 C   0  0  0  0  0  0  0  0  0  0  0  0
   40.2390   25.1320   43.6790 C   0  0  0  0  0  0  0  0  0  0  0  0
   39.7330   24.1180   42.8510 C   0  0  0  0  0  0  0  0  0  0  0  0
   38.7040   24.4260   41.9610 C   0  0  0  0  0  0  0  0  0  0  0  0
   38.2010   23.3780   41.2150 C   0  0  0  0  0  0  0  0  0  0  0  0
   37.1250   23.6160   40.3600 C   0  0  0  0  0  0  0  0  0  0  0  0
   36.5690   24.8760   40.2650 C   0  0  0  0  0  0  0  0  0  0  0  0
   37.1140   25.8780   41.0320 C   0  0  0  0  0  0  0  0  0  0  0  0
   38.1880   25.6930   41.8880 C   0  0  0  0  0  0  0  0  0  0  0  0
   40.0220   27.2110   44.1590 H   0  0  0  0  0  0  0  0  0  0  0  0
   41.0360   24.9600   44.3940 H   0  0  0  0  0  0  0  0  0  0  0  0
   40.1850   23.1450   42.9590 H   0  0  0  0  0  0  0  0  0  0  0  0
   38.6540   22.3920   41.3090 H   0  0  0  0  0  0  0  0  0  0  0  0
   36.8090   22.7150   39.8160 H   0  0  0  0  0  0  0  0  0  0  0  0
   35.7650   24.8570   39.5720 H   0  0  0  0  0  0  0  0  0  0  0  0
   36.4810   26.7020   40.8550 H   0  0  0  0  0  0  0  0  0  0  0  0
   39.2480   32.5930   41.0790 C   0  0  0  0  0  0  0  0  0  0  0  0
   38.3880   32.4900   39.9290 C   0  0  0  0  0  0  0  0  0  0  0  0
   37.6760   31.2650   39.7390 C   0  0  0  0  0  0  0  0  0  0  0  0
   37.8340   30.2730   40.6240 N   0  0  0  0  0  0  0  0  0  0  0  0
   38.6710   30.4250   41.7090 C   0  0  0  0  0  0  0  0  0  0  0  0
   39.3530   31.5460   41.9250 N   0  0  0  0  0  0  0  0  0  0  0  0
   39.7700   33.5320   41.1910 H   0  0  0  0  0  0  0  0  0  0  0  0
   38.2660   33.2830   39.2290 H   0  0  0  0  0  0  0  0  0  0  0  0
   36.7740   31.0760   38.5870 C   0  0  0  0  0  3  0  0  0  0  0  0
   37.5240   31.0470   37.2720 C   0  0  0  0  0  2  0  0  0  0  0  0
   37.1670   29.7480   36.6030 C   0  0  0  0  0  2  0  0  0  0  0  0
   35.8430   29.3730   37.2120 C   0  0  0  0  0  2  0  0  0  0  0  0
   36.0190   29.7520   38.6520 C   0  0  0  0  0  2  0  0  0  0  0  0
  1  4  1  1  0  0  0
  1  2  1  0  0  0  0
  2  6  1  0  0  0  0
  3  7  1  6  0  0  0
  3  8  1  0  0  0  0
  3  1  1  0  0  0  0
  3  2  1  0  0  0  0
  5  2  1  0  0  0  0
  8  9  1  0  0  0  0
  9 10  2  0  0  0  0
  9 18  1  0  0  0  0
 10 19  1  0  0  0  0
 11 20  1  0  0  0  0
 11 10  1  0  0  0  0
 12 11  2  0  0  0  0
 13 21  1  0  0  0  0
 13 12  1  0  0  0  0
 14 13  2  0  0  0  0
 15 14  1  0  0  0  0
 15 16  2  0  0  0  0
 16 17  1  0  0  0  0
 17 12  1  0  0  0  0
 17  8  2  0  0  0  0
 22 14  1  0  0  0  0
 23 15  1  0  0  0  0
 24 16  1  0  0  0  0
 25 31  1  0  0  0  0
 25 30  1  0  0  0  0
 26 25  2  0  0  0  0
 27 26  1  0  0  0  0
 27 28  2  0  0  0  0
 28 29  1  0  0  0  0
 29 30  2  0  0  0  0
 29  1  1  0  0  0  0
 32 26  1  0  0  0  0
 33 37  1  0  0  0  0
 33 27  1  0  0  0  0
 34 33  1  0  0  0  0
 35 36  1  0  0  0  0
 35 34  1  0  0  0  0
 36 37  1  0  0  0  0
M  END
>  <minimizedAffinity>
-6.63390636

$$$$

 OpenBabel03252508273D

 37 41  0  0  1  0  0  0  0  0999 V2000
   34.0370   28.8080   36.1780 C   0  0  1  0  0  0  0  0  0  0  0  0
   33.0720   27.8130   35.6850 C   0  0  0  0  0  0  0  0  0  0  0  0
   32.6610   29.0680   36.5510 C   0  0  2  0  0  0  0  0  0  0  0  0
   34.5600   29.2030   35.2350 H   0  0  0  0  0  0  0  0  0  0  0  0
   32.9280   26.8400   36.1720 H   0  0  0  0  0  0  0  0  0  0  0  0
   32.5640   27.8800   34.7060 H   0  0  0  0  0  0  0  0  0  0  0  0
   32.1480   28.5920   37.4470 H   0  0  0  0  0  0  0  0  0  0  0  0
   31.8020   30.1030   35.9700 C   0  0  0  0  0  0  0  0  0  0  0  0
   31.9540   30.7290   34.7730 C   0  0  0  0  0  0  0  0  0  0  0  0
   31.1950   31.7990   34.3120 C   0  0  0  0  0  0  0  0  0  0  0  0
   30.1860   32.2620   35.1710 C   0  0  0  0  0  0  0  0  0  0  0  0
   30.0100   31.6330   36.4040 C   0  0  0  0  0  0  0  0  0  0  0  0
   28.9650   32.0880   37.1840 C   0  0  0  0  0  0  0  0  0  0  0  0
   28.7000   31.4480   38.3940 C   0  0  0  0  0  0  0  0  0  0  0  0
   29.4680   30.3770   38.8050 C   0  0  0  0  0  0  0  0  0  0  0  0
   30.4950   29.9710   37.9870 C   0  0  0  0  0  0  0  0  0  0  0  0
   30.8020   30.5800   36.7800 C   0  0  0  0  0  0  0  0  0  0  0  0
   32.7510   30.3330   34.1410 H   0  0  0  0  0  0  0  0  0  0  0  0
   31.3830   32.2410   33.3400 H   0  0  0  0  0  0  0  0  0  0  0  0
   29.6010   33.0940   34.8140 H   0  0  0  0  0  0  0  0  0  0  0  0
   28.3710   32.9330   36.8370 H   0  0  0  0  0  0  0  0  0  0  0  0
   27.8510   31.8930   38.9320 H   0  0  0  0  0  0  0  0  0  0  0  0
   29.1130   30.0250   39.7410 H   0  0  0  0  0  0  0  0  0  0  0  0
   30.8680   29.1080   38.4610 H   0  0  0  0  0  0  0  0  0  0  0  0
   35.9750   26.8610   38.6440 C   0  0  0  0  0  0  0  0  0  0  0  0
   36.8190   27.8710   39.2280 C   0  0  0  0  0  0  0  0  0  0  0  0
   36.6960   29.2060   38.7330 C   0  0  0  0  0  0  0  0  0  0  0  0
   35.8130   29.4640   37.7600 N   0  0  0  0  0  0  0  0  0  0  0  0
   35.0290   28.4580   37.2360 C   0  0  0  0  0  0  0  0  0  0  0  0
   35.1100   27.2020   37.6650 N   0  0  0  0  0  0  0  0  0  0  0  0
   36.0960   25.8630   39.0420 H   0  0  0  0  0  0  0  0  0  0  0  0
   37.5180   27.6600   40.0020 H   0  0  0  0  0  0  0  0  0  0  0  0
   37.5220   30.3020   39.2750 C   0  0  0  0  0  3  0  0  0  0  0  0
   37.8090   31.3680   38.2390 C   0  0  0  0  0  2  0  0  0  0  0  0
   37.3250   32.6690   38.8170 C   0  0  0  0  0  2  0  0  0  0  0  0
   37.3390   32.4390   40.3040 C   0  0  0  0  0  2  0  0  0  0  0  0
   36.8380   31.0300   40.4270 C   0  0  0  0  0  2  0  0  0  0  0  0
  1  4  1  6  0  0  0
  1  3  1  0  0  0  0
  1 29  1  0  0  0  0
  2  5  1  0  0  0  0
  2  1  1  0  0  0  0
  2  3  1  0  0  0  0
  3  7  1  1  0  0  0
  6  2  1  0  0  0  0
  8  3  1  0  0  0  0
  8 17  1  0  0  0  0
  9  8  2  0  0  0  0
 10  9  1  0  0  0  0
 10 11  2  0  0  0  0
 11 12  1  0  0  0  0
 12 17  2  0  0  0  0
 12 13  1  0  0  0  0
 13 14  2  0  0  0  0
 14 15  1  0  0  0  0
 14 22  1  0  0  0  0
 15 23  1  0  0  0  0
 16 24  1  0  0  0  0
 16 15  2  0  0  0  0
 17 16  1  0  0  0  0
 18  9  1  0  0  0  0
 19 10  1  0  0  0  0
 20 11  1  0  0  0  0
 21 13  1  0  0  0  0
 25 31  1  0  0  0  0
 25 26  1  0  0  0  0
 26 32  1  0  0  0  0
 27 26  2  0  0  0  0
 27 33  1  0  0  0  0
 28 27  1  0  0  0  0
 29 30  1  0  0  0  0
 29 28  2  0  0  0  0
 30 25  2  0  0  0  0
 33 37  1  0  0  0  0
 34 35  1  0  0  0  0
 34 33  1  0  0  0  0
 35 36  1  0  0  0  0
 36 37  1  0  0  0  0
M  END
>  <minimizedAffinity>
-6.28237867

$$$$

 OpenBabel03252508273D

 37 41  0  0  1  0  0  0  0  0999 V2000
   35.9640   29.3100   39.4020 C   0  0  1  0  0  0  0  0  0  0  0  0
   34.8820   29.2480   40.3970 C   0  0  0  0  0  0  0  0  0  0  0  0
   36.0280   28.1660   40.2900 C   0  0  2  0  0  0  0  0  0  0  0  0
   36.4700   30.3250   39.5800 H   0  0  0  0  0  0  0  0  0  0  0  0
   33.8750   28.8890   40.1500 H   0  0  0  0  0  0  0  0  0  0  0  0
   34.9360   29.7190   41.3940 H   0  0  0  0  0  0  0  0  0  0  0  0
   35.4440   27.2050   40.1250 H   0  0  0  0  0  0  0  0  0  0  0  0
   36.9750   27.9990   41.3940 C   0  0  0  0  0  0  0  0  0  0  0  0
   37.5110   28.9690   42.1810 C   0  0  0  0  0  0  0  0  0  0  0  0
   38.5060   28.7880   43.1350 C   0  0  0  0  0  0  0  0  0  0  0  0
   38.9920   27.4800   43.2850 C   0  0  0  0  0  0  0  0  0  0  0  0
   38.4550   26.4660   42.4900 C   0  0  0  0  0  0  0  0  0  0  0  0
   38.9250   25.1880   42.7220 C   0  0  0  0  0  0  0  0  0  0  0  0
   38.3730   24.1280   42.0040 C   0  0  0  0  0  0  0  0  0  0  0  0
   37.3710   24.3510   41.0800 C   0  0  0  0  0  0  0  0  0  0  0  0
   36.9470   25.6450   40.8920 C   0  0  0  0  0  0  0  0  0  0  0  0
   37.4710   26.7320   41.5750 C   0  0  0  0  0  0  0  0  0  0  0  0
   37.1000   29.9690   42.0270 H   0  0  0  0  0  0  0  0  0  0  0  0
   38.8770   29.6200   43.7220 H   0  0  0  0  0  0  0  0  0  0  0  0
   39.7660   27.3410   44.0220 H   0  0  0  0  0  0  0  0  0  0  0  0
   39.7140   25.0360   43.4580 H   0  0  0  0  0  0  0  0  0  0  0  0
   38.8210   23.1590   42.2660 H   0  0  0  0  0  0  0  0  0  0  0  0
   37.0800   23.4290   40.6430 H   0  0  0  0  0  0  0  0  0  0  0  0
   36.1410   25.5500   40.2210 H   0  0  0  0  0  0  0  0  0  0  0  0
   36.4820   28.7060   35.7960 C   0  0  0  0  0  0  0  0  0  0  0  0
   35.1380   28.7730   35.2850 C   0  0  0  0  0  0  0  0  0  0  0  0
   34.0830   29.0160   36.2180 C   0  0  0  0  0  0  0  0  0  0  0  0
   34.3800   29.1690   37.5150 N   0  0  0  0  0  0  0  0  0  0  0  0
   35.6870   29.0960   37.9510 C   0  0  0  0  0  0  0  0  0  0  0  0
   36.6980   28.8710   37.1190 N   0  0  0  0  0  0  0  0  0  0  0  0
   37.2540   28.5210   35.0630 H   0  0  0  0  0  0  0  0  0  0  0  0
   34.9080   28.6510   34.2530 H   0  0  0  0  0  0  0  0  0  0  0  0
   32.6780   29.1000   35.7790 C   0  0  0  0  0  3  0  0  0  0  0  0
   31.7510   29.5130   36.9030 C   0  0  0  0  0  2  0  0  0  0  0  0
   31.0200   30.7380   36.4270 C   0  0  0  0  0  2  0  0  0  0  0  0
   31.0820   30.6440   34.9260 C   0  0  0  0  0  2  0  0  0  0  0  0
   32.4730   30.1390   34.6820 C   0  0  0  0  0  2  0  0  0  0  0  0
  1  4  1  1  0  0  0
  1  3  1  0  0  0  0
  1  2  1  0  0  0  0
  2  6  1  0  0  0  0
  3  7  1  6  0  0  0
  3  2  1  0  0  0  0
  3  8  1  0  0  0  0
  5  2  1  0  0  0  0
  8 17  2  0  0  0  0
  8  9  1  0  0  0  0
  9 10  2  0  0  0  0
 10 11  1  0  0  0  0
 10 19  1  0  0  0  0
 11 20  1  0  0  0  0
 12 13  1  0  0  0  0
 12 11  2  0  0  0  0
 13 21  1  0  0  0  0
 14 22  1  0  0  0  0
 14 13  2  0  0  0  0
 15 14  1  0  0  0  0
 16 15  2  0  0  0  0
 16 17  1  0  0  0  0
 17 12  1  0  0  0  0
 18  9  1  0  0  0  0
 23 15  1  0  0  0  0
 24 16  1  0  0  0  0
 25 30  1  0  0  0  0
 26 25  2  0  0  0  0
 26 27  1  0  0  0  0
 27 28  2  0  0  0  0
 28 29  1  0  0  0  0
 29  1  1  0  0  0  0
 30 29  2  0  0  0  0
 31 25  1  0  0  0  0
 32 26  1  0  0  0  0
 33 27  1  0  0  0  0
 33 34  1  0  0  0  0
 35 34  1  0  0  0  0
 36 35  1  0  0  0  0
 37 36  1  0  0  0  0
 37 33  1  0  0  0  0
M  END
>  <minimizedAffinity>
-6.28091335

$$$$

 OpenBabel03252508273D

 37 41  0  0  1  0  0  0  0  0999 V2000
   40.7930   29.8000   41.6210 C   0  0  1  0  0  0  0  0  0  0  0  0
   41.5760   30.0030   42.8500 C   0  0  0  0  0  0  0  0  0  0  0  0
   40.3490   29.0130   42.7540 C   0  0  2  0  0  0  0  0  0  0  0  0
   41.5610   29.4670   40.8350 H   0  0  0  0  0  0  0  0  0  0  0  0
   41.4280   30.8700   43.5070 H   0  0  0  0  0  0  0  0  0  0  0  0
   42.4780   29.4200   43.1080 H   0  0  0  0  0  0  0  0  0  0  0  0
   39.6520   29.4050   43.5630 H   0  0  0  0  0  0  0  0  0  0  0  0
   40.5610   27.5740   42.9260 C   0  0  0  0  0  0  0  0  0  0  0  0
   41.7240   26.9380   43.2270 C   0  0  0  0  0  0  0  0  0  0  0  0
   41.9160   25.5610   43.2530 C   0  0  0  0  0  0  0  0  0  0  0  0
   40.7990   24.7710   42.9380 C   0  0  0  0  0  0  0  0  0  0  0  0
   39.5940   25.4020   42.6280 C   0  0  0  0  0  0  0  0  0  0  0  0
   38.5120   24.5780   42.3860 C   0  0  0  0  0  0  0  0  0  0  0  0
   37.2670   25.1560   42.1400 C   0  0  0  0  0  0  0  0  0  0  0  0
   37.1180   26.5280   42.1430 C   0  0  0  0  0  0  0  0  0  0  0  0
   38.2310   27.2960   42.3890 C   0  0  0  0  0  0  0  0  0  0  0  0
   39.4900   26.7680   42.6290 C   0  0  0  0  0  0  0  0  0  0  0  0
   42.5630   27.5950   43.4650 H   0  0  0  0  0  0  0  0  0  0  0  0
   42.8810   25.1360   43.5050 H   0  0  0  0  0  0  0  0  0  0  0  0
   40.9510   23.7040   42.9550 H   0  0  0  0  0  0  0  0  0  0  0  0
   38.6540   23.4980   42.3920 H   0  0  0  0  0  0  0  0  0  0  0  0
   36.4810   24.4090   41.9580 H   0  0  0  0  0  0  0  0  0  0  0  0
   36.1050   26.7750   41.9410 H   0  0  0  0  0  0  0  0  0  0  0  0
   37.8560   28.2790   42.4230 H   0  0  0  0  0  0  0  0  0  0  0  0
   39.5680   33.1300   40.6000 C   0  0  0  0  0  0  0  0  0  0  0  0
   38.2300   32.8350   40.1580 C   0  0  0  0  0  0  0  0  0  0  0  0
   37.7960   31.4740   40.2170 C   0  0  0  0  0  0  0  0  0  0  0  0
   38.6380   30.5380   40.6750 N   0  0  0  0  0  0  0  0  0  0  0  0
   39.9100   30.8770   41.0870 C   0  0  0  0  0  0  0  0  0  0  0  0
   40.3550   32.1290   41.0490 N   0  0  0  0  0  0  0  0  0  0  0  0
   39.8620   34.1680   40.5420 H   0  0  0  0  0  0  0  0  0  0  0  0
   37.5650   33.5830   39.7960 H   0  0  0  0  0  0  0  0  0  0  0  0
   36.4410   31.0840   39.7830 C   0  0  0  0  0  3  0  0  0  0  0  0
   36.4480   30.4020   38.4320 C   0  0  0  0  0  2  0  0  0  0  0  0
   35.7830   29.0670   38.6220 C   0  0  0  0  0  2  0  0  0  0  0  0
   34.9210   29.2550   39.8410 C   0  0  0  0  0  2  0  0  0  0  0  0
   35.7900   30.0870   40.7370 C   0  0  0  0  0  2  0  0  0  0  0  0
  1  4  1  6  0  0  0
  1  3  1  0  0  0  0
  1  2  1  0  0  0  0
  2  6  1  0  0  0  0
  2  5  1  0  0  0  0
  3  2  1  0  0  0  0
  3  8  1  0  0  0  0
  3  7  1  1  0  0  0
  8  9  1  0  0  0  0
  9 10  2  0  0  0  0
  9 18  1  0  0  0  0
 10 19  1  0  0  0  0
 11 20  1  0  0  0  0
 11 10  1  0  0  0  0
 12 17  1  0  0  0  0
 12 11  2  0  0  0  0
 13 21  1  0  0  0  0
 13 12  1  0  0  0  0
 14 15  1  0  0  0  0
 14 13  2  0  0  0  0
 15 16  2  0  0  0  0
 16 24  1  0  0  0  0
 16 17  1  0  0  0  0
 17  8  2  0  0  0  0
 22 14  1  0  0  0  0
 23 15  1  0  0  0  0
 25 30  1  0  0  0  0
 26 27  1  0  0  0  0
 26 25  2  0  0  0  0
 27 28  2  0  0  0  0
 28 29  1  0  0  0  0
 29  1  1  0  0  0  0
 30 29  2  0  0  0  0
 31 25  1  0  0  0  0
 32 26  1  0  0  0  0
 33 27  1  0  0  0  0
 33 37  1  0  0  0  0
 34 35  1  0  0  0  0
 34 33  1  0  0  0  0
 35 36  1  0  0  0  0
 36 37  1  0  0  0  0
M  END
>  <minimizedAffinity>
-6.2805872

$$$$

 OpenBabel03252508273D

 37 41  0  0  1  0  0  0  0  0999 V2000
   35.7600   29.3670   40.6620 C   0  0  1  0  0  0  0  0  0  0  0  0
   36.3070   30.5460   39.9720 C   0  0  0  0  0  0  0  0  0  0  0  0
   35.9510   29.1950   39.2360 C   0  0  2  0  0  0  0  0  0  0  0  0
   34.8000   29.7410   41.1690 H   0  0  0  0  0  0  0  0  0  0  0  0
   37.3740   30.8000   39.9950 H   0  0  0  0  0  0  0  0  0  0  0  0
   35.6840   31.3530   39.5460 H   0  0  0  0  0  0  0  0  0  0  0  0
   36.9420   28.9050   38.7610 H   0  0  0  0  0  0  0  0  0  0  0  0
   34.8850   29.1730   38.2320 C   0  0  0  0  0  0  0  0  0  0  0  0
   33.5430   29.1780   38.4470 C   0  0  0  0  0  0  0  0  0  0  0  0
   32.5620   29.0240   37.4750 C   0  0  0  0  0  0  0  0  0  0  0  0
   33.0130   28.8490   36.1580 C   0  0  0  0  0  0  0  0  0  0  0  0
   34.3870   28.8430   35.9110 C   0  0  0  0  0  0  0  0  0  0  0  0
   34.7750   28.7290   34.5910 C   0  0  0  0  0  0  0  0  0  0  0  0
   36.1340   28.7880   34.2820 C   0  0  0  0  0  0  0  0  0  0  0  0
   37.0740   28.9610   35.2780 C   0  0  0  0  0  0  0  0  0  0  0  0
   36.6260   29.0670   36.5730 C   0  0  0  0  0  0  0  0  0  0  0  0
   35.2890   29.0050   36.9310 C   0  0  0  0  0  0  0  0  0  0  0  0
   33.2410   29.3170   39.4870 H   0  0  0  0  0  0  0  0  0  0  0  0
   31.5090   29.0410   37.7350 H   0  0  0  0  0  0  0  0  0  0  0  0
   32.2510   28.7260   35.4050 H   0  0  0  0  0  0  0  0  0  0  0  0
   34.0150   28.5960   33.8220 H   0  0  0  0  0  0  0  0  0  0  0  0
   36.3280   28.6840   33.2050 H   0  0  0  0  0  0  0  0  0  0  0  0
   38.0450   28.9840   34.8490 H   0  0  0  0  0  0  0  0  0  0  0  0
   37.4990   29.2740   37.1240 H   0  0  0  0  0  0  0  0  0  0  0  0
   38.1050   28.5280   43.3890 C   0  0  0  0  0  0  0  0  0  0  0  0
   38.1690   27.0920   43.2980 C   0  0  0  0  0  0  0  0  0  0  0  0
   37.3790   26.4550   42.2920 C   0  0  0  0  0  0  0  0  0  0  0  0
   36.6200   27.2050   41.4830 N   0  0  0  0  0  0  0  0  0  0  0  0
   36.5960   28.5780   41.6140 C   0  0  0  0  0  0  0  0  0  0  0  0
   37.3130   29.2130   42.5350 N   0  0  0  0  0  0  0  0  0  0  0  0
   38.7140   28.9760   44.1610 H   0  0  0  0  0  0  0  0  0  0  0  0
   38.7750   26.5020   43.9430 H   0  0  0  0  0  0  0  0  0  0  0  0
   37.3860   24.9890   42.1300 C   0  0  0  0  0  3  0  0  0  0  0  0
   36.5150   24.5370   40.9770 C   0  0  0  0  0  2  0  0  0  0  0  0
   37.3960   23.7280   40.0650 C   0  0  0  0  0  2  0  0  0  0  0  0
   38.5090   23.2490   40.9580 C   0  0  0  0  0  2  0  0  0  0  0  0
   38.7770   24.4440   41.8240 C   0  0  0  0  0  2  0  0  0  0  0  0
  1  4  1  1  0  0  0
  1 29  1  0  0  0  0
  2  5  1  0  0  0  0
  2  1  1  0  0  0  0
  3  7  1  6  0  0  0
  3  2  1  0  0  0  0
  3  1  1  0  0  0  0
  6  2  1  0  0  0  0
  8  9  1  0  0  0  0
  8  3  1  0  0  0  0
  9 18  1  0  0  0  0
 10 19  1  0  0  0  0
 10  9  2  0  0  0  0
 11 10  1  0  0  0  0
 12 11  2  0  0  0  0
 12 17  1  0  0  0  0
 13 12  1  0  0  0  0
 14 13  2  0  0  0  0
 14 15  1  0  0  0  0
 15 16  2  0  0  0  0
 16 17  1  0  0  0  0
 16 24  1  0  0  0  0
 17  8  2  0  0  0  0
 20 11  1  0  0  0  0
 21 13  1  0  0  0  0
 22 14  1  0  0  0  0
 23 15  1  0  0  0  0
 25 31  1  0  0  0  0
 26 25  1  0  0  0  0
 26 32  1  0  0  0  0
 27 26  2  0  0  0  0
 28 29  2  0  0  0  0
 28 27  1  0  0  0  0
 29 30  1  0  0  0  0
 30 25  2  0  0  0  0
 33 27  1  0  0  0  0
 34 33  1  0  0  0  0
 35 36  1  0  0  0  0
 35 34  1  0  0  0  0
 36 37  1  0  0  0  0
 37 33  1  0  0  0  0
M  END
>  <minimizedAffinity>
-6.25417614

$$$$

 OpenBabel03252508273D

 37 41  0  0  1  0  0  0  0  0999 V2000
   34.5720   28.8410   37.3870 C   0  0  1  0  0  0  0  0  0  0  0  0
   33.7790   27.6090   37.2590 C   0  0  0  0  0  0  0  0  0  0  0  0
   33.1410   29.0300   37.5150 C   0  0  2  0  0  0  0  0  0  0  0  0
   35.1720   28.9080   36.4100 H   0  0  0  0  0  0  0  0  0  0  0  0
   33.6690   26.8900   38.0820 H   0  0  0  0  0  0  0  0  0  0  0  0
   33.3980   27.2190   36.2980 H   0  0  0  0  0  0  0  0  0  0  0  0
   32.5660   28.8720   38.4830 H   0  0  0  0  0  0  0  0  0  0  0  0
   32.2680   29.6280   36.5020 C   0  0  0  0  0  0  0  0  0  0  0  0
   32.5270   29.7930   35.1780 C   0  0  0  0  0  0  0  0  0  0  0  0
   31.7290   30.4830   34.2720 C   0  0  0  0  0  0  0  0  0  0  0  0
   30.5550   31.0540   34.7870 C   0  0  0  0  0  0  0  0  0  0  0  0
   30.2670   30.8950   36.1430 C   0  0  0  0  0  0  0  0  0  0  0  0
   29.0690   31.4250   36.5830 C   0  0  0  0  0  0  0  0  0  0  0  0
   28.6990   31.2340   37.9150 C   0  0  0  0  0  0  0  0  0  0  0  0
   29.5130   30.5250   38.7750 C   0  0  0  0  0  0  0  0  0  0  0  0
   30.6930   30.0250   38.2790 C   0  0  0  0  0  0  0  0  0  0  0  0
   31.1080   30.1950   36.9670 C   0  0  0  0  0  0  0  0  0  0  0  0
   33.4510   29.3310   34.8250 H   0  0  0  0  0  0  0  0  0  0  0  0
   32.0110   30.5660   33.2280 H   0  0  0  0  0  0  0  0  0  0  0  0
   29.9390   31.5920   34.0840 H   0  0  0  0  0  0  0  0  0  0  0  0
   28.4430   31.9770   35.8850 H   0  0  0  0  0  0  0  0  0  0  0  0
   27.7320   31.6980   38.1560 H   0  0  0  0  0  0  0  0  0  0  0  0
   29.0640   30.4850   39.7360 H   0  0  0  0  0  0  0  0  0  0  0  0
   31.0860   29.4660   39.0800 H   0  0  0  0  0  0  0  0  0  0  0  0
   36.0800   28.4920   40.7390 C   0  0  0  0  0  0  0  0  0  0  0  0
   37.0370   29.5680   40.7510 C   0  0  0  0  0  0  0  0  0  0  0  0
   37.1380   30.3800   39.5790 C   0  0  0  0  0  0  0  0  0  0  0  0
   36.3510   30.1140   38.5290 N   0  0  0  0  0  0  0  0  0  0  0  0
   35.4500   29.0700   38.5720 C   0  0  0  0  0  0  0  0  0  0  0  0
   35.3230   28.2890   39.6390 N   0  0  0  0  0  0  0  0  0  0  0  0
   36.0320   27.8990   41.6410 H   0  0  0  0  0  0  0  0  0  0  0  0
   37.6590   29.7750   41.5890 H   0  0  0  0  0  0  0  0  0  0  0  0
   38.0920   31.5030   39.5070 C   0  0  0  0  0  3  0  0  0  0  0  0
   37.4630   32.7520   38.9270 C   0  0  0  0  0  2  0  0  0  0  0  0
   37.6590   33.8430   39.9430 C   0  0  0  0  0  2  0  0  0  0  0  0
   38.8470   33.3880   40.7470 C   0  0  0  0  0  2  0  0  0  0  0  0
   38.6120   31.9120   40.8810 C   0  0  0  0  0  2  0  0  0  0  0  0
  1  4  1  6  0  0  0
  1  3  1  0  0  0  0
  1 29  1  0  0  0  0
  2  1  1  0  0  0  0
  2  3  1  0  0  0  0
  2  5  1  0  0  0  0
  3  7  1  1  0  0  0
  6  2  1  0  0  0  0
  8 17  1  0  0  0  0
  8  3  1  0  0  0  0
  9  8  2  0  0  0  0
 10 11  2  0  0  0  0
 10  9  1  0  0  0  0
 11 12  1  0  0  0  0
 12 13  2  0  0  0  0
 12 17  1  0  0  0  0
 13 14  1  0  0  0  0
 14 22  1  0  0  0  0
 14 15  2  0  0  0  0
 15 23  1  0  0  0  0
 16 15  1  0  0  0  0
 16 24  1  0  0  0  0
 17 16  2  0  0  0  0
 18  9  1  0  0  0  0
 19 10  1  0  0  0  0
 20 11  1  0  0  0  0
 21 13  1  0  0  0  0
 25 26  1  0  0  0  0
 25 31  1  0  0  0  0
 26 32  1  0  0  0  0
 27 26  2  0  0  0  0
 28 29  2  0  0  0  0
 28 27  1  0  0  0  0
 29 30  1  0  0  0  0
 30 25  2  0  0  0  0
 33 27  1  0  0  0  0
 33 37  1  0  0  0  0
 34 33  1  0  0  0  0
 34 35  1  0  0  0  0
 35 36  1  0  0  0  0
 36 37  1  0  0  0  0
M  END
>  <minimizedAffinity>
-6.19578171

$$$$

 OpenBabel03252508273D

 37 41  0  0  1  0  0  0  0  0999 V2000
   36.3770   26.7980   37.8100 C   0  0  1  0  0  0  0  0  0  0  0  0
   35.1100   27.0340   37.1010 C   0  0  0  0  0  0  0  0  0  0  0  0
   35.7870   28.0990   38.0510 C   0  0  2  0  0  0  0  0  0  0  0  0
   37.1350   26.5500   36.9840 H   0  0  0  0  0  0  0  0  0  0  0  0
   34.1520   26.6310   37.4560 H   0  0  0  0  0  0  0  0  0  0  0  0
   35.0440   27.4610   36.0850 H   0  0  0  0  0  0  0  0  0  0  0  0
   34.9740   28.2920   38.8230 H   0  0  0  0  0  0  0  0  0  0  0  0
   36.2660   29.3670   37.4960 C   0  0  0  0  0  0  0  0  0  0  0  0
   36.4920   29.6670   36.1890 C   0  0  0  0  0  0  0  0  0  0  0  0
   37.0720   30.8360   35.7110 C   0  0  0  0  0  0  0  0  0  0  0  0
   37.4520   31.7820   36.6750 C   0  0  0  0  0  0  0  0  0  0  0  0
   37.2270   31.4980   38.0230 C   0  0  0  0  0  0  0  0  0  0  0  0
   37.5640   32.4880   38.9250 C   0  0  0  0  0  0  0  0  0  0  0  0
   37.2960   32.2830   40.2790 C   0  0  0  0  0  0  0  0  0  0  0  0
   36.7010   31.1140   40.7080 C   0  0  0  0  0  0  0  0  0  0  0  0
   36.3910   30.1660   39.7630 C   0  0  0  0  0  0  0  0  0  0  0  0
   36.6460   30.3190   38.4090 C   0  0  0  0  0  0  0  0  0  0  0  0
   36.1800   28.9000   35.4770 H   0  0  0  0  0  0  0  0  0  0  0  0
   37.2150   30.9950   34.6480 H   0  0  0  0  0  0  0  0  0  0  0  0
   37.9050   32.6870   36.3030 H   0  0  0  0  0  0  0  0  0  0  0  0
   38.0300   33.4030   38.5630 H   0  0  0  0  0  0  0  0  0  0  0  0
   37.6060   33.1320   40.9050 H   0  0  0  0  0  0  0  0  0  0  0  0
   36.5760   31.1460   41.7620 H   0  0  0  0  0  0  0  0  0  0  0  0
   35.8820   29.4230   40.3090 H   0  0  0  0  0  0  0  0  0  0  0  0
   36.2070   23.6280   39.6960 C   0  0  0  0  0  0  0  0  0  0  0  0
   36.5610   24.0510   41.0260 C   0  0  0  0  0  0  0  0  0  0  0  0
   36.8620   25.4340   41.2250 C   0  0  0  0  0  0  0  0  0  0  0  0
   36.8060   26.2730   40.1830 N   0  0  0  0  0  0  0  0  0  0  0  0
   36.4600   25.8140   38.9290 C   0  0  0  0  0  0  0  0  0  0  0  0
   36.1730   24.5370   38.6980 N   0  0  0  0  0  0  0  0  0  0  0  0
   35.9860   22.5770   39.5830 H   0  0  0  0  0  0  0  0  0  0  0  0
   36.6040   23.3800   41.8510 H   0  0  0  0  0  0  0  0  0  0  0  0
   37.2340   25.9520   42.5560 C   0  0  0  0  0  3  0  0  0  0  0  0
   38.7350   26.0120   42.7460 C   0  0  0  0  0  2  0  0  0  0  0  0
   39.0650   27.4340   43.1070 C   0  0  0  0  0  2  0  0  0  0  0  0
   37.7830   27.9750   43.6800 C   0  0  0  0  0  2  0  0  0  0  0  0
   36.7400   27.3760   42.7840 C   0  0  0  0  0  2  0  0  0  0  0  0
  1  4  1  6  0  0  0
  1  3  1  0  0  0  0
  1 29  1  0  0  0  0
  2  5  1  0  0  0  0
  2  1  1  0  0  0  0
  2  3  1  0  0  0  0
  3  7  1  1  0  0  0
  6  2  1  0  0  0  0
  8  3  1  0  0  0  0
  8 17  1  0  0  0  0
  9  8  2  0  0  0  0
 10  9  1  0  0  0  0
 10 11  2  0  0  0  0
 11 12  1  0  0  0  0
 12 17  2  0  0  0  0
 12 13  1  0  0  0  0
 13 14  2  0  0  0  0
 14 15  1  0  0  0  0
 14 22  1  0  0  0  0
 15 23  1  0  0  0  0
 16 24  1  0  0  0  0
 16 15  2  0  0  0  0
 17 16  1  0  0  0  0
 18  9  1  0  0  0  0
 19 10  1  0  0  0  0
 20 11  1  0  0  0  0
 21 13  1  0  0  0  0
 25 26  1  0  0  0  0
 26 27  2  0  0  0  0
 26 32  1  0  0  0  0
 27 33  1  0  0  0  0
 28 27  1  0  0  0  0
 29 28  2  0  0  0  0
 30 29  1  0  0  0  0
 30 25  2  0  0  0  0
 31 25  1  0  0  0  0
 33 34  1  0  0  0  0
 33 37  1  0  0  0  0
 34 35  1  0  0  0  0
 35 36  1  0  0  0  0
 37 36  1  0  0  0  0
M  END
>  <minimizedAffinity>
-6.15157747

$$$$

 OpenBabel03252508273D

 37 41  0  0  1  0  0  0  0  0999 V2000
   39.5510   27.8120   42.3190 C   0  0  1  0  0  0  0  0  0  0  0  0
   38.8950   27.4450   43.5830 C   0  0  0  0  0  0  0  0  0  0  0  0
   38.1170   27.6240   42.2200 C   0  0  2  0  0  0  0  0  0  0  0  0
   40.3450   26.9990   42.1520 H   0  0  0  0  0  0  0  0  0  0  0  0
   38.6570   28.1830   44.3600 H   0  0  0  0  0  0  0  0  0  0  0  0
   38.7630   26.4040   43.9280 H   0  0  0  0  0  0  0  0  0  0  0  0
   37.3550   28.4290   42.4760 H   0  0  0  0  0  0  0  0  0  0  0  0
   37.4490   26.4740   41.6080 C   0  0  0  0  0  0  0  0  0  0  0  0
   37.3670   25.2070   42.0940 C   0  0  0  0  0  0  0  0  0  0  0  0
   36.8380   24.1100   41.4240 C   0  0  0  0  0  0  0  0  0  0  0  0
   36.3510   24.3480   40.1290 C   0  0  0  0  0  0  0  0  0  0  0  0
   36.4220   25.6410   39.6090 C   0  0  0  0  0  0  0  0  0  0  0  0
   35.8720   25.8320   38.3570 C   0  0  0  0  0  0  0  0  0  0  0  0
   35.8540   27.1190   37.8190 C   0  0  0  0  0  0  0  0  0  0  0  0
   36.3720   28.1840   38.5280 C   0  0  0  0  0  0  0  0  0  0  0  0
   36.9070   27.9310   39.7690 C   0  0  0  0  0  0  0  0  0  0  0  0
   36.9570   26.6690   40.3410 C   0  0  0  0  0  0  0  0  0  0  0  0
   37.7590   25.0730   43.1040 H   0  0  0  0  0  0  0  0  0  0  0  0
   36.8110   23.1310   41.8880 H   0  0  0  0  0  0  0  0  0  0  0  0
   35.9450   23.4960   39.6090 H   0  0  0  0  0  0  0  0  0  0  0  0
   35.4660   24.9770   37.8180 H   0  0  0  0  0  0  0  0  0  0  0  0
   35.3970   27.1550   36.8200 H   0  0  0  0  0  0  0  0  0  0  0  0
   36.2650   29.0740   37.9610 H   0  0  0  0  0  0  0  0  0  0  0  0
   37.1520   28.8860   40.1370 H   0  0  0  0  0  0  0  0  0  0  0  0
   41.6780   30.8020   42.7290 C   0  0  0  0  0  0  0  0  0  0  0  0
   41.1110   31.7080   41.7650 C   0  0  0  0  0  0  0  0  0  0  0  0
   40.0050   31.2440   40.9870 C   0  0  0  0  0  0  0  0  0  0  0  0
   39.5450   30.0010   41.1810 N   0  0  0  0  0  0  0  0  0  0  0  0
   40.1260   29.1740   42.1190 C   0  0  0  0  0  0  0  0  0  0  0  0
   41.1560   29.5630   42.8630 N   0  0  0  0  0  0  0  0  0  0  0  0
   42.5120   31.1850   43.2980 H   0  0  0  0  0  0  0  0  0  0  0  0
   41.4800   32.6950   41.6160 H   0  0  0  0  0  0  0  0  0  0  0  0
   39.3640   32.1080   39.9780 C   0  0  0  0  0  3  0  0  0  0  0  0
   38.3380   31.3590   39.1530 C   0  0  0  0  0  2  0  0  0  0  0  0
   37.0440   32.1120   39.2920 C   0  0  0  0  0  2  0  0  0  0  0  0
   37.4680   33.5090   39.6590 C   0  0  0  0  0  2  0  0  0  0  0  0
   38.6060   33.2720   40.6060 C   0  0  0  0  0  2  0  0  0  0  0  0
  1  4  1  6  0  0  0
  1  2  1  0  0  0  0
  2  6  1  0  0  0  0
  2  5  1  0  0  0  0
  3  1  1  0  0  0  0
  3  7  1  6  0  0  0
  3  2  1  0  0  0  0
  8  9  1  0  0  0  0
  8  3  1  0  0  0  0
  9 18  1  0  0  0  0
 10 19  1  0  0  0  0
 10  9  2  0  0  0  0
 11 10  1  0  0  0  0
 12 11  2  0  0  0  0
 12 17  1  0  0  0  0
 13 12  1  0  0  0  0
 14 13  2  0  0  0  0
 14 15  1  0  0  0  0
 15 16  2  0  0  0  0
 16 24  1  0  0  0  0
 16 17  1  0  0  0  0
 17  8  2  0  0  0  0
 20 11  1  0  0  0  0
 21 13  1  0  0  0  0
 22 14  1  0  0  0  0
 23 15  1  0  0  0  0
 25 30  1  0  0  0  0
 25 31  1  0  0  0  0
 26 25  2  0  0  0  0
 27 28  2  0  0  0  0
 27 26  1  0  0  0  0
 28 29  1  0  0  0  0
 29  1  1  0  0  0  0
 29 30  2  0  0  0  0
 32 26  1  0  0  0  0
 33 37  1  0  0  0  0
 33 27  1  0  0  0  0
 34 35  1  0  0  0  0
 34 33  1  0  0  0  0
 35 36  1  0  0  0  0
 36 37  1  0  0  0  0
M  END
>  <minimizedAffinity>
-6.01126957

$$$$
