
 OpenBabel03252507583D

 23 25  0  0  1  0  0  0  0  0999 V2000
   46.4360   32.6390   45.6900 C   0  0  1  0  0  0  0  0  0  0  0  0
   47.1160   32.9610   46.9840 C   0  0  0  0  0  0  0  0  0  0  0  0
   45.6400   32.7600   46.9510 C   0  0  2  0  0  0  0  0  0  0  0  0
   46.6420   31.6480   45.2440 H   0  0  0  0  0  0  0  0  0  0  0  0
   47.7630   32.1590   47.3890 H   0  0  0  0  0  0  0  0  0  0  0  0
   47.5810   33.9530   47.0100 H   0  0  0  0  0  0  0  0  0  0  0  0
   45.0430   33.6940   47.1270 H   0  0  0  0  0  0  0  0  0  0  0  0
   46.7320   34.8700   42.7900 C   0  0  0  0  0  0  0  0  0  0  0  0
   45.6430   35.7560   42.9550 C   0  0  0  0  0  0  0  0  0  0  0  0
   44.7970   35.5750   44.0780 C   0  0  0  0  0  0  0  0  0  0  0  0
   45.0950   34.5520   44.9250 N   0  0  0  0  0  0  0  0  0  0  0  0
   46.1640   33.7340   44.7010 C   0  0  0  0  0  0  0  0  0  0  0  0
   46.9680   33.8850   43.6590 N   0  0  0  0  0  0  0  0  0  0  0  0
   45.4080   36.5690   42.2800 H   0  0  0  0  0  0  0  0  0  0  0  0
   43.9490   36.2210   44.2580 H   0  0  0  0  0  0  0  0  0  0  0  0
   47.5140   35.1510   41.6360 C   0  0  0  0  0  0  0  0  0  0  0  0
   48.6210   35.7740   41.6360 O   0  0  0  0  0  0  0  0  0  0  0  0
   47.3150   34.8940   40.5850 H   0  0  0  0  0  0  0  0  0  0  0  0
   45.1330   31.5700   47.6830 C   0  0  0  0  0  3  0  0  0  0  0  0
   45.4630   31.5790   49.1550 C   0  0  0  0  0  2  0  0  0  0  0  0
   45.0650   30.1550   49.5560 C   0  0  0  0  0  2  0  0  0  0  0  0
   44.9590   29.3540   48.2840 C   0  0  0  0  0  2  0  0  0  0  0  0
   45.6610   30.2450   47.2510 C   0  0  0  0  0  2  0  0  0  0  0  0
  1  4  1  6  0  0  0
  1  3  1  0  0  0  0
  1  2  1  0  0  0  0
  2  6  1  0  0  0  0
  2  5  1  0  0  0  0
  3  2  1  0  0  0  0
  3  7  1  1  0  0  0
  3 19  1  0  0  0  0
  8  9  2  0  0  0  0
  8 13  1  0  0  0  0
  9 10  1  0  0  0  0
 10 15  1  0  0  0  0
 10 11  2  0  0  0  0
 12 11  1  0  0  0  0
 12  1  1  0  0  0  0
 13 12  2  0  0  0  0
 14  9  1  0  0  0  0
 16  8  1  0  0  0  0
 17 16  2  0  0  0  0
 18 16  1  0  0  0  0
 19 20  1  0  0  0  0
 20 21  1  0  0  0  0
 22 21  1  0  0  0  0
 23 19  1  0  0  0  0
 23 22  1  0  0  0  0
M  END
>  <minimizedAffinity>
-4.53358698

>  <minimizedRMSD>
0.908311546

$$$$
