
 OpenBabel03252508553D

 39 42  0  0  1  0  0  0  0  0999 V2000
   43.3070   34.5030   40.7710 C   0  0  0  0  0  0  0  0  0  0  0  0
   43.2810   35.7190   40.4300 O   0  0  0  0  0  0  0  0  0  0  0  0
   41.9300   34.1250   40.4800 N   0  0  0  0  0  0  0  0  0  0  0  0
   41.5420   34.3080   39.0860 C   0  0  0  0  0  0  0  0  0  0  0  0
   40.7730   35.6210   39.0570 C   0  0  0  0  0  0  0  0  0  0  0  0
   39.9990   35.7090   40.3740 C   0  0  0  0  0  0  0  0  0  0  0  0
   39.6270   34.3300   40.8830 C   0  0  0  0  0  0  0  0  0  0  0  0
   40.9060   33.6040   41.3550 C   0  0  1  0  0  0  0  0  0  0  0  0
   42.4030   34.3030   38.4020 H   0  0  0  0  0  0  0  0  0  0  0  0
   40.8520   33.4640   38.7990 H   0  0  0  0  0  0  0  0  0  0  0  0
   40.0900   35.6840   38.1930 H   0  0  0  0  0  0  0  0  0  0  0  0
   41.5100   36.4590   39.0310 H   0  0  0  0  0  0  0  0  0  0  0  0
   39.0670   36.2350   40.1410 H   0  0  0  0  0  0  0  0  0  0  0  0
   40.5360   36.3110   41.1360 H   0  0  0  0  0  0  0  0  0  0  0  0
   39.1370   33.7970   40.0550 H   0  0  0  0  0  0  0  0  0  0  0  0
   38.9650   34.5180   41.7630 H   0  0  0  0  0  0  0  0  0  0  0  0
   41.0640   33.8980   42.4010 H   0  0  0  0  0  0  0  0  0  0  0  0
   40.6110   32.1430   41.1820 C   0  0  0  0  0  3  0  0  0  0  0  0
   40.6760   31.3150   42.4130 C   0  0  0  0  0  2  0  0  0  0  0  0
   39.8540   30.0800   42.0190 C   0  0  0  0  0  2  0  0  0  0  0  0
   38.6260   30.7690   41.4480 C   0  0  0  0  0  2  0  0  0  0  0  0
   39.1290   32.0540   40.8190 C   0  0  0  0  0  2  0  0  0  0  0  0
   44.3580   33.7750   41.2710 O   0  0  0  0  0  0  0  0  0  0  0  0
   45.6920   34.0660   41.1160 C   0  0  0  0  0  0  0  0  0  0  0  0
   46.3520   34.6920   42.1920 C   0  0  0  0  0  0  0  0  0  0  0  0
   47.7080   34.9760   42.0040 C   0  0  0  0  0  0  0  0  0  0  0  0
   48.3080   34.6470   40.8290 N   0  0  0  0  0  0  0  0  0  0  0  0
   47.6340   34.0550   39.8430 C   0  0  0  0  0  0  0  0  0  0  0  0
   46.3250   33.7640   39.9860 N   0  0  0  0  0  0  0  0  0  0  0  0
   48.2200   35.4600   42.8370 H   0  0  0  0  0  0  0  0  0  0  0  0
   48.0990   33.7870   38.9000 H   0  0  0  0  0  0  0  0  0  0  0  0
   45.6330   35.0020   43.3990 C   0  0  0  0  0  0  0  0  0  0  0  0
   45.0240   36.2380   43.6230 C   0  0  0  0  0  0  0  0  0  0  0  0
   44.4610   36.1080   44.8730 C   0  0  0  0  0  0  0  0  0  0  0  0
   44.7050   34.8860   45.3760 N   0  0  0  0  0  0  0  0  0  0  0  0
   45.4080   34.2480   44.4720 N   0  0  0  0  0  0  0  0  0  0  0  0
   44.9980   37.0970   42.9730 H   0  0  0  0  0  0  0  0  0  0  0  0
   43.9020   36.9220   45.3410 H   0  0  0  0  0  0  0  0  0  0  0  0
   44.3520   34.5960   46.3300 H   0  0  0  0  0  0  0  0  0  0  0  0
  1 23  1  0  0  0  0
  2  1  2  0  0  0  0
  3  1  1  0  0  0  0
  3  8  1  0  0  0  0
  4  3  1  0  0  0  0
  5  4  1  0  0  0  0
  5  6  1  0  0  0  0
  6  7  1  0  0  0  0
  6 14  1  0  0  0  0
  7  8  1  0  0  0  0
  7 16  1  0  0  0  0
  8 17  1  1  0  0  0
  9  4  1  0  0  0  0
 10  4  1  0  0  0  0
 11  5  1  0  0  0  0
 12  5  1  0  0  0  0
 13  6  1  0  0  0  0
 15  7  1  0  0  0  0
 18  8  1  0  0  0  0
 18 19  1  0  0  0  0
 20 19  1  0  0  0  0
 21 20  1  0  0  0  0
 22 18  1  0  0  0  0
 22 21  1  0  0  0  0
 24 23  1  0  0  0  0
 24 25  1  0  0  0  0
 25 32  1  0  0  0  0
 26 25  2  0  0  0  0
 26 30  1  0  0  0  0
 27 26  1  0  0  0  0
 28 29  1  0  0  0  0
 28 27  2  0  0  0  0
 29 24  2  0  0  0  0
 31 28  1  0  0  0  0
 32 33  1  0  0  0  0
 32 36  2  0  0  0  0
 33 34  2  0  0  0  0
 34 38  1  0  0  0  0
 34 35  1  0  0  0  0
 35 39  1  0  0  0  0
 36 35  1  0  0  0  0
 37 33  1  0  0  0  0
M  END
>  <minimizedAffinity>
-6.78661537

>  <minimizedRMSD>
1.1750139

$$$$
