
     RDKit          3D

 24 25  0  0  0  0  0  0  0  0999 V2000
   45.0032   35.4828   44.1882 C   0  0  0  0  0  0  0  0  0  0  0  0
   45.9913   34.9240   43.3300 C   0  0  0  0  0  0  0  0  0  0  0  0
   46.7082   33.8355   43.8433 C   0  0  0  0  0  0  0  0  0  0  0  0
   46.4403   33.3815   45.0829 N   0  0  0  0  0  0  0  0  0  0  0  0
   45.4913   33.9468   45.8596 C   0  0  0  0  0  0  0  0  0  0  0  0
   44.7783   34.9853   45.4226 N   0  0  0  0  0  0  0  0  0  0  0  0
   44.2853   36.5470   43.7173 O   0  0  0  0  0  0  0  0  0  0  0  0
   47.4429   33.4201   43.2049 H   0  0  0  0  0  0  0  0  0  0  0  0
   45.2589   33.5981   46.8602 H   0  0  0  0  0  0  0  0  0  0  0  0
   44.6988   37.4883   43.7473 H   0  0  0  0  0  0  0  0  0  0  0  0
   46.1764   35.5301   41.9869 C   0  0  0  0  0  0  0  0  0  0  0  0
   45.5046   36.8827   41.9260 C   0  0  0  0  0  0  0  0  0  0  0  0
   44.2362   36.6940   41.1298 C   0  0  0  0  0  0  0  0  0  0  0  0
   44.3275   35.3612   40.4282 C   0  0  0  0  0  0  0  0  0  0  0  0
   45.5573   34.6563   40.9498 C   0  0  0  0  0  0  0  0  0  0  0  0
   47.2774   35.6565   41.8329 H   0  0  0  0  0  0  0  0  0  0  0  0
   46.1505   37.6769   41.4818 H   0  0  0  0  0  0  0  0  0  0  0  0
   45.2283   37.2178   42.9433 H   0  0  0  0  0  0  0  0  0  0  0  0
   44.0752   37.5495   40.4340 H   0  0  0  0  0  0  0  0  0  0  0  0
   43.3430   36.6874   41.8114 H   0  0  0  0  0  0  0  0  0  0  0  0
   43.4335   34.7312   40.6157 H   0  0  0  0  0  0  0  0  0  0  0  0
   44.4411   35.5004   39.3136 H   0  0  0  0  0  0  0  0  0  0  0  0
   45.3283   33.6277   41.2931 H   0  0  0  0  0  0  0  0  0  0  0  0
   46.3220   34.5316   40.1283 H   0  0  0  0  0  0  0  0  0  0  0  0
  1  6  2  0
  2  3  2  0
  2  1  1  0
  3  4  1  0
  4  5  2  0
  6  5  1  0
  7  1  1  0
  3  8  1  0
  5  9  1  0
  7 10  1  0
 11 12  1  0
 12 13  1  0
 13 14  1  0
 14 15  1  0
 15 11  1  0
 11 16  1  0
 12 17  1  0
 12 18  1  0
 13 19  1  0
 13 20  1  0
 14 21  1  0
 14 22  1  0
 15 23  1  0
 15 24  1  0
  2 11  1  0
M  ISO  3   8  14   9  14  10   3
M  END
>  <DihAtoms>  (1) 
2,1,10,11

>  <DihDeg>  (1) 
89.99152022864307

$$$$
