REMARK  Name = 
REMARK  3 active torsions:
REMARK  status: ('A' for Active; 'I' for Inactive)
REMARK    1  A    between atoms: C_2  and  C_12
REMARK    2  A    between atoms: C_10  and  O_16
REMARK    3  A    between atoms: O_16  and  C_24
REMARK                            x       y       z     vdW  Elec       q    Type
REMARK                         _______ _______ _______ _____ _____    ______ ____
ROOT
ATOM      1  C   UNL     1      48.176  35.061  41.935  0.00  0.00    +0.000 A 
ATOM      2  C   UNL     1      47.058  34.262  42.093  0.00  0.00    +0.000 A 
ATOM      3  C   UNL     1      46.506  33.668  40.986  0.00  0.00    +0.000 A 
ATOM      4  C   UNL     1      47.033  33.844  39.715  0.00  0.00    +0.000 A 
ATOM      5  N   UNL     1      46.651  33.359  38.508  0.00  0.00    +0.000 N 
ATOM      6  C   UNL     1      47.544  33.861  37.576  0.00  0.00    +0.000 A 
ATOM      7  N   UNL     1      48.443  34.636  38.244  0.00  0.00    +0.000 NA
ATOM      8  C   UNL     1      48.145  34.637  39.552  0.00  0.00    +0.000 A 
ATOM      9  C   UNL     1      48.711  35.240  40.655  0.00  0.00    +0.000 A 
ATOM     10  H   UNL     1      48.703  35.580  42.710  0.00  0.00    +0.000 HD
ATOM     11  H   UNL     1      45.634  33.058  41.181  0.00  0.00    +0.000 HD
ATOM     12  H   UNL     1      45.836  32.737  38.386  0.00  0.00    +0.000 HD
ATOM     13  H   UNL     1      47.430  33.601  36.530  0.00  0.00    +0.000 HD
ATOM     14  H   UNL     1      49.583  35.854  40.475  0.00  0.00    +0.000 HD
ENDROOT
BRANCH   2  17
ATOM     15  C   UNL     1      45.116  34.620  45.309  0.00  0.00    +0.000 A 
ATOM     16  C   UNL     1      45.527  34.870  43.977  0.00  0.00    +0.000 A 
ATOM     17  C   UNL     1      46.541  34.109  43.446  0.00  0.00    +0.000 A 
ATOM     18  N   UNL     1      47.105  33.154  44.221  0.00  0.00    +0.000 NA
ATOM     19  C   UNL     1      46.708  32.918  45.498  0.00  0.00    +0.000 A 
ATOM     20  N   UNL     1      45.730  33.643  46.024  0.00  0.00    +0.000 NA
ATOM     21  H   UNL     1      45.079  35.629  43.361  0.00  0.00    +0.000 HD
ATOM     22  H   UNL     1      47.172  32.150  46.099  0.00  0.00    +0.000 HD
BRANCH  15  23
ATOM     23  O   UNL     1      44.092  35.390  45.839  0.00  0.00    +0.000 OA
BRANCH  23  24
ATOM     24  C   UNL     1      43.693  35.130  47.171  0.00  0.00    +0.000 C 
ATOM     25  C   UNL     1      44.774  34.437  47.965  0.00  0.00    +0.000 C 
ATOM     26  C   UNL     1      44.523  32.933  47.808  0.00  0.00    +0.000 C 
ATOM     27  C   UNL     1      43.450  32.855  46.730  0.00  0.00    +0.000 C 
ATOM     28  C   UNL     1      42.597  34.059  47.093  0.00  0.00    +0.000 C 
ENDBRANCH  23  24
ENDBRANCH  15  23
ENDBRANCH   2  17
TORSDOF 3
