
 OpenBabel03252507533D

 34 37  0  0  1  0  0  0  0  0999 V2000
   37.2810   30.3470   40.2160 C   0  0  2  0  0  0  0  0  0  0  0  0
   35.8820   30.3810   40.7760 C   0  0  0  0  0  0  0  0  0  0  0  0
   35.6020   28.8780   40.7940 C   0  0  0  0  0  0  0  0  0  0  0  0
   36.9430   28.2380   41.1090 C   0  0  1  0  0  0  0  0  0  0  0  0
   37.9180   29.3530   41.1890 C   0  0  0  0  0  0  0  0  0  0  0  0
   37.3000   29.9580   39.1980 H   0  0  0  0  0  0  0  0  0  0  0  0
   35.1660   30.9180   40.1250 H   0  0  0  0  0  0  0  0  0  0  0  0
   35.9250   30.8150   41.7790 H   0  0  0  0  0  0  0  0  0  0  0  0
   34.8200   28.6410   41.5420 H   0  0  0  0  0  0  0  0  0  0  0  0
   35.3300   28.6100   39.7530 H   0  0  0  0  0  0  0  0  0  0  0  0
   37.2650   27.5700   40.2840 H   0  0  0  0  0  0  0  0  0  0  0  0
   37.8880   29.9920   42.0850 H   0  0  0  0  0  0  0  0  0  0  0  0
   38.8990   29.1760   40.7440 H   0  0  0  0  0  0  0  0  0  0  0  0
   38.0980   34.0230   39.9710 C   0  0  0  0  0  0  0  0  0  0  0  0
   37.3420   32.8420   39.8940 C   0  0  0  0  0  0  0  0  0  0  0  0
   37.9800   31.6590   40.2750 C   0  0  0  0  0  0  0  0  0  0  0  0
   39.3040   31.6800   40.7060 N   0  0  0  0  0  0  0  0  0  0  0  0
   39.9730   32.8570   40.7550 C   0  0  0  0  0  0  0  0  0  0  0  0
   39.3820   34.0090   40.3930 N   0  0  0  0  0  0  0  0  0  0  0  0
   37.6350   34.9580   39.6830 H   0  0  0  0  0  0  0  0  0  0  0  0
   36.3190   32.8140   39.5620 H   0  0  0  0  0  0  0  0  0  0  0  0
   40.9890   32.7280   41.1070 H   0  0  0  0  0  0  0  0  0  0  0  0
   36.9740   27.5280   42.4090 C   0  0  2  0  0  0  0  0  0  0  0  0
   37.5160   28.2610   43.5750 C   0  0  0  0  0  0  0  0  0  0  0  0
   38.0920   26.9550   43.0820 C   0  0  2  0  0  0  0  0  0  0  0  0
   35.9430   27.0880   42.5890 H   0  0  0  0  0  0  0  0  0  0  0  0
   36.8770   28.2790   44.5080 H   0  0  0  0  0  0  0  0  0  0  0  0
   38.3290   28.9390   43.6950 H   0  0  0  0  0  0  0  0  0  0  0  0
   37.7990   26.1090   43.7960 H   0  0  0  0  0  0  0  0  0  0  0  0
   39.4850   26.7440   42.6750 C   0  0  0  0  0  3  0  0  0  0  0  0
   39.5820   25.9560   41.4080 C   0  0  0  0  0  2  0  0  0  0  0  0
   39.0320   24.6030   41.8830 C   0  0  0  0  0  2  0  0  0  0  0  0
   39.5630   24.4730   43.3040 C   0  0  0  0  0  2  0  0  0  0  0  0
   40.1930   25.8060   43.6430 C   0  0  0  0  0  2  0  0  0  0  0  0
  1  6  1  6  0  0  0
  1 16  1  0  0  0  0
  1  2  1  0  0  0  0
  1  5  1  0  0  0  0
  2  3  1  0  0  0  0
  2  8  1  0  0  0  0
  3  4  1  0  0  0  0
  3  9  1  0  0  0  0
  4 11  1  6  0  0  0
  4  5  1  0  0  0  0
  4 23  1  0  0  0  0
  5 12  1  0  0  0  0
  7  2  1  0  0  0  0
 10  3  1  0  0  0  0
 13  5  1  0  0  0  0
 14 19  1  0  0  0  0
 15 14  2  0  0  0  0
 15 16  1  0  0  0  0
 16 17  2  0  0  0  0
 17 18  1  0  0  0  0
 18 22  1  0  0  0  0
 19 18  2  0  0  0  0
 20 14  1  0  0  0  0
 21 15  1  0  0  0  0
 23 26  1  1  0  0  0
 23 25  1  0  0  0  0
 23 24  1  0  0  0  0
 24 28  1  0  0  0  0
 24 27  1  0  0  0  0
 25 24  1  0  0  0  0
 25 29  1  1  0  0  0
 30 25  1  0  0  0  0
 30 34  1  0  0  0  0
 31 32  1  0  0  0  0
 31 30  1  0  0  0  0
 32 33  1  0  0  0  0
 33 34  1  0  0  0  0
M  END
>  <minimizedAffinity>
-5.7192049

$$$$

 OpenBabel03252507533D

 34 37  0  0  1  0  0  0  0  0999 V2000
   37.7150   26.7280   41.8540 C   0  0  2  0  0  0  0  0  0  0  0  0
   36.8480   26.9820   43.0600 C   0  0  0  0  0  0  0  0  0  0  0  0
   37.2460   28.4320   43.3330 C   0  0  0  0  0  0  0  0  0  0  0  0
   37.4930   29.0310   41.9580 C   0  0  1  0  0  0  0  0  0  0  0  0
   37.3010   27.9220   40.9910 C   0  0  0  0  0  0  0  0  0  0  0  0
   38.7760   26.7770   42.1000 H   0  0  0  0  0  0  0  0  0  0  0  0
   37.0950   26.3280   43.9190 H   0  0  0  0  0  0  0  0  0  0  0  0
   35.8020   26.8800   42.7580 H   0  0  0  0  0  0  0  0  0  0  0  0
   36.4470   28.9520   43.8950 H   0  0  0  0  0  0  0  0  0  0  0  0
   38.2170   28.3840   43.8650 H   0  0  0  0  0  0  0  0  0  0  0  0
   38.5420   29.3800   41.8620 H   0  0  0  0  0  0  0  0  0  0  0  0
   36.2690   27.5980   40.7860 H   0  0  0  0  0  0  0  0  0  0  0  0
   38.0060   27.8730   40.1590 H   0  0  0  0  0  0  0  0  0  0  0  0
   37.6310   23.0940   40.8420 C   0  0  0  0  0  0  0  0  0  0  0  0
   37.9700   24.2390   41.5800 C   0  0  0  0  0  0  0  0  0  0  0  0
   37.4100   25.4490   41.1580 C   0  0  0  0  0  0  0  0  0  0  0  0
   36.5610   25.4860   40.0560 N   0  0  0  0  0  0  0  0  0  0  0  0
   36.2780   24.3390   39.3900 C   0  0  0  0  0  0  0  0  0  0  0  0
   36.8030   23.1640   39.7750 N   0  0  0  0  0  0  0  0  0  0  0  0
   38.0470   22.1390   41.1410 H   0  0  0  0  0  0  0  0  0  0  0  0
   38.6250   24.2230   42.4330 H   0  0  0  0  0  0  0  0  0  0  0  0
   35.6080   24.5120   38.5580 H   0  0  0  0  0  0  0  0  0  0  0  0
   36.5410   30.1050   41.5950 C   0  0  2  0  0  0  0  0  0  0  0  0
   35.6140   29.8450   40.4710 C   0  0  0  0  0  0  0  0  0  0  0  0
   36.5890   30.9980   40.4850 C   0  0  2  0  0  0  0  0  0  0  0  0
   36.0190   30.4420   42.5460 H   0  0  0  0  0  0  0  0  0  0  0  0
   34.5150   30.0340   40.6630 H   0  0  0  0  0  0  0  0  0  0  0  0
   35.7240   29.3490   39.5350 H   0  0  0  0  0  0  0  0  0  0  0  0
   36.0280   31.9780   40.6740 H   0  0  0  0  0  0  0  0  0  0  0  0
   37.6150   31.2520   39.4680 C   0  0  0  0  0  3  0  0  0  0  0  0
   38.9160   31.6630   40.0800 C   0  0  0  0  0  2  0  0  0  0  0  0
   38.5190   33.0200   40.6810 C   0  0  0  0  0  2  0  0  0  0  0  0
   37.5490   33.6000   39.6610 C   0  0  0  0  0  2  0  0  0  0  0  0
   37.2770   32.4970   38.6610 C   0  0  0  0  0  2  0  0  0  0  0  0
  1  6  1  1  0  0  0
  1  2  1  0  0  0  0
  2  3  1  0  0  0  0
  2  7  1  0  0  0  0
  3 10  1  0  0  0  0
  3  9  1  0  0  0  0
  4 11  1  6  0  0  0
  4  3  1  0  0  0  0
  5  1  1  0  0  0  0
  5  4  1  0  0  0  0
  8  2  1  0  0  0  0
 12  5  1  0  0  0  0
 13  5  1  0  0  0  0
 14 20  1  0  0  0  0
 14 15  1  0  0  0  0
 15 21  1  0  0  0  0
 16 15  2  0  0  0  0
 16  1  1  0  0  0  0
 17 16  1  0  0  0  0
 18 19  1  0  0  0  0
 18 17  2  0  0  0  0
 19 14  2  0  0  0  0
 22 18  1  0  0  0  0
 23  4  1  0  0  0  0
 23 26  1  1  0  0  0
 24 25  1  0  0  0  0
 24 27  1  0  0  0  0
 24 23  1  0  0  0  0
 25 29  1  1  0  0  0
 25 23  1  0  0  0  0
 28 24  1  0  0  0  0
 30 31  1  0  0  0  0
 30 25  1  0  0  0  0
 31 32  1  0  0  0  0
 33 32  1  0  0  0  0
 34 30  1  0  0  0  0
 34 33  1  0  0  0  0
M  END
>  <minimizedAffinity>
-5.50919437

$$$$

 OpenBabel03252507533D

 34 37  0  0  1  0  0  0  0  0999 V2000
   37.5440   30.7310   40.1300 C   0  0  2  0  0  0  0  0  0  0  0  0
   36.2000   31.0520   40.7310 C   0  0  0  0  0  0  0  0  0  0  0  0
   35.5650   29.6650   40.6370 C   0  0  0  0  0  0  0  0  0  0  0  0
   36.7140   28.6960   40.8600 C   0  0  1  0  0  0  0  0  0  0  0  0
   37.9300   29.5340   41.0010 C   0  0  0  0  0  0  0  0  0  0  0  0
   37.4600   30.4360   39.0830 H   0  0  0  0  0  0  0  0  0  0  0  0
   35.6280   31.7980   40.1460 H   0  0  0  0  0  0  0  0  0  0  0  0
   36.3560   31.3760   41.7640 H   0  0  0  0  0  0  0  0  0  0  0  0
   34.7560   29.5590   41.3850 H   0  0  0  0  0  0  0  0  0  0  0  0
   35.2270   29.5580   39.5860 H   0  0  0  0  0  0  0  0  0  0  0  0
   36.8580   28.0430   39.9750 H   0  0  0  0  0  0  0  0  0  0  0  0
   38.0640   30.0830   41.9450 H   0  0  0  0  0  0  0  0  0  0  0  0
   38.8360   29.1650   40.5150 H   0  0  0  0  0  0  0  0  0  0  0  0
   40.7510   32.6630   40.6020 C   0  0  0  0  0  0  0  0  0  0  0  0
   39.8990   31.5560   40.4590 C   0  0  0  0  0  0  0  0  0  0  0  0
   38.5400   31.8260   40.2730 C   0  0  0  0  0  0  0  0  0  0  0  0
   38.0820   33.1400   40.2350 N   0  0  0  0  0  0  0  0  0  0  0  0
   38.9630   34.1600   40.3790 C   0  0  0  0  0  0  0  0  0  0  0  0
   40.2740   33.9270   40.5600 N   0  0  0  0  0  0  0  0  0  0  0  0
   41.8100   32.4900   40.7470 H   0  0  0  0  0  0  0  0  0  0  0  0
   40.2410   30.5360   40.4870 H   0  0  0  0  0  0  0  0  0  0  0  0
   38.4730   35.1250   40.3300 H   0  0  0  0  0  0  0  0  0  0  0  0
   36.5850   27.8930   42.0970 C   0  0  2  0  0  0  0  0  0  0  0  0
   37.5450   28.1620   43.1910 C   0  0  0  0  0  0  0  0  0  0  0  0
   37.3950   26.8070   42.5410 C   0  0  2  0  0  0  0  0  0  0  0  0
   35.4980   27.9340   42.4270 H   0  0  0  0  0  0  0  0  0  0  0  0
   37.1090   28.3460   44.2190 H   0  0  0  0  0  0  0  0  0  0  0  0
   38.5850   28.3910   43.2070 H   0  0  0  0  0  0  0  0  0  0  0  0
   36.8430   26.0960   43.2500 H   0  0  0  0  0  0  0  0  0  0  0  0
   38.4740   26.0540   41.8940 C   0  0  0  0  0  3  0  0  0  0  0  0
   38.1670   25.7610   40.4600 C   0  0  0  0  0  2  0  0  0  0  0  0
   36.9750   24.8060   40.6240 C   0  0  0  0  0  2  0  0  0  0  0  0
   37.3270   23.9950   41.8630 C   0  0  0  0  0  2  0  0  0  0  0  0
   38.5590   24.6420   42.4570 C   0  0  0  0  0  2  0  0  0  0  0  0
  1  6  1  6  0  0  0
  1 16  1  0  0  0  0
  1  2  1  0  0  0  0
  1  5  1  0  0  0  0
  2  8  1  0  0  0  0
  3  2  1  0  0  0  0
  3  4  1  0  0  0  0
  3  9  1  0  0  0  0
  4 11  1  6  0  0  0
  4  5  1  0  0  0  0
  4 23  1  0  0  0  0
  5 12  1  0  0  0  0
  7  2  1  0  0  0  0
 10  3  1  0  0  0  0
 13  5  1  0  0  0  0
 14 20  1  0  0  0  0
 15 21  1  0  0  0  0
 15 14  2  0  0  0  0
 16 15  1  0  0  0  0
 17 16  2  0  0  0  0
 17 18  1  0  0  0  0
 18 19  2  0  0  0  0
 19 14  1  0  0  0  0
 22 18  1  0  0  0  0
 23 26  1  1  0  0  0
 23 25  1  0  0  0  0
 23 24  1  0  0  0  0
 24 28  1  0  0  0  0
 24 27  1  0  0  0  0
 25 24  1  0  0  0  0
 25 29  1  1  0  0  0
 30 34  1  0  0  0  0
 30 25  1  0  0  0  0
 31 32  1  0  0  0  0
 31 30  1  0  0  0  0
 32 33  1  0  0  0  0
 33 34  1  0  0  0  0
M  END
>  <minimizedAffinity>
-5.3883419

$$$$

 OpenBabel03252507533D

 34 37  0  0  1  0  0  0  0  0999 V2000
   39.6060   30.4980   42.2120 C   0  0  2  0  0  0  0  0  0  0  0  0
   40.1490   29.1130   41.9710 C   0  0  0  0  0  0  0  0  0  0  0  0
   39.3690   28.3650   43.0520 C   0  0  0  0  0  0  0  0  0  0  0  0
   38.0240   29.0690   43.1160 C   0  0  1  0  0  0  0  0  0  0  0  0
   38.1080   30.1940   42.1530 C   0  0  0  0  0  0  0  0  0  0  0  0
   39.8860   30.8770   43.1950 H   0  0  0  0  0  0  0  0  0  0  0  0
   41.2410   29.0380   42.1370 H   0  0  0  0  0  0  0  0  0  0  0  0
   39.8690   28.8060   40.9590 H   0  0  0  0  0  0  0  0  0  0  0  0
   39.2850   27.2920   42.7950 H   0  0  0  0  0  0  0  0  0  0  0  0
   39.9040   28.5630   44.0020 H   0  0  0  0  0  0  0  0  0  0  0  0
   37.8530   29.5030   44.1230 H   0  0  0  0  0  0  0  0  0  0  0  0
   38.0540   29.9520   41.0810 H   0  0  0  0  0  0  0  0  0  0  0  0
   37.6600   31.1400   42.4670 H   0  0  0  0  0  0  0  0  0  0  0  0
   39.6170   33.4370   39.8450 C   0  0  0  0  0  0  0  0  0  0  0  0
   39.1770   32.5830   40.8690 C   0  0  0  0  0  0  0  0  0  0  0  0
   39.9840   31.4790   41.1600 C   0  0  0  0  0  0  0  0  0  0  0  0
   41.1620   31.2620   40.4510 N   0  0  0  0  0  0  0  0  0  0  0  0
   41.5250   32.1290   39.4740 C   0  0  0  0  0  0  0  0  0  0  0  0
   40.7660   33.1970   39.1750 N   0  0  0  0  0  0  0  0  0  0  0  0
   39.0160   34.3020   39.5940 H   0  0  0  0  0  0  0  0  0  0  0  0
   38.2690   32.7410   41.4240 H   0  0  0  0  0  0  0  0  0  0  0  0
   42.4590   31.8410   39.0060 H   0  0  0  0  0  0  0  0  0  0  0  0
   36.8840   28.2180   42.7040 C   0  0  2  0  0  0  0  0  0  0  0  0
   36.3880   27.2210   43.6790 C   0  0  0  0  0  0  0  0  0  0  0  0
   36.8950   26.8500   42.3050 C   0  0  2  0  0  0  0  0  0  0  0  0
   36.0710   28.9000   42.2980 H   0  0  0  0  0  0  0  0  0  0  0  0
   35.2760   27.2220   43.8880 H   0  0  0  0  0  0  0  0  0  0  0  0
   36.8750   26.5820   44.3780 H   0  0  0  0  0  0  0  0  0  0  0  0
   36.0130   26.5740   41.6280 H   0  0  0  0  0  0  0  0  0  0  0  0
   37.9880   25.9120   42.0310 C   0  0  0  0  0  3  0  0  0  0  0  0
   38.3930   25.9350   40.5910 C   0  0  0  0  0  2  0  0  0  0  0  0
   37.1240   25.3640   39.9410 C   0  0  0  0  0  2  0  0  0  0  0  0
   36.6470   24.3140   40.9350 C   0  0  0  0  0  2  0  0  0  0  0  0
   37.5110   24.4730   42.1660 C   0  0  0  0  0  2  0  0  0  0  0  0
  1  6  1  1  0  0  0
  2  7  1  0  0  0  0
  2  1  1  0  0  0  0
  2  3  1  0  0  0  0
  3  4  1  0  0  0  0
  3 10  1  0  0  0  0
  4 11  1  1  0  0  0
  5  1  1  0  0  0  0
  5 13  1  0  0  0  0
  5  4  1  0  0  0  0
  8  2  1  0  0  0  0
  9  3  1  0  0  0  0
 12  5  1  0  0  0  0
 14 15  1  0  0  0  0
 15 16  2  0  0  0  0
 15 21  1  0  0  0  0
 16  1  1  0  0  0  0
 17 16  1  0  0  0  0
 18 17  2  0  0  0  0
 19 18  1  0  0  0  0
 19 14  2  0  0  0  0
 20 14  1  0  0  0  0
 22 18  1  0  0  0  0
 23 26  1  6  0  0  0
 23  4  1  0  0  0  0
 23 24  1  0  0  0  0
 24 27  1  0  0  0  0
 24 28  1  0  0  0  0
 25 29  1  6  0  0  0
 25 23  1  0  0  0  0
 25 24  1  0  0  0  0
 30 34  1  0  0  0  0
 30 25  1  0  0  0  0
 31 30  1  0  0  0  0
 32 31  1  0  0  0  0
 32 33  1  0  0  0  0
 33 34  1  0  0  0  0
M  END
>  <minimizedAffinity>
-5.33483267

$$$$

 OpenBabel03252507533D

 34 37  0  0  1  0  0  0  0  0999 V2000
   38.5610   32.2910   39.2280 C   0  0  2  0  0  0  0  0  0  0  0  0
   37.8700   32.3810   40.5650 C   0  0  0  0  0  0  0  0  0  0  0  0
   36.6480   31.5160   40.2550 C   0  0  0  0  0  0  0  0  0  0  0  0
   37.1610   30.4480   39.3040 C   0  0  1  0  0  0  0  0  0  0  0  0
   38.5880   30.7700   39.0620 C   0  0  0  0  0  0  0  0  0  0  0  0
   37.9730   32.7560   38.4370 H   0  0  0  0  0  0  0  0  0  0  0  0
   37.5760   33.4130   40.8340 H   0  0  0  0  0  0  0  0  0  0  0  0
   38.5240   31.9340   41.3190 H   0  0  0  0  0  0  0  0  0  0  0  0
   36.2240   31.0990   41.1890 H   0  0  0  0  0  0  0  0  0  0  0  0
   35.9510   32.1690   39.6920 H   0  0  0  0  0  0  0  0  0  0  0  0
   36.6350   30.5010   38.3290 H   0  0  0  0  0  0  0  0  0  0  0  0
   39.3050   30.5520   39.8680 H   0  0  0  0  0  0  0  0  0  0  0  0
   38.9490   30.6480   38.0380 H   0  0  0  0  0  0  0  0  0  0  0  0
   42.0740   33.2480   38.2370 C   0  0  0  0  0  0  0  0  0  0  0  0
   40.7830   32.7060   38.1230 C   0  0  0  0  0  0  0  0  0  0  0  0
   39.9420   32.8430   39.2310 C   0  0  0  0  0  0  0  0  0  0  0  0
   40.3890   33.4910   40.3790 N   0  0  0  0  0  0  0  0  0  0  0  0
   41.6480   33.9900   40.4180 C   0  0  0  0  0  0  0  0  0  0  0  0
   42.4770   33.8710   39.3670 N   0  0  0  0  0  0  0  0  0  0  0  0
   42.7520   33.1600   37.3980 H   0  0  0  0  0  0  0  0  0  0  0  0
   40.4270   32.2030   37.2410 H   0  0  0  0  0  0  0  0  0  0  0  0
   41.8630   34.4660   41.3670 H   0  0  0  0  0  0  0  0  0  0  0  0
   37.1060   29.0770   39.8610 C   0  0  2  0  0  0  0  0  0  0  0  0
   35.8900   28.6920   40.6120 C   0  0  0  0  0  0  0  0  0  0  0  0
   37.2750   28.6590   41.2130 C   0  0  2  0  0  0  0  0  0  0  0  0
   37.3730   28.3520   39.0280 H   0  0  0  0  0  0  0  0  0  0  0  0
   35.3860   27.7270   40.3050 H   0  0  0  0  0  0  0  0  0  0  0  0
   35.2610   29.2130   41.2960 H   0  0  0  0  0  0  0  0  0  0  0  0
   37.6310   27.5740   41.3060 H   0  0  0  0  0  0  0  0  0  0  0  0
   37.6910   29.3780   42.4220 C   0  0  0  0  0  3  0  0  0  0  0  0
   39.1740   29.5580   42.4810 C   0  0  0  0  0  2  0  0  0  0  0  0
   39.6220   28.0970   42.6390 C   0  0  0  0  0  2  0  0  0  0  0  0
   38.5510   27.4830   43.5290 C   0  0  0  0  0  2  0  0  0  0  0  0
   37.4620   28.5250   43.6630 C   0  0  0  0  0  2  0  0  0  0  0  0
  1  6  1  6  0  0  0
  1 16  1  0  0  0  0
  1  2  1  0  0  0  0
  2  7  1  0  0  0  0
  2  8  1  0  0  0  0
  3  2  1  0  0  0  0
  3  9  1  0  0  0  0
  4 11  1  6  0  0  0
  4 23  1  0  0  0  0
  4  3  1  0  0  0  0
  5  1  1  0  0  0  0
  5  4  1  0  0  0  0
  5 12  1  0  0  0  0
 10  3  1  0  0  0  0
 13  5  1  0  0  0  0
 14 19  1  0  0  0  0
 15 14  2  0  0  0  0
 15 16  1  0  0  0  0
 16 17  2  0  0  0  0
 17 18  1  0  0  0  0
 18 22  1  0  0  0  0
 19 18  2  0  0  0  0
 20 14  1  0  0  0  0
 21 15  1  0  0  0  0
 23 26  1  6  0  0  0
 23 24  1  0  0  0  0
 23 25  1  0  0  0  0
 24 25  1  0  0  0  0
 24 28  1  0  0  0  0
 25 29  1  1  0  0  0
 25 30  1  0  0  0  0
 27 24  1  0  0  0  0
 30 31  1  0  0  0  0
 30 34  1  0  0  0  0
 31 32  1  0  0  0  0
 32 33  1  0  0  0  0
 33 34  1  0  0  0  0
M  END
>  <minimizedAffinity>
-5.14162588

$$$$

 OpenBabel03252507533D

 34 37  0  0  1  0  0  0  0  0999 V2000
   36.2550   29.6480   39.5680 C   0  0  2  0  0  0  0  0  0  0  0  0
   37.6960   29.2050   39.5780 C   0  0  0  0  0  0  0  0  0  0  0  0
   37.9940   29.4180   41.0620 C   0  0  0  0  0  0  0  0  0  0  0  0
   36.6920   29.0840   41.7710 C   0  0  1  0  0  0  0  0  0  0  0  0
   35.7150   28.7710   40.7000 C   0  0  0  0  0  0  0  0  0  0  0  0
   36.1550   30.7050   39.8150 H   0  0  0  0  0  0  0  0  0  0  0  0
   38.3490   29.8330   38.9420 H   0  0  0  0  0  0  0  0  0  0  0  0
   37.7340   28.1520   39.2860 H   0  0  0  0  0  0  0  0  0  0  0  0
   38.8390   28.7770   41.3820 H   0  0  0  0  0  0  0  0  0  0  0  0
   38.1800   30.5040   41.1810 H   0  0  0  0  0  0  0  0  0  0  0  0
   36.3090   29.9640   42.3270 H   0  0  0  0  0  0  0  0  0  0  0  0
   35.8130   27.8020   40.1880 H   0  0  0  0  0  0  0  0  0  0  0  0
   34.7020   29.1540   40.8360 H   0  0  0  0  0  0  0  0  0  0  0  0
   33.6780   28.5850   37.0250 C   0  0  0  0  0  0  0  0  0  0  0  0
   34.2450   28.8470   38.2830 C   0  0  0  0  0  0  0  0  0  0  0  0
   35.5490   29.3510   38.2930 C   0  0  0  0  0  0  0  0  0  0  0  0
   36.2280   29.5730   37.0980 N   0  0  0  0  0  0  0  0  0  0  0  0
   35.6170   29.2970   35.9200 C   0  0  0  0  0  0  0  0  0  0  0  0
   34.3640   28.8110   35.8830 N   0  0  0  0  0  0  0  0  0  0  0  0
   32.6690   28.1940   36.9800 H   0  0  0  0  0  0  0  0  0  0  0  0
   33.7300   28.6800   39.2120 H   0  0  0  0  0  0  0  0  0  0  0  0
   36.2570   29.5150   35.0740 H   0  0  0  0  0  0  0  0  0  0  0  0
   36.7790   27.8960   42.6510 C   0  0  2  0  0  0  0  0  0  0  0  0
   38.0600   27.6590   43.3540 C   0  0  0  0  0  0  0  0  0  0  0  0
   37.4390   26.6570   42.4090 C   0  0  2  0  0  0  0  0  0  0  0  0
   35.8770   27.9100   43.3420 H   0  0  0  0  0  0  0  0  0  0  0  0
   38.0030   27.4890   44.4720 H   0  0  0  0  0  0  0  0  0  0  0  0
   39.0790   27.7730   43.0690 H   0  0  0  0  0  0  0  0  0  0  0  0
   36.9920   25.7870   43.0050 H   0  0  0  0  0  0  0  0  0  0  0  0
   38.0890   26.1030   41.2170 C   0  0  0  0  0  3  0  0  0  0  0  0
   37.0990   25.5030   40.2710 C   0  0  0  0  0  2  0  0  0  0  0  0
   36.5980   24.3200   41.1120 C   0  0  0  0  0  2  0  0  0  0  0  0
   37.8420   23.8460   41.8520 C   0  0  0  0  0  2  0  0  0  0  0  0
   38.9160   24.8750   41.5750 C   0  0  0  0  0  2  0  0  0  0  0  0
  1  2  1  0  0  0  0
  1  6  1  1  0  0  0
  1  5  1  0  0  0  0
  2  3  1  0  0  0  0
  3 10  1  0  0  0  0
  3  9  1  0  0  0  0
  3  4  1  0  0  0  0
  4 11  1  1  0  0  0
  4 23  1  0  0  0  0
  5 13  1  0  0  0  0
  5  4  1  0  0  0  0
  7  2  1  0  0  0  0
  8  2  1  0  0  0  0
 12  5  1  0  0  0  0
 14 15  1  0  0  0  0
 15 16  2  0  0  0  0
 15 21  1  0  0  0  0
 16  1  1  0  0  0  0
 17 16  1  0  0  0  0
 18 17  2  0  0  0  0
 19 18  1  0  0  0  0
 19 14  2  0  0  0  0
 20 14  1  0  0  0  0
 22 18  1  0  0  0  0
 23 26  1  1  0  0  0
 23 24  1  0  0  0  0
 24 27  1  0  0  0  0
 25 23  1  0  0  0  0
 25 29  1  1  0  0  0
 25 24  1  0  0  0  0
 28 24  1  0  0  0  0
 30 34  1  0  0  0  0
 30 25  1  0  0  0  0
 31 32  1  0  0  0  0
 31 30  1  0  0  0  0
 32 33  1  0  0  0  0
 34 33  1  0  0  0  0
M  END
>  <minimizedAffinity>
-5.11075544

$$$$

 OpenBabel03252507533D

 34 37  0  0  1  0  0  0  0  0999 V2000
   36.5780   30.7800   39.3350 C   0  0  2  0  0  0  0  0  0  0  0  0
   35.8440   30.0450   40.4270 C   0  0  0  0  0  0  0  0  0  0  0  0
   35.2940   28.8840   39.5980 C   0  0  0  0  0  0  0  0  0  0  0  0
   36.3660   28.6080   38.5580 C   0  0  1  0  0  0  0  0  0  0  0  0
   37.4200   29.6290   38.7790 C   0  0  0  0  0  0  0  0  0  0  0  0
   35.8950   31.1620   38.5750 H   0  0  0  0  0  0  0  0  0  0  0  0
   35.0270   30.6400   40.8790 H   0  0  0  0  0  0  0  0  0  0  0  0
   36.5750   29.7220   41.1740 H   0  0  0  0  0  0  0  0  0  0  0  0
   35.0850   28.0120   40.2480 H   0  0  0  0  0  0  0  0  0  0  0  0
   34.4030   29.2830   39.0740 H   0  0  0  0  0  0  0  0  0  0  0  0
   35.9680   28.7550   37.5320 H   0  0  0  0  0  0  0  0  0  0  0  0
   38.0780   29.5010   39.6520 H   0  0  0  0  0  0  0  0  0  0  0  0
   37.8680   30.0690   37.8860 H   0  0  0  0  0  0  0  0  0  0  0  0
   38.1200   34.1610   39.9900 C   0  0  0  0  0  0  0  0  0  0  0  0
   37.2250   33.2070   39.4780 C   0  0  0  0  0  0  0  0  0  0  0  0
   37.4520   31.8750   39.8340 C   0  0  0  0  0  0  0  0  0  0  0  0
   38.5210   31.5380   40.6590 N   0  0  0  0  0  0  0  0  0  0  0  0
   39.3460   32.5120   41.1170 C   0  0  0  0  0  0  0  0  0  0  0  0
   39.1500   33.8000   40.7880 N   0  0  0  0  0  0  0  0  0  0  0  0
   37.9740   35.2030   39.7340 H   0  0  0  0  0  0  0  0  0  0  0  0
   36.3950   33.4560   38.8400 H   0  0  0  0  0  0  0  0  0  0  0  0
   40.1320   32.1110   41.7440 H   0  0  0  0  0  0  0  0  0  0  0  0
   37.0030   27.2790   38.6950 C   0  0  2  0  0  0  0  0  0  0  0  0
   36.1150   26.1130   38.9010 C   0  0  0  0  0  0  0  0  0  0  0  0
   37.2010   26.5040   39.8750 C   0  0  2  0  0  0  0  0  0  0  0  0
   37.7280   27.1500   37.8290 H   0  0  0  0  0  0  0  0  0  0  0  0
   36.2670   25.2280   38.2130 H   0  0  0  0  0  0  0  0  0  0  0  0
   35.2230   25.9680   39.4640 H   0  0  0  0  0  0  0  0  0  0  0  0
   38.0790   25.7740   39.7900 H   0  0  0  0  0  0  0  0  0  0  0  0
   36.9960   26.8040   41.2960 C   0  0  0  0  0  3  0  0  0  0  0  0
   38.1240   27.6030   41.8650 C   0  0  0  0  0  2  0  0  0  0  0  0
   39.2620   26.5740   41.7720 C   0  0  0  0  0  2  0  0  0  0  0  0
   38.5800   25.2500   42.0870 C   0  0  0  0  0  2  0  0  0  0  0  0
   37.0960   25.5380   42.1340 C   0  0  0  0  0  2  0  0  0  0  0  0
  1  6  1  6  0  0  0
  1 16  1  0  0  0  0
  1  2  1  0  0  0  0
  2  7  1  0  0  0  0
  2  8  1  0  0  0  0
  3  9  1  0  0  0  0
  3  2  1  0  0  0  0
  4 11  1  6  0  0  0
  4 23  1  0  0  0  0
  4  5  1  0  0  0  0
  4  3  1  0  0  0  0
  5  1  1  0  0  0  0
  5 12  1  0  0  0  0
 10  3  1  0  0  0  0
 13  5  1  0  0  0  0
 14 19  1  0  0  0  0
 15 16  1  0  0  0  0
 15 14  2  0  0  0  0
 16 17  2  0  0  0  0
 17 18  1  0  0  0  0
 18 22  1  0  0  0  0
 19 18  2  0  0  0  0
 20 14  1  0  0  0  0
 21 15  1  0  0  0  0
 23 26  1  6  0  0  0
 23 24  1  0  0  0  0
 23 25  1  0  0  0  0
 24 28  1  0  0  0  0
 24 25  1  0  0  0  0
 25 29  1  6  0  0  0
 25 30  1  0  0  0  0
 27 24  1  0  0  0  0
 30 31  1  0  0  0  0
 30 34  1  0  0  0  0
 32 31  1  0  0  0  0
 32 33  1  0  0  0  0
 33 34  1  0  0  0  0
M  END
>  <minimizedAffinity>
-5.07588863

$$$$

 OpenBabel03252507533D

 34 37  0  0  1  0  0  0  0  0999 V2000
   38.2350   25.7570   42.4500 C   0  0  2  0  0  0  0  0  0  0  0  0
   37.1090   26.6820   42.8330 C   0  0  0  0  0  0  0  0  0  0  0  0
   37.9290   27.7810   43.5090 C   0  0  0  0  0  0  0  0  0  0  0  0
   39.2310   27.8290   42.7270 C   0  0  1  0  0  0  0  0  0  0  0  0
   39.1370   26.7500   41.7140 C   0  0  0  0  0  0  0  0  0  0  0  0
   38.7420   25.3500   43.3260 H   0  0  0  0  0  0  0  0  0  0  0  0
   36.3900   26.2230   43.5390 H   0  0  0  0  0  0  0  0  0  0  0  0
   36.6190   27.0230   41.9170 H   0  0  0  0  0  0  0  0  0  0  0  0
   37.3760   28.7400   43.4930 H   0  0  0  0  0  0  0  0  0  0  0  0
   38.1550   27.4050   44.5270 H   0  0  0  0  0  0  0  0  0  0  0  0
   40.0950   27.5980   43.3840 H   0  0  0  0  0  0  0  0  0  0  0  0
   38.4810   26.9200   40.8470 H   0  0  0  0  0  0  0  0  0  0  0  0
   40.0420   26.1660   41.5380 H   0  0  0  0  0  0  0  0  0  0  0  0
   38.1980   22.6170   40.3570 C   0  0  0  0  0  0  0  0  0  0  0  0
   38.6830   23.5970   41.2390 C   0  0  0  0  0  0  0  0  0  0  0  0
   37.8200   24.6540   41.5430 C   0  0  0  0  0  0  0  0  0  0  0  0
   36.5460   24.7060   40.9840 N   0  0  0  0  0  0  0  0  0  0  0  0
   36.1450   23.7240   40.1400 C   0  0  0  0  0  0  0  0  0  0  0  0
   36.9560   22.6980   39.8310 N   0  0  0  0  0  0  0  0  0  0  0  0
   38.8400   21.7840   40.1000 H   0  0  0  0  0  0  0  0  0  0  0  0
   39.6650   23.5670   41.6760 H   0  0  0  0  0  0  0  0  0  0  0  0
   35.1370   23.8900   39.7810 H   0  0  0  0  0  0  0  0  0  0  0  0
   39.4430   29.1010   42.0000 C   0  0  2  0  0  0  0  0  0  0  0  0
   39.1360   30.3590   42.7170 C   0  0  0  0  0  0  0  0  0  0  0  0
   38.4700   29.9670   41.4200 C   0  0  2  0  0  0  0  0  0  0  0  0
   40.4870   29.0760   41.5540 H   0  0  0  0  0  0  0  0  0  0  0  0
   39.9410   31.1540   42.7200 H   0  0  0  0  0  0  0  0  0  0  0  0
   38.3650   30.6410   43.3950 H   0  0  0  0  0  0  0  0  0  0  0  0
   38.8880   30.6010   40.5620 H   0  0  0  0  0  0  0  0  0  0  0  0
   37.0240   29.8290   41.2180 C   0  0  0  0  0  3  0  0  0  0  0  0
   36.7060   28.9940   40.0190 C   0  0  0  0  0  2  0  0  0  0  0  0
   37.2410   29.9020   38.9020 C   0  0  0  0  0  2  0  0  0  0  0  0
   36.9090   31.3070   39.3860 C   0  0  0  0  0  2  0  0  0  0  0  0
   36.4080   31.1590   40.8050 C   0  0  0  0  0  2  0  0  0  0  0  0
  1  2  1  0  0  0  0
  1  6  1  1  0  0  0
  2  3  1  0  0  0  0
  2  7  1  0  0  0  0
  3 10  1  0  0  0  0
  4 11  1  1  0  0  0
  4  3  1  0  0  0  0
  5  1  1  0  0  0  0
  5  4  1  0  0  0  0
  8  2  1  0  0  0  0
  9  3  1  0  0  0  0
 12  5  1  0  0  0  0
 13  5  1  0  0  0  0
 14 15  1  0  0  0  0
 15 16  2  0  0  0  0
 15 21  1  0  0  0  0
 16  1  1  0  0  0  0
 17 16  1  0  0  0  0
 18 17  2  0  0  0  0
 19 18  1  0  0  0  0
 19 14  2  0  0  0  0
 20 14  1  0  0  0  0
 22 18  1  0  0  0  0
 23 26  1  6  0  0  0
 23 24  1  0  0  0  0
 23  4  1  0  0  0  0
 24 27  1  0  0  0  0
 24 28  1  0  0  0  0
 25 29  1  6  0  0  0
 25 23  1  0  0  0  0
 25 24  1  0  0  0  0
 30 25  1  0  0  0  0
 31 30  1  0  0  0  0
 32 33  1  0  0  0  0
 32 31  1  0  0  0  0
 33 34  1  0  0  0  0
 34 30  1  0  0  0  0
M  END
>  <minimizedAffinity>
-5.063097

$$$$

 OpenBabel03252507533D

 34 37  0  0  1  0  0  0  0  0999 V2000
   38.0450   28.8970   42.6500 C   0  0  2  0  0  0  0  0  0  0  0  0
   39.2110   28.0250   42.2610 C   0  0  0  0  0  0  0  0  0  0  0  0
   38.8460   26.7760   43.0630 C   0  0  0  0  0  0  0  0  0  0  0  0
   37.3280   26.7300   43.0390 C   0  0  1  0  0  0  0  0  0  0  0  0
   36.8950   27.9470   42.3090 C   0  0  0  0  0  0  0  0  0  0  0  0
   38.0520   29.1300   43.7150 H   0  0  0  0  0  0  0  0  0  0  0  0
   40.1880   28.4380   42.5780 H   0  0  0  0  0  0  0  0  0  0  0  0
   39.1700   27.8600   41.1800 H   0  0  0  0  0  0  0  0  0  0  0  0
   39.3150   25.8790   42.6140 H   0  0  0  0  0  0  0  0  0  0  0  0
   39.1660   26.9820   44.1040 H   0  0  0  0  0  0  0  0  0  0  0  0
   36.9150   26.7920   44.0670 H   0  0  0  0  0  0  0  0  0  0  0  0
   37.0220   27.9570   41.2160 H   0  0  0  0  0  0  0  0  0  0  0  0
   36.0250   28.4710   42.7080 H   0  0  0  0  0  0  0  0  0  0  0  0
   36.7910   31.6750   40.4250 C   0  0  0  0  0  0  0  0  0  0  0  0
   36.7740   30.4790   41.1610 C   0  0  0  0  0  0  0  0  0  0  0  0
   37.9430   30.1490   41.8530 C   0  0  0  0  0  0  0  0  0  0  0  0
   39.0550   30.9850   41.7970 N   0  0  0  0  0  0  0  0  0  0  0  0
   38.9990   32.1250   41.0660 C   0  0  0  0  0  0  0  0  0  0  0  0
   37.8870   32.4650   40.3910 N   0  0  0  0  0  0  0  0  0  0  0  0
   35.9020   31.9620   39.8780 H   0  0  0  0  0  0  0  0  0  0  0  0
   35.9210   29.8260   41.2120 H   0  0  0  0  0  0  0  0  0  0  0  0
   39.9290   32.6780   41.1110 H   0  0  0  0  0  0  0  0  0  0  0  0
   36.7780   25.5610   42.3160 C   0  0  2  0  0  0  0  0  0  0  0  0
   37.6510   24.3750   42.1690 C   0  0  0  0  0  0  0  0  0  0  0  0
   37.0660   25.1180   40.9920 C   0  0  2  0  0  0  0  0  0  0  0  0
   35.7600   25.3240   42.7620 H   0  0  0  0  0  0  0  0  0  0  0  0
   37.2130   23.3790   42.4800 H   0  0  0  0  0  0  0  0  0  0  0  0
   38.6920   24.2560   41.9820 H   0  0  0  0  0  0  0  0  0  0  0  0
   36.2160   24.5050   40.5300 H   0  0  0  0  0  0  0  0  0  0  0  0
   37.8390   25.7170   39.8990 C   0  0  0  0  0  3  0  0  0  0  0  0
   37.0310   26.7050   39.1200 C   0  0  0  0  0  2  0  0  0  0  0  0
   35.9900   25.7680   38.4870 C   0  0  0  0  0  2  0  0  0  0  0  0
   36.7800   24.5030   38.1790 C   0  0  0  0  0  2  0  0  0  0  0  0
   38.1380   24.6850   38.8210 C   0  0  0  0  0  2  0  0  0  0  0  0
  1  6  1  1  0  0  0
  2  7  1  0  0  0  0
  2  1  1  0  0  0  0
  2  3  1  0  0  0  0
  3 10  1  0  0  0  0
  4  3  1  0  0  0  0
  4 11  1  1  0  0  0
  5  1  1  0  0  0  0
  5 13  1  0  0  0  0
  5  4  1  0  0  0  0
  8  2  1  0  0  0  0
  9  3  1  0  0  0  0
 12  5  1  0  0  0  0
 14 15  1  0  0  0  0
 15 21  1  0  0  0  0
 15 16  2  0  0  0  0
 16  1  1  0  0  0  0
 17 16  1  0  0  0  0
 18 22  1  0  0  0  0
 18 17  2  0  0  0  0
 19 14  2  0  0  0  0
 19 18  1  0  0  0  0
 20 14  1  0  0  0  0
 23 26  1  1  0  0  0
 23  4  1  0  0  0  0
 24 23  1  0  0  0  0
 24 27  1  0  0  0  0
 25 29  1  6  0  0  0
 25 24  1  0  0  0  0
 25 23  1  0  0  0  0
 28 24  1  0  0  0  0
 30 25  1  0  0  0  0
 31 30  1  0  0  0  0
 32 31  1  0  0  0  0
 33 32  1  0  0  0  0
 33 34  1  0  0  0  0
 34 30  1  0  0  0  0
M  END
>  <minimizedAffinity>
-5.0585022

$$$$
