
 OpenBabel03252503253D

 43 48  0  0  1  0  0  0  0  0999 V2000
   35.9720   29.4170   39.2450 C   0  0  1  0  0  0  0  0  0  0  0  0
   36.1000   30.6250   40.0530 C   0  0  0  0  0  0  0  0  0  0  0  0
   35.6950   29.3750   40.7390 C   0  0  2  0  0  0  0  0  0  0  0  0
   36.8750   28.8860   38.8980 H   0  0  0  0  0  0  0  0  0  0  0  0
   35.2550   31.3840   40.0080 H   0  0  0  0  0  0  0  0  0  0  0  0
   37.0650   31.1010   40.0740 H   0  0  0  0  0  0  0  0  0  0  0  0
   34.6670   29.1280   41.0200 H   0  0  0  0  0  0  0  0  0  0  0  0
   36.7410   28.6660   41.5280 C   0  0  0  0  0  0  0  0  0  0  0  0
   37.6010   29.2900   42.4070 C   0  0  0  0  0  0  0  0  0  0  0  0
   38.5580   28.5670   43.0950 C   0  0  0  0  0  0  0  0  0  0  0  0
   38.6700   27.2060   42.9140 C   0  0  0  0  0  0  0  0  0  0  0  0
   39.6020   26.4670   43.5770 N   0  0  0  0  0  0  0  0  0  0  0  0
   39.6880   25.1320   43.3790 C   0  0  0  0  0  0  0  0  0  0  0  0
   38.8470   24.4150   42.4960 C   0  0  0  0  0  0  0  0  0  0  0  0
   37.8990   25.1470   41.8180 C   0  0  0  0  0  0  0  0  0  0  0  0
   37.8230   26.5220   42.0340 C   0  0  0  0  0  0  0  0  0  0  0  0
   36.8830   27.2880   41.3700 C   0  0  0  0  0  0  0  0  0  0  0  0
   37.4890   30.3560   42.5270 H   0  0  0  0  0  0  0  0  0  0  0  0
   39.2350   29.0700   43.7890 H   0  0  0  0  0  0  0  0  0  0  0  0
   40.4360   24.5610   43.9140 H   0  0  0  0  0  0  0  0  0  0  0  0
   38.9810   23.3460   42.3940 H   0  0  0  0  0  0  0  0  0  0  0  0
   37.2310   24.6480   41.1320 H   0  0  0  0  0  0  0  0  0  0  0  0
   36.2670   26.6990   40.7040 H   0  0  0  0  0  0  0  0  0  0  0  0
   35.0260   29.0690   36.9350 C   0  0  0  0  0  0  0  0  0  0  0  0
   34.7960   29.2300   38.3470 C   0  0  0  0  0  0  0  0  0  0  0  0
   33.5000   29.2100   38.7970 C   0  0  0  0  0  0  0  0  0  0  0  0
   32.5340   29.0370   37.8580 N   0  0  0  0  0  0  0  0  0  0  0  0
   32.7500   28.8870   36.5500 C   0  0  0  0  0  0  0  0  0  0  0  0
   34.0050   28.9030   36.0790 N   0  0  0  0  0  0  0  0  0  0  0  0
   36.0340   29.0820   36.5590 H   0  0  0  0  0  0  0  0  0  0  0  0
   33.2990   29.3270   39.8400 H   0  0  0  0  0  0  0  0  0  0  0  0
   31.5750   28.6910   35.6660 C   0  0  2  0  0  0  0  0  0  0  0  0
   31.5540   29.0980   34.2750 C   0  0  0  0  0  0  0  0  0  0  0  0
   30.8220   29.9700   35.2820 C   0  0  2  0  0  0  0  0  0  0  0  0
   30.9060   27.8660   36.0710 H   0  0  0  0  0  0  0  0  0  0  0  0
   32.5030   29.4210   33.8150 H   0  0  0  0  0  0  0  0  0  0  0  0
   30.9650   28.4570   33.5890 H   0  0  0  0  0  0  0  0  0  0  0  0
   29.7090   29.8250   35.2080 H   0  0  0  0  0  0  0  0  0  0  0  0
   31.3660   31.3300   35.5210 C   0  0  0  0  0  3  0  0  0  0  0  0
   30.2910   32.0750   36.3460 C   0  0  0  0  0  2  0  0  0  0  0  0
   29.2050   32.2390   35.3070 C   0  0  0  0  0  2  0  0  0  0  0  0
   29.9220   32.4260   34.0000 C   0  0  0  0  0  2  0  0  0  0  0  0
   31.3730   32.2340   34.3160 C   0  0  0  0  0  2  0  0  0  0  0  0
  1  4  1  6  0  0  0
  1  2  1  0  0  0  0
  1  3  1  0  0  0  0
  2  6  1  0  0  0  0
  2  3  1  0  0  0  0
  3  7  1  1  0  0  0
  3  8  1  0  0  0  0
  5  2  1  0  0  0  0
  8  9  1  0  0  0  0
  9 18  1  0  0  0  0
  9 10  2  0  0  0  0
 10 19  1  0  0  0  0
 11 10  1  0  0  0  0
 11 12  1  0  0  0  0
 13 12  2  0  0  0  0
 13 20  1  0  0  0  0
 14 13  1  0  0  0  0
 15 16  1  0  0  0  0
 15 14  2  0  0  0  0
 16 11  2  0  0  0  0
 17  8  2  0  0  0  0
 17 16  1  0  0  0  0
 21 14  1  0  0  0  0
 22 15  1  0  0  0  0
 23 17  1  0  0  0  0
 24 25  1  0  0  0  0
 25 26  2  0  0  0  0
 25  1  1  0  0  0  0
 26 31  1  0  0  0  0
 27 26  1  0  0  0  0
 28 27  2  0  0  0  0
 29 28  1  0  0  0  0
 29 24  2  0  0  0  0
 30 24  1  0  0  0  0
 32 35  1  1  0  0  0
 32 28  1  0  0  0  0
 33 34  1  0  0  0  0
 33 32  1  0  0  0  0
 34 38  1  6  0  0  0
 34 39  1  0  0  0  0
 34 32  1  0  0  0  0
 36 33  1  0  0  0  0
 37 33  1  0  0  0  0
 39 40  1  0  0  0  0
 41 40  1  0  0  0  0
 42 43  1  0  0  0  0
 42 41  1  0  0  0  0
 43 39  1  0  0  0  0
M  END
>  <minimizedAffinity>
-6.58967447

$$$$

 OpenBabel03252503253D

 43 48  0  0  1  0  0  0  0  0999 V2000
   34.5500   29.1670   37.8490 C   0  0  1  0  0  0  0  0  0  0  0  0
   34.4090   28.4610   36.5800 C   0  0  0  0  0  0  0  0  0  0  0  0
   33.2260   28.5230   37.4710 C   0  0  2  0  0  0  0  0  0  0  0  0
   34.5730   30.2700   37.8690 H   0  0  0  0  0  0  0  0  0  0  0  0
   34.8380   27.4110   36.5060 H   0  0  0  0  0  0  0  0  0  0  0  0
   34.5830   29.0280   35.6810 H   0  0  0  0  0  0  0  0  0  0  0  0
   32.8970   27.7070   38.1210 H   0  0  0  0  0  0  0  0  0  0  0  0
   32.1590   29.5000   37.1140 C   0  0  0  0  0  0  0  0  0  0  0  0
   31.1960   29.9470   37.9930 C   0  0  0  0  0  0  0  0  0  0  0  0
   30.2270   30.8450   37.5860 C   0  0  0  0  0  0  0  0  0  0  0  0
   30.2070   31.3110   36.2900 C   0  0  0  0  0  0  0  0  0  0  0  0
   29.2660   32.1960   35.8580 N   0  0  0  0  0  0  0  0  0  0  0  0
   29.2710   32.6350   34.5790 C   0  0  0  0  0  0  0  0  0  0  0  0
   30.2210   32.2260   33.6140 C   0  0  0  0  0  0  0  0  0  0  0  0
   31.1800   31.3330   34.0330 C   0  0  0  0  0  0  0  0  0  0  0  0
   31.1610   30.8900   35.3550 C   0  0  0  0  0  0  0  0  0  0  0  0
   32.1080   29.9920   35.8110 C   0  0  0  0  0  0  0  0  0  0  0  0
   31.2380   29.5650   39.0010 H   0  0  0  0  0  0  0  0  0  0  0  0
   29.4680   31.1940   38.2890 H   0  0  0  0  0  0  0  0  0  0  0  0
   28.5150   33.3380   34.2540 H   0  0  0  0  0  0  0  0  0  0  0  0
   30.1570   32.6260   32.6100 H   0  0  0  0  0  0  0  0  0  0  0  0
   31.9300   30.9890   33.3360 H   0  0  0  0  0  0  0  0  0  0  0  0
   32.8090   29.7050   35.0380 H   0  0  0  0  0  0  0  0  0  0  0  0
   35.2050   29.1500   40.2830 C   0  0  0  0  0  0  0  0  0  0  0  0
   35.2920   28.5410   38.9820 C   0  0  0  0  0  0  0  0  0  0  0  0
   36.0630   27.4140   38.8460 C   0  0  0  0  0  0  0  0  0  0  0  0
   36.6840   26.9650   39.9680 N   0  0  0  0  0  0  0  0  0  0  0  0
   36.6010   27.5310   41.1720 C   0  0  0  0  0  0  0  0  0  0  0  0
   35.8570   28.6340   41.3370 N   0  0  0  0  0  0  0  0  0  0  0  0
   34.6070   30.0360   40.4130 H   0  0  0  0  0  0  0  0  0  0  0  0
   36.1460   26.9400   37.8920 H   0  0  0  0  0  0  0  0  0  0  0  0
   37.3330   26.8960   42.2950 C   0  0  2  0  0  0  0  0  0  0  0  0
   37.7190   27.6120   43.4940 C   0  0  0  0  0  0  0  0  0  0  0  0
   38.7930   27.3340   42.4570 C   0  0  2  0  0  0  0  0  0  0  0  0
   37.1900   25.7680   42.2760 H   0  0  0  0  0  0  0  0  0  0  0  0
   37.3130   28.6260   43.6470 H   0  0  0  0  0  0  0  0  0  0  0  0
   37.7130   27.0240   44.4350 H   0  0  0  0  0  0  0  0  0  0  0  0
   39.4730   26.5010   42.7910 H   0  0  0  0  0  0  0  0  0  0  0  0
   39.3690   28.5040   41.7480 C   0  0  0  0  0  3  0  0  0  0  0  0
   40.4800   27.9390   40.8330 C   0  0  0  0  0  2  0  0  0  0  0  0
   41.5090   27.5290   41.8630 C   0  0  0  0  0  2  0  0  0  0  0  0
   41.3960   28.5390   42.9700 C   0  0  0  0  0  2  0  0  0  0  0  0
   40.2310   29.4020   42.5970 C   0  0  0  0  0  2  0  0  0  0  0  0
  1  4  1  6  0  0  0
  1 25  1  0  0  0  0
  2  3  1  0  0  0  0
  2  1  1  0  0  0  0
  3  1  1  0  0  0  0
  3  7  1  1  0  0  0
  5  2  1  0  0  0  0
  6  2  1  0  0  0  0
  8  3  1  0  0  0  0
  8  9  1  0  0  0  0
  9 18  1  0  0  0  0
 10  9  2  0  0  0  0
 10 19  1  0  0  0  0
 11 10  1  0  0  0  0
 12 11  1  0  0  0  0
 13 12  2  0  0  0  0
 14 15  2  0  0  0  0
 14 13  1  0  0  0  0
 15 16  1  0  0  0  0
 16 17  1  0  0  0  0
 16 11  2  0  0  0  0
 17  8  2  0  0  0  0
 20 13  1  0  0  0  0
 21 14  1  0  0  0  0
 22 15  1  0  0  0  0
 23 17  1  0  0  0  0
 24 30  1  0  0  0  0
 24 29  1  0  0  0  0
 25 24  2  0  0  0  0
 26 25  1  0  0  0  0
 26 27  2  0  0  0  0
 27 28  1  0  0  0  0
 28 29  2  0  0  0  0
 28 32  1  0  0  0  0
 31 26  1  0  0  0  0
 32 35  1  1  0  0  0
 32 34  1  0  0  0  0
 32 33  1  0  0  0  0
 33 36  1  0  0  0  0
 33 37  1  0  0  0  0
 34 38  1  1  0  0  0
 34 33  1  0  0  0  0
 39 34  1  0  0  0  0
 39 43  1  0  0  0  0
 40 39  1  0  0  0  0
 40 41  1  0  0  0  0
 41 42  1  0  0  0  0
 43 42  1  0  0  0  0
M  END
>  <minimizedAffinity>
-6.55751371

$$$$

 OpenBabel03252503253D

 43 48  0  0  1  0  0  0  0  0999 V2000
   35.1100   28.9280   37.6960 C   0  0  1  0  0  0  0  0  0  0  0  0
   35.2440   28.1240   36.4860 C   0  0  0  0  0  0  0  0  0  0  0  0
   33.9040   28.2080   37.1150 C   0  0  2  0  0  0  0  0  0  0  0  0
   35.1040   30.0300   37.6310 H   0  0  0  0  0  0  0  0  0  0  0  0
   35.7020   27.0890   36.5850 H   0  0  0  0  0  0  0  0  0  0  0  0
   35.5830   28.6280   35.5970 H   0  0  0  0  0  0  0  0  0  0  0  0
   33.4690   27.4320   37.7500 H   0  0  0  0  0  0  0  0  0  0  0  0
   32.9100   29.1150   36.4750 C   0  0  0  0  0  0  0  0  0  0  0  0
   32.9390   29.4780   35.1450 C   0  0  0  0  0  0  0  0  0  0  0  0
   31.9900   30.3360   34.6240 C   0  0  0  0  0  0  0  0  0  0  0  0
   30.9940   30.8470   35.4260 C   0  0  0  0  0  0  0  0  0  0  0  0
   30.0440   31.6940   34.9420 N   0  0  0  0  0  0  0  0  0  0  0  0
   29.0780   32.1800   35.7540 C   0  0  0  0  0  0  0  0  0  0  0  0
   28.9760   31.8600   37.1290 C   0  0  0  0  0  0  0  0  0  0  0  0
   29.9270   31.0040   37.6350 C   0  0  0  0  0  0  0  0  0  0  0  0
   30.9160   30.5120   36.7840 C   0  0  0  0  0  0  0  0  0  0  0  0
   31.8880   29.6510   37.2570 C   0  0  0  0  0  0  0  0  0  0  0  0
   33.7310   29.0620   34.5420 H   0  0  0  0  0  0  0  0  0  0  0  0
   32.0220   30.6180   33.5690 H   0  0  0  0  0  0  0  0  0  0  0  0
   28.3320   32.8530   35.3520 H   0  0  0  0  0  0  0  0  0  0  0  0
   28.1710   32.2910   37.7110 H   0  0  0  0  0  0  0  0  0  0  0  0
   29.8950   30.7270   38.6780 H   0  0  0  0  0  0  0  0  0  0  0  0
   31.7730   29.4390   38.3120 H   0  0  0  0  0  0  0  0  0  0  0  0
   35.4850   29.2490   40.1680 C   0  0  0  0  0  0  0  0  0  0  0  0
   35.6220   28.4180   39.0010 C   0  0  0  0  0  0  0  0  0  0  0  0
   36.2260   27.1940   39.1470 C   0  0  0  0  0  0  0  0  0  0  0  0
   36.6470   26.8690   40.3970 N   0  0  0  0  0  0  0  0  0  0  0  0
   36.5170   27.6420   41.4760 C   0  0  0  0  0  0  0  0  0  0  0  0
   35.9330   28.8440   41.3670 N   0  0  0  0  0  0  0  0  0  0  0  0
   35.0160   30.2130   40.0770 H   0  0  0  0  0  0  0  0  0  0  0  0
   36.3410   26.5550   38.2970 H   0  0  0  0  0  0  0  0  0  0  0  0
   37.0200   27.1220   42.7720 C   0  0  2  0  0  0  0  0  0  0  0  0
   37.4880   27.9800   43.8410 C   0  0  0  0  0  0  0  0  0  0  0  0
   38.5290   27.2660   42.9960 C   0  0  2  0  0  0  0  0  0  0  0  0
   36.6250   26.0720   42.9590 H   0  0  0  0  0  0  0  0  0  0  0  0
   37.3150   29.0650   43.7490 H   0  0  0  0  0  0  0  0  0  0  0  0
   37.2940   27.6210   44.8730 H   0  0  0  0  0  0  0  0  0  0  0  0
   38.9800   26.4000   43.5550 H   0  0  0  0  0  0  0  0  0  0  0  0
   39.3970   28.1100   42.1360 C   0  0  0  0  0  3  0  0  0  0  0  0
   40.3050   27.1270   41.3590 C   0  0  0  0  0  2  0  0  0  0  0  0
   41.1900   26.6240   42.4760 C   0  0  0  0  0  2  0  0  0  0  0  0
   41.3650   27.7890   43.4090 C   0  0  0  0  0  2  0  0  0  0  0  0
   40.4770   28.8650   42.8660 C   0  0  0  0  0  2  0  0  0  0  0  0
  1  4  1  6  0  0  0
  1 25  1  0  0  0  0
  2  5  1  0  0  0  0
  2  3  1  0  0  0  0
  2  1  1  0  0  0  0
  3  1  1  0  0  0  0
  3  7  1  1  0  0  0
  6  2  1  0  0  0  0
  8  3  1  0  0  0  0
  8 17  1  0  0  0  0
  9  8  2  0  0  0  0
 10  9  1  0  0  0  0
 10 11  2  0  0  0  0
 11 16  1  0  0  0  0
 12 11  1  0  0  0  0
 12 13  2  0  0  0  0
 13 14  1  0  0  0  0
 14 15  2  0  0  0  0
 14 21  1  0  0  0  0
 15 22  1  0  0  0  0
 16 17  2  0  0  0  0
 16 15  1  0  0  0  0
 17 23  1  0  0  0  0
 18  9  1  0  0  0  0
 19 10  1  0  0  0  0
 20 13  1  0  0  0  0
 24 29  1  0  0  0  0
 25 26  1  0  0  0  0
 25 24  2  0  0  0  0
 26 27  2  0  0  0  0
 27 28  1  0  0  0  0
 28 32  1  0  0  0  0
 29 28  2  0  0  0  0
 30 24  1  0  0  0  0
 31 26  1  0  0  0  0
 32 35  1  1  0  0  0
 32 34  1  0  0  0  0
 32 33  1  0  0  0  0
 33 37  1  0  0  0  0
 34 38  1  1  0  0  0
 34 33  1  0  0  0  0
 36 33  1  0  0  0  0
 39 43  1  0  0  0  0
 39 34  1  0  0  0  0
 40 39  1  0  0  0  0
 40 41  1  0  0  0  0
 41 42  1  0  0  0  0
 43 42  1  0  0  0  0
M  END
>  <minimizedAffinity>
-6.52770138

$$$$

 OpenBabel03252503253D

 43 48  0  0  1  0  0  0  0  0999 V2000
   34.2690   28.9690   36.3030 C   0  0  1  0  0  0  0  0  0  0  0  0
   33.6090   28.1070   35.3290 C   0  0  0  0  0  0  0  0  0  0  0  0
   32.8310   28.5250   36.5190 C   0  0  2  0  0  0  0  0  0  0  0  0
   34.4250   30.0380   36.0800 H   0  0  0  0  0  0  0  0  0  0  0  0
   33.8600   26.9980   35.3460 H   0  0  0  0  0  0  0  0  0  0  0  0
   33.5210   28.4800   34.3230 H   0  0  0  0  0  0  0  0  0  0  0  0
   32.6600   27.8970   37.3980 H   0  0  0  0  0  0  0  0  0  0  0  0
   31.8280   29.6090   36.3260 C   0  0  0  0  0  0  0  0  0  0  0  0
   31.1390   30.2160   37.3550 C   0  0  0  0  0  0  0  0  0  0  0  0
   30.2110   31.2080   37.0970 C   0  0  0  0  0  0  0  0  0  0  0  0
   29.9580   31.6090   35.8040 C   0  0  0  0  0  0  0  0  0  0  0  0
   29.0500   32.5830   35.5190 N   0  0  0  0  0  0  0  0  0  0  0  0
   28.8220   32.9560   34.2390 C   0  0  0  0  0  0  0  0  0  0  0  0
   29.4840   32.3860   33.1260 C   0  0  0  0  0  0  0  0  0  0  0  0
   30.4050   31.4000   33.3970 C   0  0  0  0  0  0  0  0  0  0  0  0
   30.6290   31.0270   34.7220 C   0  0  0  0  0  0  0  0  0  0  0  0
   31.5460   30.0410   35.0310 C   0  0  0  0  0  0  0  0  0  0  0  0
   31.3590   29.8810   38.3560 H   0  0  0  0  0  0  0  0  0  0  0  0
   29.6700   31.6830   37.9180 H   0  0  0  0  0  0  0  0  0  0  0  0
   28.0960   33.7320   34.0310 H   0  0  0  0  0  0  0  0  0  0  0  0
   29.2450   32.7410   32.1330 H   0  0  0  0  0  0  0  0  0  0  0  0
   30.9390   30.9310   32.5840 H   0  0  0  0  0  0  0  0  0  0  0  0
   32.0230   29.6310   34.1500 H   0  0  0  0  0  0  0  0  0  0  0  0
   35.1220   27.0560   37.7060 C   0  0  0  0  0  0  0  0  0  0  0  0
   35.2840   28.4090   37.2420 C   0  0  0  0  0  0  0  0  0  0  0  0
   36.3670   29.1210   37.6920 C   0  0  0  0  0  0  0  0  0  0  0  0
   37.2030   28.4780   38.5490 N   0  0  0  0  0  0  0  0  0  0  0  0
   37.0500   27.2240   38.9770 C   0  0  0  0  0  0  0  0  0  0  0  0
   36.0010   26.5020   38.5560 N   0  0  0  0  0  0  0  0  0  0  0  0
   34.2790   26.4790   37.3670 H   0  0  0  0  0  0  0  0  0  0  0  0
   36.5140   30.1270   37.3640 H   0  0  0  0  0  0  0  0  0  0  0  0
   38.0710   26.6720   39.9010 C   0  0  2  0  0  0  0  0  0  0  0  0
   37.7740   25.6610   40.8950 C   0  0  0  0  0  0  0  0  0  0  0  0
   37.9270   27.0970   41.3670 C   0  0  2  0  0  0  0  0  0  0  0  0
   39.1150   26.8240   39.4770 H   0  0  0  0  0  0  0  0  0  0  0  0
   36.7880   25.1680   40.8560 H   0  0  0  0  0  0  0  0  0  0  0  0
   38.5850   24.9350   41.1080 H   0  0  0  0  0  0  0  0  0  0  0  0
   38.9150   27.2500   41.8840 H   0  0  0  0  0  0  0  0  0  0  0  0
   36.7140   27.7680   41.8980 C   0  0  0  0  0  3  0  0  0  0  0  0
   37.1280   29.2330   42.1710 C   0  0  0  0  0  2  0  0  0  0  0  0
   38.0520   29.0460   43.3540 C   0  0  0  0  0  2  0  0  0  0  0  0
   37.4820   27.8950   44.1330 C   0  0  0  0  0  2  0  0  0  0  0  0
   36.3410   27.3870   43.3070 C   0  0  0  0  0  2  0  0  0  0  0  0
  1  4  1  6  0  0  0
  1  3  1  0  0  0  0
  1 25  1  0  0  0  0
  2  5  1  0  0  0  0
  2  1  1  0  0  0  0
  2  3  1  0  0  0  0
  3  7  1  1  0  0  0
  6  2  1  0  0  0  0
  8  3  1  0  0  0  0
  8  9  1  0  0  0  0
  9 18  1  0  0  0  0
 10  9  2  0  0  0  0
 10 19  1  0  0  0  0
 11 10  1  0  0  0  0
 12 11  1  0  0  0  0
 13 12  2  0  0  0  0
 14 15  2  0  0  0  0
 14 13  1  0  0  0  0
 15 16  1  0  0  0  0
 16 17  1  0  0  0  0
 16 11  2  0  0  0  0
 17  8  2  0  0  0  0
 20 13  1  0  0  0  0
 21 14  1  0  0  0  0
 22 15  1  0  0  0  0
 23 17  1  0  0  0  0
 24 29  1  0  0  0  0
 25 26  1  0  0  0  0
 25 24  2  0  0  0  0
 26 27  2  0  0  0  0
 27 28  1  0  0  0  0
 28 32  1  0  0  0  0
 29 28  2  0  0  0  0
 30 24  1  0  0  0  0
 31 26  1  0  0  0  0
 32 35  1  6  0  0  0
 32 33  1  0  0  0  0
 32 34  1  0  0  0  0
 33 37  1  0  0  0  0
 33 34  1  0  0  0  0
 34 38  1  1  0  0  0
 34 39  1  0  0  0  0
 36 33  1  0  0  0  0
 39 40  1  0  0  0  0
 39 43  1  0  0  0  0
 40 41  1  0  0  0  0
 41 42  1  0  0  0  0
 43 42  1  0  0  0  0
M  END
>  <minimizedAffinity>
-6.50318813

$$$$

 OpenBabel03252503253D

 43 48  0  0  1  0  0  0  0  0999 V2000
   36.0680   29.0390   37.2820 C   0  0  1  0  0  0  0  0  0  0  0  0
   36.9560   30.1550   36.9770 C   0  0  0  0  0  0  0  0  0  0  0  0
   36.3320   30.1170   38.3210 C   0  0  2  0  0  0  0  0  0  0  0  0
   36.4870   28.0400   37.4930 H   0  0  0  0  0  0  0  0  0  0  0  0
   36.5460   30.9990   36.3350 H   0  0  0  0  0  0  0  0  0  0  0  0
   37.9740   29.9160   36.7200 H   0  0  0  0  0  0  0  0  0  0  0  0
   35.4610   30.7100   38.6150 H   0  0  0  0  0  0  0  0  0  0  0  0
   37.1880   29.6680   39.4540 C   0  0  0  0  0  0  0  0  0  0  0  0
   38.5510   29.8730   39.5210 C   0  0  0  0  0  0  0  0  0  0  0  0
   39.2830   29.4150   40.5990 C   0  0  0  0  0  0  0  0  0  0  0  0
   38.6640   28.7420   41.6300 C   0  0  0  0  0  0  0  0  0  0  0  0
   39.3590   28.2790   42.7050 N   0  0  0  0  0  0  0  0  0  0  0  0
   38.7240   27.6220   43.7020 C   0  0  0  0  0  0  0  0  0  0  0  0
   37.3320   27.3680   43.7120 C   0  0  0  0  0  0  0  0  0  0  0  0
   36.6140   27.8310   42.6320 C   0  0  0  0  0  0  0  0  0  0  0  0
   37.2840   28.5070   41.6130 C   0  0  0  0  0  0  0  0  0  0  0  0
   36.5960   28.9840   40.5140 C   0  0  0  0  0  0  0  0  0  0  0  0
   39.0060   30.4030   38.6990 H   0  0  0  0  0  0  0  0  0  0  0  0
   40.3610   29.5810   40.6430 H   0  0  0  0  0  0  0  0  0  0  0  0
   39.2920   27.2600   44.5490 H   0  0  0  0  0  0  0  0  0  0  0  0
   36.9000   26.8350   44.5490 H   0  0  0  0  0  0  0  0  0  0  0  0
   35.5480   27.6640   42.5900 H   0  0  0  0  0  0  0  0  0  0  0  0
   35.5380   28.7630   40.5630 H   0  0  0  0  0  0  0  0  0  0  0  0
   34.5350   29.0840   35.2820 C   0  0  0  0  0  0  0  0  0  0  0  0
   34.6910   28.9920   36.7100 C   0  0  0  0  0  0  0  0  0  0  0  0
   33.5600   28.8710   37.4770 C   0  0  0  0  0  0  0  0  0  0  0  0
   32.3750   28.8470   36.8130 N   0  0  0  0  0  0  0  0  0  0  0  0
   32.2340   28.9320   35.4900 C   0  0  0  0  0  0  0  0  0  0  0  0
   33.3200   29.0520   34.7120 N   0  0  0  0  0  0  0  0  0  0  0  0
   35.4080   29.1800   34.6600 H   0  0  0  0  0  0  0  0  0  0  0  0
   33.6460   28.7990   38.5410 H   0  0  0  0  0  0  0  0  0  0  0  0
   30.8620   28.8720   34.9280 C   0  0  2  0  0  0  0  0  0  0  0  0
   30.5310   29.3330   33.5950 C   0  0  0  0  0  0  0  0  0  0  0  0
   30.1600   30.2260   34.7660 C   0  0  2  0  0  0  0  0  0  0  0  0
   30.2400   28.0950   35.4780 H   0  0  0  0  0  0  0  0  0  0  0  0
   31.3600   29.5890   32.9140 H   0  0  0  0  0  0  0  0  0  0  0  0
   29.7310   28.7710   33.0710 H   0  0  0  0  0  0  0  0  0  0  0  0
   29.0550   30.1810   34.9750 H   0  0  0  0  0  0  0  0  0  0  0  0
   30.8720   31.5240   34.8800 C   0  0  0  0  0  3  0  0  0  0  0  0
   30.0950   32.3400   35.9400 C   0  0  0  0  0  2  0  0  0  0  0  0
   28.8180   32.6310   35.1860 C   0  0  0  0  0  2  0  0  0  0  0  0
   29.2240   32.7900   33.7480 C   0  0  0  0  0  2  0  0  0  0  0  0
   30.6840   32.4580   33.7140 C   0  0  0  0  0  2  0  0  0  0  0  0
  1  4  1  1  0  0  0
  1  3  1  0  0  0  0
  2  1  1  0  0  0  0
  2  3  1  0  0  0  0
  3  7  1  1  0  0  0
  3  8  1  0  0  0  0
  5  2  1  0  0  0  0
  6  2  1  0  0  0  0
  8  9  2  0  0  0  0
  8 17  1  0  0  0  0
  9 10  1  0  0  0  0
 10 19  1  0  0  0  0
 10 11  2  0  0  0  0
 11 12  1  0  0  0  0
 12 13  2  0  0  0  0
 13 14  1  0  0  0  0
 13 20  1  0  0  0  0
 14 21  1  0  0  0  0
 15 14  2  0  0  0  0
 16 11  1  0  0  0  0
 16 15  1  0  0  0  0
 17 23  1  0  0  0  0
 17 16  2  0  0  0  0
 18  9  1  0  0  0  0
 22 15  1  0  0  0  0
 24 25  1  0  0  0  0
 25  1  1  0  0  0  0
 25 26  2  0  0  0  0
 26 31  1  0  0  0  0
 27 26  1  0  0  0  0
 28 27  2  0  0  0  0
 29 24  2  0  0  0  0
 29 28  1  0  0  0  0
 30 24  1  0  0  0  0
 32 35  1  1  0  0  0
 32 28  1  0  0  0  0
 33 34  1  0  0  0  0
 33 32  1  0  0  0  0
 34 39  1  0  0  0  0
 34 32  1  0  0  0  0
 34 38  1  1  0  0  0
 36 33  1  0  0  0  0
 37 33  1  0  0  0  0
 39 40  1  0  0  0  0
 41 40  1  0  0  0  0
 42 41  1  0  0  0  0
 43 42  1  0  0  0  0
 43 39  1  0  0  0  0
M  END
>  <minimizedAffinity>
-6.21168089

$$$$

 OpenBabel03252503253D

 43 48  0  0  1  0  0  0  0  0999 V2000
   35.1310   29.5320   38.2870 C   0  0  1  0  0  0  0  0  0  0  0  0
   35.1590   28.6110   37.1560 C   0  0  0  0  0  0  0  0  0  0  0  0
   33.9570   28.6030   38.0240 C   0  0  2  0  0  0  0  0  0  0  0  0
   34.9530   30.6090   38.1190 H   0  0  0  0  0  0  0  0  0  0  0  0
   35.7730   27.6600   37.2610 H   0  0  0  0  0  0  0  0  0  0  0  0
   35.2550   29.0420   36.1740 H   0  0  0  0  0  0  0  0  0  0  0  0
   33.7610   27.8610   38.8020 H   0  0  0  0  0  0  0  0  0  0  0  0
   32.7430   29.2950   37.5070 C   0  0  0  0  0  0  0  0  0  0  0  0
   31.6770   29.6770   38.2940 C   0  0  0  0  0  0  0  0  0  0  0  0
   30.5770   30.3030   37.7400 C   0  0  0  0  0  0  0  0  0  0  0  0
   30.5240   30.5570   36.3870 C   0  0  0  0  0  0  0  0  0  0  0  0
   29.4540   31.1720   35.8120 N   0  0  0  0  0  0  0  0  0  0  0  0
   29.4310   31.4090   34.4810 C   0  0  0  0  0  0  0  0  0  0  0  0
   30.4800   31.0490   33.6020 C   0  0  0  0  0  0  0  0  0  0  0  0
   31.5700   30.4270   34.1670 C   0  0  0  0  0  0  0  0  0  0  0  0
   31.5780   30.1910   35.5410 C   0  0  0  0  0  0  0  0  0  0  0  0
   32.6560   29.5680   36.1420 C   0  0  0  0  0  0  0  0  0  0  0  0
   31.7470   29.4650   39.3490 H   0  0  0  0  0  0  0  0  0  0  0  0
   29.7370   30.6020   38.3710 H   0  0  0  0  0  0  0  0  0  0  0  0
   28.5720   31.8990   34.0410 H   0  0  0  0  0  0  0  0  0  0  0  0
   30.3840   31.2740   32.5480 H   0  0  0  0  0  0  0  0  0  0  0  0
   32.3990   30.1310   33.5410 H   0  0  0  0  0  0  0  0  0  0  0  0
   33.4290   29.3070   35.4320 H   0  0  0  0  0  0  0  0  0  0  0  0
   37.3440   29.5630   39.4940 C   0  0  0  0  0  0  0  0  0  0  0  0
   35.9390   29.2510   39.5090 C   0  0  0  0  0  0  0  0  0  0  0  0
   35.4110   28.7020   40.6510 C   0  0  0  0  0  0  0  0  0  0  0  0
   36.2730   28.4990   41.6810 N   0  0  0  0  0  0  0  0  0  0  0  0
   37.5740   28.7900   41.6640 C   0  0  0  0  0  0  0  0  0  0  0  0
   38.1200   29.3260   40.5630 N   0  0  0  0  0  0  0  0  0  0  0  0
   37.7800   29.9930   38.6090 H   0  0  0  0  0  0  0  0  0  0  0  0
   34.3700   28.4610   40.6910 H   0  0  0  0  0  0  0  0  0  0  0  0
   38.3670   28.5180   42.8880 C   0  0  2  0  0  0  0  0  0  0  0  0
   39.8110   28.4040   42.8860 C   0  0  0  0  0  0  0  0  0  0  0  0
   38.9990   27.1230   42.9640 C   0  0  2  0  0  0  0  0  0  0  0  0
   37.7780   28.8080   43.8170 H   0  0  0  0  0  0  0  0  0  0  0  0
   40.3530   28.6890   41.9690 H   0  0  0  0  0  0  0  0  0  0  0  0
   40.3290   28.7690   43.7970 H   0  0  0  0  0  0  0  0  0  0  0  0
   39.0120   26.6970   44.0050 H   0  0  0  0  0  0  0  0  0  0  0  0
   39.0700   26.2040   41.7990 C   0  0  0  0  0  3  0  0  0  0  0  0
   38.5100   24.8500   42.2950 C   0  0  0  0  0  2  0  0  0  0  0  0
   39.6140   24.4190   43.2340 C   0  0  0  0  0  2  0  0  0  0  0  0
   40.8870   24.9310   42.6230 C   0  0  0  0  0  2  0  0  0  0  0  0
   40.4570   25.7410   41.4390 C   0  0  0  0  0  2  0  0  0  0  0  0
  1  4  1  6  0  0  0
  1 25  1  0  0  0  0
  2  5  1  0  0  0  0
  2  3  1  0  0  0  0
  2  1  1  0  0  0  0
  3  1  1  0  0  0  0
  3  7  1  1  0  0  0
  6  2  1  0  0  0  0
  8  3  1  0  0  0  0
  8  9  1  0  0  0  0
  9 18  1  0  0  0  0
 10  9  2  0  0  0  0
 10 19  1  0  0  0  0
 11 10  1  0  0  0  0
 12 11  1  0  0  0  0
 13 12  2  0  0  0  0
 14 15  2  0  0  0  0
 14 13  1  0  0  0  0
 15 16  1  0  0  0  0
 16 17  1  0  0  0  0
 16 11  2  0  0  0  0
 17  8  2  0  0  0  0
 20 13  1  0  0  0  0
 21 14  1  0  0  0  0
 22 15  1  0  0  0  0
 23 17  1  0  0  0  0
 24 25  2  0  0  0  0
 24 29  1  0  0  0  0
 25 26  1  0  0  0  0
 26 31  1  0  0  0  0
 26 27  2  0  0  0  0
 28 27  1  0  0  0  0
 28 32  1  0  0  0  0
 29 28  2  0  0  0  0
 30 24  1  0  0  0  0
 32 34  1  0  0  0  0
 32 35  1  1  0  0  0
 33 32  1  0  0  0  0
 33 34  1  0  0  0  0
 33 37  1  0  0  0  0
 34 38  1  1  0  0  0
 36 33  1  0  0  0  0
 39 40  1  0  0  0  0
 39 34  1  0  0  0  0
 40 41  1  0  0  0  0
 42 41  1  0  0  0  0
 43 39  1  0  0  0  0
 43 42  1  0  0  0  0
M  END
>  <minimizedAffinity>
-6.1388979

$$$$

 OpenBabel03252503253D

 43 48  0  0  1  0  0  0  0  0999 V2000
   33.8520   29.4470   37.0670 C   0  0  1  0  0  0  0  0  0  0  0  0
   33.2580   28.3650   36.2890 C   0  0  0  0  0  0  0  0  0  0  0  0
   32.3950   29.0660   37.2700 C   0  0  2  0  0  0  0  0  0  0  0  0
   34.0430   30.4270   36.5950 H   0  0  0  0  0  0  0  0  0  0  0  0
   33.4890   27.2970   36.6040 H   0  0  0  0  0  0  0  0  0  0  0  0
   33.2550   28.4740   35.2190 H   0  0  0  0  0  0  0  0  0  0  0  0
   32.1440   28.6790   38.2610 H   0  0  0  0  0  0  0  0  0  0  0  0
   31.4280   30.0630   36.7310 C   0  0  0  0  0  0  0  0  0  0  0  0
   30.5950   30.8340   37.5140 C   0  0  0  0  0  0  0  0  0  0  0  0
   29.7130   31.7290   36.9410 C   0  0  0  0  0  0  0  0  0  0  0  0
   29.6480   31.8690   35.5720 C   0  0  0  0  0  0  0  0  0  0  0  0
   28.7890   32.7420   34.9780 N   0  0  0  0  0  0  0  0  0  0  0  0
   28.7480   32.8570   33.6310 C   0  0  0  0  0  0  0  0  0  0  0  0
   29.5660   32.1050   32.7550 C   0  0  0  0  0  0  0  0  0  0  0  0
   30.4410   31.2170   33.3390 C   0  0  0  0  0  0  0  0  0  0  0  0
   30.4710   31.1110   34.7290 C   0  0  0  0  0  0  0  0  0  0  0  0
   31.3360   30.2300   35.3500 C   0  0  0  0  0  0  0  0  0  0  0  0
   30.6690   30.7020   38.5820 H   0  0  0  0  0  0  0  0  0  0  0  0
   29.0570   32.3350   37.5700 H   0  0  0  0  0  0  0  0  0  0  0  0
   28.0590   33.5570   33.1770 H   0  0  0  0  0  0  0  0  0  0  0  0
   29.4720   32.2570   31.6880 H   0  0  0  0  0  0  0  0  0  0  0  0
   31.0880   30.6180   32.7160 H   0  0  0  0  0  0  0  0  0  0  0  0
   31.9360   29.6740   34.6420 H   0  0  0  0  0  0  0  0  0  0  0  0
   36.1690   28.9030   37.8980 C   0  0  0  0  0  0  0  0  0  0  0  0
   34.7810   29.1450   38.1940 C   0  0  0  0  0  0  0  0  0  0  0  0
   34.3790   29.0800   39.5040 C   0  0  0  0  0  0  0  0  0  0  0  0
   35.3390   28.7890   40.4210 N   0  0  0  0  0  0  0  0  0  0  0  0
   36.6240   28.5660   40.1430 C   0  0  0  0  0  0  0  0  0  0  0  0
   37.0480   28.6210   38.8720 N   0  0  0  0  0  0  0  0  0  0  0  0
   36.5070   28.9480   36.8770 H   0  0  0  0  0  0  0  0  0  0  0  0
   33.3540   29.2560   39.7540 H   0  0  0  0  0  0  0  0  0  0  0  0
   37.5420   28.2770   41.2720 C   0  0  2  0  0  0  0  0  0  0  0  0
   38.8930   27.7870   41.0880 C   0  0  0  0  0  0  0  0  0  0  0  0
   37.8300   26.7920   41.5210 C   0  0  2  0  0  0  0  0  0  0  0  0
   37.2200   28.8460   42.2020 H   0  0  0  0  0  0  0  0  0  0  0  0
   39.3080   27.7800   40.0660 H   0  0  0  0  0  0  0  0  0  0  0  0
   39.6410   28.1330   41.8300 H   0  0  0  0  0  0  0  0  0  0  0  0
   37.9350   26.5370   42.6120 H   0  0  0  0  0  0  0  0  0  0  0  0
   37.4670   25.7260   40.5530 C   0  0  0  0  0  3  0  0  0  0  0  0
   36.7070   24.6560   41.3720 C   0  0  0  0  0  2  0  0  0  0  0  0
   37.8330   24.0920   42.2080 C   0  0  0  0  0  2  0  0  0  0  0  0
   39.0550   24.1550   41.3360 C   0  0  0  0  0  2  0  0  0  0  0  0
   38.6140   24.8660   40.0940 C   0  0  0  0  0  2  0  0  0  0  0  0
  1  4  1  6  0  0  0
  1  3  1  0  0  0  0
  1 25  1  0  0  0  0
  2  5  1  0  0  0  0
  2  1  1  0  0  0  0
  2  3  1  0  0  0  0
  3  7  1  1  0  0  0
  6  2  1  0  0  0  0
  8  3  1  0  0  0  0
  8  9  1  0  0  0  0
  9 18  1  0  0  0  0
 10  9  2  0  0  0  0
 10 19  1  0  0  0  0
 11 10  1  0  0  0  0
 12 11  1  0  0  0  0
 13 12  2  0  0  0  0
 14 15  2  0  0  0  0
 14 13  1  0  0  0  0
 15 16  1  0  0  0  0
 16 17  1  0  0  0  0
 16 11  2  0  0  0  0
 17  8  2  0  0  0  0
 20 13  1  0  0  0  0
 21 14  1  0  0  0  0
 22 15  1  0  0  0  0
 23 17  1  0  0  0  0
 24 25  2  0  0  0  0
 24 29  1  0  0  0  0
 25 26  1  0  0  0  0
 26 31  1  0  0  0  0
 26 27  2  0  0  0  0
 28 27  1  0  0  0  0
 28 32  1  0  0  0  0
 29 28  2  0  0  0  0
 30 24  1  0  0  0  0
 32 34  1  0  0  0  0
 32 35  1  1  0  0  0
 33 32  1  0  0  0  0
 33 34  1  0  0  0  0
 33 37  1  0  0  0  0
 34 38  1  1  0  0  0
 36 33  1  0  0  0  0
 39 40  1  0  0  0  0
 39 34  1  0  0  0  0
 40 41  1  0  0  0  0
 42 41  1  0  0  0  0
 43 39  1  0  0  0  0
 43 42  1  0  0  0  0
M  END
>  <minimizedAffinity>
-6.10505819

$$$$

 OpenBabel03252503253D

 43 48  0  0  1  0  0  0  0  0999 V2000
   33.9440   29.3040   37.2940 C   0  0  1  0  0  0  0  0  0  0  0  0
   33.5210   28.3800   36.2470 C   0  0  0  0  0  0  0  0  0  0  0  0
   32.5030   28.8230   37.2300 C   0  0  2  0  0  0  0  0  0  0  0  0
   34.1170   30.3680   37.0560 H   0  0  0  0  0  0  0  0  0  0  0  0
   33.7890   27.2820   36.3690 H   0  0  0  0  0  0  0  0  0  0  0  0
   33.6340   28.7080   35.2280 H   0  0  0  0  0  0  0  0  0  0  0  0
   32.1680   28.2270   38.0840 H   0  0  0  0  0  0  0  0  0  0  0  0
   31.5370   29.8640   36.7830 C   0  0  0  0  0  0  0  0  0  0  0  0
   30.7640   30.6200   37.6390 C   0  0  0  0  0  0  0  0  0  0  0  0
   29.8770   31.5600   37.1490 C   0  0  0  0  0  0  0  0  0  0  0  0
   29.7490   31.7590   35.7920 C   0  0  0  0  0  0  0  0  0  0  0  0
   28.8840   32.6780   35.2790 N   0  0  0  0  0  0  0  0  0  0  0  0
   28.7790   32.8500   33.9420 C   0  0  0  0  0  0  0  0  0  0  0  0
   29.5320   32.1170   32.9950 C   0  0  0  0  0  0  0  0  0  0  0  0
   30.4120   31.1850   33.4960 C   0  0  0  0  0  0  0  0  0  0  0  0
   30.5080   31.0190   34.8780 C   0  0  0  0  0  0  0  0  0  0  0  0
   31.3800   30.0920   35.4160 C   0  0  0  0  0  0  0  0  0  0  0  0
   30.8880   30.4420   38.6950 H   0  0  0  0  0  0  0  0  0  0  0  0
   29.2700   32.1540   37.8340 H   0  0  0  0  0  0  0  0  0  0  0  0
   28.0860   33.5850   33.5520 H   0  0  0  0  0  0  0  0  0  0  0  0
   29.3890   32.3160   31.9410 H   0  0  0  0  0  0  0  0  0  0  0  0
   31.0110   30.5980   32.8170 H   0  0  0  0  0  0  0  0  0  0  0  0
   31.9300   29.5530   34.6560 H   0  0  0  0  0  0  0  0  0  0  0  0
   35.7290   27.7830   38.2180 C   0  0  0  0  0  0  0  0  0  0  0  0
   34.7550   28.8180   38.4470 C   0  0  0  0  0  0  0  0  0  0  0  0
   34.6180   29.3050   39.7230 C   0  0  0  0  0  0  0  0  0  0  0  0
   35.4240   28.7600   40.6710 N   0  0  0  0  0  0  0  0  0  0  0  0
   36.3250   27.8000   40.4540 C   0  0  0  0  0  0  0  0  0  0  0  0
   36.4830   27.3040   39.2190 N   0  0  0  0  0  0  0  0  0  0  0  0
   35.8530   27.3860   37.2250 H   0  0  0  0  0  0  0  0  0  0  0  0
   33.9040   30.0750   39.9230 H   0  0  0  0  0  0  0  0  0  0  0  0
   37.1360   27.3320   41.6050 C   0  0  2  0  0  0  0  0  0  0  0  0
   37.3350   28.1180   42.8060 C   0  0  0  0  0  0  0  0  0  0  0  0
   38.4740   28.0540   41.8030 C   0  0  2  0  0  0  0  0  0  0  0  0
   37.2230   26.1980   41.5960 H   0  0  0  0  0  0  0  0  0  0  0  0
   36.7290   29.0300   42.9350 H   0  0  0  0  0  0  0  0  0  0  0  0
   37.4190   27.5460   43.7530 H   0  0  0  0  0  0  0  0  0  0  0  0
   39.2960   27.3770   42.1660 H   0  0  0  0  0  0  0  0  0  0  0  0
   38.8250   29.3120   41.0960 C   0  0  0  0  0  3  0  0  0  0  0  0
   40.2340   29.0830   40.5020 C   0  0  0  0  0  2  0  0  0  0  0  0
   41.0690   29.0670   41.7620 C   0  0  0  0  0  2  0  0  0  0  0  0
   40.4090   30.0400   42.6970 C   0  0  0  0  0  2  0  0  0  0  0  0
   39.1600   30.4740   41.9940 C   0  0  0  0  0  2  0  0  0  0  0  0
  1  4  1  6  0  0  0
  1 25  1  0  0  0  0
  2  5  1  0  0  0  0
  2  3  1  0  0  0  0
  2  1  1  0  0  0  0
  3  1  1  0  0  0  0
  3  7  1  1  0  0  0
  6  2  1  0  0  0  0
  8  3  1  0  0  0  0
  8  9  1  0  0  0  0
  9 18  1  0  0  0  0
 10  9  2  0  0  0  0
 10 19  1  0  0  0  0
 11 10  1  0  0  0  0
 12 11  1  0  0  0  0
 13 12  2  0  0  0  0
 14 15  2  0  0  0  0
 14 13  1  0  0  0  0
 15 16  1  0  0  0  0
 16 17  1  0  0  0  0
 16 11  2  0  0  0  0
 17  8  2  0  0  0  0
 20 13  1  0  0  0  0
 21 14  1  0  0  0  0
 22 15  1  0  0  0  0
 23 17  1  0  0  0  0
 24 25  2  0  0  0  0
 24 29  1  0  0  0  0
 25 26  1  0  0  0  0
 26 31  1  0  0  0  0
 26 27  2  0  0  0  0
 28 27  1  0  0  0  0
 28 32  1  0  0  0  0
 29 28  2  0  0  0  0
 30 24  1  0  0  0  0
 32 35  1  1  0  0  0
 32 34  1  0  0  0  0
 32 33  1  0  0  0  0
 33 36  1  0  0  0  0
 33 37  1  0  0  0  0
 34 38  1  1  0  0  0
 34 33  1  0  0  0  0
 39 34  1  0  0  0  0
 39 43  1  0  0  0  0
 40 39  1  0  0  0  0
 40 41  1  0  0  0  0
 41 42  1  0  0  0  0
 43 42  1  0  0  0  0
M  END
>  <minimizedAffinity>
-6.01086617

$$$$

 OpenBabel03252503253D

 43 48  0  0  1  0  0  0  0  0999 V2000
   38.5540   28.1710   42.2360 C   0  0  1  0  0  0  0  0  0  0  0  0
   37.7750   27.8060   43.4140 C   0  0  0  0  0  0  0  0  0  0  0  0
   37.1080   27.7230   42.0930 C   0  0  2  0  0  0  0  0  0  0  0  0
   39.3230   27.4820   41.8450 H   0  0  0  0  0  0  0  0  0  0  0  0
   37.3580   28.6460   44.0550 H   0  0  0  0  0  0  0  0  0  0  0  0
   38.1440   26.9920   44.0140 H   0  0  0  0  0  0  0  0  0  0  0  0
   36.4190   28.4760   41.6990 H   0  0  0  0  0  0  0  0  0  0  0  0
   36.9510   26.3670   41.4960 C   0  0  0  0  0  0  0  0  0  0  0  0
   37.0990   25.1910   42.2010 C   0  0  0  0  0  0  0  0  0  0  0  0
   36.9530   23.9670   41.5760 C   0  0  0  0  0  0  0  0  0  0  0  0
   36.6550   23.9000   40.2330 C   0  0  0  0  0  0  0  0  0  0  0  0
   36.5050   22.7090   39.5890 N   0  0  0  0  0  0  0  0  0  0  0  0
   36.2130   22.6750   38.2690 C   0  0  0  0  0  0  0  0  0  0  0  0
   36.0460   23.8320   37.4720 C   0  0  0  0  0  0  0  0  0  0  0  0
   36.1940   25.0440   38.1070 C   0  0  0  0  0  0  0  0  0  0  0  0
   36.4950   25.0620   39.4690 C   0  0  0  0  0  0  0  0  0  0  0  0
   36.6510   26.2610   40.1390 C   0  0  0  0  0  0  0  0  0  0  0  0
   37.3320   25.2760   43.2510 H   0  0  0  0  0  0  0  0  0  0  0  0
   37.0720   23.0410   42.1430 H   0  0  0  0  0  0  0  0  0  0  0  0
   36.0980   21.7190   37.7730 H   0  0  0  0  0  0  0  0  0  0  0  0
   35.8130   23.7180   36.4210 H   0  0  0  0  0  0  0  0  0  0  0  0
   36.0770   25.9580   37.5450 H   0  0  0  0  0  0  0  0  0  0  0  0
   36.5190   27.1160   39.4900 H   0  0  0  0  0  0  0  0  0  0  0  0
   38.0920   30.2480   40.8840 C   0  0  0  0  0  0  0  0  0  0  0  0
   38.8380   29.6030   41.9330 C   0  0  0  0  0  0  0  0  0  0  0  0
   39.7820   30.3420   42.6010 C   0  0  0  0  0  0  0  0  0  0  0  0
   39.9320   31.6340   42.2090 N   0  0  0  0  0  0  0  0  0  0  0  0
   39.2380   32.2270   41.2370 C   0  0  0  0  0  0  0  0  0  0  0  0
   38.3090   31.5330   40.5640 N   0  0  0  0  0  0  0  0  0  0  0  0
   37.3470   29.6880   40.3450 H   0  0  0  0  0  0  0  0  0  0  0  0
   40.3510   29.8900   43.3850 H   0  0  0  0  0  0  0  0  0  0  0  0
   39.5200   33.6560   40.9500 C   0  0  2  0  0  0  0  0  0  0  0  0
   39.2110   34.2840   39.6810 C   0  0  0  0  0  0  0  0  0  0  0  0
   40.6580   33.9130   39.9570 C   0  0  2  0  0  0  0  0  0  0  0  0
   39.6110   34.2450   41.9180 H   0  0  0  0  0  0  0  0  0  0  0  0
   38.5990   33.7200   38.9580 H   0  0  0  0  0  0  0  0  0  0  0  0
   38.9100   35.3510   39.7270 H   0  0  0  0  0  0  0  0  0  0  0  0
   41.2690   34.8250   40.2080 H   0  0  0  0  0  0  0  0  0  0  0  0
   41.2550   32.8450   39.1160 C   0  0  0  0  0  3  0  0  0  0  0  0
   42.7450   32.7680   39.5260 C   0  0  0  0  0  2  0  0  0  0  0  0
   43.2560   34.0740   38.9620 C   0  0  0  0  0  2  0  0  0  0  0  0
   42.4660   34.3100   37.7060 C   0  0  0  0  0  2  0  0  0  0  0  0
   41.4520   33.2080   37.6680 C   0  0  0  0  0  2  0  0  0  0  0  0
  1  4  1  6  0  0  0
  1  2  1  0  0  0  0
  2  6  1  0  0  0  0
  2  5  1  0  0  0  0
  3  7  1  6  0  0  0
  3  1  1  0  0  0  0
  3  2  1  0  0  0  0
  8  3  1  0  0  0  0
  8  9  1  0  0  0  0
  9 18  1  0  0  0  0
 10 19  1  0  0  0  0
 10  9  2  0  0  0  0
 11 10  1  0  0  0  0
 12 11  1  0  0  0  0
 13 12  2  0  0  0  0
 14 15  2  0  0  0  0
 14 13  1  0  0  0  0
 15 16  1  0  0  0  0
 16 17  1  0  0  0  0
 16 11  2  0  0  0  0
 17  8  2  0  0  0  0
 20 13  1  0  0  0  0
 21 14  1  0  0  0  0
 22 15  1  0  0  0  0
 23 17  1  0  0  0  0
 24 25  1  0  0  0  0
 25  1  1  0  0  0  0
 25 26  2  0  0  0  0
 26 31  1  0  0  0  0
 27 26  1  0  0  0  0
 28 27  2  0  0  0  0
 29 24  2  0  0  0  0
 29 28  1  0  0  0  0
 30 24  1  0  0  0  0
 32 28  1  0  0  0  0
 32 35  1  1  0  0  0
 33 37  1  0  0  0  0
 33 34  1  0  0  0  0
 33 32  1  0  0  0  0
 34 38  1  1  0  0  0
 34 32  1  0  0  0  0
 36 33  1  0  0  0  0
 39 40  1  0  0  0  0
 39 34  1  0  0  0  0
 41 40  1  0  0  0  0
 42 41  1  0  0  0  0
 43 42  1  0  0  0  0
 43 39  1  0  0  0  0
M  END
>  <minimizedAffinity>
-5.93850708

$$$$
