
 OpenBabel03252502393D

 42 45  0  0  1  0  0  0  0  0999 V2000
   42.0030   31.6760   39.6940 C   0  0  1  0  0  0  0  0  0  0  0  0
   41.9900   30.7050   40.2710 H   0  0  0  0  0  0  0  0  0  0  0  0
   40.6590   32.1830   39.7710 N   0  0  0  0  0  0  0  0  0  0  0  0
   39.8860   31.5670   40.7840 C   0  0  0  0  0  0  0  0  0  0  0  0
   38.4270   31.9280   40.4550 C   0  0  0  0  0  0  0  0  0  0  0  0
   38.3490   33.3240   40.7960 N   0  0  0  0  0  0  0  0  0  0  0  0
   39.2250   34.1330   40.0490 C   0  0  0  0  0  0  0  0  0  0  0  0
   40.6290   33.5830   39.8480 C   0  0  0  0  0  0  0  0  0  0  0  0
   40.1200   32.0390   41.7670 H   0  0  0  0  0  0  0  0  0  0  0  0
   39.9810   30.4540   40.8020 H   0  0  0  0  0  0  0  0  0  0  0  0
   38.2050   31.8050   39.3820 H   0  0  0  0  0  0  0  0  0  0  0  0
   37.7730   31.3460   41.1250 H   0  0  0  0  0  0  0  0  0  0  0  0
   38.2570   33.5110   41.8060 H   0  0  0  0  0  0  0  0  0  0  0  0
   38.7780   34.3030   39.0390 H   0  0  0  0  0  0  0  0  0  0  0  0
   39.2460   35.1580   40.5010 H   0  0  0  0  0  0  0  0  0  0  0  0
   41.0350   34.2180   39.0950 H   0  0  0  0  0  0  0  0  0  0  0  0
   41.0270   33.8060   40.8900 H   0  0  0  0  0  0  0  0  0  0  0  0
   43.7420   31.8660   37.9220 C   0  0  0  0  0  0  0  0  0  0  0  0
   42.5190   31.4240   38.3830 C   0  0  0  0  0  0  0  0  0  0  0  0
   41.7530   30.6700   37.4720 C   0  0  0  0  0  0  0  0  0  0  0  0
   42.2440   30.4240   36.2180 N   0  0  0  0  0  0  0  0  0  0  0  0
   43.4480   30.8860   35.8290 C   0  0  0  0  0  0  0  0  0  0  0  0
   44.2070   31.6150   36.6890 N   0  0  0  0  0  0  0  0  0  0  0  0
   44.3520   32.4470   38.6010 H   0  0  0  0  0  0  0  0  0  0  0  0
   40.7780   30.2840   37.7590 H   0  0  0  0  0  0  0  0  0  0  0  0
   43.6810   30.6070   34.8250 H   0  0  0  0  0  0  0  0  0  0  0  0
   42.9480   32.6580   40.3980 C   0  0  0  0  0  0  0  0  0  0  0  0
   43.5450   33.2910   39.7480 H   0  0  0  0  0  0  0  0  0  0  0  0
   42.1550   33.4100   40.7200 H   0  0  0  0  0  0  0  0  0  0  0  0
   43.6940   32.1410   41.4970 C   0  0  0  0  0  0  0  0  0  0  0  0
   43.9100   30.9460   42.0970 C   0  0  0  0  0  0  0  0  0  0  0  0
   44.6940   30.6700   43.1990 C   0  0  0  0  0  0  0  0  0  0  0  0
   45.3100   31.7130   43.7330 N   0  0  0  0  0  0  0  0  0  0  0  0
   45.1610   32.9120   43.2200 C   0  0  0  0  0  0  0  0  0  0  0  0
   44.3900   33.0920   42.1590 N   0  0  0  0  0  0  0  0  0  0  0  0
   43.3490   30.1380   41.5870 H   0  0  0  0  0  0  0  0  0  0  0  0
   44.7290   29.6350   43.5190 H   0  0  0  0  0  0  0  0  0  0  0  0
   45.8920   34.0660   43.8750 C   0  0  0  0  0  0  0  0  0  0  0  0
   45.3980   34.1400   45.2950 C   0  0  0  0  0  0  0  0  0  0  0  0
   44.6470   35.4210   45.4430 C   0  0  0  0  0  0  0  0  0  0  0  0
   44.2880   35.7970   44.0010 C   0  0  0  0  0  0  0  0  0  0  0  0
   45.5450   35.3860   43.2740 C   0  0  0  0  0  0  0  0  0  0  0  0
  1  3  1  0  0  0  0
  1  2  1  1  0  0  0
  1 27  1  0  0  0  0
  3  8  1  0  0  0  0
  3  4  1  0  0  0  0
  4 10  1  0  0  0  0
  4  9  1  0  0  0  0
  5  4  1  0  0  0  0
  5  6  1  0  0  0  0
  5 12  1  0  0  0  0
  6 13  1  0  0  0  0
  7 15  1  0  0  0  0
  7  6  1  0  0  0  0
  8  7  1  0  0  0  0
  8 17  1  0  0  0  0
 11  5  1  0  0  0  0
 14  7  1  0  0  0  0
 16  8  1  0  0  0  0
 18 19  1  0  0  0  0
 18 24  1  0  0  0  0
 19  1  1  0  0  0  0
 20 25  1  0  0  0  0
 20 19  2  0  0  0  0
 21 20  1  0  0  0  0
 22 21  2  0  0  0  0
 22 23  1  0  0  0  0
 23 18  2  0  0  0  0
 26 22  1  0  0  0  0
 27 29  1  0  0  0  0
 27 30  1  0  0  0  0
 28 27  1  0  0  0  0
 30 31  2  0  0  0  0
 30 35  1  0  0  0  0
 31 32  1  0  0  0  0
 32 37  1  0  0  0  0
 32 33  2  0  0  0  0
 34 33  1  0  0  0  0
 34 38  1  0  0  0  0
 35 34  2  0  0  0  0
 36 31  1  0  0  0  0
 38 39  1  0  0  0  0
 39 40  1  0  0  0  0
 41 40  1  0  0  0  0
 42 38  1  0  0  0  0
 42 41  1  0  0  0  0
M  END
>  <minimizedAffinity>
-4.97238636

>  <minimizedRMSD>
5.73931503

$$$$
