
 OpenBabel03242520343D

 24 26  0  0  1  0  0  0  0  0999 V2000
   45.4810   33.9460   43.9210 C   0  0  0  0  0  0  0  0  0  0  0  0
   46.3930   33.1210   43.1880 C   0  0  0  0  0  0  0  0  0  0  0  0
   47.2340   32.2770   43.8890 C   0  0  0  0  0  0  0  0  0  0  0  0
   47.1520   32.2760   45.2560 N   0  0  0  0  0  0  0  0  0  0  0  0
   46.2960   33.0520   45.9140 C   0  0  0  0  0  0  0  0  0  0  0  0
   45.4710   33.8750   45.2570 N   0  0  0  0  0  0  0  0  0  0  0  0
   44.8560   34.5780   43.3050 H   0  0  0  0  0  0  0  0  0  0  0  0
   47.9330   31.6420   43.3630 H   0  0  0  0  0  0  0  0  0  0  0  0
   46.4620   33.1770   41.6900 C   0  0  1  0  0  0  0  0  0  0  0  0
   45.8460   34.2680   40.9700 C   0  0  0  0  0  0  0  0  0  0  0  0
   47.3280   34.2620   41.0610 C   0  0  1  0  0  0  0  0  0  0  0  0
   46.6520   32.1860   41.2600 H   0  0  0  0  0  0  0  0  0  0  0  0
   45.3170   35.0940   41.4680 H   0  0  0  0  0  0  0  0  0  0  0  0
   45.4130   34.0250   39.9660 H   0  0  0  0  0  0  0  0  0  0  0  0
   47.9280   33.9620   40.1550 H   0  0  0  0  0  0  0  0  0  0  0  0
   48.0580   35.2360   41.9130 C   0  0  0  0  0  0  0  0  0  0  0  0
   48.8850   36.0630   41.1730 F   0  0  0  0  0  0  0  0  0  0  0  0
   48.8210   34.6080   42.8950 F   0  0  0  0  0  0  0  0  0  0  0  0
   47.1310   36.0430   42.5290 F   0  0  0  0  0  0  0  0  0  0  0  0
   46.2710   32.9880   47.4000 C   0  0  0  0  0  0  0  0  0  0  0  0
   45.0710   32.1890   47.9140 C   0  0  0  0  0  0  0  0  0  0  0  0
   45.6550   31.7410   49.2600 C   0  0  0  0  0  0  0  0  0  0  0  0
   46.9460   31.1060   48.7410 C   0  0  0  0  0  0  0  0  0  0  0  0
   47.4920   32.3120   47.9660 C   0  0  0  0  0  0  0  0  0  0  0  0
  1  6  1  0  0  0  0
  2  3  1  0  0  0  0
  2  1  2  0  0  0  0
  3  4  2  0  0  0  0
  4  5  1  0  0  0  0
  5 20  1  0  0  0  0
  6  5  2  0  0  0  0
  7  1  1  0  0  0  0
  8  3  1  0  0  0  0
  9 12  1  6  0  0  0
  9  2  1  0  0  0  0
 10 11  1  0  0  0  0
 10 13  1  0  0  0  0
 10  9  1  0  0  0  0
 11 15  1  6  0  0  0
 11  9  1  0  0  0  0
 11 16  1  0  0  0  0
 14 10  1  0  0  0  0
 16 19  1  0  0  0  0
 16 18  1  0  0  0  0
 17 16  1  0  0  0  0
 20 21  1  0  0  0  0
 20 24  1  0  0  0  0
 21 22  1  0  0  0  0
 23 22  1  0  0  0  0
 24 23  1  0  0  0  0
M  END
>  <minimizedAffinity>
-5.41265154

>  <minimizedRMSD>
1.45493269

$$$$
