
 OpenBabel03252507203D

 40 43  0  0  1  0  0  0  0  0999 V2000
   47.1650   33.7030   42.9320 C   0  0  0  0  0  0  0  0  0  0  0  0
   48.2870   33.5210   43.4710 O   0  0  0  0  0  0  0  0  0  0  0  0
   46.7880   33.1780   41.6450 N   0  0  0  0  0  0  0  0  0  0  0  0
   45.5600   32.5210   41.2380 C   0  0  0  0  0  0  0  0  0  0  0  0
   45.0110   33.2080   39.9750 C   0  0  0  0  0  0  0  0  0  0  0  0
   45.9960   33.0390   38.8400 C   0  0  0  0  0  0  0  0  0  0  0  0
   47.2900   32.5170   39.3990 C   0  0  0  0  0  0  0  0  0  0  0  0
   47.7480   33.3280   40.5900 C   0  0  2  0  0  0  0  0  0  0  0  0
   44.8040   32.8390   42.0180 H   0  0  0  0  0  0  0  0  0  0  0  0
   45.6170   31.4430   41.1460 H   0  0  0  0  0  0  0  0  0  0  0  0
   44.0490   32.7130   39.7680 H   0  0  0  0  0  0  0  0  0  0  0  0
   44.9380   34.2860   40.2010 H   0  0  0  0  0  0  0  0  0  0  0  0
   45.6270   32.2810   38.1050 H   0  0  0  0  0  0  0  0  0  0  0  0
   46.1480   33.9860   38.2680 H   0  0  0  0  0  0  0  0  0  0  0  0
   47.0770   31.4530   39.7060 H   0  0  0  0  0  0  0  0  0  0  0  0
   47.9830   32.4510   38.5730 H   0  0  0  0  0  0  0  0  0  0  0  0
   47.6950   34.3840   40.2700 H   0  0  0  0  0  0  0  0  0  0  0  0
   45.7820   35.7210   43.0940 C   0  0  0  0  0  0  0  0  0  0  0  0
   46.1970   34.4900   43.6610 C   0  0  0  0  0  0  0  0  0  0  0  0
   45.6770   34.0930   44.8670 C   0  0  0  0  0  0  0  0  0  0  0  0
   44.7800   34.8930   45.4800 N   0  0  0  0  0  0  0  0  0  0  0  0
   44.3700   36.0730   44.9540 C   0  0  0  0  0  0  0  0  0  0  0  0
   44.8810   36.4650   43.7680 N   0  0  0  0  0  0  0  0  0  0  0  0
   46.1870   36.0420   42.1450 H   0  0  0  0  0  0  0  0  0  0  0  0
   43.6490   36.6920   45.4700 H   0  0  0  0  0  0  0  0  0  0  0  0
   46.1150   32.8340   45.4340 C   0  0  0  0  0  0  0  0  0  0  0  0
   45.7390   31.6550   44.8620 C   0  0  0  0  0  0  0  0  0  0  0  0
   46.1610   30.4680   45.4120 C   0  0  0  0  0  0  0  0  0  0  0  0
   46.9590   30.4040   46.5310 C   0  0  0  0  0  0  0  0  0  0  0  0
   47.3130   31.6210   47.0730 C   0  0  0  0  0  0  0  0  0  0  0  0
   46.8850   32.7610   46.5140 N   0  0  0  0  0  0  0  0  0  0  0  0
   45.1170   31.5440   43.9900 H   0  0  0  0  0  0  0  0  0  0  0  0
   45.8810   29.4940   44.9810 H   0  0  0  0  0  0  0  0  0  0  0  0
   47.2910   29.4690   46.9610 H   0  0  0  0  0  0  0  0  0  0  0  0
   47.9460   31.5960   47.9610 H   0  0  0  0  0  0  0  0  0  0  0  0
   49.1670   33.0480   40.9260 C   0  0  0  0  0  0  0  0  0  0  0  0
   49.8240   33.8810   41.9510 C   0  0  0  0  0  0  0  0  0  0  0  0
   51.0890   33.0590   42.2490 C   0  0  0  0  0  0  0  0  0  0  0  0
   50.8200   31.6620   41.7000 C   0  0  0  0  0  0  0  0  0  0  0  0
   49.2830   31.6920   41.5990 C   0  0  0  0  0  0  0  0  0  0  0  0
  1  2  2  0  0  0  0
  1 19  1  0  0  0  0
  3  1  1  0  0  0  0
  4  3  1  0  0  0  0
  4  9  1  0  0  0  0
  5 12  1  0  0  0  0
  5  4  1  0  0  0  0
  6  7  1  0  0  0  0
  6  5  1  0  0  0  0
  7 15  1  0  0  0  0
  7  8  1  0  0  0  0
  8 17  1  6  0  0  0
  8 36  1  0  0  0  0
  8  3  1  0  0  0  0
 10  4  1  0  0  0  0
 11  5  1  0  0  0  0
 13  6  1  0  0  0  0
 14  6  1  0  0  0  0
 16  7  1  0  0  0  0
 18 19  2  0  0  0  0
 18 23  1  0  0  0  0
 19 20  1  0  0  0  0
 20 26  1  0  0  0  0
 20 21  2  0  0  0  0
 22 25  1  0  0  0  0
 22 21  1  0  0  0  0
 23 22  2  0  0  0  0
 24 18  1  0  0  0  0
 26 31  1  0  0  0  0
 27 28  1  0  0  0  0
 27 26  2  0  0  0  0
 28 29  2  0  0  0  0
 29 34  1  0  0  0  0
 29 30  1  0  0  0  0
 30 35  1  0  0  0  0
 31 30  2  0  0  0  0
 32 27  1  0  0  0  0
 33 28  1  0  0  0  0
 36 40  1  0  0  0  0
 36 37  1  0  0  0  0
 37 38  1  0  0  0  0
 39 38  1  0  0  0  0
 40 39  1  0  0  0  0
M  END
>  <minimizedAffinity>
-5.65161228

>  <minimizedRMSD>
0.400717527

$$$$
