REMARK  Name = 
REMARK  2 active torsions:
REMARK  status: ('A' for Active; 'I' for Inactive)
REMARK    1  A    between atoms: C_3  and  C_7
REMARK    2  A    between atoms: C_10  and  C_23
REMARK                            x       y       z     vdW  Elec       q    Type
REMARK                         _______ _______ _______ _____ _____    ______ ____
ROOT
ATOM      1  C   UNL     1      46.762  35.120  41.789  0.00  0.00    +0.000 C 
ATOM      2  C   UNL     1      46.853  33.818  41.073  0.00  0.00    +0.000 C 
ATOM      3  C   UNL     1      47.837  34.173  39.968  0.00  0.00    +0.000 C 
ATOM      4  C   UNL     1      48.676  35.291  40.512  0.00  0.00    +0.000 C 
ATOM      5  C   UNL     1      48.251  35.449  41.970  0.00  0.00    +0.000 C 
ATOM      6  H   UNL     1      46.362  35.900  41.131  0.00  0.00    +0.000 HD
ATOM      7  H   UNL     1      47.185  32.989  41.696  0.00  0.00    +0.000 HD
ATOM      8  H   UNL     1      45.871  33.617  40.570  0.00  0.00    +0.000 HD
ATOM      9  H   UNL     1      47.311  34.428  39.025  0.00  0.00    +0.000 HD
ATOM     10  H   UNL     1      48.473  33.274  39.830  0.00  0.00    +0.000 HD
ATOM     11  H   UNL     1      48.459  36.220  39.951  0.00  0.00    +0.000 HD
ATOM     12  H   UNL     1      48.760  34.712  42.589  0.00  0.00    +0.000 HD
ATOM     13  H   UNL     1      48.289  36.477  42.330  0.00  0.00    +0.000 HD
ENDROOT
BRANCH   1  16
ATOM     14  C   UNL     1      44.527  35.900  44.726  0.00  0.00    +0.000 A 
ATOM     15  C   UNL     1      45.123  36.050  43.478  0.00  0.00    +0.000 A 
ATOM     16  C   UNL     1      46.056  35.102  43.080  0.00  0.00    +0.000 A 
ATOM     17  N   UNL     1      46.336  34.066  43.947  0.00  0.00    +0.000 NA
ATOM     18  C   UNL     1      45.740  33.953  45.146  0.00  0.00    +0.000 A 
ATOM     19  N   UNL     1      44.840  34.857  45.546  0.00  0.00    +0.000 NA
ATOM     20  H   UNL     1      43.809  36.699  44.943  0.00  0.00    +0.000 HD
ATOM     21  H   UNL     1      44.898  36.865  42.803  0.00  0.00    +0.000 HD
ATOM     22  H   UNL     1      45.977  33.132  45.807  0.00  0.00    +0.000 HD
ENDBRANCH   1  16
BRANCH   4  23
ATOM     23  C   UNL     1      50.151  34.959  40.513  0.00  0.00    +0.000 C 
ATOM     24  C   UNL     1      50.829  35.334  41.787  0.00  0.00    +0.000 C 
ATOM     25  C   UNL     1      51.078  34.044  42.549  0.00  0.00    +0.000 C 
ATOM     26  C   UNL     1      51.473  33.116  41.394  0.00  0.00    +0.000 C 
ATOM     27  C   UNL     1      50.398  33.482  40.372  0.00  0.00    +0.000 C 
ENDBRANCH   4  23
TORSDOF 2
