
 OpenBabel03252505523D

 21 22  0  0  0  0  0  0  0  0999 V2000
   38.6160   31.2530   40.9870 C   0  0  0  0  0  0  0  0  0  0  0  0
   37.4980   31.5950   40.2290 C   0  0  0  0  0  0  0  0  0  0  0  0
   36.3000   30.9220   40.5000 C   0  0  0  0  0  0  0  0  0  0  0  0
   36.2650   29.9850   41.4630 N   0  0  0  0  0  0  0  0  0  0  0  0
   37.3640   29.6830   42.1730 C   0  0  0  0  0  0  0  0  0  0  0  0
   38.5380   30.2960   41.9560 N   0  0  0  0  0  0  0  0  0  0  0  0
   39.5730   31.7320   40.8310 H   0  0  0  0  0  0  0  0  0  0  0  0
   35.4620   31.2050   39.9030 H   0  0  0  0  0  0  0  0  0  0  0  0
   37.6840   32.6530   39.1920 C   0  0  0  0  0  0  0  0  0  0  0  0
   39.0200   32.9550   39.1790 F   0  0  0  0  0  0  0  0  0  0  0  0
   36.9290   33.7470   39.6080 F   0  0  0  0  0  0  0  0  0  0  0  0
   37.2110   32.1670   37.9990 F   0  0  0  0  0  0  0  0  0  0  0  0
   37.3980   28.7260   43.1840 O   0  0  0  0  0  0  0  0  0  0  0  0
   36.7050   27.5040   43.0400 C   0  0  0  0  0  0  0  0  0  0  0  0
   36.5240   27.0550   44.0190 H   0  0  0  0  0  0  0  0  0  0  0  0
   35.8050   27.7240   42.4420 H   0  0  0  0  0  0  0  0  0  0  0  0
   37.6030   26.6210   42.1940 C   0  0  0  0  0  3  0  0  0  0  0  0
   36.9990   25.2830   41.8790 C   0  0  0  0  0  2  0  0  0  0  0  0
   38.0550   24.2310   42.2280 C   0  0  0  0  0  2  0  0  0  0  0  0
   39.3260   25.0520   42.1570 C   0  0  0  0  0  2  0  0  0  0  0  0
   38.9030   26.3090   42.9260 C   0  0  0  0  0  2  0  0  0  0  0  0
  1  6  1  0  0  0  0
  2  3  1  0  0  0  0
  2  1  2  0  0  0  0
  3  4  2  0  0  0  0
  4  5  1  0  0  0  0
  5 13  1  0  0  0  0
  6  5  2  0  0  0  0
  7  1  1  0  0  0  0
  8  3  1  0  0  0  0
  9 11  1  0  0  0  0
  9  2  1  0  0  0  0
 10  9  1  0  0  0  0
 12  9  1  0  0  0  0
 14 13  1  0  0  0  0
 14 15  1  0  0  0  0
 16 14  1  0  0  0  0
 17 21  1  0  0  0  0
 17 14  1  0  0  0  0
 18 17  1  0  0  0  0
 18 19  1  0  0  0  0
 20 19  1  0  0  0  0
 20 21  1  0  0  0  0
M  END
>  <minimizedAffinity>
-4.88281679

$$$$

 OpenBabel03252505523D

 21 22  0  0  0  0  0  0  0  0999 V2000
   38.9050   31.4120   41.3610 C   0  0  0  0  0  0  0  0  0  0  0  0
   37.8190   31.9280   40.6580 C   0  0  0  0  0  0  0  0  0  0  0  0
   36.6110   31.2210   40.7210 C   0  0  0  0  0  0  0  0  0  0  0  0
   36.5380   30.0890   41.4420 N   0  0  0  0  0  0  0  0  0  0  0  0
   37.6090   29.6230   42.1060 C   0  0  0  0  0  0  0  0  0  0  0  0
   38.7900   30.2600   42.0810 N   0  0  0  0  0  0  0  0  0  0  0  0
   39.8680   31.9070   41.3560 H   0  0  0  0  0  0  0  0  0  0  0  0
   35.7970   31.6390   40.1730 H   0  0  0  0  0  0  0  0  0  0  0  0
   38.0440   33.1930   39.8990 C   0  0  0  0  0  0  0  0  0  0  0  0
   36.8530   33.5050   39.2980 F   0  0  0  0  0  0  0  0  0  0  0  0
   39.0240   32.9130   38.9500 F   0  0  0  0  0  0  0  0  0  0  0  0
   38.4870   34.1460   40.7830 F   0  0  0  0  0  0  0  0  0  0  0  0
   37.6040   28.4600   42.8720 O   0  0  0  0  0  0  0  0  0  0  0  0
   36.6300   27.4600   42.6530 C   0  0  0  0  0  0  0  0  0  0  0  0
   36.3000   27.0410   43.6050 H   0  0  0  0  0  0  0  0  0  0  0  0
   35.8420   27.9220   42.0360 H   0  0  0  0  0  0  0  0  0  0  0  0
   37.3110   26.4050   41.8010 C   0  0  0  0  0  3  0  0  0  0  0  0
   36.8980   26.4460   40.3590 C   0  0  0  0  0  2  0  0  0  0  0  0
   36.5180   25.0140   39.9690 C   0  0  0  0  0  2  0  0  0  0  0  0
   37.2780   24.2140   41.0070 C   0  0  0  0  0  2  0  0  0  0  0  0
   36.9500   25.0040   42.2810 C   0  0  0  0  0  2  0  0  0  0  0  0
  1  6  1  0  0  0  0
  2  3  1  0  0  0  0
  2  1  2  0  0  0  0
  3  4  2  0  0  0  0
  4  5  1  0  0  0  0
  5 13  1  0  0  0  0
  6  5  2  0  0  0  0
  7  1  1  0  0  0  0
  8  3  1  0  0  0  0
  9  2  1  0  0  0  0
  9 12  1  0  0  0  0
 10  9  1  0  0  0  0
 11  9  1  0  0  0  0
 14 13  1  0  0  0  0
 14 15  1  0  0  0  0
 16 14  1  0  0  0  0
 17 21  1  0  0  0  0
 17 14  1  0  0  0  0
 18 17  1  0  0  0  0
 19 18  1  0  0  0  0
 19 20  1  0  0  0  0
 20 21  1  0  0  0  0
M  END
>  <minimizedAffinity>
-4.85564566

$$$$

 OpenBabel03252505523D

 21 22  0  0  0  0  0  0  0  0999 V2000
   38.9130   26.8970   41.6650 C   0  0  0  0  0  0  0  0  0  0  0  0
   37.7590   26.3960   42.2630 C   0  0  0  0  0  0  0  0  0  0  0  0
   36.9580   27.2940   42.9810 C   0  0  0  0  0  0  0  0  0  0  0  0
   37.3200   28.5850   43.0710 N   0  0  0  0  0  0  0  0  0  0  0  0
   38.4420   29.0300   42.4810 C   0  0  0  0  0  0  0  0  0  0  0  0
   39.2450   28.2150   41.7800 N   0  0  0  0  0  0  0  0  0  0  0  0
   39.5770   26.2610   41.0960 H   0  0  0  0  0  0  0  0  0  0  0  0
   36.0810   26.8810   43.4270 H   0  0  0  0  0  0  0  0  0  0  0  0
   37.4810   24.9410   42.0800 C   0  0  0  0  0  0  0  0  0  0  0  0
   38.5260   24.2700   42.6600 F   0  0  0  0  0  0  0  0  0  0  0  0
   37.4450   24.7170   40.7060 F   0  0  0  0  0  0  0  0  0  0  0  0
   36.2620   24.6660   42.6460 F   0  0  0  0  0  0  0  0  0  0  0  0
   38.8750   30.3530   42.5320 O   0  0  0  0  0  0  0  0  0  0  0  0
   39.3010   31.0150   41.3600 C   0  0  0  0  0  0  0  0  0  0  0  0
   40.1060   31.7150   41.5950 H   0  0  0  0  0  0  0  0  0  0  0  0
   39.5510   30.2280   40.6300 H   0  0  0  0  0  0  0  0  0  0  0  0
   38.0800   31.7460   40.8350 C   0  0  0  0  0  3  0  0  0  0  0  0
   37.5120   31.1380   39.5860 C   0  0  0  0  0  2  0  0  0  0  0  0
   37.3310   32.2820   38.5840 C   0  0  0  0  0  2  0  0  0  0  0  0
   37.2590   33.4780   39.5090 C   0  0  0  0  0  2  0  0  0  0  0  0
   38.4270   33.1820   40.4590 C   0  0  0  0  0  2  0  0  0  0  0  0
  1  6  2  0  0  0  0
  1  2  1  0  0  0  0
  2  3  2  0  0  0  0
  3  4  1  0  0  0  0
  3  8  1  0  0  0  0
  5 13  1  0  0  0  0
  5  4  2  0  0  0  0
  6  5  1  0  0  0  0
  7  1  1  0  0  0  0
  9  2  1  0  0  0  0
  9 12  1  0  0  0  0
  9 10  1  0  0  0  0
 11  9  1  0  0  0  0
 14 15  1  0  0  0  0
 14 13  1  0  0  0  0
 16 14  1  0  0  0  0
 17 14  1  0  0  0  0
 18 17  1  0  0  0  0
 19 20  1  0  0  0  0
 19 18  1  0  0  0  0
 20 21  1  0  0  0  0
 21 17  1  0  0  0  0
M  END
>  <minimizedAffinity>
-4.62198782

$$$$

 OpenBabel03252505523D

 21 22  0  0  0  0  0  0  0  0999 V2000
   38.3240   30.0860   39.6570 C   0  0  0  0  0  0  0  0  0  0  0  0
   37.4270   31.1480   39.7460 C   0  0  0  0  0  0  0  0  0  0  0  0
   36.4090   31.0590   40.7050 C   0  0  0  0  0  0  0  0  0  0  0  0
   36.3300   29.9730   41.4930 N   0  0  0  0  0  0  0  0  0  0  0  0
   37.2140   28.9690   41.3770 C   0  0  0  0  0  0  0  0  0  0  0  0
   38.2090   29.0020   40.4770 N   0  0  0  0  0  0  0  0  0  0  0  0
   39.1340   30.0890   38.9400 H   0  0  0  0  0  0  0  0  0  0  0  0
   35.7380   31.8870   40.7490 H   0  0  0  0  0  0  0  0  0  0  0  0
   37.6360   32.2890   38.8060 C   0  0  0  0  0  0  0  0  0  0  0  0
   37.3230   31.8250   37.5550 F   0  0  0  0  0  0  0  0  0  0  0  0
   38.9840   32.6260   38.8900 F   0  0  0  0  0  0  0  0  0  0  0  0
   36.8510   33.3340   39.2240 F   0  0  0  0  0  0  0  0  0  0  0  0
   37.1910   27.8180   42.1600 O   0  0  0  0  0  0  0  0  0  0  0  0
   38.0750   26.7490   41.8930 C   0  0  0  0  0  0  0  0  0  0  0  0
   38.6110   26.9280   40.9590 H   0  0  0  0  0  0  0  0  0  0  0  0
   38.7040   26.6330   42.7900 H   0  0  0  0  0  0  0  0  0  0  0  0
   37.2010   25.5130   41.7900 C   0  0  0  0  0  3  0  0  0  0  0  0
   37.9250   24.2420   42.1280 C   0  0  0  0  0  2  0  0  0  0  0  0
   37.6390   23.2580   40.9900 C   0  0  0  0  0  2  0  0  0  0  0  0
   36.3550   23.8260   40.4230 C   0  0  0  0  0  2  0  0  0  0  0  0
   36.6980   25.3200   40.3640 C   0  0  0  0  0  2  0  0  0  0  0  0
  1  2  2  0  0  0  0
  1  6  1  0  0  0  0
  2  3  1  0  0  0  0
  3  8  1  0  0  0  0
  3  4  2  0  0  0  0
  5  4  1  0  0  0  0
  5 13  1  0  0  0  0
  6  5  2  0  0  0  0
  7  1  1  0  0  0  0
  9 11  1  0  0  0  0
  9 12  1  0  0  0  0
  9  2  1  0  0  0  0
 10  9  1  0  0  0  0
 14 13  1  0  0  0  0
 14 16  1  0  0  0  0
 15 14  1  0  0  0  0
 17 14  1  0  0  0  0
 17 18  1  0  0  0  0
 19 18  1  0  0  0  0
 20 19  1  0  0  0  0
 21 20  1  0  0  0  0
 21 17  1  0  0  0  0
M  END
>  <minimizedAffinity>
-4.52615213

$$$$

 OpenBabel03252505523D

 21 22  0  0  0  0  0  0  0  0999 V2000
   37.4910   27.1080   40.5920 C   0  0  0  0  0  0  0  0  0  0  0  0
   37.2740   26.4070   41.7760 C   0  0  0  0  0  0  0  0  0  0  0  0
   37.0820   27.1540   42.9470 C   0  0  0  0  0  0  0  0  0  0  0  0
   37.1130   28.4970   42.8930 N   0  0  0  0  0  0  0  0  0  0  0  0
   37.3260   29.1370   41.7310 C   0  0  0  0  0  0  0  0  0  0  0  0
   37.5150   28.4720   40.5810 N   0  0  0  0  0  0  0  0  0  0  0  0
   37.6460   26.5960   39.6520 H   0  0  0  0  0  0  0  0  0  0  0  0
   36.9190   26.5900   43.8370 H   0  0  0  0  0  0  0  0  0  0  0  0
   37.2660   24.9170   41.6870 C   0  0  0  0  0  0  0  0  0  0  0  0
   36.8590   24.6050   40.4170 F   0  0  0  0  0  0  0  0  0  0  0  0
   36.3440   24.4720   42.6310 F   0  0  0  0  0  0  0  0  0  0  0  0
   38.5260   24.4660   41.9940 F   0  0  0  0  0  0  0  0  0  0  0  0
   37.3690   30.5220   41.6040 O   0  0  0  0  0  0  0  0  0  0  0  0
   36.4370   31.1980   40.7840 C   0  0  0  0  0  0  0  0  0  0  0  0
   35.9560   30.4940   40.1020 H   0  0  0  0  0  0  0  0  0  0  0  0
   35.7620   31.7430   41.4630 H   0  0  0  0  0  0  0  0  0  0  0  0
   37.2400   32.2340   40.0200 C   0  0  0  0  0  3  0  0  0  0  0  0
   37.6490   31.7790   38.6490 C   0  0  0  0  0  2  0  0  0  0  0  0
   39.1510   32.0520   38.5260 C   0  0  0  0  0  2  0  0  0  0  0  0
   39.3420   33.1330   39.5680 C   0  0  0  0  0  2  0  0  0  0  0  0
   38.5450   32.5500   40.7420 C   0  0  0  0  0  2  0  0  0  0  0  0
  1  2  1  0  0  0  0
  2  3  2  0  0  0  0
  3  8  1  0  0  0  0
  4  3  1  0  0  0  0
  5  4  2  0  0  0  0
  6  1  2  0  0  0  0
  6  5  1  0  0  0  0
  7  1  1  0  0  0  0
  9  2  1  0  0  0  0
  9 12  1  0  0  0  0
  9 11  1  0  0  0  0
 10  9  1  0  0  0  0
 13  5  1  0  0  0  0
 14 16  1  0  0  0  0
 14 13  1  0  0  0  0
 15 14  1  0  0  0  0
 17 21  1  0  0  0  0
 17 14  1  0  0  0  0
 18 17  1  0  0  0  0
 19 18  1  0  0  0  0
 19 20  1  0  0  0  0
 20 21  1  0  0  0  0
M  END
>  <minimizedAffinity>
-4.51405001

$$$$

 OpenBabel03252505523D

 21 22  0  0  0  0  0  0  0  0999 V2000
   39.0160   27.0420   41.6900 C   0  0  0  0  0  0  0  0  0  0  0  0
   38.1670   26.0450   42.1630 C   0  0  0  0  0  0  0  0  0  0  0  0
   36.9150   26.4390   42.6560 C   0  0  0  0  0  0  0  0  0  0  0  0
   36.5790   27.7400   42.6570 N   0  0  0  0  0  0  0  0  0  0  0  0
   37.4270   28.6730   42.1920 C   0  0  0  0  0  0  0  0  0  0  0  0
   38.6370   28.3520   41.7090 N   0  0  0  0  0  0  0  0  0  0  0  0
   39.9970   26.8100   41.2960 H   0  0  0  0  0  0  0  0  0  0  0  0
   36.2870   25.6530   43.0120 H   0  0  0  0  0  0  0  0  0  0  0  0
   38.6720   24.6420   42.1010 C   0  0  0  0  0  0  0  0  0  0  0  0
   39.1880   24.4690   40.8440 F   0  0  0  0  0  0  0  0  0  0  0  0
   37.5690   23.8170   42.3070 F   0  0  0  0  0  0  0  0  0  0  0  0
   39.5920   24.4760   43.1070 F   0  0  0  0  0  0  0  0  0  0  0  0
   37.1430   30.0360   42.1630 O   0  0  0  0  0  0  0  0  0  0  0  0
   36.3910   30.5900   41.1040 C   0  0  0  0  0  0  0  0  0  0  0  0
   35.4230   30.9370   41.4700 H   0  0  0  0  0  0  0  0  0  0  0  0
   37.0280   31.3600   40.6380 H   0  0  0  0  0  0  0  0  0  0  0  0
   36.2210   29.4720   40.0920 C   0  0  0  0  0  3  0  0  0  0  0  0
   36.7840   29.8000   38.7400 C   0  0  0  0  0  2  0  0  0  0  0  0
   35.6900   29.4740   37.7190 C   0  0  0  0  0  2  0  0  0  0  0  0
   34.8520   28.4770   38.4900 C   0  0  0  0  0  2  0  0  0  0  0  0
   34.7450   29.1780   39.8510 C   0  0  0  0  0  2  0  0  0  0  0  0
  1  6  2  0  0  0  0
  1  2  1  0  0  0  0
  2  3  2  0  0  0  0
  3  4  1  0  0  0  0
  3  8  1  0  0  0  0
  5  4  2  0  0  0  0
  6  5  1  0  0  0  0
  7  1  1  0  0  0  0
  9  2  1  0  0  0  0
  9 11  1  0  0  0  0
  9 12  1  0  0  0  0
 10  9  1  0  0  0  0
 13  5  1  0  0  0  0
 14 15  1  0  0  0  0
 14 13  1  0  0  0  0
 16 14  1  0  0  0  0
 17 14  1  0  0  0  0
 18 17  1  0  0  0  0
 19 20  1  0  0  0  0
 19 18  1  0  0  0  0
 20 21  1  0  0  0  0
 21 17  1  0  0  0  0
M  END
>  <minimizedAffinity>
-4.46939898

$$$$

 OpenBabel03252505523D

 21 22  0  0  0  0  0  0  0  0999 V2000
   37.1220   27.4820   42.6820 C   0  0  0  0  0  0  0  0  0  0  0  0
   37.9280   26.4930   42.1230 C   0  0  0  0  0  0  0  0  0  0  0  0
   39.1890   26.8760   41.6480 C   0  0  0  0  0  0  0  0  0  0  0  0
   39.5750   28.1600   41.7430 N   0  0  0  0  0  0  0  0  0  0  0  0
   38.7680   29.0850   42.2880 C   0  0  0  0  0  0  0  0  0  0  0  0
   37.5510   28.7740   42.7600 N   0  0  0  0  0  0  0  0  0  0  0  0
   36.1370   27.2560   43.0690 H   0  0  0  0  0  0  0  0  0  0  0  0
   39.7840   26.0980   41.2250 H   0  0  0  0  0  0  0  0  0  0  0  0
   37.3700   25.1090   42.0830 C   0  0  0  0  0  0  0  0  0  0  0  0
   37.1360   24.8220   40.7640 F   0  0  0  0  0  0  0  0  0  0  0  0
   36.1800   25.1440   42.8050 F   0  0  0  0  0  0  0  0  0  0  0  0
   38.2730   24.2680   42.6830 F   0  0  0  0  0  0  0  0  0  0  0  0
   39.1040   30.4300   42.4190 O   0  0  0  0  0  0  0  0  0  0  0  0
   39.4700   31.1930   41.2870 C   0  0  0  0  0  0  0  0  0  0  0  0
   40.2270   31.9310   41.5590 H   0  0  0  0  0  0  0  0  0  0  0  0
   39.7650   30.4720   40.5070 H   0  0  0  0  0  0  0  0  0  0  0  0
   38.1950   31.8680   40.8190 C   0  0  0  0  0  3  0  0  0  0  0  0
   37.5850   31.2180   39.6110 C   0  0  0  0  0  2  0  0  0  0  0  0
   37.3060   32.3360   38.6030 C   0  0  0  0  0  2  0  0  0  0  0  0
   37.2370   33.5450   39.5130 C   0  0  0  0  0  2  0  0  0  0  0  0
   38.4650   33.3090   40.4030 C   0  0  0  0  0  2  0  0  0  0  0  0
  1  6  1  0  0  0  0
  1  7  1  0  0  0  0
  2  1  2  0  0  0  0
  3  4  2  0  0  0  0
  3  2  1  0  0  0  0
  4  5  1  0  0  0  0
  5 13  1  0  0  0  0
  5  6  2  0  0  0  0
  8  3  1  0  0  0  0
  9  2  1  0  0  0  0
  9 12  1  0  0  0  0
  9 11  1  0  0  0  0
 10  9  1  0  0  0  0
 14 15  1  0  0  0  0
 14 13  1  0  0  0  0
 16 14  1  0  0  0  0
 17 14  1  0  0  0  0
 18 17  1  0  0  0  0
 19 20  1  0  0  0  0
 19 18  1  0  0  0  0
 20 21  1  0  0  0  0
 21 17  1  0  0  0  0
M  END
>  <minimizedAffinity>
-4.43261194

$$$$

 OpenBabel03252505523D

 21 22  0  0  0  0  0  0  0  0999 V2000
   37.1420   30.0990   38.9110 C   0  0  0  0  0  0  0  0  0  0  0  0
   37.2590   31.3530   39.5070 C   0  0  0  0  0  0  0  0  0  0  0  0
   37.0100   31.4430   40.8830 C   0  0  0  0  0  0  0  0  0  0  0  0
   36.6720   30.3400   41.5720 N   0  0  0  0  0  0  0  0  0  0  0  0
   36.5680   29.1480   40.9610 C   0  0  0  0  0  0  0  0  0  0  0  0
   36.7970   29.0040   39.6470 N   0  0  0  0  0  0  0  0  0  0  0  0
   37.3210   29.9570   37.8530 H   0  0  0  0  0  0  0  0  0  0  0  0
   37.1070   32.4160   41.3110 H   0  0  0  0  0  0  0  0  0  0  0  0
   37.6420   32.4900   38.6180 C   0  0  0  0  0  0  0  0  0  0  0  0
   36.8450   33.5460   38.9730 F   0  0  0  0  0  0  0  0  0  0  0  0
   37.3740   32.0770   37.3150 F   0  0  0  0  0  0  0  0  0  0  0  0
   38.9840   32.7250   38.7830 F   0  0  0  0  0  0  0  0  0  0  0  0
   36.2240   27.9670   41.6140 O   0  0  0  0  0  0  0  0  0  0  0  0
   36.9580   26.7820   41.3900 C   0  0  0  0  0  0  0  0  0  0  0  0
   36.4950   25.9460   41.9180 H   0  0  0  0  0  0  0  0  0  0  0  0
   37.0400   26.6680   40.2960 H   0  0  0  0  0  0  0  0  0  0  0  0
   38.3520   27.0570   41.9210 C   0  0  0  0  0  3  0  0  0  0  0  0
   39.3640   26.0300   41.5030 C   0  0  0  0  0  2  0  0  0  0  0  0
   40.1000   25.5960   42.7740 C   0  0  0  0  0  2  0  0  0  0  0  0
   39.8630   26.7900   43.6750 C   0  0  0  0  0  2  0  0  0  0  0  0
   38.3670   27.0350   43.4450 C   0  0  0  0  0  2  0  0  0  0  0  0
  1  2  2  0  0  0  0
  1  6  1  0  0  0  0
  2  3  1  0  0  0  0
  3  8  1  0  0  0  0
  3  4  2  0  0  0  0
  5  4  1  0  0  0  0
  5 13  1  0  0  0  0
  6  5  2  0  0  0  0
  7  1  1  0  0  0  0
  9 12  1  0  0  0  0
  9 10  1  0  0  0  0
  9  2  1  0  0  0  0
 11  9  1  0  0  0  0
 14 13  1  0  0  0  0
 14 15  1  0  0  0  0
 14 17  1  0  0  0  0
 16 14  1  0  0  0  0
 17 21  1  0  0  0  0
 18 17  1  0  0  0  0
 18 19  1  0  0  0  0
 19 20  1  0  0  0  0
 21 20  1  0  0  0  0
M  END
>  <minimizedAffinity>
-4.29910088

$$$$

 OpenBabel03252505523D

 21 22  0  0  0  0  0  0  0  0999 V2000
   38.4650   26.3940   41.6100 C   0  0  0  0  0  0  0  0  0  0  0  0
   37.3770   25.7550   41.0200 C   0  0  0  0  0  0  0  0  0  0  0  0
   36.6590   26.4630   40.0460 C   0  0  0  0  0  0  0  0  0  0  0  0
   37.0340   27.7110   39.7180 N   0  0  0  0  0  0  0  0  0  0  0  0
   38.0900   28.2930   40.3100 C   0  0  0  0  0  0  0  0  0  0  0  0
   38.8130   27.6620   41.2470 N   0  0  0  0  0  0  0  0  0  0  0  0
   39.0640   25.9070   42.3680 H   0  0  0  0  0  0  0  0  0  0  0  0
   35.8300   25.9480   39.6140 H   0  0  0  0  0  0  0  0  0  0  0  0
   37.0750   24.3690   41.4840 C   0  0  0  0  0  0  0  0  0  0  0  0
   36.5030   24.4880   42.7230 F   0  0  0  0  0  0  0  0  0  0  0  0
   38.2970   23.7060   41.5600 F   0  0  0  0  0  0  0  0  0  0  0  0
   36.2620   23.7760   40.5500 F   0  0  0  0  0  0  0  0  0  0  0  0
   38.5330   29.5800   40.0160 O   0  0  0  0  0  0  0  0  0  0  0  0
   38.8400   30.4890   41.0540 C   0  0  0  0  0  0  0  0  0  0  0  0
   38.6390   30.0320   42.0260 H   0  0  0  0  0  0  0  0  0  0  0  0
   39.8790   30.8150   40.8860 H   0  0  0  0  0  0  0  0  0  0  0  0
   37.9450   31.6920   40.8230 C   0  0  0  0  0  3  0  0  0  0  0  0
   37.0390   31.5420   39.6350 C   0  0  0  0  0  2  0  0  0  0  0  0
   37.1980   32.8150   38.7990 C   0  0  0  0  0  2  0  0  0  0  0  0
   37.7090   33.7900   39.8380 C   0  0  0  0  0  2  0  0  0  0  0  0
   38.7750   32.9390   40.5380 C   0  0  0  0  0  2  0  0  0  0  0  0
  1  7  1  0  0  0  0
  2  9  1  0  0  0  0
  2  1  2  0  0  0  0
  3  2  1  0  0  0  0
  4  3  2  0  0  0  0
  4  5  1  0  0  0  0
  5  6  2  0  0  0  0
  6  1  1  0  0  0  0
  8  3  1  0  0  0  0
  9 11  1  0  0  0  0
  9 10  1  0  0  0  0
 12  9  1  0  0  0  0
 13  5  1  0  0  0  0
 13 14  1  0  0  0  0
 14 15  1  0  0  0  0
 16 14  1  0  0  0  0
 17 14  1  0  0  0  0
 18 17  1  0  0  0  0
 19 18  1  0  0  0  0
 19 20  1  0  0  0  0
 20 21  1  0  0  0  0
 21 17  1  0  0  0  0
M  END
>  <minimizedAffinity>
-4.17003584

$$$$
