
 OpenBabel03252508543D

 39 42  0  0  1  0  0  0  0  0999 V2000
   43.3080   34.5030   40.7710 C   0  0  0  0  0  0  0  0  0  0  0  0
   43.2820   35.7190   40.4310 O   0  0  0  0  0  0  0  0  0  0  0  0
   41.9310   34.1250   40.4800 N   0  0  0  0  0  0  0  0  0  0  0  0
   41.5430   34.3100   39.0870 C   0  0  0  0  0  0  0  0  0  0  0  0
   40.7740   35.6240   39.0590 C   0  0  0  0  0  0  0  0  0  0  0  0
   40.0010   35.7100   40.3760 C   0  0  0  0  0  0  0  0  0  0  0  0
   39.6280   34.3310   40.8840 C   0  0  0  0  0  0  0  0  0  0  0  0
   40.9070   33.6040   41.3550 C   0  0  1  0  0  0  0  0  0  0  0  0
   42.4040   34.3060   38.4030 H   0  0  0  0  0  0  0  0  0  0  0  0
   40.8530   33.4670   38.7990 H   0  0  0  0  0  0  0  0  0  0  0  0
   40.0910   35.6860   38.1950 H   0  0  0  0  0  0  0  0  0  0  0  0
   41.5110   36.4610   39.0330 H   0  0  0  0  0  0  0  0  0  0  0  0
   39.0680   36.2370   40.1440 H   0  0  0  0  0  0  0  0  0  0  0  0
   40.5370   36.3120   41.1390 H   0  0  0  0  0  0  0  0  0  0  0  0
   39.1380   33.7990   40.0560 H   0  0  0  0  0  0  0  0  0  0  0  0
   38.9660   34.5190   41.7640 H   0  0  0  0  0  0  0  0  0  0  0  0
   41.0660   33.8970   42.4020 H   0  0  0  0  0  0  0  0  0  0  0  0
   40.6120   32.1430   41.1810 C   0  0  0  0  0  3  0  0  0  0  0  0
   40.6770   31.3160   42.4130 C   0  0  0  0  0  2  0  0  0  0  0  0
   39.8540   30.0800   42.0190 C   0  0  0  0  0  2  0  0  0  0  0  0
   38.6270   30.7700   41.4460 C   0  0  0  0  0  2  0  0  0  0  0  0
   39.1280   32.0530   40.8180 C   0  0  0  0  0  2  0  0  0  0  0  0
   44.3590   33.7740   41.2710 O   0  0  0  0  0  0  0  0  0  0  0  0
   45.6930   34.0660   41.1160 C   0  0  0  0  0  0  0  0  0  0  0  0
   46.3530   34.6920   42.1930 C   0  0  0  0  0  0  0  0  0  0  0  0
   47.7090   34.9750   42.0040 C   0  0  0  0  0  0  0  0  0  0  0  0
   48.3090   34.6470   40.8290 N   0  0  0  0  0  0  0  0  0  0  0  0
   47.6350   34.0550   39.8430 C   0  0  0  0  0  0  0  0  0  0  0  0
   46.3260   33.7650   39.9860 N   0  0  0  0  0  0  0  0  0  0  0  0
   48.2210   35.4600   42.8380 H   0  0  0  0  0  0  0  0  0  0  0  0
   48.1000   33.7870   38.9000 H   0  0  0  0  0  0  0  0  0  0  0  0
   45.6340   35.0010   43.3990 C   0  0  0  0  0  0  0  0  0  0  0  0
   45.0230   36.2370   43.6230 C   0  0  0  0  0  0  0  0  0  0  0  0
   44.4610   36.1070   44.8730 C   0  0  0  0  0  0  0  0  0  0  0  0
   44.7060   34.8850   45.3760 N   0  0  0  0  0  0  0  0  0  0  0  0
   45.4100   34.2480   44.4730 N   0  0  0  0  0  0  0  0  0  0  0  0
   44.9970   37.0950   42.9720 H   0  0  0  0  0  0  0  0  0  0  0  0
   43.9010   36.9200   45.3400 H   0  0  0  0  0  0  0  0  0  0  0  0
   44.3540   34.5950   46.3310 H   0  0  0  0  0  0  0  0  0  0  0  0
  1 23  1  0  0  0  0
  2  1  2  0  0  0  0
  3  1  1  0  0  0  0
  3  8  1  0  0  0  0
  4  3  1  0  0  0  0
  5  4  1  0  0  0  0
  5  6  1  0  0  0  0
  6  7  1  0  0  0  0
  6 14  1  0  0  0  0
  7  8  1  0  0  0  0
  7 16  1  0  0  0  0
  8 17  1  1  0  0  0
  9  4  1  0  0  0  0
 10  4  1  0  0  0  0
 11  5  1  0  0  0  0
 12  5  1  0  0  0  0
 13  6  1  0  0  0  0
 15  7  1  0  0  0  0
 18  8  1  0  0  0  0
 18 19  1  0  0  0  0
 20 19  1  0  0  0  0
 21 20  1  0  0  0  0
 22 18  1  0  0  0  0
 22 21  1  0  0  0  0
 24 23  1  0  0  0  0
 24 25  1  0  0  0  0
 25 32  1  0  0  0  0
 26 25  2  0  0  0  0
 26 30  1  0  0  0  0
 27 26  1  0  0  0  0
 28 29  1  0  0  0  0
 28 27  2  0  0  0  0
 29 24  2  0  0  0  0
 31 28  1  0  0  0  0
 32 33  1  0  0  0  0
 32 36  2  0  0  0  0
 33 34  2  0  0  0  0
 34 38  1  0  0  0  0
 34 35  1  0  0  0  0
 35 39  1  0  0  0  0
 36 35  1  0  0  0  0
 37 33  1  0  0  0  0
M  END
>  <minimizedAffinity>
-6.78732252

>  <minimizedRMSD>
0.301590472

$$$$
