
     RDKit          3D

 36 38  0  0  0  0  0  0  0  0999 V2000
   44.5274   35.9000   44.7259 C   0  0  0  0  0  0  0  0  0  0  0  0
   45.1232   36.0502   43.4776 C   0  0  0  0  0  0  0  0  0  0  0  0
   46.0558   35.1015   43.0800 C   0  0  0  0  0  0  0  0  0  0  0  0
   46.3364   34.0659   43.9466 N   0  0  0  0  0  0  0  0  0  0  0  0
   45.7399   33.9534   45.1464 C   0  0  0  0  0  0  0  0  0  0  0  0
   44.8398   34.8567   45.5461 N   0  0  0  0  0  0  0  0  0  0  0  0
   46.7621   35.1203   41.7889 C   0  0  2  0  0  0  0  0  0  0  0  0
   46.8527   33.8175   41.0732 C   0  0  0  0  0  0  0  0  0  0  0  0
   47.8370   34.1732   39.9679 C   0  0  0  0  0  0  0  0  0  0  0  0
   48.6760   35.2913   40.5118 C   0  0  1  0  0  0  0  0  0  0  0  0
   48.2507   35.4491   41.9696 C   0  0  0  0  0  0  0  0  0  0  0  0
   43.8086   36.6994   44.9432 H   0  0  0  0  0  0  0  0  0  0  0  0
   44.8984   36.8649   42.8030 H   0  0  0  0  0  0  0  0  0  0  0  0
   45.9774   33.1321   45.8072 H   0  0  0  0  0  0  0  0  0  0  0  0
   46.3625   35.9003   41.1311 H   0  0  0  0  0  0  0  0  0  0  0  0
   47.1853   32.9889   41.6958 H   0  0  0  0  0  0  0  0  0  0  0  0
   45.8707   33.6173   40.5701 H   0  0  0  0  0  0  0  0  0  0  0  0
   47.3112   34.4278   39.0248 H   0  0  0  0  0  0  0  0  0  0  0  0
   48.4733   33.2740   39.8300 H   0  0  0  0  0  0  0  0  0  0  0  0
   48.4592   36.2196   39.9507 H   0  0  0  0  0  0  0  0  0  0  0  0
   48.7598   34.7115   42.5891 H   0  0  0  0  0  0  0  0  0  0  0  0
   48.2887   36.4773   42.3299 H   0  0  0  0  0  0  0  0  0  0  0  0
   50.1510   34.9594   40.5134 C   0  0  0  0  0  0  0  0  0  0  0  0
   50.8973   35.6380   41.6111 C   0  0  0  0  0  0  0  0  0  0  0  0
   51.1991   34.5802   42.6582 C   0  0  0  0  0  0  0  0  0  0  0  0
   51.5337   33.3878   41.7544 C   0  0  0  0  0  0  0  0  0  0  0  0
   50.3995   33.4923   40.7356 C   0  0  0  0  0  0  0  0  0  0  0  0
   50.6072   35.2076   39.5344 H   0  0  0  0  0  0  0  0  0  0  0  0
   50.3536   36.4986   42.0387 H   0  0  0  0  0  0  0  0  0  0  0  0
   51.8787   36.0305   41.2781 H   0  0  0  0  0  0  0  0  0  0  0  0
   52.0685   34.8055   43.2779 H   0  0  0  0  0  0  0  0  0  0  0  0
   50.2577   34.3776   43.2034 H   0  0  0  0  0  0  0  0  0  0  0  0
   51.4429   32.4275   42.2864 H   0  0  0  0  0  0  0  0  0  0  0  0
   52.5238   33.5610   41.3092 H   0  0  0  0  0  0  0  0  0  0  0  0
   49.5236   32.9970   41.2477 H   0  0  0  0  0  0  0  0  0  0  0  0
   50.6420   32.9488   39.7972 H   0  0  0  0  0  0  0  0  0  0  0  0
  1  6  2  0
  2  1  1  0
  3  2  2  0
  3  4  1  0
  4  5  2  0
  5  6  1  0
  7 11  1  0
  7  3  1  0
  8  7  1  0
  9 10  1  0
  9  8  1  0
 10 11  1  0
  1 12  1  0
  2 13  1  0
  5 14  1  0
  7 15  1  6
  8 16  1  0
  8 17  1  0
  9 18  1  0
  9 19  1  0
 10 20  1  6
 11 21  1  0
 11 22  1  0
 23 24  1  0
 24 25  1  0
 25 26  1  0
 26 27  1  0
 27 23  1  0
 23 28  1  0
 24 29  1  0
 24 30  1  0
 25 31  1  0
 25 32  1  0
 26 33  1  0
 26 34  1  0
 27 35  1  0
 27 36  1  0
 10 23  1  0
M  ISO  8  12  14  13  14  14  14  15  13  16  13  17  13  18  13  19  13
M  ISO  3  20  13  21  13  22  13
M  END
>  <DihAtoms>  (1) 
8,9,22,23

>  <DihDeg>  (1) 
59.945681520509005

$$$$
