
 OpenBabel03252508433D

 27 29  0  0  0  0  0  0  0  0999 V2000
   37.4560   31.7810   39.8410 C   0  0  0  0  0  0  0  0  0  0  0  0
   38.5320   31.4230   40.6510 C   0  0  0  0  0  0  0  0  0  0  0  0
   39.3800   32.4240   41.0970 C   0  0  0  0  0  0  0  0  0  0  0  0
   39.1440   33.7190   40.7370 C   0  0  0  0  0  0  0  0  0  0  0  0
   38.0990   34.1010   39.9460 C   0  0  0  0  0  0  0  0  0  0  0  0
   37.2740   33.0690   39.5200 C   0  0  0  0  0  0  0  0  0  0  0  0
   40.2250   32.2200   41.7230 H   0  0  0  0  0  0  0  0  0  0  0  0
   39.8090   34.5060   41.0870 H   0  0  0  0  0  0  0  0  0  0  0  0
   37.8750   35.1090   39.6370 H   0  0  0  0  0  0  0  0  0  0  0  0
   36.4130   33.2540   38.8870 H   0  0  0  0  0  0  0  0  0  0  0  0
   35.7980   29.0360   37.8340 C   0  0  0  0  0  0  0  0  0  0  0  0
   36.6850   30.0920   38.1460 C   0  0  0  0  0  0  0  0  0  0  0  0
   36.6000   30.6890   39.4030 C   0  0  0  0  0  0  0  0  0  0  0  0
   35.6620   30.2150   40.2570 N   0  0  0  0  0  0  0  0  0  0  0  0
   34.8210   29.2010   39.9340 C   0  0  0  0  0  0  0  0  0  0  0  0
   34.8850   28.6120   38.7320 N   0  0  0  0  0  0  0  0  0  0  0  0
   35.9880   28.6810   36.8270 H   0  0  0  0  0  0  0  0  0  0  0  0
   37.4340   30.4930   37.5070 H   0  0  0  0  0  0  0  0  0  0  0  0
   34.0760   28.8310   40.6250 H   0  0  0  0  0  0  0  0  0  0  0  0
   38.7640   30.0000   41.0170 C   0  0  0  0  0  0  0  0  0  0  0  0
   37.9670   29.3980   40.5500 H   0  0  0  0  0  0  0  0  0  0  0  0
   39.7440   29.7310   40.5720 H   0  0  0  0  0  0  0  0  0  0  0  0
   38.7670   29.7430   42.4930 C   0  0  0  0  0  3  0  0  0  0  0  0
   37.5170   28.9150   42.7900 C   0  0  0  0  0  2  0  0  0  0  0  0
   37.9780   27.7780   43.6790 C   0  0  0  0  0  2  0  0  0  0  0  0
   39.3170   27.4330   43.0340 C   0  0  0  0  0  2  0  0  0  0  0  0
   39.9340   28.7940   42.7890 C   0  0  0  0  0  2  0  0  0  0  0  0
  1  2  1  0  0  0  0
  2 20  1  0  0  0  0
  2  3  2  0  0  0  0
  3  7  1  0  0  0  0
  4  8  1  0  0  0  0
  4  3  1  0  0  0  0
  5  4  2  0  0  0  0
  6  1  2  0  0  0  0
  6  5  1  0  0  0  0
  9  5  1  0  0  0  0
 10  6  1  0  0  0  0
 11 12  2  0  0  0  0
 11 16  1  0  0  0  0
 12 13  1  0  0  0  0
 13  1  1  0  0  0  0
 13 14  2  0  0  0  0
 15 14  1  0  0  0  0
 15 19  1  0  0  0  0
 16 15  2  0  0  0  0
 17 11  1  0  0  0  0
 18 12  1  0  0  0  0
 20 23  1  0  0  0  0
 21 20  1  0  0  0  0
 22 20  1  0  0  0  0
 23 27  1  0  0  0  0
 23 24  1  0  0  0  0
 24 25  1  0  0  0  0
 26 25  1  0  0  0  0
 27 26  1  0  0  0  0
M  END
>  <minimizedAffinity>
-5.3041544

$$$$

 OpenBabel03252508433D

 27 29  0  0  0  0  0  0  0  0999 V2000
   36.7430   30.2750   38.5020 C   0  0  0  0  0  0  0  0  0  0  0  0
   36.0320   29.4200   39.3420 C   0  0  0  0  0  0  0  0  0  0  0  0
   35.1650   28.5050   38.7670 C   0  0  0  0  0  0  0  0  0  0  0  0
   35.0290   28.4620   37.4100 C   0  0  0  0  0  0  0  0  0  0  0  0
   35.7120   29.2860   36.5610 C   0  0  0  0  0  0  0  0  0  0  0  0
   36.5690   30.1880   37.1760 C   0  0  0  0  0  0  0  0  0  0  0  0
   34.5890   27.8180   39.3540 H   0  0  0  0  0  0  0  0  0  0  0  0
   34.3490   27.7440   36.9580 H   0  0  0  0  0  0  0  0  0  0  0  0
   35.6360   29.2870   35.4860 H   0  0  0  0  0  0  0  0  0  0  0  0
   37.1620   30.8910   36.6010 H   0  0  0  0  0  0  0  0  0  0  0  0
   38.1910   33.2740   40.2970 C   0  0  0  0  0  0  0  0  0  0  0  0
   37.2290   32.4440   39.6760 C   0  0  0  0  0  0  0  0  0  0  0  0
   37.6370   31.2140   39.1610 C   0  0  0  0  0  0  0  0  0  0  0  0
   38.9440   30.8860   39.2880 N   0  0  0  0  0  0  0  0  0  0  0  0
   39.8500   31.7000   39.8870 C   0  0  0  0  0  0  0  0  0  0  0  0
   39.4800   32.8870   40.3900 N   0  0  0  0  0  0  0  0  0  0  0  0
   37.7210   34.1870   40.6410 H   0  0  0  0  0  0  0  0  0  0  0  0
   36.1960   32.6620   39.5560 H   0  0  0  0  0  0  0  0  0  0  0  0
   40.8920   31.4270   39.9830 H   0  0  0  0  0  0  0  0  0  0  0  0
   36.1970   29.4990   40.8190 C   0  0  0  0  0  0  0  0  0  0  0  0
   36.4450   30.5430   41.0740 H   0  0  0  0  0  0  0  0  0  0  0  0
   35.2090   29.2350   41.2470 H   0  0  0  0  0  0  0  0  0  0  0  0
   37.2640   28.5980   41.3620 C   0  0  0  0  0  3  0  0  0  0  0  0
   37.8200   29.2880   42.6080 C   0  0  0  0  0  2  0  0  0  0  0  0
   37.8770   28.2180   43.6800 C   0  0  0  0  0  2  0  0  0  0  0  0
   36.5770   27.4680   43.4060 C   0  0  0  0  0  2  0  0  0  0  0  0
   36.5710   27.3400   41.8970 C   0  0  0  0  0  2  0  0  0  0  0  0
  1 13  1  0  0  0  0
  1  2  1  0  0  0  0
  2 20  1  0  0  0  0
  3  2  2  0  0  0  0
  3  7  1  0  0  0  0
  4  3  1  0  0  0  0
  5  6  1  0  0  0  0
  5  4  2  0  0  0  0
  6  1  2  0  0  0  0
  8  4  1  0  0  0  0
  9  5  1  0  0  0  0
 10  6  1  0  0  0  0
 11 16  1  0  0  0  0
 11 17  1  0  0  0  0
 12 11  2  0  0  0  0
 13 14  2  0  0  0  0
 13 12  1  0  0  0  0
 14 15  1  0  0  0  0
 15 19  1  0  0  0  0
 15 16  2  0  0  0  0
 18 12  1  0  0  0  0
 20 21  1  0  0  0  0
 20 22  1  0  0  0  0
 20 23  1  0  0  0  0
 23 27  1  0  0  0  0
 23 24  1  0  0  0  0
 24 25  1  0  0  0  0
 26 25  1  0  0  0  0
 27 26  1  0  0  0  0
M  END
>  <minimizedAffinity>
-5.19815397

$$$$

 OpenBabel03252508433D

 27 29  0  0  0  0  0  0  0  0999 V2000
   37.6350   29.3980   41.6690 C   0  0  0  0  0  0  0  0  0  0  0  0
   37.1850   28.3210   40.9070 C   0  0  0  0  0  0  0  0  0  0  0  0
   36.9050   27.1290   41.5550 C   0  0  0  0  0  0  0  0  0  0  0  0
   37.0740   27.0380   42.9060 C   0  0  0  0  0  0  0  0  0  0  0  0
   37.5130   28.0750   43.6800 C   0  0  0  0  0  0  0  0  0  0  0  0
   37.7830   29.2510   42.9930 C   0  0  0  0  0  0  0  0  0  0  0  0
   36.5550   26.2630   41.0310 H   0  0  0  0  0  0  0  0  0  0  0  0
   36.8530   26.1030   43.4160 H   0  0  0  0  0  0  0  0  0  0  0  0
   37.6600   28.0490   44.7470 H   0  0  0  0  0  0  0  0  0  0  0  0
   38.1370   30.1390   43.5040 H   0  0  0  0  0  0  0  0  0  0  0  0
   37.3290   32.7060   39.8590 C   0  0  0  0  0  0  0  0  0  0  0  0
   36.9370   31.5490   40.5720 C   0  0  0  0  0  0  0  0  0  0  0  0
   37.9140   30.6220   40.9350 C   0  0  0  0  0  0  0  0  0  0  0  0
   39.1920   30.8910   40.5790 N   0  0  0  0  0  0  0  0  0  0  0  0
   39.5440   32.0080   39.8940 C   0  0  0  0  0  0  0  0  0  0  0  0
   38.6220   32.9120   39.5340 N   0  0  0  0  0  0  0  0  0  0  0  0
   36.4620   33.3220   39.6520 H   0  0  0  0  0  0  0  0  0  0  0  0
   35.9480   31.3010   40.8710 H   0  0  0  0  0  0  0  0  0  0  0  0
   40.5690   32.2110   39.6150 H   0  0  0  0  0  0  0  0  0  0  0  0
   37.0210   28.4520   39.4340 C   0  0  0  0  0  0  0  0  0  0  0  0
   37.0410   29.5270   39.1870 H   0  0  0  0  0  0  0  0  0  0  0  0
   37.9030   27.9500   38.9870 H   0  0  0  0  0  0  0  0  0  0  0  0
   35.7510   27.8560   38.9070 C   0  0  0  0  0  3  0  0  0  0  0  0
   34.6540   28.8920   39.1490 C   0  0  0  0  0  2  0  0  0  0  0  0
   33.8840   28.9880   37.8470 C   0  0  0  0  0  2  0  0  0  0  0  0
   35.0210   28.9030   36.8340 C   0  0  0  0  0  2  0  0  0  0  0  0
   35.8800   27.7820   37.3820 C   0  0  0  0  0  2  0  0  0  0  0  0
  1  6  1  0  0  0  0
  2  3  1  0  0  0  0
  2  1  2  0  0  0  0
  3  4  2  0  0  0  0
  4  8  1  0  0  0  0
  4  5  1  0  0  0  0
  5  9  1  0  0  0  0
  6 10  1  0  0  0  0
  6  5  2  0  0  0  0
  7  3  1  0  0  0  0
 11 12  1  0  0  0  0
 12 18  1  0  0  0  0
 12 13  2  0  0  0  0
 13  1  1  0  0  0  0
 14 13  1  0  0  0  0
 15 14  2  0  0  0  0
 16 11  2  0  0  0  0
 16 15  1  0  0  0  0
 17 11  1  0  0  0  0
 19 15  1  0  0  0  0
 20  2  1  0  0  0  0
 21 20  1  0  0  0  0
 22 20  1  0  0  0  0
 23 24  1  0  0  0  0
 23 20  1  0  0  0  0
 25 24  1  0  0  0  0
 26 27  1  0  0  0  0
 26 25  1  0  0  0  0
 27 23  1  0  0  0  0
M  END
>  <minimizedAffinity>
-5.04704857

$$$$

 OpenBabel03252508433D

 27 29  0  0  0  0  0  0  0  0999 V2000
   37.2040   31.2020   39.3320 C   0  0  0  0  0  0  0  0  0  0  0  0
   37.9480   30.9100   40.4740 C   0  0  0  0  0  0  0  0  0  0  0  0
   38.5980   31.9510   41.1180 C   0  0  0  0  0  0  0  0  0  0  0  0
   38.4960   33.2190   40.6260 C   0  0  0  0  0  0  0  0  0  0  0  0
   37.7740   33.5360   39.5100 C   0  0  0  0  0  0  0  0  0  0  0  0
   37.1390   32.4670   38.8950 C   0  0  0  0  0  0  0  0  0  0  0  0
   39.1860   31.7970   42.0000 H   0  0  0  0  0  0  0  0  0  0  0  0
   39.0050   34.0370   41.1310 H   0  0  0  0  0  0  0  0  0  0  0  0
   37.6660   34.5220   39.0870 H   0  0  0  0  0  0  0  0  0  0  0  0
   36.5390   32.6000   38.0010 H   0  0  0  0  0  0  0  0  0  0  0  0
   34.7360   28.5030   38.3660 C   0  0  0  0  0  0  0  0  0  0  0  0
   35.2760   29.6130   39.0550 C   0  0  0  0  0  0  0  0  0  0  0  0
   36.5440   30.0720   38.6990 C   0  0  0  0  0  0  0  0  0  0  0  0
   37.1860   29.4180   37.7030 N   0  0  0  0  0  0  0  0  0  0  0  0
   36.6480   28.3530   37.0560 C   0  0  0  0  0  0  0  0  0  0  0  0
   35.4310   27.8950   37.3820 N   0  0  0  0  0  0  0  0  0  0  0  0
   33.7520   28.2700   38.7570 H   0  0  0  0  0  0  0  0  0  0  0  0
   34.8060   30.1530   39.8410 H   0  0  0  0  0  0  0  0  0  0  0  0
   37.1720   27.8390   36.2610 H   0  0  0  0  0  0  0  0  0  0  0  0
   38.0450   29.5140   40.9780 C   0  0  0  0  0  0  0  0  0  0  0  0
   37.6530   28.8450   40.1940 H   0  0  0  0  0  0  0  0  0  0  0  0
   39.1270   29.3220   41.1260 H   0  0  0  0  0  0  0  0  0  0  0  0
   37.2890   29.2710   42.2490 C   0  0  0  0  0  3  0  0  0  0  0  0
   36.5060   27.9740   42.0450 C   0  0  0  0  0  2  0  0  0  0  0  0
   36.7440   27.1480   43.2930 C   0  0  0  0  0  2  0  0  0  0  0  0
   38.2200   27.4350   43.5500 C   0  0  0  0  0  2  0  0  0  0  0  0
   38.3160   28.9310   43.3340 C   0  0  0  0  0  2  0  0  0  0  0  0
  1  2  1  0  0  0  0
  2 20  1  0  0  0  0
  2  3  2  0  0  0  0
  3  7  1  0  0  0  0
  4  3  1  0  0  0  0
  4  8  1  0  0  0  0
  5  4  2  0  0  0  0
  6  1  2  0  0  0  0
  6  5  1  0  0  0  0
  9  5  1  0  0  0  0
 10  6  1  0  0  0  0
 11 17  1  0  0  0  0
 11 12  1  0  0  0  0
 12 18  1  0  0  0  0
 13 12  2  0  0  0  0
 13  1  1  0  0  0  0
 14 13  1  0  0  0  0
 15 16  1  0  0  0  0
 15 14  2  0  0  0  0
 16 11  2  0  0  0  0
 19 15  1  0  0  0  0
 20 22  1  0  0  0  0
 20 23  1  0  0  0  0
 21 20  1  0  0  0  0
 23 27  1  0  0  0  0
 24 23  1  0  0  0  0
 24 25  1  0  0  0  0
 25 26  1  0  0  0  0
 27 26  1  0  0  0  0
M  END
>  <minimizedAffinity>
-5.0285511

$$$$

 OpenBabel03252508433D

 27 29  0  0  0  0  0  0  0  0999 V2000
   37.0070   30.1380   39.3950 C   0  0  0  0  0  0  0  0  0  0  0  0
   36.2140   29.4010   40.2720 C   0  0  0  0  0  0  0  0  0  0  0  0
   35.0740   28.7920   39.7720 C   0  0  0  0  0  0  0  0  0  0  0  0
   34.7600   28.9260   38.4510 C   0  0  0  0  0  0  0  0  0  0  0  0
   35.5170   29.6410   37.5670 C   0  0  0  0  0  0  0  0  0  0  0  0
   36.6500   30.2360   38.1070 C   0  0  0  0  0  0  0  0  0  0  0  0
   34.4200   28.2110   40.3900 H   0  0  0  0  0  0  0  0  0  0  0  0
   33.8660   28.4480   38.0570 H   0  0  0  0  0  0  0  0  0  0  0  0
   35.3080   29.7730   36.5190 H   0  0  0  0  0  0  0  0  0  0  0  0
   37.3250   30.8280   37.4990 H   0  0  0  0  0  0  0  0  0  0  0  0
   40.5170   30.8380   40.6210 C   0  0  0  0  0  0  0  0  0  0  0  0
   39.4390   30.1370   40.0330 C   0  0  0  0  0  0  0  0  0  0  0  0
   38.1900   30.7550   39.9750 C   0  0  0  0  0  0  0  0  0  0  0  0
   38.0860   32.0020   40.4920 N   0  0  0  0  0  0  0  0  0  0  0  0
   39.1350   32.6540   41.0530 C   0  0  0  0  0  0  0  0  0  0  0  0
   40.3450   32.0800   41.1190 N   0  0  0  0  0  0  0  0  0  0  0  0
   41.4120   30.2280   40.5900 H   0  0  0  0  0  0  0  0  0  0  0  0
   39.4780   29.1600   39.6160 H   0  0  0  0  0  0  0  0  0  0  0  0
   39.0400   33.6500   41.4630 H   0  0  0  0  0  0  0  0  0  0  0  0
   36.5810   29.2830   41.7090 C   0  0  0  0  0  0  0  0  0  0  0  0
   37.5910   29.7090   41.8340 H   0  0  0  0  0  0  0  0  0  0  0  0
   35.8440   29.9020   42.2600 H   0  0  0  0  0  0  0  0  0  0  0  0
   36.5780   27.8760   42.2240 C   0  0  0  0  0  3  0  0  0  0  0  0
   37.6910   27.1400   41.4790 C   0  0  0  0  0  2  0  0  0  0  0  0
   38.4670   26.3850   42.5400 C   0  0  0  0  0  2  0  0  0  0  0  0
   38.4820   27.4110   43.6700 C   0  0  0  0  0  2  0  0  0  0  0  0
   37.0560   27.9220   43.6800 C   0  0  0  0  0  2  0  0  0  0  0  0
  1 13  1  0  0  0  0
  1  2  1  0  0  0  0
  2 20  1  0  0  0  0
  3  2  2  0  0  0  0
  3  7  1  0  0  0  0
  4  3  1  0  0  0  0
  5  6  1  0  0  0  0
  5  4  2  0  0  0  0
  6  1  2  0  0  0  0
  8  4  1  0  0  0  0
  9  5  1  0  0  0  0
 10  6  1  0  0  0  0
 11 16  1  0  0  0  0
 12 11  2  0  0  0  0
 13 12  1  0  0  0  0
 13 14  2  0  0  0  0
 14 15  1  0  0  0  0
 15 16  2  0  0  0  0
 15 19  1  0  0  0  0
 17 11  1  0  0  0  0
 18 12  1  0  0  0  0
 20 21  1  0  0  0  0
 20 23  1  0  0  0  0
 20 22  1  0  0  0  0
 23 27  1  0  0  0  0
 24 23  1  0  0  0  0
 24 25  1  0  0  0  0
 25 26  1  0  0  0  0
 26 27  1  0  0  0  0
M  END
>  <minimizedAffinity>
-5.01261663

$$$$

 OpenBabel03252508433D

 27 29  0  0  0  0  0  0  0  0999 V2000
   35.8750   28.3750   40.0200 C   0  0  0  0  0  0  0  0  0  0  0  0
   36.2900   27.3260   39.2020 C   0  0  0  0  0  0  0  0  0  0  0  0
   35.5670   27.0650   38.0490 C   0  0  0  0  0  0  0  0  0  0  0  0
   34.4800   27.8310   37.7450 C   0  0  0  0  0  0  0  0  0  0  0  0
   34.0490   28.8660   38.5260 C   0  0  0  0  0  0  0  0  0  0  0  0
   34.7990   29.0950   39.6710 C   0  0  0  0  0  0  0  0  0  0  0  0
   35.8320   26.2740   37.3770 H   0  0  0  0  0  0  0  0  0  0  0  0
   33.9120   27.6280   36.8400 H   0  0  0  0  0  0  0  0  0  0  0  0
   33.1980   29.4960   38.3250 H   0  0  0  0  0  0  0  0  0  0  0  0
   34.5490   29.8900   40.3650 H   0  0  0  0  0  0  0  0  0  0  0  0
   37.3340   28.2120   43.5060 C   0  0  0  0  0  0  0  0  0  0  0  0
   36.4970   27.9030   42.4080 C   0  0  0  0  0  0  0  0  0  0  0  0
   36.6710   28.6020   41.2150 C   0  0  0  0  0  0  0  0  0  0  0  0
   37.6420   29.5460   41.1800 N   0  0  0  0  0  0  0  0  0  0  0  0
   38.4320   29.8260   42.2470 C   0  0  0  0  0  0  0  0  0  0  0  0
   38.2830   29.1660   43.4040 N   0  0  0  0  0  0  0  0  0  0  0  0
   37.0760   27.5870   44.3530 H   0  0  0  0  0  0  0  0  0  0  0  0
   35.7260   27.1720   42.3940 H   0  0  0  0  0  0  0  0  0  0  0  0
   39.2050   30.5820   42.2070 H   0  0  0  0  0  0  0  0  0  0  0  0
   37.4760   26.5040   39.5680 C   0  0  0  0  0  0  0  0  0  0  0  0
   38.2960   26.7730   38.8810 H   0  0  0  0  0  0  0  0  0  0  0  0
   37.7420   26.8040   40.6030 H   0  0  0  0  0  0  0  0  0  0  0  0
   37.2400   25.0270   39.4910 C   0  0  0  0  0  3  0  0  0  0  0  0
   38.6180   24.3670   39.5230 C   0  0  0  0  0  2  0  0  0  0  0  0
   38.5140   23.2440   40.5360 C   0  0  0  0  0  2  0  0  0  0  0  0
   37.6600   23.9060   41.6120 C   0  0  0  0  0  2  0  0  0  0  0  0
   36.5810   24.6010   40.8080 C   0  0  0  0  0  2  0  0  0  0  0  0
  1 13  1  0  0  0  0
  2 20  1  0  0  0  0
  2  1  2  0  0  0  0
  3  2  1  0  0  0  0
  4  3  2  0  0  0  0
  4  5  1  0  0  0  0
  5  6  2  0  0  0  0
  6  1  1  0  0  0  0
  6 10  1  0  0  0  0
  7  3  1  0  0  0  0
  8  4  1  0  0  0  0
  9  5  1  0  0  0  0
 11 17  1  0  0  0  0
 12 11  2  0  0  0  0
 13 12  1  0  0  0  0
 14 13  2  0  0  0  0
 14 15  1  0  0  0  0
 15 16  2  0  0  0  0
 16 11  1  0  0  0  0
 18 12  1  0  0  0  0
 19 15  1  0  0  0  0
 20 22  1  0  0  0  0
 21 20  1  0  0  0  0
 23 24  1  0  0  0  0
 23 20  1  0  0  0  0
 23 27  1  0  0  0  0
 24 25  1  0  0  0  0
 25 26  1  0  0  0  0
 27 26  1  0  0  0  0
M  END
>  <minimizedAffinity>
-4.91794968

$$$$

 OpenBabel03252508433D

 27 29  0  0  0  0  0  0  0  0999 V2000
   37.0180   26.2200   40.0950 C   0  0  0  0  0  0  0  0  0  0  0  0
   36.9820   26.1390   41.4850 C   0  0  0  0  0  0  0  0  0  0  0  0
   37.1060   24.8910   42.0750 C   0  0  0  0  0  0  0  0  0  0  0  0
   37.2600   23.7860   41.2910 C   0  0  0  0  0  0  0  0  0  0  0  0
   37.3000   23.8320   39.9260 C   0  0  0  0  0  0  0  0  0  0  0  0
   37.1720   25.1000   39.3750 C   0  0  0  0  0  0  0  0  0  0  0  0
   37.0880   24.7580   43.1380 H   0  0  0  0  0  0  0  0  0  0  0  0
   37.3590   22.8060   41.7530 H   0  0  0  0  0  0  0  0  0  0  0  0
   37.4200   22.9870   39.2690 H   0  0  0  0  0  0  0  0  0  0  0  0
   37.1890   25.2570   38.3020 H   0  0  0  0  0  0  0  0  0  0  0  0
   37.7040   29.6780   38.7230 C   0  0  0  0  0  0  0  0  0  0  0  0
   37.9600   28.4010   39.2740 C   0  0  0  0  0  0  0  0  0  0  0  0
   36.8830   27.5530   39.5320 C   0  0  0  0  0  0  0  0  0  0  0  0
   35.6440   28.0120   39.2360 N   0  0  0  0  0  0  0  0  0  0  0  0
   35.4220   29.2420   38.7090 C   0  0  0  0  0  0  0  0  0  0  0  0
   36.4420   30.0730   38.4530 N   0  0  0  0  0  0  0  0  0  0  0  0
   38.6360   30.2120   38.5830 H   0  0  0  0  0  0  0  0  0  0  0  0
   38.9150   28.0030   39.5190 H   0  0  0  0  0  0  0  0  0  0  0  0
   34.4270   29.5970   38.4770 H   0  0  0  0  0  0  0  0  0  0  0  0
   36.8040   27.3650   42.3100 C   0  0  0  0  0  0  0  0  0  0  0  0
   36.7030   28.2210   41.6230 H   0  0  0  0  0  0  0  0  0  0  0  0
   35.8560   27.2180   42.8670 H   0  0  0  0  0  0  0  0  0  0  0  0
   37.9350   27.6310   43.2570 C   0  0  0  0  0  3  0  0  0  0  0  0
   39.2220   27.3310   42.4890 C   0  0  0  0  0  2  0  0  0  0  0  0
   40.1430   28.5040   42.7550 C   0  0  0  0  0  2  0  0  0  0  0  0
   39.1540   29.6640   42.7010 C   0  0  0  0  0  2  0  0  0  0  0  0
   37.9790   29.1440   43.5010 C   0  0  0  0  0  2  0  0  0  0  0  0
  1  2  1  0  0  0  0
  2  3  2  0  0  0  0
  2 20  1  0  0  0  0
  3  7  1  0  0  0  0
  4  8  1  0  0  0  0
  4  3  1  0  0  0  0
  5  4  2  0  0  0  0
  6  5  1  0  0  0  0
  6  1  2  0  0  0  0
  9  5  1  0  0  0  0
 10  6  1  0  0  0  0
 11 12  1  0  0  0  0
 12 18  1  0  0  0  0
 12 13  2  0  0  0  0
 13  1  1  0  0  0  0
 14 13  1  0  0  0  0
 15 14  2  0  0  0  0
 16 15  1  0  0  0  0
 16 11  2  0  0  0  0
 17 11  1  0  0  0  0
 19 15  1  0  0  0  0
 20 22  1  0  0  0  0
 20 23  1  0  0  0  0
 21 20  1  0  0  0  0
 23 27  1  0  0  0  0
 24 25  1  0  0  0  0
 24 23  1  0  0  0  0
 26 25  1  0  0  0  0
 26 27  1  0  0  0  0
M  END
>  <minimizedAffinity>
-4.8347187

$$$$

 OpenBabel03252508433D

 27 29  0  0  0  0  0  0  0  0999 V2000
   36.5630   28.0960   39.8990 C   0  0  0  0  0  0  0  0  0  0  0  0
   36.3000   29.3810   39.4280 C   0  0  0  0  0  0  0  0  0  0  0  0
   35.6450   29.5160   38.2150 C   0  0  0  0  0  0  0  0  0  0  0  0
   35.2760   28.4020   37.5190 C   0  0  0  0  0  0  0  0  0  0  0  0
   35.5180   27.1300   37.9540 C   0  0  0  0  0  0  0  0  0  0  0  0
   36.1770   27.0380   39.1720 C   0  0  0  0  0  0  0  0  0  0  0  0
   35.4110   30.4730   37.7960 H   0  0  0  0  0  0  0  0  0  0  0  0
   34.7610   28.5060   36.5670 H   0  0  0  0  0  0  0  0  0  0  0  0
   35.2460   26.2230   37.4380 H   0  0  0  0  0  0  0  0  0  0  0  0
   36.4230   26.0790   39.6150 H   0  0  0  0  0  0  0  0  0  0  0  0
   37.3820   27.8700   43.5850 C   0  0  0  0  0  0  0  0  0  0  0  0
   36.6020   27.9460   42.4070 C   0  0  0  0  0  0  0  0  0  0  0  0
   37.2530   28.0160   41.1760 C   0  0  0  0  0  0  0  0  0  0  0  0
   38.6070   28.0090   41.1850 N   0  0  0  0  0  0  0  0  0  0  0  0
   39.3340   27.9370   42.3280 C   0  0  0  0  0  0  0  0  0  0  0  0
   38.7290   27.8680   43.5230 N   0  0  0  0  0  0  0  0  0  0  0  0
   36.7340   27.8220   44.4530 H   0  0  0  0  0  0  0  0  0  0  0  0
   35.5410   27.9530   42.3570 H   0  0  0  0  0  0  0  0  0  0  0  0
   40.4150   27.9320   42.3220 H   0  0  0  0  0  0  0  0  0  0  0  0
   36.7240   30.5750   40.2090 C   0  0  0  0  0  0  0  0  0  0  0  0
   35.8220   31.1700   40.4300 H   0  0  0  0  0  0  0  0  0  0  0  0
   37.1520   30.1810   41.1540 H   0  0  0  0  0  0  0  0  0  0  0  0
   37.7200   31.4430   39.5020 C   0  0  0  0  0  3  0  0  0  0  0  0
   37.1180   32.8480   39.4640 C   0  0  0  0  0  2  0  0  0  0  0  0
   38.2270   33.7830   39.9020 C   0  0  0  0  0  2  0  0  0  0  0  0
   38.8700   32.9640   41.0170 C   0  0  0  0  0  2  0  0  0  0  0  0
   38.9420   31.5740   40.4170 C   0  0  0  0  0  2  0  0  0  0  0  0
  1 13  1  0  0  0  0
  2  1  1  0  0  0  0
  2 20  1  0  0  0  0
  3  2  2  0  0  0  0
  4  5  2  0  0  0  0
  4  3  1  0  0  0  0
  5  6  1  0  0  0  0
  6 10  1  0  0  0  0
  6  1  2  0  0  0  0
  7  3  1  0  0  0  0
  8  4  1  0  0  0  0
  9  5  1  0  0  0  0
 11 17  1  0  0  0  0
 12 11  2  0  0  0  0
 13 14  2  0  0  0  0
 13 12  1  0  0  0  0
 14 15  1  0  0  0  0
 15 16  2  0  0  0  0
 16 11  1  0  0  0  0
 18 12  1  0  0  0  0
 19 15  1  0  0  0  0
 20 21  1  0  0  0  0
 20 22  1  0  0  0  0
 23 20  1  0  0  0  0
 23 27  1  0  0  0  0
 24 23  1  0  0  0  0
 24 25  1  0  0  0  0
 25 26  1  0  0  0  0
 27 26  1  0  0  0  0
M  END
>  <minimizedAffinity>
-4.80087519

$$$$

 OpenBabel03252508433D

 27 29  0  0  0  0  0  0  0  0999 V2000
   38.2200   27.5800   41.7330 C   0  0  0  0  0  0  0  0  0  0  0  0
   37.3270   28.6490   41.7170 C   0  0  0  0  0  0  0  0  0  0  0  0
   37.7470   29.8650   42.2300 C   0  0  0  0  0  0  0  0  0  0  0  0
   39.0100   29.9860   42.7330 C   0  0  0  0  0  0  0  0  0  0  0  0
   39.9080   28.9580   42.7630 C   0  0  0  0  0  0  0  0  0  0  0  0
   39.4480   27.7570   42.2400 C   0  0  0  0  0  0  0  0  0  0  0  0
   37.1120   30.7280   42.2480 H   0  0  0  0  0  0  0  0  0  0  0  0
   39.3410   30.9410   43.1360 H   0  0  0  0  0  0  0  0  0  0  0  0
   40.9120   29.0080   43.1500 H   0  0  0  0  0  0  0  0  0  0  0  0
   40.0750   26.8720   42.2130 H   0  0  0  0  0  0  0  0  0  0  0  0
   37.2270   24.7700   39.4040 C   0  0  0  0  0  0  0  0  0  0  0  0
   37.7360   26.0210   39.8220 C   0  0  0  0  0  0  0  0  0  0  0  0
   37.7240   26.3290   41.1820 C   0  0  0  0  0  0  0  0  0  0  0  0
   37.2190   25.4000   42.0280 N   0  0  0  0  0  0  0  0  0  0  0  0
   36.7350   24.2060   41.6030 C   0  0  0  0  0  0  0  0  0  0  0  0
   36.7360   23.8890   40.3000 N   0  0  0  0  0  0  0  0  0  0  0  0
   37.3050   24.6820   38.3260 H   0  0  0  0  0  0  0  0  0  0  0  0
   38.1410   26.7760   39.1930 H   0  0  0  0  0  0  0  0  0  0  0  0
   36.3340   23.4720   42.2880 H   0  0  0  0  0  0  0  0  0  0  0  0
   35.9540   28.4800   41.1680 C   0  0  0  0  0  0  0  0  0  0  0  0
   35.9120   27.5010   40.6610 H   0  0  0  0  0  0  0  0  0  0  0  0
   35.2770   28.4750   42.0470 H   0  0  0  0  0  0  0  0  0  0  0  0
   35.5500   29.5480   40.1980 C   0  0  0  0  0  3  0  0  0  0  0  0
   36.4810   29.4130   38.9930 C   0  0  0  0  0  2  0  0  0  0  0  0
   35.5860   29.4680   37.7720 C   0  0  0  0  0  2  0  0  0  0  0  0
   34.3920   28.6480   38.2530 C   0  0  0  0  0  2  0  0  0  0  0  0
   34.1660   29.1720   39.6560 C   0  0  0  0  0  2  0  0  0  0  0  0
  1  6  1  0  0  0  0
  2  1  2  0  0  0  0
  2  3  1  0  0  0  0
  3  7  1  0  0  0  0
  3  4  2  0  0  0  0
  4  5  1  0  0  0  0
  4  8  1  0  0  0  0
  5  9  1  0  0  0  0
  6  5  2  0  0  0  0
 10  6  1  0  0  0  0
 11 12  2  0  0  0  0
 11 16  1  0  0  0  0
 12 13  1  0  0  0  0
 13  1  1  0  0  0  0
 13 14  2  0  0  0  0
 15 14  1  0  0  0  0
 15 19  1  0  0  0  0
 16 15  2  0  0  0  0
 17 11  1  0  0  0  0
 18 12  1  0  0  0  0
 20  2  1  0  0  0  0
 20 22  1  0  0  0  0
 21 20  1  0  0  0  0
 23 20  1  0  0  0  0
 24 23  1  0  0  0  0
 25 26  1  0  0  0  0
 25 24  1  0  0  0  0
 26 27  1  0  0  0  0
 27 23  1  0  0  0  0
M  END
>  <minimizedAffinity>
-4.75398493

$$$$
