
 OpenBabel03252504513D

 30 32  0  0  0  0  0  0  0  0999 V2000
   37.7180   27.1640   40.8140 C   0  0  0  0  0  0  0  0  0  0  0  0
   37.1560   26.7930   42.0440 C   0  0  0  0  0  0  0  0  0  0  0  0
   36.8870   27.8220   42.9620 C   0  0  0  0  0  0  0  0  0  0  0  0
   37.1910   29.0970   42.5910 N   0  0  0  0  0  0  0  0  0  0  0  0
   37.7250   29.4100   41.4130 C   0  0  0  0  0  0  0  0  0  0  0  0
   37.9880   28.4410   40.5260 N   0  0  0  0  0  0  0  0  0  0  0  0
   37.9550   26.4280   40.0510 H   0  0  0  0  0  0  0  0  0  0  0  0
   36.4570   27.5960   43.9200 H   0  0  0  0  0  0  0  0  0  0  0  0
   40.4010   30.4490   42.4410 Cl  0  0  0  0  0  0  0  0  0  0  0  0
   39.2140   31.3610   41.5050 C   0  0  0  0  0  0  0  0  0  0  0  0
   38.0250   30.8020   41.0830 C   0  0  0  0  0  0  0  0  0  0  0  0
   37.1190   31.5400   40.3530 C   0  0  0  0  0  0  0  0  0  0  0  0
   37.3950   32.8600   40.0350 C   0  0  0  0  0  0  0  0  0  0  0  0
   38.5870   33.3790   40.4740 C   0  0  0  0  0  0  0  0  0  0  0  0
   38.9340   35.0490   40.0700 Cl  0  0  0  0  0  0  0  0  0  0  0  0
   39.5100   32.6780   41.1990 C   0  0  0  0  0  0  0  0  0  0  0  0
   36.1760   31.1200   40.0100 H   0  0  0  0  0  0  0  0  0  0  0  0
   36.6790   33.4350   39.4620 H   0  0  0  0  0  0  0  0  0  0  0  0
   40.4350   33.1110   41.5280 H   0  0  0  0  0  0  0  0  0  0  0  0
   36.8720   25.3950   42.3320 C   0  0  0  0  0  0  0  0  0  0  0  0
   36.5320   25.3070   43.3710 H   0  0  0  0  0  0  0  0  0  0  0  0
   36.1060   24.9540   41.6660 H   0  0  0  0  0  0  0  0  0  0  0  0
   38.1560   24.6030   42.0970 C   0  0  0  0  0  0  0  0  0  0  0  0
   38.9840   25.2510   41.8090 H   0  0  0  0  0  0  0  0  0  0  0  0
   38.4640   24.1070   43.0410 H   0  0  0  0  0  0  0  0  0  0  0  0
   37.8330   23.5110   41.1170 C   0  0  0  0  0  3  0  0  0  0  0  0
   36.4540   23.6390   40.5080 C   0  0  0  0  0  2  0  0  0  0  0  0
   36.5500   22.5910   39.3910 C   0  0  0  0  0  2  0  0  0  0  0  0
   37.9100   22.8480   38.8200 C   0  0  0  0  0  2  0  0  0  0  0  0
   38.7140   23.5530   39.8910 C   0  0  0  0  0  2  0  0  0  0  0  0
  1  2  1  0  0  0  0
  2 20  1  0  0  0  0
  2  3  2  0  0  0  0
  3  8  1  0  0  0  0
  4  3  1  0  0  0  0
  5  4  2  0  0  0  0
  6  1  2  0  0  0  0
  6  5  1  0  0  0  0
  7  1  1  0  0  0  0
 10  9  1  0  0  0  0
 11  5  1  0  0  0  0
 11 10  2  0  0  0  0
 12 11  1  0  0  0  0
 13 12  2  0  0  0  0
 13 14  1  0  0  0  0
 14 16  2  0  0  0  0
 15 14  1  0  0  0  0
 16 10  1  0  0  0  0
 16 19  1  0  0  0  0
 17 12  1  0  0  0  0
 18 13  1  0  0  0  0
 20 21  1  0  0  0  0
 22 20  1  0  0  0  0
 23 20  1  0  0  0  0
 23 25  1  0  0  0  0
 24 23  1  0  0  0  0
 26 23  1  0  0  0  0
 27 26  1  0  0  0  0
 28 27  1  0  0  0  0
 29 28  1  0  0  0  0
 29 30  1  0  0  0  0
 30 26  1  0  0  0  0
M  END
>  <minimizedAffinity>
-5.45221138

$$$$

 OpenBabel03252504513D

 30 32  0  0  0  0  0  0  0  0999 V2000
   33.4880   28.9140   37.8400 C   0  0  0  0  0  0  0  0  0  0  0  0
   34.1090   29.0330   36.5880 C   0  0  0  0  0  0  0  0  0  0  0  0
   35.5020   28.8660   36.5460 C   0  0  0  0  0  0  0  0  0  0  0  0
   36.1440   28.6010   37.7180 N   0  0  0  0  0  0  0  0  0  0  0  0
   35.5190   28.4950   38.8880 C   0  0  0  0  0  0  0  0  0  0  0  0
   34.1900   28.6530   38.9460 N   0  0  0  0  0  0  0  0  0  0  0  0
   32.4130   29.0290   37.9550 H   0  0  0  0  0  0  0  0  0  0  0  0
   36.0310   28.9460   35.6140 H   0  0  0  0  0  0  0  0  0  0  0  0
   36.1090   30.9090   40.6560 Cl  0  0  0  0  0  0  0  0  0  0  0  0
   36.5880   29.2400   40.9710 C   0  0  0  0  0  0  0  0  0  0  0  0
   36.2730   28.2100   40.1070 C   0  0  0  0  0  0  0  0  0  0  0  0
   36.6620   26.9160   40.3820 C   0  0  0  0  0  0  0  0  0  0  0  0
   37.3760   26.6360   41.5340 C   0  0  0  0  0  0  0  0  0  0  0  0
   37.6700   27.6870   42.3670 C   0  0  0  0  0  0  0  0  0  0  0  0
   38.5740   27.3290   43.8250 Cl  0  0  0  0  0  0  0  0  0  0  0  0
   37.3010   28.9820   42.1280 C   0  0  0  0  0  0  0  0  0  0  0  0
   36.4250   26.0900   39.7150 H   0  0  0  0  0  0  0  0  0  0  0  0
   37.6790   25.6180   41.7440 H   0  0  0  0  0  0  0  0  0  0  0  0
   37.5450   29.7840   42.7990 H   0  0  0  0  0  0  0  0  0  0  0  0
   33.3200   29.3180   35.3980 C   0  0  0  0  0  0  0  0  0  0  0  0
   33.4600   30.3700   35.1210 H   0  0  0  0  0  0  0  0  0  0  0  0
   33.5830   28.6810   34.5320 H   0  0  0  0  0  0  0  0  0  0  0  0
   31.8600   29.0180   35.7270 C   0  0  0  0  0  0  0  0  0  0  0  0
   31.5350   28.0690   35.2990 H   0  0  0  0  0  0  0  0  0  0  0  0
   31.7390   28.9210   36.8260 H   0  0  0  0  0  0  0  0  0  0  0  0
   31.0530   30.2130   35.3050 C   0  0  0  0  0  3  0  0  0  0  0  0
   30.8340   31.2130   36.4200 C   0  0  0  0  0  2  0  0  0  0  0  0
   30.2590   32.3910   35.6220 C   0  0  0  0  0  2  0  0  0  0  0  0
   31.1480   32.4330   34.4180 C   0  0  0  0  0  2  0  0  0  0  0  0
   31.7630   31.0580   34.2730 C   0  0  0  0  0  2  0  0  0  0  0  0
  1  7  1  0  0  0  0
  1  6  1  0  0  0  0
  2  1  2  0  0  0  0
  3  2  1  0  0  0  0
  3  4  2  0  0  0  0
  4  5  1  0  0  0  0
  5  6  2  0  0  0  0
  5 11  1  0  0  0  0
  8  3  1  0  0  0  0
  9 10  1  0  0  0  0
 10 16  1  0  0  0  0
 11 12  1  0  0  0  0
 11 10  2  0  0  0  0
 12 13  2  0  0  0  0
 13 18  1  0  0  0  0
 13 14  1  0  0  0  0
 14 15  1  0  0  0  0
 16 14  2  0  0  0  0
 16 19  1  0  0  0  0
 17 12  1  0  0  0  0
 20 23  1  0  0  0  0
 20  2  1  0  0  0  0
 21 20  1  0  0  0  0
 22 20  1  0  0  0  0
 23 25  1  0  0  0  0
 24 23  1  0  0  0  0
 26 23  1  0  0  0  0
 26 27  1  0  0  0  0
 28 27  1  0  0  0  0
 29 28  1  0  0  0  0
 30 29  1  0  0  0  0
 30 26  1  0  0  0  0
M  END
>  <minimizedAffinity>
-5.36982775

$$$$

 OpenBabel03252504513D

 30 32  0  0  0  0  0  0  0  0999 V2000
   38.0290   27.3120   40.4890 C   0  0  0  0  0  0  0  0  0  0  0  0
   37.5010   26.8750   41.7120 C   0  0  0  0  0  0  0  0  0  0  0  0
   37.1240   27.8630   42.6370 C   0  0  0  0  0  0  0  0  0  0  0  0
   37.2980   29.1650   42.2790 N   0  0  0  0  0  0  0  0  0  0  0  0
   37.8030   29.5420   41.1060 C   0  0  0  0  0  0  0  0  0  0  0  0
   38.1680   28.6120   40.2130 N   0  0  0  0  0  0  0  0  0  0  0  0
   38.3430   26.6110   39.7210 H   0  0  0  0  0  0  0  0  0  0  0  0
   36.7140   27.5850   43.5910 H   0  0  0  0  0  0  0  0  0  0  0  0
   40.2440   30.8920   42.3390 Cl  0  0  0  0  0  0  0  0  0  0  0  0
   39.0370   31.6560   41.3030 C   0  0  0  0  0  0  0  0  0  0  0  0
   37.9620   30.9600   40.7900 C   0  0  0  0  0  0  0  0  0  0  0  0
   37.0370   31.5860   39.9820 C   0  0  0  0  0  0  0  0  0  0  0  0
   37.1790   32.9290   39.6770 C   0  0  0  0  0  0  0  0  0  0  0  0
   38.2610   33.5860   40.2060 C   0  0  0  0  0  0  0  0  0  0  0  0
   38.4380   35.2860   39.8170 Cl  0  0  0  0  0  0  0  0  0  0  0  0
   39.1980   32.9990   41.0100 C   0  0  0  0  0  0  0  0  0  0  0  0
   36.1810   31.0560   39.5680 H   0  0  0  0  0  0  0  0  0  0  0  0
   36.4480   33.4160   39.0430 H   0  0  0  0  0  0  0  0  0  0  0  0
   40.0350   33.5390   41.4090 H   0  0  0  0  0  0  0  0  0  0  0  0
   37.3600   25.4530   41.9880 C   0  0  0  0  0  0  0  0  0  0  0  0
   37.5070   25.2800   43.0610 H   0  0  0  0  0  0  0  0  0  0  0  0
   36.3760   25.0420   41.6900 H   0  0  0  0  0  0  0  0  0  0  0  0
   38.4050   24.7140   41.1560 C   0  0  0  0  0  0  0  0  0  0  0  0
   38.0110   23.7870   40.7410 H   0  0  0  0  0  0  0  0  0  0  0  0
   38.7020   25.3410   40.2900 H   0  0  0  0  0  0  0  0  0  0  0  0
   39.6280   24.5550   42.0160 C   0  0  0  0  0  3  0  0  0  0  0  0
   40.8550   25.2320   41.4450 C   0  0  0  0  0  2  0  0  0  0  0  0
   41.8040   25.1360   42.6470 C   0  0  0  0  0  2  0  0  0  0  0  0
   40.9150   25.5060   43.7940 C   0  0  0  0  0  2  0  0  0  0  0  0
   39.4910   25.2460   43.3520 C   0  0  0  0  0  2  0  0  0  0  0  0
  1  2  1  0  0  0  0
  2 20  1  0  0  0  0
  2  3  2  0  0  0  0
  3  8  1  0  0  0  0
  4  3  1  0  0  0  0
  5  4  2  0  0  0  0
  6  1  2  0  0  0  0
  6  5  1  0  0  0  0
  7  1  1  0  0  0  0
 10  9  1  0  0  0  0
 11  5  1  0  0  0  0
 11 10  2  0  0  0  0
 12 11  1  0  0  0  0
 13 12  2  0  0  0  0
 13 14  1  0  0  0  0
 14 16  2  0  0  0  0
 15 14  1  0  0  0  0
 16 10  1  0  0  0  0
 16 19  1  0  0  0  0
 17 12  1  0  0  0  0
 18 13  1  0  0  0  0
 20 21  1  0  0  0  0
 22 20  1  0  0  0  0
 23 20  1  0  0  0  0
 23 26  1  0  0  0  0
 24 23  1  0  0  0  0
 25 23  1  0  0  0  0
 26 30  1  0  0  0  0
 27 26  1  0  0  0  0
 27 28  1  0  0  0  0
 28 29  1  0  0  0  0
 30 29  1  0  0  0  0
M  END
>  <minimizedAffinity>
-5.27920818

$$$$

 OpenBabel03252504513D

 30 32  0  0  0  0  0  0  0  0999 V2000
   38.7590   27.2490   40.7760 C   0  0  0  0  0  0  0  0  0  0  0  0
   38.4050   26.8000   42.0560 C   0  0  0  0  0  0  0  0  0  0  0  0
   38.1120   27.7780   43.0200 C   0  0  0  0  0  0  0  0  0  0  0  0
   38.1920   29.0840   42.6410 N   0  0  0  0  0  0  0  0  0  0  0  0
   38.5320   29.4720   41.4150 C   0  0  0  0  0  0  0  0  0  0  0  0
   38.8150   28.5510   40.4830 N   0  0  0  0  0  0  0  0  0  0  0  0
   39.0000   26.5550   39.9750 H   0  0  0  0  0  0  0  0  0  0  0  0
   37.8360   27.4910   44.0180 H   0  0  0  0  0  0  0  0  0  0  0  0
   35.9440   30.6870   40.3530 Cl  0  0  0  0  0  0  0  0  0  0  0  0
   37.4750   31.5310   40.5910 C   0  0  0  0  0  0  0  0  0  0  0  0
   38.5980   30.8930   41.0790 C   0  0  0  0  0  0  0  0  0  0  0  0
   39.7790   31.5810   41.2540 C   0  0  0  0  0  0  0  0  0  0  0  0
   39.8510   32.9270   40.9390 C   0  0  0  0  0  0  0  0  0  0  0  0
   38.7150   33.5250   40.4560 C   0  0  0  0  0  0  0  0  0  0  0  0
   38.8090   35.2290   40.0590 Cl  0  0  0  0  0  0  0  0  0  0  0  0
   37.5260   32.8760   40.2700 C   0  0  0  0  0  0  0  0  0  0  0  0
   40.6760   31.0980   41.6370 H   0  0  0  0  0  0  0  0  0  0  0  0
   40.7830   33.4620   41.0780 H   0  0  0  0  0  0  0  0  0  0  0  0
   36.6520   33.3710   39.8910 H   0  0  0  0  0  0  0  0  0  0  0  0
   38.3520   25.3750   42.3480 C   0  0  0  0  0  0  0  0  0  0  0  0
   38.9650   24.8370   41.6140 H   0  0  0  0  0  0  0  0  0  0  0  0
   38.7060   25.1200   43.3660 H   0  0  0  0  0  0  0  0  0  0  0  0
   36.8900   24.9410   42.2780 C   0  0  0  0  0  0  0  0  0  0  0  0
   36.5210   24.6040   43.2460 H   0  0  0  0  0  0  0  0  0  0  0  0
   36.2600   25.8070   41.9880 H   0  0  0  0  0  0  0  0  0  0  0  0
   36.7770   23.9320   41.1690 C   0  0  0  0  0  3  0  0  0  0  0  0
   36.3550   24.5380   39.8470 C   0  0  0  0  0  2  0  0  0  0  0  0
   36.6090   23.3500   38.9090 C   0  0  0  0  0  2  0  0  0  0  0  0
   37.9340   22.8390   39.3840 C   0  0  0  0  0  2  0  0  0  0  0  0
   38.1070   23.3130   40.8100 C   0  0  0  0  0  2  0  0  0  0  0  0
  1  2  1  0  0  0  0
  2 20  1  0  0  0  0
  2  3  2  0  0  0  0
  3  8  1  0  0  0  0
  4  3  1  0  0  0  0
  5  4  2  0  0  0  0
  6  1  2  0  0  0  0
  6  5  1  0  0  0  0
  7  1  1  0  0  0  0
  9 10  1  0  0  0  0
 10 11  1  0  0  0  0
 11 12  2  0  0  0  0
 11  5  1  0  0  0  0
 12 17  1  0  0  0  0
 13 18  1  0  0  0  0
 13 12  1  0  0  0  0
 14 13  2  0  0  0  0
 15 14  1  0  0  0  0
 16 14  1  0  0  0  0
 16 10  2  0  0  0  0
 19 16  1  0  0  0  0
 20 22  1  0  0  0  0
 21 20  1  0  0  0  0
 23 20  1  0  0  0  0
 23 24  1  0  0  0  0
 25 23  1  0  0  0  0
 26 23  1  0  0  0  0
 27 26  1  0  0  0  0
 28 29  1  0  0  0  0
 28 27  1  0  0  0  0
 29 30  1  0  0  0  0
 30 26  1  0  0  0  0
M  END
>  <minimizedAffinity>
-5.23997736

$$$$

 OpenBabel03252504513D

 30 32  0  0  0  0  0  0  0  0999 V2000
   36.9170   27.8260   41.1550 C   0  0  0  0  0  0  0  0  0  0  0  0
   37.1830   28.9890   41.8920 C   0  0  0  0  0  0  0  0  0  0  0  0
   36.6590   30.1940   41.3990 C   0  0  0  0  0  0  0  0  0  0  0  0
   35.9320   30.1440   40.2480 N   0  0  0  0  0  0  0  0  0  0  0  0
   35.7000   29.0200   39.5750 C   0  0  0  0  0  0  0  0  0  0  0  0
   36.1940   27.8610   40.0320 N   0  0  0  0  0  0  0  0  0  0  0  0
   37.2870   26.8540   41.4710 H   0  0  0  0  0  0  0  0  0  0  0  0
   36.8320   31.1170   41.9230 H   0  0  0  0  0  0  0  0  0  0  0  0
   37.3150   29.1160   36.9900 Cl  0  0  0  0  0  0  0  0  0  0  0  0
   35.5550   29.0860   37.1240 C   0  0  0  0  0  0  0  0  0  0  0  0
   34.9120   29.0420   38.3440 C   0  0  0  0  0  0  0  0  0  0  0  0
   33.5360   29.0180   38.4160 C   0  0  0  0  0  0  0  0  0  0  0  0
   32.7810   29.0390   37.2550 C   0  0  0  0  0  0  0  0  0  0  0  0
   33.4570   29.0830   36.0620 C   0  0  0  0  0  0  0  0  0  0  0  0
   32.4980   29.1080   34.5950 Cl  0  0  0  0  0  0  0  0  0  0  0  0
   34.8200   29.1070   35.9520 C   0  0  0  0  0  0  0  0  0  0  0  0
   33.0080   28.9840   39.3670 H   0  0  0  0  0  0  0  0  0  0  0  0
   31.7000   29.0210   37.3170 H   0  0  0  0  0  0  0  0  0  0  0  0
   35.3210   29.1410   35.0040 H   0  0  0  0  0  0  0  0  0  0  0  0
   37.9730   28.9220   43.1130 C   0  0  0  0  0  0  0  0  0  0  0  0
   38.9690   29.3380   42.9170 H   0  0  0  0  0  0  0  0  0  0  0  0
   37.5180   29.4680   43.9630 H   0  0  0  0  0  0  0  0  0  0  0  0
   38.0540   27.4570   43.5340 C   0  0  0  0  0  0  0  0  0  0  0  0
   37.3230   27.2170   44.3070 H   0  0  0  0  0  0  0  0  0  0  0  0
   37.8150   26.8080   42.6670 H   0  0  0  0  0  0  0  0  0  0  0  0
   39.4830   27.1780   43.9040 C   0  0  0  0  0  3  0  0  0  0  0  0
   39.9250   25.7680   43.5710 C   0  0  0  0  0  2  0  0  0  0  0  0
   41.4380   25.8970   43.7920 C   0  0  0  0  0  2  0  0  0  0  0  0
   41.7510   27.2090   43.1430 C   0  0  0  0  0  2  0  0  0  0  0  0
   40.4620   28.0010   43.1020 C   0  0  0  0  0  2  0  0  0  0  0  0
  1  7  1  0  0  0  0
  1  2  1  0  0  0  0
  2 20  1  0  0  0  0
  3  2  2  0  0  0  0
  3  8  1  0  0  0  0
  4  3  1  0  0  0  0
  5  6  1  0  0  0  0
  5  4  2  0  0  0  0
  6  1  2  0  0  0  0
  9 10  1  0  0  0  0
 10 11  1  0  0  0  0
 11 12  2  0  0  0  0
 11  5  1  0  0  0  0
 12 17  1  0  0  0  0
 13 18  1  0  0  0  0
 13 12  1  0  0  0  0
 14 13  2  0  0  0  0
 15 14  1  0  0  0  0
 16 14  1  0  0  0  0
 16 10  2  0  0  0  0
 19 16  1  0  0  0  0
 20 23  1  0  0  0  0
 20 22  1  0  0  0  0
 21 20  1  0  0  0  0
 23 26  1  0  0  0  0
 23 24  1  0  0  0  0
 25 23  1  0  0  0  0
 27 28  1  0  0  0  0
 27 26  1  0  0  0  0
 29 28  1  0  0  0  0
 30 29  1  0  0  0  0
 30 26  1  0  0  0  0
M  END
>  <minimizedAffinity>
-5.18967533

$$$$

 OpenBabel03252504513D

 30 32  0  0  0  0  0  0  0  0999 V2000
   35.0630   29.2210   36.2170 C   0  0  0  0  0  0  0  0  0  0  0  0
   33.6700   29.0590   36.2240 C   0  0  0  0  0  0  0  0  0  0  0  0
   33.0570   28.8440   37.4690 C   0  0  0  0  0  0  0  0  0  0  0  0
   33.8560   28.8110   38.5710 N   0  0  0  0  0  0  0  0  0  0  0  0
   35.1770   28.9690   38.5250 C   0  0  0  0  0  0  0  0  0  0  0  0
   35.7780   29.1740   37.3450 N   0  0  0  0  0  0  0  0  0  0  0  0
   35.6120   29.3920   35.2950 H   0  0  0  0  0  0  0  0  0  0  0  0
   31.9920   28.7130   37.5350 H   0  0  0  0  0  0  0  0  0  0  0  0
   36.3220   26.2330   39.2320 Cl  0  0  0  0  0  0  0  0  0  0  0  0
   36.5320   27.7240   40.1510 C   0  0  0  0  0  0  0  0  0  0  0  0
   35.9730   28.9200   39.7500 C   0  0  0  0  0  0  0  0  0  0  0  0
   36.1560   30.0680   40.4900 C   0  0  0  0  0  0  0  0  0  0  0  0
   36.9080   30.0320   41.6520 C   0  0  0  0  0  0  0  0  0  0  0  0
   37.4470   28.8240   42.0180 C   0  0  0  0  0  0  0  0  0  0  0  0
   38.3990   28.7810   43.4890 Cl  0  0  0  0  0  0  0  0  0  0  0  0
   37.2880   27.6650   41.3100 C   0  0  0  0  0  0  0  0  0  0  0  0
   35.7230   31.0210   40.1920 H   0  0  0  0  0  0  0  0  0  0  0  0
   37.0480   30.9370   42.2300 H   0  0  0  0  0  0  0  0  0  0  0  0
   37.7220   26.7350   41.6210 H   0  0  0  0  0  0  0  0  0  0  0  0
   32.9160   29.1150   34.9810 C   0  0  0  0  0  0  0  0  0  0  0  0
   33.1310   30.0630   34.4740 H   0  0  0  0  0  0  0  0  0  0  0  0
   33.1430   28.2800   34.2900 H   0  0  0  0  0  0  0  0  0  0  0  0
   31.4350   28.9940   35.3310 C   0  0  0  0  0  0  0  0  0  0  0  0
   30.9750   28.1290   34.8540 H   0  0  0  0  0  0  0  0  0  0  0  0
   31.3240   28.8420   36.4250 H   0  0  0  0  0  0  0  0  0  0  0  0
   30.7910   30.3130   35.0090 C   0  0  0  0  0  3  0  0  0  0  0  0
   30.6130   31.2060   36.2180 C   0  0  0  0  0  2  0  0  0  0  0  0
   30.2220   32.5210   35.5320 C   0  0  0  0  0  2  0  0  0  0  0  0
   31.1840   32.5900   34.3860 C   0  0  0  0  0  2  0  0  0  0  0  0
   31.6520   31.1760   34.1170 C   0  0  0  0  0  2  0  0  0  0  0  0
  1  2  2  0  0  0  0
  1  6  1  0  0  0  0
  2  3  1  0  0  0  0
  3  8  1  0  0  0  0
  3  4  2  0  0  0  0
  5  4  1  0  0  0  0
  5 11  1  0  0  0  0
  6  5  2  0  0  0  0
  7  1  1  0  0  0  0
  9 10  1  0  0  0  0
 10 16  1  0  0  0  0
 11 10  2  0  0  0  0
 11 12  1  0  0  0  0
 12 13  2  0  0  0  0
 13 14  1  0  0  0  0
 13 18  1  0  0  0  0
 14 15  1  0  0  0  0
 16 19  1  0  0  0  0
 16 14  2  0  0  0  0
 17 12  1  0  0  0  0
 20 23  1  0  0  0  0
 20  2  1  0  0  0  0
 21 20  1  0  0  0  0
 22 20  1  0  0  0  0
 23 25  1  0  0  0  0
 24 23  1  0  0  0  0
 26 23  1  0  0  0  0
 26 27  1  0  0  0  0
 28 27  1  0  0  0  0
 29 28  1  0  0  0  0
 30 29  1  0  0  0  0
 30 26  1  0  0  0  0
M  END
>  <minimizedAffinity>
-5.07782841

$$$$

 OpenBabel03252504513D

 30 32  0  0  0  0  0  0  0  0999 V2000
   35.8330   27.7180   39.1440 C   0  0  0  0  0  0  0  0  0  0  0  0
   35.0520   28.8610   39.3700 C   0  0  0  0  0  0  0  0  0  0  0  0
   35.3940   29.6630   40.4710 C   0  0  0  0  0  0  0  0  0  0  0  0
   36.4540   29.2740   41.2330 N   0  0  0  0  0  0  0  0  0  0  0  0
   37.1730   28.1820   40.9860 C   0  0  0  0  0  0  0  0  0  0  0  0
   36.8590   27.4050   39.9410 N   0  0  0  0  0  0  0  0  0  0  0  0
   35.6330   27.0470   38.3140 H   0  0  0  0  0  0  0  0  0  0  0  0
   34.8300   30.5510   40.6920 H   0  0  0  0  0  0  0  0  0  0  0  0
   36.4250   27.2000   43.7750 Cl  0  0  0  0  0  0  0  0  0  0  0  0
   38.0580   27.3710   43.1290 C   0  0  0  0  0  0  0  0  0  0  0  0
   38.2980   27.8250   41.8480 C   0  0  0  0  0  0  0  0  0  0  0  0
   39.5860   27.9470   41.3730 C   0  0  0  0  0  0  0  0  0  0  0  0
   40.6590   27.6120   42.1820 C   0  0  0  0  0  0  0  0  0  0  0  0
   40.3790   27.1650   43.4480 C   0  0  0  0  0  0  0  0  0  0  0  0
   41.7390   26.7410   44.4700 Cl  0  0  0  0  0  0  0  0  0  0  0  0
   39.1160   27.0300   43.9540 C   0  0  0  0  0  0  0  0  0  0  0  0
   39.7980   28.3040   40.3670 H   0  0  0  0  0  0  0  0  0  0  0  0
   41.6680   27.7100   41.8030 H   0  0  0  0  0  0  0  0  0  0  0  0
   38.9280   26.6770   44.9500 H   0  0  0  0  0  0  0  0  0  0  0  0
   33.9390   29.1790   38.4870 C   0  0  0  0  0  0  0  0  0  0  0  0
   33.0040   29.1260   39.0580 H   0  0  0  0  0  0  0  0  0  0  0  0
   34.0190   30.1800   38.0210 H   0  0  0  0  0  0  0  0  0  0  0  0
   33.9510   28.1680   37.3440 C   0  0  0  0  0  0  0  0  0  0  0  0
   34.9360   28.0880   36.8830 H   0  0  0  0  0  0  0  0  0  0  0  0
   33.7090   27.1590   37.7380 H   0  0  0  0  0  0  0  0  0  0  0  0
   32.8400   28.5440   36.4050 C   0  0  0  0  0  3  0  0  0  0  0  0
   31.8660   29.5410   36.9950 C   0  0  0  0  0  2  0  0  0  0  0  0
   31.0660   29.9170   35.7410 C   0  0  0  0  0  2  0  0  0  0  0  0
   32.1380   30.0760   34.7070 C   0  0  0  0  0  2  0  0  0  0  0  0
   33.3360   29.2860   35.1870 C   0  0  0  0  0  2  0  0  0  0  0  0
  1  2  2  0  0  0  0
  1  6  1  0  0  0  0
  2  3  1  0  0  0  0
  3  8  1  0  0  0  0
  3  4  2  0  0  0  0
  5  4  1  0  0  0  0
  5 11  1  0  0  0  0
  6  5  2  0  0  0  0
  7  1  1  0  0  0  0
 10  9  1  0  0  0  0
 10 16  1  0  0  0  0
 11 10  2  0  0  0  0
 12 11  1  0  0  0  0
 12 13  2  0  0  0  0
 13 14  1  0  0  0  0
 14 16  2  0  0  0  0
 14 15  1  0  0  0  0
 16 19  1  0  0  0  0
 17 12  1  0  0  0  0
 18 13  1  0  0  0  0
 20 21  1  0  0  0  0
 20  2  1  0  0  0  0
 22 20  1  0  0  0  0
 23 25  1  0  0  0  0
 23 20  1  0  0  0  0
 24 23  1  0  0  0  0
 26 27  1  0  0  0  0
 26 23  1  0  0  0  0
 28 27  1  0  0  0  0
 29 30  1  0  0  0  0
 29 28  1  0  0  0  0
 30 26  1  0  0  0  0
M  END
>  <minimizedAffinity>
-5.06632137

$$$$

 OpenBabel03252504513D

 30 32  0  0  0  0  0  0  0  0999 V2000
   38.2320   29.0420   40.7640 C   0  0  0  0  0  0  0  0  0  0  0  0
   37.1160   28.8120   41.5820 C   0  0  0  0  0  0  0  0  0  0  0  0
   35.8500   28.9370   40.9870 C   0  0  0  0  0  0  0  0  0  0  0  0
   35.8000   29.2700   39.6670 N   0  0  0  0  0  0  0  0  0  0  0  0
   36.8830   29.4800   38.9230 C   0  0  0  0  0  0  0  0  0  0  0  0
   38.0990   29.3660   39.4750 N   0  0  0  0  0  0  0  0  0  0  0  0
   39.2450   28.9650   41.1490 H   0  0  0  0  0  0  0  0  0  0  0  0
   34.9590   28.7730   41.5660 H   0  0  0  0  0  0  0  0  0  0  0  0
   37.9920   32.2160   38.1550 Cl  0  0  0  0  0  0  0  0  0  0  0  0
   37.2270   31.0540   37.0690 C   0  0  0  0  0  0  0  0  0  0  0  0
   36.7540   29.8350   37.5110 C   0  0  0  0  0  0  0  0  0  0  0  0
   36.1620   28.9490   36.6370 C   0  0  0  0  0  0  0  0  0  0  0  0
   36.0350   29.2770   35.2970 C   0  0  0  0  0  0  0  0  0  0  0  0
   36.5170   30.4980   34.8970 C   0  0  0  0  0  0  0  0  0  0  0  0
   36.3550   30.9090   33.2010 Cl  0  0  0  0  0  0  0  0  0  0  0  0
   37.1100   31.4010   35.7340 C   0  0  0  0  0  0  0  0  0  0  0  0
   35.7820   27.9840   36.9640 H   0  0  0  0  0  0  0  0  0  0  0  0
   35.5680   28.5770   34.6150 H   0  0  0  0  0  0  0  0  0  0  0  0
   37.4790   32.3490   35.3920 H   0  0  0  0  0  0  0  0  0  0  0  0
   37.2890   28.4610   42.9840 C   0  0  0  0  0  0  0  0  0  0  0  0
   38.3570   28.5000   43.2320 H   0  0  0  0  0  0  0  0  0  0  0  0
   36.7360   29.1250   43.6760 H   0  0  0  0  0  0  0  0  0  0  0  0
   36.7210   27.0590   43.1840 C   0  0  0  0  0  0  0  0  0  0  0  0
   36.7200   26.7690   44.2350 H   0  0  0  0  0  0  0  0  0  0  0  0
   35.6620   27.0370   42.8540 H   0  0  0  0  0  0  0  0  0  0  0  0
   37.4790   26.1360   42.2720 C   0  0  0  0  0  3  0  0  0  0  0  0
   38.8580   25.7820   42.7860 C   0  0  0  0  0  2  0  0  0  0  0  0
   39.2290   24.6500   41.8180 C   0  0  0  0  0  2  0  0  0  0  0  0
   37.9640   23.8520   41.7520 C   0  0  0  0  0  2  0  0  0  0  0  0
   36.8360   24.7740   42.1610 C   0  0  0  0  0  2  0  0  0  0  0  0
  1  7  1  0  0  0  0
  1  2  1  0  0  0  0
  2 20  1  0  0  0  0
  3  8  1  0  0  0  0
  3  2  2  0  0  0  0
  4  3  1  0  0  0  0
  5  6  1  0  0  0  0
  5  4  2  0  0  0  0
  6  1  2  0  0  0  0
 10 11  1  0  0  0  0
 10  9  1  0  0  0  0
 11  5  1  0  0  0  0
 12 17  1  0  0  0  0
 12 11  2  0  0  0  0
 13 12  1  0  0  0  0
 14 13  2  0  0  0  0
 14 16  1  0  0  0  0
 15 14  1  0  0  0  0
 16 10  2  0  0  0  0
 18 13  1  0  0  0  0
 19 16  1  0  0  0  0
 20 23  1  0  0  0  0
 20 21  1  0  0  0  0
 20 22  1  0  0  0  0
 23 24  1  0  0  0  0
 25 23  1  0  0  0  0
 26 27  1  0  0  0  0
 26 23  1  0  0  0  0
 28 27  1  0  0  0  0
 29 28  1  0  0  0  0
 29 30  1  0  0  0  0
 30 26  1  0  0  0  0
M  END
>  <minimizedAffinity>
-4.89178896

$$$$

 OpenBabel03252504513D

 30 32  0  0  0  0  0  0  0  0999 V2000
   38.4100   27.2770   39.7210 C   0  0  0  0  0  0  0  0  0  0  0  0
   37.6420   26.6830   40.7340 C   0  0  0  0  0  0  0  0  0  0  0  0
   36.9950   27.5440   41.6350 C   0  0  0  0  0  0  0  0  0  0  0  0
   37.1590   28.8850   41.4580 N   0  0  0  0  0  0  0  0  0  0  0  0
   37.8970   29.4120   40.4840 C   0  0  0  0  0  0  0  0  0  0  0  0
   38.5220   28.6040   39.6160 N   0  0  0  0  0  0  0  0  0  0  0  0
   38.9410   26.6800   38.9850 H   0  0  0  0  0  0  0  0  0  0  0  0
   36.3940   27.1450   42.4310 H   0  0  0  0  0  0  0  0  0  0  0  0
   40.0560   30.6860   42.2190 Cl  0  0  0  0  0  0  0  0  0  0  0  0
   38.9800   31.5270   41.1020 C   0  0  0  0  0  0  0  0  0  0  0  0
   38.0290   30.8610   40.3560 C   0  0  0  0  0  0  0  0  0  0  0  0
   37.2030   31.5470   39.4920 C   0  0  0  0  0  0  0  0  0  0  0  0
   37.3210   32.9210   39.3640 C   0  0  0  0  0  0  0  0  0  0  0  0
   38.2770   33.5470   40.1230 C   0  0  0  0  0  0  0  0  0  0  0  0
   38.4240   35.2860   39.9580 Cl  0  0  0  0  0  0  0  0  0  0  0  0
   39.1140   32.9000   40.9900 C   0  0  0  0  0  0  0  0  0  0  0  0
   36.4470   31.0430   38.8940 H   0  0  0  0  0  0  0  0  0  0  0  0
   36.6690   33.4550   38.6840 H   0  0  0  0  0  0  0  0  0  0  0  0
   39.8540   33.4170   41.5700 H   0  0  0  0  0  0  0  0  0  0  0  0
   37.5380   25.2340   40.8250 C   0  0  0  0  0  0  0  0  0  0  0  0
   38.5150   24.7910   40.5990 H   0  0  0  0  0  0  0  0  0  0  0  0
   37.2040   24.8780   41.8190 H   0  0  0  0  0  0  0  0  0  0  0  0
   36.4760   24.7820   39.8260 C   0  0  0  0  0  0  0  0  0  0  0  0
   35.5200   25.2740   40.0010 H   0  0  0  0  0  0  0  0  0  0  0  0
   36.7890   25.0630   38.7990 H   0  0  0  0  0  0  0  0  0  0  0  0
   36.4340   23.2800   39.8700 C   0  0  0  0  0  3  0  0  0  0  0  0
   36.3710   22.6410   38.4990 C   0  0  0  0  0  2  0  0  0  0  0  0
   36.6250   21.1740   38.8690 C   0  0  0  0  0  2  0  0  0  0  0  0
   37.7430   21.2780   39.8600 C   0  0  0  0  0  2  0  0  0  0  0  0
   37.7030   22.6800   40.4270 C   0  0  0  0  0  2  0  0  0  0  0  0
  1  2  1  0  0  0  0
  2 20  1  0  0  0  0
  2  3  2  0  0  0  0
  3  8  1  0  0  0  0
  4  3  1  0  0  0  0
  5  4  2  0  0  0  0
  6  1  2  0  0  0  0
  6  5  1  0  0  0  0
  7  1  1  0  0  0  0
 10  9  1  0  0  0  0
 11  5  1  0  0  0  0
 11 10  2  0  0  0  0
 12 11  1  0  0  0  0
 13 12  2  0  0  0  0
 13 14  1  0  0  0  0
 14 16  2  0  0  0  0
 15 14  1  0  0  0  0
 16 10  1  0  0  0  0
 16 19  1  0  0  0  0
 17 12  1  0  0  0  0
 18 13  1  0  0  0  0
 20 22  1  0  0  0  0
 21 20  1  0  0  0  0
 23 26  1  0  0  0  0
 23 24  1  0  0  0  0
 23 20  1  0  0  0  0
 25 23  1  0  0  0  0
 26 30  1  0  0  0  0
 27 28  1  0  0  0  0
 27 26  1  0  0  0  0
 28 29  1  0  0  0  0
 29 30  1  0  0  0  0
M  END
>  <minimizedAffinity>
-4.84860897

$$$$
