REMARK  Name = 
REMARK  9 active torsions:
REMARK  status: ('A' for Active; 'I' for Inactive)
REMARK    1  A    between atoms: O_1  and  C_2
REMARK    2  A    between atoms: O_1  and  P_10
REMARK    3  A    between atoms: C_6  and  C_7
REMARK    4  A    between atoms: C_7  and  O_8
REMARK    5  A    between atoms: P_10  and  O_11
REMARK    6  A    between atoms: P_10  and  O_12
REMARK    7  A    between atoms: O_12  and  C_13
REMARK    8  A    between atoms: C_13  and  C_16
REMARK    9  A    between atoms: C_18  and  C_36
REMARK                            x       y       z     vdW  Elec       q    Type
REMARK                         _______ _______ _______ _____ _____    ______ ____
ROOT
ATOM      1  O   UNL     1      44.724  35.349  44.993  0.00  0.00    +0.000 OA
ATOM      2  P   UNL     1      45.577  34.238  44.411  0.00  0.00    +0.000 P 
ENDROOT
BRANCH   2   3
ATOM      3  O   UNL     1      44.605  33.035  43.714  0.00  0.00    +0.000 OA
ATOM      4  H   UNL     1      43.892  33.541  43.225  0.00  0.00    +0.000 HD
ENDBRANCH   2   3
BRANCH   2   5
ATOM      5  O   UNL     1      46.573  34.905  43.249  0.00  0.00    +0.000 OA
BRANCH   5   6
ATOM      6  C   UNL     1      46.802  33.976  42.230  0.00  0.00    +0.000 C 
ATOM      7  C   UNL     1      46.074  34.414  40.956  0.00  0.00    +0.000 C 
ATOM      8  C   UNL     1      46.696  33.484  39.944  0.00  0.00    +0.000 C 
ATOM      9  C   UNL     1      48.076  33.142  40.474  0.00  0.00    +0.000 C 
ATOM     10  C   UNL     1      48.217  33.958  41.742  0.00  0.00    +0.000 C 
ATOM     11  H   UNL     1      46.456  32.964  42.448  0.00  0.00    +0.000 HD
ATOM     12  H   UNL     1      45.007  34.104  41.080  0.00  0.00    +0.000 HD
ATOM     13  H   UNL     1      46.157  35.472  40.739  0.00  0.00    +0.000 HD
ATOM     14  H   UNL     1      46.877  34.108  39.030  0.00  0.00    +0.000 HD
ATOM     15  H   UNL     1      46.082  32.615  39.694  0.00  0.00    +0.000 HD
ATOM     16  H   UNL     1      48.886  33.387  39.759  0.00  0.00    +0.000 HD
ATOM     17  H   UNL     1      48.174  32.064  40.706  0.00  0.00    +0.000 HD
ATOM     18  H   UNL     1      48.829  33.397  42.472  0.00  0.00    +0.000 HD
BRANCH  10  19
ATOM     19  C   UNL     1      48.758  35.337  41.463  0.00  0.00    +0.000 C 
ATOM     20  H   UNL     1      49.274  35.269  40.467  0.00  0.00    +0.000 HD
ATOM     21  H   UNL     1      47.968  36.120  41.419  0.00  0.00    +0.000 HD
BRANCH  19  22
ATOM     22  O   UNL     1      49.657  35.752  42.421  0.00  0.00    +0.000 OA
ATOM     23  H   UNL     1      49.974  35.023  43.028  0.00  0.00    +0.000 HD
ENDBRANCH  19  22
ENDBRANCH  10  19
ENDBRANCH   5   6
ENDBRANCH   2   5
BRANCH   2  24
ATOM     24  O   UNL     1      46.473  33.492  45.603  0.00  0.00    +0.000 OA
BRANCH  24  25
ATOM     25  C   UNL     1      46.231  32.154  45.571  0.00  0.00    +0.000 C 
ATOM     26  H   UNL     1      47.204  31.662  45.298  0.00  0.00    +0.000 HD
ATOM     27  H   UNL     1      45.510  31.776  44.853  0.00  0.00    +0.000 HD
BRANCH  25  30
ATOM     28  C   UNL     1      45.656  31.902  49.238  0.00  0.00    +0.000 A 
ATOM     29  C   UNL     1      45.992  32.455  47.991  0.00  0.00    +0.000 A 
ATOM     30  C   UNL     1      45.884  31.608  46.894  0.00  0.00    +0.000 A 
ATOM     31  N   UNL     1      45.468  30.316  47.078  0.00  0.00    +0.000 NA
ATOM     32  C   UNL     1      45.153  29.818  48.290  0.00  0.00    +0.000 A 
ATOM     33  N   UNL     1      45.249  30.610  49.357  0.00  0.00    +0.000 NA
ATOM     34  H   UNL     1      45.757  32.605  50.070  0.00  0.00    +0.000 HD
ATOM     35  H   UNL     1      46.316  33.471  47.870  0.00  0.00    +0.000 HD
BRANCH  32  36
ATOM     36  C   UNL     1      44.704  28.412  48.465  0.00  0.00    +0.000 C 
ATOM     37  C   UNL     1      43.194  28.328  48.414  0.00  0.00    +0.000 C 
ATOM     38  C   UNL     1      42.702  28.512  49.839  0.00  0.00    +0.000 C 
ATOM     39  C   UNL     1      43.894  28.417  50.740  0.00  0.00    +0.000 C 
ATOM     40  C   UNL     1      45.023  27.909  49.870  0.00  0.00    +0.000 C 
ENDBRANCH  32  36
ENDBRANCH  25  30
ENDBRANCH  24  25
ENDBRANCH   2  24
TORSDOF 9
