
     RDKit          3D

 33 35  0  0  0  0  0  0  0  0999 V2000
   45.5293   34.1555   44.4148 C   0  0  0  0  0  0  0  0  0  0  0  0
   46.5094   33.6122   43.5440 C   0  0  0  0  0  0  0  0  0  0  0  0
   47.4019   32.6822   44.0626 C   0  0  0  0  0  0  0  0  0  0  0  0
   47.2923   32.3401   45.3760 N   0  0  0  0  0  0  0  0  0  0  0  0
   46.3417   32.8832   46.1745 C   0  0  0  0  0  0  0  0  0  0  0  0
   45.4640   33.7915   45.6809 N   0  0  0  0  0  0  0  0  0  0  0  0
   46.3939   32.3861   47.5878 C   0  0  0  0  0  0  0  0  0  0  0  0
   45.3868   32.9168   48.3561 F   0  0  0  0  0  0  0  0  0  0  0  0
   47.6183   32.7379   48.1633 F   0  0  0  0  0  0  0  0  0  0  0  0
   46.3690   30.9971   47.5712 F   0  0  0  0  0  0  0  0  0  0  0  0
   44.5613   35.1594   43.9031 C   0  0  1  0  0  0  0  0  0  0  0  0
   44.9032   36.6107   44.3049 C   0  0  0  0  0  0  0  0  0  0  0  0
   44.9469   36.1443   42.8888 C   0  0  2  0  0  0  0  0  0  0  0  0
   46.5395   33.9247   42.5258 H   0  0  0  0  0  0  0  0  0  0  0  0
   48.1685   32.2352   43.4458 H   0  0  0  0  0  0  0  0  0  0  0  0
   43.5166   34.8825   44.1742 H   0  0  0  0  0  0  0  0  0  0  0  0
   45.8774   36.7853   44.7830 H   0  0  0  0  0  0  0  0  0  0  0  0
   44.0666   37.2730   44.5630 H   0  0  0  0  0  0  0  0  0  0  0  0
   45.9715   35.9582   42.4385 H   0  0  0  0  0  0  0  0  0  0  0  0
   43.9172   36.4724   41.8727 C   0  0  0  0  0  0  0  0  0  0  0  0
   43.2272   35.2477   41.3366 C   0  0  0  0  0  0  0  0  0  0  0  0
   42.0456   35.8921   40.6062 C   0  0  0  0  0  0  0  0  0  0  0  0
   41.5151   36.7837   41.7280 C   0  0  0  0  0  0  0  0  0  0  0  0
   42.7835   37.3347   42.3580 C   0  0  0  0  0  0  0  0  0  0  0  0
   44.4278   36.9836   41.0222 H   0  0  0  0  0  0  0  0  0  0  0  0
   42.7386   34.6744   42.1687 H   0  0  0  0  0  0  0  0  0  0  0  0
   43.8578   34.6387   40.6841 H   0  0  0  0  0  0  0  0  0  0  0  0
   41.2968   35.1555   40.2933 H   0  0  0  0  0  0  0  0  0  0  0  0
   42.4799   36.4879   39.7866 H   0  0  0  0  0  0  0  0  0  0  0  0
   40.8498   37.5711   41.3290 H   0  0  0  0  0  0  0  0  0  0  0  0
   40.9926   36.1285   42.4532 H   0  0  0  0  0  0  0  0  0  0  0  0
   42.9055   38.3695   41.9884 H   0  0  0  0  0  0  0  0  0  0  0  0
   42.6837   37.3147   43.4435 H   0  0  0  0  0  0  0  0  0  0  0  0
  1  6  2  0
  2  3  2  0
  2  1  1  0
  3  4  1  0
  4  5  2  0
  5  7  1  0
  6  5  1  0
  7  9  1  0
  7  8  1  0
 10  7  1  0
 11 12  1  0
 11  1  1  0
 13 11  1  0
 13 12  1  0
  2 14  1  0
  3 15  1  0
 11 16  1  6
 12 17  1  0
 12 18  1  0
 13 19  1  6
 20 21  1  0
 21 22  1  0
 22 23  1  0
 23 24  1  0
 24 20  1  0
 20 25  1  0
 21 26  1  0
 21 27  1  0
 22 28  1  0
 22 29  1  0
 23 30  1  0
 23 31  1  0
 24 32  1  0
 24 33  1  0
 13 20  1  0
M  ISO  6  14  14  15  14  16  13  17  13  18  13  19  13
M  END
>  <DihAtoms>  (1) 
10,12,19,20

>  <DihDeg>  (1) 
60.27050932620724

$$$$
