
 OpenBabel03252504183D

 34 36  0  0  0  0  0  0  0  0999 V2000
   47.1690   29.8780   44.8920 F   0  0  0  0  0  0  0  0  0  0  0  0
   47.2400   30.6770   46.0160 C   0  0  0  0  0  0  0  0  0  0  0  0
   46.8690   32.0050   45.9390 C   0  0  0  0  0  0  0  0  0  0  0  0
   46.9680   32.7380   47.1040 C   0  0  0  0  0  0  0  0  0  0  0  0
   47.4100   32.1760   48.2690 C   0  0  0  0  0  0  0  0  0  0  0  0
   47.7720   30.8320   48.2920 C   0  0  0  0  0  0  0  0  0  0  0  0
   47.6900   30.0450   47.1420 C   0  0  0  0  0  0  0  0  0  0  0  0
   46.7010   33.7710   47.1280 H   0  0  0  0  0  0  0  0  0  0  0  0
   47.4950   32.7250   49.1860 H   0  0  0  0  0  0  0  0  0  0  0  0
   48.1330   30.3180   49.1860 H   0  0  0  0  0  0  0  0  0  0  0  0
   46.7410   34.1570   42.9800 C   0  0  0  0  0  0  0  0  0  0  0  0
   45.5760   33.7450   42.3350 C   0  0  0  0  0  0  0  0  0  0  0  0
   44.8310   32.7190   42.9260 C   0  0  0  0  0  0  0  0  0  0  0  0
   45.2570   32.1700   44.0800 N   0  0  0  0  0  0  0  0  0  0  0  0
   46.3980   32.5950   44.6850 C   0  0  0  0  0  0  0  0  0  0  0  0
   47.1310   33.5800   44.1360 N   0  0  0  0  0  0  0  0  0  0  0  0
   43.9240   32.3830   42.4430 H   0  0  0  0  0  0  0  0  0  0  0  0
   45.1810   34.3980   41.0740 C   0  0  0  0  0  0  0  0  0  0  0  0
   44.9040   35.7310   41.2910 F   0  0  0  0  0  0  0  0  0  0  0  0
   46.2810   34.3490   40.2060 F   0  0  0  0  0  0  0  0  0  0  0  0
   44.1270   33.8290   40.4400 F   0  0  0  0  0  0  0  0  0  0  0  0
   47.4630   35.1490   42.4120 O   0  0  0  0  0  0  0  0  0  0  0  0
   48.7740   35.0600   41.9110 C   0  0  0  0  0  0  0  0  0  0  0  0
   49.6390   35.3050   42.9800 F   0  0  0  0  0  0  0  0  0  0  0  0
   48.9670   33.8390   41.3380 F   0  0  0  0  0  0  0  0  0  0  0  0
   49.0000   36.0880   41.0210 F   0  0  0  0  0  0  0  0  0  0  0  0
   48.0740   28.5980   47.1410 C   0  0  0  0  0  0  0  0  0  0  0  0
   48.8350   28.3480   46.3840 H   0  0  0  0  0  0  0  0  0  0  0  0
   48.4760   28.3680   48.1570 H   0  0  0  0  0  0  0  0  0  0  0  0
   46.8200   27.7630   46.9690 C   0  0  0  0  0  0  0  0  0  0  0  0
   45.6640   28.3360   47.7670 C   0  0  0  0  0  0  0  0  0  0  0  0
   44.6870   27.1660   47.7810 C   0  0  0  0  0  0  0  0  0  0  0  0
   45.5200   25.9210   47.7500 C   0  0  0  0  0  0  0  0  0  0  0  0
   46.9710   26.4150   47.6590 C   0  0  0  0  0  0  0  0  0  0  0  0
  1  2  1  0  0  0  0
  2  7  1  0  0  0  0
  3  2  2  0  0  0  0
  3  4  1  0  0  0  0
  4  8  1  0  0  0  0
  4  5  2  0  0  0  0
  5  6  1  0  0  0  0
  5  9  1  0  0  0  0
  6 10  1  0  0  0  0
  7  6  2  0  0  0  0
 11 16  1  0  0  0  0
 12 13  1  0  0  0  0
 12 11  2  0  0  0  0
 13 14  2  0  0  0  0
 14 15  1  0  0  0  0
 15  3  1  0  0  0  0
 16 15  2  0  0  0  0
 17 13  1  0  0  0  0
 18 19  1  0  0  0  0
 18 12  1  0  0  0  0
 20 18  1  0  0  0  0
 21 18  1  0  0  0  0
 22 11  1  0  0  0  0
 23 22  1  0  0  0  0
 23 24  1  0  0  0  0
 25 23  1  0  0  0  0
 26 23  1  0  0  0  0
 27  7  1  0  0  0  0
 27 29  1  0  0  0  0
 28 27  1  0  0  0  0
 30 27  1  0  0  0  0
 30 34  1  0  0  0  0
 30 31  1  0  0  0  0
 31 32  1  0  0  0  0
 33 32  1  0  0  0  0
 34 33  1  0  0  0  0
M  END
>  <minimizedAffinity>
-5.68552256

>  <minimizedRMSD>
0.654078484

$$$$
