
 OpenBabel03252501563D

 17 18  0  0  0  0  0  0  0  0999 V2000
   39.2100   32.0660   41.3270 C   0  0  0  0  0  0  0  0  0  0  0  0
   39.2450   30.7850   41.8670 C   0  0  0  0  0  0  0  0  0  0  0  0
   38.1230   29.9820   41.7300 C   0  0  0  0  0  0  0  0  0  0  0  0
   37.0460   30.4760   41.0810 N   0  0  0  0  0  0  0  0  0  0  0  0
   37.0490   31.7360   40.5670 C   0  0  0  0  0  0  0  0  0  0  0  0
   38.1240   32.5480   40.6790 N   0  0  0  0  0  0  0  0  0  0  0  0
   40.0350   32.7660   41.3820 H   0  0  0  0  0  0  0  0  0  0  0  0
   36.1150   31.9810   40.0790 H   0  0  0  0  0  0  0  0  0  0  0  0
   38.2000   28.6240   42.3190 C   0  0  0  0  0  3  0  0  0  0  0  0
   37.3200   27.7370   41.4660 C   0  0  0  0  0  2  0  0  0  0  0  0
   37.0150   26.6040   42.4270 C   0  0  0  0  0  2  0  0  0  0  0  0
   36.5520   27.4030   43.6370 C   0  0  0  0  0  2  0  0  0  0  0  0
   37.5010   28.5830   43.6800 C   0  0  0  0  0  2  0  0  0  0  0  0
   40.5030   30.4130   42.5400 C   0  0  0  0  0  0  0  0  0  0  0  0
   40.6780   31.1280   43.3940 H   0  0  0  0  0  0  0  0  0  0  0  0
   41.3520   30.6410   41.8350 H   0  0  0  0  0  0  0  0  0  0  0  0
   40.5480   29.4060   42.9430 H   0  0  0  0  0  0  0  0  0  0  0  0
  1  7  1  0  0  0  0
  1  2  1  0  0  0  0
  2 14  1  0  0  0  0
  3  2  2  0  0  0  0
  3  9  1  0  0  0  0
  4  3  1  0  0  0  0
  5  6  1  0  0  0  0
  5  4  2  0  0  0  0
  6  1  2  0  0  0  0
  8  5  1  0  0  0  0
  9 13  1  0  0  0  0
 10  9  1  0  0  0  0
 10 11  1  0  0  0  0
 11 12  1  0  0  0  0
 12 13  1  0  0  0  0
 14 17  1  0  0  0  0
 14 15  1  0  0  0  0
 16 14  1  0  0  0  0
M  END
>  <minimizedAffinity>
-4.20482492

$$$$

 OpenBabel03252501563D

 17 18  0  0  0  0  0  0  0  0999 V2000
   38.9090   31.9840   40.8220 C   0  0  0  0  0  0  0  0  0  0  0  0
   37.9110   31.0500   41.0760 C   0  0  0  0  0  0  0  0  0  0  0  0
   38.1760   30.0290   41.9770 C   0  0  0  0  0  0  0  0  0  0  0  0
   39.3900   29.9850   42.5680 N   0  0  0  0  0  0  0  0  0  0  0  0
   40.3430   30.9180   42.2940 C   0  0  0  0  0  0  0  0  0  0  0  0
   40.1210   31.9270   41.4230 N   0  0  0  0  0  0  0  0  0  0  0  0
   38.7980   32.8150   40.1370 H   0  0  0  0  0  0  0  0  0  0  0  0
   41.2570   30.7440   42.8470 H   0  0  0  0  0  0  0  0  0  0  0  0
   37.0860   29.0550   42.2190 C   0  0  0  0  0  3  0  0  0  0  0  0
   37.2830   28.5340   43.6260 C   0  0  0  0  0  2  0  0  0  0  0  0
   36.5420   27.2130   43.5630 C   0  0  0  0  0  2  0  0  0  0  0  0
   37.1680   26.6200   42.3080 C   0  0  0  0  0  2  0  0  0  0  0  0
   37.2820   27.8000   41.3660 C   0  0  0  0  0  2  0  0  0  0  0  0
   36.6490   31.2530   40.3410 C   0  0  0  0  0  0  0  0  0  0  0  0
   36.8650   31.2030   39.2350 H   0  0  0  0  0  0  0  0  0  0  0  0
   36.3300   32.3240   40.4930 H   0  0  0  0  0  0  0  0  0  0  0  0
   35.8550   30.5430   40.5510 H   0  0  0  0  0  0  0  0  0  0  0  0
  1  2  2  0  0  0  0
  1  6  1  0  0  0  0
  2  3  1  0  0  0  0
  3  9  1  0  0  0  0
  3  4  2  0  0  0  0
  5  4  1  0  0  0  0
  5  8  1  0  0  0  0
  6  5  2  0  0  0  0
  7  1  1  0  0  0  0
  9 10  1  0  0  0  0
 11 10  1  0  0  0  0
 12 11  1  0  0  0  0
 13  9  1  0  0  0  0
 13 12  1  0  0  0  0
 14 16  1  0  0  0  0
 14 17  1  0  0  0  0
 14  2  1  0  0  0  0
 15 14  1  0  0  0  0
M  END
>  <minimizedAffinity>
-4.07155561

$$$$

 OpenBabel03252501563D

 17 18  0  0  0  0  0  0  0  0999 V2000
   38.3790   28.8060   43.0890 C   0  0  0  0  0  0  0  0  0  0  0  0
   38.6350   27.4480   42.9330 C   0  0  0  0  0  0  0  0  0  0  0  0
   37.7980   26.7110   42.1080 C   0  0  0  0  0  0  0  0  0  0  0  0
   36.7730   27.3410   41.4940 N   0  0  0  0  0  0  0  0  0  0  0  0
   36.5540   28.6730   41.6720 C   0  0  0  0  0  0  0  0  0  0  0  0
   37.3480   29.4230   42.4670 N   0  0  0  0  0  0  0  0  0  0  0  0
   38.9750   29.4630   43.7100 H   0  0  0  0  0  0  0  0  0  0  0  0
   35.6970   29.0250   41.1130 H   0  0  0  0  0  0  0  0  0  0  0  0
   38.1040   25.2680   41.9680 C   0  0  0  0  0  3  0  0  0  0  0  0
   38.7680   25.1000   40.6190 C   0  0  0  0  0  2  0  0  0  0  0  0
   38.5120   23.6320   40.3390 C   0  0  0  0  0  2  0  0  0  0  0  0
   37.0130   23.5730   40.5960 C   0  0  0  0  0  2  0  0  0  0  0  0
   36.8160   24.4540   41.8110 C   0  0  0  0  0  2  0  0  0  0  0  0
   39.7950   26.9300   43.6790 C   0  0  0  0  0  0  0  0  0  0  0  0
   39.6210   27.1010   44.7800 H   0  0  0  0  0  0  0  0  0  0  0  0
   40.6770   27.5950   43.4510 H   0  0  0  0  0  0  0  0  0  0  0  0
   40.0170   25.8750   43.5440 H   0  0  0  0  0  0  0  0  0  0  0  0
  1  7  1  0  0  0  0
  2  1  1  0  0  0  0
  2 14  1  0  0  0  0
  3  2  2  0  0  0  0
  4  5  2  0  0  0  0
  4  3  1  0  0  0  0
  5  6  1  0  0  0  0
  6  1  2  0  0  0  0
  8  5  1  0  0  0  0
  9  3  1  0  0  0  0
 10  9  1  0  0  0  0
 11 12  1  0  0  0  0
 11 10  1  0  0  0  0
 12 13  1  0  0  0  0
 13  9  1  0  0  0  0
 14 15  1  0  0  0  0
 16 14  1  0  0  0  0
 17 14  1  0  0  0  0
M  END
>  <minimizedAffinity>
-3.95235491

$$$$

 OpenBabel03252501563D

 17 18  0  0  0  0  0  0  0  0999 V2000
   37.0380   32.0650   39.9760 C   0  0  0  0  0  0  0  0  0  0  0  0
   36.9930   30.7540   40.4400 C   0  0  0  0  0  0  0  0  0  0  0  0
   38.0260   30.3060   41.2490 C   0  0  0  0  0  0  0  0  0  0  0  0
   39.0290   31.1570   41.5530 N   0  0  0  0  0  0  0  0  0  0  0  0
   39.0400   32.4340   41.0790 C   0  0  0  0  0  0  0  0  0  0  0  0
   38.0510   32.9070   40.2890 N   0  0  0  0  0  0  0  0  0  0  0  0
   36.2800   32.5060   39.3400 H   0  0  0  0  0  0  0  0  0  0  0  0
   39.9080   32.9870   41.4120 H   0  0  0  0  0  0  0  0  0  0  0  0
   37.9400   28.9040   41.7220 C   0  0  0  0  0  3  0  0  0  0  0  0
   37.5830   28.9680   43.1900 C   0  0  0  0  0  2  0  0  0  0  0  0
   38.0740   27.6200   43.6790 C   0  0  0  0  0  2  0  0  0  0  0  0
   39.4880   27.6350   43.1140 C   0  0  0  0  0  2  0  0  0  0  0  0
   39.3260   28.2540   41.7420 C   0  0  0  0  0  2  0  0  0  0  0  0
   35.8230   29.9680   40.0080 C   0  0  0  0  0  0  0  0  0  0  0  0
   35.8220   29.9130   38.8820 H   0  0  0  0  0  0  0  0  0  0  0  0
   34.8980   30.5720   40.2380 H   0  0  0  0  0  0  0  0  0  0  0  0
   35.7670   28.9510   40.3850 H   0  0  0  0  0  0  0  0  0  0  0  0
  1  6  2  0  0  0  0
  1  2  1  0  0  0  0
  2  3  2  0  0  0  0
  3  4  1  0  0  0  0
  3  9  1  0  0  0  0
  5  8  1  0  0  0  0
  5  4  2  0  0  0  0
  6  5  1  0  0  0  0
  7  1  1  0  0  0  0
  9 13  1  0  0  0  0
  9 10  1  0  0  0  0
 10 11  1  0  0  0  0
 12 11  1  0  0  0  0
 13 12  1  0  0  0  0
 14 16  1  0  0  0  0
 14 17  1  0  0  0  0
 14  2  1  0  0  0  0
 15 14  1  0  0  0  0
M  END
>  <minimizedAffinity>
-3.84785557

$$$$

 OpenBabel03252501563D

 17 18  0  0  0  0  0  0  0  0999 V2000
   38.7780   27.2410   43.6800 C   0  0  0  0  0  0  0  0  0  0  0  0
   37.6370   27.7130   43.0390 C   0  0  0  0  0  0  0  0  0  0  0  0
   37.7940   28.4700   41.8880 C   0  0  0  0  0  0  0  0  0  0  0  0
   39.0430   28.7180   41.4390 N   0  0  0  0  0  0  0  0  0  0  0  0
   40.1370   28.2400   42.0940 C   0  0  0  0  0  0  0  0  0  0  0  0
   40.0240   27.4980   43.2180 N   0  0  0  0  0  0  0  0  0  0  0  0
   38.7580   26.6430   44.5820 H   0  0  0  0  0  0  0  0  0  0  0  0
   41.0610   28.5240   41.6090 H   0  0  0  0  0  0  0  0  0  0  0  0
   36.5540   28.9530   41.2340 C   0  0  0  0  0  3  0  0  0  0  0  0
   36.6660   28.5780   39.7730 C   0  0  0  0  0  2  0  0  0  0  0  0
   35.7090   29.5660   39.1350 C   0  0  0  0  0  2  0  0  0  0  0  0
   36.2180   30.8610   39.7540 C   0  0  0  0  0  2  0  0  0  0  0  0
   36.5280   30.4830   41.1870 C   0  0  0  0  0  2  0  0  0  0  0  0
   36.3560   27.3450   43.6700 C   0  0  0  0  0  0  0  0  0  0  0  0
   36.3370   27.7670   44.7150 H   0  0  0  0  0  0  0  0  0  0  0  0
   36.3630   26.2310   43.8400 H   0  0  0  0  0  0  0  0  0  0  0  0
   35.4590   27.6890   43.1620 H   0  0  0  0  0  0  0  0  0  0  0  0
  1  7  1  0  0  0  0
  2 14  1  0  0  0  0
  2  1  2  0  0  0  0
  3  2  1  0  0  0  0
  4  3  2  0  0  0  0
  4  5  1  0  0  0  0
  5  6  2  0  0  0  0
  6  1  1  0  0  0  0
  8  5  1  0  0  0  0
  9  3  1  0  0  0  0
 10  9  1  0  0  0  0
 11 12  1  0  0  0  0
 11 10  1  0  0  0  0
 12 13  1  0  0  0  0
 13  9  1  0  0  0  0
 14 16  1  0  0  0  0
 14 15  1  0  0  0  0
 17 14  1  0  0  0  0
M  END
>  <minimizedAffinity>
-3.80958629

$$$$

 OpenBabel03252501563D

 17 18  0  0  0  0  0  0  0  0999 V2000
   36.5250   29.9850   38.0540 C   0  0  0  0  0  0  0  0  0  0  0  0
   36.0970   29.4110   39.2470 C   0  0  0  0  0  0  0  0  0  0  0  0
   37.0460   29.1260   40.2180 C   0  0  0  0  0  0  0  0  0  0  0  0
   38.3410   29.4160   39.9660 N   0  0  0  0  0  0  0  0  0  0  0  0
   38.7220   29.9770   38.7850 C   0  0  0  0  0  0  0  0  0  0  0  0
   37.8270   30.2700   37.8160 N   0  0  0  0  0  0  0  0  0  0  0  0
   35.8620   30.2440   37.2380 H   0  0  0  0  0  0  0  0  0  0  0  0
   39.7890   30.1470   38.7380 H   0  0  0  0  0  0  0  0  0  0  0  0
   36.5500   28.5160   41.4740 C   0  0  0  0  0  3  0  0  0  0  0  0
   37.3670   29.1190   42.5950 C   0  0  0  0  0  2  0  0  0  0  0  0
   37.2090   28.0710   43.6790 C   0  0  0  0  0  2  0  0  0  0  0  0
   37.5790   26.8220   42.8930 C   0  0  0  0  0  2  0  0  0  0  0  0
   36.9280   27.0340   41.5430 C   0  0  0  0  0  2  0  0  0  0  0  0
   34.6480   29.1650   39.3490 C   0  0  0  0  0  0  0  0  0  0  0  0
   34.3440   28.4590   38.5240 H   0  0  0  0  0  0  0  0  0  0  0  0
   34.1150   30.1210   39.0800 H   0  0  0  0  0  0  0  0  0  0  0  0
   34.3020   28.7400   40.2870 H   0  0  0  0  0  0  0  0  0  0  0  0
  1  2  1  0  0  0  0
  2 14  1  0  0  0  0
  2  3  2  0  0  0  0
  3  9  1  0  0  0  0
  4  3  1  0  0  0  0
  5  4  2  0  0  0  0
  6  1  2  0  0  0  0
  6  5  1  0  0  0  0
  7  1  1  0  0  0  0
  8  5  1  0  0  0  0
  9 13  1  0  0  0  0
  9 10  1  0  0  0  0
 10 11  1  0  0  0  0
 12 11  1  0  0  0  0
 13 12  1  0  0  0  0
 14 17  1  0  0  0  0
 15 14  1  0  0  0  0
 16 14  1  0  0  0  0
M  END
>  <minimizedAffinity>
-3.7865572

$$$$

 OpenBabel03252501563D

 17 18  0  0  0  0  0  0  0  0999 V2000
   38.4410   23.4960   41.2880 C   0  0  0  0  0  0  0  0  0  0  0  0
   38.7580   24.5790   42.1010 C   0  0  0  0  0  0  0  0  0  0  0  0
   37.9490   25.7040   42.0440 C   0  0  0  0  0  0  0  0  0  0  0  0
   36.8910   25.7010   41.2050 N   0  0  0  0  0  0  0  0  0  0  0  0
   36.6130   24.6220   40.4230 C   0  0  0  0  0  0  0  0  0  0  0  0
   37.3770   23.5080   40.4520 N   0  0  0  0  0  0  0  0  0  0  0  0
   39.0110   22.5750   41.2620 H   0  0  0  0  0  0  0  0  0  0  0  0
   35.7360   24.7760   39.8090 H   0  0  0  0  0  0  0  0  0  0  0  0
   38.3200   26.8360   42.9260 C   0  0  0  0  0  3  0  0  0  0  0  0
   37.0280   27.5250   43.3050 C   0  0  0  0  0  2  0  0  0  0  0  0
   37.5240   28.9080   43.6800 C   0  0  0  0  0  2  0  0  0  0  0  0
   38.3650   29.2270   42.4520 C   0  0  0  0  0  2  0  0  0  0  0  0
   39.0590   27.9190   42.1350 C   0  0  0  0  0  2  0  0  0  0  0  0
   39.9480   24.4060   42.9540 C   0  0  0  0  0  0  0  0  0  0  0  0
   40.8420   24.2270   42.2920 H   0  0  0  0  0  0  0  0  0  0  0  0
   39.8360   23.4300   43.5080 H   0  0  0  0  0  0  0  0  0  0  0  0
   40.1880   25.2380   43.6100 H   0  0  0  0  0  0  0  0  0  0  0  0
  1  2  1  0  0  0  0
  2 14  1  0  0  0  0
  3  2  2  0  0  0  0
  3  9  1  0  0  0  0
  4  3  1  0  0  0  0
  5  6  1  0  0  0  0
  5  4  2  0  0  0  0
  6  1  2  0  0  0  0
  7  1  1  0  0  0  0
  8  5  1  0  0  0  0
  9 10  1  0  0  0  0
 10 11  1  0  0  0  0
 12 11  1  0  0  0  0
 13 12  1  0  0  0  0
 13  9  1  0  0  0  0
 14 16  1  0  0  0  0
 14 17  1  0  0  0  0
 15 14  1  0  0  0  0
M  END
>  <minimizedAffinity>
-3.78648424

$$$$

 OpenBabel03252501563D

 17 18  0  0  0  0  0  0  0  0999 V2000
   35.5380   27.5760   38.2490 C   0  0  0  0  0  0  0  0  0  0  0  0
   35.6310   28.1250   39.5240 C   0  0  0  0  0  0  0  0  0  0  0  0
   36.5250   27.5600   40.4210 C   0  0  0  0  0  0  0  0  0  0  0  0
   37.2660   26.5040   40.0200 N   0  0  0  0  0  0  0  0  0  0  0  0
   37.1460   25.9930   38.7640 C   0  0  0  0  0  0  0  0  0  0  0  0
   36.2870   26.5170   37.8630 N   0  0  0  0  0  0  0  0  0  0  0  0
   34.8710   27.9470   37.4810 H   0  0  0  0  0  0  0  0  0  0  0  0
   37.8060   25.1520   38.6000 H   0  0  0  0  0  0  0  0  0  0  0  0
   36.5950   28.1740   41.7680 C   0  0  0  0  0  3  0  0  0  0  0  0
   37.8820   28.9670   41.8110 C   0  0  0  0  0  2  0  0  0  0  0  0
   38.1330   29.0510   43.3040 C   0  0  0  0  0  2  0  0  0  0  0  0
   37.9900   27.5820   43.6770 C   0  0  0  0  0  2  0  0  0  0  0  0
   36.8220   27.1050   42.8390 C   0  0  0  0  0  2  0  0  0  0  0  0
   34.7460   29.2750   39.7860 C   0  0  0  0  0  0  0  0  0  0  0  0
   33.6770   28.9440   39.6550 H   0  0  0  0  0  0  0  0  0  0  0  0
   34.8910   30.0190   38.9510 H   0  0  0  0  0  0  0  0  0  0  0  0
   34.8300   29.7260   40.7710 H   0  0  0  0  0  0  0  0  0  0  0  0
  1  2  1  0  0  0  0
  2 14  1  0  0  0  0
  2  3  2  0  0  0  0
  3  9  1  0  0  0  0
  4  3  1  0  0  0  0
  5  4  2  0  0  0  0
  6  1  2  0  0  0  0
  6  5  1  0  0  0  0
  7  1  1  0  0  0  0
  8  5  1  0  0  0  0
  9 10  1  0  0  0  0
  9 13  1  0  0  0  0
 10 11  1  0  0  0  0
 11 12  1  0  0  0  0
 13 12  1  0  0  0  0
 14 17  1  0  0  0  0
 15 14  1  0  0  0  0
 16 14  1  0  0  0  0
M  END
>  <minimizedAffinity>
-3.73119974

$$$$

 OpenBabel03252501563D

 17 18  0  0  0  0  0  0  0  0999 V2000
   37.5580   26.9840   42.0830 C   0  0  0  0  0  0  0  0  0  0  0  0
   37.1230   27.7990   41.0430 C   0  0  0  0  0  0  0  0  0  0  0  0
   37.3360   29.1660   41.1450 C   0  0  0  0  0  0  0  0  0  0  0  0
   37.9550   29.6460   42.2450 N   0  0  0  0  0  0  0  0  0  0  0  0
   38.3660   28.8170   43.2430 C   0  0  0  0  0  0  0  0  0  0  0  0
   38.1760   27.4800   43.1800 N   0  0  0  0  0  0  0  0  0  0  0  0
   37.4370   25.9080   42.0960 H   0  0  0  0  0  0  0  0  0  0  0  0
   38.8420   29.3550   44.0520 H   0  0  0  0  0  0  0  0  0  0  0  0
   36.8590   29.9990   40.0160 C   0  0  0  0  0  3  0  0  0  0  0  0
   38.0670   30.2810   39.1510 C   0  0  0  0  0  2  0  0  0  0  0  0
   37.6270   31.5350   38.4200 C   0  0  0  0  0  2  0  0  0  0  0  0
   37.1720   32.3810   39.6000 C   0  0  0  0  0  2  0  0  0  0  0  0
   36.4620   31.3950   40.5040 C   0  0  0  0  0  2  0  0  0  0  0  0
   36.4680   27.1020   39.9210 C   0  0  0  0  0  0  0  0  0  0  0  0
   35.5570   26.5660   40.3140 H   0  0  0  0  0  0  0  0  0  0  0  0
   37.1440   26.2600   39.5970 H   0  0  0  0  0  0  0  0  0  0  0  0
   36.1470   27.7290   39.0940 H   0  0  0  0  0  0  0  0  0  0  0  0
  1  7  1  0  0  0  0
  1  6  1  0  0  0  0
  2  3  1  0  0  0  0
  2  1  2  0  0  0  0
  3  4  2  0  0  0  0
  4  5  1  0  0  0  0
  5  8  1  0  0  0  0
  6  5  2  0  0  0  0
  9 13  1  0  0  0  0
  9  3  1  0  0  0  0
 10  9  1  0  0  0  0
 11 10  1  0  0  0  0
 11 12  1  0  0  0  0
 12 13  1  0  0  0  0
 14 15  1  0  0  0  0
 14  2  1  0  0  0  0
 16 14  1  0  0  0  0
 17 14  1  0  0  0  0
M  END
>  <minimizedAffinity>
-3.68469858

$$$$
