
     RDKit          3D

 26 27  0  0  0  0  0  0  0  0999 V2000
   44.3882   35.7674   44.4271 C   0  0  0  0  0  0  0  0  0  0  0  0
   44.6655   35.0657   43.2607 C   0  0  0  0  0  0  0  0  0  0  0  0
   45.2933   33.8244   43.3891 C   0  0  0  0  0  0  0  0  0  0  0  0
   45.5876   33.3909   44.6340 N   0  0  0  0  0  0  0  0  0  0  0  0
   45.3077   34.0913   45.7481 C   0  0  0  0  0  0  0  0  0  0  0  0
   44.6983   35.3020   45.6685 N   0  0  0  0  0  0  0  0  0  0  0  0
   44.2584   35.7242   42.0095 C   0  0  0  0  0  0  0  0  0  0  0  0
   43.9029   36.7418   44.4440 H   0  0  0  0  0  0  0  0  0  0  0  0
   45.4879   33.3196   42.4718 H   0  0  0  0  0  0  0  0  0  0  0  0
   45.5539   33.7195   46.7167 H   0  0  0  0  0  0  0  0  0  0  0  0
   44.3067   36.8008   42.0971 H   0  0  0  0  0  0  0  0  0  0  0  0
   44.9425   35.4240   41.1743 H   0  0  0  0  0  0  0  0  0  0  0  0
   42.8520   35.3217   41.6537 C   0  0  0  0  0  0  0  0  0  0  0  0
   42.6183   33.8315   41.8095 C   0  0  0  0  0  0  0  0  0  0  0  0
   41.2257   33.7260   41.2070 C   0  0  0  0  0  0  0  0  0  0  0  0
   41.3748   34.5482   39.9421 C   0  0  0  0  0  0  0  0  0  0  0  0
   42.5559   35.4938   40.1866 C   0  0  0  0  0  0  0  0  0  0  0  0
   42.1405   35.9124   42.2783 H   0  0  0  0  0  0  0  0  0  0  0  0
   42.6447   33.5156   42.8638 H   0  0  0  0  0  0  0  0  0  0  0  0
   43.3723   33.3198   41.1746 H   0  0  0  0  0  0  0  0  0  0  0  0
   40.9312   32.6828   41.0003 H   0  0  0  0  0  0  0  0  0  0  0  0
   40.5588   34.2398   41.9170 H   0  0  0  0  0  0  0  0  0  0  0  0
   41.5202   33.8932   39.0774 H   0  0  0  0  0  0  0  0  0  0  0  0
   40.4326   35.1594   39.8607 H   0  0  0  0  0  0  0  0  0  0  0  0
   43.4104   35.0641   39.6275 H   0  0  0  0  0  0  0  0  0  0  0  0
   42.2924   36.5211   39.8997 H   0  0  0  0  0  0  0  0  0  0  0  0
  1  6  2  0
  2  3  2  0
  2  1  1  0
  3  4  1  0
  4  5  2  0
  6  5  1  0
  7  2  1  0
  1  8  1  0
  3  9  1  0
  5 10  1  0
  7 11  1  0
  7 12  1  0
 13 14  1  0
 14 15  1  0
 15 16  1  0
 16 17  1  0
 17 13  1  0
 13 18  1  0
 14 19  1  0
 14 20  1  0
 15 21  1  0
 15 22  1  0
 16 23  1  0
 16 24  1  0
 17 25  1  0
 17 26  1  0
  7 13  1  0
M  ISO  5   8  14   9  14  10  14  11   8  12   8
M  END
>  <DihAtoms>  (1) 
1,6,12,13

>  <DihDeg>  (1) 
-59.998963838777236

$$$$
