
 OpenBabel03242523543D

 41 44  0  0  1  0  0  0  0  0999 V2000
   42.8150   34.3160   38.9980 C   0  0  1  0  0  0  0  0  0  0  0  0
   43.0510   35.1790   40.2310 C   0  0  1  0  0  0  0  0  0  0  0  0
   41.8050   35.6630   40.6750 O   0  0  0  0  0  0  0  0  0  0  0  0
   40.9350   35.9530   39.6210 C   0  0  0  0  0  0  0  0  0  0  0  0
   40.4660   34.6990   38.9130 C   0  0  2  0  0  0  0  0  0  0  0  0
   41.5310   33.5880   39.2330 C   0  0  1  0  0  0  0  0  0  0  0  0
   43.6820   33.6310   38.8900 H   0  0  0  0  0  0  0  0  0  0  0  0
   43.7580   36.0010   40.0490 H   0  0  0  0  0  0  0  0  0  0  0  0
   41.3510   36.7110   38.9270 H   0  0  0  0  0  0  0  0  0  0  0  0
   40.0520   36.4130   40.0740 H   0  0  0  0  0  0  0  0  0  0  0  0
   39.4800   34.3400   39.2540 H   0  0  0  0  0  0  0  0  0  0  0  0
   41.2810   33.5270   40.3430 H   0  0  0  0  0  0  0  0  0  0  0  0
   42.7320   35.1050   37.8440 O   0  0  0  0  0  0  0  0  0  0  0  0
   43.6350   35.2340   37.5110 H   0  0  0  0  0  0  0  0  0  0  0  0
   40.5390   34.8810   37.5400 O   0  0  0  0  0  0  0  0  0  0  0  0
   39.9900   34.2300   37.0360 H   0  0  0  0  0  0  0  0  0  0  0  0
   43.4440   34.2850   41.2380 O   0  0  0  0  0  0  0  0  0  0  0  0
   44.5990   34.3520   41.9080 C   0  0  0  0  0  0  0  0  0  0  0  0
   45.8230   34.4910   41.2360 C   0  0  0  0  0  0  0  0  0  0  0  0
   46.9840   34.5570   41.9900 C   0  0  0  0  0  0  0  0  0  0  0  0
   46.9060   34.4840   43.3700 N   0  0  0  0  0  0  0  0  0  0  0  0
   45.7070   34.3490   43.9830 C   0  0  0  0  0  0  0  0  0  0  0  0
   44.5610   34.2830   43.2580 N   0  0  0  0  0  0  0  0  0  0  0  0
   45.8600   34.5450   40.1580 H   0  0  0  0  0  0  0  0  0  0  0  0
   45.6630   34.2940   45.0620 H   0  0  0  0  0  0  0  0  0  0  0  0
   48.3280   34.6950   41.3410 C   0  0  0  0  0  0  0  0  0  0  0  0
   49.0520   36.0240   41.5420 C   0  0  0  0  0  0  0  0  0  0  0  0
   49.5240   34.6880   42.1220 C   0  0  0  0  0  0  0  0  0  0  0  0
   48.3020   34.4150   40.2740 H   0  0  0  0  0  0  0  0  0  0  0  0
   48.6480   36.7360   42.2910 H   0  0  0  0  0  0  0  0  0  0  0  0
   49.6600   36.4370   40.7230 H   0  0  0  0  0  0  0  0  0  0  0  0
   49.4920   34.5860   43.2260 H   0  0  0  0  0  0  0  0  0  0  0  0
   50.4670   34.2900   41.6850 H   0  0  0  0  0  0  0  0  0  0  0  0
   41.2720   32.5320   38.4400 O   0  0  0  0  0  0  0  0  0  0  0  0
   40.2520   31.6440   38.5230 C   0  0  0  0  0  0  0  0  0  0  0  0
   39.6400   31.2280   37.4410 O   0  0  0  0  0  0  0  0  0  0  0  0
   39.3870   30.8030   39.4070 C   0  0  0  0  0  3  0  0  0  0  0  0
   38.4220   31.7740   40.0950 C   0  0  0  0  0  2  0  0  0  0  0  0
   37.7340   30.8250   41.0530 C   0  0  0  0  0  2  0  0  0  0  0  0
   38.9100   30.0430   41.5950 C   0  0  0  0  0  2  0  0  0  0  0  0
   40.0410   30.1910   40.5790 C   0  0  0  0  0  2  0  0  0  0  0  0
  1  7  1  6  0  0  0
  1  6  1  0  0  0  0
  1  2  1  0  0  0  0
  2  8  1  6  0  0  0
  2  3  1  0  0  0  0
  2 17  1  0  0  0  0
  4 10  1  0  0  0  0
  4  3  1  0  0  0  0
  5  6  1  0  0  0  0
  5 11  1  1  0  0  0
  5  4  1  0  0  0  0
  6 12  1  1  0  0  0
  9  4  1  0  0  0  0
 13  1  1  0  0  0  0
 14 13  1  0  0  0  0
 15  5  1  0  0  0  0
 16 15  1  0  0  0  0
 17 18  1  0  0  0  0
 18 23  1  0  0  0  0
 19 18  2  0  0  0  0
 19 20  1  0  0  0  0
 20 21  2  0  0  0  0
 21 22  1  0  0  0  0
 22 25  1  0  0  0  0
 23 22  2  0  0  0  0
 24 19  1  0  0  0  0
 26 27  1  0  0  0  0
 26 20  1  0  0  0  0
 26 28  1  0  0  0  0
 27 28  1  0  0  0  0
 27 30  1  0  0  0  0
 28 32  1  0  0  0  0
 29 26  1  0  0  0  0
 31 27  1  0  0  0  0
 33 28  1  0  0  0  0
 34 35  1  0  0  0  0
 34  6  1  0  0  0  0
 35 37  1  0  0  0  0
 36 35  2  0  0  0  0
 37 38  1  0  0  0  0
 37 41  1  0  0  0  0
 38 39  1  0  0  0  0
 39 40  1  0  0  0  0
 41 40  1  0  0  0  0
M  END
>  <minimizedAffinity>
-6.25299025

>  <minimizedRMSD>
1.50450361

$$$$
