REMARK  Name = 
REMARK  8 active torsions:
REMARK  status: ('A' for Active; 'I' for Inactive)
REMARK    1  A    between atoms: C_1  and  O_7
REMARK    2  A    between atoms: C_2  and  O_9
REMARK    3  A    between atoms: C_5  and  O_8
REMARK    4  A    between atoms: C_6  and  O_19
REMARK    5  A    between atoms: O_9  and  C_10
REMARK    6  A    between atoms: C_12  and  C_16
REMARK    7  A    between atoms: O_19  and  C_20
REMARK    8  A    between atoms: C_20  and  C_37
REMARK                            x       y       z     vdW  Elec       q    Type
REMARK                         _______ _______ _______ _____ _____    ______ ____
ROOT
ATOM      1  C   UNL     1      42.829  34.479  38.778  0.00  0.00    +0.000 C 
ATOM      2  C   UNL     1      42.955  35.160  40.135  0.00  0.00    +0.000 C 
ATOM      3  O   UNL     1      41.659  35.380  40.640  0.00  0.00    +0.000 OA
ATOM      4  C   UNL     1      40.741  35.705  39.639  0.00  0.00    +0.000 C 
ATOM      5  C   UNL     1      40.448  34.525  38.735  0.00  0.00    +0.000 C 
ATOM      6  C   UNL     1      41.667  33.544  38.883  0.00  0.00    +0.000 C 
ATOM      7  H   UNL     1      43.784  33.954  38.569  0.00  0.00    +0.000 HD
ATOM      8  H   UNL     1      43.533  36.094  40.093  0.00  0.00    +0.000 HD
ATOM      9  H   UNL     1      41.032  36.616  39.078  0.00  0.00    +0.000 HD
ATOM     10  H   UNL     1      39.807  35.953  40.152  0.00  0.00    +0.000 HD
ATOM     11  H   UNL     1      39.529  33.977  39.006  0.00  0.00    +0.000 HD
ATOM     12  H   UNL     1      41.446  33.271  39.966  0.00  0.00    +0.000 HD
ENDROOT
BRANCH   1  13
ATOM     13  O   UNL     1      42.615  35.421  37.764  0.00  0.00    +0.000 OA
ATOM     14  H   UNL     1      43.484  35.732  37.464  0.00  0.00    +0.000 HD
ENDBRANCH   1  13
BRANCH   5  15
ATOM     15  O   UNL     1      40.473  34.932  37.410  0.00  0.00    +0.000 OA
ATOM     16  H   UNL     1      40.017  34.297  36.804  0.00  0.00    +0.000 HD
ENDBRANCH   5  15
BRANCH   2  17
ATOM     17  O   UNL     1      43.489  34.183  40.989  0.00  0.00    +0.000 OA
BRANCH  17  18
ATOM     18  C   UNL     1      44.603  34.331  41.714  0.00  0.00    +0.000 A 
ATOM     19  C   UNL     1      45.860  34.447  41.101  0.00  0.00    +0.000 A 
ATOM     20  C   UNL     1      46.975  34.600  41.909  0.00  0.00    +0.000 A 
ATOM     21  N   UNL     1      46.821  34.635  43.284  0.00  0.00    +0.000 NA
ATOM     22  C   UNL     1      45.592  34.520  43.840  0.00  0.00    +0.000 A 
ATOM     23  N   UNL     1      44.490  34.369  43.061  0.00  0.00    +0.000 NA
ATOM     24  H   UNL     1      45.956  34.416  40.025  0.00  0.00    +0.000 HD
ATOM     25  H   UNL     1      45.488  34.549  44.916  0.00  0.00    +0.000 HD
BRANCH  20  26
ATOM     26  C   UNL     1      48.350  34.719  41.326  0.00  0.00    +0.000 C 
ATOM     27  C   UNL     1      49.065  36.054  41.523  0.00  0.00    +0.000 C 
ATOM     28  C   UNL     1      49.505  34.736  42.166  0.00  0.00    +0.000 C 
ATOM     29  H   UNL     1      48.378  34.407  40.268  0.00  0.00    +0.000 HD
ATOM     30  H   UNL     1      48.624  36.788  42.228  0.00  0.00    +0.000 HD
ATOM     31  H   UNL     1      49.714  36.442  40.724  0.00  0.00    +0.000 HD
ATOM     32  H   UNL     1      49.417  34.668  43.270  0.00  0.00    +0.000 HD
ATOM     33  H   UNL     1      50.469  34.326  41.790  0.00  0.00    +0.000 HD
ENDBRANCH  20  26
ENDBRANCH  17  18
ENDBRANCH   2  17
BRANCH   6  34
ATOM     34  O   UNL     1      41.552  32.602  37.929  0.00  0.00    +0.000 OA
BRANCH  34  35
ATOM     35  C   UNL     1      40.907  31.412  37.991  0.00  0.00    +0.000 C 
ATOM     36  O   UNL     1      39.670  31.301  37.573  0.00  0.00    +0.000 OA
BRANCH  35  37
ATOM     37  C   UNL     1      40.971  29.966  38.369  0.00  0.00    +0.000 C 
ATOM     38  C   UNL     1      41.968  29.881  39.529  0.00  0.00    +0.000 C 
ATOM     39  C   UNL     1      42.050  28.379  39.695  0.00  0.00    +0.000 C 
ATOM     40  C   UNL     1      42.158  27.924  38.257  0.00  0.00    +0.000 C 
ATOM     41  C   UNL     1      41.606  29.058  37.395  0.00  0.00    +0.000 C 
ENDBRANCH  35  37
ENDBRANCH  34  35
ENDBRANCH   6  34
TORSDOF 8
