
 OpenBabel03242523543D

 41 44  0  0  1  0  0  0  0  0999 V2000
   42.8170   34.5140   38.7550 C   0  0  1  0  0  0  0  0  0  0  0  0
   42.9560   35.1840   40.1160 C   0  0  1  0  0  0  0  0  0  0  0  0
   41.6650   35.4080   40.6310 O   0  0  0  0  0  0  0  0  0  0  0  0
   40.7420   35.7460   39.6390 C   0  0  0  0  0  0  0  0  0  0  0  0
   40.4360   34.5740   38.7280 C   0  0  2  0  0  0  0  0  0  0  0  0
   41.6500   33.5850   38.8610 C   0  0  1  0  0  0  0  0  0  0  0  0
   43.7670   33.9850   38.5360 H   0  0  0  0  0  0  0  0  0  0  0  0
   43.5390   36.1150   40.0770 H   0  0  0  0  0  0  0  0  0  0  0  0
   41.0350   36.6590   39.0820 H   0  0  0  0  0  0  0  0  0  0  0  0
   39.8130   35.9960   40.1600 H   0  0  0  0  0  0  0  0  0  0  0  0
   39.5160   34.0300   39.0010 H   0  0  0  0  0  0  0  0  0  0  0  0
   41.4350   33.3050   39.9440 H   0  0  0  0  0  0  0  0  0  0  0  0
   42.6020   35.4640   37.7490 O   0  0  0  0  0  0  0  0  0  0  0  0
   43.4710   35.7720   37.4450 H   0  0  0  0  0  0  0  0  0  0  0  0
   40.4550   34.9900   37.4060 O   0  0  0  0  0  0  0  0  0  0  0  0
   39.9910   34.3630   36.7990 H   0  0  0  0  0  0  0  0  0  0  0  0
   43.4900   34.1980   40.9590 O   0  0  0  0  0  0  0  0  0  0  0  0
   44.6000   34.3410   41.6920 C   0  0  0  0  0  0  0  0  0  0  0  0
   45.8630   34.4370   41.0880 C   0  0  0  0  0  0  0  0  0  0  0  0
   46.9730   34.5860   41.9040 C   0  0  0  0  0  0  0  0  0  0  0  0
   46.8080   34.6360   43.2770 N   0  0  0  0  0  0  0  0  0  0  0  0
   45.5730   34.5400   43.8240 C   0  0  0  0  0  0  0  0  0  0  0  0
   44.4760   34.3940   43.0380 N   0  0  0  0  0  0  0  0  0  0  0  0
   45.9670   34.3940   40.0140 H   0  0  0  0  0  0  0  0  0  0  0  0
   45.4610   34.5810   44.8990 H   0  0  0  0  0  0  0  0  0  0  0  0
   48.3540   34.6830   41.3310 C   0  0  0  0  0  0  0  0  0  0  0  0
   49.0760   36.0170   41.5080 C   0  0  0  0  0  0  0  0  0  0  0  0
   49.5010   34.7100   42.1810 C   0  0  0  0  0  0  0  0  0  0  0  0
   48.3890   34.3500   40.2800 H   0  0  0  0  0  0  0  0  0  0  0  0
   48.6340   36.7690   42.1930 H   0  0  0  0  0  0  0  0  0  0  0  0
   49.7350   36.3850   40.7070 H   0  0  0  0  0  0  0  0  0  0  0  0
   49.4030   34.6650   43.2860 H   0  0  0  0  0  0  0  0  0  0  0  0
   50.4660   34.2860   41.8230 H   0  0  0  0  0  0  0  0  0  0  0  0
   41.5230   32.6500   37.9010 O   0  0  0  0  0  0  0  0  0  0  0  0
   40.8180   31.4940   37.9370 C   0  0  0  0  0  0  0  0  0  0  0  0
   39.6010   31.4390   37.4520 O   0  0  0  0  0  0  0  0  0  0  0  0
   40.7900   30.0510   38.3290 C   0  0  0  0  0  3  0  0  0  0  0  0
   40.2280   29.3000   37.1190 C   0  0  0  0  0  2  0  0  0  0  0  0
   40.1120   27.9090   37.7040 C   0  0  0  0  0  2  0  0  0  0  0  0
   39.5060   28.2050   39.0590 C   0  0  0  0  0  2  0  0  0  0  0  0
   39.8140   29.6680   39.3670 C   0  0  0  0  0  2  0  0  0  0  0  0
  1  7  1  6  0  0  0
  1  6  1  0  0  0  0
  1  2  1  0  0  0  0
  2  8  1  6  0  0  0
  2  3  1  0  0  0  0
  2 17  1  0  0  0  0
  4 10  1  0  0  0  0
  4  3  1  0  0  0  0
  5  6  1  0  0  0  0
  5 11  1  1  0  0  0
  5  4  1  0  0  0  0
  6 12  1  1  0  0  0
  9  4  1  0  0  0  0
 13  1  1  0  0  0  0
 14 13  1  0  0  0  0
 15  5  1  0  0  0  0
 16 15  1  0  0  0  0
 17 18  1  0  0  0  0
 18 23  1  0  0  0  0
 19 18  2  0  0  0  0
 19 20  1  0  0  0  0
 20 21  2  0  0  0  0
 21 22  1  0  0  0  0
 22 25  1  0  0  0  0
 23 22  2  0  0  0  0
 24 19  1  0  0  0  0
 26 27  1  0  0  0  0
 26 20  1  0  0  0  0
 26 28  1  0  0  0  0
 27 28  1  0  0  0  0
 27 30  1  0  0  0  0
 28 32  1  0  0  0  0
 29 26  1  0  0  0  0
 31 27  1  0  0  0  0
 33 28  1  0  0  0  0
 34 35  1  0  0  0  0
 34  6  1  0  0  0  0
 35 37  1  0  0  0  0
 36 35  2  0  0  0  0
 37 41  1  0  0  0  0
 38 39  1  0  0  0  0
 38 37  1  0  0  0  0
 39 40  1  0  0  0  0
 40 41  1  0  0  0  0
M  END
>  <minimizedAffinity>
-5.74876928

>  <minimizedRMSD>
0.136183381

$$$$
