
     RDKit          3D

 30 33  0  0  0  0  0  0  0  0999 V2000
   48.1734   35.0680   41.9283 C   0  0  0  0  0  0  0  0  0  0  0  0
   47.0535   34.2509   42.0909 C   0  0  0  0  0  0  0  0  0  0  0  0
   46.5130   33.6577   40.9869 C   0  0  0  0  0  0  0  0  0  0  0  0
   47.0291   33.8340   39.7210 C   0  0  0  0  0  0  0  0  0  0  0  0
   46.6665   33.3554   38.5104 N   0  0  0  0  0  0  0  0  0  0  0  0
   47.5585   33.8712   37.5827 C   0  0  0  0  0  0  0  0  0  0  0  0
   48.4377   34.6467   38.2438 N   0  0  0  0  0  0  0  0  0  0  0  0
   48.1295   34.6348   39.5482 C   0  0  0  0  0  0  0  0  0  0  0  0
   48.7009   35.2511   40.6507 C   0  0  0  0  0  0  0  0  0  0  0  0
   45.1288   34.6171   45.3118 C   0  0  0  0  0  0  0  0  0  0  0  0
   45.5228   34.8797   43.9748 C   0  0  0  0  0  0  0  0  0  0  0  0
   46.5408   34.0958   43.4526 C   0  0  0  0  0  0  0  0  0  0  0  0
   47.0952   33.1436   44.2214 N   0  0  0  0  0  0  0  0  0  0  0  0
   46.7009   32.9123   45.4961 C   0  0  0  0  0  0  0  0  0  0  0  0
   45.7317   33.6441   46.0224 N   0  0  0  0  0  0  0  0  0  0  0  0
   44.1025   35.4095   45.8351 O   0  0  0  0  0  0  0  0  0  0  0  0
   48.6342   35.5543   42.7552 H   0  0  0  0  0  0  0  0  0  0  0  0
   45.6451   33.0271   41.1291 H   0  0  0  0  0  0  0  0  0  0  0  0
   45.8747   32.7227   38.3017 H   0  0  0  0  0  0  0  0  0  0  0  0
   47.4543   33.6132   36.5244 H   0  0  0  0  0  0  0  0  0  0  0  0
   49.5748   35.8905   40.5344 H   0  0  0  0  0  0  0  0  0  0  0  0
   45.0796   35.6347   43.3723 H   0  0  0  0  0  0  0  0  0  0  0  0
   47.1981   32.1362   46.0293 H   0  0  0  0  0  0  0  0  0  0  0  0
   43.6709   35.2036   47.1372 C   0  0  0  0  0  0  0  0  0  0  0  0
   42.4782   34.5640   46.8719 C   0  0  0  0  0  0  0  0  0  0  0  0
   41.6695   34.1215   46.2086 H   0  0  0  0  0  0  0  0  0  0  0  0
   41.8055   34.2379   48.6162 S   0  0  0  0  0  0  0  0  0  0  0  0
   43.3495   35.0729   49.3439 C   0  0  0  0  0  0  0  0  0  0  0  0
   44.1034   35.4908   50.2657 H   0  0  0  0  0  0  0  0  0  0  0  0
   43.9109   35.3548   48.4183 N   0  0  0  0  0  0  0  0  0  0  0  0
  1  2  2  0
  2 12  1  0
  3  2  1  0
  4  3  2  0
  5  4  1  0
  6  7  2  0
  6  5  1  0
  7  8  1  0
  8  4  1  0
  8  9  2  0
  9  1  1  0
 10 16  1  0
 10 15  1  0
 11 10  2  0
 12 11  1  0
 12 13  2  0
 13 14  1  0
 14 15  2  0
  1 17  1  0
  3 18  1  0
  5 19  1  0
  6 20  1  0
  9 21  1  0
 11 22  1  0
 14 23  1  0
 24 25  2  0
 25 26  1  0
 25 27  1  0
 27 28  1  0
 28 29  1  0
 28 30  2  0
 30 24  1  0
 16 24  1  0
M  ISO  8  17  14  18  14  19   9  20  14  21  14  22  14  23  14  26  15
M  ISO  1  29  16
M  END
>  <DihAtoms>  (1) 
9,15,23,24

>  <DihDeg>  (1) 
-179.99938248259616

$$$$
