
 OpenBabel03252500473D

 24 26  0  0  0  0  0  0  0  0999 V2000
   45.4810   34.0520   44.6970 C   0  0  0  0  0  0  0  0  0  0  0  0
   45.0970   33.2780   43.6000 C   0  0  0  0  0  0  0  0  0  0  0  0
   45.4050   31.9230   43.5810 C   0  0  0  0  0  0  0  0  0  0  0  0
   46.0810   31.3960   44.6500 N   0  0  0  0  0  0  0  0  0  0  0  0
   46.4350   32.1830   45.6950 C   0  0  0  0  0  0  0  0  0  0  0  0
   46.1420   33.5010   45.7260 N   0  0  0  0  0  0  0  0  0  0  0  0
   45.2560   35.1000   44.7370 H   0  0  0  0  0  0  0  0  0  0  0  0
   45.1350   31.2950   42.7730 H   0  0  0  0  0  0  0  0  0  0  0  0
   47.1530   31.5970   46.8200 C   0  0  0  0  0  0  0  0  0  0  0  0
   47.4580   30.2720   46.8810 C   0  0  0  0  0  0  0  0  0  0  0  0
   48.1300   29.6780   47.9170 C   0  0  0  0  0  0  0  0  0  0  0  0
   48.4960   30.5030   48.9270 N   0  0  0  0  0  0  0  0  0  0  0  0
   48.2020   31.8230   48.8840 C   0  0  0  0  0  0  0  0  0  0  0  0
   47.5330   32.4150   47.8530 N   0  0  0  0  0  0  0  0  0  0  0  0
   47.1270   29.6850   46.0300 H   0  0  0  0  0  0  0  0  0  0  0  0
   48.3150   28.6150   47.8530 H   0  0  0  0  0  0  0  0  0  0  0  0
   48.5320   32.4260   49.7370 H   0  0  0  0  0  0  0  0  0  0  0  0
   44.3790   33.9120   42.4990 C   0  0  0  0  0  0  0  0  0  0  0  0
   43.8370   33.1170   41.4450 C   0  0  0  0  0  0  0  0  0  0  0  0
   43.8700   31.9340   41.2930 H   0  0  0  0  0  0  0  0  0  0  0  0
   43.0370   34.3780   40.3140 S   0  0  0  0  0  0  0  0  0  0  0  0
   43.5900   35.7510   41.4870 C   0  0  0  0  0  0  0  0  0  0  0  0
   43.4300   36.8920   41.4170 H   0  0  0  0  0  0  0  0  0  0  0  0
   44.1350   35.1850   42.3080 N   0  0  0  0  0  0  0  0  0  0  0  0
  1  7  1  0  0  0  0
  1  6  1  0  0  0  0
  2  1  2  0  0  0  0
  3  2  1  0  0  0  0
  3  4  2  0  0  0  0
  4  5  1  0  0  0  0
  5  6  2  0  0  0  0
  5  9  1  0  0  0  0
  8  3  1  0  0  0  0
  9 10  2  0  0  0  0
  9 14  1  0  0  0  0
 10 11  1  0  0  0  0
 11 12  2  0  0  0  0
 13 12  1  0  0  0  0
 13 17  1  0  0  0  0
 14 13  2  0  0  0  0
 15 10  1  0  0  0  0
 16 11  1  0  0  0  0
 18  2  1  0  0  0  0
 19 18  2  0  0  0  0
 20 19  1  0  0  0  0
 21 19  1  0  0  0  0
 21 22  1  0  0  0  0
 22 24  2  0  0  0  0
 23 22  1  0  0  0  0
 24 18  1  0  0  0  0
M  END
>  <minimizedAffinity>
-4.11294127

>  <minimizedRMSD>
2.58149695

$$$$
