
 OpenBabel03252508593D

 43 45  0  0  1  0  0  0  0  0999 V2000
   46.6770   34.5340   43.5450 N   0  0  0  0  0  0  0  0  0  0  0  0
   46.2050   35.5760   42.7040 C   0  0  0  0  0  0  0  0  0  0  0  0
   44.7040   35.7620   42.6970 C   0  0  0  0  0  0  0  0  0  0  0  0
   44.0210   35.4350   43.9980 C   0  0  0  0  0  0  0  0  0  0  0  0
   45.0310   35.1210   45.0770 C   0  0  0  0  0  0  0  0  0  0  0  0
   45.8440   33.9220   44.4660 C   0  0  2  0  0  0  0  0  0  0  0  0
   46.5310   35.5310   41.6590 H   0  0  0  0  0  0  0  0  0  0  0  0
   46.6540   36.5230   43.1160 H   0  0  0  0  0  0  0  0  0  0  0  0
   44.2410   35.2070   41.8400 H   0  0  0  0  0  0  0  0  0  0  0  0
   44.4950   36.8330   42.4870 H   0  0  0  0  0  0  0  0  0  0  0  0
   43.4410   34.5020   43.8330 H   0  0  0  0  0  0  0  0  0  0  0  0
   43.2960   36.2120   44.2980 H   0  0  0  0  0  0  0  0  0  0  0  0
   45.6800   35.9960   45.1850 H   0  0  0  0  0  0  0  0  0  0  0  0
   44.5250   34.7870   45.9880 H   0  0  0  0  0  0  0  0  0  0  0  0
   45.0930   33.2070   44.0730 H   0  0  0  0  0  0  0  0  0  0  0  0
   47.7680   33.7840   42.9970 C   0  0  0  0  0  0  0  0  0  0  0  0
   48.3780   33.3420   43.8120 H   0  0  0  0  0  0  0  0  0  0  0  0
   48.4200   34.4960   42.4370 H   0  0  0  0  0  0  0  0  0  0  0  0
   47.2240   32.7180   42.1020 C   0  0  0  0  0  0  0  0  0  0  0  0
   47.3880   31.7010   42.4660 H   0  0  0  0  0  0  0  0  0  0  0  0
   46.1140   32.8490   41.9660 H   0  0  0  0  0  0  0  0  0  0  0  0
   49.2480   32.1020   38.9960 C   0  0  0  0  0  0  0  0  0  0  0  0
   48.6980   31.9500   40.2820 C   0  0  0  0  0  0  0  0  0  0  0  0
   47.8010   32.8870   40.7420 C   0  0  0  0  0  0  0  0  0  0  0  0
   47.4930   33.9100   39.9290 N   0  0  0  0  0  0  0  0  0  0  0  0
   48.0240   34.0460   38.7030 C   0  0  0  0  0  0  0  0  0  0  0  0
   48.9030   33.1490   38.2230 N   0  0  0  0  0  0  0  0  0  0  0  0
   49.9580   31.3510   38.6440 H   0  0  0  0  0  0  0  0  0  0  0  0
   49.0170   31.0860   40.8510 H   0  0  0  0  0  0  0  0  0  0  0  0
   47.6510   34.9320   38.2090 H   0  0  0  0  0  0  0  0  0  0  0  0
   46.5430   33.4630   45.5720 O   0  0  0  0  0  0  0  0  0  0  0  0
   45.6000   31.1250   44.7280 O   0  0  0  0  0  0  0  0  0  0  0  0
   46.2220   31.8520   45.9250 P   0  0  2  0  0  0  0  0  0  0  0  0
   44.9940   31.8630   47.1150 O   0  0  0  0  0  0  0  0  0  0  0  0
   45.1720   32.5800   47.7670 H   0  0  0  0  0  0  0  0  0  0  0  0
   47.5410   31.0640   46.5520 O   0  0  0  0  0  0  0  0  0  0  0  0
   47.5920   29.7170   46.8780 C   0  0  0  0  0  0  0  0  0  0  0  0
   48.7700   28.8810   46.9270 C   0  0  0  0  0  0  0  0  0  0  0  0
   49.7470   29.4160   46.6620 H   0  0  0  0  0  0  0  0  0  0  0  0
   48.0150   27.2240   47.4390 S   0  0  0  0  0  0  0  0  0  0  0  0
   46.2870   28.0100   47.4780 C   0  0  0  0  0  0  0  0  0  0  0  0
   45.4670   27.3350   47.7560 H   0  0  0  0  0  0  0  0  0  0  0  0
   46.4290   29.1450   47.1770 N   0  0  0  0  0  0  0  0  0  0  0  0
  1  6  1  0  0  0  0
  2  8  1  0  0  0  0
  2  1  1  0  0  0  0
  3  2  1  0  0  0  0
  3  4  1  0  0  0  0
  4 12  1  0  0  0  0
  4  5  1  0  0  0  0
  5 13  1  0  0  0  0
  5 14  1  0  0  0  0
  6 15  1  6  0  0  0
  6  5  1  0  0  0  0
  6 31  1  0  0  0  0
  7  2  1  0  0  0  0
  9  3  1  0  0  0  0
 10  3  1  0  0  0  0
 11  4  1  0  0  0  0
 16  1  1  0  0  0  0
 16 17  1  0  0  0  0
 18 16  1  0  0  0  0
 19 20  1  0  0  0  0
 19 16  1  0  0  0  0
 21 19  1  0  0  0  0
 22 23  1  0  0  0  0
 23 24  2  0  0  0  0
 23 29  1  0  0  0  0
 24 19  1  0  0  0  0
 25 24  1  0  0  0  0
 26 25  2  0  0  0  0
 27 26  1  0  0  0  0
 27 22  2  0  0  0  0
 28 22  1  0  0  0  0
 30 26  1  0  0  0  0
 31 33  1  0  0  0  0
 33 32  2  6  0  0  0
 33 36  1  0  0  0  0
 33 34  1  0  0  0  0
 34 35  1  0  0  0  0
 36 37  1  0  0  0  0
 37 38  2  0  0  0  0
 37 43  1  0  0  0  0
 38 40  1  0  0  0  0
 39 38  1  0  0  0  0
 40 41  1  0  0  0  0
 41 42  1  0  0  0  0
 43 41  2  0  0  0  0
M  END
>  <minimizedAffinity>
-4.21513939

>  <minimizedRMSD>
0.905893564

$$$$
