
 OpenBabel03242520133D

 32 34  0  0  0  0  0  0  0  0999 V2000
   39.8780   30.2300   42.0430 C   0  0  0  0  0  0  0  0  0  0  0  0
   41.0720   29.6110   42.1900 C   0  0  0  0  0  0  0  0  0  0  0  0
   41.1180   28.3970   42.8490 C   0  0  0  0  0  0  0  0  0  0  0  0
   39.9560   27.8280   43.3490 C   0  0  0  0  0  0  0  0  0  0  0  0
   38.7380   28.5060   43.1720 C   0  0  0  0  0  0  0  0  0  0  0  0
   38.7420   29.6530   42.5430 N   0  0  0  0  0  0  0  0  0  0  0  0
   41.9660   30.0770   41.7900 H   0  0  0  0  0  0  0  0  0  0  0  0
   42.0590   27.8720   42.9850 H   0  0  0  0  0  0  0  0  0  0  0  0
   39.9220   26.8760   43.8760 H   0  0  0  0  0  0  0  0  0  0  0  0
   38.3200   33.0770   40.3660 C   0  0  0  0  0  0  0  0  0  0  0  0
   39.4380   33.8930   40.1210 C   0  0  0  0  0  0  0  0  0  0  0  0
   40.7220   33.4910   40.5120 C   0  0  0  0  0  0  0  0  0  0  0  0
   40.7450   32.2990   41.1140 N   0  0  0  0  0  0  0  0  0  0  0  0
   39.7100   31.5170   41.3560 C   0  0  0  0  0  0  0  0  0  0  0  0
   38.4910   31.9060   40.9810 N   0  0  0  0  0  0  0  0  0  0  0  0
   37.0390   33.5390   39.9360 N   0  0  0  0  0  0  0  0  0  0  0  0
   39.3260   34.8580   39.6200 H   0  0  0  0  0  0  0  0  0  0  0  0
   41.5950   34.1010   40.3330 H   0  0  0  0  0  0  0  0  0  0  0  0
   36.5380   34.3750   40.2780 H   0  0  0  0  0  0  0  0  0  0  0  0
   36.6730   32.8890   39.2040 H   0  0  0  0  0  0  0  0  0  0  0  0
   37.5060   27.9410   43.6800 C   0  0  0  0  0  3  0  0  0  0  0  0
   36.7170   27.1430   42.9650 C   0  0  0  0  0  3  0  0  0  0  0  0
   37.0490   26.7630   41.5580 C   0  0  0  0  0  0  0  0  0  0  0  0
   38.1070   26.5260   41.4270 H   0  0  0  0  0  0  0  0  0  0  0  0
   36.4810   25.8200   41.3130 H   0  0  0  0  0  0  0  0  0  0  0  0
   36.6040   27.8700   40.6730 C   0  0  0  0  0  0  0  0  0  0  0  0
   37.3530   28.2090   39.4920 C   0  0  0  0  0  0  0  0  0  0  0  0
   38.2840   27.6790   39.1770 H   0  0  0  0  0  0  0  0  0  0  0  0
   36.3680   29.6360   38.7780 S   0  0  0  0  0  0  0  0  0  0  0  0
   35.1480   29.4760   40.2260 C   0  0  0  0  0  0  0  0  0  0  0  0
   34.1750   30.0980   40.4730 H   0  0  0  0  0  0  0  0  0  0  0  0
   35.5400   28.6280   40.8490 N   0  0  0  0  0  0  0  0  0  0  0  0
  1  2  2  0  0  0  0
  1  6  1  0  0  0  0
  2  3  1  0  0  0  0
  3  8  1  0  0  0  0
  3  4  2  0  0  0  0
  4  9  1  0  0  0  0
  5  4  1  0  0  0  0
  5 21  1  0  0  0  0
  6  5  2  0  0  0  0
  7  2  1  0  0  0  0
 10 15  1  0  0  0  0
 11 10  2  0  0  0  0
 11 12  1  0  0  0  0
 12 13  2  0  0  0  0
 13 14  1  0  0  0  0
 14  1  1  0  0  0  0
 15 14  2  0  0  0  0
 16 19  1  0  0  0  0
 16 10  1  0  0  0  0
 17 11  1  0  0  0  0
 18 12  1  0  0  0  0
 20 16  1  0  0  0  0
 22 21  2  0  0  0  0
 23 22  1  0  0  0  0
 24 23  1  0  0  0  0
 25 23  1  0  0  0  0
 26 32  1  0  0  0  0
 26 23  1  0  0  0  0
 27 26  2  0  0  0  0
 28 27  1  0  0  0  0
 29 27  1  0  0  0  0
 29 30  1  0  0  0  0
 30 31  1  0  0  0  0
 30 32  2  0  0  0  0
M  END
>  <minimizedAffinity>
-5.82779837

$$$$

 OpenBabel03242520133D

 32 34  0  0  0  0  0  0  0  0999 V2000
   39.8400   30.4090   41.9820 C   0  0  0  0  0  0  0  0  0  0  0  0
   41.0270   29.7740   42.1130 C   0  0  0  0  0  0  0  0  0  0  0  0
   41.0660   28.5620   42.7770 C   0  0  0  0  0  0  0  0  0  0  0  0
   39.9050   28.0130   43.2990 C   0  0  0  0  0  0  0  0  0  0  0  0
   38.6940   28.7080   43.1400 C   0  0  0  0  0  0  0  0  0  0  0  0
   38.7040   29.8520   42.5040 N   0  0  0  0  0  0  0  0  0  0  0  0
   41.9200   30.2260   41.6950 H   0  0  0  0  0  0  0  0  0  0  0  0
   42.0010   28.0250   42.9000 H   0  0  0  0  0  0  0  0  0  0  0  0
   39.8660   27.0640   43.8320 H   0  0  0  0  0  0  0  0  0  0  0  0
   38.2980   33.2580   40.2930 C   0  0  0  0  0  0  0  0  0  0  0  0
   39.4200   34.0700   40.0500 C   0  0  0  0  0  0  0  0  0  0  0  0
   40.7010   33.6640   40.4470 C   0  0  0  0  0  0  0  0  0  0  0  0
   40.7180   32.4730   41.0520 N   0  0  0  0  0  0  0  0  0  0  0  0
   39.6780   31.6960   41.2920 C   0  0  0  0  0  0  0  0  0  0  0  0
   38.4620   32.0880   40.9110 N   0  0  0  0  0  0  0  0  0  0  0  0
   37.0200   33.7240   39.8570 N   0  0  0  0  0  0  0  0  0  0  0  0
   39.3130   35.0340   39.5460 H   0  0  0  0  0  0  0  0  0  0  0  0
   41.5770   34.2700   40.2690 H   0  0  0  0  0  0  0  0  0  0  0  0
   36.5210   34.5620   40.1950 H   0  0  0  0  0  0  0  0  0  0  0  0
   36.6550   33.0740   39.1250 H   0  0  0  0  0  0  0  0  0  0  0  0
   37.4620   28.1640   43.6700 C   0  0  0  0  0  3  0  0  0  0  0  0
   36.5940   27.4690   42.9400 C   0  0  0  0  0  3  0  0  0  0  0  0
   36.8270   27.1940   41.4890 C   0  0  0  0  0  0  0  0  0  0  0  0
   35.9550   27.4270   40.8750 H   0  0  0  0  0  0  0  0  0  0  0  0
   37.6540   27.8760   41.1380 H   0  0  0  0  0  0  0  0  0  0  0  0
   37.2460   25.7750   41.3590 C   0  0  0  0  0  0  0  0  0  0  0  0
   36.7200   24.9500   40.3030 C   0  0  0  0  0  0  0  0  0  0  0  0
   35.9900   25.3130   39.5410 H   0  0  0  0  0  0  0  0  0  0  0  0
   37.5640   23.3040   40.6110 S   0  0  0  0  0  0  0  0  0  0  0  0
   38.4530   24.0750   42.1030 C   0  0  0  0  0  0  0  0  0  0  0  0
   39.2220   23.5960   42.8600 H   0  0  0  0  0  0  0  0  0  0  0  0
   38.0940   25.1390   42.1430 N   0  0  0  0  0  0  0  0  0  0  0  0
  1  2  2  0  0  0  0
  1  6  1  0  0  0  0
  2  3  1  0  0  0  0
  3  8  1  0  0  0  0
  3  4  2  0  0  0  0
  4  9  1  0  0  0  0
  5  4  1  0  0  0  0
  5 21  1  0  0  0  0
  6  5  2  0  0  0  0
  7  2  1  0  0  0  0
 10 15  1  0  0  0  0
 11 10  2  0  0  0  0
 11 12  1  0  0  0  0
 12 13  2  0  0  0  0
 13 14  1  0  0  0  0
 14  1  1  0  0  0  0
 15 14  2  0  0  0  0
 16 19  1  0  0  0  0
 16 10  1  0  0  0  0
 17 11  1  0  0  0  0
 18 12  1  0  0  0  0
 20 16  1  0  0  0  0
 22 21  2  0  0  0  0
 23 22  1  0  0  0  0
 24 23  1  0  0  0  0
 25 23  1  0  0  0  0
 26 23  1  0  0  0  0
 26 32  1  0  0  0  0
 27 29  1  0  0  0  0
 27 26  2  0  0  0  0
 28 27  1  0  0  0  0
 29 30  1  0  0  0  0
 30 32  2  0  0  0  0
 30 31  1  0  0  0  0
M  END
>  <minimizedAffinity>
-5.80202055

$$$$

 OpenBabel03242520133D

 32 34  0  0  0  0  0  0  0  0999 V2000
   37.1820   30.5400   41.0200 C   0  0  0  0  0  0  0  0  0  0  0  0
   36.1270   30.0500   40.3300 C   0  0  0  0  0  0  0  0  0  0  0  0
   35.5810   28.8390   40.7130 C   0  0  0  0  0  0  0  0  0  0  0  0
   36.1120   28.1420   41.7880 C   0  0  0  0  0  0  0  0  0  0  0  0
   37.2080   28.6880   42.4770 C   0  0  0  0  0  0  0  0  0  0  0  0
   37.6920   29.8370   42.0780 N   0  0  0  0  0  0  0  0  0  0  0  0
   35.7300   30.6150   39.4930 H   0  0  0  0  0  0  0  0  0  0  0  0
   34.7340   28.4170   40.1820 H   0  0  0  0  0  0  0  0  0  0  0  0
   35.7310   27.1860   42.1420 H   0  0  0  0  0  0  0  0  0  0  0  0
   39.7140   33.1620   40.7870 C   0  0  0  0  0  0  0  0  0  0  0  0
   39.0080   34.1600   40.0940 C   0  0  0  0  0  0  0  0  0  0  0  0
   37.6760   33.9620   39.7040 C   0  0  0  0  0  0  0  0  0  0  0  0
   37.1920   32.7680   40.0570 N   0  0  0  0  0  0  0  0  0  0  0  0
   37.8360   31.8170   40.7070 C   0  0  0  0  0  0  0  0  0  0  0  0
   39.1030   32.0120   41.0740 N   0  0  0  0  0  0  0  0  0  0  0  0
   41.0660   33.4280   41.1640 N   0  0  0  0  0  0  0  0  0  0  0  0
   39.4860   35.1120   39.8450 H   0  0  0  0  0  0  0  0  0  0  0  0
   37.1150   34.7160   39.1720 H   0  0  0  0  0  0  0  0  0  0  0  0
   41.8630   33.5880   40.5280 H   0  0  0  0  0  0  0  0  0  0  0  0
   41.1310   33.4380   42.2070 H   0  0  0  0  0  0  0  0  0  0  0  0
   37.7870   27.9890   43.6040 C   0  0  0  0  0  3  0  0  0  0  0  0
   38.8710   27.2230   43.5120 C   0  0  0  0  0  3  0  0  0  0  0  0
   39.5850   27.0200   42.2150 C   0  0  0  0  0  0  0  0  0  0  0  0
   39.5530   27.9060   41.5770 H   0  0  0  0  0  0  0  0  0  0  0  0
   40.6730   26.8350   42.4470 H   0  0  0  0  0  0  0  0  0  0  0  0
   38.9940   25.8280   41.5550 C   0  0  0  0  0  0  0  0  0  0  0  0
   38.9360   24.5640   42.2410 C   0  0  0  0  0  0  0  0  0  0  0  0
   39.3180   24.4050   43.2780 H   0  0  0  0  0  0  0  0  0  0  0  0
   38.1180   23.4480   40.9750 S   0  0  0  0  0  0  0  0  0  0  0  0
   38.0240   24.9240   39.7820 C   0  0  0  0  0  0  0  0  0  0  0  0
   37.5920   24.9890   38.6860 H   0  0  0  0  0  0  0  0  0  0  0  0
   38.4840   25.7840   40.3400 N   0  0  0  0  0  0  0  0  0  0  0  0
  1  6  1  0  0  0  0
  2  3  1  0  0  0  0
  2  1  2  0  0  0  0
  3  4  2  0  0  0  0
  4  9  1  0  0  0  0
  4  5  1  0  0  0  0
  5 21  1  0  0  0  0
  6  5  2  0  0  0  0
  7  2  1  0  0  0  0
  8  3  1  0  0  0  0
 10 15  1  0  0  0  0
 10 16  1  0  0  0  0
 11 10  2  0  0  0  0
 12 13  2  0  0  0  0
 12 11  1  0  0  0  0
 13 14  1  0  0  0  0
 14  1  1  0  0  0  0
 14 15  2  0  0  0  0
 16 20  1  0  0  0  0
 17 11  1  0  0  0  0
 18 12  1  0  0  0  0
 19 16  1  0  0  0  0
 22 21  2  0  0  0  0
 23 25  1  0  0  0  0
 23 22  1  0  0  0  0
 24 23  1  0  0  0  0
 26 23  1  0  0  0  0
 26 27  2  0  0  0  0
 27 28  1  0  0  0  0
 29 27  1  0  0  0  0
 30 32  2  0  0  0  0
 30 29  1  0  0  0  0
 31 30  1  0  0  0  0
 32 26  1  0  0  0  0
M  END
>  <minimizedAffinity>
-5.61372423

$$$$

 OpenBabel03242520133D

 32 34  0  0  0  0  0  0  0  0999 V2000
   38.9590   31.0660   39.2270 C   0  0  0  0  0  0  0  0  0  0  0  0
   37.7050   31.3950   38.8400 C   0  0  0  0  0  0  0  0  0  0  0  0
   36.6670   31.2410   39.7400 C   0  0  0  0  0  0  0  0  0  0  0  0
   36.9130   30.7560   41.0150 C   0  0  0  0  0  0  0  0  0  0  0  0
   38.2320   30.4270   41.3740 C   0  0  0  0  0  0  0  0  0  0  0  0
   39.1830   30.5890   40.4900 N   0  0  0  0  0  0  0  0  0  0  0  0
   37.5390   31.7720   37.8370 H   0  0  0  0  0  0  0  0  0  0  0  0
   35.6480   31.4950   39.4640 H   0  0  0  0  0  0  0  0  0  0  0  0
   36.1430   30.6110   41.7710 H   0  0  0  0  0  0  0  0  0  0  0  0
   41.6560   32.5420   37.2530 C   0  0  0  0  0  0  0  0  0  0  0  0
   42.3100   31.3890   36.7840 C   0  0  0  0  0  0  0  0  0  0  0  0
   41.8480   30.1110   37.1220 C   0  0  0  0  0  0  0  0  0  0  0  0
   40.7660   30.1270   37.9040 N   0  0  0  0  0  0  0  0  0  0  0  0
   40.1370   31.1950   38.3580 C   0  0  0  0  0  0  0  0  0  0  0  0
   40.5820   32.4080   38.0320 N   0  0  0  0  0  0  0  0  0  0  0  0
   42.1720   33.8160   36.8670 N   0  0  0  0  0  0  0  0  0  0  0  0
   43.1940   31.4710   36.1440 H   0  0  0  0  0  0  0  0  0  0  0  0
   42.3340   29.2120   36.7710 H   0  0  0  0  0  0  0  0  0  0  0  0
   43.0950   34.2080   37.1120 H   0  0  0  0  0  0  0  0  0  0  0  0
   41.4570   34.3080   36.2850 H   0  0  0  0  0  0  0  0  0  0  0  0
   38.5260   29.9200   42.6970 C   0  0  0  0  0  3  0  0  0  0  0  0
   38.1540   28.7140   43.1180 C   0  0  0  0  0  3  0  0  0  0  0  0
   37.3900   27.7750   42.2430 C   0  0  0  0  0  0  0  0  0  0  0  0
   36.3210   27.7730   42.4650 H   0  0  0  0  0  0  0  0  0  0  0  0
   37.4920   28.1350   41.1790 H   0  0  0  0  0  0  0  0  0  0  0  0
   37.9980   26.4270   42.3860 C   0  0  0  0  0  0  0  0  0  0  0  0
   39.3040   26.2700   42.9700 C   0  0  0  0  0  0  0  0  0  0  0  0
   39.9220   27.1240   43.3390 H   0  0  0  0  0  0  0  0  0  0  0  0
   39.5640   24.4140   42.9010 S   0  0  0  0  0  0  0  0  0  0  0  0
   37.8510   24.2370   42.0970 C   0  0  0  0  0  0  0  0  0  0  0  0
   37.2780   23.2700   41.7360 H   0  0  0  0  0  0  0  0  0  0  0  0
   37.4520   25.2840   42.0200 N   0  0  0  0  0  0  0  0  0  0  0  0
  1  6  1  0  0  0  0
  2  1  2  0  0  0  0
  2  3  1  0  0  0  0
  3  4  2  0  0  0  0
  4  5  1  0  0  0  0
  4  9  1  0  0  0  0
  5 21  1  0  0  0  0
  6  5  2  0  0  0  0
  7  2  1  0  0  0  0
  8  3  1  0  0  0  0
 10 15  1  0  0  0  0
 11 12  1  0  0  0  0
 11 10  2  0  0  0  0
 12 13  2  0  0  0  0
 13 14  1  0  0  0  0
 14  1  1  0  0  0  0
 15 14  2  0  0  0  0
 16 19  1  0  0  0  0
 16 10  1  0  0  0  0
 17 11  1  0  0  0  0
 18 12  1  0  0  0  0
 20 16  1  0  0  0  0
 21 22  2  0  0  0  0
 23 26  1  0  0  0  0
 23 24  1  0  0  0  0
 23 22  1  0  0  0  0
 25 23  1  0  0  0  0
 26 27  2  0  0  0  0
 27 28  1  0  0  0  0
 29 27  1  0  0  0  0
 30 29  1  0  0  0  0
 31 30  1  0  0  0  0
 32 30  2  0  0  0  0
 32 26  1  0  0  0  0
M  END
>  <minimizedAffinity>
-5.56062746

$$$$

 OpenBabel03242520133D

 32 34  0  0  0  0  0  0  0  0999 V2000
   37.7430   30.4040   40.3560 C   0  0  0  0  0  0  0  0  0  0  0  0
   36.6880   30.0060   39.6090 C   0  0  0  0  0  0  0  0  0  0  0  0
   35.8230   29.0600   40.1260 C   0  0  0  0  0  0  0  0  0  0  0  0
   36.0390   28.5310   41.3890 C   0  0  0  0  0  0  0  0  0  0  0  0
   37.1480   28.9730   42.1300 C   0  0  0  0  0  0  0  0  0  0  0  0
   37.9400   29.8710   41.6010 N   0  0  0  0  0  0  0  0  0  0  0  0
   36.5410   30.4360   38.6240 H   0  0  0  0  0  0  0  0  0  0  0  0
   34.9660   28.7170   39.5550 H   0  0  0  0  0  0  0  0  0  0  0  0
   35.3980   27.7840   41.8550 H   0  0  0  0  0  0  0  0  0  0  0  0
   39.9540   32.3620   38.2060 C   0  0  0  0  0  0  0  0  0  0  0  0
   40.4980   33.2700   39.1320 C   0  0  0  0  0  0  0  0  0  0  0  0
   40.1300   33.2280   40.4830 C   0  0  0  0  0  0  0  0  0  0  0  0
   39.2450   32.2680   40.7630 N   0  0  0  0  0  0  0  0  0  0  0  0
   38.7210   31.4060   39.9120 C   0  0  0  0  0  0  0  0  0  0  0  0
   39.0760   31.4520   38.6270 N   0  0  0  0  0  0  0  0  0  0  0  0
   40.3750   32.4510   36.8450 N   0  0  0  0  0  0  0  0  0  0  0  0
   41.2190   34.0270   38.8120 H   0  0  0  0  0  0  0  0  0  0  0  0
   40.5360   33.9150   41.2110 H   0  0  0  0  0  0  0  0  0  0  0  0
   40.2180   33.2430   36.2000 H   0  0  0  0  0  0  0  0  0  0  0  0
   40.8800   31.5730   36.5890 H   0  0  0  0  0  0  0  0  0  0  0  0
   37.4040   28.4440   43.4530 C   0  0  0  0  0  3  0  0  0  0  0  0
   38.1580   27.3710   43.6790 C   0  0  0  0  0  3  0  0  0  0  0  0
   38.8080   26.6160   42.5650 C   0  0  0  0  0  0  0  0  0  0  0  0
   38.3150   25.6620   42.3640 H   0  0  0  0  0  0  0  0  0  0  0  0
   38.7030   27.2310   41.6250 H   0  0  0  0  0  0  0  0  0  0  0  0
   40.2430   26.4490   42.9090 C   0  0  0  0  0  0  0  0  0  0  0  0
   40.8990   25.1820   42.7180 C   0  0  0  0  0  0  0  0  0  0  0  0
   40.3870   24.2760   42.3130 H   0  0  0  0  0  0  0  0  0  0  0  0
   42.6460   25.5340   43.3000 S   0  0  0  0  0  0  0  0  0  0  0  0
   42.1260   27.3210   43.6790 C   0  0  0  0  0  0  0  0  0  0  0  0
   42.7550   28.2200   44.1150 H   0  0  0  0  0  0  0  0  0  0  0  0
   41.0400   27.3780   43.3980 N   0  0  0  0  0  0  0  0  0  0  0  0
  1  6  1  0  0  0  0
  2  3  1  0  0  0  0
  2  1  2  0  0  0  0
  3  4  2  0  0  0  0
  4  9  1  0  0  0  0
  4  5  1  0  0  0  0
  5 21  1  0  0  0  0
  6  5  2  0  0  0  0
  7  2  1  0  0  0  0
  8  3  1  0  0  0  0
 10 15  2  0  0  0  0
 10 11  1  0  0  0  0
 11 12  2  0  0  0  0
 12 13  1  0  0  0  0
 12 18  1  0  0  0  0
 14  1  1  0  0  0  0
 14 13  2  0  0  0  0
 15 14  1  0  0  0  0
 16 10  1  0  0  0  0
 17 11  1  0  0  0  0
 19 16  1  0  0  0  0
 20 16  1  0  0  0  0
 21 22  2  0  0  0  0
 23 26  1  0  0  0  0
 23 22  1  0  0  0  0
 24 23  1  0  0  0  0
 25 23  1  0  0  0  0
 26 32  1  0  0  0  0
 27 26  2  0  0  0  0
 27 29  1  0  0  0  0
 28 27  1  0  0  0  0
 29 30  1  0  0  0  0
 30 31  1  0  0  0  0
 32 30  2  0  0  0  0
M  END
>  <minimizedAffinity>
-5.48359871

$$$$

 OpenBabel03242520133D

 32 34  0  0  0  0  0  0  0  0999 V2000
   37.8520   29.2200   41.9310 C   0  0  0  0  0  0  0  0  0  0  0  0
   37.5410   28.9560   43.2200 C   0  0  0  0  0  0  0  0  0  0  0  0
   37.1090   27.6880   43.5580 C   0  0  0  0  0  0  0  0  0  0  0  0
   36.9960   26.7060   42.5850 C   0  0  0  0  0  0  0  0  0  0  0  0
   37.3290   27.0240   41.2580 C   0  0  0  0  0  0  0  0  0  0  0  0
   37.7340   28.2380   40.9840 N   0  0  0  0  0  0  0  0  0  0  0  0
   37.6380   29.7420   43.9620 H   0  0  0  0  0  0  0  0  0  0  0  0
   36.8510   27.4410   44.5830 H   0  0  0  0  0  0  0  0  0  0  0  0
   36.6620   25.6880   42.7830 H   0  0  0  0  0  0  0  0  0  0  0  0
   37.8770   32.5740   40.4820 C   0  0  0  0  0  0  0  0  0  0  0  0
   39.2300   32.9230   40.6310 C   0  0  0  0  0  0  0  0  0  0  0  0
   40.1440   32.0340   41.2130 C   0  0  0  0  0  0  0  0  0  0  0  0
   39.5930   30.8770   41.5880 N   0  0  0  0  0  0  0  0  0  0  0  0
   38.3270   30.5280   41.4600 C   0  0  0  0  0  0  0  0  0  0  0  0
   37.4630   31.3780   40.9040 N   0  0  0  0  0  0  0  0  0  0  0  0
   36.9970   33.5190   39.8730 N   0  0  0  0  0  0  0  0  0  0  0  0
   39.5950   33.8970   40.2930 H   0  0  0  0  0  0  0  0  0  0  0  0
   41.1880   32.2820   41.3360 H   0  0  0  0  0  0  0  0  0  0  0  0
   36.7440   34.4510   40.2400 H   0  0  0  0  0  0  0  0  0  0  0  0
   36.6380   33.1190   38.9770 H   0  0  0  0  0  0  0  0  0  0  0  0
   37.2240   26.0240   40.2170 C   0  0  0  0  0  3  0  0  0  0  0  0
   36.5210   26.1990   39.1010 C   0  0  0  0  0  3  0  0  0  0  0  0
   35.7710   27.4630   38.8320 C   0  0  0  0  0  0  0  0  0  0  0  0
   34.6890   27.3210   38.8610 H   0  0  0  0  0  0  0  0  0  0  0  0
   36.0180   28.1910   39.6570 H   0  0  0  0  0  0  0  0  0  0  0  0
   36.2350   27.9960   37.5260 C   0  0  0  0  0  0  0  0  0  0  0  0
   35.3920   28.8670   36.7490 C   0  0  0  0  0  0  0  0  0  0  0  0
   34.3720   29.1850   37.0690 H   0  0  0  0  0  0  0  0  0  0  0  0
   36.4500   29.2220   35.2420 S   0  0  0  0  0  0  0  0  0  0  0  0
   37.8120   28.1200   35.9770 C   0  0  0  0  0  0  0  0  0  0  0  0
   38.8770   27.8420   35.5510 H   0  0  0  0  0  0  0  0  0  0  0  0
   37.3990   27.7540   36.9550 N   0  0  0  0  0  0  0  0  0  0  0  0
  1  2  1  0  0  0  0
  2  3  2  0  0  0  0
  2  7  1  0  0  0  0
  3  8  1  0  0  0  0
  4  9  1  0  0  0  0
  4  3  1  0  0  0  0
  5  4  2  0  0  0  0
  6  5  1  0  0  0  0
  6  1  2  0  0  0  0
 10 11  2  0  0  0  0
 10 15  1  0  0  0  0
 11 12  1  0  0  0  0
 12 18  1  0  0  0  0
 12 13  2  0  0  0  0
 14 13  1  0  0  0  0
 14  1  1  0  0  0  0
 15 14  2  0  0  0  0
 16 19  1  0  0  0  0
 16 10  1  0  0  0  0
 17 11  1  0  0  0  0
 20 16  1  0  0  0  0
 21  5  1  0  0  0  0
 22 21  2  0  0  0  0
 23 24  1  0  0  0  0
 23 22  1  0  0  0  0
 23 25  1  0  0  0  0
 26 23  1  0  0  0  0
 27 28  1  0  0  0  0
 27 26  2  0  0  0  0
 29 30  1  0  0  0  0
 29 27  1  0  0  0  0
 30 32  2  0  0  0  0
 31 30  1  0  0  0  0
 32 26  1  0  0  0  0
M  END
>  <minimizedAffinity>
-5.36019611

$$$$

 OpenBabel03242520133D

 32 34  0  0  0  0  0  0  0  0999 V2000
   38.7390   31.2500   39.0660 C   0  0  0  0  0  0  0  0  0  0  0  0
   38.0350   32.3440   39.4380 C   0  0  0  0  0  0  0  0  0  0  0  0
   36.8740   32.1740   40.1690 C   0  0  0  0  0  0  0  0  0  0  0  0
   36.4420   30.9010   40.5090 C   0  0  0  0  0  0  0  0  0  0  0  0
   37.2050   29.7940   40.1020 C   0  0  0  0  0  0  0  0  0  0  0  0
   38.2970   30.0020   39.4120 N   0  0  0  0  0  0  0  0  0  0  0  0
   38.3950   33.3280   39.1580 H   0  0  0  0  0  0  0  0  0  0  0  0
   36.2850   33.0290   40.4850 H   0  0  0  0  0  0  0  0  0  0  0  0
   35.5390   30.6980   41.0830 H   0  0  0  0  0  0  0  0  0  0  0  0
   41.6360   32.5710   37.2740 C   0  0  0  0  0  0  0  0  0  0  0  0
   42.2890   31.3830   36.9020 C   0  0  0  0  0  0  0  0  0  0  0  0
   41.7600   30.1320   37.2460 C   0  0  0  0  0  0  0  0  0  0  0  0
   40.6180   30.2090   37.9340 N   0  0  0  0  0  0  0  0  0  0  0  0
   39.9880   31.3110   38.2950 C   0  0  0  0  0  0  0  0  0  0  0  0
   40.4970   32.4980   37.9640 N   0  0  0  0  0  0  0  0  0  0  0  0
   42.2210   33.8140   36.8870 N   0  0  0  0  0  0  0  0  0  0  0  0
   43.2250   31.4140   36.3370 H   0  0  0  0  0  0  0  0  0  0  0  0
   42.2440   29.2070   36.9690 H   0  0  0  0  0  0  0  0  0  0  0  0
   43.1330   34.1890   37.1930 H   0  0  0  0  0  0  0  0  0  0  0  0
   41.5730   34.3030   36.2290 H   0  0  0  0  0  0  0  0  0  0  0  0
   36.7850   28.4510   40.4410 C   0  0  0  0  0  3  0  0  0  0  0  0
   36.9180   27.9270   41.6570 C   0  0  0  0  0  3  0  0  0  0  0  0
   37.5240   28.6980   42.7850 C   0  0  0  0  0  0  0  0  0  0  0  0
   37.4650   29.7790   42.6310 H   0  0  0  0  0  0  0  0  0  0  0  0
   36.9250   28.4770   43.7140 H   0  0  0  0  0  0  0  0  0  0  0  0
   38.9220   28.2280   42.9550 C   0  0  0  0  0  0  0  0  0  0  0  0
   39.2040   27.0140   43.6750 C   0  0  0  0  0  0  0  0  0  0  0  0
   38.4160   26.3710   44.1340 H   0  0  0  0  0  0  0  0  0  0  0  0
   41.0740   26.9090   43.5830 S   0  0  0  0  0  0  0  0  0  0  0  0
   41.0850   28.5280   42.5900 C   0  0  0  0  0  0  0  0  0  0  0  0
   41.9900   29.1390   42.1410 H   0  0  0  0  0  0  0  0  0  0  0  0
   40.0060   28.8250   42.4990 N   0  0  0  0  0  0  0  0  0  0  0  0
  1  6  2  0  0  0  0
  1  2  1  0  0  0  0
  2  3  2  0  0  0  0
  3  8  1  0  0  0  0
  3  4  1  0  0  0  0
  4  9  1  0  0  0  0
  5 21  1  0  0  0  0
  5  4  2  0  0  0  0
  6  5  1  0  0  0  0
  7  2  1  0  0  0  0
 10 15  1  0  0  0  0
 11 12  1  0  0  0  0
 11 10  2  0  0  0  0
 12 13  2  0  0  0  0
 13 14  1  0  0  0  0
 14  1  1  0  0  0  0
 15 14  2  0  0  0  0
 16 19  1  0  0  0  0
 16 10  1  0  0  0  0
 17 11  1  0  0  0  0
 18 12  1  0  0  0  0
 20 16  1  0  0  0  0
 21 22  2  0  0  0  0
 22 23  1  0  0  0  0
 23 26  1  0  0  0  0
 23 25  1  0  0  0  0
 24 23  1  0  0  0  0
 26 27  2  0  0  0  0
 27 28  1  0  0  0  0
 29 27  1  0  0  0  0
 30 29  1  0  0  0  0
 31 30  1  0  0  0  0
 32 30  2  0  0  0  0
 32 26  1  0  0  0  0
M  END
>  <minimizedAffinity>
-5.3065238

$$$$

 OpenBabel03242520133D

 32 34  0  0  0  0  0  0  0  0999 V2000
   38.5690   29.3390   41.2690 C   0  0  0  0  0  0  0  0  0  0  0  0
   39.7360   29.4080   41.9490 C   0  0  0  0  0  0  0  0  0  0  0  0
   39.9800   28.4870   42.9510 C   0  0  0  0  0  0  0  0  0  0  0  0
   39.0400   27.5110   43.2480 C   0  0  0  0  0  0  0  0  0  0  0  0
   37.8420   27.4770   42.5140 C   0  0  0  0  0  0  0  0  0  0  0  0
   37.6540   28.3690   41.5760 N   0  0  0  0  0  0  0  0  0  0  0  0
   40.4540   30.1810   41.6980 H   0  0  0  0  0  0  0  0  0  0  0  0
   40.9060   28.5120   43.5170 H   0  0  0  0  0  0  0  0  0  0  0  0
   39.1700   26.7570   44.0220 H   0  0  0  0  0  0  0  0  0  0  0  0
   37.4220   32.3270   39.5060 C   0  0  0  0  0  0  0  0  0  0  0  0
   37.5740   31.9270   38.1670 C   0  0  0  0  0  0  0  0  0  0  0  0
   38.0580   30.6510   37.8470 C   0  0  0  0  0  0  0  0  0  0  0  0
   38.3400   29.9060   38.9190 N   0  0  0  0  0  0  0  0  0  0  0  0
   38.2060   30.2600   40.1830 C   0  0  0  0  0  0  0  0  0  0  0  0
   37.7450   31.4750   40.4800 N   0  0  0  0  0  0  0  0  0  0  0  0
   36.9170   33.6360   39.7670 N   0  0  0  0  0  0  0  0  0  0  0  0
   37.3170   32.6060   37.3490 H   0  0  0  0  0  0  0  0  0  0  0  0
   38.1810   30.3230   36.8250 H   0  0  0  0  0  0  0  0  0  0  0  0
   37.3690   34.5320   39.5230 H   0  0  0  0  0  0  0  0  0  0  0  0
   35.9970   33.5530   40.2550 H   0  0  0  0  0  0  0  0  0  0  0  0
   36.8400   26.4720   42.7960 C   0  0  0  0  0  3  0  0  0  0  0  0
   36.9450   25.2040   42.4070 C   0  0  0  0  0  3  0  0  0  0  0  0
   38.1250   24.7120   41.6350 C   0  0  0  0  0  0  0  0  0  0  0  0
   38.6560   25.5190   41.1240 H   0  0  0  0  0  0  0  0  0  0  0  0
   38.8560   24.2660   42.3690 H   0  0  0  0  0  0  0  0  0  0  0  0
   37.6460   23.6680   40.6930 C   0  0  0  0  0  0  0  0  0  0  0  0
   36.3290   23.7490   40.1180 C   0  0  0  0  0  0  0  0  0  0  0  0
   35.6090   24.5730   40.3370 H   0  0  0  0  0  0  0  0  0  0  0  0
   36.2590   22.2160   39.0390 S   0  0  0  0  0  0  0  0  0  0  0  0
   38.0260   21.7870   39.5900 C   0  0  0  0  0  0  0  0  0  0  0  0
   38.7140   20.8740   39.2940 H   0  0  0  0  0  0  0  0  0  0  0  0
   38.3240   22.6100   40.2940 N   0  0  0  0  0  0  0  0  0  0  0  0
  1  6  2  0  0  0  0
  1  2  1  0  0  0  0
  2  3  2  0  0  0  0
  3  4  1  0  0  0  0
  3  8  1  0  0  0  0
  4  9  1  0  0  0  0
  5 21  1  0  0  0  0
  5  4  2  0  0  0  0
  6  5  1  0  0  0  0
  7  2  1  0  0  0  0
 10 16  1  0  0  0  0
 10 15  1  0  0  0  0
 11 10  2  0  0  0  0
 12 11  1  0  0  0  0
 12 13  2  0  0  0  0
 13 14  1  0  0  0  0
 14 15  2  0  0  0  0
 14  1  1  0  0  0  0
 16 20  1  0  0  0  0
 17 11  1  0  0  0  0
 18 12  1  0  0  0  0
 19 16  1  0  0  0  0
 22 21  2  0  0  0  0
 23 25  1  0  0  0  0
 23 22  1  0  0  0  0
 24 23  1  0  0  0  0
 26 23  1  0  0  0  0
 27 28  1  0  0  0  0
 27 26  2  0  0  0  0
 29 30  1  0  0  0  0
 29 27  1  0  0  0  0
 30 32  2  0  0  0  0
 31 30  1  0  0  0  0
 32 26  1  0  0  0  0
M  END
>  <minimizedAffinity>
-5.26159477

$$$$

 OpenBabel03242520133D

 32 34  0  0  0  0  0  0  0  0999 V2000
   37.4530   28.5060   41.6310 C   0  0  0  0  0  0  0  0  0  0  0  0
   36.2120   28.0870   41.2920 C   0  0  0  0  0  0  0  0  0  0  0  0
   35.3510   28.9770   40.6760 C   0  0  0  0  0  0  0  0  0  0  0  0
   35.7590   30.2770   40.4150 C   0  0  0  0  0  0  0  0  0  0  0  0
   37.0570   30.6690   40.7850 C   0  0  0  0  0  0  0  0  0  0  0  0
   37.8370   29.7920   41.3650 N   0  0  0  0  0  0  0  0  0  0  0  0
   35.9180   27.0660   41.5070 H   0  0  0  0  0  0  0  0  0  0  0  0
   34.3490   28.6750   40.3900 H   0  0  0  0  0  0  0  0  0  0  0  0
   35.1330   31.0260   39.9340 H   0  0  0  0  0  0  0  0  0  0  0  0
   39.2010   25.5280   42.8250 C   0  0  0  0  0  0  0  0  0  0  0  0
   40.3120   26.1050   43.4650 C   0  0  0  0  0  0  0  0  0  0  0  0
   40.4790   27.4950   43.5040 C   0  0  0  0  0  0  0  0  0  0  0  0
   39.5010   28.1650   42.8890 N   0  0  0  0  0  0  0  0  0  0  0  0
   38.4510   27.6470   42.2810 C   0  0  0  0  0  0  0  0  0  0  0  0
   38.2970   26.3230   42.2480 N   0  0  0  0  0  0  0  0  0  0  0  0
   39.0820   24.1060   42.8260 N   0  0  0  0  0  0  0  0  0  0  0  0
   41.0670   25.4760   43.9440 H   0  0  0  0  0  0  0  0  0  0  0  0
   41.3240   27.9590   43.9910 H   0  0  0  0  0  0  0  0  0  0  0  0
   39.7240   23.4330   42.3760 H   0  0  0  0  0  0  0  0  0  0  0  0
   38.2280   23.8370   43.3640 H   0  0  0  0  0  0  0  0  0  0  0  0
   37.5170   32.0160   40.5260 C   0  0  0  0  0  3  0  0  0  0  0  0
   37.9120   32.4380   39.3280 C   0  0  0  0  0  3  0  0  0  0  0  0
   37.9130   31.5360   38.1360 C   0  0  0  0  0  0  0  0  0  0  0  0
   37.2650   30.6660   38.2700 H   0  0  0  0  0  0  0  0  0  0  0  0
   37.4900   32.1150   37.2660 H   0  0  0  0  0  0  0  0  0  0  0  0
   39.3210   31.1530   37.8600 C   0  0  0  0  0  0  0  0  0  0  0  0
   40.2900   32.1480   37.4810 C   0  0  0  0  0  0  0  0  0  0  0  0
   40.0510   33.2340   37.3750 H   0  0  0  0  0  0  0  0  0  0  0  0
   41.8530   31.1350   37.2610 S   0  0  0  0  0  0  0  0  0  0  0  0
   40.8700   29.5770   37.7280 C   0  0  0  0  0  0  0  0  0  0  0  0
   41.2220   28.4540   37.8120 H   0  0  0  0  0  0  0  0  0  0  0  0
   39.8240   29.9360   37.9220 N   0  0  0  0  0  0  0  0  0  0  0  0
  1 14  1  0  0  0  0
  2  7  1  0  0  0  0
  2  1  2  0  0  0  0
  3  2  1  0  0  0  0
  4  3  2  0  0  0  0
  4  5  1  0  0  0  0
  5  6  2  0  0  0  0
  6  1  1  0  0  0  0
  8  3  1  0  0  0  0
  9  4  1  0  0  0  0
 10 16  1  0  0  0  0
 10 11  1  0  0  0  0
 11 12  2  0  0  0  0
 11 17  1  0  0  0  0
 12 18  1  0  0  0  0
 13 12  1  0  0  0  0
 14 13  2  0  0  0  0
 15 14  1  0  0  0  0
 15 10  2  0  0  0  0
 16 20  1  0  0  0  0
 19 16  1  0  0  0  0
 21  5  1  0  0  0  0
 22 21  2  0  0  0  0
 23 24  1  0  0  0  0
 23 22  1  0  0  0  0
 25 23  1  0  0  0  0
 26 32  1  0  0  0  0
 26 23  1  0  0  0  0
 27 26  2  0  0  0  0
 28 27  1  0  0  0  0
 29 27  1  0  0  0  0
 29 30  1  0  0  0  0
 30 31  1  0  0  0  0
 30 32  2  0  0  0  0
M  END
>  <minimizedAffinity>
-5.2521739

$$$$
