
 OpenBabel03252501493D

 31 33  0  0  0  0  0  0  0  0999 V2000
   38.4090   28.6880   40.6430 C   0  0  0  0  0  0  0  0  0  0  0  0
   38.4620   28.2930   42.0020 C   0  0  0  0  0  0  0  0  0  0  0  0
   38.8360   29.2450   42.9710 C   0  0  0  0  0  0  0  0  0  0  0  0
   39.1280   30.5050   42.5430 N   0  0  0  0  0  0  0  0  0  0  0  0
   39.0640   30.8300   41.2430 C   0  0  0  0  0  0  0  0  0  0  0  0
   38.7120   29.9400   40.3180 N   0  0  0  0  0  0  0  0  0  0  0  0
   38.1240   27.9740   39.8800 H   0  0  0  0  0  0  0  0  0  0  0  0
   38.8810   28.9580   44.0160 H   0  0  0  0  0  0  0  0  0  0  0  0
   37.0910   32.6520   40.5710 F   0  0  0  0  0  0  0  0  0  0  0  0
   38.3790   33.0890   40.5240 C   0  0  0  0  0  0  0  0  0  0  0  0
   39.3910   32.1990   40.8550 C   0  0  0  0  0  0  0  0  0  0  0  0
   40.7140   32.5820   40.8280 C   0  0  0  0  0  0  0  0  0  0  0  0
   41.0020   33.8940   40.4550 C   0  0  0  0  0  0  0  0  0  0  0  0
   40.0060   34.8020   40.1190 C   0  0  0  0  0  0  0  0  0  0  0  0
   38.6690   34.3880   40.1560 C   0  0  0  0  0  0  0  0  0  0  0  0
   41.4900   31.8700   41.0900 H   0  0  0  0  0  0  0  0  0  0  0  0
   42.0420   34.2080   40.4300 H   0  0  0  0  0  0  0  0  0  0  0  0
   40.2940   35.8070   39.8390 H   0  0  0  0  0  0  0  0  0  0  0  0
   37.8890   35.0850   39.8970 H   0  0  0  0  0  0  0  0  0  0  0  0
   38.1320   26.9170   42.3830 C   0  0  0  0  0  3  0  0  0  0  0  0
   37.2200   26.1760   41.7730 C   0  0  0  0  0  3  0  0  0  0  0  0
   36.9230   24.7710   42.2060 C   0  0  0  0  0  0  0  0  0  0  0  0
   35.8600   24.7620   42.5080 H   0  0  0  0  0  0  0  0  0  0  0  0
   37.5890   24.5040   43.0500 H   0  0  0  0  0  0  0  0  0  0  0  0
   37.0800   23.8280   41.0430 C   0  0  0  0  0  0  0  0  0  0  0  0
   36.0100   23.7520   40.1410 C   0  0  0  0  0  0  0  0  0  0  0  0
   35.0860   24.2460   40.1200 H   0  0  0  0  0  0  0  0  0  0  0  0
   36.5810   22.5410   38.9280 S   0  0  0  0  0  0  0  0  0  0  0  0
   38.2310   22.3180   39.8580 C   0  0  0  0  0  0  0  0  0  0  0  0
   39.2390   21.7050   39.7800 H   0  0  0  0  0  0  0  0  0  0  0  0
   38.1540   23.0950   40.8520 N   0  0  0  0  0  0  0  0  0  0  0  0
  1  2  1  0  0  0  0
  2 20  1  0  0  0  0
  2  3  2  0  0  0  0
  3  8  1  0  0  0  0
  4  3  1  0  0  0  0
  5  4  2  0  0  0  0
  6  1  2  0  0  0  0
  6  5  1  0  0  0  0
  7  1  1  0  0  0  0
 10  9  1  0  0  0  0
 10 11  1  0  0  0  0
 11  5  1  0  0  0  0
 12 11  2  0  0  0  0
 12 16  1  0  0  0  0
 13 12  1  0  0  0  0
 14 15  1  0  0  0  0
 14 13  2  0  0  0  0
 15 10  2  0  0  0  0
 17 13  1  0  0  0  0
 18 14  1  0  0  0  0
 19 15  1  0  0  0  0
 21 22  1  0  0  0  0
 21 20  2  0  0  0  0
 22 23  1  0  0  0  0
 22 24  1  0  0  0  0
 25 22  1  0  0  0  0
 26 25  2  0  0  0  0
 27 26  1  0  0  0  0
 28 29  1  0  0  0  0
 28 26  1  0  0  0  0
 29 31  2  0  0  0  0
 30 29  1  0  0  0  0
 31 25  1  0  0  0  0
M  END
>  <minimizedAffinity>
-5.18308926

$$$$

 OpenBabel03252501493D

 31 33  0  0  0  0  0  0  0  0999 V2000
   34.1230   29.1810   39.1970 C   0  0  0  0  0  0  0  0  0  0  0  0
   34.6400   28.8210   37.9280 C   0  0  0  0  0  0  0  0  0  0  0  0
   35.9130   28.2220   37.8600 C   0  0  0  0  0  0  0  0  0  0  0  0
   36.5830   28.0190   39.0300 N   0  0  0  0  0  0  0  0  0  0  0  0
   36.0490   28.3780   40.2070 C   0  0  0  0  0  0  0  0  0  0  0  0
   34.8480   28.9440   40.2860 N   0  0  0  0  0  0  0  0  0  0  0  0
   33.1470   29.6420   39.2750 H   0  0  0  0  0  0  0  0  0  0  0  0
   36.3230   27.9400   36.8970 H   0  0  0  0  0  0  0  0  0  0  0  0
   37.0590   30.4600   41.7260 F   0  0  0  0  0  0  0  0  0  0  0  0
   37.3160   29.1960   42.1600 C   0  0  0  0  0  0  0  0  0  0  0  0
   36.8240   28.1310   41.4210 C   0  0  0  0  0  0  0  0  0  0  0  0
   37.0500   26.8280   41.8080 C   0  0  0  0  0  0  0  0  0  0  0  0
   37.7910   26.6170   42.9700 C   0  0  0  0  0  0  0  0  0  0  0  0
   38.2940   27.6670   43.7260 C   0  0  0  0  0  0  0  0  0  0  0  0
   38.0500   28.9830   43.3100 C   0  0  0  0  0  0  0  0  0  0  0  0
   36.6560   26.0090   41.2150 H   0  0  0  0  0  0  0  0  0  0  0  0
   37.9770   25.5950   43.2870 H   0  0  0  0  0  0  0  0  0  0  0  0
   38.8620   27.4380   44.6190 H   0  0  0  0  0  0  0  0  0  0  0  0
   38.4360   29.8040   43.8900 H   0  0  0  0  0  0  0  0  0  0  0  0
   33.8570   29.0720   36.7160 C   0  0  0  0  0  3  0  0  0  0  0  0
   32.5350   29.0930   36.6770 C   0  0  0  0  0  3  0  0  0  0  0  0
   31.7840   29.3570   35.4050 C   0  0  0  0  0  0  0  0  0  0  0  0
   31.1460   28.4690   35.2370 H   0  0  0  0  0  0  0  0  0  0  0  0
   32.5080   29.5010   34.5800 H   0  0  0  0  0  0  0  0  0  0  0  0
   30.8790   30.5480   35.5760 C   0  0  0  0  0  0  0  0  0  0  0  0
   30.2030   30.9990   34.4340 C   0  0  0  0  0  0  0  0  0  0  0  0
   30.2080   30.6520   33.4460 H   0  0  0  0  0  0  0  0  0  0  0  0
   29.2520   32.4060   35.0500 S   0  0  0  0  0  0  0  0  0  0  0  0
   29.9360   32.1580   36.8130 C   0  0  0  0  0  0  0  0  0  0  0  0
   29.8540   32.6340   37.8910 H   0  0  0  0  0  0  0  0  0  0  0  0
   30.7070   31.1600   36.7260 N   0  0  0  0  0  0  0  0  0  0  0  0
  1  7  1  0  0  0  0
  1  6  1  0  0  0  0
  2  1  2  0  0  0  0
  3  2  1  0  0  0  0
  3  4  2  0  0  0  0
  4  5  1  0  0  0  0
  5  6  2  0  0  0  0
  5 11  1  0  0  0  0
  8  3  1  0  0  0  0
  9 10  1  0  0  0  0
 10 15  1  0  0  0  0
 11 12  1  0  0  0  0
 11 10  2  0  0  0  0
 12 13  2  0  0  0  0
 13 17  1  0  0  0  0
 13 14  1  0  0  0  0
 14 18  1  0  0  0  0
 15 14  2  0  0  0  0
 15 19  1  0  0  0  0
 16 12  1  0  0  0  0
 20  2  1  0  0  0  0
 21 20  2  0  0  0  0
 22 25  1  0  0  0  0
 22 21  1  0  0  0  0
 23 22  1  0  0  0  0
 24 22  1  0  0  0  0
 25 31  1  0  0  0  0
 26 28  1  0  0  0  0
 26 25  2  0  0  0  0
 27 26  1  0  0  0  0
 28 29  1  0  0  0  0
 29 30  1  0  0  0  0
 31 29  2  0  0  0  0
M  END
>  <minimizedAffinity>
-5.13651896

$$$$

 OpenBabel03252501493D

 31 33  0  0  0  0  0  0  0  0999 V2000
   35.8270   27.4430   38.6200 C   0  0  0  0  0  0  0  0  0  0  0  0
   35.3280   28.7600   38.4710 C   0  0  0  0  0  0  0  0  0  0  0  0
   35.7330   29.7460   39.3910 C   0  0  0  0  0  0  0  0  0  0  0  0
   36.5910   29.3760   40.3830 N   0  0  0  0  0  0  0  0  0  0  0  0
   37.0350   28.1140   40.4820 C   0  0  0  0  0  0  0  0  0  0  0  0
   36.6610   27.1730   39.6190 N   0  0  0  0  0  0  0  0  0  0  0  0
   35.5310   26.6680   37.9250 H   0  0  0  0  0  0  0  0  0  0  0  0
   35.3600   30.7600   39.2910 H   0  0  0  0  0  0  0  0  0  0  0  0
   36.1140   27.5830   43.0380 F   0  0  0  0  0  0  0  0  0  0  0  0
   37.4590   27.5270   42.8400 C   0  0  0  0  0  0  0  0  0  0  0  0
   37.9530   27.7880   41.5700 C   0  0  0  0  0  0  0  0  0  0  0  0
   39.3040   27.7450   41.3070 C   0  0  0  0  0  0  0  0  0  0  0  0
   40.1600   27.4310   42.3620 C   0  0  0  0  0  0  0  0  0  0  0  0
   39.6900   27.1670   43.6410 C   0  0  0  0  0  0  0  0  0  0  0  0
   38.3110   27.2160   43.8820 C   0  0  0  0  0  0  0  0  0  0  0  0
   39.6690   27.9530   40.3060 H   0  0  0  0  0  0  0  0  0  0  0  0
   41.2290   27.3940   42.1680 H   0  0  0  0  0  0  0  0  0  0  0  0
   40.4050   26.9280   44.4180 H   0  0  0  0  0  0  0  0  0  0  0  0
   37.9360   27.0120   44.8710 H   0  0  0  0  0  0  0  0  0  0  0  0
   34.4080   29.0800   37.3760 C   0  0  0  0  0  3  0  0  0  0  0  0
   33.0920   28.9740   37.4580 C   0  0  0  0  0  3  0  0  0  0  0  0
   32.1970   29.3150   36.3040 C   0  0  0  0  0  0  0  0  0  0  0  0
   31.6470   28.3880   36.0580 H   0  0  0  0  0  0  0  0  0  0  0  0
   32.8170   29.6590   35.4540 H   0  0  0  0  0  0  0  0  0  0  0  0
   31.1870   30.3520   36.7210 C   0  0  0  0  0  0  0  0  0  0  0  0
   30.5540   30.1580   37.9560 C   0  0  0  0  0  0  0  0  0  0  0  0
   30.6520   29.3990   38.6720 H   0  0  0  0  0  0  0  0  0  0  0  0
   29.4470   31.5800   38.0770 S   0  0  0  0  0  0  0  0  0  0  0  0
   30.0320   32.2390   36.3860 C   0  0  0  0  0  0  0  0  0  0  0  0
   29.8380   33.1440   35.6510 H   0  0  0  0  0  0  0  0  0  0  0  0
   30.8890   31.4000   35.9870 N   0  0  0  0  0  0  0  0  0  0  0  0
  1  6  1  0  0  0  0
  2  1  2  0  0  0  0
  2  3  1  0  0  0  0
  3  4  2  0  0  0  0
  4  5  1  0  0  0  0
  5 11  1  0  0  0  0
  6  5  2  0  0  0  0
  7  1  1  0  0  0  0
  8  3  1  0  0  0  0
 10  9  1  0  0  0  0
 10 15  1  0  0  0  0
 11 10  2  0  0  0  0
 12 11  1  0  0  0  0
 12 13  2  0  0  0  0
 13 14  1  0  0  0  0
 14 15  2  0  0  0  0
 14 18  1  0  0  0  0
 15 19  1  0  0  0  0
 16 12  1  0  0  0  0
 17 13  1  0  0  0  0
 20 21  2  0  0  0  0
 20  2  1  0  0  0  0
 22 25  1  0  0  0  0
 22 21  1  0  0  0  0
 23 22  1  0  0  0  0
 24 22  1  0  0  0  0
 25 26  2  0  0  0  0
 26 28  1  0  0  0  0
 26 27  1  0  0  0  0
 29 28  1  0  0  0  0
 30 29  1  0  0  0  0
 31 29  2  0  0  0  0
 31 25  1  0  0  0  0
M  END
>  <minimizedAffinity>
-5.10843563

$$$$

 OpenBabel03252501493D

 31 33  0  0  0  0  0  0  0  0999 V2000
   39.1770   29.6630   40.4770 C   0  0  0  0  0  0  0  0  0  0  0  0
   38.2980   30.6650   40.9570 C   0  0  0  0  0  0  0  0  0  0  0  0
   37.0210   30.2850   41.4120 C   0  0  0  0  0  0  0  0  0  0  0  0
   36.6970   28.9620   41.3660 N   0  0  0  0  0  0  0  0  0  0  0  0
   37.5660   28.0500   40.9010 C   0  0  0  0  0  0  0  0  0  0  0  0
   38.7760   28.3960   40.4680 N   0  0  0  0  0  0  0  0  0  0  0  0
   40.1640   29.9320   40.1220 H   0  0  0  0  0  0  0  0  0  0  0  0
   36.3360   31.0400   41.7830 H   0  0  0  0  0  0  0  0  0  0  0  0
   37.7360   26.4600   43.1600 F   0  0  0  0  0  0  0  0  0  0  0  0
   37.2500   25.8790   42.0290 C   0  0  0  0  0  0  0  0  0  0  0  0
   37.1530   26.6500   40.8800 C   0  0  0  0  0  0  0  0  0  0  0  0
   36.6700   26.1200   39.7040 C   0  0  0  0  0  0  0  0  0  0  0  0
   36.2810   24.7810   39.7080 C   0  0  0  0  0  0  0  0  0  0  0  0
   36.3700   23.9890   40.8460 C   0  0  0  0  0  0  0  0  0  0  0  0
   36.8650   24.5530   42.0290 C   0  0  0  0  0  0  0  0  0  0  0  0
   36.6020   26.7410   38.8160 H   0  0  0  0  0  0  0  0  0  0  0  0
   35.8980   24.3500   38.7870 H   0  0  0  0  0  0  0  0  0  0  0  0
   36.0510   22.9570   40.7850 H   0  0  0  0  0  0  0  0  0  0  0  0
   36.9360   23.9470   42.9160 H   0  0  0  0  0  0  0  0  0  0  0  0
   38.7200   32.0680   40.9750 C   0  0  0  0  0  3  0  0  0  0  0  0
   38.5220   32.9160   39.9790 C   0  0  0  0  0  3  0  0  0  0  0  0
   38.9760   34.3440   40.0530 C   0  0  0  0  0  0  0  0  0  0  0  0
   38.6560   34.7170   41.0420 H   0  0  0  0  0  0  0  0  0  0  0  0
   38.5060   34.9160   39.2300 H   0  0  0  0  0  0  0  0  0  0  0  0
   40.4800   34.4110   40.0010 C   0  0  0  0  0  0  0  0  0  0  0  0
   41.1000   33.8640   38.8690 C   0  0  0  0  0  0  0  0  0  0  0  0
   40.7010   33.3980   38.0200 H   0  0  0  0  0  0  0  0  0  0  0  0
   42.8560   34.1370   39.1910 S   0  0  0  0  0  0  0  0  0  0  0  0
   42.4680   34.9780   40.8580 C   0  0  0  0  0  0  0  0  0  0  0  0
   43.0260   35.4840   41.7690 H   0  0  0  0  0  0  0  0  0  0  0  0
   41.2080   34.9500   40.9530 N   0  0  0  0  0  0  0  0  0  0  0  0
  1  2  1  0  0  0  0
  2 20  1  0  0  0  0
  2  3  2  0  0  0  0
  3  8  1  0  0  0  0
  4  3  1  0  0  0  0
  5  4  2  0  0  0  0
  6  1  2  0  0  0  0
  6  5  1  0  0  0  0
  7  1  1  0  0  0  0
 10  9  1  0  0  0  0
 11  5  1  0  0  0  0
 11 10  2  0  0  0  0
 12 13  2  0  0  0  0
 12 11  1  0  0  0  0
 13 14  1  0  0  0  0
 14 15  2  0  0  0  0
 15 10  1  0  0  0  0
 15 19  1  0  0  0  0
 16 12  1  0  0  0  0
 17 13  1  0  0  0  0
 18 14  1  0  0  0  0
 21 22  1  0  0  0  0
 21 20  2  0  0  0  0
 22 23  1  0  0  0  0
 24 22  1  0  0  0  0
 25 22  1  0  0  0  0
 25 31  1  0  0  0  0
 26 28  1  0  0  0  0
 26 25  2  0  0  0  0
 27 26  1  0  0  0  0
 28 29  1  0  0  0  0
 29 31  2  0  0  0  0
 29 30  1  0  0  0  0
M  END
>  <minimizedAffinity>
-5.07235861

$$$$

 OpenBabel03252501493D

 31 33  0  0  0  0  0  0  0  0999 V2000
   33.8070   29.1960   35.8130 C   0  0  0  0  0  0  0  0  0  0  0  0
   33.3000   29.1340   37.1350 C   0  0  0  0  0  0  0  0  0  0  0  0
   31.9810   29.5650   37.3760 C   0  0  0  0  0  0  0  0  0  0  0  0
   31.2580   30.0220   36.3150 N   0  0  0  0  0  0  0  0  0  0  0  0
   31.7830   30.0610   35.0810 C   0  0  0  0  0  0  0  0  0  0  0  0
   33.0280   29.6560   34.8390 N   0  0  0  0  0  0  0  0  0  0  0  0
   34.8170   28.8700   35.6030 H   0  0  0  0  0  0  0  0  0  0  0  0
   31.5780   29.5240   38.3820 H   0  0  0  0  0  0  0  0  0  0  0  0
   31.2580   32.7630   34.7910 F   0  0  0  0  0  0  0  0  0  0  0  0
   30.7070   31.9220   33.8730 C   0  0  0  0  0  0  0  0  0  0  0  0
   30.9510   30.5620   33.9910 C   0  0  0  0  0  0  0  0  0  0  0  0
   30.4220   29.6610   33.0930 C   0  0  0  0  0  0  0  0  0  0  0  0
   29.6310   30.1640   32.0610 C   0  0  0  0  0  0  0  0  0  0  0  0
   29.3720   31.5210   31.9220 C   0  0  0  0  0  0  0  0  0  0  0  0
   29.9220   32.4160   32.8490 C   0  0  0  0  0  0  0  0  0  0  0  0
   30.6260   28.6010   33.2050 H   0  0  0  0  0  0  0  0  0  0  0  0
   29.2070   29.4640   31.3460 H   0  0  0  0  0  0  0  0  0  0  0  0
   28.7500   31.8480   31.0990 H   0  0  0  0  0  0  0  0  0  0  0  0
   29.7270   33.4700   32.7490 H   0  0  0  0  0  0  0  0  0  0  0  0
   34.1420   28.6290   38.2230 C   0  0  0  0  0  3  0  0  0  0  0  0
   34.3760   29.2880   39.3460 C   0  0  0  0  0  3  0  0  0  0  0  0
   35.2470   28.7220   40.4290 C   0  0  0  0  0  0  0  0  0  0  0  0
   35.6640   27.7810   40.0250 H   0  0  0  0  0  0  0  0  0  0  0  0
   34.6320   28.5420   41.3310 H   0  0  0  0  0  0  0  0  0  0  0  0
   36.3980   29.6530   40.7050 C   0  0  0  0  0  0  0  0  0  0  0  0
   37.5330   29.0960   41.3100 C   0  0  0  0  0  0  0  0  0  0  0  0
   37.7420   28.1160   41.6180 H   0  0  0  0  0  0  0  0  0  0  0  0
   38.6480   30.5070   41.4680 S   0  0  0  0  0  0  0  0  0  0  0  0
   37.3680   31.6700   40.6650 C   0  0  0  0  0  0  0  0  0  0  0  0
   37.2410   32.8040   40.3590 H   0  0  0  0  0  0  0  0  0  0  0  0
   36.3730   30.9330   40.4090 N   0  0  0  0  0  0  0  0  0  0  0  0
  1  2  1  0  0  0  0
  2  3  2  0  0  0  0
  2 20  1  0  0  0  0
  3  8  1  0  0  0  0
  4  3  1  0  0  0  0
  5  4  2  0  0  0  0
  6  5  1  0  0  0  0
  6  1  2  0  0  0  0
  7  1  1  0  0  0  0
 10 11  1  0  0  0  0
 10  9  1  0  0  0  0
 11  5  1  0  0  0  0
 12 16  1  0  0  0  0
 12 11  2  0  0  0  0
 13 12  1  0  0  0  0
 14 13  2  0  0  0  0
 14 15  1  0  0  0  0
 15 10  2  0  0  0  0
 17 13  1  0  0  0  0
 18 14  1  0  0  0  0
 19 15  1  0  0  0  0
 20 21  2  0  0  0  0
 21 22  1  0  0  0  0
 22 25  1  0  0  0  0
 22 24  1  0  0  0  0
 23 22  1  0  0  0  0
 25 26  2  0  0  0  0
 26 28  1  0  0  0  0
 26 27  1  0  0  0  0
 29 28  1  0  0  0  0
 30 29  1  0  0  0  0
 31 29  2  0  0  0  0
 31 25  1  0  0  0  0
M  END
>  <minimizedAffinity>
-4.99619961

$$$$

 OpenBabel03252501493D

 31 33  0  0  0  0  0  0  0  0999 V2000
   38.5010   29.2450   41.8670 C   0  0  0  0  0  0  0  0  0  0  0  0
   37.4570   28.7390   41.0530 C   0  0  0  0  0  0  0  0  0  0  0  0
   37.0050   29.5170   39.9690 C   0  0  0  0  0  0  0  0  0  0  0  0
   37.6020   30.7240   39.7610 N   0  0  0  0  0  0  0  0  0  0  0  0
   38.5880   31.1590   40.5610 C   0  0  0  0  0  0  0  0  0  0  0  0
   39.0240   30.4340   41.5880 N   0  0  0  0  0  0  0  0  0  0  0  0
   38.8650   28.6650   42.7060 H   0  0  0  0  0  0  0  0  0  0  0  0
   36.2070   29.1440   39.3360 H   0  0  0  0  0  0  0  0  0  0  0  0
   40.8970   31.3980   39.0530 F   0  0  0  0  0  0  0  0  0  0  0  0
   40.3400   32.5490   39.5200 C   0  0  0  0  0  0  0  0  0  0  0  0
   39.1820   32.4630   40.2790 C   0  0  0  0  0  0  0  0  0  0  0  0
   38.5710   33.5910   40.7800 C   0  0  0  0  0  0  0  0  0  0  0  0
   39.1570   34.8250   40.4970 C   0  0  0  0  0  0  0  0  0  0  0  0
   40.3160   34.9360   39.7400 C   0  0  0  0  0  0  0  0  0  0  0  0
   40.9170   33.7730   39.2430 C   0  0  0  0  0  0  0  0  0  0  0  0
   37.6660   33.5010   41.3710 H   0  0  0  0  0  0  0  0  0  0  0  0
   38.6850   35.7230   40.8850 H   0  0  0  0  0  0  0  0  0  0  0  0
   40.7210   35.9220   39.5550 H   0  0  0  0  0  0  0  0  0  0  0  0
   41.8160   33.8490   38.6540 H   0  0  0  0  0  0  0  0  0  0  0  0
   36.8660   27.4300   41.3430 C   0  0  0  0  0  3  0  0  0  0  0  0
   37.4070   26.5330   42.1510 C   0  0  0  0  0  3  0  0  0  0  0  0
   36.7560   25.2070   42.4110 C   0  0  0  0  0  0  0  0  0  0  0  0
   35.6670   25.3860   42.3670 H   0  0  0  0  0  0  0  0  0  0  0  0
   37.0690   24.8400   43.4080 H   0  0  0  0  0  0  0  0  0  0  0  0
   37.1080   24.2350   41.3160 C   0  0  0  0  0  0  0  0  0  0  0  0
   38.4360   23.7900   41.2660 C   0  0  0  0  0  0  0  0  0  0  0  0
   39.2630   24.0130   41.8680 H   0  0  0  0  0  0  0  0  0  0  0  0
   38.4400   22.6730   39.8470 S   0  0  0  0  0  0  0  0  0  0  0  0
   36.5860   22.9890   39.5310 C   0  0  0  0  0  0  0  0  0  0  0  0
   35.7260   22.6660   38.7880 H   0  0  0  0  0  0  0  0  0  0  0  0
   36.2370   23.8040   40.4310 N   0  0  0  0  0  0  0  0  0  0  0  0
  1  7  1  0  0  0  0
  2 20  1  0  0  0  0
  2  1  2  0  0  0  0
  3  2  1  0  0  0  0
  4  3  2  0  0  0  0
  4  5  1  0  0  0  0
  5  6  2  0  0  0  0
  6  1  1  0  0  0  0
  8  3  1  0  0  0  0
  9 10  1  0  0  0  0
 10 11  1  0  0  0  0
 11  5  1  0  0  0  0
 11 12  2  0  0  0  0
 12 16  1  0  0  0  0
 13 12  1  0  0  0  0
 13 17  1  0  0  0  0
 14 13  2  0  0  0  0
 15 10  2  0  0  0  0
 15 14  1  0  0  0  0
 18 14  1  0  0  0  0
 19 15  1  0  0  0  0
 20 21  2  0  0  0  0
 21 22  1  0  0  0  0
 22 24  1  0  0  0  0
 23 22  1  0  0  0  0
 25 22  1  0  0  0  0
 26 25  2  0  0  0  0
 26 27  1  0  0  0  0
 28 26  1  0  0  0  0
 29 28  1  0  0  0  0
 29 31  2  0  0  0  0
 30 29  1  0  0  0  0
 31 25  1  0  0  0  0
M  END
>  <minimizedAffinity>
-4.82956076

$$$$

 OpenBabel03252501493D

 31 33  0  0  0  0  0  0  0  0999 V2000
   37.6330   30.3520   41.5380 C   0  0  0  0  0  0  0  0  0  0  0  0
   38.8390   30.6840   40.8730 C   0  0  0  0  0  0  0  0  0  0  0  0
   39.5650   29.6600   40.2350 C   0  0  0  0  0  0  0  0  0  0  0  0
   39.0620   28.3950   40.2910 N   0  0  0  0  0  0  0  0  0  0  0  0
   37.9140   28.1310   40.9330 C   0  0  0  0  0  0  0  0  0  0  0  0
   37.2190   29.0890   41.5410 N   0  0  0  0  0  0  0  0  0  0  0  0
   37.0580   31.1220   42.0360 H   0  0  0  0  0  0  0  0  0  0  0  0
   40.4910   29.8970   39.7210 H   0  0  0  0  0  0  0  0  0  0  0  0
   38.0030   26.6050   43.2410 F   0  0  0  0  0  0  0  0  0  0  0  0
   37.4920   26.0140   42.1270 C   0  0  0  0  0  0  0  0  0  0  0  0
   37.4340   26.7520   40.9540 C   0  0  0  0  0  0  0  0  0  0  0  0
   36.9280   26.2100   39.7930 C   0  0  0  0  0  0  0  0  0  0  0  0
   36.4750   24.8920   39.8370 C   0  0  0  0  0  0  0  0  0  0  0  0
   36.5230   24.1330   40.9980 C   0  0  0  0  0  0  0  0  0  0  0  0
   37.0430   24.7080   42.1650 C   0  0  0  0  0  0  0  0  0  0  0  0
   36.8920   26.8060   38.8870 H   0  0  0  0  0  0  0  0  0  0  0  0
   36.0730   24.4520   38.9280 H   0  0  0  0  0  0  0  0  0  0  0  0
   36.1560   23.1150   40.9680 H   0  0  0  0  0  0  0  0  0  0  0  0
   37.0840   24.1270   43.0720 H   0  0  0  0  0  0  0  0  0  0  0  0
   39.3140   32.0700   40.8580 C   0  0  0  0  0  3  0  0  0  0  0  0
   40.5330   32.4330   40.4930 C   0  0  0  0  0  3  0  0  0  0  0  0
   40.9650   33.8700   40.4960 C   0  0  0  0  0  0  0  0  0  0  0  0
   40.5840   34.3020   41.4390 H   0  0  0  0  0  0  0  0  0  0  0  0
   40.5370   34.3790   39.6120 H   0  0  0  0  0  0  0  0  0  0  0  0
   42.4690   33.9570   40.5260 C   0  0  0  0  0  0  0  0  0  0  0  0
   43.0470   34.5340   41.6640 C   0  0  0  0  0  0  0  0  0  0  0  0
   42.6170   34.9320   42.5320 H   0  0  0  0  0  0  0  0  0  0  0  0
   44.8170   34.4520   41.3100 S   0  0  0  0  0  0  0  0  0  0  0  0
   44.4900   33.6230   39.6240 C   0  0  0  0  0  0  0  0  0  0  0  0
   45.0820   33.2030   38.6920 H   0  0  0  0  0  0  0  0  0  0  0  0
   43.2320   33.5240   39.5480 N   0  0  0  0  0  0  0  0  0  0  0  0
  1  6  1  0  0  0  0
  1  7  1  0  0  0  0
  2  1  2  0  0  0  0
  3  4  2  0  0  0  0
  3  2  1  0  0  0  0
  4  5  1  0  0  0  0
  5 11  1  0  0  0  0
  5  6  2  0  0  0  0
  8  3  1  0  0  0  0
 10 15  1  0  0  0  0
 10  9  1  0  0  0  0
 11 10  2  0  0  0  0
 12 13  2  0  0  0  0
 12 11  1  0  0  0  0
 13 14  1  0  0  0  0
 14 15  2  0  0  0  0
 15 19  1  0  0  0  0
 16 12  1  0  0  0  0
 17 13  1  0  0  0  0
 18 14  1  0  0  0  0
 20  2  1  0  0  0  0
 21 22  1  0  0  0  0
 21 20  2  0  0  0  0
 22 25  1  0  0  0  0
 22 23  1  0  0  0  0
 24 22  1  0  0  0  0
 25 26  2  0  0  0  0
 26 27  1  0  0  0  0
 28 26  1  0  0  0  0
 29 28  1  0  0  0  0
 30 29  1  0  0  0  0
 31 29  2  0  0  0  0
 31 25  1  0  0  0  0
M  END
>  <minimizedAffinity>
-4.77016878

$$$$

 OpenBabel03252501493D

 31 33  0  0  0  0  0  0  0  0999 V2000
   39.2470   29.4740   39.5060 C   0  0  0  0  0  0  0  0  0  0  0  0
   38.4900   30.5630   40.0050 C   0  0  0  0  0  0  0  0  0  0  0  0
   37.3080   30.2940   40.7230 C   0  0  0  0  0  0  0  0  0  0  0  0
   36.9550   28.9900   40.9010 N   0  0  0  0  0  0  0  0  0  0  0  0
   37.7060   27.9940   40.4070 C   0  0  0  0  0  0  0  0  0  0  0  0
   38.8250   28.2340   39.7270 N   0  0  0  0  0  0  0  0  0  0  0  0
   40.1580   29.6560   38.9510 H   0  0  0  0  0  0  0  0  0  0  0  0
   36.7170   31.1170   41.1130 H   0  0  0  0  0  0  0  0  0  0  0  0
   36.5430   26.4970   38.3910 F   0  0  0  0  0  0  0  0  0  0  0  0
   36.6880   25.8960   39.6030 C   0  0  0  0  0  0  0  0  0  0  0  0
   37.2670   26.6200   40.6350 C   0  0  0  0  0  0  0  0  0  0  0  0
   37.4420   26.0670   41.8850 C   0  0  0  0  0  0  0  0  0  0  0  0
   37.0150   24.7530   42.0780 C   0  0  0  0  0  0  0  0  0  0  0  0
   36.4320   24.0090   41.0610 C   0  0  0  0  0  0  0  0  0  0  0  0
   36.2670   24.5950   39.7990 C   0  0  0  0  0  0  0  0  0  0  0  0
   37.8970   26.6510   42.6780 H   0  0  0  0  0  0  0  0  0  0  0  0
   37.1470   24.3060   43.0590 H   0  0  0  0  0  0  0  0  0  0  0  0
   36.1230   22.9940   41.2730 H   0  0  0  0  0  0  0  0  0  0  0  0
   35.8160   24.0250   39.0040 H   0  0  0  0  0  0  0  0  0  0  0  0
   38.9370   31.9390   39.7730 C   0  0  0  0  0  3  0  0  0  0  0  0
   39.3850   32.7440   40.7220 C   0  0  0  0  0  3  0  0  0  0  0  0
   39.8310   34.1460   40.4260 C   0  0  0  0  0  0  0  0  0  0  0  0
   39.8690   34.6670   41.3990 H   0  0  0  0  0  0  0  0  0  0  0  0
   39.1040   34.6190   39.7380 H   0  0  0  0  0  0  0  0  0  0  0  0
   41.2240   34.1360   39.8550 C   0  0  0  0  0  0  0  0  0  0  0  0
   42.2680   33.8270   40.7380 C   0  0  0  0  0  0  0  0  0  0  0  0
   42.2640   33.5930   41.7590 H   0  0  0  0  0  0  0  0  0  0  0  0
   43.7350   33.9230   39.6880 S   0  0  0  0  0  0  0  0  0  0  0  0
   42.6760   34.3780   38.1690 C   0  0  0  0  0  0  0  0  0  0  0  0
   42.8010   34.6310   37.0210 H   0  0  0  0  0  0  0  0  0  0  0  0
   41.4860   34.4000   38.5950 N   0  0  0  0  0  0  0  0  0  0  0  0
  1  6  2  0  0  0  0
  1  2  1  0  0  0  0
  2  3  2  0  0  0  0
  3  4  1  0  0  0  0
  3  8  1  0  0  0  0
  5 11  1  0  0  0  0
  5  4  2  0  0  0  0
  6  5  1  0  0  0  0
  7  1  1  0  0  0  0
  9 10  1  0  0  0  0
 10 15  2  0  0  0  0
 10 11  1  0  0  0  0
 11 12  2  0  0  0  0
 12 13  1  0  0  0  0
 12 16  1  0  0  0  0
 13 17  1  0  0  0  0
 14 18  1  0  0  0  0
 14 13  2  0  0  0  0
 15 14  1  0  0  0  0
 19 15  1  0  0  0  0
 20  2  1  0  0  0  0
 20 21  2  0  0  0  0
 22 21  1  0  0  0  0
 22 23  1  0  0  0  0
 24 22  1  0  0  0  0
 25 22  1  0  0  0  0
 25 26  2  0  0  0  0
 26 27  1  0  0  0  0
 28 26  1  0  0  0  0
 29 31  2  0  0  0  0
 29 28  1  0  0  0  0
 30 29  1  0  0  0  0
 31 25  1  0  0  0  0
M  END
>  <minimizedAffinity>
-4.6053462

$$$$

 OpenBabel03252501493D

 31 33  0  0  0  0  0  0  0  0999 V2000
   41.5920   28.5630   42.4780 C   0  0  0  0  0  0  0  0  0  0  0  0
   42.2990   28.2880   43.6750 C   0  0  0  0  0  0  0  0  0  0  0  0
   41.9680   27.1320   44.4080 C   0  0  0  0  0  0  0  0  0  0  0  0
   40.9760   26.3330   43.9210 N   0  0  0  0  0  0  0  0  0  0  0  0
   40.3360   26.6380   42.7820 C   0  0  0  0  0  0  0  0  0  0  0  0
   40.6390   27.7270   42.0800 N   0  0  0  0  0  0  0  0  0  0  0  0
   41.8290   29.4450   41.8980 H   0  0  0  0  0  0  0  0  0  0  0  0
   42.5000   26.9070   45.3260 H   0  0  0  0  0  0  0  0  0  0  0  0
   37.6640   27.1590   43.2840 F   0  0  0  0  0  0  0  0  0  0  0  0
   37.9540   26.0270   42.5870 C   0  0  0  0  0  0  0  0  0  0  0  0
   39.2840   25.7370   42.3190 C   0  0  0  0  0  0  0  0  0  0  0  0
   39.6410   24.6060   41.6180 C   0  0  0  0  0  0  0  0  0  0  0  0
   38.6180   23.7620   41.1860 C   0  0  0  0  0  0  0  0  0  0  0  0
   37.2810   24.0300   41.4420 C   0  0  0  0  0  0  0  0  0  0  0  0
   36.9440   25.1870   42.1580 C   0  0  0  0  0  0  0  0  0  0  0  0
   40.6870   24.3990   41.4190 H   0  0  0  0  0  0  0  0  0  0  0  0
   38.8860   22.8670   40.6310 H   0  0  0  0  0  0  0  0  0  0  0  0
   36.5340   23.3360   41.0800 H   0  0  0  0  0  0  0  0  0  0  0  0
   35.9090   25.4040   42.3610 H   0  0  0  0  0  0  0  0  0  0  0  0
   43.3540   29.1970   44.1320 C   0  0  0  0  0  3  0  0  0  0  0  0
   43.6060   30.3750   43.5870 C   0  0  0  0  0  3  0  0  0  0  0  0
   44.7000   31.2660   44.0970 C   0  0  0  0  0  0  0  0  0  0  0  0
   45.6410   30.8650   43.6800 H   0  0  0  0  0  0  0  0  0  0  0  0
   44.7010   31.2400   45.2040 H   0  0  0  0  0  0  0  0  0  0  0  0
   44.5200   32.6630   43.5650 C   0  0  0  0  0  0  0  0  0  0  0  0
   43.5850   32.8330   42.5350 C   0  0  0  0  0  0  0  0  0  0  0  0
   42.9630   32.1470   42.0460 H   0  0  0  0  0  0  0  0  0  0  0  0
   43.6720   34.6040   42.1900 S   0  0  0  0  0  0  0  0  0  0  0  0
   45.0000   34.8490   43.5360 C   0  0  0  0  0  0  0  0  0  0  0  0
   45.6550   35.7080   44.0160 H   0  0  0  0  0  0  0  0  0  0  0  0
   45.1910   33.6970   44.0200 N   0  0  0  0  0  0  0  0  0  0  0  0
  1  2  1  0  0  0  0
  2 20  1  0  0  0  0
  2  3  2  0  0  0  0
  3  8  1  0  0  0  0
  4  3  1  0  0  0  0
  5  4  2  0  0  0  0
  6  1  2  0  0  0  0
  6  5  1  0  0  0  0
  7  1  1  0  0  0  0
 10  9  1  0  0  0  0
 11 10  1  0  0  0  0
 11  5  1  0  0  0  0
 12 11  2  0  0  0  0
 13 14  2  0  0  0  0
 13 12  1  0  0  0  0
 14 15  1  0  0  0  0
 15 19  1  0  0  0  0
 15 10  2  0  0  0  0
 16 12  1  0  0  0  0
 17 13  1  0  0  0  0
 18 14  1  0  0  0  0
 21 22  1  0  0  0  0
 21 20  2  0  0  0  0
 22 24  1  0  0  0  0
 23 22  1  0  0  0  0
 25 31  1  0  0  0  0
 25 22  1  0  0  0  0
 26 25  2  0  0  0  0
 27 26  1  0  0  0  0
 28 26  1  0  0  0  0
 28 29  1  0  0  0  0
 29 30  1  0  0  0  0
 29 31  2  0  0  0  0
M  END
>  <minimizedAffinity>
-4.57969046

$$$$
