
 OpenBabel03242511073D

 25 27  0  0  1  0  0  0  0  0999 V2000
   37.4980   27.9060   42.4070 C   0  0  1  0  0  0  0  0  0  0  0  0
   37.3300   28.8670   43.5480 C   0  0  0  0  0  0  0  0  0  0  0  0
   38.1450   29.2220   42.3120 C   0  0  2  0  0  0  0  0  0  0  0  0
   36.5720   27.7190   41.8280 H   0  0  0  0  0  0  0  0  0  0  0  0
   36.3550   29.3180   43.7310 H   0  0  0  0  0  0  0  0  0  0  0  0
   37.8640   28.5780   44.4870 H   0  0  0  0  0  0  0  0  0  0  0  0
   39.2620   29.1990   42.5770 H   0  0  0  0  0  0  0  0  0  0  0  0
   38.6670   24.3950   42.1660 C   0  0  0  0  0  0  0  0  0  0  0  0
   39.8120   24.4090   43.0400 C   0  0  0  0  0  0  0  0  0  0  0  0
   40.1460   25.6440   43.6790 C   0  0  0  0  0  0  0  0  0  0  0  0
   39.3900   26.7210   43.4420 N   0  0  0  0  0  0  0  0  0  0  0  0
   38.3150   26.6720   42.6090 C   0  0  0  0  0  0  0  0  0  0  0  0
   37.9620   25.5160   41.9790 N   0  0  0  0  0  0  0  0  0  0  0  0
   38.4450   23.4450   41.7000 H   0  0  0  0  0  0  0  0  0  0  0  0
   40.3730   23.5010   43.1830 H   0  0  0  0  0  0  0  0  0  0  0  0
   41.0090   25.6290   44.3310 H   0  0  0  0  0  0  0  0  0  0  0  0
   37.6890   30.2570   41.4640 N   0  0  0  0  0  0  0  0  0  0  0  0
   36.7270   29.8460   41.2220 H   0  0  0  0  0  0  0  0  0  0  0  0
   37.8780   31.4980   40.8420 C   0  0  0  0  0  0  0  0  0  0  0  0
   39.2220   32.0240   41.1760 C   0  0  0  0  0  0  0  0  0  0  0  0
   40.0890   32.0530   41.5730 H   0  0  0  0  0  0  0  0  0  0  0  0
   39.0890   33.6420   40.1740 S   0  0  0  0  0  0  0  0  0  0  0  0
   37.3240   33.2540   39.5610 C   0  0  0  0  0  0  0  0  0  0  0  0
   36.5690   33.7240   38.9290 H   0  0  0  0  0  0  0  0  0  0  0  0
   36.9880   32.1060   40.0660 N   0  0  0  0  0  0  0  0  0  0  0  0
  1  4  1  6  0  0  0
  1 12  1  0  0  0  0
  1  2  1  0  0  0  0
  2  5  1  0  0  0  0
  2  6  1  0  0  0  0
  3  1  1  0  0  0  0
  3  7  1  1  0  0  0
  3  2  1  0  0  0  0
  8  9  1  0  0  0  0
  9 15  1  0  0  0  0
  9 10  2  0  0  0  0
 10 16  1  0  0  0  0
 11 10  1  0  0  0  0
 12 11  2  0  0  0  0
 13  8  2  0  0  0  0
 13 12  1  0  0  0  0
 14  8  1  0  0  0  0
 17  3  1  0  0  0  0
 18 17  1  0  0  0  0
 19 20  2  0  0  0  0
 19 17  1  0  0  0  0
 20 21  1  0  0  0  0
 22 20  1  0  0  0  0
 23 25  2  0  0  0  0
 23 22  1  0  0  0  0
 24 23  1  0  0  0  0
 25 19  1  0  0  0  0
M  END
>  <minimizedAffinity>
-4.23634529

$$$$

 OpenBabel03242511073D

 25 27  0  0  1  0  0  0  0  0999 V2000
   36.4170   28.7760   40.0130 C   0  0  1  0  0  0  0  0  0  0  0  0
   35.0090   29.2870   39.9130 C   0  0  0  0  0  0  0  0  0  0  0  0
   36.0280   29.9190   40.8510 C   0  0  2  0  0  0  0  0  0  0  0  0
   37.0320   28.9560   39.1090 H   0  0  0  0  0  0  0  0  0  0  0  0
   34.6850   29.7940   39.0050 H   0  0  0  0  0  0  0  0  0  0  0  0
   34.2310   28.6040   40.3370 H   0  0  0  0  0  0  0  0  0  0  0  0
   35.7790   29.6250   41.9330 H   0  0  0  0  0  0  0  0  0  0  0  0
   36.7770   25.1040   40.3900 C   0  0  0  0  0  0  0  0  0  0  0  0
   37.0770   24.9840   41.7930 C   0  0  0  0  0  0  0  0  0  0  0  0
   37.1530   26.1870   42.5630 C   0  0  0  0  0  0  0  0  0  0  0  0
   36.9440   27.3590   41.9540 N   0  0  0  0  0  0  0  0  0  0  0  0
   36.6630   27.4360   40.6250 C   0  0  0  0  0  0  0  0  0  0  0  0
   36.5810   26.3150   39.8550 N   0  0  0  0  0  0  0  0  0  0  0  0
   36.7270   24.1750   39.8400 H   0  0  0  0  0  0  0  0  0  0  0  0
   37.2320   24.0050   42.2140 H   0  0  0  0  0  0  0  0  0  0  0  0
   37.3790   26.0710   43.6140 H   0  0  0  0  0  0  0  0  0  0  0  0
   36.4530   31.2450   40.6070 N   0  0  0  0  0  0  0  0  0  0  0  0
   35.4860   31.7030   40.5150 H   0  0  0  0  0  0  0  0  0  0  0  0
   37.4750   32.1920   40.4570 C   0  0  0  0  0  0  0  0  0  0  0  0
   38.7540   31.6260   40.9460 C   0  0  0  0  0  0  0  0  0  0  0  0
   39.3550   30.9870   41.3240 H   0  0  0  0  0  0  0  0  0  0  0  0
   39.8350   33.1530   40.5730 S   0  0  0  0  0  0  0  0  0  0  0  0
   38.3750   34.1610   39.8730 C   0  0  0  0  0  0  0  0  0  0  0  0
   38.2100   35.1530   39.4500 H   0  0  0  0  0  0  0  0  0  0  0  0
   37.3200   33.4080   39.9480 N   0  0  0  0  0  0  0  0  0  0  0  0
  1  4  1  6  0  0  0
  1 12  1  0  0  0  0
  1  3  1  0  0  0  0
  2  1  1  0  0  0  0
  2  6  1  0  0  0  0
  2  3  1  0  0  0  0
  3  7  1  1  0  0  0
  5  2  1  0  0  0  0
  8  9  1  0  0  0  0
  9 15  1  0  0  0  0
  9 10  2  0  0  0  0
 10 16  1  0  0  0  0
 11 10  1  0  0  0  0
 12 11  2  0  0  0  0
 13  8  2  0  0  0  0
 13 12  1  0  0  0  0
 14  8  1  0  0  0  0
 17  3  1  0  0  0  0
 18 17  1  0  0  0  0
 19 17  1  0  0  0  0
 19 20  2  0  0  0  0
 20 21  1  0  0  0  0
 22 20  1  0  0  0  0
 23 25  2  0  0  0  0
 23 22  1  0  0  0  0
 24 23  1  0  0  0  0
 25 19  1  0  0  0  0
M  END
>  <minimizedAffinity>
-4.22691727

$$$$

 OpenBabel03242511073D

 25 27  0  0  1  0  0  0  0  0999 V2000
   36.9370   27.2950   42.2330 C   0  0  1  0  0  0  0  0  0  0  0  0
   36.9520   27.7260   43.6710 C   0  0  0  0  0  0  0  0  0  0  0  0
   37.8690   28.3580   42.6330 C   0  0  2  0  0  0  0  0  0  0  0  0
   36.0130   27.5670   41.6860 H   0  0  0  0  0  0  0  0  0  0  0  0
   36.1000   28.2690   44.0780 H   0  0  0  0  0  0  0  0  0  0  0  0
   37.3750   26.9720   44.3820 H   0  0  0  0  0  0  0  0  0  0  0  0
   38.9420   27.9830   42.7980 H   0  0  0  0  0  0  0  0  0  0  0  0
   39.0610   24.2560   42.1360 C   0  0  0  0  0  0  0  0  0  0  0  0
   38.3730   23.4530   41.1580 C   0  0  0  0  0  0  0  0  0  0  0  0
   37.1860   23.9910   40.5690 C   0  0  0  0  0  0  0  0  0  0  0  0
   36.7710   25.2040   40.9470 N   0  0  0  0  0  0  0  0  0  0  0  0
   37.4440   25.9360   41.8750 C   0  0  0  0  0  0  0  0  0  0  0  0
   38.5790   25.4610   42.4610 N   0  0  0  0  0  0  0  0  0  0  0  0
   39.9530   23.8170   42.5600 H   0  0  0  0  0  0  0  0  0  0  0  0
   38.7700   22.4840   40.9040 H   0  0  0  0  0  0  0  0  0  0  0  0
   36.6890   23.3690   39.8380 H   0  0  0  0  0  0  0  0  0  0  0  0
   37.6890   29.7200   42.2980 N   0  0  0  0  0  0  0  0  0  0  0  0
   37.1210   30.0170   43.1600 H   0  0  0  0  0  0  0  0  0  0  0  0
   37.9040   30.8050   41.4370 C   0  0  0  0  0  0  0  0  0  0  0  0
   36.6490   31.1240   40.7160 C   0  0  0  0  0  0  0  0  0  0  0  0
   35.7350   31.0500   40.4510 H   0  0  0  0  0  0  0  0  0  0  0  0
   37.3350   32.5890   39.7050 S   0  0  0  0  0  0  0  0  0  0  0  0
   39.0830   32.4400   40.4550 C   0  0  0  0  0  0  0  0  0  0  0  0
   40.0450   32.9460   40.3650 H   0  0  0  0  0  0  0  0  0  0  0  0
   39.0550   31.4500   41.2950 N   0  0  0  0  0  0  0  0  0  0  0  0
  1  4  1  6  0  0  0
  1  3  1  0  0  0  0
  1  2  1  0  0  0  0
  2  5  1  0  0  0  0
  2  6  1  0  0  0  0
  3  7  1  1  0  0  0
  3  2  1  0  0  0  0
  8 13  1  0  0  0  0
  8 14  1  0  0  0  0
  9  8  2  0  0  0  0
 10 11  2  0  0  0  0
 10  9  1  0  0  0  0
 11 12  1  0  0  0  0
 12  1  1  0  0  0  0
 12 13  2  0  0  0  0
 15  9  1  0  0  0  0
 16 10  1  0  0  0  0
 17  3  1  0  0  0  0
 17 18  1  0  0  0  0
 19 17  1  0  0  0  0
 20 19  2  0  0  0  0
 21 20  1  0  0  0  0
 22 23  1  0  0  0  0
 22 20  1  0  0  0  0
 23 25  2  0  0  0  0
 24 23  1  0  0  0  0
 25 19  1  0  0  0  0
M  END
>  <minimizedAffinity>
-4.11623621

$$$$

 OpenBabel03242511073D

 25 27  0  0  1  0  0  0  0  0999 V2000
   38.4440   30.0780   41.3720 C   0  0  1  0  0  0  0  0  0  0  0  0
   38.8410   29.8040   42.7930 C   0  0  0  0  0  0  0  0  0  0  0  0
   37.4240   29.5600   42.2940 C   0  0  2  0  0  0  0  0  0  0  0  0
   38.8990   29.3900   40.6310 H   0  0  0  0  0  0  0  0  0  0  0  0
   39.5130   28.9750   43.0130 H   0  0  0  0  0  0  0  0  0  0  0  0
   39.0520   30.7170   43.4060 H   0  0  0  0  0  0  0  0  0  0  0  0
   36.7310   30.3760   42.7090 H   0  0  0  0  0  0  0  0  0  0  0  0
   37.2450   33.1770   39.7250 C   0  0  0  0  0  0  0  0  0  0  0  0
   38.3350   34.0830   39.9830 C   0  0  0  0  0  0  0  0  0  0  0  0
   39.4500   33.5880   40.7300 C   0  0  0  0  0  0  0  0  0  0  0  0
   39.4330   32.3200   41.1520 N   0  0  0  0  0  0  0  0  0  0  0  0
   38.3860   31.4910   40.8910 C   0  0  0  0  0  0  0  0  0  0  0  0
   37.3040   31.9210   40.1840 N   0  0  0  0  0  0  0  0  0  0  0  0
   36.4200   33.5850   39.1580 H   0  0  0  0  0  0  0  0  0  0  0  0
   38.2770   35.0920   39.6100 H   0  0  0  0  0  0  0  0  0  0  0  0
   40.2540   34.2870   40.9100 H   0  0  0  0  0  0  0  0  0  0  0  0
   36.9310   28.2350   42.2490 N   0  0  0  0  0  0  0  0  0  0  0  0
   36.1710   28.3280   43.0010 H   0  0  0  0  0  0  0  0  0  0  0  0
   36.9510   26.9430   41.7080 C   0  0  0  0  0  0  0  0  0  0  0  0
   36.7350   27.0120   40.2440 C   0  0  0  0  0  0  0  0  0  0  0  0
   36.5800   27.4050   39.3880 H   0  0  0  0  0  0  0  0  0  0  0  0
   36.8380   25.1370   39.9110 S   0  0  0  0  0  0  0  0  0  0  0  0
   37.1340   24.7080   41.7460 C   0  0  0  0  0  0  0  0  0  0  0  0
   37.2920   23.8130   42.3500 H   0  0  0  0  0  0  0  0  0  0  0  0
   37.1390   25.8280   42.4030 N   0  0  0  0  0  0  0  0  0  0  0  0
  1  4  1  6  0  0  0
  1  3  1  0  0  0  0
  1  2  1  0  0  0  0
  2  5  1  0  0  0  0
  2  6  1  0  0  0  0
  3  7  1  1  0  0  0
  3  2  1  0  0  0  0
  8  9  2  0  0  0  0
  8 13  1  0  0  0  0
  9 10  1  0  0  0  0
 10 16  1  0  0  0  0
 10 11  2  0  0  0  0
 12 11  1  0  0  0  0
 12  1  1  0  0  0  0
 13 12  2  0  0  0  0
 14  8  1  0  0  0  0
 15  9  1  0  0  0  0
 17  3  1  0  0  0  0
 17 18  1  0  0  0  0
 19 17  1  0  0  0  0
 19 25  1  0  0  0  0
 20 19  2  0  0  0  0
 21 20  1  0  0  0  0
 22 20  1  0  0  0  0
 22 23  1  0  0  0  0
 23 24  1  0  0  0  0
 23 25  2  0  0  0  0
M  END
>  <minimizedAffinity>
-4.00551939

$$$$

 OpenBabel03242511073D

 25 27  0  0  1  0  0  0  0  0999 V2000
   37.0190   27.5000   42.2020 C   0  0  1  0  0  0  0  0  0  0  0  0
   37.0520   27.9210   43.6420 C   0  0  0  0  0  0  0  0  0  0  0  0
   38.0280   28.4840   42.6180 C   0  0  2  0  0  0  0  0  0  0  0  0
   36.1250   27.8470   41.6460 H   0  0  0  0  0  0  0  0  0  0  0  0
   36.2410   28.5280   44.0430 H   0  0  0  0  0  0  0  0  0  0  0  0
   37.4060   27.1330   44.3540 H   0  0  0  0  0  0  0  0  0  0  0  0
   39.0660   28.0250   42.7920 H   0  0  0  0  0  0  0  0  0  0  0  0
   38.7820   24.2370   42.2360 C   0  0  0  0  0  0  0  0  0  0  0  0
   38.1680   23.5640   41.1210 C   0  0  0  0  0  0  0  0  0  0  0  0
   37.1520   24.2640   40.3970 C   0  0  0  0  0  0  0  0  0  0  0  0
   36.8200   25.5000   40.7820 N   0  0  0  0  0  0  0  0  0  0  0  0
   37.4210   26.1070   41.8410 C   0  0  0  0  0  0  0  0  0  0  0  0
   38.3930   25.4760   42.5580 N   0  0  0  0  0  0  0  0  0  0  0  0
   39.5450   23.6780   42.7590 H   0  0  0  0  0  0  0  0  0  0  0  0
   38.4880   22.5660   40.8700 H   0  0  0  0  0  0  0  0  0  0  0  0
   36.7070   23.7370   39.5650 H   0  0  0  0  0  0  0  0  0  0  0  0
   37.9600   29.8580   42.2890 N   0  0  0  0  0  0  0  0  0  0  0  0
   37.8990   30.2520   43.2860 H   0  0  0  0  0  0  0  0  0  0  0  0
   37.9530   30.8870   41.3380 C   0  0  0  0  0  0  0  0  0  0  0  0
   39.2830   31.5390   41.3000 C   0  0  0  0  0  0  0  0  0  0  0  0
   40.1930   31.7110   41.5300 H   0  0  0  0  0  0  0  0  0  0  0  0
   38.8730   32.8120   39.9400 S   0  0  0  0  0  0  0  0  0  0  0  0
   37.0770   32.1990   39.7450 C   0  0  0  0  0  0  0  0  0  0  0  0
   36.2020   32.4460   39.1410 H   0  0  0  0  0  0  0  0  0  0  0  0
   36.9140   31.2210   40.5830 N   0  0  0  0  0  0  0  0  0  0  0  0
  1  4  1  6  0  0  0
  1  3  1  0  0  0  0
  1  2  1  0  0  0  0
  2  5  1  0  0  0  0
  2  6  1  0  0  0  0
  3  7  1  1  0  0  0
  3  2  1  0  0  0  0
  8 13  1  0  0  0  0
  8 14  1  0  0  0  0
  9  8  2  0  0  0  0
 10 11  2  0  0  0  0
 10  9  1  0  0  0  0
 11 12  1  0  0  0  0
 12  1  1  0  0  0  0
 12 13  2  0  0  0  0
 15  9  1  0  0  0  0
 16 10  1  0  0  0  0
 17  3  1  0  0  0  0
 17 18  1  0  0  0  0
 19 17  1  0  0  0  0
 20 19  2  0  0  0  0
 20 21  1  0  0  0  0
 22 20  1  0  0  0  0
 23 22  1  0  0  0  0
 23 25  2  0  0  0  0
 24 23  1  0  0  0  0
 25 19  1  0  0  0  0
M  END
>  <minimizedAffinity>
-3.98229527

$$$$

 OpenBabel03242511073D

 25 27  0  0  1  0  0  0  0  0999 V2000
   38.1530   30.5390   37.6650 C   0  0  1  0  0  0  0  0  0  0  0  0
   37.5470   31.6230   36.8240 C   0  0  0  0  0  0  0  0  0  0  0  0
   38.7500   31.8800   37.7200 C   0  0  2  0  0  0  0  0  0  0  0  0
   38.6660   29.7440   37.0860 H   0  0  0  0  0  0  0  0  0  0  0  0
   37.6480   31.5820   35.7400 H   0  0  0  0  0  0  0  0  0  0  0  0
   36.5360   31.9680   37.1590 H   0  0  0  0  0  0  0  0  0  0  0  0
   38.4170   32.4880   38.6350 H   0  0  0  0  0  0  0  0  0  0  0  0
   36.5850   28.1570   40.0370 C   0  0  0  0  0  0  0  0  0  0  0  0
   35.9210   29.0510   40.9490 C   0  0  0  0  0  0  0  0  0  0  0  0
   36.0480   30.4560   40.7160 C   0  0  0  0  0  0  0  0  0  0  0  0
   36.7680   30.8760   39.6710 N   0  0  0  0  0  0  0  0  0  0  0  0
   37.3840   30.0030   38.8280 C   0  0  0  0  0  0  0  0  0  0  0  0
   37.2890   28.6560   39.0140 N   0  0  0  0  0  0  0  0  0  0  0  0
   36.4680   27.1020   40.2440 H   0  0  0  0  0  0  0  0  0  0  0  0
   35.3570   28.6390   41.7690 H   0  0  0  0  0  0  0  0  0  0  0  0
   35.5400   31.1070   41.4150 H   0  0  0  0  0  0  0  0  0  0  0  0
   39.9910   32.2070   37.1250 N   0  0  0  0  0  0  0  0  0  0  0  0
   39.6470   32.3430   36.1170 H   0  0  0  0  0  0  0  0  0  0  0  0
   41.3680   32.4420   37.2240 C   0  0  0  0  0  0  0  0  0  0  0  0
   42.1080   31.1840   36.9640 C   0  0  0  0  0  0  0  0  0  0  0  0
   42.2450   30.2620   36.7620 H   0  0  0  0  0  0  0  0  0  0  0  0
   43.8610   31.9040   37.1770 S   0  0  0  0  0  0  0  0  0  0  0  0
   43.2210   33.6610   37.5530 C   0  0  0  0  0  0  0  0  0  0  0  0
   43.6430   34.6400   37.7850 H   0  0  0  0  0  0  0  0  0  0  0  0
   41.9250   33.6140   37.5040 N   0  0  0  0  0  0  0  0  0  0  0  0
  1  4  1  6  0  0  0
  1  3  1  0  0  0  0
  1 12  1  0  0  0  0
  2  6  1  0  0  0  0
  2  1  1  0  0  0  0
  2  3  1  0  0  0  0
  3  7  1  1  0  0  0
  5  2  1  0  0  0  0
  8 14  1  0  0  0  0
  8  9  1  0  0  0  0
  9 15  1  0  0  0  0
 10  9  2  0  0  0  0
 10 16  1  0  0  0  0
 11 10  1  0  0  0  0
 12 13  1  0  0  0  0
 12 11  2  0  0  0  0
 13  8  2  0  0  0  0
 17 19  1  0  0  0  0
 17  3  1  0  0  0  0
 18 17  1  0  0  0  0
 19 25  1  0  0  0  0
 20 22  1  0  0  0  0
 20 19  2  0  0  0  0
 21 20  1  0  0  0  0
 22 23  1  0  0  0  0
 23 24  1  0  0  0  0
 25 23  2  0  0  0  0
M  END
>  <minimizedAffinity>
-3.97259021

$$$$

 OpenBabel03242511073D

 25 27  0  0  1  0  0  0  0  0999 V2000
   37.8060   30.5690   40.2170 C   0  0  1  0  0  0  0  0  0  0  0  0
   36.8240   31.7030   40.1740 C   0  0  0  0  0  0  0  0  0  0  0  0
   38.2590   31.8990   40.6430 C   0  0  2  0  0  0  0  0  0  0  0  0
   38.1090   30.1900   39.2190 H   0  0  0  0  0  0  0  0  0  0  0  0
   36.4860   32.0860   39.2120 H   0  0  0  0  0  0  0  0  0  0  0  0
   36.0060   31.6450   40.9360 H   0  0  0  0  0  0  0  0  0  0  0  0
   38.2690   32.0320   41.7830 H   0  0  0  0  0  0  0  0  0  0  0  0
   36.8630   27.3090   41.7140 C   0  0  0  0  0  0  0  0  0  0  0  0
   37.2310   27.5060   43.0920 C   0  0  0  0  0  0  0  0  0  0  0  0
   37.8050   28.7640   43.4560 C   0  0  0  0  0  0  0  0  0  0  0  0
   37.9720   29.6950   42.5110 N   0  0  0  0  0  0  0  0  0  0  0  0
   37.6130   29.4760   41.2170 C   0  0  0  0  0  0  0  0  0  0  0  0
   37.0640   28.2910   40.8280 N   0  0  0  0  0  0  0  0  0  0  0  0
   36.4320   26.3470   41.4750 H   0  0  0  0  0  0  0  0  0  0  0  0
   37.0650   26.7080   43.7980 H   0  0  0  0  0  0  0  0  0  0  0  0
   38.0720   28.8870   44.4960 H   0  0  0  0  0  0  0  0  0  0  0  0
   39.1260   32.7120   39.8760 N   0  0  0  0  0  0  0  0  0  0  0  0
   38.7820   33.6700   40.2190 H   0  0  0  0  0  0  0  0  0  0  0  0
   40.1680   32.8510   38.9500 C   0  0  0  0  0  0  0  0  0  0  0  0
   40.9310   34.0870   39.2410 C   0  0  0  0  0  0  0  0  0  0  0  0
   41.1720   34.8970   39.6860 H   0  0  0  0  0  0  0  0  0  0  0  0
   42.2020   33.9070   37.8300 S   0  0  0  0  0  0  0  0  0  0  0  0
   41.4440   32.2750   37.1980 C   0  0  0  0  0  0  0  0  0  0  0  0
   41.6320   31.5540   36.4010 H   0  0  0  0  0  0  0  0  0  0  0  0
   40.4340   32.0000   37.9660 N   0  0  0  0  0  0  0  0  0  0  0  0
  1  4  1  6  0  0  0
  1  3  1  0  0  0  0
  1 12  1  0  0  0  0
  2  1  1  0  0  0  0
  2  3  1  0  0  0  0
  2  6  1  0  0  0  0
  3  7  1  1  0  0  0
  5  2  1  0  0  0  0
  8  9  1  0  0  0  0
  9 10  2  0  0  0  0
  9 15  1  0  0  0  0
 10 16  1  0  0  0  0
 11 10  1  0  0  0  0
 12 11  2  0  0  0  0
 13 12  1  0  0  0  0
 13  8  2  0  0  0  0
 14  8  1  0  0  0  0
 17 18  1  0  0  0  0
 17  3  1  0  0  0  0
 19 20  2  0  0  0  0
 19 17  1  0  0  0  0
 20 21  1  0  0  0  0
 22 20  1  0  0  0  0
 23 22  1  0  0  0  0
 23 25  2  0  0  0  0
 24 23  1  0  0  0  0
 25 19  1  0  0  0  0
M  END
>  <minimizedAffinity>
-3.96590161

$$$$

 OpenBabel03242511073D

 25 27  0  0  1  0  0  0  0  0999 V2000
   39.3170   30.1720   41.5490 C   0  0  1  0  0  0  0  0  0  0  0  0
   39.9870   30.5220   42.8460 C   0  0  0  0  0  0  0  0  0  0  0  0
   38.7330   29.6610   42.7960 C   0  0  2  0  0  0  0  0  0  0  0  0
   39.9010   29.4830   40.9070 H   0  0  0  0  0  0  0  0  0  0  0  0
   40.9590   30.0920   43.0830 H   0  0  0  0  0  0  0  0  0  0  0  0
   39.8960   31.5970   43.1460 H   0  0  0  0  0  0  0  0  0  0  0  0
   37.8360   30.2770   43.1640 H   0  0  0  0  0  0  0  0  0  0  0  0
   38.3730   33.5240   40.2750 C   0  0  0  0  0  0  0  0  0  0  0  0
   37.3080   33.1980   39.3610 C   0  0  0  0  0  0  0  0  0  0  0  0
   36.9590   31.8190   39.2100 C   0  0  0  0  0  0  0  0  0  0  0  0
   37.6270   30.9020   39.9170 N   0  0  0  0  0  0  0  0  0  0  0  0
   38.6280   31.2460   40.7720 C   0  0  0  0  0  0  0  0  0  0  0  0
   38.9930   32.5470   40.9460 N   0  0  0  0  0  0  0  0  0  0  0  0
   38.6090   34.5750   40.3640 H   0  0  0  0  0  0  0  0  0  0  0  0
   36.8150   33.9930   38.8260 H   0  0  0  0  0  0  0  0  0  0  0  0
   36.1570   31.6000   38.5190 H   0  0  0  0  0  0  0  0  0  0  0  0
   38.8140   28.3080   43.2000 N   0  0  0  0  0  0  0  0  0  0  0  0
   39.0770   28.4690   44.2280 H   0  0  0  0  0  0  0  0  0  0  0  0
   38.7030   26.9400   42.9160 C   0  0  0  0  0  0  0  0  0  0  0  0
   37.4070   26.6730   42.2500 C   0  0  0  0  0  0  0  0  0  0  0  0
   36.5490   26.8560   41.8730 H   0  0  0  0  0  0  0  0  0  0  0  0
   37.6440   24.7930   42.0360 S   0  0  0  0  0  0  0  0  0  0  0  0
   39.3650   24.7980   42.8600 C   0  0  0  0  0  0  0  0  0  0  0  0
   40.1440   24.0750   43.1060 H   0  0  0  0  0  0  0  0  0  0  0  0
   39.6230   26.0250   43.1960 N   0  0  0  0  0  0  0  0  0  0  0  0
  1  4  1  6  0  0  0
  1  3  1  0  0  0  0
  1  2  1  0  0  0  0
  2  5  1  0  0  0  0
  2  6  1  0  0  0  0
  3  2  1  0  0  0  0
  3  7  1  1  0  0  0
  3 17  1  0  0  0  0
  8 14  1  0  0  0  0
  8 13  1  0  0  0  0
  9  8  2  0  0  0  0
 10  9  1  0  0  0  0
 10 11  2  0  0  0  0
 11 12  1  0  0  0  0
 12 13  2  0  0  0  0
 12  1  1  0  0  0  0
 15  9  1  0  0  0  0
 16 10  1  0  0  0  0
 17 18  1  0  0  0  0
 19 25  1  0  0  0  0
 19 17  1  0  0  0  0
 20 19  2  0  0  0  0
 21 20  1  0  0  0  0
 22 20  1  0  0  0  0
 22 23  1  0  0  0  0
 23 24  1  0  0  0  0
 23 25  2  0  0  0  0
M  END
>  <minimizedAffinity>
-3.94375134

$$$$

 OpenBabel03242511073D

 25 27  0  0  1  0  0  0  0  0999 V2000
   36.6910   30.1010   41.2490 C   0  0  1  0  0  0  0  0  0  0  0  0
   35.5800   29.5930   40.3770 C   0  0  0  0  0  0  0  0  0  0  0  0
   36.8830   28.8240   40.5500 C   0  0  2  0  0  0  0  0  0  0  0  0
   36.4590   30.0910   42.3340 H   0  0  0  0  0  0  0  0  0  0  0  0
   34.6540   29.2460   40.8330 H   0  0  0  0  0  0  0  0  0  0  0  0
   35.4160   30.1790   39.4370 H   0  0  0  0  0  0  0  0  0  0  0  0
   37.5090   28.9200   39.5920 H   0  0  0  0  0  0  0  0  0  0  0  0
   39.4090   32.6030   40.9240 C   0  0  0  0  0  0  0  0  0  0  0  0
   38.7940   33.5900   40.0750 C   0  0  0  0  0  0  0  0  0  0  0  0
   37.4550   33.3500   39.6350 C   0  0  0  0  0  0  0  0  0  0  0  0
   36.8370   32.2310   40.0270 N   0  0  0  0  0  0  0  0  0  0  0  0
   37.4480   31.3180   40.8290 C   0  0  0  0  0  0  0  0  0  0  0  0
   38.7230   31.5080   41.2710 N   0  0  0  0  0  0  0  0  0  0  0  0
   40.4210   32.8170   41.2370 H   0  0  0  0  0  0  0  0  0  0  0  0
   39.3560   34.4690   39.8010 H   0  0  0  0  0  0  0  0  0  0  0  0
   37.0160   34.1060   38.9990 H   0  0  0  0  0  0  0  0  0  0  0  0
   36.8560   27.5670   41.1970 N   0  0  0  0  0  0  0  0  0  0  0  0
   35.7980   27.5060   41.3720 H   0  0  0  0  0  0  0  0  0  0  0  0
   37.5120   26.4250   41.6740 C   0  0  0  0  0  0  0  0  0  0  0  0
   38.8490   26.7980   42.1920 C   0  0  0  0  0  0  0  0  0  0  0  0
   39.5880   27.3580   42.4170 H   0  0  0  0  0  0  0  0  0  0  0  0
   39.3820   25.0470   42.7270 S   0  0  0  0  0  0  0  0  0  0  0  0
   37.7490   24.2460   42.1520 C   0  0  0  0  0  0  0  0  0  0  0  0
   37.3030   23.2510   42.1290 H   0  0  0  0  0  0  0  0  0  0  0  0
   37.0090   25.1960   41.6660 N   0  0  0  0  0  0  0  0  0  0  0  0
  1  4  1  1  0  0  0
  2  3  1  0  0  0  0
  2  5  1  0  0  0  0
  2  1  1  0  0  0  0
  3  7  1  6  0  0  0
  3 17  1  0  0  0  0
  3  1  1  0  0  0  0
  6  2  1  0  0  0  0
  8 14  1  0  0  0  0
  8 13  1  0  0  0  0
  9  8  2  0  0  0  0
 10 11  2  0  0  0  0
 10  9  1  0  0  0  0
 11 12  1  0  0  0  0
 12  1  1  0  0  0  0
 12 13  2  0  0  0  0
 15  9  1  0  0  0  0
 16 10  1  0  0  0  0
 17 18  1  0  0  0  0
 17 19  1  0  0  0  0
 19 20  2  0  0  0  0
 20 21  1  0  0  0  0
 20 22  1  0  0  0  0
 23 22  1  0  0  0  0
 24 23  1  0  0  0  0
 25 19  1  0  0  0  0
 25 23  2  0  0  0  0
M  END
>  <minimizedAffinity>
-3.92427516

$$$$
