
 OpenBabel03252506163D

 37 39  0  0  0  0  0  0  0  0999 V2000
   39.7080   27.9000   40.3260 F   0  0  0  0  0  0  0  0  0  0  0  0
   38.7740   27.8270   41.2530 C   0  0  0  0  0  0  0  0  0  0  0  0
   39.1620   27.6250   42.5630 C   0  0  0  0  0  0  0  0  0  0  0  0
   38.2490   27.5310   43.6350 C   0  0  0  0  0  0  0  0  0  0  0  0
   36.8780   27.6500   43.3530 C   0  0  0  0  0  0  0  0  0  0  0  0
   36.5410   27.8500   42.0380 C   0  0  0  0  0  0  0  0  0  0  0  0
   37.4060   27.9410   41.0050 C   0  0  0  0  0  0  0  0  0  0  0  0
   38.6300   27.3710   44.6460 H   0  0  0  0  0  0  0  0  0  0  0  0
   36.2230   27.5720   44.2050 H   0  0  0  0  0  0  0  0  0  0  0  0
   35.4510   27.9300   41.9750 H   0  0  0  0  0  0  0  0  0  0  0  0
   42.3970   26.1010   43.3570 C   0  0  0  0  0  0  0  0  0  0  0  0
   43.2190   27.2370   43.5550 C   0  0  0  0  0  0  0  0  0  0  0  0
   42.6400   28.5320   43.4120 C   0  0  0  0  0  0  0  0  0  0  0  0
   41.3120   28.5900   43.0870 N   0  0  0  0  0  0  0  0  0  0  0  0
   40.5800   27.5010   42.9110 C   0  0  0  0  0  0  0  0  0  0  0  0
   41.1140   26.2640   43.0440 N   0  0  0  0  0  0  0  0  0  0  0  0
   44.2520   27.2070   43.8070 H   0  0  0  0  0  0  0  0  0  0  0  0
   43.2360   29.4210   43.5560 H   0  0  0  0  0  0  0  0  0  0  0  0
   42.9930   24.8360   43.5050 N   0  0  0  0  0  0  0  0  0  0  0  0
   43.9780   24.6430   43.1920 H   0  0  0  0  0  0  0  0  0  0  0  0
   42.4370   24.0540   43.9440 H   0  0  0  0  0  0  0  0  0  0  0  0
   36.9510   28.1410   39.7340 O   0  0  0  0  0  0  0  0  0  0  0  0
   37.9730   29.9720   38.1210 O   0  0  0  0  0  0  0  0  0  0  0  0
   36.7580   29.6070   38.9480 P   0  0  2  0  0  0  0  0  0  0  0  0
   36.4480   30.8330   40.0830 O   0  0  0  0  0  0  0  0  0  0  0  0
   37.4160   31.8430   40.2640 C   0  0  0  0  0  0  0  0  0  0  0  0
   37.3880   33.1580   39.6840 C   0  0  0  0  0  0  0  0  0  0  0  0
   36.6110   33.4190   39.0800 H   0  0  0  0  0  0  0  0  0  0  0  0
   38.9710   33.8240   40.4030 S   0  0  0  0  0  0  0  0  0  0  0  0
   39.3430   32.2160   41.3270 C   0  0  0  0  0  0  0  0  0  0  0  0
   40.2500   32.2340   41.8940 H   0  0  0  0  0  0  0  0  0  0  0  0
   38.4130   31.4420   41.0680 N   0  0  0  0  0  0  0  0  0  0  0  0
   35.4070   29.6240   37.9180 O   0  0  0  0  0  0  0  0  0  0  0  0
   34.3390   28.9030   38.4930 C   0  0  0  0  0  0  0  0  0  0  0  0
   33.2270   29.2750   37.7340 F   0  0  0  0  0  0  0  0  0  0  0  0
   34.5180   27.5460   38.3260 F   0  0  0  0  0  0  0  0  0  0  0  0
   34.1660   29.1460   39.8280 F   0  0  0  0  0  0  0  0  0  0  0  0
  1  2  1  0  0  0  0
  2  3  1  0  0  0  0
  3 15  1  0  0  0  0
  3  4  2  0  0  0  0
  4  8  1  0  0  0  0
  5  4  1  0  0  0  0
  5  9  1  0  0  0  0
  6  5  2  0  0  0  0
  7  2  2  0  0  0  0
  7  6  1  0  0  0  0
 10  6  1  0  0  0  0
 11 19  1  0  0  0  0
 11 12  1  0  0  0  0
 12 17  1  0  0  0  0
 13 12  2  0  0  0  0
 13 18  1  0  0  0  0
 14 13  1  0  0  0  0
 15 16  1  0  0  0  0
 15 14  2  0  0  0  0
 16 11  2  0  0  0  0
 19 21  1  0  0  0  0
 20 19  1  0  0  0  0
 22  7  1  0  0  0  0
 24 23  2  6  0  0  0
 24 22  1  0  0  0  0
 24 25  1  0  0  0  0
 25 26  1  0  0  0  0
 26 32  1  0  0  0  0
 27 26  2  0  0  0  0
 27 29  1  0  0  0  0
 28 27  1  0  0  0  0
 29 30  1  0  0  0  0
 30 31  1  0  0  0  0
 32 30  2  0  0  0  0
 33 34  1  0  0  0  0
 33 24  1  0  0  0  0
 34 37  1  0  0  0  0
 35 34  1  0  0  0  0
 36 34  1  0  0  0  0
M  END
>  <minimizedAffinity>
-5.96796703

$$$$

 OpenBabel03252506163D

 37 39  0  0  0  0  0  0  0  0999 V2000
   40.6170   30.6610   40.8200 F   0  0  0  0  0  0  0  0  0  0  0  0
   39.4980   31.2810   40.5050 C   0  0  0  0  0  0  0  0  0  0  0  0
   39.5780   32.5110   39.8830 C   0  0  0  0  0  0  0  0  0  0  0  0
   38.4460   33.2620   39.5010 C   0  0  0  0  0  0  0  0  0  0  0  0
   37.1740   32.7290   39.7690 C   0  0  0  0  0  0  0  0  0  0  0  0
   37.1440   31.5050   40.3880 C   0  0  0  0  0  0  0  0  0  0  0  0
   38.2210   30.7780   40.7580 C   0  0  0  0  0  0  0  0  0  0  0  0
   38.5880   34.2270   39.0130 H   0  0  0  0  0  0  0  0  0  0  0  0
   36.3440   33.3400   39.4580 H   0  0  0  0  0  0  0  0  0  0  0  0
   36.0960   31.2180   40.5230 H   0  0  0  0  0  0  0  0  0  0  0  0
   42.3320   33.9850   37.9670 C   0  0  0  0  0  0  0  0  0  0  0  0
   43.2990   34.2210   38.9740 C   0  0  0  0  0  0  0  0  0  0  0  0
   42.9870   33.8640   40.3180 C   0  0  0  0  0  0  0  0  0  0  0  0
   41.7570   33.3100   40.5480 N   0  0  0  0  0  0  0  0  0  0  0  0
   40.8820   33.1070   39.5760 C   0  0  0  0  0  0  0  0  0  0  0  0
   41.1630   33.4400   38.2940 N   0  0  0  0  0  0  0  0  0  0  0  0
   44.2590   34.6510   38.8100 H   0  0  0  0  0  0  0  0  0  0  0  0
   43.7010   34.0290   41.1120 H   0  0  0  0  0  0  0  0  0  0  0  0
   42.6650   34.3460   36.6510 N   0  0  0  0  0  0  0  0  0  0  0  0
   43.2260   35.2080   36.4330 H   0  0  0  0  0  0  0  0  0  0  0  0
   42.3440   33.7340   35.8530 H   0  0  0  0  0  0  0  0  0  0  0  0
   38.0650   29.5690   41.3700 O   0  0  0  0  0  0  0  0  0  0  0  0
   40.0130   27.7790   41.3130 O   0  0  0  0  0  0  0  0  0  0  0  0
   38.6100   28.0820   40.8270 P   0  0  2  0  0  0  0  0  0  0  0  0
   38.5710   28.0400   39.1290 O   0  0  0  0  0  0  0  0  0  0  0  0
   37.3980   28.4660   38.4710 C   0  0  0  0  0  0  0  0  0  0  0  0
   36.0540   28.0700   38.7930 C   0  0  0  0  0  0  0  0  0  0  0  0
   35.8970   27.4210   39.5620 H   0  0  0  0  0  0  0  0  0  0  0  0
   35.1470   29.0490   37.4960 S   0  0  0  0  0  0  0  0  0  0  0  0
   36.7420   29.7840   36.7940 C   0  0  0  0  0  0  0  0  0  0  0  0
   36.5940   30.4490   35.9680 H   0  0  0  0  0  0  0  0  0  0  0  0
   37.6670   29.3170   37.4700 N   0  0  0  0  0  0  0  0  0  0  0  0
   37.6070   26.8010   41.3120 O   0  0  0  0  0  0  0  0  0  0  0  0
   36.9970   27.0920   42.5500 C   0  0  0  0  0  0  0  0  0  0  0  0
   36.0150   28.0340   42.2360 F   0  0  0  0  0  0  0  0  0  0  0  0
   36.3570   25.9790   43.0540 F   0  0  0  0  0  0  0  0  0  0  0  0
   37.8700   27.5440   43.5010 F   0  0  0  0  0  0  0  0  0  0  0  0
  2  7  1  0  0  0  0
  2  1  1  0  0  0  0
  3  2  2  0  0  0  0
  4  5  2  0  0  0  0
  4  3  1  0  0  0  0
  5  6  1  0  0  0  0
  6 10  1  0  0  0  0
  6  7  2  0  0  0  0
  7 22  1  0  0  0  0
  8  4  1  0  0  0  0
  9  5  1  0  0  0  0
 11 16  2  0  0  0  0
 11 12  1  0  0  0  0
 12 13  2  0  0  0  0
 13 14  1  0  0  0  0
 13 18  1  0  0  0  0
 15  3  1  0  0  0  0
 15 14  2  0  0  0  0
 16 15  1  0  0  0  0
 17 12  1  0  0  0  0
 19 11  1  0  0  0  0
 20 19  1  0  0  0  0
 21 19  1  0  0  0  0
 24 33  1  0  0  0  0
 24 23  2  1  0  0  0
 24 22  1  0  0  0  0
 25 24  1  0  0  0  0
 26 27  2  0  0  0  0
 26 25  1  0  0  0  0
 27 28  1  0  0  0  0
 29 27  1  0  0  0  0
 30 32  2  0  0  0  0
 30 29  1  0  0  0  0
 31 30  1  0  0  0  0
 32 26  1  0  0  0  0
 33 34  1  0  0  0  0
 34 36  1  0  0  0  0
 34 37  1  0  0  0  0
 35 34  1  0  0  0  0
M  END
>  <minimizedAffinity>
-5.87790585

$$$$

 OpenBabel03252506163D

 37 39  0  0  0  0  0  0  0  0999 V2000
   39.2590   29.3620   41.6260 F   0  0  0  0  0  0  0  0  0  0  0  0
   38.0090   29.3970   41.2130 C   0  0  0  0  0  0  0  0  0  0  0  0
   37.6150   30.4360   40.3920 C   0  0  0  0  0  0  0  0  0  0  0  0
   36.3030   30.5730   39.8910 C   0  0  0  0  0  0  0  0  0  0  0  0
   35.3520   29.6010   40.2450 C   0  0  0  0  0  0  0  0  0  0  0  0
   35.7890   28.5880   41.0610 C   0  0  0  0  0  0  0  0  0  0  0  0
   37.0420   28.4480   41.5460 C   0  0  0  0  0  0  0  0  0  0  0  0
   36.0660   31.4210   39.2480 H   0  0  0  0  0  0  0  0  0  0  0  0
   34.3670   29.7510   39.8360 H   0  0  0  0  0  0  0  0  0  0  0  0
   34.9490   27.9110   41.2420 H   0  0  0  0  0  0  0  0  0  0  0  0
   39.8960   32.3990   38.3020 C   0  0  0  0  0  0  0  0  0  0  0  0
   40.3510   33.3870   39.2090 C   0  0  0  0  0  0  0  0  0  0  0  0
   39.8610   33.3640   40.5470 C   0  0  0  0  0  0  0  0  0  0  0  0
   38.9710   32.3750   40.8700 N   0  0  0  0  0  0  0  0  0  0  0  0
   38.5720   31.4710   39.9900 C   0  0  0  0  0  0  0  0  0  0  0  0
   39.0280   31.4780   38.7150 N   0  0  0  0  0  0  0  0  0  0  0  0
   41.0420   34.1610   38.9720 H   0  0  0  0  0  0  0  0  0  0  0  0
   40.1870   34.1010   41.2660 H   0  0  0  0  0  0  0  0  0  0  0  0
   40.3940   32.4450   36.9890 N   0  0  0  0  0  0  0  0  0  0  0  0
   40.5740   33.3540   36.4910 H   0  0  0  0  0  0  0  0  0  0  0  0
   40.5980   31.5410   36.4850 H   0  0  0  0  0  0  0  0  0  0  0  0
   37.3590   27.3940   42.3530 O   0  0  0  0  0  0  0  0  0  0  0  0
   38.8960   26.1830   40.5720 O   0  0  0  0  0  0  0  0  0  0  0  0
   38.3970   26.1280   42.0010 P   0  0  2  0  0  0  0  0  0  0  0  0
   37.6120   24.6470   42.2760 O   0  0  0  0  0  0  0  0  0  0  0  0
   37.3050   23.8310   41.1670 C   0  0  0  0  0  0  0  0  0  0  0  0
   38.1160   22.7630   40.6490 C   0  0  0  0  0  0  0  0  0  0  0  0
   39.0030   22.5470   41.1020 H   0  0  0  0  0  0  0  0  0  0  0  0
   37.0240   22.2300   39.2390 S   0  0  0  0  0  0  0  0  0  0  0  0
   35.7150   23.5370   39.6290 C   0  0  0  0  0  0  0  0  0  0  0  0
   34.8720   23.5260   38.9690 H   0  0  0  0  0  0  0  0  0  0  0  0
   36.1280   24.1620   40.6140 N   0  0  0  0  0  0  0  0  0  0  0  0
   39.7540   26.0920   43.0220 O   0  0  0  0  0  0  0  0  0  0  0  0
   40.5300   24.9410   42.7710 C   0  0  0  0  0  0  0  0  0  0  0  0
   41.7170   25.1680   43.4710 F   0  0  0  0  0  0  0  0  0  0  0  0
   39.9360   23.8220   43.3160 F   0  0  0  0  0  0  0  0  0  0  0  0
   40.7450   24.7000   41.4420 F   0  0  0  0  0  0  0  0  0  0  0  0
  2  7  1  0  0  0  0
  2  1  1  0  0  0  0
  3  2  2  0  0  0  0
  4  5  2  0  0  0  0
  4  3  1  0  0  0  0
  5  6  1  0  0  0  0
  6 10  1  0  0  0  0
  6  7  2  0  0  0  0
  7 22  1  0  0  0  0
  8  4  1  0  0  0  0
  9  5  1  0  0  0  0
 11 16  2  0  0  0  0
 11 12  1  0  0  0  0
 12 13  2  0  0  0  0
 13 14  1  0  0  0  0
 13 18  1  0  0  0  0
 15  3  1  0  0  0  0
 15 14  2  0  0  0  0
 16 15  1  0  0  0  0
 17 12  1  0  0  0  0
 19 11  1  0  0  0  0
 20 19  1  0  0  0  0
 21 19  1  0  0  0  0
 24 23  2  6  0  0  0
 24 25  1  0  0  0  0
 24 22  1  0  0  0  0
 24 33  1  0  0  0  0
 26 25  1  0  0  0  0
 27 28  1  0  0  0  0
 27 26  2  0  0  0  0
 29 30  1  0  0  0  0
 29 27  1  0  0  0  0
 30 32  2  0  0  0  0
 31 30  1  0  0  0  0
 32 26  1  0  0  0  0
 34 33  1  0  0  0  0
 34 36  1  0  0  0  0
 34 35  1  0  0  0  0
 37 34  1  0  0  0  0
M  END
>  <minimizedAffinity>
-5.81794405

$$$$

 OpenBabel03252506163D

 37 39  0  0  0  0  0  0  0  0999 V2000
   40.2770   30.0450   38.9760 F   0  0  0  0  0  0  0  0  0  0  0  0
   39.2210   30.7690   39.2900 C   0  0  0  0  0  0  0  0  0  0  0  0
   39.3880   32.1260   39.4850 C   0  0  0  0  0  0  0  0  0  0  0  0
   38.3300   32.9950   39.8240 C   0  0  0  0  0  0  0  0  0  0  0  0
   37.0430   32.4510   39.9680 C   0  0  0  0  0  0  0  0  0  0  0  0
   36.9260   31.0990   39.7640 C   0  0  0  0  0  0  0  0  0  0  0  0
   37.9320   30.2580   39.4410 C   0  0  0  0  0  0  0  0  0  0  0  0
   38.5380   34.0580   39.9630 H   0  0  0  0  0  0  0  0  0  0  0  0
   36.2710   33.1560   40.2270 H   0  0  0  0  0  0  0  0  0  0  0  0
   35.8760   30.8240   39.9020 H   0  0  0  0  0  0  0  0  0  0  0  0
   42.2560   33.8150   37.9550 C   0  0  0  0  0  0  0  0  0  0  0  0
   43.1630   33.9010   39.0400 C   0  0  0  0  0  0  0  0  0  0  0  0
   42.7700   33.3680   40.3020 C   0  0  0  0  0  0  0  0  0  0  0  0
   41.5260   32.8020   40.3810 N   0  0  0  0  0  0  0  0  0  0  0  0
   40.7100   32.7430   39.3400 C   0  0  0  0  0  0  0  0  0  0  0  0
   41.0680   33.2440   38.1350 N   0  0  0  0  0  0  0  0  0  0  0  0
   44.1320   34.3380   38.9930 H   0  0  0  0  0  0  0  0  0  0  0  0
   43.4350   33.4140   41.1510 H   0  0  0  0  0  0  0  0  0  0  0  0
   42.6690   34.3490   36.7220 N   0  0  0  0  0  0  0  0  0  0  0  0
   43.2460   35.2260   36.6580 H   0  0  0  0  0  0  0  0  0  0  0  0
   42.3950   33.8550   35.8310 H   0  0  0  0  0  0  0  0  0  0  0  0
   37.6930   28.9260   39.2630 O   0  0  0  0  0  0  0  0  0  0  0  0
   39.4070   26.9840   39.8010 O   0  0  0  0  0  0  0  0  0  0  0  0
   38.1450   27.6740   40.2780 P   0  0  2  0  0  0  0  0  0  0  0  0
   36.8830   26.5430   40.3950 O   0  0  0  0  0  0  0  0  0  0  0  0
   37.1950   25.1710   40.2810 C   0  0  0  0  0  0  0  0  0  0  0  0
   37.6590   24.3160   41.3400 C   0  0  0  0  0  0  0  0  0  0  0  0
   37.7850   24.7040   42.2740 H   0  0  0  0  0  0  0  0  0  0  0  0
   37.8220   22.7300   40.3800 S   0  0  0  0  0  0  0  0  0  0  0  0
   37.2400   23.5320   38.7680 C   0  0  0  0  0  0  0  0  0  0  0  0
   37.2060   22.8630   37.9320 H   0  0  0  0  0  0  0  0  0  0  0  0
   37.0100   24.7180   39.0320 N   0  0  0  0  0  0  0  0  0  0  0  0
   38.4100   28.1890   41.8740 O   0  0  0  0  0  0  0  0  0  0  0  0
   37.1870   28.2760   42.5740 C   0  0  0  0  0  0  0  0  0  0  0  0
   37.0360   27.0160   43.1580 F   0  0  0  0  0  0  0  0  0  0  0  0
   37.2740   29.1970   43.5970 F   0  0  0  0  0  0  0  0  0  0  0  0
   36.1240   28.6180   41.7860 F   0  0  0  0  0  0  0  0  0  0  0  0
  1  2  1  0  0  0  0
  2  7  2  0  0  0  0
  2  3  1  0  0  0  0
  3  4  2  0  0  0  0
  4  8  1  0  0  0  0
  4  5  1  0  0  0  0
  5  9  1  0  0  0  0
  6 10  1  0  0  0  0
  6  5  2  0  0  0  0
  7  6  1  0  0  0  0
 11 16  2  0  0  0  0
 11 12  1  0  0  0  0
 12 13  2  0  0  0  0
 13 14  1  0  0  0  0
 13 18  1  0  0  0  0
 15  3  1  0  0  0  0
 15 14  2  0  0  0  0
 16 15  1  0  0  0  0
 17 12  1  0  0  0  0
 19 11  1  0  0  0  0
 20 19  1  0  0  0  0
 21 19  1  0  0  0  0
 22  7  1  0  0  0  0
 22 24  1  0  0  0  0
 24 23  2  6  0  0  0
 24 25  1  0  0  0  0
 24 33  1  0  0  0  0
 26 25  1  0  0  0  0
 26 27  2  0  0  0  0
 27 28  1  0  0  0  0
 29 27  1  0  0  0  0
 30 32  2  0  0  0  0
 30 29  1  0  0  0  0
 31 30  1  0  0  0  0
 32 26  1  0  0  0  0
 33 34  1  0  0  0  0
 34 35  1  0  0  0  0
 34 36  1  0  0  0  0
 37 34  1  0  0  0  0
M  END
>  <minimizedAffinity>
-5.78963614

$$$$

 OpenBabel03252506163D

 37 39  0  0  0  0  0  0  0  0999 V2000
   37.4190   28.2110   39.5440 F   0  0  0  0  0  0  0  0  0  0  0  0
   37.3580   28.1660   40.8590 C   0  0  0  0  0  0  0  0  0  0  0  0
   37.1470   26.9440   41.4670 C   0  0  0  0  0  0  0  0  0  0  0  0
   37.0640   26.7790   42.8660 C   0  0  0  0  0  0  0  0  0  0  0  0
   37.2040   27.9160   43.6790 C   0  0  0  0  0  0  0  0  0  0  0  0
   37.4120   29.1070   43.0310 C   0  0  0  0  0  0  0  0  0  0  0  0
   37.4930   29.2760   41.6930 C   0  0  0  0  0  0  0  0  0  0  0  0
   36.8950   25.7810   43.2750 H   0  0  0  0  0  0  0  0  0  0  0  0
   37.1330   27.7360   44.7390 H   0  0  0  0  0  0  0  0  0  0  0  0
   37.5090   29.8930   43.7860 H   0  0  0  0  0  0  0  0  0  0  0  0
   37.5050   23.4620   40.3850 C   0  0  0  0  0  0  0  0  0  0  0  0
   36.7450   23.4440   39.1900 C   0  0  0  0  0  0  0  0  0  0  0  0
   36.1110   24.6480   38.7660 C   0  0  0  0  0  0  0  0  0  0  0  0
   36.2820   25.7550   39.5530 N   0  0  0  0  0  0  0  0  0  0  0  0
   37.0010   25.7270   40.6640 C   0  0  0  0  0  0  0  0  0  0  0  0
   37.6100   24.5920   41.0800 N   0  0  0  0  0  0  0  0  0  0  0  0
   36.6050   22.5910   38.5690 H   0  0  0  0  0  0  0  0  0  0  0  0
   35.5250   24.6720   37.8590 H   0  0  0  0  0  0  0  0  0  0  0  0
   38.1190   22.2610   40.7810 N   0  0  0  0  0  0  0  0  0  0  0  0
   37.6570   21.3270   40.6470 H   0  0  0  0  0  0  0  0  0  0  0  0
   39.0760   22.2950   41.2250 H   0  0  0  0  0  0  0  0  0  0  0  0
   37.7030   30.5160   41.1620 O   0  0  0  0  0  0  0  0  0  0  0  0
   40.2200   30.1030   40.4610 O   0  0  0  0  0  0  0  0  0  0  0  0
   39.0330   31.0270   40.2840 P   0  0  2  0  0  0  0  0  0  0  0  0
   39.4610   32.6040   40.7510 O   0  0  0  0  0  0  0  0  0  0  0  0
   40.7190   33.1050   40.3580 C   0  0  0  0  0  0  0  0  0  0  0  0
   41.9480   32.9840   41.0940 C   0  0  0  0  0  0  0  0  0  0  0  0
   41.9470   32.4960   41.9880 H   0  0  0  0  0  0  0  0  0  0  0  0
   43.0780   33.8820   39.9180 S   0  0  0  0  0  0  0  0  0  0  0  0
   41.6820   34.2340   38.6910 C   0  0  0  0  0  0  0  0  0  0  0  0
   41.9890   34.7780   37.8210 H   0  0  0  0  0  0  0  0  0  0  0  0
   40.6580   33.7360   39.1750 N   0  0  0  0  0  0  0  0  0  0  0  0
   38.7130   31.1440   38.6200 O   0  0  0  0  0  0  0  0  0  0  0  0
   37.4380   31.7070   38.4010 C   0  0  0  0  0  0  0  0  0  0  0  0
   37.4400   32.0450   37.0460 F   0  0  0  0  0  0  0  0  0  0  0  0
   36.4480   30.7650   38.5910 F   0  0  0  0  0  0  0  0  0  0  0  0
   37.1620   32.7780   39.2060 F   0  0  0  0  0  0  0  0  0  0  0  0
  1  2  1  0  0  0  0
  2  3  2  0  0  0  0
  2  7  1  0  0  0  0
  3  4  1  0  0  0  0
  4  8  1  0  0  0  0
  4  5  2  0  0  0  0
  5  9  1  0  0  0  0
  6  5  1  0  0  0  0
  6 10  1  0  0  0  0
  7  6  2  0  0  0  0
 11 19  1  0  0  0  0
 11 16  1  0  0  0  0
 12 11  2  0  0  0  0
 13 12  1  0  0  0  0
 13 14  2  0  0  0  0
 14 15  1  0  0  0  0
 15 16  2  0  0  0  0
 15  3  1  0  0  0  0
 17 12  1  0  0  0  0
 18 13  1  0  0  0  0
 19 21  1  0  0  0  0
 20 19  1  0  0  0  0
 22  7  1  0  0  0  0
 24 23  2  1  0  0  0
 24 25  1  0  0  0  0
 24 22  1  0  0  0  0
 26 25  1  0  0  0  0
 26 27  2  0  0  0  0
 27 28  1  0  0  0  0
 29 27  1  0  0  0  0
 30 32  2  0  0  0  0
 30 29  1  0  0  0  0
 31 30  1  0  0  0  0
 32 26  1  0  0  0  0
 33 24  1  0  0  0  0
 34 36  1  0  0  0  0
 34 33  1  0  0  0  0
 34 37  1  0  0  0  0
 35 34  1  0  0  0  0
M  END
>  <minimizedAffinity>
-5.7882309

$$$$

 OpenBabel03252506163D

 37 39  0  0  0  0  0  0  0  0999 V2000
   40.6980   30.1770   39.4430 F   0  0  0  0  0  0  0  0  0  0  0  0
   39.5960   30.8460   39.7150 C   0  0  0  0  0  0  0  0  0  0  0  0
   39.6540   32.2250   39.7470 C   0  0  0  0  0  0  0  0  0  0  0  0
   38.5370   33.0410   40.0280 C   0  0  0  0  0  0  0  0  0  0  0  0
   37.3060   32.4160   40.2880 C   0  0  0  0  0  0  0  0  0  0  0  0
   37.2980   31.0440   40.2450 C   0  0  0  0  0  0  0  0  0  0  0  0
   38.3600   30.2550   39.9770 C   0  0  0  0  0  0  0  0  0  0  0  0
   38.6590   34.1260   40.0360 H   0  0  0  0  0  0  0  0  0  0  0  0
   36.4860   33.0820   40.4960 H   0  0  0  0  0  0  0  0  0  0  0  0
   36.2790   30.7040   40.4570 H   0  0  0  0  0  0  0  0  0  0  0  0
   42.3240   33.9360   37.9130 C   0  0  0  0  0  0  0  0  0  0  0  0
   43.2480   34.2320   38.9440 C   0  0  0  0  0  0  0  0  0  0  0  0
   42.9370   33.8330   40.2760 C   0  0  0  0  0  0  0  0  0  0  0  0
   41.7490   33.1820   40.4710 N   0  0  0  0  0  0  0  0  0  0  0  0
   40.9130   32.9260   39.4770 C   0  0  0  0  0  0  0  0  0  0  0  0
   41.1940   33.2970   38.2070 N   0  0  0  0  0  0  0  0  0  0  0  0
   44.1750   34.7380   38.8070 H   0  0  0  0  0  0  0  0  0  0  0  0
   43.6180   34.0420   41.0880 H   0  0  0  0  0  0  0  0  0  0  0  0
   42.6570   34.3410   36.6090 N   0  0  0  0  0  0  0  0  0  0  0  0
   43.1540   35.2470   36.4140 H   0  0  0  0  0  0  0  0  0  0  0  0
   42.4020   33.7180   35.7960 H   0  0  0  0  0  0  0  0  0  0  0  0
   38.2290   28.8960   39.9640 O   0  0  0  0  0  0  0  0  0  0  0  0
   39.6250   28.4920   42.1740 O   0  0  0  0  0  0  0  0  0  0  0  0
   38.7650   27.8170   41.1260 P   0  0  2  0  0  0  0  0  0  0  0  0
   39.6410   26.5630   40.3870 O   0  0  0  0  0  0  0  0  0  0  0  0
   40.3240   26.8370   39.1830 C   0  0  0  0  0  0  0  0  0  0  0  0
   39.7640   26.7910   37.8600 C   0  0  0  0  0  0  0  0  0  0  0  0
   38.7830   26.5410   37.7440 H   0  0  0  0  0  0  0  0  0  0  0  0
   41.2780   27.2680   36.8880 S   0  0  0  0  0  0  0  0  0  0  0  0
   42.3440   27.4290   38.4420 C   0  0  0  0  0  0  0  0  0  0  0  0
   43.3590   27.7130   38.2510 H   0  0  0  0  0  0  0  0  0  0  0  0
   41.6090   27.1600   39.3990 N   0  0  0  0  0  0  0  0  0  0  0  0
   37.4900   27.0340   41.9290 O   0  0  0  0  0  0  0  0  0  0  0  0
   36.5660   27.9780   42.4260 C   0  0  0  0  0  0  0  0  0  0  0  0
   35.9550   27.3270   43.5000 F   0  0  0  0  0  0  0  0  0  0  0  0
   37.2190   29.0830   42.9300 F   0  0  0  0  0  0  0  0  0  0  0  0
   35.6630   28.4090   41.4950 F   0  0  0  0  0  0  0  0  0  0  0  0
  1  2  1  0  0  0  0
  2  3  2  0  0  0  0
  2  7  1  0  0  0  0
  3  4  1  0  0  0  0
  4  8  1  0  0  0  0
  4  5  2  0  0  0  0
  5  9  1  0  0  0  0
  6  5  1  0  0  0  0
  6 10  1  0  0  0  0
  7  6  2  0  0  0  0
 11 16  2  0  0  0  0
 11 12  1  0  0  0  0
 12 13  2  0  0  0  0
 13 14  1  0  0  0  0
 13 18  1  0  0  0  0
 15  3  1  0  0  0  0
 15 14  2  0  0  0  0
 16 15  1  0  0  0  0
 17 12  1  0  0  0  0
 19 11  1  0  0  0  0
 20 19  1  0  0  0  0
 21 19  1  0  0  0  0
 22  7  1  0  0  0  0
 22 24  1  0  0  0  0
 24 33  1  0  0  0  0
 24 23  2  1  0  0  0
 25 24  1  0  0  0  0
 26 32  1  0  0  0  0
 26 25  1  0  0  0  0
 27 26  2  0  0  0  0
 28 27  1  0  0  0  0
 29 27  1  0  0  0  0
 29 30  1  0  0  0  0
 30 32  2  0  0  0  0
 31 30  1  0  0  0  0
 33 34  1  0  0  0  0
 34 36  1  0  0  0  0
 34 35  1  0  0  0  0
 37 34  1  0  0  0  0
M  END
>  <minimizedAffinity>
-5.49523115

$$$$

 OpenBabel03252506163D

 37 39  0  0  0  0  0  0  0  0999 V2000
   37.3780   29.0510   39.2590 F   0  0  0  0  0  0  0  0  0  0  0  0
   37.3510   28.7060   40.5310 C   0  0  0  0  0  0  0  0  0  0  0  0
   37.8090   29.6100   41.4680 C   0  0  0  0  0  0  0  0  0  0  0  0
   37.8260   29.3470   42.8550 C   0  0  0  0  0  0  0  0  0  0  0  0
   37.3520   28.1020   43.3010 C   0  0  0  0  0  0  0  0  0  0  0  0
   36.9070   27.2370   42.3330 C   0  0  0  0  0  0  0  0  0  0  0  0
   36.8870   27.4790   41.0040 C   0  0  0  0  0  0  0  0  0  0  0  0
   38.2030   30.1120   43.5360 H   0  0  0  0  0  0  0  0  0  0  0  0
   37.3860   27.9510   44.3670 H   0  0  0  0  0  0  0  0  0  0  0  0
   36.5650   26.3220   42.8270 H   0  0  0  0  0  0  0  0  0  0  0  0
   37.8480   33.0160   40.1170 C   0  0  0  0  0  0  0  0  0  0  0  0
   39.2070   33.3810   40.2770 C   0  0  0  0  0  0  0  0  0  0  0  0
   40.1050   32.4380   40.8540 C   0  0  0  0  0  0  0  0  0  0  0  0
   39.5860   31.2250   41.2220 N   0  0  0  0  0  0  0  0  0  0  0  0
   38.3080   30.9250   41.0550 C   0  0  0  0  0  0  0  0  0  0  0  0
   37.4420   31.8100   40.5070 N   0  0  0  0  0  0  0  0  0  0  0  0
   39.6240   34.3200   39.9960 H   0  0  0  0  0  0  0  0  0  0  0  0
   41.1490   32.6810   40.9910 H   0  0  0  0  0  0  0  0  0  0  0  0
   36.9850   33.9650   39.5440 N   0  0  0  0  0  0  0  0  0  0  0  0
   37.0730   34.9930   39.7460 H   0  0  0  0  0  0  0  0  0  0  0  0
   36.2230   33.6390   38.8910 H   0  0  0  0  0  0  0  0  0  0  0  0
   36.4200   26.5360   40.1350 O   0  0  0  0  0  0  0  0  0  0  0  0
   38.7800   25.9930   39.0690 O   0  0  0  0  0  0  0  0  0  0  0  0
   37.3230   25.5790   39.1000 P   0  0  2  0  0  0  0  0  0  0  0  0
   36.6730   25.6520   37.5320 O   0  0  0  0  0  0  0  0  0  0  0  0
   36.4760   26.9180   36.9430 C   0  0  0  0  0  0  0  0  0  0  0  0
   35.2970   27.7330   37.0580 C   0  0  0  0  0  0  0  0  0  0  0  0
   34.5100   27.3940   37.6100 H   0  0  0  0  0  0  0  0  0  0  0  0
   35.8440   29.1800   36.0230 S   0  0  0  0  0  0  0  0  0  0  0  0
   37.5280   28.4030   35.6510 C   0  0  0  0  0  0  0  0  0  0  0  0
   38.1620   29.0030   35.0310 H   0  0  0  0  0  0  0  0  0  0  0  0
   37.5430   27.3100   36.2310 N   0  0  0  0  0  0  0  0  0  0  0  0
   37.2630   23.9330   39.5140 O   0  0  0  0  0  0  0  0  0  0  0  0
   37.4000   23.7680   40.9090 C   0  0  0  0  0  0  0  0  0  0  0  0
   37.7600   22.4280   41.0630 F   0  0  0  0  0  0  0  0  0  0  0  0
   38.4400   24.5340   41.3920 F   0  0  0  0  0  0  0  0  0  0  0  0
   36.2740   24.0910   41.6140 F   0  0  0  0  0  0  0  0  0  0  0  0
  1  2  1  0  0  0  0
  2  7  2  0  0  0  0
  2  3  1  0  0  0  0
  3  4  2  0  0  0  0
  4  5  1  0  0  0  0
  4  8  1  0  0  0  0
  5  9  1  0  0  0  0
  6 10  1  0  0  0  0
  6  5  2  0  0  0  0
  7  6  1  0  0  0  0
 11 12  2  0  0  0  0
 11 16  1  0  0  0  0
 12 13  1  0  0  0  0
 13 18  1  0  0  0  0
 13 14  2  0  0  0  0
 15 14  1  0  0  0  0
 15  3  1  0  0  0  0
 16 15  2  0  0  0  0
 17 12  1  0  0  0  0
 19 20  1  0  0  0  0
 19 11  1  0  0  0  0
 21 19  1  0  0  0  0
 22  7  1  0  0  0  0
 24 23  2  6  0  0  0
 24 33  1  0  0  0  0
 24 22  1  0  0  0  0
 25 24  1  0  0  0  0
 26 27  2  0  0  0  0
 26 25  1  0  0  0  0
 27 28  1  0  0  0  0
 29 27  1  0  0  0  0
 30 29  1  0  0  0  0
 30 32  2  0  0  0  0
 31 30  1  0  0  0  0
 32 26  1  0  0  0  0
 33 34  1  0  0  0  0
 34 35  1  0  0  0  0
 34 36  1  0  0  0  0
 34 37  1  0  0  0  0
M  END
>  <minimizedAffinity>
-5.4937396

$$$$

 OpenBabel03252506163D

 37 39  0  0  0  0  0  0  0  0999 V2000
   39.6140   28.5230   39.9420 F   0  0  0  0  0  0  0  0  0  0  0  0
   38.3430   28.7980   40.1520 C   0  0  0  0  0  0  0  0  0  0  0  0
   37.6660   28.0820   41.1190 C   0  0  0  0  0  0  0  0  0  0  0  0
   36.3050   28.2910   41.4280 C   0  0  0  0  0  0  0  0  0  0  0  0
   35.6060   29.2790   40.7150 C   0  0  0  0  0  0  0  0  0  0  0  0
   36.3200   29.9650   39.7650 C   0  0  0  0  0  0  0  0  0  0  0  0
   37.6220   29.7720   39.4610 C   0  0  0  0  0  0  0  0  0  0  0  0
   35.8370   27.6850   42.2060 H   0  0  0  0  0  0  0  0  0  0  0  0
   34.5710   29.4000   40.9880 H   0  0  0  0  0  0  0  0  0  0  0  0
   35.6530   30.6990   39.3030 H   0  0  0  0  0  0  0  0  0  0  0  0
   38.7900   24.7710   42.2140 C   0  0  0  0  0  0  0  0  0  0  0  0
   39.6160   25.0900   43.3200 C   0  0  0  0  0  0  0  0  0  0  0  0
   39.7770   26.4590   43.6800 C   0  0  0  0  0  0  0  0  0  0  0  0
   39.1140   27.3860   42.9220 N   0  0  0  0  0  0  0  0  0  0  0  0
   38.3510   27.0440   41.8950 C   0  0  0  0  0  0  0  0  0  0  0  0
   38.1870   25.7480   41.5410 N   0  0  0  0  0  0  0  0  0  0  0  0
   40.1370   24.3800   43.9170 H   0  0  0  0  0  0  0  0  0  0  0  0
   40.3990   26.7400   44.5170 H   0  0  0  0  0  0  0  0  0  0  0  0
   38.6490   23.4130   41.8810 N   0  0  0  0  0  0  0  0  0  0  0  0
   39.4470   22.7330   41.9580 H   0  0  0  0  0  0  0  0  0  0  0  0
   37.7130   23.0610   41.5440 H   0  0  0  0  0  0  0  0  0  0  0  0
   38.2260   30.5190   38.4910 O   0  0  0  0  0  0  0  0  0  0  0  0
   38.4770   33.0640   39.1670 O   0  0  0  0  0  0  0  0  0  0  0  0
   39.2360   31.8350   38.7120 P   0  0  2  0  0  0  0  0  0  0  0  0
   40.0620   32.1760   37.2670 O   0  0  0  0  0  0  0  0  0  0  0  0
   41.4500   32.4240   37.3270 C   0  0  0  0  0  0  0  0  0  0  0  0
   42.4940   31.4730   37.0540 C   0  0  0  0  0  0  0  0  0  0  0  0
   42.2440   30.5220   36.7900 H   0  0  0  0  0  0  0  0  0  0  0  0
   43.9680   32.5710   37.3510 S   0  0  0  0  0  0  0  0  0  0  0  0
   42.8920   34.0670   37.7760 C   0  0  0  0  0  0  0  0  0  0  0  0
   43.4450   34.9510   38.0190 H   0  0  0  0  0  0  0  0  0  0  0  0
   41.7170   33.6900   37.6790 N   0  0  0  0  0  0  0  0  0  0  0  0
   40.4630   31.5360   39.8470 O   0  0  0  0  0  0  0  0  0  0  0  0
   40.1450   32.1300   41.0870 C   0  0  0  0  0  0  0  0  0  0  0  0
   41.0980   31.6160   41.9690 F   0  0  0  0  0  0  0  0  0  0  0  0
   40.3250   33.4960   41.0350 F   0  0  0  0  0  0  0  0  0  0  0  0
   38.8640   31.8870   41.5020 F   0  0  0  0  0  0  0  0  0  0  0  0
  1  2  1  0  0  0  0
  2  3  1  0  0  0  0
  3  4  2  0  0  0  0
  3 15  1  0  0  0  0
  4  8  1  0  0  0  0
  5  9  1  0  0  0  0
  5  4  1  0  0  0  0
  6  5  2  0  0  0  0
  7  6  1  0  0  0  0
  7  2  2  0  0  0  0
 10  6  1  0  0  0  0
 11 12  1  0  0  0  0
 12 13  2  0  0  0  0
 12 17  1  0  0  0  0
 13 18  1  0  0  0  0
 14 13  1  0  0  0  0
 15 14  2  0  0  0  0
 16 15  1  0  0  0  0
 16 11  2  0  0  0  0
 19 20  1  0  0  0  0
 19 11  1  0  0  0  0
 21 19  1  0  0  0  0
 22 24  1  0  0  0  0
 22  7  1  0  0  0  0
 24 23  2  1  0  0  0
 24 33  1  0  0  0  0
 25 26  1  0  0  0  0
 25 24  1  0  0  0  0
 26 32  1  0  0  0  0
 27 26  2  0  0  0  0
 27 29  1  0  0  0  0
 28 27  1  0  0  0  0
 29 30  1  0  0  0  0
 30 31  1  0  0  0  0
 32 30  2  0  0  0  0
 33 34  1  0  0  0  0
 34 37  1  0  0  0  0
 34 35  1  0  0  0  0
 36 34  1  0  0  0  0
M  END
>  <minimizedAffinity>
-5.45329237

$$$$

 OpenBabel03252506163D

 37 39  0  0  0  0  0  0  0  0999 V2000
   39.7850   31.1650   39.4190 F   0  0  0  0  0  0  0  0  0  0  0  0
   40.4330   31.1900   40.5660 C   0  0  0  0  0  0  0  0  0  0  0  0
   41.7880   31.4580   40.5510 C   0  0  0  0  0  0  0  0  0  0  0  0
   42.5800   31.5090   41.7180 C   0  0  0  0  0  0  0  0  0  0  0  0
   41.9570   31.2760   42.9550 C   0  0  0  0  0  0  0  0  0  0  0  0
   40.6100   31.0140   42.9190 C   0  0  0  0  0  0  0  0  0  0  0  0
   39.8430   30.9620   41.8090 C   0  0  0  0  0  0  0  0  0  0  0  0
   43.6460   31.7270   41.6270 H   0  0  0  0  0  0  0  0  0  0  0  0
   42.6050   31.3260   43.8140 H   0  0  0  0  0  0  0  0  0  0  0  0
   40.2670   30.8620   43.9480 H   0  0  0  0  0  0  0  0  0  0  0  0
   42.8540   33.1540   37.4840 C   0  0  0  0  0  0  0  0  0  0  0  0
   43.7650   32.2210   36.9310 C   0  0  0  0  0  0  0  0  0  0  0  0
   44.0030   31.0020   37.6310 C   0  0  0  0  0  0  0  0  0  0  0  0
   43.3260   30.8140   38.8050 N   0  0  0  0  0  0  0  0  0  0  0  0
   42.4830   31.7140   39.2860 C   0  0  0  0  0  0  0  0  0  0  0  0
   42.2450   32.8760   38.6340 N   0  0  0  0  0  0  0  0  0  0  0  0
   44.2970   32.3540   36.0190 H   0  0  0  0  0  0  0  0  0  0  0  0
   44.6900   30.2670   37.2390 H   0  0  0  0  0  0  0  0  0  0  0  0
   42.6380   34.3470   36.7730 N   0  0  0  0  0  0  0  0  0  0  0  0
   43.4130   34.8410   36.2620 H   0  0  0  0  0  0  0  0  0  0  0  0
   41.6690   34.7630   36.7500 H   0  0  0  0  0  0  0  0  0  0  0  0
   38.5090   30.6910   41.9000 O   0  0  0  0  0  0  0  0  0  0  0  0
   37.7680   28.8190   43.6170 O   0  0  0  0  0  0  0  0  0  0  0  0
   37.7950   29.1970   42.1500 P   0  0  2  0  0  0  0  0  0  0  0  0
   38.6270   28.0070   41.2680 O   0  0  0  0  0  0  0  0  0  0  0  0
   39.1760   26.9110   41.9660 C   0  0  0  0  0  0  0  0  0  0  0  0
   38.5350   25.6460   42.2000 C   0  0  0  0  0  0  0  0  0  0  0  0
   37.5940   25.4910   41.8410 H   0  0  0  0  0  0  0  0  0  0  0  0
   39.8930   24.8060   43.1560 S   0  0  0  0  0  0  0  0  0  0  0  0
   41.0340   26.3110   43.0480 C   0  0  0  0  0  0  0  0  0  0  0  0
   41.9820   26.1800   43.5280 H   0  0  0  0  0  0  0  0  0  0  0  0
   40.4140   27.1740   42.4140 N   0  0  0  0  0  0  0  0  0  0  0  0
   36.2010   29.1280   41.5680 O   0  0  0  0  0  0  0  0  0  0  0  0
   36.0430   29.9860   40.4590 C   0  0  0  0  0  0  0  0  0  0  0  0
   34.8020   29.6310   39.9250 F   0  0  0  0  0  0  0  0  0  0  0  0
   35.9560   31.3010   40.8660 F   0  0  0  0  0  0  0  0  0  0  0  0
   37.0530   29.8930   39.5420 F   0  0  0  0  0  0  0  0  0  0  0  0
  1  2  1  0  0  0  0
  2  7  1  0  0  0  0
  3  2  2  0  0  0  0
  3  4  1  0  0  0  0
  4  5  2  0  0  0  0
  5  9  1  0  0  0  0
  6  5  1  0  0  0  0
  6 10  1  0  0  0  0
  7 22  1  0  0  0  0
  7  6  2  0  0  0  0
  8  4  1  0  0  0  0
 11 16  1  0  0  0  0
 12 11  2  0  0  0  0
 12 13  1  0  0  0  0
 13 14  2  0  0  0  0
 14 15  1  0  0  0  0
 15  3  1  0  0  0  0
 16 15  2  0  0  0  0
 17 12  1  0  0  0  0
 18 13  1  0  0  0  0
 19 11  1  0  0  0  0
 20 19  1  0  0  0  0
 21 19  1  0  0  0  0
 22 24  1  0  0  0  0
 24 23  2  1  0  0  0
 25 26  1  0  0  0  0
 25 24  1  0  0  0  0
 26 27  2  0  0  0  0
 26 32  1  0  0  0  0
 27 29  1  0  0  0  0
 28 27  1  0  0  0  0
 30 29  1  0  0  0  0
 30 31  1  0  0  0  0
 32 30  2  0  0  0  0
 33 24  1  0  0  0  0
 34 36  1  0  0  0  0
 34 33  1  0  0  0  0
 35 34  1  0  0  0  0
 37 34  1  0  0  0  0
M  END
>  <minimizedAffinity>
-5.39649868

$$$$
