
 OpenBabel03252508593D

 43 45  0  0  1  0  0  0  0  0999 V2000
   46.6970   34.5390   43.4740 N   0  0  0  0  0  0  0  0  0  0  0  0
   46.2290   35.6250   42.6870 C   0  0  0  0  0  0  0  0  0  0  0  0
   44.7290   35.8180   42.6940 C   0  0  0  0  0  0  0  0  0  0  0  0
   44.0470   35.4310   43.9790 C   0  0  0  0  0  0  0  0  0  0  0  0
   45.0590   35.0570   45.0380 C   0  0  0  0  0  0  0  0  0  0  0  0
   45.8630   33.8860   44.3650 C   0  0  2  0  0  0  0  0  0  0  0  0
   46.5520   35.6300   41.6400 H   0  0  0  0  0  0  0  0  0  0  0  0
   46.6840   36.5470   43.1450 H   0  0  0  0  0  0  0  0  0  0  0  0
   44.2610   35.3090   41.8120 H   0  0  0  0  0  0  0  0  0  0  0  0
   44.5260   36.9000   42.5380 H   0  0  0  0  0  0  0  0  0  0  0  0
   43.4620   34.5100   43.7690 H   0  0  0  0  0  0  0  0  0  0  0  0
   43.3280   36.1950   44.3190 H   0  0  0  0  0  0  0  0  0  0  0  0
   45.7120   35.9220   45.1880 H   0  0  0  0  0  0  0  0  0  0  0  0
   44.5530   34.6810   45.9320 H   0  0  0  0  0  0  0  0  0  0  0  0
   45.1070   33.1950   43.9390 H   0  0  0  0  0  0  0  0  0  0  0  0
   47.7820   33.8120   42.8850 C   0  0  0  0  0  0  0  0  0  0  0  0
   48.4190   33.3660   43.6770 H   0  0  0  0  0  0  0  0  0  0  0  0
   48.4100   34.5400   42.3190 H   0  0  0  0  0  0  0  0  0  0  0  0
   47.2280   32.7520   41.9900 C   0  0  0  0  0  0  0  0  0  0  0  0
   47.3910   31.7320   42.3480 H   0  0  0  0  0  0  0  0  0  0  0  0
   46.1180   32.8870   41.8630 H   0  0  0  0  0  0  0  0  0  0  0  0
   49.1180   32.0770   38.8120 C   0  0  0  0  0  0  0  0  0  0  0  0
   48.5770   31.9210   40.1020 C   0  0  0  0  0  0  0  0  0  0  0  0
   47.7950   32.9250   40.6270 C   0  0  0  0  0  0  0  0  0  0  0  0
   47.5850   34.0140   39.8700 N   0  0  0  0  0  0  0  0  0  0  0  0
   48.1050   34.1530   38.6400 C   0  0  0  0  0  0  0  0  0  0  0  0
   48.8740   33.1920   38.0980 N   0  0  0  0  0  0  0  0  0  0  0  0
   49.7360   31.2730   38.4080 H   0  0  0  0  0  0  0  0  0  0  0  0
   48.8120   31.0020   40.6210 H   0  0  0  0  0  0  0  0  0  0  0  0
   47.8200   35.0980   38.1970 H   0  0  0  0  0  0  0  0  0  0  0  0
   46.5620   33.3680   45.4450 O   0  0  0  0  0  0  0  0  0  0  0  0
   45.4740   31.1240   44.5270 O   0  0  0  0  0  0  0  0  0  0  0  0
   46.2790   31.7290   45.6820 P   0  0  2  0  0  0  0  0  0  0  0  0
   45.2440   31.6180   47.0400 O   0  0  0  0  0  0  0  0  0  0  0  0
   45.5290   32.2680   47.7250 H   0  0  0  0  0  0  0  0  0  0  0  0
   47.6670   30.8860   46.0200 O   0  0  0  0  0  0  0  0  0  0  0  0
   47.7210   29.6120   46.5650 C   0  0  0  0  0  0  0  0  0  0  0  0
   46.8090   28.5200   46.3090 C   0  0  0  0  0  0  0  0  0  0  0  0
   45.9660   28.7650   45.5750 H   0  0  0  0  0  0  0  0  0  0  0  0
   47.5500   27.1680   47.4040 S   0  0  0  0  0  0  0  0  0  0  0  0
   48.9190   28.3570   47.9670 C   0  0  0  0  0  0  0  0  0  0  0  0
   49.6430   27.9390   48.6800 H   0  0  0  0  0  0  0  0  0  0  0  0
   48.7200   29.3810   47.4120 N   0  0  0  0  0  0  0  0  0  0  0  0
  1  6  1  0  0  0  0
  2  3  1  0  0  0  0
  2  8  1  0  0  0  0
  2  1  1  0  0  0  0
  3  4  1  0  0  0  0
  4 12  1  0  0  0  0
  4  5  1  0  0  0  0
  5 13  1  0  0  0  0
  5 14  1  0  0  0  0
  6 15  1  6  0  0  0
  6  5  1  0  0  0  0
  6 31  1  0  0  0  0
  7  2  1  0  0  0  0
  9  3  1  0  0  0  0
 10  3  1  0  0  0  0
 11  4  1  0  0  0  0
 16  1  1  0  0  0  0
 16 17  1  0  0  0  0
 18 16  1  0  0  0  0
 19 20  1  0  0  0  0
 19 16  1  0  0  0  0
 21 19  1  0  0  0  0
 22 23  1  0  0  0  0
 23 29  1  0  0  0  0
 23 24  2  0  0  0  0
 24 19  1  0  0  0  0
 25 24  1  0  0  0  0
 26 25  2  0  0  0  0
 27 26  1  0  0  0  0
 27 22  2  0  0  0  0
 28 22  1  0  0  0  0
 30 26  1  0  0  0  0
 31 33  1  0  0  0  0
 33 32  2  6  0  0  0
 33 36  1  0  0  0  0
 33 34  1  0  0  0  0
 34 35  1  0  0  0  0
 36 37  1  0  0  0  0
 37 43  1  0  0  0  0
 38 37  2  0  0  0  0
 38 40  1  0  0  0  0
 39 38  1  0  0  0  0
 40 41  1  0  0  0  0
 41 42  1  0  0  0  0
 43 41  2  0  0  0  0
M  END
>  <minimizedAffinity>
-4.11982632

>  <minimizedRMSD>
0.798194706

$$$$
