
 OpenBabel03252508563D

 22 23  0  0  0  0  0  0  0  0999 V2000
   45.5730   34.4830   41.2100 C   0  0  0  0  0  0  0  0  0  0  0  0
   45.0010   33.5910   40.8790 H   0  0  0  0  0  0  0  0  0  0  0  0
   45.1850   35.3570   40.6900 H   0  0  0  0  0  0  0  0  0  0  0  0
   44.6090   35.9750   44.5330 C   0  0  0  0  0  0  0  0  0  0  0  0
   44.8100   35.8390   43.1350 C   0  0  0  0  0  0  0  0  0  0  0  0
   45.3530   34.6500   42.6690 C   0  0  0  0  0  0  0  0  0  0  0  0
   45.6580   33.6910   43.5760 N   0  0  0  0  0  0  0  0  0  0  0  0
   45.4580   33.8400   44.9060 C   0  0  0  0  0  0  0  0  0  0  0  0
   44.9380   34.9740   45.3670 N   0  0  0  0  0  0  0  0  0  0  0  0
   44.1830   36.9400   44.7750 H   0  0  0  0  0  0  0  0  0  0  0  0
   44.5660   36.6060   42.4140 H   0  0  0  0  0  0  0  0  0  0  0  0
   45.7070   33.0640   45.6170 H   0  0  0  0  0  0  0  0  0  0  0  0
   47.0370   34.2310   40.9570 C   0  0  0  0  0  0  0  0  0  0  0  0
   47.6000   35.1370   41.2650 H   0  0  0  0  0  0  0  0  0  0  0  0
   47.4130   33.4120   41.5790 H   0  0  0  0  0  0  0  0  0  0  0  0
   47.2270   33.9190   39.4980 C   0  0  0  0  0  0  0  0  0  0  0  0
   46.4000   33.0020   38.7400 C   0  0  0  0  0  0  0  0  0  0  0  0
   45.5780   32.4760   39.1940 H   0  0  0  0  0  0  0  0  0  0  0  0
   47.1310   33.0750   37.1090 S   0  0  0  0  0  0  0  0  0  0  0  0
   48.4410   34.3300   37.6910 C   0  0  0  0  0  0  0  0  0  0  0  0
   49.2610   34.7950   37.0510 H   0  0  0  0  0  0  0  0  0  0  0  0
   48.1900   34.4790   38.7920 N   0  0  0  0  0  0  0  0  0  0  0  0
  1  6  1  0  0  0  0
  2  1  1  0  0  0  0
  3  1  1  0  0  0  0
  4 10  1  0  0  0  0
  4  9  1  0  0  0  0
  5  4  2  0  0  0  0
  6  5  1  0  0  0  0
  6  7  2  0  0  0  0
  7  8  1  0  0  0  0
  8  9  2  0  0  0  0
  8 12  1  0  0  0  0
 11  5  1  0  0  0  0
 13  1  1  0  0  0  0
 13 14  1  0  0  0  0
 13 15  1  0  0  0  0
 16 13  1  0  0  0  0
 17 18  1  0  0  0  0
 17 16  2  0  0  0  0
 19 20  1  0  0  0  0
 19 17  1  0  0  0  0
 20 22  2  0  0  0  0
 21 20  1  0  0  0  0
 22 16  1  0  0  0  0
M  END
>  <minimizedAffinity>
-3.82877755

>  <minimizedRMSD>
1.88780963

$$$$
