
 OpenBabel03252503153D

 34 37  0  0  0  0  0  0  0  0999 V2000
   45.6390   34.5570   41.5890 C   0  0  0  0  0  0  0  0  0  0  0  0
   46.8580   34.7040   41.2580 O   0  0  0  0  0  0  0  0  0  0  0  0
   44.5480   34.2000   40.6250 C   0  0  0  0  0  0  0  0  0  0  0  0
   43.2160   34.4820   40.7840 C   0  0  0  0  0  0  0  0  0  0  0  0
   42.5880   33.9890   39.6960 N   0  0  0  0  0  0  0  0  0  0  0  0
   43.5440   33.4210   38.9050 C   0  0  0  0  0  0  0  0  0  0  0  0
   44.7530   33.5530   39.4800 N   0  0  0  0  0  0  0  0  0  0  0  0
   43.4190   32.7600   37.6450 N   0  0  0  0  0  0  0  0  0  0  0  0
   42.7420   34.9980   41.6100 H   0  0  0  0  0  0  0  0  0  0  0  0
   43.4580   33.2970   36.7690 H   0  0  0  0  0  0  0  0  0  0  0  0
   43.2920   31.7160   37.7650 H   0  0  0  0  0  0  0  0  0  0  0  0
   41.1710   34.0340   39.3910 C   0  0  0  0  0  0  0  0  0  0  0  0
   40.1950   33.8250   40.3490 C   0  0  0  0  0  0  0  0  0  0  0  0
   40.2530   33.6010   41.4320 H   0  0  0  0  0  0  0  0  0  0  0  0
   38.6290   33.9920   39.4450 S   0  0  0  0  0  0  0  0  0  0  0  0
   39.5800   34.3370   37.8350 C   0  0  0  0  0  0  0  0  0  0  0  0
   39.2020   34.5420   36.8180 H   0  0  0  0  0  0  0  0  0  0  0  0
   40.7370   34.2810   38.1720 N   0  0  0  0  0  0  0  0  0  0  0  0
   44.8840   36.0010   43.4250 C   0  0  0  0  0  0  0  0  0  0  0  0
   45.3470   34.7540   42.9690 C   0  0  0  0  0  0  0  0  0  0  0  0
   45.4830   33.7870   43.9470 C   0  0  0  0  0  0  0  0  0  0  0  0
   45.1950   34.0210   45.2410 N   0  0  0  0  0  0  0  0  0  0  0  0
   44.7490   35.2490   45.6270 C   0  0  0  0  0  0  0  0  0  0  0  0
   44.5980   36.2270   44.7160 N   0  0  0  0  0  0  0  0  0  0  0  0
   44.7530   36.8040   42.7150 H   0  0  0  0  0  0  0  0  0  0  0  0
   44.5310   35.3820   46.6850 H   0  0  0  0  0  0  0  0  0  0  0  0
   45.9450   32.5000   43.5770 C   0  0  0  0  0  0  0  0  0  0  0  0
   47.1640   31.8960   43.5270 C   0  0  0  0  0  0  0  0  0  0  0  0
   47.3030   30.6410   43.1310 C   0  0  0  0  0  0  0  0  0  0  0  0
   46.1830   29.9730   42.7750 C   0  0  0  0  0  0  0  0  0  0  0  0
   44.8570   31.2140   43.0220 S   0  0  0  0  0  0  0  0  0  0  0  0
   48.0080   32.5420   43.8420 H   0  0  0  0  0  0  0  0  0  0  0  0
   48.2360   30.0960   43.0650 H   0  0  0  0  0  0  0  0  0  0  0  0
   46.0060   28.9560   42.4180 H   0  0  0  0  0  0  0  0  0  0  0  0
  1 20  1  0  0  0  0
  2  1  2  0  0  0  0
  3  4  2  0  0  0  0
  3  1  1  0  0  0  0
  4  9  1  0  0  0  0
  5  4  1  0  0  0  0
  6  7  2  0  0  0  0
  6  5  1  0  0  0  0
  7  3  1  0  0  0  0
  8 11  1  0  0  0  0
  8  6  1  0  0  0  0
 10  8  1  0  0  0  0
 12  5  1  0  0  0  0
 12 13  2  0  0  0  0
 13 14  1  0  0  0  0
 15 13  1  0  0  0  0
 16 18  2  0  0  0  0
 16 15  1  0  0  0  0
 17 16  1  0  0  0  0
 18 12  1  0  0  0  0
 19 24  1  0  0  0  0
 20 19  2  0  0  0  0
 20 21  1  0  0  0  0
 21 22  2  0  0  0  0
 22 23  1  0  0  0  0
 23 26  1  0  0  0  0
 24 23  2  0  0  0  0
 25 19  1  0  0  0  0
 27 21  1  0  0  0  0
 28 27  2  0  0  0  0
 28 32  1  0  0  0  0
 29 28  1  0  0  0  0
 30 31  1  0  0  0  0
 30 29  2  0  0  0  0
 31 27  1  0  0  0  0
 33 29  1  0  0  0  0
 34 30  1  0  0  0  0
M  END
>  <minimizedAffinity>
-5.36257792

>  <minimizedRMSD>
1.47609663

$$$$
