
     RDKit          3D

 42 45  0  0  0  0  0  0  0  0999 V2000
   44.5054   35.5350   45.1202 C   0  0  0  0  0  0  0  0  0  0  0  0
   45.1687   35.5087   43.8791 C   0  0  0  0  0  0  0  0  0  0  0  0
   46.0892   34.5415   43.6418 C   0  0  0  0  0  0  0  0  0  0  0  0
   46.3121   33.6485   44.6355 N   0  0  0  0  0  0  0  0  0  0  0  0
   45.6840   33.6791   45.8016 C   0  0  0  0  0  0  0  0  0  0  0  0
   44.7781   34.6163   46.0584 N   0  0  0  0  0  0  0  0  0  0  0  0
   46.0052   32.6797   46.7859 N   0  0  0  0  0  0  0  0  0  0  0  0
   45.2608   32.4467   47.9679 C   0  0  0  0  0  0  0  0  0  0  0  0
   46.3345   32.1311   48.9954 C   0  0  0  0  0  0  0  0  0  0  0  0
   47.6171   31.9999   48.2307 C   0  0  0  0  0  0  0  0  0  0  0  0
   47.1335   31.7710   46.7991 C   0  0  1  0  0  0  0  0  0  0  0  0
   44.8190   36.5280   42.9293 N   0  0  0  0  0  0  0  0  0  0  0  0
   46.6262   30.0795   46.6385 S   0  0  0  0  0  0  0  0  0  0  0  0
   45.6003   30.5138   43.4860 O   0  0  0  0  0  0  0  0  0  0  0  0
   44.9788   29.9857   44.4220 C   0  0  0  0  0  0  0  0  0  0  0  0
   45.0811   29.7757   45.8953 C   0  0  1  0  0  0  0  0  0  0  0  0
   44.5491   28.3763   46.0344 C   0  0  0  0  0  0  0  0  0  0  0  0
   43.2140   28.5836   45.2817 C   0  0  0  0  0  0  0  0  0  0  0  0
   43.7390   29.3290   44.1172 N   0  0  0  0  0  0  0  0  0  0  0  0
   43.7614   36.3106   45.3217 H   0  0  0  0  0  0  0  0  0  0  0  0
   46.6026   34.5035   42.7096 H   0  0  0  0  0  0  0  0  0  0  0  0
   44.4789   31.7699   48.0846 H   0  0  0  0  0  0  0  0  0  0  0  0
   44.8547   33.4556   48.2955 H   0  0  0  0  0  0  0  0  0  0  0  0
   46.4939   32.9482   49.7280 H   0  0  0  0  0  0  0  0  0  0  0  0
   46.0821   31.2287   49.5939 H   0  0  0  0  0  0  0  0  0  0  0  0
   48.1995   31.1175   48.5577 H   0  0  0  0  0  0  0  0  0  0  0  0
   48.2071   32.9449   48.2268 H   0  0  0  0  0  0  0  0  0  0  0  0
   47.9408   32.0850   46.1376 H   0  0  0  0  0  0  0  0  0  0  0  0
   43.8511   36.4238   42.5543 H   0  0  0  0  0  0  0  0  0  0  0  0
   45.4831   37.2935   42.6519 H   0  0  0  0  0  0  0  0  0  0  0  0
   44.1929   30.3810   46.2315 H   0  0  0  0  0  0  0  0  0  0  0  0
   44.3690   28.1028   47.0821 H   0  0  0  0  0  0  0  0  0  0  0  0
   45.1458   27.6456   45.4623 H   0  0  0  0  0  0  0  0  0  0  0  0
   42.8176   27.6041   44.9806 H   0  0  0  0  0  0  0  0  0  0  0  0
   42.5255   29.1933   45.8814 H   0  0  0  0  0  0  0  0  0  0  0  0
   42.9350   29.2623   42.9107 C   0  0  0  0  0  0  0  0  0  0  0  0
   43.4574   29.3375   41.6336 C   0  0  0  0  0  0  0  0  0  0  0  0
   44.5761   29.4592   41.4813 H   0  0  0  0  0  0  0  0  0  0  0  0
   41.8495   29.1810   40.6327 S   0  0  0  0  0  0  0  0  0  0  0  0
   40.8184   29.0470   42.2074 C   0  0  0  0  0  0  0  0  0  0  0  0
   39.7430   28.9334   42.1343 H   0  0  0  0  0  0  0  0  0  0  0  0
   41.6322   29.1198   43.1378 N   0  0  0  0  0  0  0  0  0  0  0  0
  1  6  2  0
  2  1  1  0
  3  2  2  0
  3  4  1  0
  4  5  2  0
  5  6  1  0
  5  7  1  0
  7 11  1  0
  7  8  1  0
  8  9  1  0
 10  9  1  0
 11 10  1  0
 12  2  1  0
 13 11  1  0
 14 15  2  0
 15 16  1  0
 16 17  1  0
 16 13  1  0
 18 17  1  0
 19 15  1  0
 19 18  1  0
  1 20  1  0
  3 21  1  0
  8 22  1  0
  8 23  1  0
  9 24  1  0
  9 25  1  0
 10 26  1  0
 10 27  1  0
 11 28  1  6
 12 29  1  0
 12 30  1  0
 16 31  1  1
 17 32  1  0
 17 33  1  0
 18 34  1  0
 18 35  1  0
 36 37  2  0
 37 38  1  0
 37 39  1  0
 39 40  1  0
 40 41  1  0
 40 42  2  0
 42 36  1  0
 19 36  1  0
M  ISO  8  20  14  21  14  22  13  23  13  24  13  25  13  26  13  27  13
M  ISO  8  28  13  31  13  32  13  33  13  34  13  35  13  38  15  41  16
M  END
>  <DihAtoms>  (1) 
14,18,35,36

>  <DihDeg>  (1) 
89.85648456771756

$$$$
