
 OpenBabel03242513043D

 33 36  0  0  0  0  0  0  0  0999 V2000
   45.7510   33.1580   41.5490 C   0  0  0  0  0  0  0  0  0  0  0  0
   46.9410   33.8470   41.2940 C   0  0  0  0  0  0  0  0  0  0  0  0
   47.8630   33.9060   42.3240 C   0  0  0  0  0  0  0  0  0  0  0  0
   47.5440   33.2940   43.5010 N   0  0  0  0  0  0  0  0  0  0  0  0
   46.4000   32.6400   43.7250 C   0  0  0  0  0  0  0  0  0  0  0  0
   45.4920   32.5700   42.7410 N   0  0  0  0  0  0  0  0  0  0  0  0
   44.9550   33.0310   40.8540 H   0  0  0  0  0  0  0  0  0  0  0  0
   46.0520   30.6650   45.1360 C   0  0  0  0  0  0  0  0  0  0  0  0
   46.1610   32.0260   45.0130 C   0  0  0  0  0  0  0  0  0  0  0  0
   46.0490   32.9010   46.1150 C   0  0  0  0  0  0  0  0  0  0  0  0
   45.8180   32.3870   47.3860 C   0  0  0  0  0  0  0  0  0  0  0  0
   45.6580   32.8880   48.6350 N   0  0  0  0  0  0  0  0  0  0  0  0
   45.4570   31.8350   49.4870 C   0  0  0  0  0  0  0  0  0  0  0  0
   45.4960   30.7060   48.7530 N   0  0  0  0  0  0  0  0  0  0  0  0
   45.7150   31.0100   47.4630 C   0  0  0  0  0  0  0  0  0  0  0  0
   45.8210   30.1280   46.4010 C   0  0  0  0  0  0  0  0  0  0  0  0
   46.1500   30.0760   44.2490 H   0  0  0  0  0  0  0  0  0  0  0  0
   46.1350   33.9700   46.0160 H   0  0  0  0  0  0  0  0  0  0  0  0
   45.6990   33.9070   48.8090 H   0  0  0  0  0  0  0  0  0  0  0  0
   45.3060   32.0000   50.5400 H   0  0  0  0  0  0  0  0  0  0  0  0
   45.7340   29.0730   46.5090 H   0  0  0  0  0  0  0  0  0  0  0  0
   49.1440   34.6180   42.1210 C   0  0  0  0  0  0  0  0  0  0  0  0
   48.9190   35.8540   41.4840 F   0  0  0  0  0  0  0  0  0  0  0  0
   49.7250   34.9190   43.3290 F   0  0  0  0  0  0  0  0  0  0  0  0
   49.9540   33.8380   41.3440 F   0  0  0  0  0  0  0  0  0  0  0  0
   47.1460   34.4180   40.0780 O   0  0  0  0  0  0  0  0  0  0  0  0
   47.3050   33.6600   38.9390 C   0  0  0  0  0  0  0  0  0  0  0  0
   48.3280   34.3690   38.2660 C   0  0  0  0  0  0  0  0  0  0  0  0
   49.0820   35.2540   38.2030 H   0  0  0  0  0  0  0  0  0  0  0  0
   48.5830   33.3970   36.7300 S   0  0  0  0  0  0  0  0  0  0  0  0
   47.2460   32.1770   37.2590 C   0  0  0  0  0  0  0  0  0  0  0  0
   46.5660   31.1850   37.0870 H   0  0  0  0  0  0  0  0  0  0  0  0
   46.9420   32.6200   38.2380 N   0  0  0  0  0  0  0  0  0  0  0  0
  1  6  1  0  0  0  0
  2  1  2  0  0  0  0
  2  3  1  0  0  0  0
  3  4  2  0  0  0  0
  4  5  1  0  0  0  0
  5  9  1  0  0  0  0
  6  5  2  0  0  0  0
  7  1  1  0  0  0  0
  8 16  1  0  0  0  0
  9  8  2  0  0  0  0
  9 10  1  0  0  0  0
 10 11  2  0  0  0  0
 11 15  1  0  0  0  0
 11 12  1  0  0  0  0
 12 19  1  0  0  0  0
 12 13  1  0  0  0  0
 13 20  1  0  0  0  0
 14 13  2  0  0  0  0
 15 14  1  0  0  0  0
 16 21  1  0  0  0  0
 16 15  2  0  0  0  0
 17  8  1  0  0  0  0
 18 10  1  0  0  0  0
 22  3  1  0  0  0  0
 22 24  1  0  0  0  0
 23 22  1  0  0  0  0
 25 22  1  0  0  0  0
 26  2  1  0  0  0  0
 27 26  1  0  0  0  0
 28 27  2  0  0  0  0
 29 28  1  0  0  0  0
 30 31  1  0  0  0  0
 30 28  1  0  0  0  0
 31 33  2  0  0  0  0
 32 31  1  0  0  0  0
 33 27  1  0  0  0  0
M  END
>  <minimizedAffinity>
-5.85046244

>  <minimizedRMSD>
1.27610373

$$$$
