REMARK  Name = 
REMARK  4 active torsions:
REMARK  status: ('A' for Active; 'I' for Inactive)
REMARK    1  A    between atoms: C_2  and  N_11
REMARK    2  A    between atoms: C_3  and  C_7
REMARK    3  A    between atoms: C_9  and  C_10
REMARK    4  A    between atoms: C_10  and  C_22
REMARK                            x       y       z     vdW  Elec       q    Type
REMARK                         _______ _______ _______ _____ _____    ______ ____
ROOT
ATOM      1  C   UNL     1      46.566  35.056  41.927  0.00  0.00    +0.000 C 
ATOM      2  C   UNL     1      48.104  35.299  41.924  0.00  0.00    +0.000 C 
ATOM      3  C   UNL     1      47.351  34.074  41.306  0.00  0.00    +0.000 C 
ATOM      4  H   UNL     1      46.003  35.827  41.362  0.00  0.00    +0.000 HD
ATOM      5  H   UNL     1      48.666  35.135  42.842  0.00  0.00    +0.000 HD
ATOM      6  H   UNL     1      48.446  36.000  41.154  0.00  0.00    +0.000 HD
ATOM      7  H   UNL     1      47.643  33.112  41.831  0.00  0.00    +0.000 HD
ENDROOT
BRANCH   1  10
ATOM      8  C   UNL     1      44.674  35.382  45.155  0.00  0.00    +0.000 A 
ATOM      9  C   UNL     1      45.131  35.697  43.834  0.00  0.00    +0.000 A 
ATOM     10  C   UNL     1      46.070  34.854  43.339  0.00  0.00    +0.000 A 
ATOM     11  N   UNL     1      46.545  33.779  44.057  0.00  0.00    +0.000 NA
ATOM     12  C   UNL     1      46.091  33.517  45.295  0.00  0.00    +0.000 A 
ATOM     13  N   UNL     1      45.152  34.321  45.844  0.00  0.00    +0.000 NA
ATOM     14  H   UNL     1      43.916  36.073  45.538  0.00  0.00    +0.000 HD
ATOM     15  H   UNL     1      46.481  32.669  45.834  0.00  0.00    +0.000 HD
BRANCH   9  16
ATOM     16  N   UNL     1      44.664  36.814  43.121  0.00  0.00    +0.000 N 
ATOM     17  H   UNL     1      45.419  37.501  43.399  0.00  0.00    +0.000 HD
ATOM     18  H   UNL     1      43.838  36.964  42.499  0.00  0.00    +0.000 HD
ENDBRANCH   9  16
ENDBRANCH   1  10
BRANCH   3  19
ATOM     19  C   UNL     1      47.408  33.914  39.808  0.00  0.00    +0.000 C 
ATOM     20  H   UNL     1      48.130  33.117  39.536  0.00  0.00    +0.000 HD
ATOM     21  H   UNL     1      47.850  34.850  39.412  0.00  0.00    +0.000 HD
BRANCH  19  22
ATOM     22  C   UNL     1      46.058  33.614  39.231  0.00  0.00    +0.000 A 
ATOM     23  C   UNL     1      44.916  34.310  39.619  0.00  0.00    +0.000 A 
ATOM     24  H   UNL     1      44.913  35.134  40.377  0.00  0.00    +0.000 HD
ATOM     25  S   UNL     1      43.594  33.514  38.593  0.00  0.00    +0.000 S 
ATOM     26  C   UNL     1      44.866  32.361  37.813  0.00  0.00    +0.000 A 
ATOM     27  H   UNL     1      44.643  31.594  37.058  0.00  0.00    +0.000 HD
ATOM     28  N   UNL     1      45.852  32.672  38.319  0.00  0.00    +0.000 NA
ENDBRANCH  19  22
ENDBRANCH   3  19
TORSDOF 4
