REMARK  Name = 
REMARK  6 active torsions:
REMARK  status: ('A' for Active; 'I' for Inactive)
REMARK    1  A    between atoms: C_1  and  C_11
REMARK    2  A    between atoms: C_5  and  C_7
REMARK    3  A    between atoms: C_9  and  N_10
REMARK    4  A    between atoms: C_11  and  C_14
REMARK    5  A    between atoms: C_13  and  S_19
REMARK    6  A    between atoms: S_19  and  C_34
REMARK                            x       y       z     vdW  Elec       q    Type
REMARK                         _______ _______ _______ _____ _____    ______ ____
ROOT
ATOM      1  C   UNL     1      44.243  34.312  41.550  0.00  0.00    +0.000 C 
ATOM      2  O   UNL     1      45.120  34.139  40.631  0.00  0.00    +0.000 OA
ENDROOT
BRANCH   1   4
ATOM      3  C   UNL     1      41.993  33.312  41.315  0.00  0.00    +0.000 A 
ATOM      4  C   UNL     1      42.797  34.414  41.318  0.00  0.00    +0.000 A 
ATOM      5  C   UNL     1      42.225  35.671  41.075  0.00  0.00    +0.000 A 
ATOM      6  C   UNL     1      40.887  35.852  40.833  0.00  0.00    +0.000 A 
ATOM      7  C   UNL     1      40.077  34.751  40.831  0.00  0.00    +0.000 A 
ATOM      8  C   UNL     1      40.625  33.529  41.065  0.00  0.00    +0.000 A 
ATOM      9  H   UNL     1      42.799  36.585  41.052  0.00  0.00    +0.000 HD
ATOM     10  H   UNL     1      40.447  36.816  40.647  0.00  0.00    +0.000 HD
ATOM     11  H   UNL     1      39.015  34.763  40.655  0.00  0.00    +0.000 HD
ATOM     12  H   UNL     1      39.988  32.629  41.066  0.00  0.00    +0.000 HD
BRANCH   3  13
ATOM     13  S   UNL     1      42.557  31.752  41.647  0.00  0.00    +0.000 S 
ATOM     14  O   UNL     1      42.368  31.071  40.278  0.00  0.00    +0.000 OA
ATOM     15  O   UNL     1      41.669  31.022  42.596  0.00  0.00    +0.000 OA
BRANCH  13  16
ATOM     16  C   UNL     1      44.198  31.270  41.630  0.00  0.00    +0.000 A 
ATOM     17  C   UNL     1      44.317  29.707  41.725  0.00  0.00    +0.000 A 
ATOM     18  H   UNL     1      43.442  28.812  41.852  0.00  0.00    +0.000 HD
ATOM     19  S   UNL     1      45.977  29.409  41.618  0.00  0.00    +0.000 S 
ATOM     20  C   UNL     1      46.488  31.169  41.462  0.00  0.00    +0.000 A 
ATOM     21  H   UNL     1      47.460  31.631  41.358  0.00  0.00    +0.000 HD
ATOM     22  N   UNL     1      45.431  31.667  41.510  0.00  0.00    +0.000 NA
ENDBRANCH  13  16
ENDBRANCH   3  13
ENDBRANCH   1   4
BRANCH   1  23
ATOM     23  C   UNL     1      44.587  34.430  42.936  0.00  0.00    +0.000 A 
ATOM     24  C   UNL     1      44.317  35.690  43.546  0.00  0.00    +0.000 A 
ATOM     25  C   UNL     1      44.642  35.813  44.886  0.00  0.00    +0.000 A 
ATOM     26  N   UNL     1      45.187  34.749  45.531  0.00  0.00    +0.000 NA
ATOM     27  C   UNL     1      45.430  33.554  44.904  0.00  0.00    +0.000 A 
ATOM     28  N   UNL     1      45.121  33.464  43.664  0.00  0.00    +0.000 NA
ATOM     29  H   UNL     1      43.901  36.567  43.130  0.00  0.00    +0.000 HD
ATOM     30  H   UNL     1      44.479  36.735  45.456  0.00  0.00    +0.000 HD
BRANCH  27  31
ATOM     31  C   UNL     1      46.019  32.449  45.684  0.00  0.00    +0.000 C 
ATOM     32  C   UNL     1      46.967  32.787  46.816  0.00  0.00    +0.000 C 
ATOM     33  C   UNL     1      45.542  32.374  47.092  0.00  0.00    +0.000 C 
ATOM     34  H   UNL     1      46.125  31.470  45.190  0.00  0.00    +0.000 HD
ATOM     35  H   UNL     1      47.777  32.031  46.968  0.00  0.00    +0.000 HD
ATOM     36  H   UNL     1      47.278  33.835  46.817  0.00  0.00    +0.000 HD
ATOM     37  H   UNL     1      45.428  31.389  47.584  0.00  0.00    +0.000 HD
BRANCH  33  38
ATOM     38  N   UNL     1      44.748  33.426  47.654  0.00  0.00    +0.000 NA
ATOM     39  H   UNL     1      43.901  33.105  48.142  0.00  0.00    +0.000 HD
ATOM     40  H   UNL     1      45.293  34.158  48.151  0.00  0.00    +0.000 HD
ENDBRANCH  33  38
ENDBRANCH  27  31
ENDBRANCH   1  23
TORSDOF 6
