
 OpenBabel03252501203D

 24 25  0  0  0  0  0  0  0  0999 V2000
   45.2050   34.4960   45.3090 C   0  0  0  0  0  0  0  0  0  0  0  0
   45.8780   34.6650   44.0920 C   0  0  0  0  0  0  0  0  0  0  0  0
   46.8970   33.7640   43.8210 C   0  0  0  0  0  0  0  0  0  0  0  0
   47.1990   32.7830   44.7140 N   0  0  0  0  0  0  0  0  0  0  0  0
   46.5250   32.6590   45.8720 C   0  0  0  0  0  0  0  0  0  0  0  0
   45.5260   33.5170   46.1700 N   0  0  0  0  0  0  0  0  0  0  0  0
   44.3890   35.1450   45.6040 H   0  0  0  0  0  0  0  0  0  0  0  0
   46.8380   31.8460   46.5260 H   0  0  0  0  0  0  0  0  0  0  0  0
   47.5890   33.9630   42.5260 C   0  0  0  0  0  0  0  0  0  0  0  0
   48.5010   32.9370   42.3440 F   0  0  0  0  0  0  0  0  0  0  0  0
   48.3040   35.1190   42.6440 F   0  0  0  0  0  0  0  0  0  0  0  0
   46.7460   33.9040   41.4690 F   0  0  0  0  0  0  0  0  0  0  0  0
   45.5140   35.7420   43.1700 C   0  0  0  0  0  0  0  0  0  0  0  0
   46.3330   36.4040   42.8670 H   0  0  0  0  0  0  0  0  0  0  0  0
   44.8850   35.3570   42.3710 H   0  0  0  0  0  0  0  0  0  0  0  0
   44.7290   36.7510   43.8910 N   0  0  0  0  0  0  0  0  0  0  0  0
   43.7400   36.5320   44.2090 H   0  0  0  0  0  0  0  0  0  0  0  0
   45.0070   38.0810   44.3010 C   0  0  0  0  0  0  0  0  0  0  0  0
   45.2590   38.8940   43.2290 C   0  0  0  0  0  0  0  0  0  0  0  0
   45.3110   38.8370   42.1150 H   0  0  0  0  0  0  0  0  0  0  0  0
   45.5810   40.5030   43.9780 S   0  0  0  0  0  0  0  0  0  0  0  0
   45.3040   39.7650   45.7220 C   0  0  0  0  0  0  0  0  0  0  0  0
   45.3950   40.4450   46.6740 H   0  0  0  0  0  0  0  0  0  0  0  0
   45.0800   38.7090   45.4460 N   0  0  0  0  0  0  0  0  0  0  0  0
  1  7  1  0  0  0  0
  1  6  1  0  0  0  0
  2  1  2  0  0  0  0
  3  2  1  0  0  0  0
  3  4  2  0  0  0  0
  4  5  1  0  0  0  0
  5  6  2  0  0  0  0
  5  8  1  0  0  0  0
  9 11  1  0  0  0  0
  9  3  1  0  0  0  0
 10  9  1  0  0  0  0
 12  9  1  0  0  0  0
 13 16  1  0  0  0  0
 13  2  1  0  0  0  0
 14 13  1  0  0  0  0
 15 13  1  0  0  0  0
 16 17  1  0  0  0  0
 16 18  1  0  0  0  0
 18 24  1  0  0  0  0
 19 21  1  0  0  0  0
 19 18  2  0  0  0  0
 20 19  1  0  0  0  0
 21 22  1  0  0  0  0
 22 23  1  0  0  0  0
 24 22  2  0  0  0  0
M  END
>  <minimizedAffinity>
-2.28344274

>  <minimizedRMSD>
1.27181685

$$$$
