
 OpenBabel03252507463D

 35 37  0  0  0  0  0  0  0  0999 V2000
   47.0870   34.3220   40.8910 C   0  0  0  0  0  0  0  0  0  0  0  0
   46.5070   33.4670   40.5190 H   0  0  0  0  0  0  0  0  0  0  0  0
   47.2420   35.1080   40.1000 H   0  0  0  0  0  0  0  0  0  0  0  0
   48.4330   33.9220   41.3340 C   0  0  0  0  0  0  0  0  0  0  0  0
   48.8990   32.6880   40.8970 C   0  0  0  0  0  0  0  0  0  0  0  0
   50.1620   32.2380   41.2720 C   0  0  0  0  0  0  0  0  0  0  0  0
   50.9030   33.0540   42.0740 N   0  0  0  0  0  0  0  0  0  0  0  0
   50.4230   34.2450   42.4800 C   0  0  0  0  0  0  0  0  0  0  0  0
   49.2160   34.6630   42.1150 N   0  0  0  0  0  0  0  0  0  0  0  0
   50.4900   31.2690   40.9120 H   0  0  0  0  0  0  0  0  0  0  0  0
   51.1140   34.8050   43.1200 H   0  0  0  0  0  0  0  0  0  0  0  0
   47.8740   31.6580   39.8410 S   0  0  0  0  0  0  0  0  0  0  0  0
   48.0720   32.1400   38.1100 C   0  0  0  0  0  0  0  0  0  0  0  0
   47.7110   31.3210   37.0200 C   0  0  0  0  0  0  0  0  0  0  0  0
   47.2800   30.3220   37.1680 H   0  0  0  0  0  0  0  0  0  0  0  0
   48.1660   32.3910   35.5870 S   0  0  0  0  0  0  0  0  0  0  0  0
   48.7680   33.7650   36.7480 C   0  0  0  0  0  0  0  0  0  0  0  0
   49.1630   34.6850   36.3200 H   0  0  0  0  0  0  0  0  0  0  0  0
   48.5820   33.3240   37.8230 N   0  0  0  0  0  0  0  0  0  0  0  0
   46.2780   34.9740   41.9770 C   0  0  0  0  0  0  0  0  0  0  0  0
   46.4420   34.3830   42.9140 H   0  0  0  0  0  0  0  0  0  0  0  0
   46.6210   36.0110   42.1920 H   0  0  0  0  0  0  0  0  0  0  0  0
   44.8090   34.9410   41.7430 C   0  0  0  0  0  0  0  0  0  0  0  0
   43.9170   35.4610   42.7290 C   0  0  0  0  0  0  0  0  0  0  0  0
   42.2650   35.1910   41.9780 S   0  0  0  0  0  0  0  0  0  0  0  0
   43.0640   34.4110   40.4390 C   0  0  0  0  0  0  0  0  0  0  0  0
   44.1710   34.4770   40.7030 N   0  0  0  0  0  0  0  0  0  0  0  0
   44.1810   35.9020   43.6770 H   0  0  0  0  0  0  0  0  0  0  0  0
   42.3170   33.9360   39.3630 O   0  0  0  0  0  0  0  0  0  0  0  0
   40.4110   34.4060   37.5920 O   0  0  0  0  0  0  0  0  0  0  0  0
   41.4850   35.0840   38.4170 P   0  0  0  0  0  0  0  0  0  0  0  0
   40.7540   36.1760   39.4840 O   0  0  0  0  0  0  0  0  0  0  0  0
   39.9570   35.6960   39.8560 H   0  0  0  0  0  0  0  0  0  0  0  0
   42.5700   35.9350   37.4410 O   0  0  0  0  0  0  0  0  0  0  0  0
   42.7620   36.8300   37.8200 H   0  0  0  0  0  0  0  0  0  0  0  0
  1  4  1  0  0  0  0
  1 20  1  0  0  0  0
  2  1  1  0  0  0  0
  3  1  1  0  0  0  0
  4  9  1  0  0  0  0
  5  6  1  0  0  0  0
  5  4  2  0  0  0  0
  6  7  2  0  0  0  0
  7  8  1  0  0  0  0
  8 11  1  0  0  0  0
  9  8  2  0  0  0  0
 10  6  1  0  0  0  0
 12  5  1  0  0  0  0
 13 12  1  0  0  0  0
 14 15  1  0  0  0  0
 14 13  2  0  0  0  0
 16 17  1  0  0  0  0
 16 14  1  0  0  0  0
 17 19  2  0  0  0  0
 18 17  1  0  0  0  0
 19 13  1  0  0  0  0
 20 22  1  0  0  0  0
 20 21  1  0  0  0  0
 23 20  1  0  0  0  0
 23 24  2  0  0  0  0
 24 28  1  0  0  0  0
 25 24  1  0  0  0  0
 26 27  2  0  0  0  0
 26 25  1  0  0  0  0
 27 23  1  0  0  0  0
 29 26  1  0  0  0  0
 30 31  2  0  0  0  0
 31 29  1  0  0  0  0
 31 32  1  0  0  0  0
 32 33  1  0  0  0  0
 34 35  1  0  0  0  0
 34 31  1  0  0  0  0
M  END
>  <minimizedAffinity>
-4.82462406

>  <minimizedRMSD>
0.180007905

$$$$
