
     RDKit          3D

 32 34  0  0  0  0  0  0  0  0999 V2000
   46.8548   34.8697   42.7005 C   0  0  0  0  0  0  0  0  0  0  0  0
   48.0661   34.5467   42.0696 C   0  0  0  0  0  0  0  0  0  0  0  0
   48.7572   33.4677   42.6027 C   0  0  0  0  0  0  0  0  0  0  0  0
   48.2349   32.8059   43.6745 N   0  0  0  0  0  0  0  0  0  0  0  0
   47.0810   33.1504   44.2388 C   0  0  0  0  0  0  0  0  0  0  0  0
   46.3710   34.1959   43.7540 N   0  0  0  0  0  0  0  0  0  0  0  0
   45.9829   30.3797   43.6008 Cl  0  0  0  0  0  0  0  0  0  0  0  0
   46.0576   31.1364   45.1907 C   0  0  0  0  0  0  0  0  0  0  0  0
   46.5754   32.4031   45.3828 C   0  0  0  0  0  0  0  0  0  0  0  0
   46.6181   32.9642   46.6414 C   0  0  0  0  0  0  0  0  0  0  0  0
   46.1359   32.2497   47.7282 C   0  0  0  0  0  0  0  0  0  0  0  0
   45.6250   30.9819   47.4893 C   0  0  0  0  0  0  0  0  0  0  0  0
   45.0262   30.1121   48.8862 Cl  0  0  0  0  0  0  0  0  0  0  0  0
   45.5651   30.3850   46.2417 C   0  0  0  0  0  0  0  0  0  0  0  0
   48.4771   35.3442   40.9499 C   0  0  0  0  0  0  0  0  0  0  0  0
   48.1718   34.5773   39.6718 C   0  0  0  0  0  0  0  0  0  0  0  0
   46.2489   35.7039   42.3446 H   0  0  0  0  0  0  0  0  0  0  0  0
   49.6933   33.1938   42.1394 H   0  0  0  0  0  0  0  0  0  0  0  0
   47.0286   33.9563   46.7611 H   0  0  0  0  0  0  0  0  0  0  0  0
   46.1577   32.6667   48.7260 H   0  0  0  0  0  0  0  0  0  0  0  0
   45.1511   29.3896   46.1346 H   0  0  0  0  0  0  0  0  0  0  0  0
   49.5745   35.4970   40.9728 H   0  0  0  0  0  0  0  0  0  0  0  0
   47.9943   36.3255   40.9439 H   0  0  0  0  0  0  0  0  0  0  0  0
   47.0831   34.3575   39.5755 H   0  0  0  0  0  0  0  0  0  0  0  0
   48.7132   33.6341   39.7172 H   0  0  0  0  0  0  0  0  0  0  0  0
   48.6279   35.4724   38.5466 C   0  0  0  0  0  0  0  0  0  0  0  0
   47.6747   36.1809   37.7536 C   0  0  0  0  0  0  0  0  0  0  0  0
   46.6429   36.1542   37.8629 H   0  0  0  0  0  0  0  0  0  0  0  0
   48.7679   37.0694   36.5891 S   0  0  0  0  0  0  0  0  0  0  0  0
   50.3327   36.3213   37.3848 C   0  0  0  0  0  0  0  0  0  0  0  0
   51.4146   36.4703   37.1228 H   0  0  0  0  0  0  0  0  0  0  0  0
   49.8967   35.6599   38.2237 N   0  0  0  0  0  0  0  0  0  0  0  0
  1  6  2  0
  2  3  2  0
  2  1  1  0
  3  4  1  0
  4  5  2  0
  5  9  1  0
  6  5  1  0
  7  8  1  0
  8  9  2  0
  8 14  1  0
  9 10  1  0
 10 11  2  0
 12 11  1  0
 12 13  1  0
 14 12  2  0
 15  2  1  0
 16 15  1  0
  1 17  1  0
  3 18  1  0
 10 19  1  0
 11 20  1  0
 14 21  1  0
 15 22  1  0
 15 23  1  0
 16 24  1  0
 16 25  1  0
 26 27  2  0
 27 28  1  0
 27 29  1  0
 29 30  1  0
 30 31  1  0
 30 32  2  0
 32 26  1  0
 16 26  1  0
M  ISO  8  17  14  18  14  19  14  20  14  21  14  22   8  23   8  24   8
M  ISO  3  25   8  28  15  31  16
M  END
>  <DihAtoms>  (1) 
14,15,25,26

>  <DihDeg>  (1) 
-90.00328053444927

$$$$
