
 OpenBabel03252507413D

 23 24  0  0  0  0  0  0  0  0999 V2000
   37.1470   27.2560   42.7910 C   0  0  0  0  0  0  0  0  0  0  0  0
   36.3020   26.7480   43.3100 H   0  0  0  0  0  0  0  0  0  0  0  0
   36.8270   27.2920   41.7100 H   0  0  0  0  0  0  0  0  0  0  0  0
   38.3860   26.4410   42.9030 C   0  0  0  0  0  0  0  0  0  0  0  0
   38.3880   25.2410   42.1700 C   0  0  0  0  0  0  0  0  0  0  0  0
   39.5110   24.4300   42.2280 C   0  0  0  0  0  0  0  0  0  0  0  0
   40.5680   24.8320   42.9950 N   0  0  0  0  0  0  0  0  0  0  0  0
   40.5260   25.9860   43.6800 C   0  0  0  0  0  0  0  0  0  0  0  0
   39.4570   26.7760   43.6370 N   0  0  0  0  0  0  0  0  0  0  0  0
   39.4730   23.5150   41.6490 H   0  0  0  0  0  0  0  0  0  0  0  0
   41.4170   26.2180   44.2610 H   0  0  0  0  0  0  0  0  0  0  0  0
   36.9710   24.7630   41.1800 S   0  0  0  0  0  0  0  0  0  0  0  0
   37.4620   24.2430   39.9780 H   0  0  0  0  0  0  0  0  0  0  0  0
   37.3160   28.6480   43.3030 C   0  0  0  0  0  0  0  0  0  0  0  0
   38.2070   28.6670   43.9860 H   0  0  0  0  0  0  0  0  0  0  0  0
   36.4460   28.8750   43.9740 H   0  0  0  0  0  0  0  0  0  0  0  0
   37.4490   29.6790   42.2400 C   0  0  0  0  0  0  0  0  0  0  0  0
   38.7470   30.2130   41.9160 C   0  0  0  0  0  0  0  0  0  0  0  0
   39.6800   29.9280   42.3890 H   0  0  0  0  0  0  0  0  0  0  0  0
   38.3610   31.4230   40.5710 S   0  0  0  0  0  0  0  0  0  0  0  0
   36.5210   30.9860   40.6920 C   0  0  0  0  0  0  0  0  0  0  0  0
   35.5380   31.3480   40.1290 H   0  0  0  0  0  0  0  0  0  0  0  0
   36.4730   30.2000   41.5120 N   0  0  0  0  0  0  0  0  0  0  0  0
  1  4  1  0  0  0  0
  1 14  1  0  0  0  0
  1  2  1  0  0  0  0
  3  1  1  0  0  0  0
  4  9  1  0  0  0  0
  5  6  1  0  0  0  0
  5  4  2  0  0  0  0
  6  7  2  0  0  0  0
  7  8  1  0  0  0  0
  8 11  1  0  0  0  0
  9  8  2  0  0  0  0
 10  6  1  0  0  0  0
 12  5  1  0  0  0  0
 13 12  1  0  0  0  0
 14 16  1  0  0  0  0
 14 15  1  0  0  0  0
 17 14  1  0  0  0  0
 18 17  2  0  0  0  0
 18 19  1  0  0  0  0
 20 21  1  0  0  0  0
 20 18  1  0  0  0  0
 21 23  2  0  0  0  0
 22 21  1  0  0  0  0
 23 17  1  0  0  0  0
M  END
>  <minimizedAffinity>
-3.96457243

$$$$

 OpenBabel03252507413D

 23 24  0  0  0  0  0  0  0  0999 V2000
   38.8470   28.0270   43.2960 C   0  0  0  0  0  0  0  0  0  0  0  0
   39.6750   28.4350   42.6710 H   0  0  0  0  0  0  0  0  0  0  0  0
   39.2680   28.0180   44.3430 H   0  0  0  0  0  0  0  0  0  0  0  0
   38.5320   26.6310   42.8880 C   0  0  0  0  0  0  0  0  0  0  0  0
   39.5810   25.7070   43.0380 C   0  0  0  0  0  0  0  0  0  0  0  0
   39.3590   24.3870   42.6760 C   0  0  0  0  0  0  0  0  0  0  0  0
   38.1290   24.0410   42.1900 N   0  0  0  0  0  0  0  0  0  0  0  0
   37.1540   24.9550   42.0640 C   0  0  0  0  0  0  0  0  0  0  0  0
   37.3490   26.2250   42.4050 N   0  0  0  0  0  0  0  0  0  0  0  0
   40.1910   23.7070   42.8070 H   0  0  0  0  0  0  0  0  0  0  0  0
   36.2110   24.5810   41.6670 H   0  0  0  0  0  0  0  0  0  0  0  0
   41.1760   26.2180   43.6800 S   0  0  0  0  0  0  0  0  0  0  0  0
   41.6070   25.2200   44.5600 H   0  0  0  0  0  0  0  0  0  0  0  0
   37.6590   28.9310   43.2500 C   0  0  0  0  0  0  0  0  0  0  0  0
   37.5880   29.4700   44.2310 H   0  0  0  0  0  0  0  0  0  0  0  0
   36.7400   28.2880   43.2180 H   0  0  0  0  0  0  0  0  0  0  0  0
   37.6700   29.8970   42.1200 C   0  0  0  0  0  0  0  0  0  0  0  0
   38.9170   30.4510   41.6600 C   0  0  0  0  0  0  0  0  0  0  0  0
   39.8950   30.2250   42.0710 H   0  0  0  0  0  0  0  0  0  0  0  0
   38.3800   31.5620   40.2810 S   0  0  0  0  0  0  0  0  0  0  0  0
   36.5730   31.0760   40.5780 C   0  0  0  0  0  0  0  0  0  0  0  0
   35.5360   31.3710   40.0780 H   0  0  0  0  0  0  0  0  0  0  0  0
   36.6200   30.3410   41.4450 N   0  0  0  0  0  0  0  0  0  0  0  0
  1  3  1  0  0  0  0
  2  1  1  0  0  0  0
  4  5  1  0  0  0  0
  4  1  1  0  0  0  0
  5 12  1  0  0  0  0
  6 10  1  0  0  0  0
  6  5  2  0  0  0  0
  7  6  1  0  0  0  0
  8  7  2  0  0  0  0
  8  9  1  0  0  0  0
  9  4  2  0  0  0  0
 11  8  1  0  0  0  0
 12 13  1  0  0  0  0
 14  1  1  0  0  0  0
 14 15  1  0  0  0  0
 16 14  1  0  0  0  0
 17 14  1  0  0  0  0
 18 19  1  0  0  0  0
 18 17  2  0  0  0  0
 20 21  1  0  0  0  0
 20 18  1  0  0  0  0
 21 23  2  0  0  0  0
 22 21  1  0  0  0  0
 23 17  1  0  0  0  0
M  END
>  <minimizedAffinity>
-3.94483042

$$$$

 OpenBabel03252507413D

 23 24  0  0  0  0  0  0  0  0999 V2000
   36.7260   31.1590   39.7020 C   0  0  0  0  0  0  0  0  0  0  0  0
   37.0260   30.2530   39.1260 H   0  0  0  0  0  0  0  0  0  0  0  0
   35.8910   31.6120   39.0930 H   0  0  0  0  0  0  0  0  0  0  0  0
   37.8560   32.1240   39.7690 C   0  0  0  0  0  0  0  0  0  0  0  0
   39.0790   31.6600   39.2530 C   0  0  0  0  0  0  0  0  0  0  0  0
   40.1760   32.5060   39.2840 C   0  0  0  0  0  0  0  0  0  0  0  0
   40.0220   33.7570   39.8140 N   0  0  0  0  0  0  0  0  0  0  0  0
   38.8360   34.1610   40.2960 C   0  0  0  0  0  0  0  0  0  0  0  0
   37.7730   33.3630   40.2750 N   0  0  0  0  0  0  0  0  0  0  0  0
   41.0990   32.1120   38.8770 H   0  0  0  0  0  0  0  0  0  0  0  0
   38.8150   35.1730   40.6970 H   0  0  0  0  0  0  0  0  0  0  0  0
   39.2230   30.0070   38.5700 S   0  0  0  0  0  0  0  0  0  0  0  0
   40.0040   30.1050   37.4140 H   0  0  0  0  0  0  0  0  0  0  0  0
   36.2040   30.7770   41.0470 C   0  0  0  0  0  0  0  0  0  0  0  0
   35.1050   30.5700   40.9540 H   0  0  0  0  0  0  0  0  0  0  0  0
   36.2620   31.6820   41.7070 H   0  0  0  0  0  0  0  0  0  0  0  0
   36.9030   29.6210   41.6690 C   0  0  0  0  0  0  0  0  0  0  0  0
   36.4180   28.2840   41.4470 C   0  0  0  0  0  0  0  0  0  0  0  0
   35.5550   28.0200   40.8440 H   0  0  0  0  0  0  0  0  0  0  0  0
   37.6100   27.2550   42.4170 S   0  0  0  0  0  0  0  0  0  0  0  0
   38.5450   28.8170   42.9440 C   0  0  0  0  0  0  0  0  0  0  0  0
   39.5000   29.0300   43.6190 H   0  0  0  0  0  0  0  0  0  0  0  0
   37.9750   29.6650   42.4460 N   0  0  0  0  0  0  0  0  0  0  0  0
  1  4  1  0  0  0  0
  1 14  1  0  0  0  0
  2  1  1  0  0  0  0
  3  1  1  0  0  0  0
  4  9  1  0  0  0  0
  5  6  1  0  0  0  0
  5  4  2  0  0  0  0
  6  7  2  0  0  0  0
  7  8  1  0  0  0  0
  8 11  1  0  0  0  0
  9  8  2  0  0  0  0
 10  6  1  0  0  0  0
 12  5  1  0  0  0  0
 13 12  1  0  0  0  0
 14 17  1  0  0  0  0
 14 16  1  0  0  0  0
 15 14  1  0  0  0  0
 17 23  1  0  0  0  0
 18 17  2  0  0  0  0
 18 20  1  0  0  0  0
 19 18  1  0  0  0  0
 20 21  1  0  0  0  0
 21 22  1  0  0  0  0
 23 21  2  0  0  0  0
M  END
>  <minimizedAffinity>
-3.82350636

$$$$

 OpenBabel03252507413D

 23 24  0  0  0  0  0  0  0  0999 V2000
   36.5830   27.8520   42.6300 C   0  0  0  0  0  0  0  0  0  0  0  0
   35.8220   27.7200   41.8270 H   0  0  0  0  0  0  0  0  0  0  0  0
   35.9780   28.0970   43.5490 H   0  0  0  0  0  0  0  0  0  0  0  0
   37.4710   29.0030   42.3140 C   0  0  0  0  0  0  0  0  0  0  0  0
   37.0560   29.8090   41.2400 C   0  0  0  0  0  0  0  0  0  0  0  0
   37.8360   30.9010   40.8880 C   0  0  0  0  0  0  0  0  0  0  0  0
   38.9760   31.1450   41.6020 N   0  0  0  0  0  0  0  0  0  0  0  0
   39.3360   30.3510   42.6210 C   0  0  0  0  0  0  0  0  0  0  0  0
   38.6010   29.3000   42.9720 N   0  0  0  0  0  0  0  0  0  0  0  0
   37.4820   31.4960   40.0560 H   0  0  0  0  0  0  0  0  0  0  0  0
   40.2600   30.6290   43.1270 H   0  0  0  0  0  0  0  0  0  0  0  0
   35.5510   29.4390   40.3370 S   0  0  0  0  0  0  0  0  0  0  0  0
   34.9010   30.6550   40.0990 H   0  0  0  0  0  0  0  0  0  0  0  0
   37.3340   26.5820   42.8570 C   0  0  0  0  0  0  0  0  0  0  0  0
   36.9820   26.1310   43.8230 H   0  0  0  0  0  0  0  0  0  0  0  0
   38.4070   26.8470   43.0480 H   0  0  0  0  0  0  0  0  0  0  0  0
   37.2200   25.5970   41.7480 C   0  0  0  0  0  0  0  0  0  0  0  0
   37.6080   24.2270   41.9620 C   0  0  0  0  0  0  0  0  0  0  0  0
   37.9920   23.8200   42.8910 H   0  0  0  0  0  0  0  0  0  0  0  0
   37.2790   23.4530   40.3140 S   0  0  0  0  0  0  0  0  0  0  0  0
   36.6780   25.1180   39.6400 C   0  0  0  0  0  0  0  0  0  0  0  0
   36.2630   25.4940   38.5910 H   0  0  0  0  0  0  0  0  0  0  0  0
   36.7840   25.8310   40.5200 N   0  0  0  0  0  0  0  0  0  0  0  0
  1 14  1  0  0  0  0
  1  3  1  0  0  0  0
  2  1  1  0  0  0  0
  4  1  1  0  0  0  0
  4  9  1  0  0  0  0
  5  4  2  0  0  0  0
  6  5  1  0  0  0  0
  6  7  2  0  0  0  0
  7  8  1  0  0  0  0
  8  9  2  0  0  0  0
  8 11  1  0  0  0  0
 10  6  1  0  0  0  0
 12  5  1  0  0  0  0
 13 12  1  0  0  0  0
 14 16  1  0  0  0  0
 14 15  1  0  0  0  0
 17 18  2  0  0  0  0
 17 14  1  0  0  0  0
 18 19  1  0  0  0  0
 20 18  1  0  0  0  0
 21 20  1  0  0  0  0
 21 23  2  0  0  0  0
 22 21  1  0  0  0  0
 23 17  1  0  0  0  0
M  END
>  <minimizedAffinity>
-3.74524283

$$$$

 OpenBabel03252507413D

 23 24  0  0  0  0  0  0  0  0999 V2000
   36.1220   27.9900   40.2010 C   0  0  0  0  0  0  0  0  0  0  0  0
   35.4100   27.1370   40.1340 H   0  0  0  0  0  0  0  0  0  0  0  0
   36.7560   27.8960   39.2730 H   0  0  0  0  0  0  0  0  0  0  0  0
   36.9920   27.8420   41.3990 C   0  0  0  0  0  0  0  0  0  0  0  0
   38.3670   27.7160   41.1350 C   0  0  0  0  0  0  0  0  0  0  0  0
   39.2390   27.5730   42.2050 C   0  0  0  0  0  0  0  0  0  0  0  0
   38.7220   27.5630   43.4700 N   0  0  0  0  0  0  0  0  0  0  0  0
   37.4020   27.6870   43.6790 C   0  0  0  0  0  0  0  0  0  0  0  0
   36.5520   27.8240   42.6660 N   0  0  0  0  0  0  0  0  0  0  0  0
   40.2890   27.4790   41.9600 H   0  0  0  0  0  0  0  0  0  0  0  0
   37.0900   27.6670   44.7220 H   0  0  0  0  0  0  0  0  0  0  0  0
   38.9890   27.7350   39.4530 S   0  0  0  0  0  0  0  0  0  0  0  0
   40.1550   28.5070   39.4510 H   0  0  0  0  0  0  0  0  0  0  0  0
   35.3900   29.2910   40.1700 C   0  0  0  0  0  0  0  0  0  0  0  0
   34.9180   29.4550   41.1750 H   0  0  0  0  0  0  0  0  0  0  0  0
   34.5200   29.1780   39.4700 H   0  0  0  0  0  0  0  0  0  0  0  0
   36.2290   30.4570   39.7880 C   0  0  0  0  0  0  0  0  0  0  0  0
   36.6130   31.4230   40.7860 C   0  0  0  0  0  0  0  0  0  0  0  0
   36.3400   31.3850   41.8350 H   0  0  0  0  0  0  0  0  0  0  0  0
   37.6190   32.6310   39.8110 S   0  0  0  0  0  0  0  0  0  0  0  0
   37.3380   31.6130   38.2380 C   0  0  0  0  0  0  0  0  0  0  0  0
   37.6750   31.7190   37.1030 H   0  0  0  0  0  0  0  0  0  0  0  0
   36.6960   30.7390   38.5810 N   0  0  0  0  0  0  0  0  0  0  0  0
  1  4  1  0  0  0  0
  2  1  1  0  0  0  0
  3  1  1  0  0  0  0
  4  9  1  0  0  0  0
  5  4  2  0  0  0  0
  5  6  1  0  0  0  0
  6  7  2  0  0  0  0
  7  8  1  0  0  0  0
  8 11  1  0  0  0  0
  9  8  2  0  0  0  0
 10  6  1  0  0  0  0
 12  5  1  0  0  0  0
 13 12  1  0  0  0  0
 14  1  1  0  0  0  0
 14 15  1  0  0  0  0
 16 14  1  0  0  0  0
 17 14  1  0  0  0  0
 17 18  2  0  0  0  0
 18 19  1  0  0  0  0
 20 18  1  0  0  0  0
 21 23  2  0  0  0  0
 21 20  1  0  0  0  0
 22 21  1  0  0  0  0
 23 17  1  0  0  0  0
M  END
>  <minimizedAffinity>
-3.72447348

$$$$

 OpenBabel03252507413D

 23 24  0  0  0  0  0  0  0  0999 V2000
   39.8610   30.6770   41.1340 C   0  0  0  0  0  0  0  0  0  0  0  0
   40.9190   30.9960   40.9960 H   0  0  0  0  0  0  0  0  0  0  0  0
   39.7930   29.6930   40.5870 H   0  0  0  0  0  0  0  0  0  0  0  0
   38.9400   31.6530   40.4920 C   0  0  0  0  0  0  0  0  0  0  0  0
   38.1090   31.1280   39.4870 C   0  0  0  0  0  0  0  0  0  0  0  0
   37.2240   31.9810   38.8440 C   0  0  0  0  0  0  0  0  0  0  0  0
   37.1990   33.2960   39.2160 N   0  0  0  0  0  0  0  0  0  0  0  0
   38.0090   33.7570   40.1810 C   0  0  0  0  0  0  0  0  0  0  0  0
   38.8640   32.9540   40.8080 N   0  0  0  0  0  0  0  0  0  0  0  0
   36.6020   31.5390   38.0760 H   0  0  0  0  0  0  0  0  0  0  0  0
   37.9140   34.8190   40.4050 H   0  0  0  0  0  0  0  0  0  0  0  0
   38.1870   29.3930   39.0390 S   0  0  0  0  0  0  0  0  0  0  0  0
   36.8720   28.9530   38.8570 H   0  0  0  0  0  0  0  0  0  0  0  0
   39.5630   30.4590   42.5810 C   0  0  0  0  0  0  0  0  0  0  0  0
   38.9980   31.3510   42.9630 H   0  0  0  0  0  0  0  0  0  0  0  0
   40.5360   30.4850   43.1390 H   0  0  0  0  0  0  0  0  0  0  0  0
   38.8190   29.2050   42.8700 C   0  0  0  0  0  0  0  0  0  0  0  0
   37.3840   29.1750   42.7450 C   0  0  0  0  0  0  0  0  0  0  0  0
   36.7620   30.0120   42.4470 H   0  0  0  0  0  0  0  0  0  0  0  0
   36.9750   27.4310   43.2060 S   0  0  0  0  0  0  0  0  0  0  0  0
   38.8130   27.0620   43.4830 C   0  0  0  0  0  0  0  0  0  0  0  0
   39.4300   26.1020   43.8150 H   0  0  0  0  0  0  0  0  0  0  0  0
   39.3340   28.0450   43.2500 N   0  0  0  0  0  0  0  0  0  0  0  0
  1 14  1  0  0  0  0
  2  1  1  0  0  0  0
  3  1  1  0  0  0  0
  4  9  1  0  0  0  0
  4  1  1  0  0  0  0
  5  4  2  0  0  0  0
  6  7  2  0  0  0  0
  6  5  1  0  0  0  0
  7  8  1  0  0  0  0
  8 11  1  0  0  0  0
  8  9  2  0  0  0  0
 10  6  1  0  0  0  0
 12  5  1  0  0  0  0
 13 12  1  0  0  0  0
 14 17  1  0  0  0  0
 14 15  1  0  0  0  0
 14 16  1  0  0  0  0
 17 23  1  0  0  0  0
 18 17  2  0  0  0  0
 18 20  1  0  0  0  0
 19 18  1  0  0  0  0
 20 21  1  0  0  0  0
 21 22  1  0  0  0  0
 23 21  2  0  0  0  0
M  END
>  <minimizedAffinity>
-3.67745233

$$$$

 OpenBabel03252507413D

 23 24  0  0  0  0  0  0  0  0999 V2000
   36.5790   27.7760   42.6750 C   0  0  0  0  0  0  0  0  0  0  0  0
   36.7260   26.7160   42.3640 H   0  0  0  0  0  0  0  0  0  0  0  0
   35.5650   27.7810   43.1710 H   0  0  0  0  0  0  0  0  0  0  0  0
   36.5390   28.6630   41.4820 C   0  0  0  0  0  0  0  0  0  0  0  0
   36.7050   28.0190   40.2440 C   0  0  0  0  0  0  0  0  0  0  0  0
   36.6800   28.7840   39.0880 C   0  0  0  0  0  0  0  0  0  0  0  0
   36.4940   30.1340   39.2030 N   0  0  0  0  0  0  0  0  0  0  0  0
   36.3390   30.7100   40.4050 C   0  0  0  0  0  0  0  0  0  0  0  0
   36.3610   29.9920   41.5240 N   0  0  0  0  0  0  0  0  0  0  0  0
   36.8110   28.2510   38.1550 H   0  0  0  0  0  0  0  0  0  0  0  0
   36.1970   31.7900   40.3910 H   0  0  0  0  0  0  0  0  0  0  0  0
   36.9470   26.2440   40.1540 S   0  0  0  0  0  0  0  0  0  0  0  0
   36.1840   25.7760   39.0780 H   0  0  0  0  0  0  0  0  0  0  0  0
   37.6170   28.1800   43.6690 C   0  0  0  0  0  0  0  0  0  0  0  0
   37.2530   27.9000   44.6940 H   0  0  0  0  0  0  0  0  0  0  0  0
   37.6580   29.3010   43.6850 H   0  0  0  0  0  0  0  0  0  0  0  0
   38.9630   27.6040   43.4160 C   0  0  0  0  0  0  0  0  0  0  0  0
   39.9940   28.4170   42.8250 C   0  0  0  0  0  0  0  0  0  0  0  0
   39.8840   29.4560   42.5320 H   0  0  0  0  0  0  0  0  0  0  0  0
   41.4260   27.2500   42.7310 S   0  0  0  0  0  0  0  0  0  0  0  0
   40.3730   25.8790   43.5070 C   0  0  0  0  0  0  0  0  0  0  0  0
   40.5670   24.7450   43.8040 H   0  0  0  0  0  0  0  0  0  0  0  0
   39.3610   26.3680   43.6790 N   0  0  0  0  0  0  0  0  0  0  0  0
  1  3  1  0  0  0  0
  1 14  1  0  0  0  0
  2  1  1  0  0  0  0
  4  9  1  0  0  0  0
  4  1  1  0  0  0  0
  5  4  2  0  0  0  0
  6  7  2  0  0  0  0
  6  5  1  0  0  0  0
  7  8  1  0  0  0  0
  8  9  2  0  0  0  0
 10  6  1  0  0  0  0
 11  8  1  0  0  0  0
 12  5  1  0  0  0  0
 13 12  1  0  0  0  0
 14 16  1  0  0  0  0
 14 15  1  0  0  0  0
 17 14  1  0  0  0  0
 17 23  1  0  0  0  0
 18 17  2  0  0  0  0
 19 18  1  0  0  0  0
 20 18  1  0  0  0  0
 20 21  1  0  0  0  0
 21 23  2  0  0  0  0
 21 22  1  0  0  0  0
M  END
>  <minimizedAffinity>
-3.65656137

$$$$

 OpenBabel03252507413D

 23 24  0  0  0  0  0  0  0  0999 V2000
   36.6320   27.8520   42.2760 C   0  0  0  0  0  0  0  0  0  0  0  0
   37.2280   28.7150   42.6530 H   0  0  0  0  0  0  0  0  0  0  0  0
   35.7850   27.7540   43.0150 H   0  0  0  0  0  0  0  0  0  0  0  0
   37.4490   26.6090   42.3080 C   0  0  0  0  0  0  0  0  0  0  0  0
   38.8200   26.7930   42.5580 C   0  0  0  0  0  0  0  0  0  0  0  0
   39.6430   25.6770   42.6020 C   0  0  0  0  0  0  0  0  0  0  0  0
   39.0840   24.4460   42.3990 N   0  0  0  0  0  0  0  0  0  0  0  0
   37.7700   24.3140   42.1630 C   0  0  0  0  0  0  0  0  0  0  0  0
   36.9660   25.3720   42.1170 N   0  0  0  0  0  0  0  0  0  0  0  0
   40.6910   25.8610   42.7970 H   0  0  0  0  0  0  0  0  0  0  0  0
   37.4210   23.2930   42.0140 H   0  0  0  0  0  0  0  0  0  0  0  0
   39.4980   28.4330   42.8150 S   0  0  0  0  0  0  0  0  0  0  0  0
   40.4170   28.3410   43.8660 H   0  0  0  0  0  0  0  0  0  0  0  0
   36.0750   28.1500   40.9230 C   0  0  0  0  0  0  0  0  0  0  0  0
   34.9560   28.0760   40.9780 H   0  0  0  0  0  0  0  0  0  0  0  0
   36.3750   27.3140   40.2370 H   0  0  0  0  0  0  0  0  0  0  0  0
   36.4870   29.4660   40.3680 C   0  0  0  0  0  0  0  0  0  0  0  0
   36.6150   30.6050   41.2390 C   0  0  0  0  0  0  0  0  0  0  0  0
   36.4330   30.6020   42.3090 H   0  0  0  0  0  0  0  0  0  0  0  0
   37.1340   31.9470   40.0760 S   0  0  0  0  0  0  0  0  0  0  0  0
   37.0840   30.7250   38.6290 C   0  0  0  0  0  0  0  0  0  0  0  0
   37.3000   30.8040   37.4620 H   0  0  0  0  0  0  0  0  0  0  0  0
   36.7670   29.7420   39.1030 N   0  0  0  0  0  0  0  0  0  0  0  0
  1  4  1  0  0  0  0
  1  2  1  0  0  0  0
  1  3  1  0  0  0  0
  4  5  1  0  0  0  0
  5  6  2  0  0  0  0
  5 12  1  0  0  0  0
  6 10  1  0  0  0  0
  7  6  1  0  0  0  0
  8  7  2  0  0  0  0
  9  8  1  0  0  0  0
  9  4  2  0  0  0  0
 11  8  1  0  0  0  0
 12 13  1  0  0  0  0
 14 15  1  0  0  0  0
 14  1  1  0  0  0  0
 16 14  1  0  0  0  0
 17 14  1  0  0  0  0
 17 18  2  0  0  0  0
 18 19  1  0  0  0  0
 20 18  1  0  0  0  0
 21 23  2  0  0  0  0
 21 20  1  0  0  0  0
 22 21  1  0  0  0  0
 23 17  1  0  0  0  0
M  END
>  <minimizedAffinity>
-3.62235022

$$$$

 OpenBabel03252507413D

 23 24  0  0  0  0  0  0  0  0999 V2000
   36.0190   29.6980   39.3090 C   0  0  0  0  0  0  0  0  0  0  0  0
   36.4560   28.8250   38.7740 H   0  0  0  0  0  0  0  0  0  0  0  0
   35.1380   30.0020   38.6730 H   0  0  0  0  0  0  0  0  0  0  0  0
   36.9970   30.8190   39.3500 C   0  0  0  0  0  0  0  0  0  0  0  0
   38.1890   30.6070   38.6360 C   0  0  0  0  0  0  0  0  0  0  0  0
   39.1460   31.6100   38.6300 C   0  0  0  0  0  0  0  0  0  0  0  0
   38.8890   32.7620   39.3190 N   0  0  0  0  0  0  0  0  0  0  0  0
   37.7370   32.9250   39.9880 C   0  0  0  0  0  0  0  0  0  0  0  0
   36.8080   31.9740   40.0060 N   0  0  0  0  0  0  0  0  0  0  0  0
   40.0500   31.4080   38.0680 H   0  0  0  0  0  0  0  0  0  0  0  0
   37.6270   33.8760   40.5060 H   0  0  0  0  0  0  0  0  0  0  0  0
   38.4720   29.0740   37.7500 S   0  0  0  0  0  0  0  0  0  0  0  0
   39.0610   29.4060   36.5250 H   0  0  0  0  0  0  0  0  0  0  0  0
   35.5360   29.2970   40.6640 C   0  0  0  0  0  0  0  0  0  0  0  0
   34.6530   28.6160   40.5350 H   0  0  0  0  0  0  0  0  0  0  0  0
   35.1130   30.2090   41.1620 H   0  0  0  0  0  0  0  0  0  0  0  0
   36.5710   28.6570   41.5180 C   0  0  0  0  0  0  0  0  0  0  0  0
   36.9650   27.2950   41.2700 C   0  0  0  0  0  0  0  0  0  0  0  0
   36.5670   26.6570   40.4880 H   0  0  0  0  0  0  0  0  0  0  0  0
   38.2400   26.9990   42.5780 S   0  0  0  0  0  0  0  0  0  0  0  0
   38.0080   28.7680   43.2180 C   0  0  0  0  0  0  0  0  0  0  0  0
   38.4900   29.4070   44.0960 H   0  0  0  0  0  0  0  0  0  0  0  0
   37.2130   29.2100   42.5360 N   0  0  0  0  0  0  0  0  0  0  0  0
  1  4  1  0  0  0  0
  1 14  1  0  0  0  0
  2  1  1  0  0  0  0
  3  1  1  0  0  0  0
  4  9  1  0  0  0  0
  5  4  2  0  0  0  0
  6  5  1  0  0  0  0
  6  7  2  0  0  0  0
  7  8  1  0  0  0  0
  8  9  2  0  0  0  0
  8 11  1  0  0  0  0
 10  6  1  0  0  0  0
 12  5  1  0  0  0  0
 13 12  1  0  0  0  0
 14 16  1  0  0  0  0
 14 17  1  0  0  0  0
 15 14  1  0  0  0  0
 17 23  1  0  0  0  0
 18 17  2  0  0  0  0
 18 20  1  0  0  0  0
 19 18  1  0  0  0  0
 20 21  1  0  0  0  0
 21 22  1  0  0  0  0
 23 21  2  0  0  0  0
M  END
>  <minimizedAffinity>
-3.58827662

$$$$
