
 OpenBabel03252503273D

 23 24  0  0  0  0  0  0  0  0999 V2000
   45.2450   34.7770   42.9590 C   0  0  0  0  0  0  0  0  0  0  0  0
   46.2660   35.2190   42.0870 C   0  0  0  0  0  0  0  0  0  0  0  0
   47.5630   34.7760   42.4050 C   0  0  0  0  0  0  0  0  0  0  0  0
   47.7350   33.9900   43.4820 N   0  0  0  0  0  0  0  0  0  0  0  0
   46.7150   33.5980   44.2810 C   0  0  0  0  0  0  0  0  0  0  0  0
   45.4640   33.9980   44.0130 N   0  0  0  0  0  0  0  0  0  0  0  0
   43.3210   34.4870   41.6270 C   0  0  0  0  0  0  0  0  0  0  0  0
   44.0350   33.6290   41.0370 O   0  0  0  0  0  0  0  0  0  0  0  0
   43.8850   35.1680   42.7280 N   0  0  0  0  0  0  0  0  0  0  0  0
   45.9390   35.8450   41.2770 H   0  0  0  0  0  0  0  0  0  0  0  0
   46.9240   32.9580   45.1390 H   0  0  0  0  0  0  0  0  0  0  0  0
   43.2820   35.8490   43.2270 H   0  0  0  0  0  0  0  0  0  0  0  0
   41.9610   34.7510   41.1690 C   0  0  0  0  0  0  0  0  0  0  0  0
   41.1790   33.6470   40.7930 C   0  0  0  0  0  0  0  0  0  0  0  0
   41.3400   32.5680   40.7520 H   0  0  0  0  0  0  0  0  0  0  0  0
   39.5890   34.4010   40.2980 S   0  0  0  0  0  0  0  0  0  0  0  0
   40.2680   36.1310   40.6940 C   0  0  0  0  0  0  0  0  0  0  0  0
   39.8870   37.2470   40.6600 H   0  0  0  0  0  0  0  0  0  0  0  0
   41.3070   35.8850   41.0400 N   0  0  0  0  0  0  0  0  0  0  0  0
   48.6080   35.2470   41.4880 C   0  0  0  0  0  0  0  0  0  0  0  0
   49.7490   34.4690   41.6870 F   0  0  0  0  0  0  0  0  0  0  0  0
   48.9710   36.5190   41.8890 F   0  0  0  0  0  0  0  0  0  0  0  0
   48.2640   35.1600   40.1720 F   0  0  0  0  0  0  0  0  0  0  0  0
  1  6  1  0  0  0  0
  2  3  1  0  0  0  0
  2  1  2  0  0  0  0
  3  4  2  0  0  0  0
  4  5  1  0  0  0  0
  5 11  1  0  0  0  0
  6  5  2  0  0  0  0
  7  9  1  0  0  0  0
  8  7  2  0  0  0  0
  9  1  1  0  0  0  0
  9 12  1  0  0  0  0
 10  2  1  0  0  0  0
 13  7  1  0  0  0  0
 14 13  2  0  0  0  0
 15 14  1  0  0  0  0
 16 17  1  0  0  0  0
 16 14  1  0  0  0  0
 17 19  2  0  0  0  0
 18 17  1  0  0  0  0
 19 13  1  0  0  0  0
 20 21  1  0  0  0  0
 20 22  1  0  0  0  0
 20  3  1  0  0  0  0
 23 20  1  0  0  0  0
M  END
>  <minimizedAffinity>
-5.78117085

>  <minimizedRMSD>
0.947003722

$$$$
