
 OpenBabel03252505513D

 23 24  0  0  0  0  0  0  0  0999 V2000
   44.7200   35.3900   45.0330 C   0  0  0  0  0  0  0  0  0  0  0  0
   45.5990   34.9340   44.0530 C   0  0  0  0  0  0  0  0  0  0  0  0
   46.3440   33.7920   44.3300 C   0  0  0  0  0  0  0  0  0  0  0  0
   46.1860   33.1820   45.5180 N   0  0  0  0  0  0  0  0  0  0  0  0
   45.3360   33.6380   46.4430 C   0  0  0  0  0  0  0  0  0  0  0  0
   44.5880   34.7430   46.2250 N   0  0  0  0  0  0  0  0  0  0  0  0
   44.1080   36.2710   44.8900 H   0  0  0  0  0  0  0  0  0  0  0  0
   47.0160   33.4680   43.5450 H   0  0  0  0  0  0  0  0  0  0  0  0
   45.6610   35.7260   42.7740 C   0  0  0  0  0  0  0  0  0  0  0  0
   45.2370   36.9840   43.0850 F   0  0  0  0  0  0  0  0  0  0  0  0
   44.7580   35.1170   41.9050 F   0  0  0  0  0  0  0  0  0  0  0  0
   46.9440   35.6630   42.3020 F   0  0  0  0  0  0  0  0  0  0  0  0
   45.1530   33.0340   47.6690 O   0  0  0  0  0  0  0  0  0  0  0  0
   46.1780   32.3560   48.3500 C   0  0  0  0  0  0  0  0  0  0  0  0
   47.1630   32.8480   48.2200 H   0  0  0  0  0  0  0  0  0  0  0  0
   45.9770   32.4020   49.4390 H   0  0  0  0  0  0  0  0  0  0  0  0
   46.2340   30.8910   47.9950 C   0  0  0  0  0  0  0  0  0  0  0  0
   47.4060   30.2660   47.5070 C   0  0  0  0  0  0  0  0  0  0  0  0
   48.3750   30.6670   47.3150 H   0  0  0  0  0  0  0  0  0  0  0  0
   46.8860   28.5460   47.2640 S   0  0  0  0  0  0  0  0  0  0  0  0
   45.1320   28.9540   47.8720 C   0  0  0  0  0  0  0  0  0  0  0  0
   44.0930   28.3590   48.0400 H   0  0  0  0  0  0  0  0  0  0  0  0
   45.2200   30.0500   48.0990 N   0  0  0  0  0  0  0  0  0  0  0  0
  1  6  1  0  0  0  0
  2  3  1  0  0  0  0
  2  1  2  0  0  0  0
  3  4  2  0  0  0  0
  4  5  1  0  0  0  0
  5 13  1  0  0  0  0
  6  5  2  0  0  0  0
  7  1  1  0  0  0  0
  8  3  1  0  0  0  0
  9 10  1  0  0  0  0
  9  2  1  0  0  0  0
 11  9  1  0  0  0  0
 12  9  1  0  0  0  0
 13 14  1  0  0  0  0
 14 16  1  0  0  0  0
 15 14  1  0  0  0  0
 17 23  1  0  0  0  0
 17 14  1  0  0  0  0
 18 17  2  0  0  0  0
 19 18  1  0  0  0  0
 20 18  1  0  0  0  0
 20 21  1  0  0  0  0
 21 22  1  0  0  0  0
 21 23  2  0  0  0  0
M  END
>  <minimizedAffinity>
-4.6412344

>  <minimizedRMSD>
0.678232849

$$$$
