
 OpenBabel03252505513D

 23 24  0  0  0  0  0  0  0  0999 V2000
   44.7190   35.3940   45.0320 C   0  0  0  0  0  0  0  0  0  0  0  0
   45.5980   34.9370   44.0520 C   0  0  0  0  0  0  0  0  0  0  0  0
   46.3410   33.7940   44.3290 C   0  0  0  0  0  0  0  0  0  0  0  0
   46.1830   33.1840   45.5180 N   0  0  0  0  0  0  0  0  0  0  0  0
   45.3330   33.6410   46.4420 C   0  0  0  0  0  0  0  0  0  0  0  0
   44.5870   34.7470   46.2250 N   0  0  0  0  0  0  0  0  0  0  0  0
   44.1070   36.2750   44.8900 H   0  0  0  0  0  0  0  0  0  0  0  0
   47.0130   33.4690   43.5440 H   0  0  0  0  0  0  0  0  0  0  0  0
   45.6600   35.7280   42.7730 C   0  0  0  0  0  0  0  0  0  0  0  0
   45.2370   36.9860   43.0840 F   0  0  0  0  0  0  0  0  0  0  0  0
   44.7560   35.1200   41.9050 F   0  0  0  0  0  0  0  0  0  0  0  0
   46.9430   35.6640   42.3010 F   0  0  0  0  0  0  0  0  0  0  0  0
   45.1500   33.0370   47.6680 O   0  0  0  0  0  0  0  0  0  0  0  0
   46.1750   32.3610   48.3500 C   0  0  0  0  0  0  0  0  0  0  0  0
   47.1590   32.8530   48.2210 H   0  0  0  0  0  0  0  0  0  0  0  0
   45.9730   32.4060   49.4390 H   0  0  0  0  0  0  0  0  0  0  0  0
   46.2320   30.8950   47.9960 C   0  0  0  0  0  0  0  0  0  0  0  0
   47.4060   30.2700   47.5080 C   0  0  0  0  0  0  0  0  0  0  0  0
   48.3730   30.6720   47.3180 H   0  0  0  0  0  0  0  0  0  0  0  0
   46.8880   28.5510   47.2640 S   0  0  0  0  0  0  0  0  0  0  0  0
   45.1330   28.9570   47.8710 C   0  0  0  0  0  0  0  0  0  0  0  0
   44.0940   28.3610   48.0390 H   0  0  0  0  0  0  0  0  0  0  0  0
   45.2180   30.0540   48.0990 N   0  0  0  0  0  0  0  0  0  0  0  0
  1  6  1  0  0  0  0
  2  3  1  0  0  0  0
  2  1  2  0  0  0  0
  3  4  2  0  0  0  0
  4  5  1  0  0  0  0
  5 13  1  0  0  0  0
  6  5  2  0  0  0  0
  7  1  1  0  0  0  0
  8  3  1  0  0  0  0
  9 10  1  0  0  0  0
  9  2  1  0  0  0  0
 11  9  1  0  0  0  0
 12  9  1  0  0  0  0
 13 14  1  0  0  0  0
 14 16  1  0  0  0  0
 15 14  1  0  0  0  0
 17 23  1  0  0  0  0
 17 14  1  0  0  0  0
 18 17  2  0  0  0  0
 19 18  1  0  0  0  0
 20 18  1  0  0  0  0
 20 21  1  0  0  0  0
 21 22  1  0  0  0  0
 21 23  2  0  0  0  0
M  END
>  <minimizedAffinity>
-4.64055014

>  <minimizedRMSD>
0.654687107

$$$$
