
 OpenBabel03242510473D

 19 20  0  0  0  0  0  0  0  0999 V2000
   36.8040   28.6000   41.8660 C   0  0  0  0  0  0  0  0  0  0  0  0
   35.6530   28.6020   41.0680 C   0  0  0  0  0  0  0  0  0  0  0  0
   35.4670   29.6610   40.1690 C   0  0  0  0  0  0  0  0  0  0  0  0
   36.4250   30.6320   40.1250 N   0  0  0  0  0  0  0  0  0  0  0  0
   37.5200   30.6100   40.8970 C   0  0  0  0  0  0  0  0  0  0  0  0
   37.7030   29.6030   41.7560 N   0  0  0  0  0  0  0  0  0  0  0  0
   34.9010   27.8330   41.1090 H   0  0  0  0  0  0  0  0  0  0  0  0
   34.6000   29.7160   39.5290 H   0  0  0  0  0  0  0  0  0  0  0  0
   38.4830   31.6990   40.7710 C   0  0  0  0  0  0  0  0  0  0  0  0
   37.7770   32.8300   40.3430 C   0  0  0  0  0  0  0  0  0  0  0  0
   36.8090   33.3390   40.0370 H   0  0  0  0  0  0  0  0  0  0  0  0
   39.1340   34.1600   40.2200 S   0  0  0  0  0  0  0  0  0  0  0  0
   40.4040   32.8530   40.7930 C   0  0  0  0  0  0  0  0  0  0  0  0
   41.5580   32.6150   41.0580 H   0  0  0  0  0  0  0  0  0  0  0  0
   39.7780   31.9410   40.9310 N   0  0  0  0  0  0  0  0  0  0  0  0
   36.9660   27.4510   42.8140 C   0  0  0  0  0  0  0  0  0  0  0  0
   37.0780   26.2550   42.1270 F   0  0  0  0  0  0  0  0  0  0  0  0
   38.0870   27.6890   43.5790 F   0  0  0  0  0  0  0  0  0  0  0  0
   35.8770   27.4200   43.6780 F   0  0  0  0  0  0  0  0  0  0  0  0
  1 16  1  0  0  0  0
  2  7  1  0  0  0  0
  2  1  2  0  0  0  0
  3  2  1  0  0  0  0
  4  3  2  0  0  0  0
  4  5  1  0  0  0  0
  5  6  2  0  0  0  0
  6  1  1  0  0  0  0
  8  3  1  0  0  0  0
  9  5  1  0  0  0  0
  9 15  1  0  0  0  0
 10  9  2  0  0  0  0
 11 10  1  0  0  0  0
 12 10  1  0  0  0  0
 12 13  1  0  0  0  0
 13 15  2  0  0  0  0
 13 14  1  0  0  0  0
 16 18  1  0  0  0  0
 16 19  1  0  0  0  0
 17 16  1  0  0  0  0
M  END
>  <minimizedAffinity>
-4.63008213

$$$$

 OpenBabel03242510473D

 19 20  0  0  0  0  0  0  0  0999 V2000
   36.9580   27.7730   41.6210 C   0  0  0  0  0  0  0  0  0  0  0  0
   36.6580   27.0270   40.4750 C   0  0  0  0  0  0  0  0  0  0  0  0
   36.6420   27.6830   39.2370 C   0  0  0  0  0  0  0  0  0  0  0  0
   36.9220   29.0190   39.2230 N   0  0  0  0  0  0  0  0  0  0  0  0
   37.2070   29.7140   40.3320 C   0  0  0  0  0  0  0  0  0  0  0  0
   37.2240   29.0940   41.5160 N   0  0  0  0  0  0  0  0  0  0  0  0
   36.4380   25.9730   40.4940 H   0  0  0  0  0  0  0  0  0  0  0  0
   36.4180   27.1590   38.3210 H   0  0  0  0  0  0  0  0  0  0  0  0
   37.4920   31.1400   40.2060 C   0  0  0  0  0  0  0  0  0  0  0  0
   38.6120   31.4110   41.0020 C   0  0  0  0  0  0  0  0  0  0  0  0
   39.4300   31.0710   41.7130 H   0  0  0  0  0  0  0  0  0  0  0  0
   38.8720   33.2800   40.7520 S   0  0  0  0  0  0  0  0  0  0  0  0
   37.3590   33.2890   39.5870 C   0  0  0  0  0  0  0  0  0  0  0  0
   36.6370   33.9460   38.8750 H   0  0  0  0  0  0  0  0  0  0  0  0
   37.0320   32.2230   39.5930 N   0  0  0  0  0  0  0  0  0  0  0  0
   36.9650   27.0360   42.9250 C   0  0  0  0  0  0  0  0  0  0  0  0
   38.1440   27.2620   43.6140 F   0  0  0  0  0  0  0  0  0  0  0  0
   35.8760   27.4570   43.6570 F   0  0  0  0  0  0  0  0  0  0  0  0
   36.7940   25.6770   42.6780 F   0  0  0  0  0  0  0  0  0  0  0  0
  1 16  1  0  0  0  0
  2  7  1  0  0  0  0
  2  1  2  0  0  0  0
  3  2  1  0  0  0  0
  4  3  2  0  0  0  0
  4  5  1  0  0  0  0
  5  6  2  0  0  0  0
  6  1  1  0  0  0  0
  8  3  1  0  0  0  0
  9  5  1  0  0  0  0
  9 10  2  0  0  0  0
 10 11  1  0  0  0  0
 12 10  1  0  0  0  0
 13 15  2  0  0  0  0
 13 12  1  0  0  0  0
 14 13  1  0  0  0  0
 15  9  1  0  0  0  0
 16 17  1  0  0  0  0
 16 18  1  0  0  0  0
 19 16  1  0  0  0  0
M  END
>  <minimizedAffinity>
-4.46190166

$$$$

 OpenBabel03242510473D

 19 20  0  0  0  0  0  0  0  0999 V2000
   37.3070   26.8910   41.9010 C   0  0  0  0  0  0  0  0  0  0  0  0
   37.2810   27.1990   43.2660 C   0  0  0  0  0  0  0  0  0  0  0  0
   37.4430   28.5360   43.6520 C   0  0  0  0  0  0  0  0  0  0  0  0
   37.6170   29.4640   42.6670 N   0  0  0  0  0  0  0  0  0  0  0  0
   37.6380   29.1480   41.3650 C   0  0  0  0  0  0  0  0  0  0  0  0
   37.4840   27.8750   40.9900 N   0  0  0  0  0  0  0  0  0  0  0  0
   37.1430   26.4610   44.0390 H   0  0  0  0  0  0  0  0  0  0  0  0
   37.4310   28.8320   44.6900 H   0  0  0  0  0  0  0  0  0  0  0  0
   37.8320   30.2180   40.3910 C   0  0  0  0  0  0  0  0  0  0  0  0
   36.8950   31.2180   40.6820 C   0  0  0  0  0  0  0  0  0  0  0  0
   36.0410   31.6250   41.3100 H   0  0  0  0  0  0  0  0  0  0  0  0
   37.2500   32.5360   39.3550 S   0  0  0  0  0  0  0  0  0  0  0  0
   38.6340   31.4100   38.6720 C   0  0  0  0  0  0  0  0  0  0  0  0
   39.5000   31.2650   37.8430 H   0  0  0  0  0  0  0  0  0  0  0  0
   38.5940   30.5250   39.3490 N   0  0  0  0  0  0  0  0  0  0  0  0
   37.1290   25.4500   41.5290 C   0  0  0  0  0  0  0  0  0  0  0  0
   36.4090   25.3290   40.3540 F   0  0  0  0  0  0  0  0  0  0  0  0
   38.3810   24.8880   41.4030 F   0  0  0  0  0  0  0  0  0  0  0  0
   36.4840   24.7910   42.5700 F   0  0  0  0  0  0  0  0  0  0  0  0
  1  2  1  0  0  0  0
  2  3  2  0  0  0  0
  2  7  1  0  0  0  0
  3  8  1  0  0  0  0
  4  3  1  0  0  0  0
  5  4  2  0  0  0  0
  6  5  1  0  0  0  0
  6  1  2  0  0  0  0
  9 10  2  0  0  0  0
  9  5  1  0  0  0  0
 10 11  1  0  0  0  0
 12 10  1  0  0  0  0
 13 15  2  0  0  0  0
 13 12  1  0  0  0  0
 14 13  1  0  0  0  0
 15  9  1  0  0  0  0
 16  1  1  0  0  0  0
 16 19  1  0  0  0  0
 17 16  1  0  0  0  0
 18 16  1  0  0  0  0
M  END
>  <minimizedAffinity>
-4.31613159

$$$$

 OpenBabel03242510473D

 19 20  0  0  0  0  0  0  0  0999 V2000
   37.7930   28.5010   42.1840 C   0  0  0  0  0  0  0  0  0  0  0  0
   38.8680   27.8500   42.8000 C   0  0  0  0  0  0  0  0  0  0  0  0
   40.1040   28.5090   42.8570 C   0  0  0  0  0  0  0  0  0  0  0  0
   40.1850   29.7540   42.3050 N   0  0  0  0  0  0  0  0  0  0  0  0
   39.1430   30.3600   41.7210 C   0  0  0  0  0  0  0  0  0  0  0  0
   37.9620   29.7380   41.6630 N   0  0  0  0  0  0  0  0  0  0  0  0
   38.7970   26.8670   43.2340 H   0  0  0  0  0  0  0  0  0  0  0  0
   40.9670   28.0550   43.3190 H   0  0  0  0  0  0  0  0  0  0  0  0
   39.3360   31.6940   41.1600 C   0  0  0  0  0  0  0  0  0  0  0  0
   38.0760   32.1720   40.7810 C   0  0  0  0  0  0  0  0  0  0  0  0
   36.9510   32.0410   40.6880 H   0  0  0  0  0  0  0  0  0  0  0  0
   38.4660   33.8960   40.0750 S   0  0  0  0  0  0  0  0  0  0  0  0
   40.3110   33.5860   40.4590 C   0  0  0  0  0  0  0  0  0  0  0  0
   41.4370   34.0200   40.4190 H   0  0  0  0  0  0  0  0  0  0  0  0
   40.3050   32.5650   40.9070 N   0  0  0  0  0  0  0  0  0  0  0  0
   36.4890   27.7650   42.1450 C   0  0  0  0  0  0  0  0  0  0  0  0
   35.5270   28.4990   41.4730 F   0  0  0  0  0  0  0  0  0  0  0  0
   36.7060   26.5530   41.5270 F   0  0  0  0  0  0  0  0  0  0  0  0
   36.0810   27.4960   43.4470 F   0  0  0  0  0  0  0  0  0  0  0  0
  1  2  1  0  0  0  0
  2  3  2  0  0  0  0
  2  7  1  0  0  0  0
  3  8  1  0  0  0  0
  4  3  1  0  0  0  0
  5  4  2  0  0  0  0
  6  5  1  0  0  0  0
  6  1  2  0  0  0  0
  9  5  1  0  0  0  0
 10  9  2  0  0  0  0
 11 10  1  0  0  0  0
 12 13  1  0  0  0  0
 12 10  1  0  0  0  0
 13 15  2  0  0  0  0
 14 13  1  0  0  0  0
 15  9  1  0  0  0  0
 16  1  1  0  0  0  0
 16 19  1  0  0  0  0
 17 16  1  0  0  0  0
 18 16  1  0  0  0  0
M  END
>  <minimizedAffinity>
-4.28336

$$$$

 OpenBabel03242510473D

 19 20  0  0  0  0  0  0  0  0999 V2000
   37.0240   27.2550   41.4760 C   0  0  0  0  0  0  0  0  0  0  0  0
   36.6380   26.6450   40.2760 C   0  0  0  0  0  0  0  0  0  0  0  0
   36.6090   27.4240   39.1110 C   0  0  0  0  0  0  0  0  0  0  0  0
   36.9600   28.7380   39.2170 N   0  0  0  0  0  0  0  0  0  0  0  0
   37.3280   29.3020   40.3750 C   0  0  0  0  0  0  0  0  0  0  0  0
   37.3580   28.5650   41.4900 N   0  0  0  0  0  0  0  0  0  0  0  0
   36.3610   25.6070   40.2000 H   0  0  0  0  0  0  0  0  0  0  0  0
   36.3190   27.0070   38.1590 H   0  0  0  0  0  0  0  0  0  0  0  0
   37.6850   30.7170   40.3790 C   0  0  0  0  0  0  0  0  0  0  0  0
   36.9050   31.3440   39.3990 C   0  0  0  0  0  0  0  0  0  0  0  0
   36.1160   31.3050   38.5840 H   0  0  0  0  0  0  0  0  0  0  0  0
   37.4640   33.1610   39.5070 S   0  0  0  0  0  0  0  0  0  0  0  0
   38.6700   32.6610   40.9000 C   0  0  0  0  0  0  0  0  0  0  0  0
   39.5130   33.0250   41.6850 H   0  0  0  0  0  0  0  0  0  0  0  0
   38.4940   31.5650   41.0020 N   0  0  0  0  0  0  0  0  0  0  0  0
   37.0430   26.3900   42.6990 C   0  0  0  0  0  0  0  0  0  0  0  0
   36.7070   25.0850   42.3860 F   0  0  0  0  0  0  0  0  0  0  0  0
   38.3050   26.4580   43.2460 F   0  0  0  0  0  0  0  0  0  0  0  0
   36.1590   26.9130   43.6370 F   0  0  0  0  0  0  0  0  0  0  0  0
  1  6  1  0  0  0  0
  1 16  1  0  0  0  0
  2  1  2  0  0  0  0
  3  4  2  0  0  0  0
  3  2  1  0  0  0  0
  4  5  1  0  0  0  0
  5  9  1  0  0  0  0
  5  6  2  0  0  0  0
  7  2  1  0  0  0  0
  8  3  1  0  0  0  0
  9 15  1  0  0  0  0
 10 12  1  0  0  0  0
 10  9  2  0  0  0  0
 11 10  1  0  0  0  0
 12 13  1  0  0  0  0
 13 15  2  0  0  0  0
 13 14  1  0  0  0  0
 16 18  1  0  0  0  0
 16 19  1  0  0  0  0
 17 16  1  0  0  0  0
M  END
>  <minimizedAffinity>
-4.1929636

$$$$

 OpenBabel03242510473D

 19 20  0  0  0  0  0  0  0  0999 V2000
   37.9660   31.8200   40.5470 C   0  0  0  0  0  0  0  0  0  0  0  0
   36.6070   31.4980   40.4520 C   0  0  0  0  0  0  0  0  0  0  0  0
   36.1660   30.2910   41.0110 C   0  0  0  0  0  0  0  0  0  0  0  0
   37.0940   29.4970   41.6200 N   0  0  0  0  0  0  0  0  0  0  0  0
   38.3900   29.8250   41.7010 C   0  0  0  0  0  0  0  0  0  0  0  0
   38.8170   30.9740   41.1700 N   0  0  0  0  0  0  0  0  0  0  0  0
   35.8800   32.1300   39.9690 H   0  0  0  0  0  0  0  0  0  0  0  0
   35.1300   29.9910   40.9670 H   0  0  0  0  0  0  0  0  0  0  0  0
   39.3010   28.9040   42.3750 C   0  0  0  0  0  0  0  0  0  0  0  0
   38.5350   27.8240   42.8310 C   0  0  0  0  0  0  0  0  0  0  0  0
   37.5390   27.2910   42.9440 H   0  0  0  0  0  0  0  0  0  0  0  0
   39.8270   26.7120   43.6800 S   0  0  0  0  0  0  0  0  0  0  0  0
   41.1660   27.9930   43.2170 C   0  0  0  0  0  0  0  0  0  0  0  0
   42.3360   28.2930   43.2650 H   0  0  0  0  0  0  0  0  0  0  0  0
   40.5860   28.7780   42.6790 N   0  0  0  0  0  0  0  0  0  0  0  0
   38.3980   33.1180   39.9380 C   0  0  0  0  0  0  0  0  0  0  0  0
   39.3960   32.9160   39.0010 F   0  0  0  0  0  0  0  0  0  0  0  0
   37.2920   33.7050   39.3630 F   0  0  0  0  0  0  0  0  0  0  0  0
   38.8370   33.9680   40.9480 F   0  0  0  0  0  0  0  0  0  0  0  0
  1  6  1  0  0  0  0
  2  1  2  0  0  0  0
  2  3  1  0  0  0  0
  3  4  2  0  0  0  0
  4  5  1  0  0  0  0
  5  9  1  0  0  0  0
  6  5  2  0  0  0  0
  7  2  1  0  0  0  0
  8  3  1  0  0  0  0
  9 15  1  0  0  0  0
  9 10  2  0  0  0  0
 10 11  1  0  0  0  0
 10 12  1  0  0  0  0
 13 14  1  0  0  0  0
 13 12  1  0  0  0  0
 15 13  2  0  0  0  0
 16  1  1  0  0  0  0
 16 19  1  0  0  0  0
 17 16  1  0  0  0  0
 18 16  1  0  0  0  0
M  END
>  <minimizedAffinity>
-4.14198399

$$$$

 OpenBabel03242510473D

 19 20  0  0  0  0  0  0  0  0999 V2000
   36.7110   28.4870   41.7920 C   0  0  0  0  0  0  0  0  0  0  0  0
   37.1960   29.7770   42.0390 C   0  0  0  0  0  0  0  0  0  0  0  0
   36.9650   30.7710   41.0790 C   0  0  0  0  0  0  0  0  0  0  0  0
   36.2770   30.4200   39.9540 N   0  0  0  0  0  0  0  0  0  0  0  0
   35.8210   29.1790   39.7370 C   0  0  0  0  0  0  0  0  0  0  0  0
   36.0380   28.2260   40.6490 N   0  0  0  0  0  0  0  0  0  0  0  0
   37.7380   30.0470   42.9290 H   0  0  0  0  0  0  0  0  0  0  0  0
   37.3150   31.7830   41.2150 H   0  0  0  0  0  0  0  0  0  0  0  0
   35.0960   28.9080   38.4990 C   0  0  0  0  0  0  0  0  0  0  0  0
   35.8660   29.4220   37.4480 C   0  0  0  0  0  0  0  0  0  0  0  0
   36.7920   29.9560   37.0640 H   0  0  0  0  0  0  0  0  0  0  0  0
   34.8200   29.0090   35.9110 S   0  0  0  0  0  0  0  0  0  0  0  0
   33.5270   28.2040   37.0640 C   0  0  0  0  0  0  0  0  0  0  0  0
   32.4680   27.6280   37.1470 H   0  0  0  0  0  0  0  0  0  0  0  0
   33.9720   28.3460   38.0760 N   0  0  0  0  0  0  0  0  0  0  0  0
   36.9780   27.4520   42.8420 C   0  0  0  0  0  0  0  0  0  0  0  0
   37.2550   26.2240   42.2670 F   0  0  0  0  0  0  0  0  0  0  0  0
   38.0350   27.8890   43.6090 F   0  0  0  0  0  0  0  0  0  0  0  0
   35.8700   27.3620   43.6800 F   0  0  0  0  0  0  0  0  0  0  0  0
  1  2  1  0  0  0  0
  1 16  1  0  0  0  0
  2  7  1  0  0  0  0
  3  8  1  0  0  0  0
  3  2  2  0  0  0  0
  4  3  1  0  0  0  0
  5  4  2  0  0  0  0
  5  6  1  0  0  0  0
  6  1  2  0  0  0  0
  9  5  1  0  0  0  0
 10  9  2  0  0  0  0
 11 10  1  0  0  0  0
 12 13  1  0  0  0  0
 12 10  1  0  0  0  0
 13 14  1  0  0  0  0
 13 15  2  0  0  0  0
 15  9  1  0  0  0  0
 16 18  1  0  0  0  0
 16 19  1  0  0  0  0
 17 16  1  0  0  0  0
M  END
>  <minimizedAffinity>
-4.12535238

$$$$

 OpenBabel03242510473D

 19 20  0  0  0  0  0  0  0  0999 V2000
   37.7620   28.1740   42.1860 C   0  0  0  0  0  0  0  0  0  0  0  0
   38.5110   28.9460   43.0830 C   0  0  0  0  0  0  0  0  0  0  0  0
   39.0280   30.1700   42.6390 C   0  0  0  0  0  0  0  0  0  0  0  0
   38.7680   30.5400   41.3520 N   0  0  0  0  0  0  0  0  0  0  0  0
   38.0470   29.7870   40.5100 C   0  0  0  0  0  0  0  0  0  0  0  0
   37.5510   28.6180   40.9270 N   0  0  0  0  0  0  0  0  0  0  0  0
   38.7130   28.6470   44.0980 H   0  0  0  0  0  0  0  0  0  0  0  0
   39.6130   30.8060   43.2860 H   0  0  0  0  0  0  0  0  0  0  0  0
   37.8270   30.2750   39.1520 C   0  0  0  0  0  0  0  0  0  0  0  0
   37.2350   29.2330   38.4280 C   0  0  0  0  0  0  0  0  0  0  0  0
   36.8300   28.1740   38.3630 H   0  0  0  0  0  0  0  0  0  0  0  0
   37.0050   29.9920   36.6970 S   0  0  0  0  0  0  0  0  0  0  0  0
   37.7860   31.6080   37.3510 C   0  0  0  0  0  0  0  0  0  0  0  0
   38.1250   32.7390   37.0990 H   0  0  0  0  0  0  0  0  0  0  0  0
   38.0090   31.3640   38.4160 N   0  0  0  0  0  0  0  0  0  0  0  0
   37.2260   26.8720   42.6980 C   0  0  0  0  0  0  0  0  0  0  0  0
   36.2270   27.0820   43.6330 F   0  0  0  0  0  0  0  0  0  0  0  0
   36.7520   26.1560   41.6210 F   0  0  0  0  0  0  0  0  0  0  0  0
   38.2710   26.1400   43.2530 F   0  0  0  0  0  0  0  0  0  0  0  0
  1 16  1  0  0  0  0
  1  2  1  0  0  0  0
  2  7  1  0  0  0  0
  3  2  2  0  0  0  0
  3  8  1  0  0  0  0
  4  3  1  0  0  0  0
  5  6  1  0  0  0  0
  5  4  2  0  0  0  0
  6  1  2  0  0  0  0
  9  5  1  0  0  0  0
 10  9  2  0  0  0  0
 11 10  1  0  0  0  0
 12 13  1  0  0  0  0
 12 10  1  0  0  0  0
 13 15  2  0  0  0  0
 14 13  1  0  0  0  0
 15  9  1  0  0  0  0
 16 19  1  0  0  0  0
 16 17  1  0  0  0  0
 18 16  1  0  0  0  0
M  END
>  <minimizedAffinity>
-4.05523825

$$$$

 OpenBabel03242510473D

 19 20  0  0  0  0  0  0  0  0999 V2000
   37.2080   30.7920   38.3050 C   0  0  0  0  0  0  0  0  0  0  0  0
   37.2790   32.1660   38.5660 C   0  0  0  0  0  0  0  0  0  0  0  0
   37.3940   32.5870   39.8970 C   0  0  0  0  0  0  0  0  0  0  0  0
   37.4300   31.6270   40.8660 N   0  0  0  0  0  0  0  0  0  0  0  0
   37.3610   30.3170   40.5950 C   0  0  0  0  0  0  0  0  0  0  0  0
   37.2520   29.9080   39.3280 N   0  0  0  0  0  0  0  0  0  0  0  0
   37.2500   32.9180   37.7950 H   0  0  0  0  0  0  0  0  0  0  0  0
   37.4530   33.6330   40.1570 H   0  0  0  0  0  0  0  0  0  0  0  0
   37.4080   29.3720   41.7060 C   0  0  0  0  0  0  0  0  0  0  0  0
   36.5750   28.2970   41.3720 C   0  0  0  0  0  0  0  0  0  0  0  0
   35.8650   27.7770   40.6540 H   0  0  0  0  0  0  0  0  0  0  0  0
   36.7250   27.1520   42.8860 S   0  0  0  0  0  0  0  0  0  0  0  0
   37.9210   28.4190   43.6690 C   0  0  0  0  0  0  0  0  0  0  0  0
   38.6150   28.7000   44.6160 H   0  0  0  0  0  0  0  0  0  0  0  0
   37.9760   29.2210   42.8960 N   0  0  0  0  0  0  0  0  0  0  0  0
   37.0860   30.3810   36.8700 C   0  0  0  0  0  0  0  0  0  0  0  0
   37.3110   31.4560   36.0280 F   0  0  0  0  0  0  0  0  0  0  0  0
   37.9960   29.3730   36.6390 F   0  0  0  0  0  0  0  0  0  0  0  0
   35.8190   29.8480   36.6570 F   0  0  0  0  0  0  0  0  0  0  0  0
  1  2  2  0  0  0  0
  1  6  1  0  0  0  0
  2  3  1  0  0  0  0
  3  8  1  0  0  0  0
  3  4  2  0  0  0  0
  5  4  1  0  0  0  0
  5  9  1  0  0  0  0
  6  5  2  0  0  0  0
  7  2  1  0  0  0  0
  9 15  1  0  0  0  0
 10  9  2  0  0  0  0
 10 12  1  0  0  0  0
 11 10  1  0  0  0  0
 12 13  1  0  0  0  0
 13 14  1  0  0  0  0
 15 13  2  0  0  0  0
 16  1  1  0  0  0  0
 17 16  1  0  0  0  0
 18 16  1  0  0  0  0
 19 16  1  0  0  0  0
M  END
>  <minimizedAffinity>
-3.99671197

$$$$
