REMARK  Name = 
REMARK  6 active torsions:
REMARK  status: ('A' for Active; 'I' for Inactive)
REMARK    1  A    between atoms: C_1  and  C_2
REMARK    2  A    between atoms: C_1  and  C_14
REMARK    3  A    between atoms: C_6  and  C_8
REMARK    4  A    between atoms: C_14  and  N_15
REMARK    5  A    between atoms: C_20  and  S_21
REMARK    6  A    between atoms: S_21  and  C_39
REMARK                            x       y       z     vdW  Elec       q    Type
REMARK                         _______ _______ _______ _____ _____    ______ ____
ROOT
ATOM      1  C   UNL     1      41.904  33.957  41.207  0.00  0.00    +0.000 C 
ATOM      2  H   UNL     1      41.540  33.949  42.257  0.00  0.00    +0.000 HD
ATOM      3  H   UNL     1      42.197  35.052  41.048  0.00  0.00    +0.000 HD
ENDROOT
BRANCH   1   4
ATOM      4  N   UNL     1      41.001  33.511  40.331  0.00  0.00    +0.000 N 
ATOM      5  C   UNL     1      40.327  32.254  40.336  0.00  0.00    +0.000 C 
ATOM      6  C   UNL     1      38.952  32.723  40.804  0.00  0.00    +0.000 C 
ATOM      7  C   UNL     1      38.328  33.693  39.922  0.00  0.00    +0.000 C 
ATOM      8  C   UNL     1      39.162  34.504  39.064  0.00  0.00    +0.000 C 
ATOM      9  C   UNL     1      40.663  34.467  39.252  0.00  0.00    +0.000 C 
ATOM     10  H   UNL     1      40.714  31.638  41.175  0.00  0.00    +0.000 HD
ATOM     11  H   UNL     1      40.322  31.650  39.446  0.00  0.00    +0.000 HD
ATOM     12  H   UNL     1      39.077  33.072  41.866  0.00  0.00    +0.000 HD
ATOM     13  H   UNL     1      38.343  31.779  40.896  0.00  0.00    +0.000 HD
ATOM     14  H   UNL     1      37.595  33.151  39.256  0.00  0.00    +0.000 HD
ATOM     15  H   UNL     1      37.684  34.381  40.523  0.00  0.00    +0.000 HD
ATOM     16  H   UNL     1      38.834  35.154  38.311  0.00  0.00    +0.000 HD
BRANCH   9  17
ATOM     17  S   UNL     1      41.782  35.389  38.319  0.00  0.00    +0.000 S 
BRANCH  17  18
ATOM     18  C   UNL     1      41.195  36.810  37.475  0.00  0.00    +0.000 A 
ATOM     19  C   UNL     1      41.556  37.549  36.243  0.00  0.00    +0.000 A 
ATOM     20  H   UNL     1      42.466  37.020  35.581  0.00  0.00    +0.000 HD
ATOM     21  S   UNL     1      40.353  38.998  36.281  0.00  0.00    +0.000 S 
ATOM     22  C   UNL     1      39.628  38.333  37.901  0.00  0.00    +0.000 A 
ATOM     23  H   UNL     1      38.823  39.077  38.159  0.00  0.00    +0.000 HD
ATOM     24  N   UNL     1      40.217  37.380  38.136  0.00  0.00    +0.000 NA
ENDBRANCH  17  18
ENDBRANCH   9  17
ENDBRANCH   1   4
BRANCH   1  25
ATOM     25  C   UNL     1      43.199  33.228  41.163  0.00  0.00    +0.000 C 
ATOM     26  H   UNL     1      43.504  32.967  40.127  0.00  0.00    +0.000 HD
ATOM     27  H   UNL     1      43.172  32.259  41.738  0.00  0.00    +0.000 HD
BRANCH  25  28
ATOM     28  C   UNL     1      44.231  34.074  41.786  0.00  0.00    +0.000 A 
ATOM     29  C   UNL     1      43.881  35.255  42.400  0.00  0.00    +0.000 A 
ATOM     30  C   UNL     1      44.886  36.029  42.965  0.00  0.00    +0.000 A 
ATOM     31  N   UNL     1      46.175  35.571  42.883  0.00  0.00    +0.000 NA
ATOM     32  C   UNL     1      46.471  34.425  42.284  0.00  0.00    +0.000 A 
ATOM     33  N   UNL     1      45.489  33.696  41.745  0.00  0.00    +0.000 NA
ATOM     34  H   UNL     1      42.951  35.767  42.580  0.00  0.00    +0.000 HD
ATOM     35  H   UNL     1      44.804  36.982  43.485  0.00  0.00    +0.000 HD
BRANCH  32  36
ATOM     36  C   UNL     1      47.870  34.005  42.263  0.00  0.00    +0.000 A 
ATOM     37  C   UNL     1      48.211  32.681  42.004  0.00  0.00    +0.000 A 
ATOM     38  C   UNL     1      49.529  32.292  41.992  0.00  0.00    +0.000 A 
ATOM     39  C   UNL     1      50.426  33.311  42.252  0.00  0.00    +0.000 A 
ATOM     40  C   UNL     1      50.139  34.647  42.516  0.00  0.00    +0.000 A 
ATOM     41  N   UNL     1      48.816  34.947  42.509  0.00  0.00    +0.000 NA
ATOM     42  H   UNL     1      47.450  31.924  41.807  0.00  0.00    +0.000 HD
ATOM     43  H   UNL     1      49.888  31.307  41.805  0.00  0.00    +0.000 HD
ATOM     44  H   UNL     1      51.489  33.061  42.255  0.00  0.00    +0.000 HD
ATOM     45  H   UNL     1      50.914  35.355  42.704  0.00  0.00    +0.000 HD
ENDBRANCH  32  36
ENDBRANCH  25  28
ENDBRANCH   1  25
TORSDOF 6
