
 OpenBabel03252506053D

 41 45  0  0  0  0  0  0  0  0999 V2000
   44.8190   35.9690   43.1640 Cl  0  0  0  0  0  0  0  0  0  0  0  0
   45.5520   34.7340   44.1180 C   0  0  0  0  0  0  0  0  0  0  0  0
   46.6410   34.0230   43.6320 C   0  0  0  0  0  0  0  0  0  0  0  0
   47.1570   33.0600   44.4770 C   0  0  0  0  0  0  0  0  0  0  0  0
   46.6620   32.7730   45.7410 C   0  0  0  0  0  0  0  0  0  0  0  0
   45.5840   33.4940   46.1910 C   0  0  0  0  0  0  0  0  0  0  0  0
   44.9950   33.0970   47.7910 Cl  0  0  0  0  0  0  0  0  0  0  0  0
   45.0370   34.4670   45.3820 C   0  0  0  0  0  0  0  0  0  0  0  0
   48.0080   32.5220   44.0690 H   0  0  0  0  0  0  0  0  0  0  0  0
   44.1890   35.0240   45.7530 H   0  0  0  0  0  0  0  0  0  0  0  0
   47.3480   31.7150   46.4830 C   0  0  0  0  0  0  0  0  0  0  0  0
   47.4770   30.4350   46.0160 C   0  0  0  0  0  0  0  0  0  0  0  0
   48.1230   29.4140   46.6940 C   0  0  0  0  0  0  0  0  0  0  0  0
   48.6810   29.6970   47.9350 C   0  0  0  0  0  0  0  0  0  0  0  0
   49.2960   28.6950   48.5680 N   0  0  0  0  0  0  0  0  0  0  0  0
   49.8740   28.8670   49.7880 C   0  0  0  0  0  0  0  0  0  0  0  0
   49.7870   30.1480   50.3390 C   0  0  0  0  0  0  0  0  0  0  0  0
   49.1480   31.1660   49.6700 C   0  0  0  0  0  0  0  0  0  0  0  0
   48.5750   30.9540   48.4370 C   0  0  0  0  0  0  0  0  0  0  0  0
   47.9210   31.9640   47.7350 C   0  0  0  0  0  0  0  0  0  0  0  0
   47.0240   30.2530   45.0330 H   0  0  0  0  0  0  0  0  0  0  0  0
   48.1740   28.4310   46.2410 H   0  0  0  0  0  0  0  0  0  0  0  0
   50.3820   28.0840   50.3340 H   0  0  0  0  0  0  0  0  0  0  0  0
   50.2250   30.3650   51.3130 H   0  0  0  0  0  0  0  0  0  0  0  0
   49.0840   32.1600   50.1070 H   0  0  0  0  0  0  0  0  0  0  0  0
   47.8700   32.9560   48.1930 H   0  0  0  0  0  0  0  0  0  0  0  0
   48.7300   35.4350   41.0150 C   0  0  0  0  0  0  0  0  0  0  0  0
   48.2830   34.7840   39.8540 C   0  0  0  0  0  0  0  0  0  0  0  0
   47.2470   33.8480   39.9820 C   0  0  0  0  0  0  0  0  0  0  0  0
   46.7670   33.6540   41.2190 N   0  0  0  0  0  0  0  0  0  0  0  0
   47.1990   34.2780   42.3210 C   0  0  0  0  0  0  0  0  0  0  0  0
   48.1990   35.1860   42.2270 N   0  0  0  0  0  0  0  0  0  0  0  0
   49.5170   36.1190   40.7910 H   0  0  0  0  0  0  0  0  0  0  0  0
   48.6890   34.9600   38.8660 H   0  0  0  0  0  0  0  0  0  0  0  0
   46.7230   33.1260   38.8500 C   0  0  0  0  0  0  0  0  0  0  0  0
   47.2840   31.8580   38.4440 C   0  0  0  0  0  0  0  0  0  0  0  0
   48.1050   31.2630   38.8600 H   0  0  0  0  0  0  0  0  0  0  0  0
   46.2180   31.4250   36.9380 S   0  0  0  0  0  0  0  0  0  0  0  0
   45.2060   33.0200   37.1170 C   0  0  0  0  0  0  0  0  0  0  0  0
   44.3960   33.3490   36.5010 H   0  0  0  0  0  0  0  0  0  0  0  0
   45.8480   33.2140   37.9710 N   0  0  0  0  0  0  0  0  0  0  0  0
  1  2  1  0  0  0  0
  2  8  1  0  0  0  0
  3  2  2  0  0  0  0
  3  4  1  0  0  0  0
  4  5  2  0  0  0  0
  5  6  1  0  0  0  0
  5 11  1  0  0  0  0
  6  7  1  0  0  0  0
  8 10  1  0  0  0  0
  8  6  2  0  0  0  0
  9  4  1  0  0  0  0
 11 20  1  0  0  0  0
 12 11  2  0  0  0  0
 12 13  1  0  0  0  0
 13 14  2  0  0  0  0
 14 19  1  0  0  0  0
 14 15  1  0  0  0  0
 15 16  2  0  0  0  0
 16 23  1  0  0  0  0
 16 17  1  0  0  0  0
 17 24  1  0  0  0  0
 18 25  1  0  0  0  0
 18 17  2  0  0  0  0
 19 18  1  0  0  0  0
 20 26  1  0  0  0  0
 20 19  2  0  0  0  0
 21 12  1  0  0  0  0
 22 13  1  0  0  0  0
 27 32  1  0  0  0  0
 28 29  1  0  0  0  0
 28 27  2  0  0  0  0
 29 30  2  0  0  0  0
 30 31  1  0  0  0  0
 31  3  1  0  0  0  0
 32 31  2  0  0  0  0
 33 27  1  0  0  0  0
 34 28  1  0  0  0  0
 35 29  1  0  0  0  0
 36 35  2  0  0  0  0
 36 37  1  0  0  0  0
 38 39  1  0  0  0  0
 38 36  1  0  0  0  0
 39 41  2  0  0  0  0
 40 39  1  0  0  0  0
 41 35  1  0  0  0  0
M  END
>  <minimizedAffinity>
-6.95022154

>  <minimizedRMSD>
0.16152975

$$$$
