
 OpenBabel03252508033D

 40 43  0  0  1  0  0  0  0  0999 V2000
   44.2410   34.3780   41.5590 C   0  0  0  0  0  0  0  0  0  0  0  0
   45.1240   34.2820   40.6350 O   0  0  0  0  0  0  0  0  0  0  0  0
   42.0690   33.2650   41.1560 C   0  0  0  0  0  0  0  0  0  0  0  0
   42.7910   34.4090   41.3310 C   0  0  0  0  0  0  0  0  0  0  0  0
   42.1290   35.6430   41.2740 C   0  0  0  0  0  0  0  0  0  0  0  0
   40.7810   35.7620   41.0490 C   0  0  0  0  0  0  0  0  0  0  0  0
   40.0530   34.6180   40.8740 C   0  0  0  0  0  0  0  0  0  0  0  0
   40.6890   33.4170   40.9280 C   0  0  0  0  0  0  0  0  0  0  0  0
   42.6350   36.5900   41.3930 H   0  0  0  0  0  0  0  0  0  0  0  0
   40.2720   36.7080   41.0050 H   0  0  0  0  0  0  0  0  0  0  0  0
   38.9930   34.5790   40.6920 H   0  0  0  0  0  0  0  0  0  0  0  0
   40.1190   32.4840   40.7880 H   0  0  0  0  0  0  0  0  0  0  0  0
   42.7460   31.7170   41.2560 S   0  0  0  0  0  0  0  0  0  0  0  0
   41.6550   30.8720   40.5720 O   0  0  0  0  0  0  0  0  0  0  0  0
   42.8260   31.2270   42.6610 O   0  0  0  0  0  0  0  0  0  0  0  0
   43.8940   31.0680   40.1670 C   0  0  0  0  0  0  0  0  0  0  0  0
   43.6690   31.6370   38.7210 C   0  0  0  0  0  0  0  0  0  0  0  0
   42.7970   32.4140   38.2590 H   0  0  0  0  0  0  0  0  0  0  0  0
   44.9200   30.9580   37.8090 S   0  0  0  0  0  0  0  0  0  0  0  0
   45.6820   30.0070   39.1870 C   0  0  0  0  0  0  0  0  0  0  0  0
   46.5430   29.3540   39.2220 H   0  0  0  0  0  0  0  0  0  0  0  0
   44.9480   30.3160   40.0440 N   0  0  0  0  0  0  0  0  0  0  0  0
   44.5810   34.4700   42.9480 C   0  0  0  0  0  0  0  0  0  0  0  0
   44.3060   35.7180   43.5810 C   0  0  0  0  0  0  0  0  0  0  0  0
   44.6270   35.8160   44.9240 C   0  0  0  0  0  0  0  0  0  0  0  0
   45.1740   34.7410   45.5500 N   0  0  0  0  0  0  0  0  0  0  0  0
   45.4220   33.5590   44.9010 C   0  0  0  0  0  0  0  0  0  0  0  0
   45.1160   33.4920   43.6590 N   0  0  0  0  0  0  0  0  0  0  0  0
   43.8880   36.6010   43.1810 H   0  0  0  0  0  0  0  0  0  0  0  0
   44.4600   36.7260   45.5110 H   0  0  0  0  0  0  0  0  0  0  0  0
   46.0120   32.4410   45.6610 C   0  0  1  0  0  0  0  0  0  0  0  0
   46.9730   32.7600   46.7880 C   0  0  0  0  0  0  0  0  0  0  0  0
   45.5480   32.3510   47.0730 C   0  0  1  0  0  0  0  0  0  0  0  0
   46.1080   31.4680   45.1540 H   0  0  0  0  0  0  0  0  0  0  0  0
   47.7800   31.9970   46.9230 H   0  0  0  0  0  0  0  0  0  0  0  0
   47.2900   33.8060   46.8000 H   0  0  0  0  0  0  0  0  0  0  0  0
   45.4340   31.3600   47.5530 H   0  0  0  0  0  0  0  0  0  0  0  0
   44.7660   33.4000   47.6550 N   0  0  0  0  0  0  0  0  0  0  0  0
   43.9220   33.0770   48.1470 H   0  0  0  0  0  0  0  0  0  0  0  0
   45.3190   34.1220   48.1570 H   0  0  0  0  0  0  0  0  0  0  0  0
  1 23  1  0  0  0  0
  2  1  2  0  0  0  0
  3 13  1  0  0  0  0
  3  4  1  0  0  0  0
  4  1  1  0  0  0  0
  5  4  2  0  0  0  0
  5  9  1  0  0  0  0
  6  5  1  0  0  0  0
  7  8  1  0  0  0  0
  7  6  2  0  0  0  0
  8  3  2  0  0  0  0
 10  6  1  0  0  0  0
 11  7  1  0  0  0  0
 12  8  1  0  0  0  0
 13 15  2  0  0  0  0
 14 13  2  0  0  0  0
 16 13  1  0  0  0  0
 17 16  2  0  0  0  0
 18 17  1  0  0  0  0
 19 17  1  0  0  0  0
 19 20  1  0  0  0  0
 20 21  1  0  0  0  0
 20 22  2  0  0  0  0
 22 16  1  0  0  0  0
 23 24  2  0  0  0  0
 23 28  1  0  0  0  0
 24 25  1  0  0  0  0
 25 30  1  0  0  0  0
 25 26  2  0  0  0  0
 27 26  1  0  0  0  0
 27 31  1  0  0  0  0
 28 27  2  0  0  0  0
 29 24  1  0  0  0  0
 31 34  1  6  0  0  0
 31 32  1  0  0  0  0
 31 33  1  0  0  0  0
 32 36  1  0  0  0  0
 32 35  1  0  0  0  0
 32 33  1  0  0  0  0
 33 37  1  1  0  0  0
 33 38  1  0  0  0  0
 38 39  1  0  0  0  0
 38 40  1  0  0  0  0
M  END
>  <minimizedAffinity>
-5.72287178

>  <minimizedRMSD>
1.19867206

$$$$
