
 OpenBabel03252505443D

 40 43  0  0  1  0  0  0  0  0999 V2000
   37.6520   30.5720   40.7460 C   0  0  0  0  0  0  0  0  0  0  0  0
   38.7690   31.3290   41.0260 C   0  0  0  0  0  0  0  0  0  0  0  0
   39.5530   31.1150   42.1290 C   0  0  0  0  0  0  0  0  0  0  0  0
   39.2010   30.1200   42.9640 N   0  0  0  0  0  0  0  0  0  0  0  0
   38.0980   29.3560   42.7100 C   0  0  0  0  0  0  0  0  0  0  0  0
   37.3270   29.5700   41.6180 N   0  0  0  0  0  0  0  0  0  0  0  0
   39.0010   32.1140   40.3170 H   0  0  0  0  0  0  0  0  0  0  0  0
   40.4290   31.7150   42.3380 H   0  0  0  0  0  0  0  0  0  0  0  0
   37.4440   30.5820   38.2820 C   0  0  1  0  0  0  0  0  0  0  0  0
   37.1880   32.0730   38.7030 C   0  0  0  0  0  0  0  0  0  0  0  0
   36.7960   30.8510   39.5320 C   0  0  2  0  0  0  0  0  0  0  0  0
   38.5470   30.3280   38.2460 H   0  0  0  0  0  0  0  0  0  0  0  0
   36.3740   32.5800   38.1790 H   0  0  0  0  0  0  0  0  0  0  0  0
   38.0600   32.6240   39.0820 H   0  0  0  0  0  0  0  0  0  0  0  0
   35.7350   30.7900   39.7840 H   0  0  0  0  0  0  0  0  0  0  0  0
   36.7390   30.1860   37.0460 C   0  0  0  0  0  0  0  0  0  0  0  0
   35.8030   29.1340   37.1370 C   0  0  0  0  0  0  0  0  0  0  0  0
   35.1260   28.7480   35.9880 C   0  0  0  0  0  0  0  0  0  0  0  0
   35.3990   29.4050   34.8330 N   0  0  0  0  0  0  0  0  0  0  0  0
   36.2900   30.3970   34.7800 C   0  0  0  0  0  0  0  0  0  0  0  0
   36.9310   30.7550   35.8940 N   0  0  0  0  0  0  0  0  0  0  0  0
   35.6140   28.6380   38.0670 H   0  0  0  0  0  0  0  0  0  0  0  0
   34.3980   27.9370   36.0300 H   0  0  0  0  0  0  0  0  0  0  0  0
   36.4490   31.0020   33.4160 C   0  0  0  0  0  0  0  0  0  0  0  0
   37.4090   32.0040   33.4160 F   0  0  0  0  0  0  0  0  0  0  0  0
   35.2350   31.6370   33.0600 F   0  0  0  0  0  0  0  0  0  0  0  0
   36.6660   30.0190   32.4890 F   0  0  0  0  0  0  0  0  0  0  0  0
   37.6530   28.2540   43.6010 C   0  0  0  0  0  0  0  0  0  0  0  0
   37.1170   28.6020   44.4910 H   0  0  0  0  0  0  0  0  0  0  0  0
   38.5560   27.6950   43.9780 H   0  0  0  0  0  0  0  0  0  0  0  0
   36.8400   27.2500   42.8210 C   0  0  0  0  0  0  0  0  0  0  0  0
   36.3700   27.7830   41.9830 H   0  0  0  0  0  0  0  0  0  0  0  0
   35.9700   26.9170   43.4610 H   0  0  0  0  0  0  0  0  0  0  0  0
   37.6610   26.0710   42.4170 C   0  0  0  0  0  0  0  0  0  0  0  0
   37.1140   25.1620   41.4330 C   0  0  0  0  0  0  0  0  0  0  0  0
   36.2060   25.2350   40.9680 H   0  0  0  0  0  0  0  0  0  0  0  0
   38.5200   23.9540   41.3430 S   0  0  0  0  0  0  0  0  0  0  0  0
   39.5430   24.8600   42.5980 C   0  0  0  0  0  0  0  0  0  0  0  0
   40.5500   24.6290   43.0010 H   0  0  0  0  0  0  0  0  0  0  0  0
   38.8360   25.9610   43.0070 N   0  0  0  0  0  0  0  0  0  0  0  0
  1  2  2  0  0  0  0
  1  6  1  0  0  0  0
  2  3  1  0  0  0  0
  3  8  1  0  0  0  0
  3  4  2  0  0  0  0
  5  4  1  0  0  0  0
  5 28  1  0  0  0  0
  6  5  2  0  0  0  0
  7  2  1  0  0  0  0
  9 12  1  1  0  0  0
  9 10  1  0  0  0  0
  9 11  1  0  0  0  0
 10 14  1  0  0  0  0
 10 11  1  0  0  0  0
 11 15  1  1  0  0  0
 11  1  1  0  0  0  0
 13 10  1  0  0  0  0
 16 17  1  0  0  0  0
 16  9  1  0  0  0  0
 17 22  1  0  0  0  0
 18 23  1  0  0  0  0
 18 17  2  0  0  0  0
 19 18  1  0  0  0  0
 20 19  2  0  0  0  0
 20 21  1  0  0  0  0
 21 16  2  0  0  0  0
 24 20  1  0  0  0  0
 25 24  1  0  0  0  0
 26 24  1  0  0  0  0
 27 24  1  0  0  0  0
 28 30  1  0  0  0  0
 28 29  1  0  0  0  0
 31 33  1  0  0  0  0
 31 28  1  0  0  0  0
 32 31  1  0  0  0  0
 34 31  1  0  0  0  0
 34 40  1  0  0  0  0
 35 34  2  0  0  0  0
 36 35  1  0  0  0  0
 37 35  1  0  0  0  0
 37 38  1  0  0  0  0
 38 39  1  0  0  0  0
 38 40  2  0  0  0  0
M  END
>  <minimizedAffinity>
-5.81338263

$$$$

 OpenBabel03252505443D

 40 43  0  0  1  0  0  0  0  0999 V2000
   39.0080   32.6410   40.2580 C   0  0  0  0  0  0  0  0  0  0  0  0
   38.9940   33.8870   40.8450 C   0  0  0  0  0  0  0  0  0  0  0  0
   39.8050   34.9110   40.4310 C   0  0  0  0  0  0  0  0  0  0  0  0
   40.6440   34.6710   39.4080 N   0  0  0  0  0  0  0  0  0  0  0  0
   40.6790   33.4440   38.8090 C   0  0  0  0  0  0  0  0  0  0  0  0
   39.8750   32.4350   39.2200 N   0  0  0  0  0  0  0  0  0  0  0  0
   38.2970   34.0200   41.6640 H   0  0  0  0  0  0  0  0  0  0  0  0
   39.7840   35.8870   40.9000 H   0  0  0  0  0  0  0  0  0  0  0  0
   37.7440   30.5780   39.7470 C   0  0  1  0  0  0  0  0  0  0  0  0
   36.6620   31.5750   40.2950 C   0  0  0  0  0  0  0  0  0  0  0  0
   38.1170   31.5260   40.7560 C   0  0  2  0  0  0  0  0  0  0  0  0
   37.9910   30.7660   38.6580 H   0  0  0  0  0  0  0  0  0  0  0  0
   35.9250   31.1460   40.9790 H   0  0  0  0  0  0  0  0  0  0  0  0
   36.4150   32.4250   39.6430 H   0  0  0  0  0  0  0  0  0  0  0  0
   38.2530   31.3710   41.8280 H   0  0  0  0  0  0  0  0  0  0  0  0
   37.4300   29.1590   40.0120 C   0  0  0  0  0  0  0  0  0  0  0  0
   37.1850   28.3270   38.9000 C   0  0  0  0  0  0  0  0  0  0  0  0
   36.8920   26.9880   39.1260 C   0  0  0  0  0  0  0  0  0  0  0  0
   36.8580   26.5490   40.4090 N   0  0  0  0  0  0  0  0  0  0  0  0
   37.0940   27.3630   41.4390 C   0  0  0  0  0  0  0  0  0  0  0  0
   37.3740   28.6460   41.2030 N   0  0  0  0  0  0  0  0  0  0  0  0
   37.2220   28.7090   37.9000 H   0  0  0  0  0  0  0  0  0  0  0  0
   36.6990   26.3220   38.2840 H   0  0  0  0  0  0  0  0  0  0  0  0
   37.0140   26.6900   42.7790 C   0  0  0  0  0  0  0  0  0  0  0  0
   36.6070   25.3690   42.6580 F   0  0  0  0  0  0  0  0  0  0  0  0
   36.0110   27.3310   43.5450 F   0  0  0  0  0  0  0  0  0  0  0  0
   38.1910   26.8530   43.4570 F   0  0  0  0  0  0  0  0  0  0  0  0
   41.5920   33.1160   37.6850 C   0  0  0  0  0  0  0  0  0  0  0  0
   42.5530   33.6420   37.7360 H   0  0  0  0  0  0  0  0  0  0  0  0
   41.1140   33.4320   36.7150 H   0  0  0  0  0  0  0  0  0  0  0  0
   41.7830   31.6230   37.5870 C   0  0  0  0  0  0  0  0  0  0  0  0
   40.8720   31.2020   37.1370 H   0  0  0  0  0  0  0  0  0  0  0  0
   41.7990   31.1930   38.6310 H   0  0  0  0  0  0  0  0  0  0  0  0
   43.0420   31.2740   36.8660 C   0  0  0  0  0  0  0  0  0  0  0  0
   44.2650   31.9360   37.2680 C   0  0  0  0  0  0  0  0  0  0  0  0
   44.3710   32.6320   38.0080 H   0  0  0  0  0  0  0  0  0  0  0  0
   45.4330   31.1340   36.0690 S   0  0  0  0  0  0  0  0  0  0  0  0
   44.1110   30.0990   35.2800 C   0  0  0  0  0  0  0  0  0  0  0  0
   44.1770   29.3640   34.4520 H   0  0  0  0  0  0  0  0  0  0  0  0
   42.9240   30.3770   35.9070 N   0  0  0  0  0  0  0  0  0  0  0  0
  1 11  1  0  0  0  0
  1  2  1  0  0  0  0
  2  7  1  0  0  0  0
  3  2  2  0  0  0  0
  3  8  1  0  0  0  0
  4  3  1  0  0  0  0
  5  6  1  0  0  0  0
  5  4  2  0  0  0  0
  6  1  2  0  0  0  0
  9 12  1  6  0  0  0
  9 16  1  0  0  0  0
  9 10  1  0  0  0  0
  9 11  1  0  0  0  0
 10 11  1  0  0  0  0
 10 13  1  0  0  0  0
 11 15  1  1  0  0  0
 14 10  1  0  0  0  0
 16 21  1  0  0  0  0
 17 18  1  0  0  0  0
 17 16  2  0  0  0  0
 18 19  2  0  0  0  0
 19 20  1  0  0  0  0
 20 24  1  0  0  0  0
 21 20  2  0  0  0  0
 22 17  1  0  0  0  0
 23 18  1  0  0  0  0
 24 27  1  0  0  0  0
 24 26  1  0  0  0  0
 25 24  1  0  0  0  0
 28 29  1  0  0  0  0
 28  5  1  0  0  0  0
 30 28  1  0  0  0  0
 31 28  1  0  0  0  0
 31 33  1  0  0  0  0
 32 31  1  0  0  0  0
 34 35  2  0  0  0  0
 34 31  1  0  0  0  0
 35 36  1  0  0  0  0
 37 35  1  0  0  0  0
 38 40  2  0  0  0  0
 38 37  1  0  0  0  0
 39 38  1  0  0  0  0
 40 34  1  0  0  0  0
M  END
>  <minimizedAffinity>
-5.74593019

$$$$

 OpenBabel03252505443D

 40 43  0  0  1  0  0  0  0  0999 V2000
   38.8000   32.5900   40.1980 C   0  0  0  0  0  0  0  0  0  0  0  0
   38.8280   33.7990   40.8590 C   0  0  0  0  0  0  0  0  0  0  0  0
   39.6870   34.8100   40.5180 C   0  0  0  0  0  0  0  0  0  0  0  0
   40.5320   34.5960   39.4930 N   0  0  0  0  0  0  0  0  0  0  0  0
   40.5250   33.4060   38.8220 C   0  0  0  0  0  0  0  0  0  0  0  0
   39.6730   32.4100   39.1620 N   0  0  0  0  0  0  0  0  0  0  0  0
   38.1240   33.9110   41.6750 H   0  0  0  0  0  0  0  0  0  0  0  0
   39.6990   35.7570   41.0440 H   0  0  0  0  0  0  0  0  0  0  0  0
   38.4320   30.1740   40.5750 C   0  0  1  0  0  0  0  0  0  0  0  0
   37.3590   30.5710   39.4990 C   0  0  0  0  0  0  0  0  0  0  0  0
   37.8560   31.4860   40.6170 C   0  0  2  0  0  0  0  0  0  0  0  0
   39.4560   30.0070   40.1210 H   0  0  0  0  0  0  0  0  0  0  0  0
   36.3660   30.1360   39.6380 H   0  0  0  0  0  0  0  0  0  0  0  0
   37.7460   30.8150   38.5000 H   0  0  0  0  0  0  0  0  0  0  0  0
   37.0740   31.8730   41.2730 H   0  0  0  0  0  0  0  0  0  0  0  0
   38.0160   29.0530   41.4420 C   0  0  0  0  0  0  0  0  0  0  0  0
   37.8090   29.3290   42.8100 C   0  0  0  0  0  0  0  0  0  0  0  0
   37.4130   28.2900   43.6430 C   0  0  0  0  0  0  0  0  0  0  0  0
   37.2460   27.0600   43.0960 N   0  0  0  0  0  0  0  0  0  0  0  0
   37.4500   26.8320   41.7970 C   0  0  0  0  0  0  0  0  0  0  0  0
   37.8300   27.8420   41.0120 N   0  0  0  0  0  0  0  0  0  0  0  0
   37.9500   30.3140   43.2060 H   0  0  0  0  0  0  0  0  0  0  0  0
   37.2460   28.4750   44.7050 H   0  0  0  0  0  0  0  0  0  0  0  0
   37.2080   25.4100   41.3820 C   0  0  0  0  0  0  0  0  0  0  0  0
   36.3900   25.3420   40.2640 F   0  0  0  0  0  0  0  0  0  0  0  0
   36.4990   24.7540   42.4160 F   0  0  0  0  0  0  0  0  0  0  0  0
   38.4000   24.7530   41.2440 F   0  0  0  0  0  0  0  0  0  0  0  0
   41.4420   33.1070   37.6930 C   0  0  0  0  0  0  0  0  0  0  0  0
   42.4190   33.5960   37.7830 H   0  0  0  0  0  0  0  0  0  0  0  0
   40.9880   33.4910   36.7360 H   0  0  0  0  0  0  0  0  0  0  0  0
   41.5830   31.6160   37.5170 C   0  0  0  0  0  0  0  0  0  0  0  0
   40.7000   31.2620   36.9650 H   0  0  0  0  0  0  0  0  0  0  0  0
   41.4910   31.1230   38.5300 H   0  0  0  0  0  0  0  0  0  0  0  0
   42.8860   31.2560   36.8860 C   0  0  0  0  0  0  0  0  0  0  0  0
   42.9170   30.1340   35.9730 C   0  0  0  0  0  0  0  0  0  0  0  0
   42.1290   29.5430   35.7000 H   0  0  0  0  0  0  0  0  0  0  0  0
   44.7200   30.1690   35.5340 S   0  0  0  0  0  0  0  0  0  0  0  0
   45.0840   31.6300   36.6190 C   0  0  0  0  0  0  0  0  0  0  0  0
   46.0380   32.1640   36.8020 H   0  0  0  0  0  0  0  0  0  0  0  0
   43.9150   32.0080   37.2270 N   0  0  0  0  0  0  0  0  0  0  0  0
  1 11  1  0  0  0  0
  1  2  1  0  0  0  0
  2  7  1  0  0  0  0
  3  2  2  0  0  0  0
  3  8  1  0  0  0  0
  4  3  1  0  0  0  0
  5  6  1  0  0  0  0
  5  4  2  0  0  0  0
  6  1  2  0  0  0  0
  9 12  1  6  0  0  0
  9 11  1  0  0  0  0
  9 16  1  0  0  0  0
 10 13  1  0  0  0  0
 10  9  1  0  0  0  0
 10 11  1  0  0  0  0
 11 15  1  1  0  0  0
 14 10  1  0  0  0  0
 16 17  1  0  0  0  0
 17 22  1  0  0  0  0
 17 18  2  0  0  0  0
 18 23  1  0  0  0  0
 19 18  1  0  0  0  0
 20 19  2  0  0  0  0
 21 16  2  0  0  0  0
 21 20  1  0  0  0  0
 24 20  1  0  0  0  0
 24 26  1  0  0  0  0
 25 24  1  0  0  0  0
 27 24  1  0  0  0  0
 28 29  1  0  0  0  0
 28  5  1  0  0  0  0
 30 28  1  0  0  0  0
 31 28  1  0  0  0  0
 31 33  1  0  0  0  0
 32 31  1  0  0  0  0
 34 40  1  0  0  0  0
 34 31  1  0  0  0  0
 35 34  2  0  0  0  0
 36 35  1  0  0  0  0
 37 35  1  0  0  0  0
 37 38  1  0  0  0  0
 38 39  1  0  0  0  0
 38 40  2  0  0  0  0
M  END
>  <minimizedAffinity>
-5.70122576

$$$$

 OpenBabel03252505443D

 40 43  0  0  1  0  0  0  0  0999 V2000
   36.8680   28.5440   41.0390 C   0  0  0  0  0  0  0  0  0  0  0  0
   36.5380   27.8140   42.1600 C   0  0  0  0  0  0  0  0  0  0  0  0
   37.1500   27.9970   43.3710 C   0  0  0  0  0  0  0  0  0  0  0  0
   38.1130   28.9340   43.4510 N   0  0  0  0  0  0  0  0  0  0  0  0
   38.4600   29.6710   42.3550 C   0  0  0  0  0  0  0  0  0  0  0  0
   37.8510   29.4870   41.1590 N   0  0  0  0  0  0  0  0  0  0  0  0
   35.7560   27.0740   42.0330 H   0  0  0  0  0  0  0  0  0  0  0  0
   36.8820   27.4180   44.2460 H   0  0  0  0  0  0  0  0  0  0  0  0
   36.4840   29.2810   38.7100 C   0  0  1  0  0  0  0  0  0  0  0  0
   35.0520   29.2530   39.3530 C   0  0  0  0  0  0  0  0  0  0  0  0
   36.1890   28.2980   39.7110 C   0  0  2  0  0  0  0  0  0  0  0  0
   37.0570   30.2210   38.9750 H   0  0  0  0  0  0  0  0  0  0  0  0
   34.2580   28.8430   38.7240 H   0  0  0  0  0  0  0  0  0  0  0  0
   34.8470   30.0250   40.1070 H   0  0  0  0  0  0  0  0  0  0  0  0
   35.9540   27.2390   39.5860 H   0  0  0  0  0  0  0  0  0  0  0  0
   36.4870   29.0160   37.2570 C   0  0  0  0  0  0  0  0  0  0  0  0
   36.6110   27.6740   36.8390 C   0  0  0  0  0  0  0  0  0  0  0  0
   36.6120   27.4020   35.4760 C   0  0  0  0  0  0  0  0  0  0  0  0
   36.4920   28.4430   34.6160 N   0  0  0  0  0  0  0  0  0  0  0  0
   36.3760   29.7020   35.0440 C   0  0  0  0  0  0  0  0  0  0  0  0
   36.3770   29.9450   36.3560 N   0  0  0  0  0  0  0  0  0  0  0  0
   36.7030   26.8770   37.5480 H   0  0  0  0  0  0  0  0  0  0  0  0
   36.7070   26.3730   35.1260 H   0  0  0  0  0  0  0  0  0  0  0  0
   36.2490   30.7120   33.9410 C   0  0  0  0  0  0  0  0  0  0  0  0
   36.9250   30.3020   32.8000 F   0  0  0  0  0  0  0  0  0  0  0  0
   36.8850   31.9090   34.3520 F   0  0  0  0  0  0  0  0  0  0  0  0
   34.9330   31.0170   33.7330 F   0  0  0  0  0  0  0  0  0  0  0  0
   39.5220   30.7080   42.3790 C   0  0  0  0  0  0  0  0  0  0  0  0
   40.3910   30.4300   42.9860 H   0  0  0  0  0  0  0  0  0  0  0  0
   39.1090   31.6510   42.8380 H   0  0  0  0  0  0  0  0  0  0  0  0
   39.9240   31.0750   40.9710 C   0  0  0  0  0  0  0  0  0  0  0  0
   39.3160   30.4680   40.2840 H   0  0  0  0  0  0  0  0  0  0  0  0
   40.9810   30.7160   40.7950 H   0  0  0  0  0  0  0  0  0  0  0  0
   39.8330   32.5450   40.7370 C   0  0  0  0  0  0  0  0  0  0  0  0
   38.5190   33.1470   40.6710 C   0  0  0  0  0  0  0  0  0  0  0  0
   37.6200   32.6700   40.7690 H   0  0  0  0  0  0  0  0  0  0  0  0
   39.0230   34.9090   40.3730 S   0  0  0  0  0  0  0  0  0  0  0  0
   40.8380   34.5230   40.3920 C   0  0  0  0  0  0  0  0  0  0  0  0
   41.7120   35.1930   40.2640 H   0  0  0  0  0  0  0  0  0  0  0  0
   40.9830   33.1770   40.6080 N   0  0  0  0  0  0  0  0  0  0  0  0
  1  6  2  0  0  0  0
  1  2  1  0  0  0  0
  2  3  2  0  0  0  0
  3  4  1  0  0  0  0
  3  8  1  0  0  0  0
  5 28  1  0  0  0  0
  5  4  2  0  0  0  0
  6  5  1  0  0  0  0
  7  2  1  0  0  0  0
  9 12  1  1  0  0  0
  9 10  1  0  0  0  0
  9 11  1  0  0  0  0
 10 11  1  0  0  0  0
 10 14  1  0  0  0  0
 11 15  1  6  0  0  0
 11  1  1  0  0  0  0
 13 10  1  0  0  0  0
 16  9  1  0  0  0  0
 17 16  1  0  0  0  0
 17 22  1  0  0  0  0
 18 17  2  0  0  0  0
 19 20  2  0  0  0  0
 19 18  1  0  0  0  0
 20 21  1  0  0  0  0
 21 16  2  0  0  0  0
 23 18  1  0  0  0  0
 24 26  1  0  0  0  0
 24 20  1  0  0  0  0
 25 24  1  0  0  0  0
 27 24  1  0  0  0  0
 28 30  1  0  0  0  0
 28 29  1  0  0  0  0
 31 28  1  0  0  0  0
 32 31  1  0  0  0  0
 33 31  1  0  0  0  0
 34 31  1  0  0  0  0
 35 34  2  0  0  0  0
 35 36  1  0  0  0  0
 37 38  1  0  0  0  0
 37 35  1  0  0  0  0
 38 40  2  0  0  0  0
 39 38  1  0  0  0  0
 40 34  1  0  0  0  0
M  END
>  <minimizedAffinity>
-5.67250204

$$$$

 OpenBabel03252505443D

 40 43  0  0  1  0  0  0  0  0999 V2000
   37.7260   29.0600   41.3840 C   0  0  0  0  0  0  0  0  0  0  0  0
   37.6020   29.3420   42.7270 C   0  0  0  0  0  0  0  0  0  0  0  0
   37.3170   28.3830   43.6630 C   0  0  0  0  0  0  0  0  0  0  0  0
   37.1540   27.1180   43.2340 N   0  0  0  0  0  0  0  0  0  0  0  0
   37.2700   26.8120   41.9080 C   0  0  0  0  0  0  0  0  0  0  0  0
   37.5530   27.7630   40.9870 N   0  0  0  0  0  0  0  0  0  0  0  0
   37.7430   30.3780   43.0100 H   0  0  0  0  0  0  0  0  0  0  0  0
   37.2230   28.6160   44.7160 H   0  0  0  0  0  0  0  0  0  0  0  0
   38.2400   31.4400   40.9530 C   0  0  1  0  0  0  0  0  0  0  0  0
   36.9080   31.1770   40.1640 C   0  0  0  0  0  0  0  0  0  0  0  0
   38.0160   30.1470   40.3740 C   0  0  2  0  0  0  0  0  0  0  0  0
   38.0590   31.6180   42.0560 H   0  0  0  0  0  0  0  0  0  0  0  0
   36.8500   31.6260   39.1690 H   0  0  0  0  0  0  0  0  0  0  0  0
   36.0090   31.0170   40.7750 H   0  0  0  0  0  0  0  0  0  0  0  0
   38.4280   29.7240   39.4570 H   0  0  0  0  0  0  0  0  0  0  0  0
   39.0900   32.4870   40.3490 C   0  0  0  0  0  0  0  0  0  0  0  0
   38.9370   33.8060   40.8250 C   0  0  0  0  0  0  0  0  0  0  0  0
   39.7290   34.8050   40.2740 C   0  0  0  0  0  0  0  0  0  0  0  0
   40.6120   34.4590   39.3040 N   0  0  0  0  0  0  0  0  0  0  0  0
   40.7330   33.2010   38.8770 C   0  0  0  0  0  0  0  0  0  0  0  0
   39.9640   32.2540   39.4170 N   0  0  0  0  0  0  0  0  0  0  0  0
   38.2280   34.0410   41.5930 H   0  0  0  0  0  0  0  0  0  0  0  0
   39.6300   35.8340   40.6230 H   0  0  0  0  0  0  0  0  0  0  0  0
   41.7660   33.0180   37.8030 C   0  0  0  0  0  0  0  0  0  0  0  0
   42.9600   32.5420   38.3270 F   0  0  0  0  0  0  0  0  0  0  0  0
   42.0700   34.2860   37.2500 F   0  0  0  0  0  0  0  0  0  0  0  0
   41.2570   32.2570   36.7870 F   0  0  0  0  0  0  0  0  0  0  0  0
   37.0890   25.4380   41.3750 C   0  0  0  0  0  0  0  0  0  0  0  0
   37.2660   25.3620   40.2960 H   0  0  0  0  0  0  0  0  0  0  0  0
   36.0220   25.1150   41.5400 H   0  0  0  0  0  0  0  0  0  0  0  0
   37.9420   24.4620   42.1470 C   0  0  0  0  0  0  0  0  0  0  0  0
   37.6640   23.4490   41.8210 H   0  0  0  0  0  0  0  0  0  0  0  0
   37.6340   24.4970   43.2340 H   0  0  0  0  0  0  0  0  0  0  0  0
   39.3950   24.7740   42.0130 C   0  0  0  0  0  0  0  0  0  0  0  0
   40.1710   24.9460   43.2220 C   0  0  0  0  0  0  0  0  0  0  0  0
   39.8320   24.8770   44.1840 H   0  0  0  0  0  0  0  0  0  0  0  0
   41.8240   25.3020   42.4560 S   0  0  0  0  0  0  0  0  0  0  0  0
   41.1880   25.1580   40.7180 C   0  0  0  0  0  0  0  0  0  0  0  0
   41.7190   25.2690   39.7510 H   0  0  0  0  0  0  0  0  0  0  0  0
   39.8490   24.8680   40.7790 N   0  0  0  0  0  0  0  0  0  0  0  0
  1  2  1  0  0  0  0
  2  7  1  0  0  0  0
  2  3  2  0  0  0  0
  3  8  1  0  0  0  0
  4  3  1  0  0  0  0
  5  4  2  0  0  0  0
  6  1  2  0  0  0  0
  6  5  1  0  0  0  0
  9 12  1  1  0  0  0
 10 11  1  0  0  0  0
 10 14  1  0  0  0  0
 10  9  1  0  0  0  0
 11 15  1  6  0  0  0
 11  9  1  0  0  0  0
 11  1  1  0  0  0  0
 13 10  1  0  0  0  0
 16 17  1  0  0  0  0
 16  9  1  0  0  0  0
 17 22  1  0  0  0  0
 18 23  1  0  0  0  0
 18 17  2  0  0  0  0
 19 18  1  0  0  0  0
 20 19  2  0  0  0  0
 20 21  1  0  0  0  0
 21 16  2  0  0  0  0
 24 25  1  0  0  0  0
 24 20  1  0  0  0  0
 26 24  1  0  0  0  0
 27 24  1  0  0  0  0
 28 30  1  0  0  0  0
 28  5  1  0  0  0  0
 28 31  1  0  0  0  0
 29 28  1  0  0  0  0
 31 33  1  0  0  0  0
 32 31  1  0  0  0  0
 34 31  1  0  0  0  0
 34 35  2  0  0  0  0
 35 36  1  0  0  0  0
 37 35  1  0  0  0  0
 38 40  2  0  0  0  0
 38 37  1  0  0  0  0
 39 38  1  0  0  0  0
 40 34  1  0  0  0  0
M  END
>  <minimizedAffinity>
-5.65350056

$$$$

 OpenBabel03252505443D

 40 43  0  0  1  0  0  0  0  0999 V2000
   35.7800   29.4680   37.9650 C   0  0  0  0  0  0  0  0  0  0  0  0
   36.7350   29.7140   37.0020 C   0  0  0  0  0  0  0  0  0  0  0  0
   36.4700   29.6410   35.6600 C   0  0  0  0  0  0  0  0  0  0  0  0
   35.2200   29.3150   35.2850 N   0  0  0  0  0  0  0  0  0  0  0  0
   34.2550   29.0650   36.2190 C   0  0  0  0  0  0  0  0  0  0  0  0
   34.5210   29.1390   37.5450 N   0  0  0  0  0  0  0  0  0  0  0  0
   37.7220   29.9720   37.3650 H   0  0  0  0  0  0  0  0  0  0  0  0
   37.2280   29.8380   34.9120 H   0  0  0  0  0  0  0  0  0  0  0  0
   36.2930   28.2510   40.0550 C   0  0  1  0  0  0  0  0  0  0  0  0
   35.0080   29.0880   40.3940 C   0  0  0  0  0  0  0  0  0  0  0  0
   36.1140   29.5320   39.4380 C   0  0  2  0  0  0  0  0  0  0  0  0
   36.0500   27.2990   39.4910 H   0  0  0  0  0  0  0  0  0  0  0  0
   35.0000   29.5670   41.3760 H   0  0  0  0  0  0  0  0  0  0  0  0
   34.0800   28.7660   39.9040 H   0  0  0  0  0  0  0  0  0  0  0  0
   36.5800   30.4870   39.6880 H   0  0  0  0  0  0  0  0  0  0  0  0
   37.1640   28.0030   41.2220 C   0  0  0  0  0  0  0  0  0  0  0  0
   37.3690   29.0700   42.1210 C   0  0  0  0  0  0  0  0  0  0  0  0
   38.1820   28.8570   43.2270 C   0  0  0  0  0  0  0  0  0  0  0  0
   38.7370   27.6300   43.3870 N   0  0  0  0  0  0  0  0  0  0  0  0
   38.5220   26.6410   42.5180 C   0  0  0  0  0  0  0  0  0  0  0  0
   37.7390   26.8630   41.4610 N   0  0  0  0  0  0  0  0  0  0  0  0
   36.9140   30.0260   41.9620 H   0  0  0  0  0  0  0  0  0  0  0  0
   38.3580   29.6650   43.9390 H   0  0  0  0  0  0  0  0  0  0  0  0
   39.2180   25.3580   42.8690 C   0  0  0  0  0  0  0  0  0  0  0  0
   39.8770   25.4570   44.0860 F   0  0  0  0  0  0  0  0  0  0  0  0
   40.2270   25.1150   41.9060 F   0  0  0  0  0  0  0  0  0  0  0  0
   38.3400   24.3120   42.7920 F   0  0  0  0  0  0  0  0  0  0  0  0
   32.8630   28.6880   35.8660 C   0  0  0  0  0  0  0  0  0  0  0  0
   32.2490   28.4230   36.7350 H   0  0  0  0  0  0  0  0  0  0  0  0
   32.8830   27.7740   35.2070 H   0  0  0  0  0  0  0  0  0  0  0  0
   32.2200   29.7780   35.0440 C   0  0  0  0  0  0  0  0  0  0  0  0
   31.7480   29.3000   34.1730 H   0  0  0  0  0  0  0  0  0  0  0  0
   33.0350   30.4210   34.5990 H   0  0  0  0  0  0  0  0  0  0  0  0
   31.2950   30.6130   35.8640 C   0  0  0  0  0  0  0  0  0  0  0  0
   30.9110   30.1260   37.1710 C   0  0  0  0  0  0  0  0  0  0  0  0
   31.2080   29.2530   37.6120 H   0  0  0  0  0  0  0  0  0  0  0  0
   29.8030   31.5240   37.6860 S   0  0  0  0  0  0  0  0  0  0  0  0
   30.0520   32.4670   36.1070 C   0  0  0  0  0  0  0  0  0  0  0  0
   29.6340   33.4420   35.7830 H   0  0  0  0  0  0  0  0  0  0  0  0
   30.9010   31.7440   35.3100 N   0  0  0  0  0  0  0  0  0  0  0  0
  1 11  1  0  0  0  0
  2  7  1  0  0  0  0
  2  1  2  0  0  0  0
  3  2  1  0  0  0  0
  4  3  2  0  0  0  0
  4  5  1  0  0  0  0
  5  6  2  0  0  0  0
  6  1  1  0  0  0  0
  8  3  1  0  0  0  0
  9 12  1  6  0  0  0
  9 10  1  0  0  0  0
  9 16  1  0  0  0  0
 10 13  1  0  0  0  0
 11 15  1  1  0  0  0
 11  9  1  0  0  0  0
 11 10  1  0  0  0  0
 14 10  1  0  0  0  0
 16 21  2  0  0  0  0
 16 17  1  0  0  0  0
 17 18  2  0  0  0  0
 18 19  1  0  0  0  0
 18 23  1  0  0  0  0
 20 24  1  0  0  0  0
 20 19  2  0  0  0  0
 21 20  1  0  0  0  0
 22 17  1  0  0  0  0
 24 25  1  0  0  0  0
 26 24  1  0  0  0  0
 27 24  1  0  0  0  0
 28  5  1  0  0  0  0
 28 29  1  0  0  0  0
 30 28  1  0  0  0  0
 31 34  1  0  0  0  0
 31 28  1  0  0  0  0
 32 31  1  0  0  0  0
 33 31  1  0  0  0  0
 34 35  2  0  0  0  0
 35 36  1  0  0  0  0
 35 37  1  0  0  0  0
 38 37  1  0  0  0  0
 39 38  1  0  0  0  0
 40 34  1  0  0  0  0
 40 38  2  0  0  0  0
M  END
>  <minimizedAffinity>
-5.57006454

$$$$

 OpenBabel03252505443D

 40 43  0  0  1  0  0  0  0  0999 V2000
   36.8780   30.5120   38.9910 C   0  0  0  0  0  0  0  0  0  0  0  0
   36.1100   29.8610   38.0510 C   0  0  0  0  0  0  0  0  0  0  0  0
   35.4240   28.7070   38.3240 C   0  0  0  0  0  0  0  0  0  0  0  0
   35.5180   28.2020   39.5670 N   0  0  0  0  0  0  0  0  0  0  0  0
   36.2740   28.8270   40.5170 C   0  0  0  0  0  0  0  0  0  0  0  0
   36.9490   29.9680   40.2430 N   0  0  0  0  0  0  0  0  0  0  0  0
   36.0730   30.3170   37.0680 H   0  0  0  0  0  0  0  0  0  0  0  0
   34.8220   28.2050   37.5770 H   0  0  0  0  0  0  0  0  0  0  0  0
   38.3900   32.3190   39.7420 C   0  0  1  0  0  0  0  0  0  0  0  0
   37.1010   33.0660   39.2490 C   0  0  0  0  0  0  0  0  0  0  0  0
   37.6430   31.7710   38.6490 C   0  0  2  0  0  0  0  0  0  0  0  0
   38.2730   31.9020   40.7880 H   0  0  0  0  0  0  0  0  0  0  0  0
   37.2730   33.9760   38.6680 H   0  0  0  0  0  0  0  0  0  0  0  0
   36.2040   32.9440   39.8720 H   0  0  0  0  0  0  0  0  0  0  0  0
   37.8560   31.8160   37.5790 H   0  0  0  0  0  0  0  0  0  0  0  0
   39.6280   33.1100   39.5910 C   0  0  0  0  0  0  0  0  0  0  0  0
   39.8500   34.1560   40.5110 C   0  0  0  0  0  0  0  0  0  0  0  0
   41.0100   34.9110   40.3900 C   0  0  0  0  0  0  0  0  0  0  0  0
   41.8730   34.6010   39.3900 N   0  0  0  0  0  0  0  0  0  0  0  0
   41.6330   33.6040   38.5360 C   0  0  0  0  0  0  0  0  0  0  0  0
   40.5140   32.8900   38.6680 N   0  0  0  0  0  0  0  0  0  0  0  0
   39.1460   34.3710   41.2890 H   0  0  0  0  0  0  0  0  0  0  0  0
   41.2060   35.7260   41.0880 H   0  0  0  0  0  0  0  0  0  0  0  0
   42.7070   33.4140   37.5040 C   0  0  0  0  0  0  0  0  0  0  0  0
   42.4390   32.3220   36.6910 F   0  0  0  0  0  0  0  0  0  0  0  0
   43.9200   33.1090   38.1680 F   0  0  0  0  0  0  0  0  0  0  0  0
   42.9140   34.5820   36.8230 F   0  0  0  0  0  0  0  0  0  0  0  0
   36.4260   28.3100   41.9010 C   0  0  0  0  0  0  0  0  0  0  0  0
   36.6530   27.2380   41.9440 H   0  0  0  0  0  0  0  0  0  0  0  0
   35.4550   28.4460   42.4560 H   0  0  0  0  0  0  0  0  0  0  0  0
   37.4510   29.1240   42.6520 C   0  0  0  0  0  0  0  0  0  0  0  0
   36.9690   29.5000   43.5660 H   0  0  0  0  0  0  0  0  0  0  0  0
   37.6770   30.0560   42.0550 H   0  0  0  0  0  0  0  0  0  0  0  0
   38.7030   28.3490   42.8900 C   0  0  0  0  0  0  0  0  0  0  0  0
   39.9110   28.7770   42.2180 C   0  0  0  0  0  0  0  0  0  0  0  0
   40.0100   29.5710   41.5820 H   0  0  0  0  0  0  0  0  0  0  0  0
   41.0770   27.4890   42.8710 S   0  0  0  0  0  0  0  0  0  0  0  0
   39.7730   26.6450   43.8880 C   0  0  0  0  0  0  0  0  0  0  0  0
   39.8450   25.7570   44.5480 H   0  0  0  0  0  0  0  0  0  0  0  0
   38.5930   27.3200   43.7090 N   0  0  0  0  0  0  0  0  0  0  0  0
  1  6  1  0  0  0  0
  2  3  1  0  0  0  0
  2  1  2  0  0  0  0
  3  4  2  0  0  0  0
  4  5  1  0  0  0  0
  5 28  1  0  0  0  0
  6  5  2  0  0  0  0
  7  2  1  0  0  0  0
  8  3  1  0  0  0  0
  9 12  1  1  0  0  0
 10  9  1  0  0  0  0
 10 14  1  0  0  0  0
 11 15  1  6  0  0  0
 11  1  1  0  0  0  0
 11 10  1  0  0  0  0
 11  9  1  0  0  0  0
 13 10  1  0  0  0  0
 16  9  1  0  0  0  0
 16 17  1  0  0  0  0
 17 22  1  0  0  0  0
 18 17  2  0  0  0  0
 18 23  1  0  0  0  0
 19 18  1  0  0  0  0
 20 21  1  0  0  0  0
 20 19  2  0  0  0  0
 21 16  2  0  0  0  0
 24 26  1  0  0  0  0
 24 20  1  0  0  0  0
 25 24  1  0  0  0  0
 27 24  1  0  0  0  0
 28 29  1  0  0  0  0
 28 30  1  0  0  0  0
 28 31  1  0  0  0  0
 31 34  1  0  0  0  0
 31 32  1  0  0  0  0
 33 31  1  0  0  0  0
 34 40  1  0  0  0  0
 35 37  1  0  0  0  0
 35 34  2  0  0  0  0
 36 35  1  0  0  0  0
 37 38  1  0  0  0  0
 38 39  1  0  0  0  0
 40 38  2  0  0  0  0
M  END
>  <minimizedAffinity>
-5.55668306

$$$$

 OpenBabel03252505443D

 40 43  0  0  1  0  0  0  0  0999 V2000
   38.2760   32.4100   40.5770 C   0  0  0  0  0  0  0  0  0  0  0  0
   37.7650   33.6270   40.1820 C   0  0  0  0  0  0  0  0  0  0  0  0
   38.5510   34.7300   39.9810 C   0  0  0  0  0  0  0  0  0  0  0  0
   39.8750   34.6020   40.1820 N   0  0  0  0  0  0  0  0  0  0  0  0
   40.4070   33.4060   40.5750 C   0  0  0  0  0  0  0  0  0  0  0  0
   39.6260   32.3180   40.7720 N   0  0  0  0  0  0  0  0  0  0  0  0
   36.6920   33.6680   40.0370 H   0  0  0  0  0  0  0  0  0  0  0  0
   38.1390   35.6820   39.6690 H   0  0  0  0  0  0  0  0  0  0  0  0
   38.0390   29.9520   40.7090 C   0  0  1  0  0  0  0  0  0  0  0  0
   37.0320   30.3830   39.5840 C   0  0  0  0  0  0  0  0  0  0  0  0
   37.3750   31.2180   40.8150 C   0  0  2  0  0  0  0  0  0  0  0  0
   39.1040   29.8880   40.3320 H   0  0  0  0  0  0  0  0  0  0  0  0
   36.0620   29.8800   39.5980 H   0  0  0  0  0  0  0  0  0  0  0  0
   37.4800   30.7400   38.6470 H   0  0  0  0  0  0  0  0  0  0  0  0
   36.5200   31.4970   41.4330 H   0  0  0  0  0  0  0  0  0  0  0  0
   37.6290   28.7330   41.4360 C   0  0  0  0  0  0  0  0  0  0  0  0
   37.3280   28.8620   42.8080 C   0  0  0  0  0  0  0  0  0  0  0  0
   36.9370   27.7290   43.5100 C   0  0  0  0  0  0  0  0  0  0  0  0
   36.8630   26.5540   42.8380 N   0  0  0  0  0  0  0  0  0  0  0  0
   37.1540   26.4650   41.5390 C   0  0  0  0  0  0  0  0  0  0  0  0
   37.5280   27.5640   40.8800 N   0  0  0  0  0  0  0  0  0  0  0  0
   37.3970   29.8080   43.3050 H   0  0  0  0  0  0  0  0  0  0  0  0
   36.6990   27.8010   44.5730 H   0  0  0  0  0  0  0  0  0  0  0  0
   37.0090   25.0820   40.9740 C   0  0  0  0  0  0  0  0  0  0  0  0
   38.2050   24.6260   40.4400 F   0  0  0  0  0  0  0  0  0  0  0  0
   36.1010   25.1320   39.8890 F   0  0  0  0  0  0  0  0  0  0  0  0
   36.4590   24.2490   41.9090 F   0  0  0  0  0  0  0  0  0  0  0  0
   41.8570   33.2070   40.8250 C   0  0  0  0  0  0  0  0  0  0  0  0
   42.2470   32.2700   40.4100 H   0  0  0  0  0  0  0  0  0  0  0  0
   42.0380   33.1560   41.9360 H   0  0  0  0  0  0  0  0  0  0  0  0
   42.6390   34.3990   40.3320 C   0  0  0  0  0  0  0  0  0  0  0  0
   42.9500   34.9790   41.2140 H   0  0  0  0  0  0  0  0  0  0  0  0
   41.9350   35.0900   39.7820 H   0  0  0  0  0  0  0  0  0  0  0  0
   43.7620   33.9900   39.4380 C   0  0  0  0  0  0  0  0  0  0  0  0
   43.4530   33.6440   38.0670 C   0  0  0  0  0  0  0  0  0  0  0  0
   42.5310   33.6490   37.6270 H   0  0  0  0  0  0  0  0  0  0  0  0
   45.1660   33.2370   37.4800 S   0  0  0  0  0  0  0  0  0  0  0  0
   45.9490   33.5930   39.1240 C   0  0  0  0  0  0  0  0  0  0  0  0
   47.0110   33.5340   39.4370 H   0  0  0  0  0  0  0  0  0  0  0  0
   44.9590   33.9780   39.9910 N   0  0  0  0  0  0  0  0  0  0  0  0
  1  6  1  0  0  0  0
  1 11  1  0  0  0  0
  2  1  2  0  0  0  0
  3  2  1  0  0  0  0
  3  4  2  0  0  0  0
  4  5  1  0  0  0  0
  5  6  2  0  0  0  0
  5 28  1  0  0  0  0
  7  2  1  0  0  0  0
  8  3  1  0  0  0  0
  9 12  1  6  0  0  0
  9 11  1  0  0  0  0
  9 16  1  0  0  0  0
 10 13  1  0  0  0  0
 10  9  1  0  0  0  0
 10 11  1  0  0  0  0
 11 15  1  1  0  0  0
 14 10  1  0  0  0  0
 16 17  1  0  0  0  0
 17 22  1  0  0  0  0
 17 18  2  0  0  0  0
 18 23  1  0  0  0  0
 19 18  1  0  0  0  0
 20 19  2  0  0  0  0
 21 16  2  0  0  0  0
 21 20  1  0  0  0  0
 24 20  1  0  0  0  0
 24 27  1  0  0  0  0
 25 24  1  0  0  0  0
 26 24  1  0  0  0  0
 28 30  1  0  0  0  0
 29 28  1  0  0  0  0
 31 28  1  0  0  0  0
 31 32  1  0  0  0  0
 33 31  1  0  0  0  0
 34 40  1  0  0  0  0
 34 31  1  0  0  0  0
 35 34  2  0  0  0  0
 36 35  1  0  0  0  0
 37 35  1  0  0  0  0
 37 38  1  0  0  0  0
 38 39  1  0  0  0  0
 38 40  2  0  0  0  0
M  END
>  <minimizedAffinity>
-5.52526236

$$$$

 OpenBabel03252505443D

 40 43  0  0  1  0  0  0  0  0999 V2000
   37.6100   30.7060   41.1160 C   0  0  0  0  0  0  0  0  0  0  0  0
   36.6000   30.8130   40.1840 C   0  0  0  0  0  0  0  0  0  0  0  0
   35.6060   29.8800   40.0570 C   0  0  0  0  0  0  0  0  0  0  0  0
   35.6330   28.8200   40.8840 N   0  0  0  0  0  0  0  0  0  0  0  0
   36.6230   28.6880   41.8160 C   0  0  0  0  0  0  0  0  0  0  0  0
   37.6030   29.6150   41.9390 N   0  0  0  0  0  0  0  0  0  0  0  0
   36.6330   31.6890   39.5460 H   0  0  0  0  0  0  0  0  0  0  0  0
   34.8170   29.9750   39.3210 H   0  0  0  0  0  0  0  0  0  0  0  0
   39.8560   31.4560   40.4050 C   0  0  1  0  0  0  0  0  0  0  0  0
   39.9640   31.3180   41.9660 C   0  0  0  0  0  0  0  0  0  0  0  0
   38.7060   31.7430   41.2120 C   0  0  2  0  0  0  0  0  0  0  0  0
   39.9580   30.4600   39.8770 H   0  0  0  0  0  0  0  0  0  0  0  0
   40.5130   32.1140   42.4750 H   0  0  0  0  0  0  0  0  0  0  0  0
   39.9380   30.2930   42.3620 H   0  0  0  0  0  0  0  0  0  0  0  0
   38.2990   32.7110   41.5090 H   0  0  0  0  0  0  0  0  0  0  0  0
   40.7530   32.4840   39.8380 C   0  0  0  0  0  0  0  0  0  0  0  0
   40.2870   33.8150   39.8150 C   0  0  0  0  0  0  0  0  0  0  0  0
   41.1160   34.7980   39.2890 C   0  0  0  0  0  0  0  0  0  0  0  0
   42.3340   34.4260   38.8240 N   0  0  0  0  0  0  0  0  0  0  0  0
   42.7450   33.1580   38.8610 C   0  0  0  0  0  0  0  0  0  0  0  0
   41.9360   32.2260   39.3690 N   0  0  0  0  0  0  0  0  0  0  0  0
   39.3180   34.0720   40.1920 H   0  0  0  0  0  0  0  0  0  0  0  0
   40.7800   35.8360   39.2590 H   0  0  0  0  0  0  0  0  0  0  0  0
   44.1230   32.9470   38.3040 C   0  0  0  0  0  0  0  0  0  0  0  0
   44.6840   34.1410   37.8750 F   0  0  0  0  0  0  0  0  0  0  0  0
   44.0230   32.1350   37.1490 F   0  0  0  0  0  0  0  0  0  0  0  0
   44.8920   32.2590   39.2030 F   0  0  0  0  0  0  0  0  0  0  0  0
   36.7120   27.5350   42.7470 C   0  0  0  0  0  0  0  0  0  0  0  0
   36.7520   26.5650   42.2380 H   0  0  0  0  0  0  0  0  0  0  0  0
   35.7900   27.5100   43.3960 H   0  0  0  0  0  0  0  0  0  0  0  0
   37.8760   27.7150   43.6900 C   0  0  0  0  0  0  0  0  0  0  0  0
   37.4780   27.7030   44.7150 H   0  0  0  0  0  0  0  0  0  0  0  0
   38.2830   28.7620   43.5640 H   0  0  0  0  0  0  0  0  0  0  0  0
   38.9510   26.7120   43.4360 C   0  0  0  0  0  0  0  0  0  0  0  0
   38.6550   25.6010   42.5570 C   0  0  0  0  0  0  0  0  0  0  0  0
   37.7730   25.4190   42.0740 H   0  0  0  0  0  0  0  0  0  0  0  0
   40.2940   24.7330   42.6270 S   0  0  0  0  0  0  0  0  0  0  0  0
   41.0440   25.9770   43.7830 C   0  0  0  0  0  0  0  0  0  0  0  0
   42.0600   26.0210   44.2240 H   0  0  0  0  0  0  0  0  0  0  0  0
   40.0970   26.9310   44.0510 N   0  0  0  0  0  0  0  0  0  0  0  0
  1 11  1  0  0  0  0
  1  6  1  0  0  0  0
  2  1  2  0  0  0  0
  3  2  1  0  0  0  0
  3  4  2  0  0  0  0
  4  5  1  0  0  0  0
  5  6  2  0  0  0  0
  5 28  1  0  0  0  0
  7  2  1  0  0  0  0
  8  3  1  0  0  0  0
  9 12  1  6  0  0  0
  9 11  1  0  0  0  0
  9 10  1  0  0  0  0
 10 14  1  0  0  0  0
 10 13  1  0  0  0  0
 11 15  1  1  0  0  0
 11 10  1  0  0  0  0
 16  9  1  0  0  0  0
 17 16  1  0  0  0  0
 17 22  1  0  0  0  0
 18 17  2  0  0  0  0
 19 20  2  0  0  0  0
 19 18  1  0  0  0  0
 20 21  1  0  0  0  0
 21 16  2  0  0  0  0
 23 18  1  0  0  0  0
 24 20  1  0  0  0  0
 24 27  1  0  0  0  0
 25 24  1  0  0  0  0
 26 24  1  0  0  0  0
 28 30  1  0  0  0  0
 28 31  1  0  0  0  0
 29 28  1  0  0  0  0
 31 32  1  0  0  0  0
 33 31  1  0  0  0  0
 34 31  1  0  0  0  0
 34 40  1  0  0  0  0
 35 37  1  0  0  0  0
 35 34  2  0  0  0  0
 36 35  1  0  0  0  0
 37 38  1  0  0  0  0
 38 40  2  0  0  0  0
 38 39  1  0  0  0  0
M  END
>  <minimizedAffinity>
-5.46221161

$$$$
