
 OpenBabel03242511483D

 42 44  0  0  0  0  0  0  0  0999 V2000
   35.6450   28.9360   40.9250 C   0  0  0  0  0  0  0  0  0  0  0  0
   34.6910   28.7510   41.4960 H   0  0  0  0  0  0  0  0  0  0  0  0
   35.5560   28.3250   40.0090 H   0  0  0  0  0  0  0  0  0  0  0  0
   38.4910   28.8680   43.2230 C   0  0  0  0  0  0  0  0  0  0  0  0
   38.8450   27.4970   43.2140 C   0  0  0  0  0  0  0  0  0  0  0  0
   38.0820   26.6410   42.4160 C   0  0  0  0  0  0  0  0  0  0  0  0
   37.0730   27.1630   41.7170 N   0  0  0  0  0  0  0  0  0  0  0  0
   36.7740   28.4700   41.7550 C   0  0  0  0  0  0  0  0  0  0  0  0
   37.4460   29.3160   42.4780 N   0  0  0  0  0  0  0  0  0  0  0  0
   39.0740   29.5460   43.8390 H   0  0  0  0  0  0  0  0  0  0  0  0
   39.6820   27.1920   43.8230 H   0  0  0  0  0  0  0  0  0  0  0  0
   38.4770   25.2200   42.4140 C   0  0  0  0  0  0  0  0  0  0  0  0
   39.2530   25.1110   41.6240 H   0  0  0  0  0  0  0  0  0  0  0  0
   39.0090   24.9580   43.3590 H   0  0  0  0  0  0  0  0  0  0  0  0
   37.3390   24.2960   42.2020 C   0  0  0  0  0  0  0  0  0  0  0  0
   36.3960   24.9080   42.3840 H   0  0  0  0  0  0  0  0  0  0  0  0
   37.3380   23.5980   43.0830 H   0  0  0  0  0  0  0  0  0  0  0  0
   37.2430   23.6100   40.9220 C   0  0  0  0  0  0  0  0  0  0  0  0
   36.2280   23.7070   39.9730 C   0  0  0  0  0  0  0  0  0  0  0  0
   35.3150   24.2670   39.9120 H   0  0  0  0  0  0  0  0  0  0  0  0
   36.7640   22.5380   38.6340 S   0  0  0  0  0  0  0  0  0  0  0  0
   38.3220   22.1170   39.6470 C   0  0  0  0  0  0  0  0  0  0  0  0
   39.1080   21.3780   39.2910 H   0  0  0  0  0  0  0  0  0  0  0  0
   38.2060   22.7660   40.5880 N   0  0  0  0  0  0  0  0  0  0  0  0
   35.8100   30.3930   40.6370 C   0  0  0  0  0  0  0  0  0  0  0  0
   34.8080   30.9070   40.7130 H   0  0  0  0  0  0  0  0  0  0  0  0
   36.4230   30.9140   41.4180 H   0  0  0  0  0  0  0  0  0  0  0  0
   36.4060   30.6570   39.3490 C   0  0  0  0  0  0  0  0  0  0  0  0
   36.4190   29.8850   38.2150 C   0  0  0  0  0  0  0  0  0  0  0  0
   37.0140   30.2420   37.0460 C   0  0  0  0  0  0  0  0  0  0  0  0
   37.6500   31.4610   36.9900 C   0  0  0  0  0  0  0  0  0  0  0  0
   37.6490   32.2500   38.1150 C   0  0  0  0  0  0  0  0  0  0  0  0
   37.0390   31.8690   39.2920 C   0  0  0  0  0  0  0  0  0  0  0  0
   35.8970   28.9240   38.3180 H   0  0  0  0  0  0  0  0  0  0  0  0
   36.9460   29.5410   36.2400 H   0  0  0  0  0  0  0  0  0  0  0  0
   38.1070   31.6880   36.0250 H   0  0  0  0  0  0  0  0  0  0  0  0
   38.1980   33.1810   37.8940 H   0  0  0  0  0  0  0  0  0  0  0  0
   38.5100   32.8590   40.9450 C   0  0  0  0  0  0  0  0  0  0  0  0
   39.5460   32.1060   41.0140 O   0  0  0  0  0  0  0  0  0  0  0  0
   37.2530   32.9280   40.2400 N   0  0  0  0  0  0  0  0  0  0  0  0
   38.9240   33.5360   41.6910 H   0  0  0  0  0  0  0  0  0  0  0  0
   36.6970   33.7530   40.5440 H   0  0  0  0  0  0  0  0  0  0  0  0
  1  2  1  0  0  0  0
  1  8  1  0  0  0  0
  3  1  1  0  0  0  0
  4 10  1  0  0  0  0
  5  4  1  0  0  0  0
  5 11  1  0  0  0  0
  6  5  2  0  0  0  0
  7  8  2  0  0  0  0
  7  6  1  0  0  0  0
  8  9  1  0  0  0  0
  9  4  2  0  0  0  0
 12  6  1  0  0  0  0
 12 14  1  0  0  0  0
 13 12  1  0  0  0  0
 15 16  1  0  0  0  0
 15 12  1  0  0  0  0
 15 17  1  0  0  0  0
 18 15  1  0  0  0  0
 19 18  2  0  0  0  0
 20 19  1  0  0  0  0
 21 22  1  0  0  0  0
 21 19  1  0  0  0  0
 22 24  2  0  0  0  0
 23 22  1  0  0  0  0
 24 18  1  0  0  0  0
 25 26  1  0  0  0  0
 25  1  1  0  0  0  0
 25 27  1  0  0  0  0
 28 25  1  0  0  0  0
 29 34  1  0  0  0  0
 29 28  2  0  0  0  0
 30 29  1  0  0  0  0
 31 30  2  0  0  0  0
 31 32  1  0  0  0  0
 32 33  2  0  0  0  0
 33 28  1  0  0  0  0
 33 40  1  0  0  0  0
 35 30  1  0  0  0  0
 36 31  1  0  0  0  0
 37 32  1  0  0  0  0
 38 39  2  0  0  0  0
 38 41  1  0  0  0  0
 40 42  1  0  0  0  0
 40 38  1  0  0  0  0
M  END
>  <minimizedAffinity>
-5.78859043

$$$$

 OpenBabel03242511483D

 42 44  0  0  0  0  0  0  0  0999 V2000
   35.4780   28.9280   39.5490 C   0  0  0  0  0  0  0  0  0  0  0  0
   35.7380   27.9210   39.1140 H   0  0  0  0  0  0  0  0  0  0  0  0
   34.3970   29.0540   39.3610 H   0  0  0  0  0  0  0  0  0  0  0  0
   37.3200   30.7130   36.9390 C   0  0  0  0  0  0  0  0  0  0  0  0
   37.7080   31.8980   37.6090 C   0  0  0  0  0  0  0  0  0  0  0  0
   37.3140   32.0410   38.9410 C   0  0  0  0  0  0  0  0  0  0  0  0
   36.6000   31.0610   39.4970 N   0  0  0  0  0  0  0  0  0  0  0  0
   36.2550   29.9540   38.8230 C   0  0  0  0  0  0  0  0  0  0  0  0
   36.5920   29.7620   37.5830 N   0  0  0  0  0  0  0  0  0  0  0  0
   37.6180   30.5860   35.9020 H   0  0  0  0  0  0  0  0  0  0  0  0
   38.2850   32.6210   37.0540 H   0  0  0  0  0  0  0  0  0  0  0  0
   37.7400   33.2790   39.6220 C   0  0  0  0  0  0  0  0  0  0  0  0
   38.1250   33.9570   38.8290 H   0  0  0  0  0  0  0  0  0  0  0  0
   36.8590   33.8200   40.0410 H   0  0  0  0  0  0  0  0  0  0  0  0
   38.7440   33.0470   40.6860 C   0  0  0  0  0  0  0  0  0  0  0  0
   38.6140   31.9630   41.0120 H   0  0  0  0  0  0  0  0  0  0  0  0
   38.3760   33.6080   41.5870 H   0  0  0  0  0  0  0  0  0  0  0  0
   40.1420   33.3050   40.3770 C   0  0  0  0  0  0  0  0  0  0  0  0
   40.6600   34.1610   39.4080 C   0  0  0  0  0  0  0  0  0  0  0  0
   40.2220   34.8200   38.6830 H   0  0  0  0  0  0  0  0  0  0  0  0
   42.4980   33.9500   39.5710 S   0  0  0  0  0  0  0  0  0  0  0  0
   42.2130   32.6920   40.9740 C   0  0  0  0  0  0  0  0  0  0  0  0
   43.0640   32.1720   41.5170 H   0  0  0  0  0  0  0  0  0  0  0  0
   41.0680   32.6530   41.0610 N   0  0  0  0  0  0  0  0  0  0  0  0
   35.8260   28.9780   41.0010 C   0  0  0  0  0  0  0  0  0  0  0  0
   36.4030   29.9240   41.2180 H   0  0  0  0  0  0  0  0  0  0  0  0
   34.9180   29.0790   41.6530 H   0  0  0  0  0  0  0  0  0  0  0  0
   36.5730   27.8270   41.4490 C   0  0  0  0  0  0  0  0  0  0  0  0
   36.5840   26.5450   40.9600 C   0  0  0  0  0  0  0  0  0  0  0  0
   37.3390   25.5340   41.4650 C   0  0  0  0  0  0  0  0  0  0  0  0
   38.1520   25.8090   42.5410 C   0  0  0  0  0  0  0  0  0  0  0  0
   38.1570   27.0870   43.0460 C   0  0  0  0  0  0  0  0  0  0  0  0
   37.3810   28.0990   42.5190 C   0  0  0  0  0  0  0  0  0  0  0  0
   35.9180   26.3850   40.1020 H   0  0  0  0  0  0  0  0  0  0  0  0
   37.2500   24.5820   40.9840 H   0  0  0  0  0  0  0  0  0  0  0  0
   38.7330   24.9560   42.8980 H   0  0  0  0  0  0  0  0  0  0  0  0
   38.8570   27.1280   43.8970 H   0  0  0  0  0  0  0  0  0  0  0  0
   38.8250   30.0020   42.9310 C   0  0  0  0  0  0  0  0  0  0  0  0
   39.7920   29.9210   42.0920 O   0  0  0  0  0  0  0  0  0  0  0  0
   37.6350   29.2770   43.3040 N   0  0  0  0  0  0  0  0  0  0  0  0
   39.2310   30.9250   43.3440 H   0  0  0  0  0  0  0  0  0  0  0  0
   37.1470   29.7370   44.0980 H   0  0  0  0  0  0  0  0  0  0  0  0
  1 25  1  0  0  0  0
  2  1  1  0  0  0  0
  3  1  1  0  0  0  0
  4  9  2  0  0  0  0
  4  5  1  0  0  0  0
  5  6  2  0  0  0  0
  6  7  1  0  0  0  0
  6 12  1  0  0  0  0
  8  7  2  0  0  0  0
  8  1  1  0  0  0  0
  9  8  1  0  0  0  0
 10  4  1  0  0  0  0
 11  5  1  0  0  0  0
 12 14  1  0  0  0  0
 12 15  1  0  0  0  0
 13 12  1  0  0  0  0
 15 16  1  0  0  0  0
 15 17  1  0  0  0  0
 18 15  1  0  0  0  0
 18 24  1  0  0  0  0
 19 21  1  0  0  0  0
 19 18  2  0  0  0  0
 20 19  1  0  0  0  0
 21 22  1  0  0  0  0
 22 24  2  0  0  0  0
 22 23  1  0  0  0  0
 25 26  1  0  0  0  0
 25 28  1  0  0  0  0
 25 27  1  0  0  0  0
 28 33  1  0  0  0  0
 29 28  2  0  0  0  0
 29 30  1  0  0  0  0
 30 31  2  0  0  0  0
 31 36  1  0  0  0  0
 31 32  1  0  0  0  0
 32 37  1  0  0  0  0
 33 32  2  0  0  0  0
 33 40  1  0  0  0  0
 34 29  1  0  0  0  0
 35 30  1  0  0  0  0
 38 40  1  0  0  0  0
 38 41  1  0  0  0  0
 39 38  2  0  0  0  0
 40 42  1  0  0  0  0
M  END
>  <minimizedAffinity>
-5.44488478

$$$$

 OpenBabel03242511483D

 42 44  0  0  0  0  0  0  0  0999 V2000
   40.3210   30.7580   40.9760 C   0  0  0  0  0  0  0  0  0  0  0  0
   41.2500   31.3860   40.8660 H   0  0  0  0  0  0  0  0  0  0  0  0
   40.5650   29.7940   40.4940 H   0  0  0  0  0  0  0  0  0  0  0  0
   37.5910   33.0430   40.1340 C   0  0  0  0  0  0  0  0  0  0  0  0
   37.1990   32.5780   38.8560 C   0  0  0  0  0  0  0  0  0  0  0  0
   37.8980   31.4910   38.3260 C   0  0  0  0  0  0  0  0  0  0  0  0
   38.8850   30.9620   39.0500 N   0  0  0  0  0  0  0  0  0  0  0  0
   39.2220   31.4360   40.2590 C   0  0  0  0  0  0  0  0  0  0  0  0
   38.6100   32.4440   40.8060 N   0  0  0  0  0  0  0  0  0  0  0  0
   37.0580   33.8880   40.5600 H   0  0  0  0  0  0  0  0  0  0  0  0
   36.3850   33.0880   38.3640 H   0  0  0  0  0  0  0  0  0  0  0  0
   37.4650   31.0160   36.9980 C   0  0  0  0  0  0  0  0  0  0  0  0
   36.6200   31.6710   36.6910 H   0  0  0  0  0  0  0  0  0  0  0  0
   38.2540   31.2090   36.2340 H   0  0  0  0  0  0  0  0  0  0  0  0
   37.0870   29.5840   36.9820 C   0  0  0  0  0  0  0  0  0  0  0  0
   37.4270   29.1560   37.9820 H   0  0  0  0  0  0  0  0  0  0  0  0
   37.7910   29.0850   36.2620 H   0  0  0  0  0  0  0  0  0  0  0  0
   35.6900   29.2460   36.7510 C   0  0  0  0  0  0  0  0  0  0  0  0
   35.0420   29.0750   35.5300 C   0  0  0  0  0  0  0  0  0  0  0  0
   35.3550   29.1300   34.5060 H   0  0  0  0  0  0  0  0  0  0  0  0
   33.2900   28.6950   36.0110 S   0  0  0  0  0  0  0  0  0  0  0  0
   33.7770   28.8460   37.8470 C   0  0  0  0  0  0  0  0  0  0  0  0
   33.0370   28.7000   38.6960 H   0  0  0  0  0  0  0  0  0  0  0  0
   34.8980   29.0950   37.8000 N   0  0  0  0  0  0  0  0  0  0  0  0
   39.9560   30.6100   42.4170 C   0  0  0  0  0  0  0  0  0  0  0  0
   40.7080   31.1590   43.0550 H   0  0  0  0  0  0  0  0  0  0  0  0
   38.9890   31.1230   42.6660 H   0  0  0  0  0  0  0  0  0  0  0  0
   39.8540   29.2340   42.8430 C   0  0  0  0  0  0  0  0  0  0  0  0
   40.8440   28.3110   43.0650 C   0  0  0  0  0  0  0  0  0  0  0  0
   40.6290   27.0330   43.4730 C   0  0  0  0  0  0  0  0  0  0  0  0
   39.3290   26.6300   43.6790 C   0  0  0  0  0  0  0  0  0  0  0  0
   38.3220   27.5390   43.4630 C   0  0  0  0  0  0  0  0  0  0  0  0
   38.5630   28.8330   43.0480 C   0  0  0  0  0  0  0  0  0  0  0  0
   41.8600   28.6880   42.8850 H   0  0  0  0  0  0  0  0  0  0  0  0
   41.4960   26.4190   43.6080 H   0  0  0  0  0  0  0  0  0  0  0  0
   39.2240   25.5930   44.0060 H   0  0  0  0  0  0  0  0  0  0  0  0
   37.3550   27.0520   43.6750 H   0  0  0  0  0  0  0  0  0  0  0  0
   36.6440   29.2850   41.6380 C   0  0  0  0  0  0  0  0  0  0  0  0
   36.8670   28.7080   40.5150 O   0  0  0  0  0  0  0  0  0  0  0  0
   37.2840   29.4770   42.9160 N   0  0  0  0  0  0  0  0  0  0  0  0
   35.6760   29.6430   41.2880 H   0  0  0  0  0  0  0  0  0  0  0  0
   36.7000   30.0650   43.5450 H   0  0  0  0  0  0  0  0  0  0  0  0
  1 25  1  0  0  0  0
  2  1  1  0  0  0  0
  3  1  1  0  0  0  0
  4 10  1  0  0  0  0
  4  9  1  0  0  0  0
  5  4  2  0  0  0  0
  6  5  1  0  0  0  0
  6  7  2  0  0  0  0
  7  8  1  0  0  0  0
  8  9  2  0  0  0  0
  8  1  1  0  0  0  0
 11  5  1  0  0  0  0
 12  6  1  0  0  0  0
 13 12  1  0  0  0  0
 14 12  1  0  0  0  0
 15 12  1  0  0  0  0
 15 16  1  0  0  0  0
 17 15  1  0  0  0  0
 18 15  1  0  0  0  0
 18 24  1  0  0  0  0
 19 21  1  0  0  0  0
 19 18  2  0  0  0  0
 20 19  1  0  0  0  0
 21 22  1  0  0  0  0
 22 23  1  0  0  0  0
 24 22  2  0  0  0  0
 25 27  1  0  0  0  0
 25 28  1  0  0  0  0
 25 26  1  0  0  0  0
 28 33  2  0  0  0  0
 28 29  1  0  0  0  0
 29 30  2  0  0  0  0
 30 35  1  0  0  0  0
 30 31  1  0  0  0  0
 31 36  1  0  0  0  0
 32 37  1  0  0  0  0
 32 31  2  0  0  0  0
 33 32  1  0  0  0  0
 34 29  1  0  0  0  0
 38 40  1  0  0  0  0
 39 38  2  0  0  0  0
 40 33  1  0  0  0  0
 40 42  1  0  0  0  0
 41 38  1  0  0  0  0
M  END
>  <minimizedAffinity>
-5.27894163

$$$$

 OpenBabel03242511483D

 42 44  0  0  0  0  0  0  0  0999 V2000
   37.7860   28.8640   43.3380 C   0  0  0  0  0  0  0  0  0  0  0  0
   37.2870   29.3300   44.2350 H   0  0  0  0  0  0  0  0  0  0  0  0
   38.8100   29.2770   43.3310 H   0  0  0  0  0  0  0  0  0  0  0  0
   35.4970   28.8970   40.4850 C   0  0  0  0  0  0  0  0  0  0  0  0
   35.7720   30.1560   39.8990 C   0  0  0  0  0  0  0  0  0  0  0  0
   36.7390   30.9540   40.5160 C   0  0  0  0  0  0  0  0  0  0  0  0
   37.3380   30.4850   41.6120 N   0  0  0  0  0  0  0  0  0  0  0  0
   37.0450   29.2850   42.1320 C   0  0  0  0  0  0  0  0  0  0  0  0
   36.1560   28.4970   41.6040 N   0  0  0  0  0  0  0  0  0  0  0  0
   34.7470   28.2660   40.0170 H   0  0  0  0  0  0  0  0  0  0  0  0
   35.2220   30.4280   39.0110 H   0  0  0  0  0  0  0  0  0  0  0  0
   37.0180   32.2560   39.8810 C   0  0  0  0  0  0  0  0  0  0  0  0
   36.0590   32.6010   39.4370 H   0  0  0  0  0  0  0  0  0  0  0  0
   37.2560   33.0260   40.6520 H   0  0  0  0  0  0  0  0  0  0  0  0
   38.1030   32.1970   38.8750 C   0  0  0  0  0  0  0  0  0  0  0  0
   37.8100   32.9260   38.0500 H   0  0  0  0  0  0  0  0  0  0  0  0
   37.9950   31.2050   38.3590 H   0  0  0  0  0  0  0  0  0  0  0  0
   39.4630   32.4730   39.3160 C   0  0  0  0  0  0  0  0  0  0  0  0
   40.5190   31.5750   39.4420 C   0  0  0  0  0  0  0  0  0  0  0  0
   40.6310   30.5230   39.2630 H   0  0  0  0  0  0  0  0  0  0  0  0
   41.9140   32.6230   40.0780 S   0  0  0  0  0  0  0  0  0  0  0  0
   40.7630   34.1410   40.0550 C   0  0  0  0  0  0  0  0  0  0  0  0
   41.1020   35.1770   40.3740 H   0  0  0  0  0  0  0  0  0  0  0  0
   39.7700   33.7100   39.6690 N   0  0  0  0  0  0  0  0  0  0  0  0
   37.7620   27.3740   43.4400 C   0  0  0  0  0  0  0  0  0  0  0  0
   37.5100   27.0720   44.4990 H   0  0  0  0  0  0  0  0  0  0  0  0
   36.9290   26.9190   42.8420 H   0  0  0  0  0  0  0  0  0  0  0  0
   38.9990   26.7530   43.0290 C   0  0  0  0  0  0  0  0  0  0  0  0
   40.2050   26.6880   43.6790 C   0  0  0  0  0  0  0  0  0  0  0  0
   41.3110   26.0670   43.1930 C   0  0  0  0  0  0  0  0  0  0  0  0
   41.2220   25.4570   41.9620 C   0  0  0  0  0  0  0  0  0  0  0  0
   40.0220   25.5090   41.2940 C   0  0  0  0  0  0  0  0  0  0  0  0
   38.9110   26.1460   41.8060 C   0  0  0  0  0  0  0  0  0  0  0  0
   40.2180   27.1920   44.6560 H   0  0  0  0  0  0  0  0  0  0  0  0
   42.1870   26.0940   43.8070 H   0  0  0  0  0  0  0  0  0  0  0  0
   42.1430   24.9750   41.6280 H   0  0  0  0  0  0  0  0  0  0  0  0
   40.1290   24.9740   40.3340 H   0  0  0  0  0  0  0  0  0  0  0  0
   37.2260   24.7120   40.8160 C   0  0  0  0  0  0  0  0  0  0  0  0
   37.3140   23.5770   41.4070 O   0  0  0  0  0  0  0  0  0  0  0  0
   37.8600   26.0070   40.8340 N   0  0  0  0  0  0  0  0  0  0  0  0
   36.4020   24.3530   40.2010 H   0  0  0  0  0  0  0  0  0  0  0  0
   37.4420   26.6410   40.1230 H   0  0  0  0  0  0  0  0  0  0  0  0
  1 25  1  0  0  0  0
  1  2  1  0  0  0  0
  3  1  1  0  0  0  0
  4  9  1  0  0  0  0
  5  4  2  0  0  0  0
  5  6  1  0  0  0  0
  6  7  2  0  0  0  0
  7  8  1  0  0  0  0
  8  1  1  0  0  0  0
  9  8  2  0  0  0  0
 10  4  1  0  0  0  0
 11  5  1  0  0  0  0
 12  6  1  0  0  0  0
 12 14  1  0  0  0  0
 13 12  1  0  0  0  0
 15 18  1  0  0  0  0
 15 12  1  0  0  0  0
 16 15  1  0  0  0  0
 17 15  1  0  0  0  0
 18 19  2  0  0  0  0
 18 24  1  0  0  0  0
 19 21  1  0  0  0  0
 20 19  1  0  0  0  0
 22 21  1  0  0  0  0
 22 23  1  0  0  0  0
 24 22  2  0  0  0  0
 25 26  1  0  0  0  0
 27 25  1  0  0  0  0
 28 25  1  0  0  0  0
 28 29  1  0  0  0  0
 29 34  1  0  0  0  0
 30 29  2  0  0  0  0
 30 35  1  0  0  0  0
 31 30  1  0  0  0  0
 32 33  1  0  0  0  0
 32 31  2  0  0  0  0
 33 28  2  0  0  0  0
 36 31  1  0  0  0  0
 37 32  1  0  0  0  0
 38 40  1  0  0  0  0
 38 39  2  0  0  0  0
 40 33  1  0  0  0  0
 41 38  1  0  0  0  0
 42 40  1  0  0  0  0
M  END
>  <minimizedAffinity>
-5.21447992

$$$$

 OpenBabel03242511483D

 42 44  0  0  0  0  0  0  0  0999 V2000
   39.9670   29.4050   42.5280 C   0  0  0  0  0  0  0  0  0  0  0  0
   40.5000   29.5120   41.5410 H   0  0  0  0  0  0  0  0  0  0  0  0
   40.6400   29.8670   43.2720 H   0  0  0  0  0  0  0  0  0  0  0  0
   40.5750   25.9640   43.6130 C   0  0  0  0  0  0  0  0  0  0  0  0
   39.3790   25.3150   43.2250 C   0  0  0  0  0  0  0  0  0  0  0  0
   38.3990   26.0930   42.6040 C   0  0  0  0  0  0  0  0  0  0  0  0
   38.6470   27.3900   42.4180 N   0  0  0  0  0  0  0  0  0  0  0  0
   39.7970   27.9630   42.8020 C   0  0  0  0  0  0  0  0  0  0  0  0
   40.7470   27.2930   43.3840 N   0  0  0  0  0  0  0  0  0  0  0  0
   41.3470   25.3730   44.0970 H   0  0  0  0  0  0  0  0  0  0  0  0
   39.2920   24.2590   43.4290 H   0  0  0  0  0  0  0  0  0  0  0  0
   37.1650   25.3940   42.1970 C   0  0  0  0  0  0  0  0  0  0  0  0
   36.5000   25.3870   43.0890 H   0  0  0  0  0  0  0  0  0  0  0  0
   36.6040   25.9920   41.4410 H   0  0  0  0  0  0  0  0  0  0  0  0
   37.4090   24.0270   41.6800 C   0  0  0  0  0  0  0  0  0  0  0  0
   36.9390   23.3150   42.4340 H   0  0  0  0  0  0  0  0  0  0  0  0
   38.5060   23.8320   41.8250 H   0  0  0  0  0  0  0  0  0  0  0  0
   36.9380   23.7080   40.3400 C   0  0  0  0  0  0  0  0  0  0  0  0
   37.1510   22.5380   39.6150 C   0  0  0  0  0  0  0  0  0  0  0  0
   37.6660   21.6190   39.8160 H   0  0  0  0  0  0  0  0  0  0  0  0
   36.2910   22.8590   38.0010 S   0  0  0  0  0  0  0  0  0  0  0  0
   35.7860   24.5850   38.6300 C   0  0  0  0  0  0  0  0  0  0  0  0
   35.1790   25.3150   38.0080 H   0  0  0  0  0  0  0  0  0  0  0  0
   36.2370   24.6200   39.6870 N   0  0  0  0  0  0  0  0  0  0  0  0
   38.6250   30.0600   42.4730 C   0  0  0  0  0  0  0  0  0  0  0  0
   37.8190   29.2770   42.5770 H   0  0  0  0  0  0  0  0  0  0  0  0
   38.4430   30.7310   43.3530 H   0  0  0  0  0  0  0  0  0  0  0  0
   38.4150   30.8310   41.2700 C   0  0  0  0  0  0  0  0  0  0  0  0
   39.3190   31.5260   40.5060 C   0  0  0  0  0  0  0  0  0  0  0  0
   39.0040   32.2190   39.3810 C   0  0  0  0  0  0  0  0  0  0  0  0
   37.6900   32.2280   38.9730 C   0  0  0  0  0  0  0  0  0  0  0  0
   36.7680   31.5380   39.7230 C   0  0  0  0  0  0  0  0  0  0  0  0
   37.1090   30.8410   40.8640 C   0  0  0  0  0  0  0  0  0  0  0  0
   40.3510   31.4830   40.8800 H   0  0  0  0  0  0  0  0  0  0  0  0
   39.8110   32.7160   38.8820 H   0  0  0  0  0  0  0  0  0  0  0  0
   37.5030   32.8020   38.0620 H   0  0  0  0  0  0  0  0  0  0  0  0
   35.7760   31.6520   39.2560 H   0  0  0  0  0  0  0  0  0  0  0  0
   35.6000   28.9440   40.8860 C   0  0  0  0  0  0  0  0  0  0  0  0
   36.0840   28.0790   40.0720 O   0  0  0  0  0  0  0  0  0  0  0  0
   35.8980   30.2650   41.3830 N   0  0  0  0  0  0  0  0  0  0  0  0
   34.7680   28.2850   41.1290 H   0  0  0  0  0  0  0  0  0  0  0  0
   35.1690   30.5890   42.0500 H   0  0  0  0  0  0  0  0  0  0  0  0
  1  8  1  0  0  0  0
  1  3  1  0  0  0  0
  2  1  1  0  0  0  0
  4 10  1  0  0  0  0
  5 11  1  0  0  0  0
  5  4  2  0  0  0  0
  6  5  1  0  0  0  0
  7  6  2  0  0  0  0
  7  8  1  0  0  0  0
  8  9  2  0  0  0  0
  9  4  1  0  0  0  0
 12  6  1  0  0  0  0
 12 13  1  0  0  0  0
 14 12  1  0  0  0  0
 15 17  1  0  0  0  0
 15 12  1  0  0  0  0
 15 16  1  0  0  0  0
 18 15  1  0  0  0  0
 19 20  1  0  0  0  0
 19 18  2  0  0  0  0
 21 22  1  0  0  0  0
 21 19  1  0  0  0  0
 22 24  2  0  0  0  0
 23 22  1  0  0  0  0
 24 18  1  0  0  0  0
 25  1  1  0  0  0  0
 25 26  1  0  0  0  0
 25 27  1  0  0  0  0
 28 25  1  0  0  0  0
 29 34  1  0  0  0  0
 29 28  2  0  0  0  0
 30 29  1  0  0  0  0
 31 30  2  0  0  0  0
 31 32  1  0  0  0  0
 32 33  2  0  0  0  0
 33 28  1  0  0  0  0
 33 40  1  0  0  0  0
 35 30  1  0  0  0  0
 36 31  1  0  0  0  0
 37 32  1  0  0  0  0
 38 41  1  0  0  0  0
 38 40  1  0  0  0  0
 39 38  2  0  0  0  0
 40 42  1  0  0  0  0
M  END
>  <minimizedAffinity>
-5.20750332

$$$$

 OpenBabel03242511483D

 42 44  0  0  0  0  0  0  0  0999 V2000
   38.2030   28.7140   43.2730 C   0  0  0  0  0  0  0  0  0  0  0  0
   38.0430   28.9680   44.3590 H   0  0  0  0  0  0  0  0  0  0  0  0
   37.1900   28.6730   42.8340 H   0  0  0  0  0  0  0  0  0  0  0  0
   40.6450   26.0080   43.5870 C   0  0  0  0  0  0  0  0  0  0  0  0
   39.9630   24.9230   42.9870 C   0  0  0  0  0  0  0  0  0  0  0  0
   38.6760   25.1640   42.4980 C   0  0  0  0  0  0  0  0  0  0  0  0
   38.1730   26.3920   42.6260 N   0  0  0  0  0  0  0  0  0  0  0  0
   38.8570   27.3910   43.2020 C   0  0  0  0  0  0  0  0  0  0  0  0
   40.0560   27.2300   43.6760 N   0  0  0  0  0  0  0  0  0  0  0  0
   41.6450   25.8370   43.9730 H   0  0  0  0  0  0  0  0  0  0  0  0
   40.4730   23.9730   42.9400 H   0  0  0  0  0  0  0  0  0  0  0  0
   37.9890   24.0210   41.8660 C   0  0  0  0  0  0  0  0  0  0  0  0
   38.6190   23.7150   41.0010 H   0  0  0  0  0  0  0  0  0  0  0  0
   38.0000   23.1330   42.5410 H   0  0  0  0  0  0  0  0  0  0  0  0
   36.5990   24.3270   41.4560 C   0  0  0  0  0  0  0  0  0  0  0  0
   36.3090   25.2800   42.0080 H   0  0  0  0  0  0  0  0  0  0  0  0
   35.9520   23.5590   41.9580 H   0  0  0  0  0  0  0  0  0  0  0  0
   36.3210   24.4760   40.0350 C   0  0  0  0  0  0  0  0  0  0  0  0
   36.7310   25.5020   39.1860 C   0  0  0  0  0  0  0  0  0  0  0  0
   37.3190   26.3890   39.3180 H   0  0  0  0  0  0  0  0  0  0  0  0
   35.9850   25.0430   37.5490 S   0  0  0  0  0  0  0  0  0  0  0  0
   35.2260   23.4890   38.3480 C   0  0  0  0  0  0  0  0  0  0  0  0
   34.5940   22.7440   37.7690 H   0  0  0  0  0  0  0  0  0  0  0  0
   35.5750   23.5590   39.4410 N   0  0  0  0  0  0  0  0  0  0  0  0
   39.0770   29.7340   42.6200 C   0  0  0  0  0  0  0  0  0  0  0  0
   39.5680   30.3730   43.4120 H   0  0  0  0  0  0  0  0  0  0  0  0
   39.9510   29.2700   42.0900 H   0  0  0  0  0  0  0  0  0  0  0  0
   38.3730   30.5700   41.6760 C   0  0  0  0  0  0  0  0  0  0  0  0
   37.1540   30.3790   41.0760 C   0  0  0  0  0  0  0  0  0  0  0  0
   36.5830   31.2440   40.1980 C   0  0  0  0  0  0  0  0  0  0  0  0
   37.2700   32.3940   39.8830 C   0  0  0  0  0  0  0  0  0  0  0  0
   38.4940   32.6050   40.4730 C   0  0  0  0  0  0  0  0  0  0  0  0
   39.0560   31.7130   41.3620 C   0  0  0  0  0  0  0  0  0  0  0  0
   36.6520   29.4460   41.3650 H   0  0  0  0  0  0  0  0  0  0  0  0
   35.6260   30.9690   39.8060 H   0  0  0  0  0  0  0  0  0  0  0  0
   36.7580   33.0470   39.1740 H   0  0  0  0  0  0  0  0  0  0  0  0
   38.8990   33.5660   40.1110 H   0  0  0  0  0  0  0  0  0  0  0  0
   41.4100   31.9710   40.8440 C   0  0  0  0  0  0  0  0  0  0  0  0
   41.6170   31.3420   39.7460 O   0  0  0  0  0  0  0  0  0  0  0  0
   40.3280   32.2550   41.7550 N   0  0  0  0  0  0  0  0  0  0  0  0
   42.4540   32.2760   40.8930 H   0  0  0  0  0  0  0  0  0  0  0  0
   40.6570   32.8180   42.5660 H   0  0  0  0  0  0  0  0  0  0  0  0
  1  2  1  0  0  0  0
  3  1  1  0  0  0  0
  4  9  1  0  0  0  0
  4 10  1  0  0  0  0
  5  4  2  0  0  0  0
  6  7  2  0  0  0  0
  6  5  1  0  0  0  0
  7  8  1  0  0  0  0
  8  1  1  0  0  0  0
  8  9  2  0  0  0  0
 11  5  1  0  0  0  0
 12  6  1  0  0  0  0
 12 14  1  0  0  0  0
 13 12  1  0  0  0  0
 15 12  1  0  0  0  0
 15 17  1  0  0  0  0
 15 16  1  0  0  0  0
 18 15  1  0  0  0  0
 19 20  1  0  0  0  0
 19 18  2  0  0  0  0
 21 22  1  0  0  0  0
 21 19  1  0  0  0  0
 22 24  2  0  0  0  0
 23 22  1  0  0  0  0
 24 18  1  0  0  0  0
 25  1  1  0  0  0  0
 25 26  1  0  0  0  0
 27 25  1  0  0  0  0
 28 25  1  0  0  0  0
 29 34  1  0  0  0  0
 29 28  2  0  0  0  0
 30 29  1  0  0  0  0
 31 30  2  0  0  0  0
 31 32  1  0  0  0  0
 32 33  2  0  0  0  0
 33 28  1  0  0  0  0
 33 40  1  0  0  0  0
 35 30  1  0  0  0  0
 36 31  1  0  0  0  0
 37 32  1  0  0  0  0
 38 41  1  0  0  0  0
 38 40  1  0  0  0  0
 39 38  2  0  0  0  0
 40 42  1  0  0  0  0
M  END
>  <minimizedAffinity>
-5.18242645

$$$$

 OpenBabel03242511483D

 42 44  0  0  0  0  0  0  0  0999 V2000
   35.9840   28.1580   41.2710 C   0  0  0  0  0  0  0  0  0  0  0  0
   36.1330   27.3130   40.5400 H   0  0  0  0  0  0  0  0  0  0  0  0
   34.8900   28.2380   41.4010 H   0  0  0  0  0  0  0  0  0  0  0  0
   36.8240   31.6640   40.6470 C   0  0  0  0  0  0  0  0  0  0  0  0
   37.5500   31.5830   39.4350 C   0  0  0  0  0  0  0  0  0  0  0  0
   37.7290   30.3150   38.8760 C   0  0  0  0  0  0  0  0  0  0  0  0
   37.2100   29.2650   39.5150 N   0  0  0  0  0  0  0  0  0  0  0  0
   36.5280   29.3900   40.6630 C   0  0  0  0  0  0  0  0  0  0  0  0
   36.3270   30.5410   41.2310 N   0  0  0  0  0  0  0  0  0  0  0  0
   36.6760   32.6420   41.0940 H   0  0  0  0  0  0  0  0  0  0  0  0
   37.9240   32.5020   39.0110 H   0  0  0  0  0  0  0  0  0  0  0  0
   38.4790   30.2560   37.6070 C   0  0  0  0  0  0  0  0  0  0  0  0
   37.9750   29.4870   36.9800 H   0  0  0  0  0  0  0  0  0  0  0  0
   38.3550   31.2030   37.0320 H   0  0  0  0  0  0  0  0  0  0  0  0
   39.9190   29.9620   37.7900 C   0  0  0  0  0  0  0  0  0  0  0  0
   40.1590   29.1020   37.0830 H   0  0  0  0  0  0  0  0  0  0  0  0
   40.0100   29.4690   38.7960 H   0  0  0  0  0  0  0  0  0  0  0  0
   40.8700   31.0450   37.5900 C   0  0  0  0  0  0  0  0  0  0  0  0
   40.7030   32.3960   37.8870 C   0  0  0  0  0  0  0  0  0  0  0  0
   39.9070   32.9730   38.3140 H   0  0  0  0  0  0  0  0  0  0  0  0
   42.3000   33.1680   37.3380 S   0  0  0  0  0  0  0  0  0  0  0  0
   42.9210   31.4530   36.7860 C   0  0  0  0  0  0  0  0  0  0  0  0
   43.9450   31.2880   36.3230 H   0  0  0  0  0  0  0  0  0  0  0  0
   42.0410   30.7610   37.0440 N   0  0  0  0  0  0  0  0  0  0  0  0
   36.7020   27.8780   42.5500 C   0  0  0  0  0  0  0  0  0  0  0  0
   37.3930   28.7380   42.7910 H   0  0  0  0  0  0  0  0  0  0  0  0
   36.0080   27.8540   43.4320 H   0  0  0  0  0  0  0  0  0  0  0  0
   37.4420   26.6380   42.5300 C   0  0  0  0  0  0  0  0  0  0  0  0
   37.0310   25.3780   42.1760 C   0  0  0  0  0  0  0  0  0  0  0  0
   37.8260   24.2760   42.1910 C   0  0  0  0  0  0  0  0  0  0  0  0
   39.1350   24.4260   42.5890 C   0  0  0  0  0  0  0  0  0  0  0  0
   39.5670   25.6810   42.9470 C   0  0  0  0  0  0  0  0  0  0  0  0
   38.7440   26.7870   42.9240 C   0  0  0  0  0  0  0  0  0  0  0  0
   35.9790   25.3180   41.8670 H   0  0  0  0  0  0  0  0  0  0  0  0
   37.3730   23.3540   41.8890 H   0  0  0  0  0  0  0  0  0  0  0  0
   39.7190   23.5040   42.5780 H   0  0  0  0  0  0  0  0  0  0  0  0
   40.6300   25.6180   43.2350 H   0  0  0  0  0  0  0  0  0  0  0  0
   40.1510   28.6640   42.3130 C   0  0  0  0  0  0  0  0  0  0  0  0
   40.2490   28.6510   41.0350 O   0  0  0  0  0  0  0  0  0  0  0  0
   39.5290   27.9060   43.3710 N   0  0  0  0  0  0  0  0  0  0  0  0
   40.7730   29.5570   42.3750 H   0  0  0  0  0  0  0  0  0  0  0  0
   39.7590   28.3040   44.3040 H   0  0  0  0  0  0  0  0  0  0  0  0
  1  3  1  0  0  0  0
  1 25  1  0  0  0  0
  2  1  1  0  0  0  0
  4 10  1  0  0  0  0
  4  9  1  0  0  0  0
  5  4  2  0  0  0  0
  6  5  1  0  0  0  0
  6  7  2  0  0  0  0
  7  8  1  0  0  0  0
  8  9  2  0  0  0  0
  8  1  1  0  0  0  0
 11  5  1  0  0  0  0
 12 15  1  0  0  0  0
 12  6  1  0  0  0  0
 13 12  1  0  0  0  0
 14 12  1  0  0  0  0
 15 17  1  0  0  0  0
 16 15  1  0  0  0  0
 18 15  1  0  0  0  0
 18 19  2  0  0  0  0
 19 20  1  0  0  0  0
 21 19  1  0  0  0  0
 22 24  2  0  0  0  0
 22 21  1  0  0  0  0
 23 22  1  0  0  0  0
 24 18  1  0  0  0  0
 25 26  1  0  0  0  0
 25 27  1  0  0  0  0
 28 25  1  0  0  0  0
 28 33  1  0  0  0  0
 29 30  1  0  0  0  0
 29 28  2  0  0  0  0
 30 31  2  0  0  0  0
 31 32  1  0  0  0  0
 32 37  1  0  0  0  0
 33 32  2  0  0  0  0
 33 40  1  0  0  0  0
 34 29  1  0  0  0  0
 35 30  1  0  0  0  0
 36 31  1  0  0  0  0
 38 41  1  0  0  0  0
 38 40  1  0  0  0  0
 39 38  2  0  0  0  0
 40 42  1  0  0  0  0
M  END
>  <minimizedAffinity>
-5.17419672

$$$$

 OpenBabel03242511483D

 42 44  0  0  0  0  0  0  0  0999 V2000
   36.5160   31.3600   40.0250 C   0  0  0  0  0  0  0  0  0  0  0  0
   36.1570   32.3840   40.3300 H   0  0  0  0  0  0  0  0  0  0  0  0
   35.6200   30.7150   40.0670 H   0  0  0  0  0  0  0  0  0  0  0  0
   39.5910   31.0870   41.9880 C   0  0  0  0  0  0  0  0  0  0  0  0
   39.3060   29.9880   42.8330 C   0  0  0  0  0  0  0  0  0  0  0  0
   38.0550   29.3810   42.6980 C   0  0  0  0  0  0  0  0  0  0  0  0
   37.2110   29.8710   41.7890 N   0  0  0  0  0  0  0  0  0  0  0  0
   37.5240   30.9150   41.0080 C   0  0  0  0  0  0  0  0  0  0  0  0
   38.6710   31.5220   41.0860 N   0  0  0  0  0  0  0  0  0  0  0  0
   40.5590   31.5700   42.0810 H   0  0  0  0  0  0  0  0  0  0  0  0
   40.0690   29.6810   43.5320 H   0  0  0  0  0  0  0  0  0  0  0  0
   37.7850   28.2300   43.5800 C   0  0  0  0  0  0  0  0  0  0  0  0
   37.6400   28.6450   44.6020 H   0  0  0  0  0  0  0  0  0  0  0  0
   36.8010   27.7660   43.3320 H   0  0  0  0  0  0  0  0  0  0  0  0
   38.8510   27.2020   43.5470 C   0  0  0  0  0  0  0  0  0  0  0  0
   39.0230   26.8900   44.6290 H   0  0  0  0  0  0  0  0  0  0  0  0
   39.8020   27.7500   43.3070 H   0  0  0  0  0  0  0  0  0  0  0  0
   38.6390   26.0220   42.7210 C   0  0  0  0  0  0  0  0  0  0  0  0
   39.5710   25.0510   42.3630 C   0  0  0  0  0  0  0  0  0  0  0  0
   40.6110   24.9000   42.5770 H   0  0  0  0  0  0  0  0  0  0  0  0
   38.6020   23.8880   41.2880 S   0  0  0  0  0  0  0  0  0  0  0  0
   37.0560   24.9750   41.5300 C   0  0  0  0  0  0  0  0  0  0  0  0
   36.0520   24.7340   41.0580 H   0  0  0  0  0  0  0  0  0  0  0  0
   37.4350   25.8200   42.2110 N   0  0  0  0  0  0  0  0  0  0  0  0
   37.1350   31.4040   38.6660 C   0  0  0  0  0  0  0  0  0  0  0  0
   36.7590   32.3130   38.1100 H   0  0  0  0  0  0  0  0  0  0  0  0
   38.2440   31.5720   38.7080 H   0  0  0  0  0  0  0  0  0  0  0  0
   36.8920   30.2120   37.8880 C   0  0  0  0  0  0  0  0  0  0  0  0
   35.7110   29.5670   37.6180 C   0  0  0  0  0  0  0  0  0  0  0  0
   35.6020   28.4440   36.8620 C   0  0  0  0  0  0  0  0  0  0  0  0
   36.7510   27.9110   36.3260 C   0  0  0  0  0  0  0  0  0  0  0  0
   37.9450   28.5410   36.5830 C   0  0  0  0  0  0  0  0  0  0  0  0
   38.0340   29.6810   37.3540 C   0  0  0  0  0  0  0  0  0  0  0  0
   34.8280   30.0380   38.0720 H   0  0  0  0  0  0  0  0  0  0  0  0
   34.6160   28.0460   36.7330 H   0  0  0  0  0  0  0  0  0  0  0  0
   36.5960   27.0100   35.7280 H   0  0  0  0  0  0  0  0  0  0  0  0
   38.7540   27.9840   36.0800 H   0  0  0  0  0  0  0  0  0  0  0  0
   40.1580   29.4310   38.4950 C   0  0  0  0  0  0  0  0  0  0  0  0
   39.9550   28.6410   39.4850 O   0  0  0  0  0  0  0  0  0  0  0  0
   39.4250   30.0420   37.4140 N   0  0  0  0  0  0  0  0  0  0  0  0
   41.2130   29.5180   38.7520 H   0  0  0  0  0  0  0  0  0  0  0  0
   40.0390   30.6580   36.8430 H   0  0  0  0  0  0  0  0  0  0  0  0
  1  3  1  0  0  0  0
  1  2  1  0  0  0  0
  1  8  1  0  0  0  0
  4 10  1  0  0  0  0
  4  5  1  0  0  0  0
  5 11  1  0  0  0  0
  6  5  2  0  0  0  0
  6 12  1  0  0  0  0
  7  6  1  0  0  0  0
  8  9  1  0  0  0  0
  8  7  2  0  0  0  0
  9  4  2  0  0  0  0
 12 13  1  0  0  0  0
 14 12  1  0  0  0  0
 15 12  1  0  0  0  0
 15 16  1  0  0  0  0
 17 15  1  0  0  0  0
 18 15  1  0  0  0  0
 19 20  1  0  0  0  0
 19 18  2  0  0  0  0
 21 22  1  0  0  0  0
 21 19  1  0  0  0  0
 22 24  2  0  0  0  0
 23 22  1  0  0  0  0
 24 18  1  0  0  0  0
 25 27  1  0  0  0  0
 25  1  1  0  0  0  0
 26 25  1  0  0  0  0
 28 25  1  0  0  0  0
 29 28  1  0  0  0  0
 29 34  1  0  0  0  0
 30 29  2  0  0  0  0
 31 32  2  0  0  0  0
 31 30  1  0  0  0  0
 32 33  1  0  0  0  0
 33 40  1  0  0  0  0
 33 28  2  0  0  0  0
 35 30  1  0  0  0  0
 36 31  1  0  0  0  0
 37 32  1  0  0  0  0
 38 41  1  0  0  0  0
 38 39  2  0  0  0  0
 40 38  1  0  0  0  0
 42 40  1  0  0  0  0
M  END
>  <minimizedAffinity>
-5.07753229

$$$$

 OpenBabel03242511483D

 42 44  0  0  0  0  0  0  0  0999 V2000
   36.1090   27.5970   37.9730 C   0  0  0  0  0  0  0  0  0  0  0  0
   35.4450   27.4710   37.0720 H   0  0  0  0  0  0  0  0  0  0  0  0
   37.0950   27.8890   37.5680 H   0  0  0  0  0  0  0  0  0  0  0  0
   35.9490   24.0150   38.6980 C   0  0  0  0  0  0  0  0  0  0  0  0
   36.3640   23.9680   40.0510 C   0  0  0  0  0  0  0  0  0  0  0  0
   36.6910   25.1790   40.6650 C   0  0  0  0  0  0  0  0  0  0  0  0
   36.5950   26.2970   39.9450 N   0  0  0  0  0  0  0  0  0  0  0  0
   36.1950   26.2940   38.6650 C   0  0  0  0  0  0  0  0  0  0  0  0
   35.8770   25.2010   38.0380 N   0  0  0  0  0  0  0  0  0  0  0  0
   35.6910   23.0810   38.2060 H   0  0  0  0  0  0  0  0  0  0  0  0
   36.4040   23.0010   40.5300 H   0  0  0  0  0  0  0  0  0  0  0  0
   37.1100   25.1070   42.0770 C   0  0  0  0  0  0  0  0  0  0  0  0
   36.9680   26.1260   42.4990 H   0  0  0  0  0  0  0  0  0  0  0  0
   36.4090   24.4670   42.6640 H   0  0  0  0  0  0  0  0  0  0  0  0
   38.5000   24.6250   42.2530 C   0  0  0  0  0  0  0  0  0  0  0  0
   38.7410   24.0100   41.3250 H   0  0  0  0  0  0  0  0  0  0  0  0
   38.4560   23.8360   43.0520 H   0  0  0  0  0  0  0  0  0  0  0  0
   39.5450   25.6140   42.4750 C   0  0  0  0  0  0  0  0  0  0  0  0
   39.9050   26.2220   43.6750 C   0  0  0  0  0  0  0  0  0  0  0  0
   39.5570   26.1420   44.6860 H   0  0  0  0  0  0  0  0  0  0  0  0
   41.2750   27.3770   43.1880 S   0  0  0  0  0  0  0  0  0  0  0  0
   41.0980   26.8010   41.3810 C   0  0  0  0  0  0  0  0  0  0  0  0
   41.7430   27.2050   40.5380 H   0  0  0  0  0  0  0  0  0  0  0  0
   40.2490   26.0280   41.4350 N   0  0  0  0  0  0  0  0  0  0  0  0
   35.5400   28.6160   38.9060 C   0  0  0  0  0  0  0  0  0  0  0  0
   34.4480   28.7770   38.6670 H   0  0  0  0  0  0  0  0  0  0  0  0
   35.5180   28.2560   39.9680 H   0  0  0  0  0  0  0  0  0  0  0  0
   36.2450   29.8760   38.8740 C   0  0  0  0  0  0  0  0  0  0  0  0
   36.7960   30.5460   37.8110 C   0  0  0  0  0  0  0  0  0  0  0  0
   37.4380   31.7400   37.9000 C   0  0  0  0  0  0  0  0  0  0  0  0
   37.5470   32.3240   39.1420 C   0  0  0  0  0  0  0  0  0  0  0  0
   37.0020   31.6700   40.2210 C   0  0  0  0  0  0  0  0  0  0  0  0
   36.3540   30.4580   40.1080 C   0  0  0  0  0  0  0  0  0  0  0  0
   36.6780   30.0330   36.8460 H   0  0  0  0  0  0  0  0  0  0  0  0
   37.8190   32.1500   36.9880 H   0  0  0  0  0  0  0  0  0  0  0  0
   38.0720   33.2810   39.1460 H   0  0  0  0  0  0  0  0  0  0  0  0
   37.1800   32.2750   41.1260 H   0  0  0  0  0  0  0  0  0  0  0  0
   36.9080   29.3160   42.1730 C   0  0  0  0  0  0  0  0  0  0  0  0
   38.0820   28.8240   42.0200 O   0  0  0  0  0  0  0  0  0  0  0  0
   35.9350   30.0790   41.4300 N   0  0  0  0  0  0  0  0  0  0  0  0
   36.8530   28.9260   43.1890 H   0  0  0  0  0  0  0  0  0  0  0  0
   35.0710   30.2320   41.9880 H   0  0  0  0  0  0  0  0  0  0  0  0
  1  8  1  0  0  0  0
  1 25  1  0  0  0  0
  2  1  1  0  0  0  0
  3  1  1  0  0  0  0
  4  5  1  0  0  0  0
  5 11  1  0  0  0  0
  5  6  2  0  0  0  0
  6 12  1  0  0  0  0
  7  6  1  0  0  0  0
  8  7  2  0  0  0  0
  9  8  1  0  0  0  0
  9  4  2  0  0  0  0
 10  4  1  0  0  0  0
 12 15  1  0  0  0  0
 12 13  1  0  0  0  0
 12 14  1  0  0  0  0
 15 18  1  0  0  0  0
 15 17  1  0  0  0  0
 16 15  1  0  0  0  0
 18 19  2  0  0  0  0
 19 20  1  0  0  0  0
 21 19  1  0  0  0  0
 22 24  2  0  0  0  0
 22 21  1  0  0  0  0
 23 22  1  0  0  0  0
 24 18  1  0  0  0  0
 25 27  1  0  0  0  0
 26 25  1  0  0  0  0
 28 25  1  0  0  0  0
 28 33  1  0  0  0  0
 29 30  1  0  0  0  0
 29 28  2  0  0  0  0
 30 31  2  0  0  0  0
 31 36  1  0  0  0  0
 31 32  1  0  0  0  0
 32 37  1  0  0  0  0
 33 32  2  0  0  0  0
 33 40  1  0  0  0  0
 34 29  1  0  0  0  0
 35 30  1  0  0  0  0
 38 41  1  0  0  0  0
 39 38  2  0  0  0  0
 40 42  1  0  0  0  0
 40 38  1  0  0  0  0
M  END
>  <minimizedAffinity>
-5.04363775

$$$$
