
 OpenBabel03252502053D

 44 48  0  0  0  0  0  0  0  0999 V2000
   47.4990   31.8780   47.7610 C   0  0  0  0  0  0  0  0  0  0  0  0
   46.9380   30.6080   47.8090 C   0  0  0  0  0  0  0  0  0  0  0  0
   45.9100   30.3700   46.9640 C   0  0  0  0  0  0  0  0  0  0  0  0
   45.4710   31.3200   46.1260 N   0  0  0  0  0  0  0  0  0  0  0  0
   46.0040   32.5380   46.0670 C   0  0  0  0  0  0  0  0  0  0  0  0
   47.0270   32.7890   46.9090 N   0  0  0  0  0  0  0  0  0  0  0  0
   45.2610   29.1440   46.9490 N   0  0  0  0  0  0  0  0  0  0  0  0
   43.9860   28.8460   46.2620 C   0  0  0  0  0  0  0  0  0  0  0  0
   43.8540   27.3480   46.2900 C   0  0  0  0  0  0  0  0  0  0  0  0
   44.6300   26.9540   47.5110 C   0  0  0  0  0  0  0  0  0  0  0  0
   45.7220   27.9480   47.6160 C   0  0  0  0  0  0  0  0  0  0  0  0
   48.3280   32.0980   48.4340 H   0  0  0  0  0  0  0  0  0  0  0  0
   43.9950   29.2350   45.2310 H   0  0  0  0  0  0  0  0  0  0  0  0
   43.1990   29.3240   46.9020 H   0  0  0  0  0  0  0  0  0  0  0  0
   42.8040   27.0040   46.3410 H   0  0  0  0  0  0  0  0  0  0  0  0
   44.3250   26.9180   45.3910 H   0  0  0  0  0  0  0  0  0  0  0  0
   45.0500   25.9140   47.3850 H   0  0  0  0  0  0  0  0  0  0  0  0
   43.9210   26.9030   48.3470 H   0  0  0  0  0  0  0  0  0  0  0  0
   46.6820   27.6310   47.2170 H   0  0  0  0  0  0  0  0  0  0  0  0
   45.7470   28.1570   48.7040 H   0  0  0  0  0  0  0  0  0  0  0  0
   45.6950   33.6990   45.2230 C   0  0  0  0  0  0  0  0  0  0  0  0
   44.9140   34.7310   45.6520 N   0  0  0  0  0  0  0  0  0  0  0  0
   44.6160   35.8090   44.9340 C   0  0  0  0  0  0  0  0  0  0  0  0
   45.1040   35.9320   43.6800 N   0  0  0  0  0  0  0  0  0  0  0  0
   45.8890   34.9750   43.1480 C   0  0  0  0  0  0  0  0  0  0  0  0
   46.3770   35.1140   41.8780 C   0  0  0  0  0  0  0  0  0  0  0  0
   47.1690   34.1580   41.3260 C   0  0  0  0  0  0  0  0  0  0  0  0
   47.4610   33.0440   42.0960 C   0  0  0  0  0  0  0  0  0  0  0  0
   46.9430   32.9480   43.3780 C   0  0  0  0  0  0  0  0  0  0  0  0
   46.1530   33.8860   43.9540 C   0  0  0  0  0  0  0  0  0  0  0  0
   43.9890   36.6000   45.3230 H   0  0  0  0  0  0  0  0  0  0  0  0
   46.0950   36.0240   41.3450 H   0  0  0  0  0  0  0  0  0  0  0  0
   47.4990   34.3690   40.3210 H   0  0  0  0  0  0  0  0  0  0  0  0
   48.0970   32.3670   41.5360 H   0  0  0  0  0  0  0  0  0  0  0  0
   47.3920   31.6490   43.8740 C   0  0  0  0  0  0  0  0  0  0  0  0
   46.4200   30.5200   43.2580 C   0  0  0  0  0  0  0  0  0  0  0  0
   45.5310   30.6880   42.5690 H   0  0  0  0  0  0  0  0  0  0  0  0
   47.0960   28.9690   43.9340 S   0  0  0  0  0  0  0  0  0  0  0  0
   48.4640   29.9180   44.8660 C   0  0  0  0  0  0  0  0  0  0  0  0
   49.2520   29.4980   45.5060 H   0  0  0  0  0  0  0  0  0  0  0  0
   48.2920   31.0700   44.6150 N   0  0  0  0  0  0  0  0  0  0  0  0
   47.5030   29.6560   48.6450 N   0  0  0  0  0  0  0  0  0  0  0  0
   47.0430   29.9260   49.5620 H   0  0  0  0  0  0  0  0  0  0  0  0
   48.1840   28.8840   48.5040 H   0  0  0  0  0  0  0  0  0  0  0  0
  1  2  1  0  0  0  0
  1 12  1  0  0  0  0
  2 42  1  0  0  0  0
  3  2  2  0  0  0  0
  4  3  1  0  0  0  0
  5  4  2  0  0  0  0
  5  6  1  0  0  0  0
  6  1  2  0  0  0  0
  7  3  1  0  0  0  0
  7 11  1  0  0  0  0
  8  9  1  0  0  0  0
  8 14  1  0  0  0  0
  8  7  1  0  0  0  0
  9 15  1  0  0  0  0
  9 10  1  0  0  0  0
 10 11  1  0  0  0  0
 10 18  1  0  0  0  0
 11 20  1  0  0  0  0
 13  8  1  0  0  0  0
 16  9  1  0  0  0  0
 17 10  1  0  0  0  0
 19 11  1  0  0  0  0
 21 22  1  0  0  0  0
 21  5  1  0  0  0  0
 23 31  1  0  0  0  0
 23 22  2  0  0  0  0
 24 23  1  0  0  0  0
 25 24  2  0  0  0  0
 25 30  1  0  0  0  0
 26 25  1  0  0  0  0
 27 26  2  0  0  0  0
 27 28  1  0  0  0  0
 28 29  2  0  0  0  0
 29 35  1  0  0  0  0
 29 30  1  0  0  0  0
 30 21  2  0  0  0  0
 32 26  1  0  0  0  0
 33 27  1  0  0  0  0
 34 28  1  0  0  0  0
 35 41  1  0  0  0  0
 36 35  2  0  0  0  0
 36 38  1  0  0  0  0
 37 36  1  0  0  0  0
 38 39  1  0  0  0  0
 39 40  1  0  0  0  0
 41 39  2  0  0  0  0
 42 43  1  0  0  0  0
 44 42  1  0  0  0  0
M  END
>  <minimizedAffinity>
-6.09132767

>  <minimizedRMSD>
0.610525072

$$$$
