
 OpenBabel03252506373D

 42 45  0  0  1  0  0  0  0  0999 V2000
   44.5220   35.4730   45.1410 C   0  0  0  0  0  0  0  0  0  0  0  0
   45.1900   35.4810   43.9020 C   0  0  0  0  0  0  0  0  0  0  0  0
   46.1280   34.5340   43.6510 C   0  0  0  0  0  0  0  0  0  0  0  0
   46.3630   33.6270   44.6290 N   0  0  0  0  0  0  0  0  0  0  0  0
   45.7310   33.6260   45.7940 C   0  0  0  0  0  0  0  0  0  0  0  0
   44.8080   34.5420   46.0640 N   0  0  0  0  0  0  0  0  0  0  0  0
   46.0670   32.6150   46.7600 N   0  0  0  0  0  0  0  0  0  0  0  0
   45.3230   32.3470   47.9360 C   0  0  0  0  0  0  0  0  0  0  0  0
   46.3990   32.0310   48.9600 C   0  0  0  0  0  0  0  0  0  0  0  0
   47.6860   31.9370   48.1980 C   0  0  0  0  0  0  0  0  0  0  0  0
   47.2100   31.7250   46.7610 C   0  0  1  0  0  0  0  0  0  0  0  0
   43.7640   36.2320   45.3550 H   0  0  0  0  0  0  0  0  0  0  0  0
   46.6450   34.5220   42.7200 H   0  0  0  0  0  0  0  0  0  0  0  0
   44.5530   31.6550   48.0380 H   0  0  0  0  0  0  0  0  0  0  0  0
   44.8990   33.3430   48.2790 H   0  0  0  0  0  0  0  0  0  0  0  0
   46.5420   32.8380   49.7080 H   0  0  0  0  0  0  0  0  0  0  0  0
   46.1610   31.1140   49.5420 H   0  0  0  0  0  0  0  0  0  0  0  0
   48.2830   31.0580   48.5110 H   0  0  0  0  0  0  0  0  0  0  0  0
   48.2590   32.8920   48.2130 H   0  0  0  0  0  0  0  0  0  0  0  0
   48.0150   32.0650   46.1080 H   0  0  0  0  0  0  0  0  0  0  0  0
   44.8250   36.5110   42.9700 N   0  0  0  0  0  0  0  0  0  0  0  0
   43.8610   36.3970   42.5900 H   0  0  0  0  0  0  0  0  0  0  0  0
   45.4770   37.2930   42.7090 H   0  0  0  0  0  0  0  0  0  0  0  0
   46.7330   30.0280   46.5690 S   0  0  0  0  0  0  0  0  0  0  0  0
   45.5210   30.5230   43.4910 O   0  0  0  0  0  0  0  0  0  0  0  0
   44.9650   29.9590   44.4460 C   0  0  0  0  0  0  0  0  0  0  0  0
   45.1540   29.7130   45.9050 C   0  0  1  0  0  0  0  0  0  0  0  0
   44.6570   28.3000   46.0370 C   0  0  0  0  0  0  0  0  0  0  0  0
   43.2780   28.5000   45.3670 C   0  0  0  0  0  0  0  0  0  0  0  0
   43.7220   29.2850   44.1950 N   0  0  0  0  0  0  0  0  0  0  0  0
   44.2760   30.2910   46.3070 H   0  0  0  0  0  0  0  0  0  0  0  0
   44.5420   27.9960   47.0860 H   0  0  0  0  0  0  0  0  0  0  0  0
   45.2340   27.5970   45.4130 H   0  0  0  0  0  0  0  0  0  0  0  0
   42.8840   27.5200   45.0630 H   0  0  0  0  0  0  0  0  0  0  0  0
   42.6140   29.0790   46.0200 H   0  0  0  0  0  0  0  0  0  0  0  0
   42.8520   29.2330   43.0350 C   0  0  0  0  0  0  0  0  0  0  0  0
   41.7730   30.0760   42.8430 C   0  0  0  0  0  0  0  0  0  0  0  0
   41.5230   30.8660   43.6190 H   0  0  0  0  0  0  0  0  0  0  0  0
   41.1600   29.4180   41.1690 S   0  0  0  0  0  0  0  0  0  0  0  0
   42.5340   28.1260   41.1120 C   0  0  0  0  0  0  0  0  0  0  0  0
   42.5990   27.4520   40.2660 H   0  0  0  0  0  0  0  0  0  0  0  0
   43.1820   28.2920   42.1540 N   0  0  0  0  0  0  0  0  0  0  0  0
  1 12  1  0  0  0  0
  1  6  1  0  0  0  0
  2  1  2  0  0  0  0
  3  2  1  0  0  0  0
  3  4  2  0  0  0  0
  4  5  1  0  0  0  0
  5  6  2  0  0  0  0
  5  7  1  0  0  0  0
  7 11  1  0  0  0  0
  7  8  1  0  0  0  0
  8 14  1  0  0  0  0
  8 15  1  0  0  0  0
  8  9  1  0  0  0  0
  9 17  1  0  0  0  0
  9 16  1  0  0  0  0
 10 19  1  0  0  0  0
 10 18  1  0  0  0  0
 10  9  1  0  0  0  0
 11 20  1  6  0  0  0
 11 10  1  0  0  0  0
 13  3  1  0  0  0  0
 21  2  1  0  0  0  0
 22 21  1  0  0  0  0
 23 21  1  0  0  0  0
 24 11  1  0  0  0  0
 25 26  2  0  0  0  0
 26 27  1  0  0  0  0
 27 28  1  0  0  0  0
 27 31  1  1  0  0  0
 27 24  1  0  0  0  0
 28 32  1  0  0  0  0
 29 35  1  0  0  0  0
 29 28  1  0  0  0  0
 30 26  1  0  0  0  0
 30 29  1  0  0  0  0
 33 28  1  0  0  0  0
 34 29  1  0  0  0  0
 36 30  1  0  0  0  0
 37 36  2  0  0  0  0
 37 38  1  0  0  0  0
 39 37  1  0  0  0  0
 40 39  1  0  0  0  0
 40 42  2  0  0  0  0
 41 40  1  0  0  0  0
 42 36  1  0  0  0  0
M  END
>  <minimizedAffinity>
-5.20056057

>  <minimizedRMSD>
0.157680094

$$$$
