
 OpenBabel03252506053D

 41 45  0  0  0  0  0  0  0  0999 V2000
   44.8130   35.9930   43.3250 Cl  0  0  0  0  0  0  0  0  0  0  0  0
   45.5510   34.7450   44.2590 C   0  0  0  0  0  0  0  0  0  0  0  0
   46.6610   34.0670   43.7730 C   0  0  0  0  0  0  0  0  0  0  0  0
   47.1780   33.0900   44.6020 C   0  0  0  0  0  0  0  0  0  0  0  0
   46.6670   32.7600   45.8490 C   0  0  0  0  0  0  0  0  0  0  0  0
   45.5680   33.4500   46.2980 C   0  0  0  0  0  0  0  0  0  0  0  0
   44.9590   32.9990   47.8760 Cl  0  0  0  0  0  0  0  0  0  0  0  0
   45.0180   34.4350   45.5060 C   0  0  0  0  0  0  0  0  0  0  0  0
   48.0470   32.5780   44.1940 H   0  0  0  0  0  0  0  0  0  0  0  0
   44.1540   34.9670   45.8760 H   0  0  0  0  0  0  0  0  0  0  0  0
   47.3590   31.6940   46.5740 C   0  0  0  0  0  0  0  0  0  0  0  0
   47.4680   30.4150   46.1010 C   0  0  0  0  0  0  0  0  0  0  0  0
   48.1180   29.3870   46.7640 C   0  0  0  0  0  0  0  0  0  0  0  0
   48.7020   29.6610   47.9940 C   0  0  0  0  0  0  0  0  0  0  0  0
   49.3210   28.6530   48.6120 N   0  0  0  0  0  0  0  0  0  0  0  0
   49.9250   28.8170   49.8210 C   0  0  0  0  0  0  0  0  0  0  0  0
   49.8590   30.0970   50.3770 C   0  0  0  0  0  0  0  0  0  0  0  0
   49.2160   31.1210   49.7230 C   0  0  0  0  0  0  0  0  0  0  0  0
   48.6170   30.9180   48.5010 C   0  0  0  0  0  0  0  0  0  0  0  0
   47.9580   31.9360   47.8150 C   0  0  0  0  0  0  0  0  0  0  0  0
   46.9940   30.2400   45.1260 H   0  0  0  0  0  0  0  0  0  0  0  0
   48.1520   28.4050   46.3070 H   0  0  0  0  0  0  0  0  0  0  0  0
   50.4370   28.0270   50.3550 H   0  0  0  0  0  0  0  0  0  0  0  0
   50.3180   30.3070   51.3420 H   0  0  0  0  0  0  0  0  0  0  0  0
   49.1680   32.1140   50.1640 H   0  0  0  0  0  0  0  0  0  0  0  0
   47.9240   32.9260   48.2760 H   0  0  0  0  0  0  0  0  0  0  0  0
   48.8520   35.4910   41.2480 C   0  0  0  0  0  0  0  0  0  0  0  0
   48.3570   34.9560   40.0480 C   0  0  0  0  0  0  0  0  0  0  0  0
   47.2540   34.0940   40.1180 C   0  0  0  0  0  0  0  0  0  0  0  0
   46.7600   33.8530   41.3400 N   0  0  0  0  0  0  0  0  0  0  0  0
   47.2370   34.3670   42.4800 C   0  0  0  0  0  0  0  0  0  0  0  0
   48.3030   35.2010   42.4430 N   0  0  0  0  0  0  0  0  0  0  0  0
   49.6880   36.1270   41.0670 H   0  0  0  0  0  0  0  0  0  0  0  0
   48.7760   35.1670   39.0730 H   0  0  0  0  0  0  0  0  0  0  0  0
   46.6770   33.4920   38.9420 C   0  0  0  0  0  0  0  0  0  0  0  0
   47.3770   33.4920   37.6780 C   0  0  0  0  0  0  0  0  0  0  0  0
   48.3600   33.8890   37.3940 H   0  0  0  0  0  0  0  0  0  0  0  0
   46.1450   32.5980   36.5490 S   0  0  0  0  0  0  0  0  0  0  0  0
   44.9060   32.3800   37.9690 C   0  0  0  0  0  0  0  0  0  0  0  0
   43.9480   31.9090   37.9310 H   0  0  0  0  0  0  0  0  0  0  0  0
   45.6510   32.8970   38.5680 N   0  0  0  0  0  0  0  0  0  0  0  0
  1  2  1  0  0  0  0
  2  8  1  0  0  0  0
  3  2  2  0  0  0  0
  3  4  1  0  0  0  0
  4  5  2  0  0  0  0
  5  6  1  0  0  0  0
  5 11  1  0  0  0  0
  6  7  1  0  0  0  0
  8 10  1  0  0  0  0
  8  6  2  0  0  0  0
  9  4  1  0  0  0  0
 11 20  1  0  0  0  0
 12 11  2  0  0  0  0
 12 13  1  0  0  0  0
 13 14  2  0  0  0  0
 14 19  1  0  0  0  0
 14 15  1  0  0  0  0
 15 16  2  0  0  0  0
 16 23  1  0  0  0  0
 16 17  1  0  0  0  0
 17 24  1  0  0  0  0
 18 25  1  0  0  0  0
 18 17  2  0  0  0  0
 19 18  1  0  0  0  0
 20 26  1  0  0  0  0
 20 19  2  0  0  0  0
 21 12  1  0  0  0  0
 22 13  1  0  0  0  0
 27 32  1  0  0  0  0
 28 29  1  0  0  0  0
 28 27  2  0  0  0  0
 29 30  2  0  0  0  0
 30 31  1  0  0  0  0
 31  3  1  0  0  0  0
 32 31  2  0  0  0  0
 33 27  1  0  0  0  0
 34 28  1  0  0  0  0
 35 29  1  0  0  0  0
 36 35  2  0  0  0  0
 37 36  1  0  0  0  0
 38 36  1  0  0  0  0
 38 39  1  0  0  0  0
 39 41  2  0  0  0  0
 40 39  1  0  0  0  0
 41 35  1  0  0  0  0
M  END
>  <minimizedAffinity>
-7.05364275

>  <minimizedRMSD>
0.29059726

$$$$
