
 OpenBabel03252509263D

 28 30  0  0  1  0  0  0  0  0999 V2000
   46.6480   35.1070   41.9020 C   0  0  1  0  0  0  0  0  0  0  0  0
   48.1920   35.3040   41.9210 C   0  0  0  0  0  0  0  0  0  0  0  0
   47.4090   34.1270   41.2490 C   0  0  2  0  0  0  0  0  0  0  0  0
   46.1130   35.9160   41.3630 H   0  0  0  0  0  0  0  0  0  0  0  0
   48.7410   35.0870   42.8360 H   0  0  0  0  0  0  0  0  0  0  0  0
   48.5620   36.0240   41.1820 H   0  0  0  0  0  0  0  0  0  0  0  0
   47.6670   33.1370   41.7370 H   0  0  0  0  0  0  0  0  0  0  0  0
   44.6860   35.3140   45.0980 C   0  0  0  0  0  0  0  0  0  0  0  0
   45.1560   35.6670   43.7910 C   0  0  0  0  0  0  0  0  0  0  0  0
   46.1330   34.8650   43.3000 C   0  0  0  0  0  0  0  0  0  0  0  0
   46.6320   33.7950   44.0100 N   0  0  0  0  0  0  0  0  0  0  0  0
   46.1640   33.4970   45.2350 C   0  0  0  0  0  0  0  0  0  0  0  0
   45.1880   34.2590   45.7790 N   0  0  0  0  0  0  0  0  0  0  0  0
   43.8980   35.9720   45.4770 H   0  0  0  0  0  0  0  0  0  0  0  0
   46.5730   32.6540   45.7680 H   0  0  0  0  0  0  0  0  0  0  0  0
   44.6640   36.7790   43.0870 N   0  0  0  0  0  0  0  0  0  0  0  0
   45.3900   37.4860   43.3900 H   0  0  0  0  0  0  0  0  0  0  0  0
   43.8450   36.9100   42.4520 H   0  0  0  0  0  0  0  0  0  0  0  0
   47.4750   34.0240   39.7460 C   0  0  0  0  0  0  0  0  0  0  0  0
   48.4930   33.7190   39.4280 H   0  0  0  0  0  0  0  0  0  0  0  0
   47.3490   35.0550   39.3580 H   0  0  0  0  0  0  0  0  0  0  0  0
   46.4530   33.0680   39.2100 C   0  0  0  0  0  0  0  0  0  0  0  0
   46.1020   33.0370   37.8630 C   0  0  0  0  0  0  0  0  0  0  0  0
   46.5450   33.7090   37.0860 H   0  0  0  0  0  0  0  0  0  0  0  0
   44.8300   31.6900   37.8120 S   0  0  0  0  0  0  0  0  0  0  0  0
   45.0160   31.4160   39.6690 C   0  0  0  0  0  0  0  0  0  0  0  0
   44.4600   30.6730   40.2560 H   0  0  0  0  0  0  0  0  0  0  0  0
   45.8130   32.1890   39.9720 N   0  0  0  0  0  0  0  0  0  0  0  0
  1  4  1  6  0  0  0
  1  2  1  0  0  0  0
  1 10  1  0  0  0  0
  2  5  1  0  0  0  0
  3  7  1  1  0  0  0
  3  1  1  0  0  0  0
  3  2  1  0  0  0  0
  6  2  1  0  0  0  0
  8 14  1  0  0  0  0
  8 13  1  0  0  0  0
  9  8  2  0  0  0  0
 10  9  1  0  0  0  0
 10 11  2  0  0  0  0
 11 12  1  0  0  0  0
 12 15  1  0  0  0  0
 12 13  2  0  0  0  0
 16 17  1  0  0  0  0
 16  9  1  0  0  0  0
 18 16  1  0  0  0  0
 19  3  1  0  0  0  0
 20 19  1  0  0  0  0
 21 19  1  0  0  0  0
 22 19  1  0  0  0  0
 22 28  1  0  0  0  0
 23 22  2  0  0  0  0
 24 23  1  0  0  0  0
 25 23  1  0  0  0  0
 25 26  1  0  0  0  0
 26 28  2  0  0  0  0
 26 27  1  0  0  0  0
M  END
>  <minimizedAffinity>
-4.42753458

>  <minimizedRMSD>
0.746023417

$$$$
