
 OpenBabel03252506373D

 42 45  0  0  1  0  0  0  0  0999 V2000
   44.5240   35.4680   45.1410 C   0  0  0  0  0  0  0  0  0  0  0  0
   45.1920   35.4760   43.9020 C   0  0  0  0  0  0  0  0  0  0  0  0
   46.1300   34.5280   43.6510 C   0  0  0  0  0  0  0  0  0  0  0  0
   46.3660   33.6220   44.6290 N   0  0  0  0  0  0  0  0  0  0  0  0
   45.7340   33.6210   45.7940 C   0  0  0  0  0  0  0  0  0  0  0  0
   44.8100   34.5370   46.0630 N   0  0  0  0  0  0  0  0  0  0  0  0
   46.0690   32.6100   46.7610 N   0  0  0  0  0  0  0  0  0  0  0  0
   45.3260   32.3430   47.9360 C   0  0  0  0  0  0  0  0  0  0  0  0
   46.4010   32.0270   48.9610 C   0  0  0  0  0  0  0  0  0  0  0  0
   47.6890   31.9330   48.1990 C   0  0  0  0  0  0  0  0  0  0  0  0
   47.2130   31.7210   46.7610 C   0  0  1  0  0  0  0  0  0  0  0  0
   43.7660   36.2260   45.3540 H   0  0  0  0  0  0  0  0  0  0  0  0
   46.6470   34.5170   42.7200 H   0  0  0  0  0  0  0  0  0  0  0  0
   44.5560   31.6500   48.0380 H   0  0  0  0  0  0  0  0  0  0  0  0
   44.9010   33.3380   48.2790 H   0  0  0  0  0  0  0  0  0  0  0  0
   46.5440   32.8340   49.7090 H   0  0  0  0  0  0  0  0  0  0  0  0
   46.1630   31.1110   49.5430 H   0  0  0  0  0  0  0  0  0  0  0  0
   48.2860   31.0550   48.5120 H   0  0  0  0  0  0  0  0  0  0  0  0
   48.2620   32.8880   48.2140 H   0  0  0  0  0  0  0  0  0  0  0  0
   48.0170   32.0610   46.1090 H   0  0  0  0  0  0  0  0  0  0  0  0
   44.8270   36.5050   42.9690 N   0  0  0  0  0  0  0  0  0  0  0  0
   43.8620   36.3910   42.5890 H   0  0  0  0  0  0  0  0  0  0  0  0
   45.4780   37.2880   42.7080 H   0  0  0  0  0  0  0  0  0  0  0  0
   46.7370   30.0230   46.5690 S   0  0  0  0  0  0  0  0  0  0  0  0
   45.5080   30.5130   43.4980 O   0  0  0  0  0  0  0  0  0  0  0  0
   44.9560   29.9510   44.4570 C   0  0  0  0  0  0  0  0  0  0  0  0
   45.1540   29.7080   45.9150 C   0  0  1  0  0  0  0  0  0  0  0  0
   44.6570   28.2950   46.0520 C   0  0  0  0  0  0  0  0  0  0  0  0
   43.2740   28.4950   45.3900 C   0  0  0  0  0  0  0  0  0  0  0  0
   43.7120   29.2770   44.2140 N   0  0  0  0  0  0  0  0  0  0  0  0
   44.2780   30.2880   46.3210 H   0  0  0  0  0  0  0  0  0  0  0  0
   44.5480   27.9940   47.1030 H   0  0  0  0  0  0  0  0  0  0  0  0
   45.2300   27.5910   45.4270 H   0  0  0  0  0  0  0  0  0  0  0  0
   42.8780   27.5150   45.0900 H   0  0  0  0  0  0  0  0  0  0  0  0
   42.6140   29.0760   46.0450 H   0  0  0  0  0  0  0  0  0  0  0  0
   42.8350   29.2230   43.0580 C   0  0  0  0  0  0  0  0  0  0  0  0
   41.7890   30.1010   42.8450 C   0  0  0  0  0  0  0  0  0  0  0  0
   41.5740   30.9240   43.5960 H   0  0  0  0  0  0  0  0  0  0  0  0
   41.1450   29.4160   41.1930 S   0  0  0  0  0  0  0  0  0  0  0  0
   42.4670   28.0700   41.1720 C   0  0  0  0  0  0  0  0  0  0  0  0
   42.5030   27.3690   40.3470 H   0  0  0  0  0  0  0  0  0  0  0  0
   43.1260   28.2440   42.2060 N   0  0  0  0  0  0  0  0  0  0  0  0
  1 12  1  0  0  0  0
  1  6  1  0  0  0  0
  2  1  2  0  0  0  0
  3  2  1  0  0  0  0
  3  4  2  0  0  0  0
  4  5  1  0  0  0  0
  5  6  2  0  0  0  0
  5  7  1  0  0  0  0
  7  8  1  0  0  0  0
  8 14  1  0  0  0  0
  8 15  1  0  0  0  0
  8  9  1  0  0  0  0
  9 17  1  0  0  0  0
  9 16  1  0  0  0  0
 10 19  1  0  0  0  0
 10 18  1  0  0  0  0
 10  9  1  0  0  0  0
 11 20  1  6  0  0  0
 11  7  1  0  0  0  0
 11 10  1  0  0  0  0
 13  3  1  0  0  0  0
 21  2  1  0  0  0  0
 22 21  1  0  0  0  0
 23 21  1  0  0  0  0
 24 11  1  0  0  0  0
 25 26  2  0  0  0  0
 26 27  1  0  0  0  0
 27 28  1  0  0  0  0
 27 31  1  1  0  0  0
 27 24  1  0  0  0  0
 28 32  1  0  0  0  0
 29 35  1  0  0  0  0
 29 28  1  0  0  0  0
 30 26  1  0  0  0  0
 30 29  1  0  0  0  0
 33 28  1  0  0  0  0
 34 29  1  0  0  0  0
 36 30  1  0  0  0  0
 37 36  2  0  0  0  0
 37 38  1  0  0  0  0
 39 37  1  0  0  0  0
 40 39  1  0  0  0  0
 40 42  2  0  0  0  0
 41 40  1  0  0  0  0
 42 36  1  0  0  0  0
M  END
>  <minimizedAffinity>
-5.20711422

>  <minimizedRMSD>
0.272398382

$$$$
