REMARK  Name = 
REMARK  4 active torsions:
REMARK  status: ('A' for Active; 'I' for Inactive)
REMARK    1  A    between atoms: C_2  and  C_7
REMARK    2  A    between atoms: C_5  and  O_11
REMARK    3  A    between atoms: O_11  and  C_12
REMARK    4  A    between atoms: C_12  and  C_17
REMARK                            x       y       z     vdW  Elec       q    Type
REMARK                         _______ _______ _______ _____ _____    ______ ____
ROOT
ATOM      1  C   UNL     1      44.732  35.392  45.023  0.00  0.00    +0.000 A 
ATOM      2  C   UNL     1      45.612  34.926  44.049  0.00  0.00    +0.000 A 
ATOM      3  C   UNL     1      46.352  33.783  44.336  0.00  0.00    +0.000 A 
ATOM      4  N   UNL     1      46.189  33.182  45.528  0.00  0.00    +0.000 NA
ATOM      5  C   UNL     1      45.338  33.648  46.447  0.00  0.00    +0.000 A 
ATOM      6  N   UNL     1      44.595  34.754  46.220  0.00  0.00    +0.000 NA
ATOM      7  H   UNL     1      44.123  36.274  44.873  0.00  0.00    +0.000 HD
ATOM      8  H   UNL     1      47.025  33.451  43.555  0.00  0.00    +0.000 HD
ENDROOT
BRANCH   2   9
ATOM      9  C   UNL     1      45.680  35.708  42.764  0.00  0.00    +0.000 C 
ATOM     10  F   UNL     1      45.243  36.965  43.062  0.00  0.00    +0.000 F 
ATOM     11  F   UNL     1      44.790  35.086  41.892  0.00  0.00    +0.000 F 
ATOM     12  F   UNL     1      46.968  35.652  42.305  0.00  0.00    +0.000 F 
ENDBRANCH   2   9
BRANCH   5  13
ATOM     13  O   UNL     1      45.150  33.053  47.677  0.00  0.00    +0.000 OA
BRANCH  13  14
ATOM     14  C   UNL     1      46.129  32.266  48.305  0.00  0.00    +0.000 C 
ATOM     15  H   UNL     1      47.014  32.861  48.608  0.00  0.00    +0.000 HD
ATOM     16  H   UNL     1      45.716  31.867  49.253  0.00  0.00    +0.000 HD
BRANCH  14  17
ATOM     17  C   UNL     1      46.519  31.065  47.480  0.00  0.00    +0.000 A 
ATOM     18  C   UNL     1      46.481  31.062  46.065  0.00  0.00    +0.000 A 
ATOM     19  H   UNL     1      46.199  31.828  45.380  0.00  0.00    +0.000 HD
ATOM     20  S   UNL     1      47.043  29.392  45.639  0.00  0.00    +0.000 S 
ATOM     21  C   UNL     1      47.245  28.954  47.477  0.00  0.00    +0.000 A 
ATOM     22  H   UNL     1      47.593  27.994  48.125  0.00  0.00    +0.000 HD
ATOM     23  N   UNL     1      46.930  29.911  47.975  0.00  0.00    +0.000 NA
ENDBRANCH  14  17
ENDBRANCH  13  14
ENDBRANCH   5  13
TORSDOF 4
