
 OpenBabel03252505513D

 23 24  0  0  0  0  0  0  0  0999 V2000
   44.6680   35.4800   45.0200 C   0  0  0  0  0  0  0  0  0  0  0  0
   45.5200   35.0550   44.0030 C   0  0  0  0  0  0  0  0  0  0  0  0
   46.2840   33.9140   44.2300 C   0  0  0  0  0  0  0  0  0  0  0  0
   46.1690   33.2760   45.4090 N   0  0  0  0  0  0  0  0  0  0  0  0
   45.3440   33.7030   46.3700 C   0  0  0  0  0  0  0  0  0  0  0  0
   44.5800   34.8050   46.2010 N   0  0  0  0  0  0  0  0  0  0  0  0
   44.0430   36.3570   44.9170 H   0  0  0  0  0  0  0  0  0  0  0  0
   46.9330   33.6140   43.4170 H   0  0  0  0  0  0  0  0  0  0  0  0
   45.5340   35.8750   42.7400 C   0  0  0  0  0  0  0  0  0  0  0  0
   45.2420   37.1530   43.1160 F   0  0  0  0  0  0  0  0  0  0  0  0
   44.5110   35.3650   41.9440 F   0  0  0  0  0  0  0  0  0  0  0  0
   46.7610   35.7240   42.1540 F   0  0  0  0  0  0  0  0  0  0  0  0
   45.2060   33.0690   47.5870 O   0  0  0  0  0  0  0  0  0  0  0  0
   46.2010   32.2470   48.1400 C   0  0  0  0  0  0  0  0  0  0  0  0
   47.2220   32.5830   47.8670 H   0  0  0  0  0  0  0  0  0  0  0  0
   46.1610   32.3270   49.2450 H   0  0  0  0  0  0  0  0  0  0  0  0
   45.9880   30.7890   47.8180 C   0  0  0  0  0  0  0  0  0  0  0  0
   45.0520   29.9810   48.5070 C   0  0  0  0  0  0  0  0  0  0  0  0
   44.3870   30.2220   49.3030 H   0  0  0  0  0  0  0  0  0  0  0  0
   45.2320   28.3640   47.7080 S   0  0  0  0  0  0  0  0  0  0  0  0
   46.5720   29.0500   46.5460 C   0  0  0  0  0  0  0  0  0  0  0  0
   47.2670   28.6280   45.6510 H   0  0  0  0  0  0  0  0  0  0  0  0
   46.6370   30.1200   46.8800 N   0  0  0  0  0  0  0  0  0  0  0  0
  1  6  1  0  0  0  0
  2  3  1  0  0  0  0
  2  1  2  0  0  0  0
  3  4  2  0  0  0  0
  4  5  1  0  0  0  0
  5 13  1  0  0  0  0
  6  5  2  0  0  0  0
  7  1  1  0  0  0  0
  8  3  1  0  0  0  0
  9 10  1  0  0  0  0
  9  2  1  0  0  0  0
 11  9  1  0  0  0  0
 12  9  1  0  0  0  0
 13 14  1  0  0  0  0
 14 16  1  0  0  0  0
 15 14  1  0  0  0  0
 17 14  1  0  0  0  0
 17 18  2  0  0  0  0
 18 19  1  0  0  0  0
 20 18  1  0  0  0  0
 21 23  2  0  0  0  0
 21 20  1  0  0  0  0
 22 21  1  0  0  0  0
 23 17  1  0  0  0  0
M  END
>  <minimizedAffinity>
-4.54023552

>  <minimizedRMSD>
0.83598429

$$$$
