
 OpenBabel03252505513D

 23 24  0  0  0  0  0  0  0  0999 V2000
   44.6650   35.4350   45.1120 C   0  0  0  0  0  0  0  0  0  0  0  0
   45.5150   34.9900   44.1020 C   0  0  0  0  0  0  0  0  0  0  0  0
   46.2570   33.8370   44.3400 C   0  0  0  0  0  0  0  0  0  0  0  0
   46.1230   33.2060   45.5200 N   0  0  0  0  0  0  0  0  0  0  0  0
   45.3000   33.6520   46.4730 C   0  0  0  0  0  0  0  0  0  0  0  0
   44.5570   34.7670   46.2950 N   0  0  0  0  0  0  0  0  0  0  0  0
   44.0560   36.3230   45.0010 H   0  0  0  0  0  0  0  0  0  0  0  0
   46.9060   33.5220   43.5320 H   0  0  0  0  0  0  0  0  0  0  0  0
   45.5520   35.8050   42.8370 C   0  0  0  0  0  0  0  0  0  0  0  0
   45.1980   37.0730   43.1920 F   0  0  0  0  0  0  0  0  0  0  0  0
   44.5840   35.2540   42.0010 F   0  0  0  0  0  0  0  0  0  0  0  0
   46.8080   35.6970   42.3040 F   0  0  0  0  0  0  0  0  0  0  0  0
   45.1430   33.0260   47.6920 O   0  0  0  0  0  0  0  0  0  0  0  0
   46.1860   32.3510   48.3470 C   0  0  0  0  0  0  0  0  0  0  0  0
   47.1660   32.8460   48.1950 H   0  0  0  0  0  0  0  0  0  0  0  0
   46.0110   32.3950   49.4410 H   0  0  0  0  0  0  0  0  0  0  0  0
   46.2380   30.8870   47.9900 C   0  0  0  0  0  0  0  0  0  0  0  0
   47.4010   30.2640   47.4740 C   0  0  0  0  0  0  0  0  0  0  0  0
   48.3620   30.6690   47.2610 H   0  0  0  0  0  0  0  0  0  0  0  0
   46.8800   28.5440   47.2390 S   0  0  0  0  0  0  0  0  0  0  0  0
   45.1390   28.9460   47.8890 C   0  0  0  0  0  0  0  0  0  0  0  0
   44.1070   28.3470   48.0800 H   0  0  0  0  0  0  0  0  0  0  0  0
   45.2280   30.0430   48.1160 N   0  0  0  0  0  0  0  0  0  0  0  0
  1  6  1  0  0  0  0
  2  3  1  0  0  0  0
  2  1  2  0  0  0  0
  3  4  2  0  0  0  0
  4  5  1  0  0  0  0
  5 13  1  0  0  0  0
  6  5  2  0  0  0  0
  7  1  1  0  0  0  0
  8  3  1  0  0  0  0
  9 10  1  0  0  0  0
  9  2  1  0  0  0  0
 11  9  1  0  0  0  0
 12  9  1  0  0  0  0
 13 14  1  0  0  0  0
 14 16  1  0  0  0  0
 15 14  1  0  0  0  0
 17 23  1  0  0  0  0
 17 14  1  0  0  0  0
 18 17  2  0  0  0  0
 19 18  1  0  0  0  0
 20 18  1  0  0  0  0
 20 21  1  0  0  0  0
 21 22  1  0  0  0  0
 21 23  2  0  0  0  0
M  END
>  <minimizedAffinity>
-4.64609671

>  <minimizedRMSD>
0.862048149

$$$$
