
 OpenBabel03242513053D

 33 36  0  0  0  0  0  0  0  0999 V2000
   46.2600   32.8200   41.4740 C   0  0  0  0  0  0  0  0  0  0  0  0
   47.3790   33.6230   41.2340 C   0  0  0  0  0  0  0  0  0  0  0  0
   48.2320   33.8430   42.3020 C   0  0  0  0  0  0  0  0  0  0  0  0
   47.9180   33.2650   43.4980 N   0  0  0  0  0  0  0  0  0  0  0  0
   46.8420   32.5010   43.7070 C   0  0  0  0  0  0  0  0  0  0  0  0
   46.0020   32.2750   42.6860 N   0  0  0  0  0  0  0  0  0  0  0  0
   45.5210   32.5660   40.7500 H   0  0  0  0  0  0  0  0  0  0  0  0
   46.7810   30.5980   45.2510 C   0  0  0  0  0  0  0  0  0  0  0  0
   46.6010   31.9370   45.0170 C   0  0  0  0  0  0  0  0  0  0  0  0
   46.1770   32.8350   46.0190 C   0  0  0  0  0  0  0  0  0  0  0  0
   45.9250   32.3690   47.3050 C   0  0  0  0  0  0  0  0  0  0  0  0
   45.5200   32.9030   48.4820 N   0  0  0  0  0  0  0  0  0  0  0  0
   45.4620   31.8920   49.4040 C   0  0  0  0  0  0  0  0  0  0  0  0
   45.8290   30.7550   48.7820 N   0  0  0  0  0  0  0  0  0  0  0  0
   46.1190   31.0130   47.4960 C   0  0  0  0  0  0  0  0  0  0  0  0
   46.5340   30.1090   46.5330 C   0  0  0  0  0  0  0  0  0  0  0  0
   47.1050   29.9880   44.4350 H   0  0  0  0  0  0  0  0  0  0  0  0
   46.0360   33.8860   45.8320 H   0  0  0  0  0  0  0  0  0  0  0  0
   45.3170   33.9140   48.5660 H   0  0  0  0  0  0  0  0  0  0  0  0
   45.1620   32.0890   50.4180 H   0  0  0  0  0  0  0  0  0  0  0  0
   46.6690   29.0720   46.7280 H   0  0  0  0  0  0  0  0  0  0  0  0
   49.4360   34.6830   42.1170 C   0  0  0  0  0  0  0  0  0  0  0  0
   49.1570   35.7500   41.2430 F   0  0  0  0  0  0  0  0  0  0  0  0
   49.8090   35.2590   43.3070 F   0  0  0  0  0  0  0  0  0  0  0  0
   50.4300   33.9030   41.5940 F   0  0  0  0  0  0  0  0  0  0  0  0
   47.5860   34.1450   39.9970 O   0  0  0  0  0  0  0  0  0  0  0  0
   48.2420   33.4380   39.0130 C   0  0  0  0  0  0  0  0  0  0  0  0
   47.7700   34.0770   37.8410 C   0  0  0  0  0  0  0  0  0  0  0  0
   47.1200   34.8850   37.3150 H   0  0  0  0  0  0  0  0  0  0  0  0
   48.6170   33.1710   36.4900 S   0  0  0  0  0  0  0  0  0  0  0  0
   49.4800   32.0630   37.7490 C   0  0  0  0  0  0  0  0  0  0  0  0
   50.2290   31.1550   38.0470 H   0  0  0  0  0  0  0  0  0  0  0  0
   49.0700   32.4800   38.7010 N   0  0  0  0  0  0  0  0  0  0  0  0
  1  6  1  0  0  0  0
  2  1  2  0  0  0  0
  2  3  1  0  0  0  0
  3  4  2  0  0  0  0
  4  5  1  0  0  0  0
  5  9  1  0  0  0  0
  6  5  2  0  0  0  0
  7  1  1  0  0  0  0
  8 16  1  0  0  0  0
  9  8  2  0  0  0  0
  9 10  1  0  0  0  0
 10 11  2  0  0  0  0
 11 15  1  0  0  0  0
 11 12  1  0  0  0  0
 12 19  1  0  0  0  0
 12 13  1  0  0  0  0
 13 20  1  0  0  0  0
 14 13  2  0  0  0  0
 15 14  1  0  0  0  0
 16 21  1  0  0  0  0
 16 15  2  0  0  0  0
 17  8  1  0  0  0  0
 18 10  1  0  0  0  0
 22  3  1  0  0  0  0
 22 24  1  0  0  0  0
 23 22  1  0  0  0  0
 25 22  1  0  0  0  0
 26  2  1  0  0  0  0
 27 26  1  0  0  0  0
 28 27  2  0  0  0  0
 29 28  1  0  0  0  0
 30 31  1  0  0  0  0
 30 28  1  0  0  0  0
 31 32  1  0  0  0  0
 31 33  2  0  0  0  0
 33 27  1  0  0  0  0
M  END
>  <minimizedAffinity>
-5.82702971

>  <minimizedRMSD>
1.92414904

$$$$
