
 OpenBabel03252501203D

 24 25  0  0  0  0  0  0  0  0999 V2000
   40.0590   28.5840   42.9600 C   0  0  0  0  0  0  0  0  0  0  0  0
   38.6910   28.3360   42.7850 C   0  0  0  0  0  0  0  0  0  0  0  0
   38.2880   27.0120   42.8790 C   0  0  0  0  0  0  0  0  0  0  0  0
   39.2000   26.0350   43.1280 N   0  0  0  0  0  0  0  0  0  0  0  0
   40.5050   26.3190   43.2890 C   0  0  0  0  0  0  0  0  0  0  0  0
   40.9350   27.5960   43.2050 N   0  0  0  0  0  0  0  0  0  0  0  0
   40.4670   29.5870   42.9130 H   0  0  0  0  0  0  0  0  0  0  0  0
   41.1620   25.4720   43.4810 H   0  0  0  0  0  0  0  0  0  0  0  0
   36.8360   26.7800   42.6930 C   0  0  0  0  0  0  0  0  0  0  0  0
   36.5920   25.4170   42.7430 F   0  0  0  0  0  0  0  0  0  0  0  0
   36.5370   27.1950   41.4280 F   0  0  0  0  0  0  0  0  0  0  0  0
   36.0900   27.3280   43.6790 F   0  0  0  0  0  0  0  0  0  0  0  0
   37.7540   29.4270   42.5140 C   0  0  0  0  0  0  0  0  0  0  0  0
   36.7360   29.1230   42.2450 H   0  0  0  0  0  0  0  0  0  0  0  0
   37.8400   30.1960   43.2780 H   0  0  0  0  0  0  0  0  0  0  0  0
   38.0960   30.0520   41.2310 N   0  0  0  0  0  0  0  0  0  0  0  0
   38.4180   29.4540   40.4150 H   0  0  0  0  0  0  0  0  0  0  0  0
   38.1000   31.3980   40.7810 C   0  0  0  0  0  0  0  0  0  0  0  0
   39.1950   32.0790   41.2480 C   0  0  0  0  0  0  0  0  0  0  0  0
   40.0990   31.8990   41.8800 H   0  0  0  0  0  0  0  0  0  0  0  0
   38.9940   33.7340   40.5650 S   0  0  0  0  0  0  0  0  0  0  0  0
   37.3680   33.2000   39.7070 C   0  0  0  0  0  0  0  0  0  0  0  0
   36.7620   33.9680   39.0580 H   0  0  0  0  0  0  0  0  0  0  0  0
   37.3220   32.1370   40.0360 N   0  0  0  0  0  0  0  0  0  0  0  0
  1  6  1  0  0  0  0
  2  3  1  0  0  0  0
  2  1  2  0  0  0  0
  3  4  2  0  0  0  0
  4  5  1  0  0  0  0
  5  8  1  0  0  0  0
  6  5  2  0  0  0  0
  7  1  1  0  0  0  0
  9 10  1  0  0  0  0
  9  3  1  0  0  0  0
  9 12  1  0  0  0  0
 11  9  1  0  0  0  0
 13  2  1  0  0  0  0
 13 15  1  0  0  0  0
 14 13  1  0  0  0  0
 16 13  1  0  0  0  0
 17 16  1  0  0  0  0
 18 16  1  0  0  0  0
 18 19  2  0  0  0  0
 19 20  1  0  0  0  0
 21 19  1  0  0  0  0
 22 24  2  0  0  0  0
 22 21  1  0  0  0  0
 23 22  1  0  0  0  0
 24 18  1  0  0  0  0
M  END
>  <minimizedAffinity>
-4.60228443

$$$$

 OpenBabel03252501203D

 24 25  0  0  0  0  0  0  0  0999 V2000
   35.0490   29.1430   39.8930 C   0  0  0  0  0  0  0  0  0  0  0  0
   35.9510   30.2150   39.8870 C   0  0  0  0  0  0  0  0  0  0  0  0
   36.5120   30.5430   38.6620 C   0  0  0  0  0  0  0  0  0  0  0  0
   36.1800   29.8380   37.5470 N   0  0  0  0  0  0  0  0  0  0  0  0
   35.3090   28.8150   37.5990 C   0  0  0  0  0  0  0  0  0  0  0  0
   34.7420   28.4670   38.7730 N   0  0  0  0  0  0  0  0  0  0  0  0
   34.5540   28.8180   40.8000 H   0  0  0  0  0  0  0  0  0  0  0  0
   35.1060   28.3070   36.6570 H   0  0  0  0  0  0  0  0  0  0  0  0
   37.4590   31.6820   38.6860 C   0  0  0  0  0  0  0  0  0  0  0  0
   37.9130   31.9130   37.3980 F   0  0  0  0  0  0  0  0  0  0  0  0
   38.5330   31.2770   39.4240 F   0  0  0  0  0  0  0  0  0  0  0  0
   36.8770   32.8360   39.0870 F   0  0  0  0  0  0  0  0  0  0  0  0
   36.2750   30.9350   41.1200 C   0  0  0  0  0  0  0  0  0  0  0  0
   37.2590   31.4170   41.1430 H   0  0  0  0  0  0  0  0  0  0  0  0
   35.4320   31.5460   41.4310 H   0  0  0  0  0  0  0  0  0  0  0  0
   36.5280   29.9670   42.1940 N   0  0  0  0  0  0  0  0  0  0  0  0
   35.7640   29.7330   42.8930 H   0  0  0  0  0  0  0  0  0  0  0  0
   37.6640   29.1960   42.5540 C   0  0  0  0  0  0  0  0  0  0  0  0
   37.3000   27.9830   43.0790 C   0  0  0  0  0  0  0  0  0  0  0  0
   36.3740   27.4040   43.3110 H   0  0  0  0  0  0  0  0  0  0  0  0
   38.8740   27.1910   43.4580 S   0  0  0  0  0  0  0  0  0  0  0  0
   39.8200   28.7200   42.8020 C   0  0  0  0  0  0  0  0  0  0  0  0
   40.9940   28.7380   42.8120 H   0  0  0  0  0  0  0  0  0  0  0  0
   38.9600   29.3610   42.5050 N   0  0  0  0  0  0  0  0  0  0  0  0
  1  7  1  0  0  0  0
  2  1  1  0  0  0  0
  2 13  1  0  0  0  0
  3  9  1  0  0  0  0
  3  2  2  0  0  0  0
  4  5  2  0  0  0  0
  4  3  1  0  0  0  0
  5  6  1  0  0  0  0
  6  1  2  0  0  0  0
  8  5  1  0  0  0  0
  9 12  1  0  0  0  0
  9 11  1  0  0  0  0
 10  9  1  0  0  0  0
 13 14  1  0  0  0  0
 13 15  1  0  0  0  0
 13 16  1  0  0  0  0
 16 18  1  0  0  0  0
 16 17  1  0  0  0  0
 18 19  2  0  0  0  0
 19 20  1  0  0  0  0
 19 21  1  0  0  0  0
 22 23  1  0  0  0  0
 22 21  1  0  0  0  0
 24 18  1  0  0  0  0
 24 22  2  0  0  0  0
M  END
>  <minimizedAffinity>
-4.5053277

$$$$

 OpenBabel03252501203D

 24 25  0  0  0  0  0  0  0  0999 V2000
   36.0560   29.8120   38.8330 C   0  0  0  0  0  0  0  0  0  0  0  0
   36.6040   30.8570   39.5890 C   0  0  0  0  0  0  0  0  0  0  0  0
   37.5450   31.6510   38.9520 C   0  0  0  0  0  0  0  0  0  0  0  0
   37.8940   31.3980   37.6610 N   0  0  0  0  0  0  0  0  0  0  0  0
   37.3420   30.3830   36.9740 C   0  0  0  0  0  0  0  0  0  0  0  0
   36.4210   29.5890   37.5600 N   0  0  0  0  0  0  0  0  0  0  0  0
   35.3070   29.1450   39.2420 H   0  0  0  0  0  0  0  0  0  0  0  0
   37.6840   30.2540   35.9480 H   0  0  0  0  0  0  0  0  0  0  0  0
   38.1050   32.7500   39.7730 C   0  0  0  0  0  0  0  0  0  0  0  0
   39.1830   33.3050   39.1030 F   0  0  0  0  0  0  0  0  0  0  0  0
   38.5920   32.1730   40.9100 F   0  0  0  0  0  0  0  0  0  0  0  0
   37.2250   33.7600   39.9620 F   0  0  0  0  0  0  0  0  0  0  0  0
   36.1940   31.0800   40.9770 C   0  0  0  0  0  0  0  0  0  0  0  0
   36.8950   31.6580   41.5910 H   0  0  0  0  0  0  0  0  0  0  0  0
   35.1520   31.3880   41.0170 H   0  0  0  0  0  0  0  0  0  0  0  0
   36.3030   29.8210   41.7220 N   0  0  0  0  0  0  0  0  0  0  0  0
   35.4310   29.2650   41.9610 H   0  0  0  0  0  0  0  0  0  0  0  0
   37.4070   29.1030   42.2520 C   0  0  0  0  0  0  0  0  0  0  0  0
   37.0410   27.8410   42.6450 C   0  0  0  0  0  0  0  0  0  0  0  0
   36.1310   27.1930   42.6740 H   0  0  0  0  0  0  0  0  0  0  0  0
   38.5710   27.1270   43.2740 S   0  0  0  0  0  0  0  0  0  0  0  0
   39.5090   28.7470   42.8760 C   0  0  0  0  0  0  0  0  0  0  0  0
   40.6580   28.8370   43.1040 H   0  0  0  0  0  0  0  0  0  0  0  0
   38.6740   29.3500   42.4530 N   0  0  0  0  0  0  0  0  0  0  0  0
  1  7  1  0  0  0  0
  1  2  1  0  0  0  0
  2 13  1  0  0  0  0
  3  2  2  0  0  0  0
  3  9  1  0  0  0  0
  4  3  1  0  0  0  0
  5  6  1  0  0  0  0
  5  4  2  0  0  0  0
  6  1  2  0  0  0  0
  8  5  1  0  0  0  0
  9 12  1  0  0  0  0
  9 11  1  0  0  0  0
 10  9  1  0  0  0  0
 13 15  1  0  0  0  0
 13 14  1  0  0  0  0
 13 16  1  0  0  0  0
 16 17  1  0  0  0  0
 16 18  1  0  0  0  0
 18 24  1  0  0  0  0
 18 19  2  0  0  0  0
 19 20  1  0  0  0  0
 19 21  1  0  0  0  0
 22 23  1  0  0  0  0
 22 21  1  0  0  0  0
 24 22  2  0  0  0  0
M  END
>  <minimizedAffinity>
-4.41042995

$$$$

 OpenBabel03252501203D

 24 25  0  0  0  0  0  0  0  0999 V2000
   39.2910   27.6350   43.3280 C   0  0  0  0  0  0  0  0  0  0  0  0
   38.1550   26.9360   42.9010 C   0  0  0  0  0  0  0  0  0  0  0  0
   38.3810   25.7530   42.2140 C   0  0  0  0  0  0  0  0  0  0  0  0
   39.6520   25.3260   41.9850 N   0  0  0  0  0  0  0  0  0  0  0  0
   40.7140   26.0300   42.4130 C   0  0  0  0  0  0  0  0  0  0  0  0
   40.5340   27.1860   43.0860 N   0  0  0  0  0  0  0  0  0  0  0  0
   39.2150   28.5640   43.8800 H   0  0  0  0  0  0  0  0  0  0  0  0
   41.6930   25.6130   42.1820 H   0  0  0  0  0  0  0  0  0  0  0  0
   37.1610   25.0330   41.7780 C   0  0  0  0  0  0  0  0  0  0  0  0
   37.5290   23.7990   41.2670 F   0  0  0  0  0  0  0  0  0  0  0  0
   36.6350   25.7540   40.7450 F   0  0  0  0  0  0  0  0  0  0  0  0
   36.3130   24.7750   42.8000 F   0  0  0  0  0  0  0  0  0  0  0  0
   36.8090   27.4450   43.1710 C   0  0  0  0  0  0  0  0  0  0  0  0
   35.9900   26.9050   42.6820 H   0  0  0  0  0  0  0  0  0  0  0  0
   36.6880   27.6430   44.2340 H   0  0  0  0  0  0  0  0  0  0  0  0
   36.6240   28.7200   42.4690 N   0  0  0  0  0  0  0  0  0  0  0  0
   36.8400   29.6370   42.9600 H   0  0  0  0  0  0  0  0  0  0  0  0
   36.1790   29.0500   41.1620 C   0  0  0  0  0  0  0  0  0  0  0  0
   37.1670   29.6640   40.4370 C   0  0  0  0  0  0  0  0  0  0  0  0
   38.2300   29.9880   40.5570 H   0  0  0  0  0  0  0  0  0  0  0  0
   36.3920   29.9860   38.8430 S   0  0  0  0  0  0  0  0  0  0  0  0
   34.7640   29.1860   39.4550 C   0  0  0  0  0  0  0  0  0  0  0  0
   33.8330   29.1200   38.7420 H   0  0  0  0  0  0  0  0  0  0  0  0
   35.0680   28.9090   40.4900 N   0  0  0  0  0  0  0  0  0  0  0  0
  1  7  1  0  0  0  0
  2 13  1  0  0  0  0
  2  1  2  0  0  0  0
  3  2  1  0  0  0  0
  4  3  2  0  0  0  0
  4  5  1  0  0  0  0
  5  6  2  0  0  0  0
  6  1  1  0  0  0  0
  8  5  1  0  0  0  0
  9  3  1  0  0  0  0
  9 12  1  0  0  0  0
 10  9  1  0  0  0  0
 11  9  1  0  0  0  0
 13 15  1  0  0  0  0
 14 13  1  0  0  0  0
 16 17  1  0  0  0  0
 16 13  1  0  0  0  0
 18 16  1  0  0  0  0
 19 20  1  0  0  0  0
 19 18  2  0  0  0  0
 21 22  1  0  0  0  0
 21 19  1  0  0  0  0
 22 24  2  0  0  0  0
 23 22  1  0  0  0  0
 24 18  1  0  0  0  0
M  END
>  <minimizedAffinity>
-4.36239529

$$$$

 OpenBabel03252501203D

 24 25  0  0  0  0  0  0  0  0999 V2000
   36.6290   31.2500   40.8600 C   0  0  0  0  0  0  0  0  0  0  0  0
   36.1510   30.2300   40.0270 C   0  0  0  0  0  0  0  0  0  0  0  0
   36.4000   30.3740   38.6700 C   0  0  0  0  0  0  0  0  0  0  0  0
   37.0730   31.4630   38.2100 N   0  0  0  0  0  0  0  0  0  0  0  0
   37.5130   32.4190   39.0460 C   0  0  0  0  0  0  0  0  0  0  0  0
   37.2910   32.3130   40.3740 N   0  0  0  0  0  0  0  0  0  0  0  0
   36.4900   31.2220   41.9340 H   0  0  0  0  0  0  0  0  0  0  0  0
   38.0390   33.2550   38.5880 H   0  0  0  0  0  0  0  0  0  0  0  0
   35.8880   29.2790   37.8140 C   0  0  0  0  0  0  0  0  0  0  0  0
   36.2930   29.5050   36.5090 F   0  0  0  0  0  0  0  0  0  0  0  0
   34.5270   29.3760   37.8350 F   0  0  0  0  0  0  0  0  0  0  0  0
   36.3920   28.0700   38.1550 F   0  0  0  0  0  0  0  0  0  0  0  0
   35.4280   29.0820   40.5770 C   0  0  0  0  0  0  0  0  0  0  0  0
   34.4210   29.2940   40.9560 H   0  0  0  0  0  0  0  0  0  0  0  0
   35.5230   28.2250   39.9160 H   0  0  0  0  0  0  0  0  0  0  0  0
   36.0250   28.7060   41.8640 N   0  0  0  0  0  0  0  0  0  0  0  0
   35.6740   29.1460   42.7650 H   0  0  0  0  0  0  0  0  0  0  0  0
   37.0620   27.8070   42.2230 C   0  0  0  0  0  0  0  0  0  0  0  0
   37.1550   26.7680   41.3330 C   0  0  0  0  0  0  0  0  0  0  0  0
   36.6620   26.4070   40.3980 H   0  0  0  0  0  0  0  0  0  0  0  0
   38.5110   25.7710   41.9770 S   0  0  0  0  0  0  0  0  0  0  0  0
   38.7450   26.9970   43.4280 C   0  0  0  0  0  0  0  0  0  0  0  0
   39.5820   26.8120   44.2300 H   0  0  0  0  0  0  0  0  0  0  0  0
   37.9420   27.7310   43.1870 N   0  0  0  0  0  0  0  0  0  0  0  0
  1  7  1  0  0  0  0
  2 13  1  0  0  0  0
  2  1  2  0  0  0  0
  3  2  1  0  0  0  0
  4  3  2  0  0  0  0
  4  5  1  0  0  0  0
  5  6  2  0  0  0  0
  6  1  1  0  0  0  0
  8  5  1  0  0  0  0
  9 11  1  0  0  0  0
  9 12  1  0  0  0  0
  9  3  1  0  0  0  0
 10  9  1  0  0  0  0
 13 14  1  0  0  0  0
 13 16  1  0  0  0  0
 15 13  1  0  0  0  0
 16 18  1  0  0  0  0
 16 17  1  0  0  0  0
 18 24  1  0  0  0  0
 19 21  1  0  0  0  0
 19 18  2  0  0  0  0
 20 19  1  0  0  0  0
 21 22  1  0  0  0  0
 22 23  1  0  0  0  0
 24 22  2  0  0  0  0
M  END
>  <minimizedAffinity>
-4.34575605

$$$$

 OpenBabel03252501203D

 24 25  0  0  0  0  0  0  0  0999 V2000
   35.7890   29.1910   39.3050 C   0  0  0  0  0  0  0  0  0  0  0  0
   36.2790   29.1990   40.6170 C   0  0  0  0  0  0  0  0  0  0  0  0
   36.7190   27.9830   41.1190 C   0  0  0  0  0  0  0  0  0  0  0  0
   36.6610   26.8640   40.3480 N   0  0  0  0  0  0  0  0  0  0  0  0
   36.1820   26.9030   39.0920 C   0  0  0  0  0  0  0  0  0  0  0  0
   35.7450   28.0680   38.5700 N   0  0  0  0  0  0  0  0  0  0  0  0
   35.4310   30.0930   38.8240 H   0  0  0  0  0  0  0  0  0  0  0  0
   36.1710   25.9570   38.5520 H   0  0  0  0  0  0  0  0  0  0  0  0
   37.2360   28.0230   42.5070 C   0  0  0  0  0  0  0  0  0  0  0  0
   38.0720   26.9360   42.7030 F   0  0  0  0  0  0  0  0  0  0  0  0
   36.1580   27.8530   43.3260 F   0  0  0  0  0  0  0  0  0  0  0  0
   37.9890   29.1200   42.7530 F   0  0  0  0  0  0  0  0  0  0  0  0
   36.3140   30.4340   41.4030 C   0  0  0  0  0  0  0  0  0  0  0  0
   35.3470   30.7760   41.7910 H   0  0  0  0  0  0  0  0  0  0  0  0
   37.1350   30.4050   42.1140 H   0  0  0  0  0  0  0  0  0  0  0  0
   36.5560   31.5710   40.5070 N   0  0  0  0  0  0  0  0  0  0  0  0
   35.7720   31.9500   39.9000 H   0  0  0  0  0  0  0  0  0  0  0  0
   37.7040   32.3590   40.2330 C   0  0  0  0  0  0  0  0  0  0  0  0
   38.6350   31.6540   39.5150 C   0  0  0  0  0  0  0  0  0  0  0  0
   38.7710   30.6380   39.0690 H   0  0  0  0  0  0  0  0  0  0  0  0
   39.9820   32.8300   39.2880 S   0  0  0  0  0  0  0  0  0  0  0  0
   39.0050   34.1600   40.2570 C   0  0  0  0  0  0  0  0  0  0  0  0
   39.4630   35.2290   40.4200 H   0  0  0  0  0  0  0  0  0  0  0  0
   38.0840   33.5810   40.4960 N   0  0  0  0  0  0  0  0  0  0  0  0
  1  2  1  0  0  0  0
  2  3  2  0  0  0  0
  2 13  1  0  0  0  0
  3  9  1  0  0  0  0
  4  3  1  0  0  0  0
  5  4  2  0  0  0  0
  6  5  1  0  0  0  0
  6  1  2  0  0  0  0
  7  1  1  0  0  0  0
  8  5  1  0  0  0  0
  9 10  1  0  0  0  0
  9 12  1  0  0  0  0
  9 11  1  0  0  0  0
 13 14  1  0  0  0  0
 13 15  1  0  0  0  0
 16 13  1  0  0  0  0
 17 16  1  0  0  0  0
 18 24  1  0  0  0  0
 18 16  1  0  0  0  0
 19 18  2  0  0  0  0
 20 19  1  0  0  0  0
 21 19  1  0  0  0  0
 21 22  1  0  0  0  0
 22 23  1  0  0  0  0
 22 24  2  0  0  0  0
M  END
>  <minimizedAffinity>
-4.28806114

$$$$

 OpenBabel03252501203D

 24 25  0  0  0  0  0  0  0  0999 V2000
   36.5710   27.0660   39.4410 C   0  0  0  0  0  0  0  0  0  0  0  0
   36.5730   27.6540   40.7120 C   0  0  0  0  0  0  0  0  0  0  0  0
   37.4800   27.1410   41.6270 C   0  0  0  0  0  0  0  0  0  0  0  0
   38.3070   26.1210   41.2730 N   0  0  0  0  0  0  0  0  0  0  0  0
   38.2700   25.5860   40.0400 C   0  0  0  0  0  0  0  0  0  0  0  0
   37.4000   26.0590   39.1220 N   0  0  0  0  0  0  0  0  0  0  0  0
   35.9040   27.4050   38.6570 H   0  0  0  0  0  0  0  0  0  0  0  0
   38.9660   24.7710   39.8480 H   0  0  0  0  0  0  0  0  0  0  0  0
   37.4630   27.7850   42.9620 C   0  0  0  0  0  0  0  0  0  0  0  0
   38.5680   27.3570   43.6790 F   0  0  0  0  0  0  0  0  0  0  0  0
   36.3580   27.3090   43.6060 F   0  0  0  0  0  0  0  0  0  0  0  0
   37.5630   29.1320   42.8930 F   0  0  0  0  0  0  0  0  0  0  0  0
   35.6570   28.7480   41.0400 C   0  0  0  0  0  0  0  0  0  0  0  0
   34.5910   28.4910   41.0360 H   0  0  0  0  0  0  0  0  0  0  0  0
   36.0170   29.2940   41.9080 H   0  0  0  0  0  0  0  0  0  0  0  0
   35.6140   29.6950   39.9200 N   0  0  0  0  0  0  0  0  0  0  0  0
   34.8390   29.6320   39.1960 H   0  0  0  0  0  0  0  0  0  0  0  0
   36.4450   30.7800   39.5380 C   0  0  0  0  0  0  0  0  0  0  0  0
   36.8020   31.5420   40.6200 C   0  0  0  0  0  0  0  0  0  0  0  0
   36.6430   31.5720   41.7260 H   0  0  0  0  0  0  0  0  0  0  0  0
   37.8360   32.8370   39.9100 S   0  0  0  0  0  0  0  0  0  0  0  0
   37.6020   32.0880   38.1640 C   0  0  0  0  0  0  0  0  0  0  0  0
   38.1160   32.5870   37.2340 H   0  0  0  0  0  0  0  0  0  0  0  0
   36.9470   31.2230   38.4160 N   0  0  0  0  0  0  0  0  0  0  0  0
  1  2  1  0  0  0  0
  2 13  1  0  0  0  0
  2  3  2  0  0  0  0
  3  9  1  0  0  0  0
  4  3  1  0  0  0  0
  5  4  2  0  0  0  0
  6  1  2  0  0  0  0
  6  5  1  0  0  0  0
  7  1  1  0  0  0  0
  8  5  1  0  0  0  0
  9 11  1  0  0  0  0
  9 10  1  0  0  0  0
 12  9  1  0  0  0  0
 13 15  1  0  0  0  0
 14 13  1  0  0  0  0
 16 13  1  0  0  0  0
 17 16  1  0  0  0  0
 18 16  1  0  0  0  0
 18 19  2  0  0  0  0
 19 20  1  0  0  0  0
 21 19  1  0  0  0  0
 22 24  2  0  0  0  0
 22 21  1  0  0  0  0
 23 22  1  0  0  0  0
 24 18  1  0  0  0  0
M  END
>  <minimizedAffinity>
-4.24071455

$$$$

 OpenBabel03252501203D

 24 25  0  0  0  0  0  0  0  0999 V2000
   40.1470   26.7320   41.6140 C   0  0  0  0  0  0  0  0  0  0  0  0
   39.1550   27.5500   42.1710 C   0  0  0  0  0  0  0  0  0  0  0  0
   37.8880   26.9970   42.2770 C   0  0  0  0  0  0  0  0  0  0  0  0
   37.6570   25.7260   41.8520 N   0  0  0  0  0  0  0  0  0  0  0  0
   38.6400   24.9760   41.3220 C   0  0  0  0  0  0  0  0  0  0  0  0
   39.8880   25.4800   41.2040 N   0  0  0  0  0  0  0  0  0  0  0  0
   41.1690   27.0730   41.4990 H   0  0  0  0  0  0  0  0  0  0  0  0
   38.3620   23.9720   41.0070 H   0  0  0  0  0  0  0  0  0  0  0  0
   36.8600   27.8830   42.8740 C   0  0  0  0  0  0  0  0  0  0  0  0
   36.0280   27.1240   43.6790 F   0  0  0  0  0  0  0  0  0  0  0  0
   36.1020   28.3470   41.8380 F   0  0  0  0  0  0  0  0  0  0  0  0
   37.3920   28.8320   43.6780 F   0  0  0  0  0  0  0  0  0  0  0  0
   39.4590   28.9140   42.6080 C   0  0  0  0  0  0  0  0  0  0  0  0
   38.6320   29.4560   43.0810 H   0  0  0  0  0  0  0  0  0  0  0  0
   40.4120   28.9380   43.1320 H   0  0  0  0  0  0  0  0  0  0  0  0
   39.5890   29.7810   41.4320 N   0  0  0  0  0  0  0  0  0  0  0  0
   40.4090   29.6630   40.7690 H   0  0  0  0  0  0  0  0  0  0  0  0
   38.8010   30.8470   40.9240 C   0  0  0  0  0  0  0  0  0  0  0  0
   39.5660   31.9520   40.6570 C   0  0  0  0  0  0  0  0  0  0  0  0
   40.6330   32.2780   40.7130 H   0  0  0  0  0  0  0  0  0  0  0  0
   38.3780   33.1560   40.0350 S   0  0  0  0  0  0  0  0  0  0  0  0
   36.9590   31.8890   40.2490 C   0  0  0  0  0  0  0  0  0  0  0  0
   35.8580   32.1800   39.9600 H   0  0  0  0  0  0  0  0  0  0  0  0
   37.5350   31.0260   40.6510 N   0  0  0  0  0  0  0  0  0  0  0  0
  1  2  1  0  0  0  0
  2  3  2  0  0  0  0
  2 13  1  0  0  0  0
  3  9  1  0  0  0  0
  4  3  1  0  0  0  0
  5  4  2  0  0  0  0
  6  5  1  0  0  0  0
  6  1  2  0  0  0  0
  7  1  1  0  0  0  0
  8  5  1  0  0  0  0
  9 12  1  0  0  0  0
  9 10  1  0  0  0  0
 11  9  1  0  0  0  0
 13 14  1  0  0  0  0
 13 15  1  0  0  0  0
 16 13  1  0  0  0  0
 17 16  1  0  0  0  0
 18 16  1  0  0  0  0
 19 20  1  0  0  0  0
 19 18  2  0  0  0  0
 21 22  1  0  0  0  0
 21 19  1  0  0  0  0
 22 24  2  0  0  0  0
 23 22  1  0  0  0  0
 24 18  1  0  0  0  0
M  END
>  <minimizedAffinity>
-4.14741087

$$$$

 OpenBabel03252501203D

 24 25  0  0  0  0  0  0  0  0999 V2000
   39.5990   29.8110   42.4930 C   0  0  0  0  0  0  0  0  0  0  0  0
   38.5180   30.2940   41.7440 C   0  0  0  0  0  0  0  0  0  0  0  0
   37.3920   29.4860   41.6950 C   0  0  0  0  0  0  0  0  0  0  0  0
   37.3760   28.2930   42.3490 N   0  0  0  0  0  0  0  0  0  0  0  0
   38.4390   27.8690   43.0560 C   0  0  0  0  0  0  0  0  0  0  0  0
   39.5520   28.6290   43.1280 N   0  0  0  0  0  0  0  0  0  0  0  0
   40.5180   30.3750   42.5970 H   0  0  0  0  0  0  0  0  0  0  0  0
   38.3360   26.9000   43.5440 H   0  0  0  0  0  0  0  0  0  0  0  0
   36.2630   30.0230   40.9000 C   0  0  0  0  0  0  0  0  0  0  0  0
   35.8600   31.2270   41.4540 F   0  0  0  0  0  0  0  0  0  0  0  0
   35.2300   29.1450   41.0530 F   0  0  0  0  0  0  0  0  0  0  0  0
   36.6090   30.3000   39.6220 F   0  0  0  0  0  0  0  0  0  0  0  0
   38.5920   31.5840   41.0560 C   0  0  0  0  0  0  0  0  0  0  0  0
   38.7440   31.5350   39.9710 H   0  0  0  0  0  0  0  0  0  0  0  0
   37.7990   32.2420   41.4020 H   0  0  0  0  0  0  0  0  0  0  0  0
   39.8670   32.2340   41.3830 N   0  0  0  0  0  0  0  0  0  0  0  0
   40.2240   32.2370   42.3820 H   0  0  0  0  0  0  0  0  0  0  0  0
   40.8270   32.9290   40.6010 C   0  0  0  0  0  0  0  0  0  0  0  0
   42.0800   32.8350   41.1490 C   0  0  0  0  0  0  0  0  0  0  0  0
   42.5880   32.3730   42.0300 H   0  0  0  0  0  0  0  0  0  0  0  0
   43.1160   33.7740   40.0120 S   0  0  0  0  0  0  0  0  0  0  0  0
   41.5930   34.1580   38.9170 C   0  0  0  0  0  0  0  0  0  0  0  0
   41.7140   34.8000   37.9410 H   0  0  0  0  0  0  0  0  0  0  0  0
   40.8050   33.6270   39.4970 N   0  0  0  0  0  0  0  0  0  0  0  0
  1  7  1  0  0  0  0
  1  6  1  0  0  0  0
  2  1  2  0  0  0  0
  3  2  1  0  0  0  0
  3  4  2  0  0  0  0
  4  5  1  0  0  0  0
  5  6  2  0  0  0  0
  5  8  1  0  0  0  0
  9 11  1  0  0  0  0
  9 10  1  0  0  0  0
  9  3  1  0  0  0  0
 12  9  1  0  0  0  0
 13 16  1  0  0  0  0
 13 15  1  0  0  0  0
 13  2  1  0  0  0  0
 14 13  1  0  0  0  0
 16 17  1  0  0  0  0
 18 19  2  0  0  0  0
 18 16  1  0  0  0  0
 19 20  1  0  0  0  0
 21 19  1  0  0  0  0
 22 24  2  0  0  0  0
 22 21  1  0  0  0  0
 23 22  1  0  0  0  0
 24 18  1  0  0  0  0
M  END
>  <minimizedAffinity>
-4.13398361

$$$$
