
 OpenBabel03252509103D

 39 42  0  0  0  0  0  0  0  0999 V2000
   36.1250   27.3170   39.1530 C   0  0  0  0  0  0  0  0  0  0  0  0
   35.8520   28.2700   40.0880 C   0  0  0  0  0  0  0  0  0  0  0  0
   34.7970   29.1440   39.8910 C   0  0  0  0  0  0  0  0  0  0  0  0
   34.0200   29.0630   38.7650 C   0  0  0  0  0  0  0  0  0  0  0  0
   34.2620   28.1040   37.7850 C   0  0  0  0  0  0  0  0  0  0  0  0
   35.3340   27.2290   38.0010 C   0  0  0  0  0  0  0  0  0  0  0  0
   34.5430   29.9190   40.6080 H   0  0  0  0  0  0  0  0  0  0  0  0
   33.1810   29.6870   38.5120 H   0  0  0  0  0  0  0  0  0  0  0  0
   33.7350   27.9290   36.8600 H   0  0  0  0  0  0  0  0  0  0  0  0
   35.5800   26.4520   37.2700 H   0  0  0  0  0  0  0  0  0  0  0  0
   39.4830   30.7980   42.7550 Cl  0  0  0  0  0  0  0  0  0  0  0  0
   38.2440   29.5880   42.5600 C   0  0  0  0  0  0  0  0  0  0  0  0
   37.5580   29.4600   41.3940 C   0  0  0  0  0  0  0  0  0  0  0  0
   36.6080   28.4520   41.3300 C   0  0  0  0  0  0  0  0  0  0  0  0
   36.3650   27.6200   42.3920 C   0  0  0  0  0  0  0  0  0  0  0  0
   37.0570   27.7570   43.5510 C   0  0  0  0  0  0  0  0  0  0  0  0
   38.0020   28.7510   43.6260 C   0  0  0  0  0  0  0  0  0  0  0  0
   35.6140   26.8600   42.2790 H   0  0  0  0  0  0  0  0  0  0  0  0
   36.8670   27.1000   44.3910 H   0  0  0  0  0  0  0  0  0  0  0  0
   38.5480   28.8500   44.5580 H   0  0  0  0  0  0  0  0  0  0  0  0
   37.5430   32.4240   39.0600 C   0  0  0  0  0  0  0  0  0  0  0  0
   37.2390   31.5670   40.1240 C   0  0  0  0  0  0  0  0  0  0  0  0
   37.8690   30.3530   40.2960 C   0  0  0  0  0  0  0  0  0  0  0  0
   38.8060   30.0580   39.3510 N   0  0  0  0  0  0  0  0  0  0  0  0
   39.1020   30.8700   38.3360 C   0  0  0  0  0  0  0  0  0  0  0  0
   38.4760   32.0400   38.1940 N   0  0  0  0  0  0  0  0  0  0  0  0
   37.0260   33.3590   38.9690 H   0  0  0  0  0  0  0  0  0  0  0  0
   36.4870   31.8450   40.8480 H   0  0  0  0  0  0  0  0  0  0  0  0
   39.8580   30.5680   37.6250 H   0  0  0  0  0  0  0  0  0  0  0  0
   37.3740   26.2100   39.3950 S   0  0  0  0  0  0  0  0  0  0  0  0
   36.9360   25.0470   40.2600 O   0  0  0  0  0  0  0  0  0  0  0  0
   37.5050   25.5250   37.9740 O   0  0  0  0  0  0  0  0  0  0  0  0
   39.0030   26.6420   39.7590 C   0  0  0  0  0  0  0  0  0  0  0  0
   39.8020   26.7500   38.3700 C   0  0  0  0  0  0  0  0  0  0  0  0
   39.5720   26.6230   37.2630 H   0  0  0  0  0  0  0  0  0  0  0  0
   41.4880   27.1910   38.8370 S   0  0  0  0  0  0  0  0  0  0  0  0
   41.0180   27.1930   40.6690 C   0  0  0  0  0  0  0  0  0  0  0  0
   41.5200   27.3770   41.6170 H   0  0  0  0  0  0  0  0  0  0  0  0
   39.9100   26.9210   40.6610 N   0  0  0  0  0  0  0  0  0  0  0  0
  1 30  1  0  0  0  0
  1  2  1  0  0  0  0
  2 14  1  0  0  0  0
  3  2  2  0  0  0  0
  3  7  1  0  0  0  0
  4  3  1  0  0  0  0
  5  6  1  0  0  0  0
  5  4  2  0  0  0  0
  6  1  2  0  0  0  0
  8  4  1  0  0  0  0
  9  5  1  0  0  0  0
 10  6  1  0  0  0  0
 12 11  1  0  0  0  0
 12 17  1  0  0  0  0
 13 12  2  0  0  0  0
 14 13  1  0  0  0  0
 14 15  2  0  0  0  0
 15 16  1  0  0  0  0
 16 17  2  0  0  0  0
 16 19  1  0  0  0  0
 17 20  1  0  0  0  0
 18 15  1  0  0  0  0
 21 22  1  0  0  0  0
 22 23  2  0  0  0  0
 22 28  1  0  0  0  0
 23 13  1  0  0  0  0
 24 23  1  0  0  0  0
 25 24  2  0  0  0  0
 26 25  1  0  0  0  0
 26 21  2  0  0  0  0
 27 21  1  0  0  0  0
 29 25  1  0  0  0  0
 30 33  1  0  0  0  0
 30 31  2  0  0  0  0
 32 30  2  0  0  0  0
 33 39  1  0  0  0  0
 34 36  1  0  0  0  0
 34 33  2  0  0  0  0
 35 34  1  0  0  0  0
 36 37  1  0  0  0  0
 37 38  1  0  0  0  0
 39 37  2  0  0  0  0
M  END
>  <minimizedAffinity>
-5.96403074

$$$$

 OpenBabel03252509103D

 39 42  0  0  0  0  0  0  0  0999 V2000
   36.2580   27.2540   39.2020 C   0  0  0  0  0  0  0  0  0  0  0  0
   35.9460   28.2170   40.1150 C   0  0  0  0  0  0  0  0  0  0  0  0
   34.8710   29.0590   39.8860 C   0  0  0  0  0  0  0  0  0  0  0  0
   34.1130   28.9360   38.7510 C   0  0  0  0  0  0  0  0  0  0  0  0
   34.3950   27.9660   37.7930 C   0  0  0  0  0  0  0  0  0  0  0  0
   35.4860   27.1240   38.0400 C   0  0  0  0  0  0  0  0  0  0  0  0
   34.5870   29.8400   40.5850 H   0  0  0  0  0  0  0  0  0  0  0  0
   33.2610   29.5330   38.4740 H   0  0  0  0  0  0  0  0  0  0  0  0
   33.8860   27.7600   36.8640 H   0  0  0  0  0  0  0  0  0  0  0  0
   35.7630   26.3400   37.3280 H   0  0  0  0  0  0  0  0  0  0  0  0
   39.5270   30.8390   42.7600 Cl  0  0  0  0  0  0  0  0  0  0  0  0
   38.2910   29.6210   42.5840 C   0  0  0  0  0  0  0  0  0  0  0  0
   37.6280   29.4530   41.4110 C   0  0  0  0  0  0  0  0  0  0  0  0
   36.6790   28.4430   41.3640 C   0  0  0  0  0  0  0  0  0  0  0  0
   36.4170   27.6470   42.4490 C   0  0  0  0  0  0  0  0  0  0  0  0
   37.0860   27.8250   43.6150 C   0  0  0  0  0  0  0  0  0  0  0  0
   38.0290   28.8210   43.6730 C   0  0  0  0  0  0  0  0  0  0  0  0
   35.6680   26.8830   42.3480 H   0  0  0  0  0  0  0  0  0  0  0  0
   36.8820   27.1970   44.4730 H   0  0  0  0  0  0  0  0  0  0  0  0
   38.5590   28.9530   44.6110 H   0  0  0  0  0  0  0  0  0  0  0  0
   37.6680   32.3440   38.9870 C   0  0  0  0  0  0  0  0  0  0  0  0
   37.3440   31.5240   40.0740 C   0  0  0  0  0  0  0  0  0  0  0  0
   37.9580   30.3080   40.2880 C   0  0  0  0  0  0  0  0  0  0  0  0
   38.8990   29.9740   39.3610 N   0  0  0  0  0  0  0  0  0  0  0  0
   39.2140   30.7510   38.3250 C   0  0  0  0  0  0  0  0  0  0  0  0
   38.6030   31.9230   38.1410 N   0  0  0  0  0  0  0  0  0  0  0  0
   37.1620   33.2820   38.8630 H   0  0  0  0  0  0  0  0  0  0  0  0
   36.5900   31.8330   40.7820 H   0  0  0  0  0  0  0  0  0  0  0  0
   39.9730   30.4180   37.6300 H   0  0  0  0  0  0  0  0  0  0  0  0
   37.5320   26.1860   39.4820 S   0  0  0  0  0  0  0  0  0  0  0  0
   38.6760   26.8540   40.2150 O   0  0  0  0  0  0  0  0  0  0  0  0
   36.9420   25.2340   40.6000 O   0  0  0  0  0  0  0  0  0  0  0  0
   38.1420   25.0700   38.3180 C   0  0  0  0  0  0  0  0  0  0  0  0
   37.8370   23.5880   38.8540 C   0  0  0  0  0  0  0  0  0  0  0  0
   37.3390   23.1150   39.7620 H   0  0  0  0  0  0  0  0  0  0  0  0
   38.5120   22.4880   37.5940 S   0  0  0  0  0  0  0  0  0  0  0  0
   39.0850   23.9650   36.5620 C   0  0  0  0  0  0  0  0  0  0  0  0
   39.6000   24.1210   35.6150 H   0  0  0  0  0  0  0  0  0  0  0  0
   38.7580   24.8670   37.1800 N   0  0  0  0  0  0  0  0  0  0  0  0
  1 30  1  0  0  0  0
  1  2  1  0  0  0  0
  2 14  1  0  0  0  0
  3  2  2  0  0  0  0
  3  7  1  0  0  0  0
  4  3  1  0  0  0  0
  5  6  1  0  0  0  0
  5  4  2  0  0  0  0
  6  1  2  0  0  0  0
  8  4  1  0  0  0  0
  9  5  1  0  0  0  0
 10  6  1  0  0  0  0
 12 11  1  0  0  0  0
 12 17  1  0  0  0  0
 13 12  2  0  0  0  0
 14 13  1  0  0  0  0
 14 15  2  0  0  0  0
 15 16  1  0  0  0  0
 16 17  2  0  0  0  0
 16 19  1  0  0  0  0
 17 20  1  0  0  0  0
 18 15  1  0  0  0  0
 21 22  1  0  0  0  0
 22 23  2  0  0  0  0
 22 28  1  0  0  0  0
 23 13  1  0  0  0  0
 24 23  1  0  0  0  0
 25 24  2  0  0  0  0
 26 25  1  0  0  0  0
 26 21  2  0  0  0  0
 27 21  1  0  0  0  0
 29 25  1  0  0  0  0
 30 31  2  0  0  0  0
 30 32  2  0  0  0  0
 33 34  2  0  0  0  0
 33 30  1  0  0  0  0
 34 35  1  0  0  0  0
 36 34  1  0  0  0  0
 37 39  2  0  0  0  0
 37 36  1  0  0  0  0
 38 37  1  0  0  0  0
 39 33  1  0  0  0  0
M  END
>  <minimizedAffinity>
-5.90487194

$$$$

 OpenBabel03252509103D

 39 42  0  0  0  0  0  0  0  0999 V2000
   37.5650   29.5120   41.4000 C   0  0  0  0  0  0  0  0  0  0  0  0
   36.6210   28.5420   41.2410 C   0  0  0  0  0  0  0  0  0  0  0  0
   36.3480   27.6700   42.2810 C   0  0  0  0  0  0  0  0  0  0  0  0
   37.0170   27.7710   43.4730 C   0  0  0  0  0  0  0  0  0  0  0  0
   37.9880   28.7470   43.6800 C   0  0  0  0  0  0  0  0  0  0  0  0
   38.2510   29.6190   42.6160 C   0  0  0  0  0  0  0  0  0  0  0  0
   35.6050   26.8830   42.1990 H   0  0  0  0  0  0  0  0  0  0  0  0
   36.8860   27.1500   44.3430 H   0  0  0  0  0  0  0  0  0  0  0  0
   38.5850   28.9380   44.5580 H   0  0  0  0  0  0  0  0  0  0  0  0
   39.0020   30.4090   42.7110 H   0  0  0  0  0  0  0  0  0  0  0  0
   35.8700   25.9820   36.8170 Cl  0  0  0  0  0  0  0  0  0  0  0  0
   35.4760   27.1880   38.0120 C   0  0  0  0  0  0  0  0  0  0  0  0
   36.2200   27.3360   39.1390 C   0  0  0  0  0  0  0  0  0  0  0  0
   35.8400   28.3390   40.0170 C   0  0  0  0  0  0  0  0  0  0  0  0
   34.7610   29.1480   39.7670 C   0  0  0  0  0  0  0  0  0  0  0  0
   34.0260   28.9900   38.6380 C   0  0  0  0  0  0  0  0  0  0  0  0
   34.3950   28.0010   37.7590 C   0  0  0  0  0  0  0  0  0  0  0  0
   34.5170   29.9050   40.4880 H   0  0  0  0  0  0  0  0  0  0  0  0
   33.1750   29.6290   38.4370 H   0  0  0  0  0  0  0  0  0  0  0  0
   33.7990   27.8860   36.8600 H   0  0  0  0  0  0  0  0  0  0  0  0
   39.7380   25.9730   39.1620 C   0  0  0  0  0  0  0  0  0  0  0  0
   38.6400   26.8160   38.9600 C   0  0  0  0  0  0  0  0  0  0  0  0
   37.3630   26.4680   39.3450 C   0  0  0  0  0  0  0  0  0  0  0  0
   37.2590   25.2430   39.9330 N   0  0  0  0  0  0  0  0  0  0  0  0
   38.3010   24.4350   40.1300 C   0  0  0  0  0  0  0  0  0  0  0  0
   39.5270   24.7980   39.7470 N   0  0  0  0  0  0  0  0  0  0  0  0
   40.7130   26.2880   38.8450 H   0  0  0  0  0  0  0  0  0  0  0  0
   38.7730   27.7780   38.4880 H   0  0  0  0  0  0  0  0  0  0  0  0
   38.1400   23.4770   40.6050 H   0  0  0  0  0  0  0  0  0  0  0  0
   37.8790   30.6160   40.1640 S   0  0  0  0  0  0  0  0  0  0  0  0
   37.7530   29.9790   38.7960 O   0  0  0  0  0  0  0  0  0  0  0  0
   36.6020   31.5490   40.2050 O   0  0  0  0  0  0  0  0  0  0  0  0
   39.1780   31.7500   40.1760 C   0  0  0  0  0  0  0  0  0  0  0  0
   40.4910   30.9940   39.6470 C   0  0  0  0  0  0  0  0  0  0  0  0
   40.7640   29.9510   39.2800 H   0  0  0  0  0  0  0  0  0  0  0  0
   41.7970   32.2380   39.7010 S   0  0  0  0  0  0  0  0  0  0  0  0
   40.5860   33.5320   40.3600 C   0  0  0  0  0  0  0  0  0  0  0  0
   40.6250   34.5790   40.6540 H   0  0  0  0  0  0  0  0  0  0  0  0
   39.5980   32.9640   40.4280 N   0  0  0  0  0  0  0  0  0  0  0  0
  1  6  1  0  0  0  0
  2  1  2  0  0  0  0
  2  3  1  0  0  0  0
  3  4  2  0  0  0  0
  4  5  1  0  0  0  0
  4  8  1  0  0  0  0
  5  9  1  0  0  0  0
  6 10  1  0  0  0  0
  6  5  2  0  0  0  0
  7  3  1  0  0  0  0
 11 12  1  0  0  0  0
 12 13  1  0  0  0  0
 13 23  1  0  0  0  0
 13 14  2  0  0  0  0
 14  2  1  0  0  0  0
 15 14  1  0  0  0  0
 15 18  1  0  0  0  0
 16 15  2  0  0  0  0
 17 12  2  0  0  0  0
 17 16  1  0  0  0  0
 19 16  1  0  0  0  0
 20 17  1  0  0  0  0
 21 26  1  0  0  0  0
 22 21  2  0  0  0  0
 22 23  1  0  0  0  0
 23 24  2  0  0  0  0
 24 25  1  0  0  0  0
 25 29  1  0  0  0  0
 26 25  2  0  0  0  0
 27 21  1  0  0  0  0
 28 22  1  0  0  0  0
 30 33  1  0  0  0  0
 30 32  2  0  0  0  0
 30  1  1  0  0  0  0
 31 30  2  0  0  0  0
 33 39  1  0  0  0  0
 34 36  1  0  0  0  0
 34 33  2  0  0  0  0
 35 34  1  0  0  0  0
 36 37  1  0  0  0  0
 37 39  2  0  0  0  0
 37 38  1  0  0  0  0
M  END
>  <minimizedAffinity>
-5.87986898

$$$$

 OpenBabel03252509103D

 39 42  0  0  0  0  0  0  0  0999 V2000
   36.5220   29.7230   38.2940 C   0  0  0  0  0  0  0  0  0  0  0  0
   36.4230   30.2940   39.5280 C   0  0  0  0  0  0  0  0  0  0  0  0
   35.3410   29.9970   40.3380 C   0  0  0  0  0  0  0  0  0  0  0  0
   34.3650   29.1330   39.9160 C   0  0  0  0  0  0  0  0  0  0  0  0
   34.4250   28.5260   38.6640 C   0  0  0  0  0  0  0  0  0  0  0  0
   35.5270   28.8390   37.8580 C   0  0  0  0  0  0  0  0  0  0  0  0
   35.2210   30.4280   41.3280 H   0  0  0  0  0  0  0  0  0  0  0  0
   33.4860   28.8340   40.4600 H   0  0  0  0  0  0  0  0  0  0  0  0
   33.7340   27.8330   38.2100 H   0  0  0  0  0  0  0  0  0  0  0  0
   35.6370   28.3980   36.8620 H   0  0  0  0  0  0  0  0  0  0  0  0
   40.3520   31.2120   42.7550 Cl  0  0  0  0  0  0  0  0  0  0  0  0
   39.1880   31.6650   41.5390 C   0  0  0  0  0  0  0  0  0  0  0  0
   38.3040   30.7640   41.0360 C   0  0  0  0  0  0  0  0  0  0  0  0
   37.4030   31.2280   40.0890 C   0  0  0  0  0  0  0  0  0  0  0  0
   37.3990   32.5350   39.6740 C   0  0  0  0  0  0  0  0  0  0  0  0
   38.2870   33.4250   40.1840 C   0  0  0  0  0  0  0  0  0  0  0  0
   39.1830   32.9780   41.1230 C   0  0  0  0  0  0  0  0  0  0  0  0
   36.6760   32.8300   38.9360 H   0  0  0  0  0  0  0  0  0  0  0  0
   38.2850   34.4570   39.8580 H   0  0  0  0  0  0  0  0  0  0  0  0
   39.8870   33.7000   41.5240 H   0  0  0  0  0  0  0  0  0  0  0  0
   37.7880   27.7030   43.1800 C   0  0  0  0  0  0  0  0  0  0  0  0
   37.7510   29.0220   42.7140 C   0  0  0  0  0  0  0  0  0  0  0  0
   38.3380   29.4000   41.5240 C   0  0  0  0  0  0  0  0  0  0  0  0
   38.9510   28.3910   40.8450 N   0  0  0  0  0  0  0  0  0  0  0  0
   38.9880   27.1320   41.2820 C   0  0  0  0  0  0  0  0  0  0  0  0
   38.4120   26.7940   42.4380 N   0  0  0  0  0  0  0  0  0  0  0  0
   37.3170   27.4570   44.1120 H   0  0  0  0  0  0  0  0  0  0  0  0
   37.2530   29.7880   43.2890 H   0  0  0  0  0  0  0  0  0  0  0  0
   39.4940   26.3840   40.6870 H   0  0  0  0  0  0  0  0  0  0  0  0
   37.8560   30.0310   37.3090 S   0  0  0  0  0  0  0  0  0  0  0  0
   37.9050   29.0950   36.1200 O   0  0  0  0  0  0  0  0  0  0  0  0
   37.4670   31.4040   36.6260 O   0  0  0  0  0  0  0  0  0  0  0  0
   39.4490   30.3360   37.8930 C   0  0  0  0  0  0  0  0  0  0  0  0
   39.8850   31.7950   37.3860 C   0  0  0  0  0  0  0  0  0  0  0  0
   39.4270   32.6370   36.7720 H   0  0  0  0  0  0  0  0  0  0  0  0
   41.5560   32.0300   38.0250 S   0  0  0  0  0  0  0  0  0  0  0  0
   41.5240   30.3230   38.8370 C   0  0  0  0  0  0  0  0  0  0  0  0
   42.1990   29.7160   39.4360 H   0  0  0  0  0  0  0  0  0  0  0  0
   40.4920   29.9170   38.5670 N   0  0  0  0  0  0  0  0  0  0  0  0
  1  2  1  0  0  0  0
  2 14  1  0  0  0  0
  2  3  2  0  0  0  0
  3  7  1  0  0  0  0
  4  3  1  0  0  0  0
  4  8  1  0  0  0  0
  5  4  2  0  0  0  0
  6  1  2  0  0  0  0
  6  5  1  0  0  0  0
  9  5  1  0  0  0  0
 10  6  1  0  0  0  0
 12 11  1  0  0  0  0
 13 23  1  0  0  0  0
 13 12  2  0  0  0  0
 14 13  1  0  0  0  0
 15 14  2  0  0  0  0
 15 16  1  0  0  0  0
 16 17  2  0  0  0  0
 17 20  1  0  0  0  0
 17 12  1  0  0  0  0
 18 15  1  0  0  0  0
 19 16  1  0  0  0  0
 21 27  1  0  0  0  0
 22 21  1  0  0  0  0
 22 28  1  0  0  0  0
 23 22  2  0  0  0  0
 24 25  2  0  0  0  0
 24 23  1  0  0  0  0
 25 26  1  0  0  0  0
 26 21  2  0  0  0  0
 29 25  1  0  0  0  0
 30 33  1  0  0  0  0
 30  1  1  0  0  0  0
 31 30  2  0  0  0  0
 32 30  2  0  0  0  0
 33 39  1  0  0  0  0
 34 33  2  0  0  0  0
 34 36  1  0  0  0  0
 35 34  1  0  0  0  0
 36 37  1  0  0  0  0
 37 38  1  0  0  0  0
 39 37  2  0  0  0  0
M  END
>  <minimizedAffinity>
-5.77460146

$$$$

 OpenBabel03252509103D

 39 42  0  0  0  0  0  0  0  0999 V2000
   37.3660   29.5160   38.8560 C   0  0  0  0  0  0  0  0  0  0  0  0
   36.7750   28.8340   39.8770 C   0  0  0  0  0  0  0  0  0  0  0  0
   35.4560   28.4290   39.7610 C   0  0  0  0  0  0  0  0  0  0  0  0
   34.7350   28.7050   38.6280 C   0  0  0  0  0  0  0  0  0  0  0  0
   35.3000   29.3970   37.5600 C   0  0  0  0  0  0  0  0  0  0  0  0
   36.6340   29.8000   37.6960 C   0  0  0  0  0  0  0  0  0  0  0  0
   34.9440   27.8840   40.5480 H   0  0  0  0  0  0  0  0  0  0  0  0
   33.7100   28.4390   38.4330 H   0  0  0  0  0  0  0  0  0  0  0  0
   34.8530   29.6780   36.6190 H   0  0  0  0  0  0  0  0  0  0  0  0
   37.1390   30.3480   36.8950 H   0  0  0  0  0  0  0  0  0  0  0  0
   39.0950   25.2890   42.8340 Cl  0  0  0  0  0  0  0  0  0  0  0  0
   38.5030   26.8910   42.4860 C   0  0  0  0  0  0  0  0  0  0  0  0
   37.9000   27.1810   41.3040 C   0  0  0  0  0  0  0  0  0  0  0  0
   37.4420   28.4790   41.1320 C   0  0  0  0  0  0  0  0  0  0  0  0
   37.5890   29.4310   42.1080 C   0  0  0  0  0  0  0  0  0  0  0  0
   38.1930   29.1300   43.2840 C   0  0  0  0  0  0  0  0  0  0  0  0
   38.6490   27.8470   43.4660 C   0  0  0  0  0  0  0  0  0  0  0  0
   37.2140   30.4190   41.9120 H   0  0  0  0  0  0  0  0  0  0  0  0
   38.3080   29.8800   44.0560 H   0  0  0  0  0  0  0  0  0  0  0  0
   39.1290   27.6180   44.4120 H   0  0  0  0  0  0  0  0  0  0  0  0
   36.5410   24.2560   39.3470 C   0  0  0  0  0  0  0  0  0  0  0  0
   36.6770   25.2680   40.3040 C   0  0  0  0  0  0  0  0  0  0  0  0
   37.7520   26.1310   40.3160 C   0  0  0  0  0  0  0  0  0  0  0  0
   38.6640   25.9200   39.3250 N   0  0  0  0  0  0  0  0  0  0  0  0
   38.5390   24.9600   38.4090 C   0  0  0  0  0  0  0  0  0  0  0  0
   37.4890   24.1370   38.4220 N   0  0  0  0  0  0  0  0  0  0  0  0
   35.6870   23.6080   39.3790 H   0  0  0  0  0  0  0  0  0  0  0  0
   35.9280   25.3950   41.0710 H   0  0  0  0  0  0  0  0  0  0  0  0
   39.3050   24.8530   37.6520 H   0  0  0  0  0  0  0  0  0  0  0  0
   38.9860   29.9750   38.9550 S   0  0  0  0  0  0  0  0  0  0  0  0
   39.8760   28.8170   39.3530 O   0  0  0  0  0  0  0  0  0  0  0  0
   39.3780   30.1790   37.4360 O   0  0  0  0  0  0  0  0  0  0  0  0
   39.5420   31.4330   39.6890 C   0  0  0  0  0  0  0  0  0  0  0  0
   38.2760   32.4050   39.8670 C   0  0  0  0  0  0  0  0  0  0  0  0
   37.1610   32.3710   39.6460 H   0  0  0  0  0  0  0  0  0  0  0  0
   38.9420   33.9010   40.6250 S   0  0  0  0  0  0  0  0  0  0  0  0
   40.6830   33.1640   40.6360 C   0  0  0  0  0  0  0  0  0  0  0  0
   41.6750   33.4770   40.9540 H   0  0  0  0  0  0  0  0  0  0  0  0
   40.5400   32.1320   40.1710 N   0  0  0  0  0  0  0  0  0  0  0  0
  1 30  1  0  0  0  0
  1  2  1  0  0  0  0
  2 14  1  0  0  0  0
  3  2  2  0  0  0  0
  3  7  1  0  0  0  0
  4  3  1  0  0  0  0
  5  6  1  0  0  0  0
  5  4  2  0  0  0  0
  6  1  2  0  0  0  0
  8  4  1  0  0  0  0
  9  5  1  0  0  0  0
 10  6  1  0  0  0  0
 12 11  1  0  0  0  0
 12 17  1  0  0  0  0
 13 12  2  0  0  0  0
 14 13  1  0  0  0  0
 14 15  2  0  0  0  0
 15 16  1  0  0  0  0
 16 17  2  0  0  0  0
 16 19  1  0  0  0  0
 17 20  1  0  0  0  0
 18 15  1  0  0  0  0
 21 27  1  0  0  0  0
 21 22  1  0  0  0  0
 22 23  2  0  0  0  0
 22 28  1  0  0  0  0
 23 13  1  0  0  0  0
 24 23  1  0  0  0  0
 25 26  1  0  0  0  0
 25 24  2  0  0  0  0
 26 21  2  0  0  0  0
 29 25  1  0  0  0  0
 30 31  2  0  0  0  0
 30 33  1  0  0  0  0
 32 30  2  0  0  0  0
 33 34  2  0  0  0  0
 33 39  1  0  0  0  0
 34 36  1  0  0  0  0
 35 34  1  0  0  0  0
 36 37  1  0  0  0  0
 37 38  1  0  0  0  0
 39 37  2  0  0  0  0
M  END
>  <minimizedAffinity>
-5.63831568

$$$$

 OpenBabel03252509103D

 39 42  0  0  0  0  0  0  0  0999 V2000
   36.5600   29.4700   39.3290 C   0  0  0  0  0  0  0  0  0  0  0  0
   36.7140   28.2190   39.8460 C   0  0  0  0  0  0  0  0  0  0  0  0
   36.3160   27.1160   39.1080 C   0  0  0  0  0  0  0  0  0  0  0  0
   35.7690   27.2680   37.8610 C   0  0  0  0  0  0  0  0  0  0  0  0
   35.5940   28.5280   37.2940 C   0  0  0  0  0  0  0  0  0  0  0  0
   36.0020   29.6310   38.0540 C   0  0  0  0  0  0  0  0  0  0  0  0
   36.4190   26.1010   39.4800 H   0  0  0  0  0  0  0  0  0  0  0  0
   35.4260   26.4860   37.2050 H   0  0  0  0  0  0  0  0  0  0  0  0
   35.1820   28.7900   36.3310 H   0  0  0  0  0  0  0  0  0  0  0  0
   35.8930   30.6490   37.6690 H   0  0  0  0  0  0  0  0  0  0  0  0
   40.6800   26.5430   42.7010 Cl  0  0  0  0  0  0  0  0  0  0  0  0
   39.0740   27.1810   42.4770 C   0  0  0  0  0  0  0  0  0  0  0  0
   38.5850   27.4460   41.2380 C   0  0  0  0  0  0  0  0  0  0  0  0
   37.2870   27.9310   41.1630 C   0  0  0  0  0  0  0  0  0  0  0  0
   36.5280   28.1370   42.2860 C   0  0  0  0  0  0  0  0  0  0  0  0
   37.0280   27.8690   43.5180 C   0  0  0  0  0  0  0  0  0  0  0  0
   38.3110   27.3870   43.6040 C   0  0  0  0  0  0  0  0  0  0  0  0
   35.5300   28.5160   42.1600 H   0  0  0  0  0  0  0  0  0  0  0  0
   36.4290   28.0300   44.4050 H   0  0  0  0  0  0  0  0  0  0  0  0
   38.6980   27.1760   44.5950 H   0  0  0  0  0  0  0  0  0  0  0  0
   41.0110   27.9120   38.3860 C   0  0  0  0  0  0  0  0  0  0  0  0
   40.2040   28.1660   39.5020 C   0  0  0  0  0  0  0  0  0  0  0  0
   39.4220   27.1900   40.0830 C   0  0  0  0  0  0  0  0  0  0  0  0
   39.4990   25.9680   39.4860 N   0  0  0  0  0  0  0  0  0  0  0  0
   40.2660   25.7180   38.4250 C   0  0  0  0  0  0  0  0  0  0  0  0
   41.0130   26.6820   37.8820 N   0  0  0  0  0  0  0  0  0  0  0  0
   41.6020   28.7040   37.9690 H   0  0  0  0  0  0  0  0  0  0  0  0
   40.1770   29.1530   39.9390 H   0  0  0  0  0  0  0  0  0  0  0  0
   40.2750   24.7210   38.0060 H   0  0  0  0  0  0  0  0  0  0  0  0
   37.0830   30.8240   40.1880 S   0  0  0  0  0  0  0  0  0  0  0  0
   36.8560   32.1040   39.4130 O   0  0  0  0  0  0  0  0  0  0  0  0
   35.9990   30.9430   41.3350 O   0  0  0  0  0  0  0  0  0  0  0  0
   38.5680   30.9110   41.0610 C   0  0  0  0  0  0  0  0  0  0  0  0
   39.6560   31.6070   40.1060 C   0  0  0  0  0  0  0  0  0  0  0  0
   39.6880   32.0380   39.0530 H   0  0  0  0  0  0  0  0  0  0  0  0
   41.1720   31.6490   41.0830 S   0  0  0  0  0  0  0  0  0  0  0  0
   40.3000   30.8160   42.5390 C   0  0  0  0  0  0  0  0  0  0  0  0
   40.5650   30.4910   43.5430 H   0  0  0  0  0  0  0  0  0  0  0  0
   39.2340   30.6620   42.1600 N   0  0  0  0  0  0  0  0  0  0  0  0
  1  2  1  0  0  0  0
  1 30  1  0  0  0  0
  2 14  1  0  0  0  0
  3  7  1  0  0  0  0
  3  2  2  0  0  0  0
  4  3  1  0  0  0  0
  5  4  2  0  0  0  0
  5  6  1  0  0  0  0
  6  1  2  0  0  0  0
  8  4  1  0  0  0  0
  9  5  1  0  0  0  0
 10  6  1  0  0  0  0
 12 11  1  0  0  0  0
 12 17  1  0  0  0  0
 13 12  2  0  0  0  0
 14 13  1  0  0  0  0
 14 15  2  0  0  0  0
 15 16  1  0  0  0  0
 16 17  2  0  0  0  0
 16 19  1  0  0  0  0
 17 20  1  0  0  0  0
 18 15  1  0  0  0  0
 21 22  1  0  0  0  0
 22 28  1  0  0  0  0
 22 23  2  0  0  0  0
 23 13  1  0  0  0  0
 24 23  1  0  0  0  0
 25 24  2  0  0  0  0
 26 21  2  0  0  0  0
 26 25  1  0  0  0  0
 27 21  1  0  0  0  0
 29 25  1  0  0  0  0
 30 33  1  0  0  0  0
 30 32  2  0  0  0  0
 31 30  2  0  0  0  0
 33 39  1  0  0  0  0
 34 33  2  0  0  0  0
 34 36  1  0  0  0  0
 35 34  1  0  0  0  0
 36 37  1  0  0  0  0
 37 38  1  0  0  0  0
 39 37  2  0  0  0  0
M  END
>  <minimizedAffinity>
-5.52675056

$$$$

 OpenBabel03252509103D

 39 42  0  0  0  0  0  0  0  0999 V2000
   37.7370   25.7840   39.9110 C   0  0  0  0  0  0  0  0  0  0  0  0
   37.3010   26.4730   41.0030 C   0  0  0  0  0  0  0  0  0  0  0  0
   36.9270   25.7860   42.1460 C   0  0  0  0  0  0  0  0  0  0  0  0
   36.9920   24.4180   42.1940 C   0  0  0  0  0  0  0  0  0  0  0  0
   37.4330   23.6740   41.1030 C   0  0  0  0  0  0  0  0  0  0  0  0
   37.8050   24.3860   39.9550 C   0  0  0  0  0  0  0  0  0  0  0  0
   36.5730   26.2930   43.0390 H   0  0  0  0  0  0  0  0  0  0  0  0
   36.7280   23.7860   43.0250 H   0  0  0  0  0  0  0  0  0  0  0  0
   37.5340   22.6040   41.0050 H   0  0  0  0  0  0  0  0  0  0  0  0
   38.1610   23.8630   39.0620 H   0  0  0  0  0  0  0  0  0  0  0  0
   39.3970   31.0390   42.2040 Cl  0  0  0  0  0  0  0  0  0  0  0  0
   38.1230   30.0130   41.6030 C   0  0  0  0  0  0  0  0  0  0  0  0
   38.2700   28.6640   41.5440 C   0  0  0  0  0  0  0  0  0  0  0  0
   37.1910   27.9330   41.0720 C   0  0  0  0  0  0  0  0  0  0  0  0
   36.0240   28.5380   40.6800 C   0  0  0  0  0  0  0  0  0  0  0  0
   35.8900   29.8860   40.7430 C   0  0  0  0  0  0  0  0  0  0  0  0
   36.9520   30.6210   41.2110 C   0  0  0  0  0  0  0  0  0  0  0  0
   35.2260   27.9150   40.3220 H   0  0  0  0  0  0  0  0  0  0  0  0
   34.9690   30.3650   40.4350 H   0  0  0  0  0  0  0  0  0  0  0  0
   36.8310   31.6980   41.2570 H   0  0  0  0  0  0  0  0  0  0  0  0
   40.8840   26.9760   43.6790 C   0  0  0  0  0  0  0  0  0  0  0  0
   39.6770   27.5440   43.2540 C   0  0  0  0  0  0  0  0  0  0  0  0
   39.5160   28.0740   41.9910 C   0  0  0  0  0  0  0  0  0  0  0  0
   40.6210   27.9990   41.1970 N   0  0  0  0  0  0  0  0  0  0  0  0
   41.7730   27.4580   41.5940 C   0  0  0  0  0  0  0  0  0  0  0  0
   41.9010   26.9530   42.8230 N   0  0  0  0  0  0  0  0  0  0  0  0
   40.9610   26.5770   44.6710 H   0  0  0  0  0  0  0  0  0  0  0  0
   38.8290   27.5810   43.9210 H   0  0  0  0  0  0  0  0  0  0  0  0
   42.6070   27.4340   40.9060 H   0  0  0  0  0  0  0  0  0  0  0  0
   38.2430   26.6020   38.5260 S   0  0  0  0  0  0  0  0  0  0  0  0
   39.7270   26.9000   38.5600 O   0  0  0  0  0  0  0  0  0  0  0  0
   38.1640   25.4770   37.4150 O   0  0  0  0  0  0  0  0  0  0  0  0
   37.3890   27.9120   37.8000 C   0  0  0  0  0  0  0  0  0  0  0  0
   38.3440   29.2020   37.8450 C   0  0  0  0  0  0  0  0  0  0  0  0
   39.3910   29.4530   38.2140 H   0  0  0  0  0  0  0  0  0  0  0  0
   37.3780   30.5220   37.0830 S   0  0  0  0  0  0  0  0  0  0  0  0
   35.9270   29.3440   36.7980 C   0  0  0  0  0  0  0  0  0  0  0  0
   34.9300   29.4020   36.3650 H   0  0  0  0  0  0  0  0  0  0  0  0
   36.2990   28.3530   37.2240 N   0  0  0  0  0  0  0  0  0  0  0  0
  1  6  2  0  0  0  0
  1  2  1  0  0  0  0
  2 14  1  0  0  0  0
  2  3  2  0  0  0  0
  3  4  1  0  0  0  0
  3  7  1  0  0  0  0
  4  8  1  0  0  0  0
  5  4  2  0  0  0  0
  6  5  1  0  0  0  0
  9  5  1  0  0  0  0
 10  6  1  0  0  0  0
 12 11  1  0  0  0  0
 13 12  1  0  0  0  0
 13 23  1  0  0  0  0
 14 13  2  0  0  0  0
 15 16  2  0  0  0  0
 15 14  1  0  0  0  0
 16 17  1  0  0  0  0
 17 20  1  0  0  0  0
 17 12  2  0  0  0  0
 18 15  1  0  0  0  0
 19 16  1  0  0  0  0
 21 27  1  0  0  0  0
 22 21  1  0  0  0  0
 22 28  1  0  0  0  0
 23 22  2  0  0  0  0
 24 25  2  0  0  0  0
 24 23  1  0  0  0  0
 25 26  1  0  0  0  0
 26 21  2  0  0  0  0
 29 25  1  0  0  0  0
 30 31  2  0  0  0  0
 30  1  1  0  0  0  0
 32 30  2  0  0  0  0
 33 34  2  0  0  0  0
 33 30  1  0  0  0  0
 34 35  1  0  0  0  0
 36 34  1  0  0  0  0
 37 36  1  0  0  0  0
 37 39  2  0  0  0  0
 38 37  1  0  0  0  0
 39 33  1  0  0  0  0
M  END
>  <minimizedAffinity>
-5.48453331

$$$$

 OpenBabel03252509103D

 39 42  0  0  0  0  0  0  0  0999 V2000
   38.1500   28.7290   41.2730 C   0  0  0  0  0  0  0  0  0  0  0  0
   36.9430   28.0990   41.2220 C   0  0  0  0  0  0  0  0  0  0  0  0
   36.4080   27.5420   42.3710 C   0  0  0  0  0  0  0  0  0  0  0  0
   37.0790   27.6170   43.5640 C   0  0  0  0  0  0  0  0  0  0  0  0
   38.3140   28.2520   43.6620 C   0  0  0  0  0  0  0  0  0  0  0  0
   38.8390   28.8090   42.4900 C   0  0  0  0  0  0  0  0  0  0  0  0
   35.4500   27.0310   42.3770 H   0  0  0  0  0  0  0  0  0  0  0  0
   36.7580   27.2210   44.5120 H   0  0  0  0  0  0  0  0  0  0  0  0
   38.9440   28.3830   44.5290 H   0  0  0  0  0  0  0  0  0  0  0  0
   39.8060   29.3220   42.4960 H   0  0  0  0  0  0  0  0  0  0  0  0
   35.4250   25.2450   37.1920 Cl  0  0  0  0  0  0  0  0  0  0  0  0
   35.4260   26.6810   38.1790 C   0  0  0  0  0  0  0  0  0  0  0  0
   36.1830   26.7660   39.3030 C   0  0  0  0  0  0  0  0  0  0  0  0
   36.1330   27.9590   40.0090 C   0  0  0  0  0  0  0  0  0  0  0  0
   35.3540   29.0090   39.5960 C   0  0  0  0  0  0  0  0  0  0  0  0
   34.6010   28.9130   38.4710 C   0  0  0  0  0  0  0  0  0  0  0  0
   34.6450   27.7360   37.7640 C   0  0  0  0  0  0  0  0  0  0  0  0
   35.3570   29.9060   40.1880 H   0  0  0  0  0  0  0  0  0  0  0  0
   33.9870   29.7410   38.1430 H   0  0  0  0  0  0  0  0  0  0  0  0
   34.0400   27.6720   36.8660 H   0  0  0  0  0  0  0  0  0  0  0  0
   37.3590   23.5570   40.9030 C   0  0  0  0  0  0  0  0  0  0  0  0
   36.5610   24.6480   40.5390 C   0  0  0  0  0  0  0  0  0  0  0  0
   37.0040   25.6340   39.6840 C   0  0  0  0  0  0  0  0  0  0  0  0
   38.2750   25.4590   39.2240 N   0  0  0  0  0  0  0  0  0  0  0  0
   39.0410   24.4230   39.5640 C   0  0  0  0  0  0  0  0  0  0  0  0
   38.5860   23.4830   40.3960 N   0  0  0  0  0  0  0  0  0  0  0  0
   36.9700   22.8150   41.5720 H   0  0  0  0  0  0  0  0  0  0  0  0
   35.5590   24.7420   40.9310 H   0  0  0  0  0  0  0  0  0  0  0  0
   40.0410   24.3520   39.1580 H   0  0  0  0  0  0  0  0  0  0  0  0
   38.7980   29.4580   39.8970 S   0  0  0  0  0  0  0  0  0  0  0  0
   38.1740   30.8110   39.6310 O   0  0  0  0  0  0  0  0  0  0  0  0
   40.2520   29.8590   40.3740 O   0  0  0  0  0  0  0  0  0  0  0  0
   39.0990   28.6380   38.4100 C   0  0  0  0  0  0  0  0  0  0  0  0
   40.5690   27.9980   38.4940 C   0  0  0  0  0  0  0  0  0  0  0  0
   41.4160   27.9490   39.2520 H   0  0  0  0  0  0  0  0  0  0  0  0
   40.8080   27.1750   36.9060 S   0  0  0  0  0  0  0  0  0  0  0  0
   39.0880   27.7070   36.3300 C   0  0  0  0  0  0  0  0  0  0  0  0
   38.4770   27.5870   35.4370 H   0  0  0  0  0  0  0  0  0  0  0  0
   38.6780   28.2960   37.2180 N   0  0  0  0  0  0  0  0  0  0  0  0
  1  6  1  0  0  0  0
  2  1  2  0  0  0  0
  2  3  1  0  0  0  0
  3  7  1  0  0  0  0
  3  4  2  0  0  0  0
  4  5  1  0  0  0  0
  4  8  1  0  0  0  0
  5  9  1  0  0  0  0
  6 10  1  0  0  0  0
  6  5  2  0  0  0  0
 11 12  1  0  0  0  0
 12 13  1  0  0  0  0
 13 23  1  0  0  0  0
 13 14  2  0  0  0  0
 14  2  1  0  0  0  0
 15 14  1  0  0  0  0
 15 18  1  0  0  0  0
 16 15  2  0  0  0  0
 17 12  2  0  0  0  0
 17 16  1  0  0  0  0
 19 16  1  0  0  0  0
 20 17  1  0  0  0  0
 21 27  1  0  0  0  0
 22 21  1  0  0  0  0
 22 28  1  0  0  0  0
 23 22  2  0  0  0  0
 24 25  2  0  0  0  0
 24 23  1  0  0  0  0
 25 26  1  0  0  0  0
 26 21  2  0  0  0  0
 29 25  1  0  0  0  0
 30 32  2  0  0  0  0
 30  1  1  0  0  0  0
 31 30  2  0  0  0  0
 33 34  2  0  0  0  0
 33 30  1  0  0  0  0
 34 35  1  0  0  0  0
 36 34  1  0  0  0  0
 37 36  1  0  0  0  0
 37 39  2  0  0  0  0
 38 37  1  0  0  0  0
 39 33  1  0  0  0  0
M  END
>  <minimizedAffinity>
-5.41707325

$$$$

 OpenBabel03252509103D

 39 42  0  0  0  0  0  0  0  0999 V2000
   36.6040   27.9870   41.1960 C   0  0  0  0  0  0  0  0  0  0  0  0
   36.6580   27.0600   40.1980 C   0  0  0  0  0  0  0  0  0  0  0  0
   36.0100   27.3030   38.9990 C   0  0  0  0  0  0  0  0  0  0  0  0
   35.3140   28.4670   38.8010 C   0  0  0  0  0  0  0  0  0  0  0  0
   35.2340   29.4410   39.7920 C   0  0  0  0  0  0  0  0  0  0  0  0
   35.8940   29.1780   40.9980 C   0  0  0  0  0  0  0  0  0  0  0  0
   36.0260   26.5930   38.1770 H   0  0  0  0  0  0  0  0  0  0  0  0
   34.7770   28.7560   37.9140 H   0  0  0  0  0  0  0  0  0  0  0  0
   34.7270   30.3930   39.7700 H   0  0  0  0  0  0  0  0  0  0  0  0
   35.8720   29.9010   41.8200 H   0  0  0  0  0  0  0  0  0  0  0  0
   40.7190   24.1310   38.9280 Cl  0  0  0  0  0  0  0  0  0  0  0  0
   39.2050   24.4400   39.7340 C   0  0  0  0  0  0  0  0  0  0  0  0
   38.5830   25.6430   39.6310 C   0  0  0  0  0  0  0  0  0  0  0  0
   37.3710   25.7830   40.2910 C   0  0  0  0  0  0  0  0  0  0  0  0
   36.8210   24.7580   41.0160 C   0  0  0  0  0  0  0  0  0  0  0  0
   37.4520   23.5610   41.1110 C   0  0  0  0  0  0  0  0  0  0  0  0
   38.6520   23.4100   40.4610 C   0  0  0  0  0  0  0  0  0  0  0  0
   35.8800   24.9310   41.5050 H   0  0  0  0  0  0  0  0  0  0  0  0
   37.0190   22.7500   41.6820 H   0  0  0  0  0  0  0  0  0  0  0  0
   39.1470   22.4480   40.5440 H   0  0  0  0  0  0  0  0  0  0  0  0
   39.6190   27.7900   36.7070 C   0  0  0  0  0  0  0  0  0  0  0  0
   39.0220   26.7810   37.4710 C   0  0  0  0  0  0  0  0  0  0  0  0
   39.1980   26.6860   38.8350 C   0  0  0  0  0  0  0  0  0  0  0  0
   39.9950   27.6500   39.3740 N   0  0  0  0  0  0  0  0  0  0  0  0
   40.5660   28.6150   38.6540 C   0  0  0  0  0  0  0  0  0  0  0  0
   40.3790   28.6830   37.3340 N   0  0  0  0  0  0  0  0  0  0  0  0
   39.4520   27.8230   35.6480 H   0  0  0  0  0  0  0  0  0  0  0  0
   38.3970   26.0380   36.9960 H   0  0  0  0  0  0  0  0  0  0  0  0
   41.1870   29.3460   39.1540 H   0  0  0  0  0  0  0  0  0  0  0  0
   37.4260   27.7350   42.6470 S   0  0  0  0  0  0  0  0  0  0  0  0
   37.3440   28.9430   43.5560 O   0  0  0  0  0  0  0  0  0  0  0  0
   36.4910   26.7010   43.3960 O   0  0  0  0  0  0  0  0  0  0  0  0
   38.9800   26.9990   42.7720 C   0  0  0  0  0  0  0  0  0  0  0  0
   40.0810   28.1640   42.6740 C   0  0  0  0  0  0  0  0  0  0  0  0
   40.0910   29.2950   42.5530 H   0  0  0  0  0  0  0  0  0  0  0  0
   41.6680   27.3150   42.8010 S   0  0  0  0  0  0  0  0  0  0  0  0
   40.8010   25.6420   42.9600 C   0  0  0  0  0  0  0  0  0  0  0  0
   41.0990   24.6020   43.0790 H   0  0  0  0  0  0  0  0  0  0  0  0
   39.6930   25.9090   42.9060 N   0  0  0  0  0  0  0  0  0  0  0  0
  1 30  1  0  0  0  0
  2 14  1  0  0  0  0
  2  1  2  0  0  0  0
  3  2  1  0  0  0  0
  4  3  2  0  0  0  0
  4  5  1  0  0  0  0
  5  6  2  0  0  0  0
  6  1  1  0  0  0  0
  6 10  1  0  0  0  0
  7  3  1  0  0  0  0
  8  4  1  0  0  0  0
  9  5  1  0  0  0  0
 11 12  1  0  0  0  0
 12 17  1  0  0  0  0
 13 12  2  0  0  0  0
 13 14  1  0  0  0  0
 14 15  2  0  0  0  0
 15 16  1  0  0  0  0
 15 18  1  0  0  0  0
 16 19  1  0  0  0  0
 17 20  1  0  0  0  0
 17 16  2  0  0  0  0
 21 26  2  0  0  0  0
 21 22  1  0  0  0  0
 22 23  2  0  0  0  0
 23 24  1  0  0  0  0
 23 13  1  0  0  0  0
 25 29  1  0  0  0  0
 25 24  2  0  0  0  0
 26 25  1  0  0  0  0
 27 21  1  0  0  0  0
 28 22  1  0  0  0  0
 30 33  1  0  0  0  0
 30 32  2  0  0  0  0
 30 31  2  0  0  0  0
 33 39  1  0  0  0  0
 34 33  2  0  0  0  0
 34 36  1  0  0  0  0
 35 34  1  0  0  0  0
 36 37  1  0  0  0  0
 37 38  1  0  0  0  0
 39 37  2  0  0  0  0
M  END
>  <minimizedAffinity>
-5.39884615

$$$$
