
 OpenBabel03252509253D

 25 27  0  0  1  0  0  0  0  0999 V2000
   38.8440   29.3970   42.6580 C   0  0  1  0  0  0  0  0  0  0  0  0
   37.6000   28.8690   43.4190 C   0  0  0  0  0  0  0  0  0  0  0  0
   38.3580   28.1230   42.2720 C   0  0  2  0  0  0  0  0  0  0  0  0
   39.7180   29.5480   43.3220 H   0  0  0  0  0  0  0  0  0  0  0  0
   37.7760   28.4350   44.4270 H   0  0  0  0  0  0  0  0  0  0  0  0
   36.6170   29.2540   43.1780 H   0  0  0  0  0  0  0  0  0  0  0  0
   37.7740   28.0170   41.3210 H   0  0  0  0  0  0  0  0  0  0  0  0
   39.0160   32.6950   40.8730 C   0  0  0  0  0  0  0  0  0  0  0  0
   39.4040   31.6160   41.7300 C   0  0  0  0  0  0  0  0  0  0  0  0
   38.4800   30.6110   41.8410 C   0  0  0  0  0  0  0  0  0  0  0  0
   37.2720   30.6550   41.1730 N   0  0  0  0  0  0  0  0  0  0  0  0
   36.9590   31.6930   40.3810 C   0  0  0  0  0  0  0  0  0  0  0  0
   37.8390   32.7170   40.2320 N   0  0  0  0  0  0  0  0  0  0  0  0
   39.7400   33.4940   40.7760 H   0  0  0  0  0  0  0  0  0  0  0  0
   36.0290   31.7710   39.8390 H   0  0  0  0  0  0  0  0  0  0  0  0
   40.6410   31.5990   42.4380 N   0  0  0  0  0  0  0  0  0  0  0  0
   40.9210   32.3700   43.1060 H   0  0  0  0  0  0  0  0  0  0  0  0
   41.2990   30.8160   42.3060 H   0  0  0  0  0  0  0  0  0  0  0  0
   39.0890   26.8950   42.6810 C   0  0  0  0  0  0  0  0  0  0  0  0
   38.5290   25.6150   42.3020 C   0  0  0  0  0  0  0  0  0  0  0  0
   37.5950   25.4460   41.7280 H   0  0  0  0  0  0  0  0  0  0  0  0
   39.7540   24.3790   43.0110 S   0  0  0  0  0  0  0  0  0  0  0  0
   40.7810   25.8270   43.6790 C   0  0  0  0  0  0  0  0  0  0  0  0
   41.8010   25.9890   44.3060 H   0  0  0  0  0  0  0  0  0  0  0  0
   40.2220   26.7480   43.3670 N   0  0  0  0  0  0  0  0  0  0  0  0
  1  4  1  1  0  0  0
  1  2  1  0  0  0  0
  2  5  1  0  0  0  0
  3  7  1  6  0  0  0
  3  1  1  0  0  0  0
  3 19  1  0  0  0  0
  3  2  1  0  0  0  0
  6  2  1  0  0  0  0
  8  9  1  0  0  0  0
  9 10  2  0  0  0  0
  9 16  1  0  0  0  0
 10  1  1  0  0  0  0
 11 10  1  0  0  0  0
 12 11  2  0  0  0  0
 13 12  1  0  0  0  0
 13  8  2  0  0  0  0
 14  8  1  0  0  0  0
 15 12  1  0  0  0  0
 16 17  1  0  0  0  0
 18 16  1  0  0  0  0
 19 25  1  0  0  0  0
 20 19  2  0  0  0  0
 20 22  1  0  0  0  0
 21 20  1  0  0  0  0
 22 23  1  0  0  0  0
 23 24  1  0  0  0  0
 25 23  2  0  0  0  0
M  END
>  <minimizedAffinity>
-4.33497381

$$$$

 OpenBabel03252509253D

 25 27  0  0  1  0  0  0  0  0999 V2000
   37.9170   28.0330   42.2890 C   0  0  1  0  0  0  0  0  0  0  0  0
   37.8130   28.8430   43.6070 C   0  0  0  0  0  0  0  0  0  0  0  0
   38.7400   29.1810   42.3940 C   0  0  2  0  0  0  0  0  0  0  0  0
   36.9630   28.0070   41.7270 H   0  0  0  0  0  0  0  0  0  0  0  0
   36.9420   29.5270   43.7080 H   0  0  0  0  0  0  0  0  0  0  0  0
   38.3020   28.4820   44.5030 H   0  0  0  0  0  0  0  0  0  0  0  0
   39.8360   29.0630   42.5990 H   0  0  0  0  0  0  0  0  0  0  0  0
   38.7070   24.3690   42.0820 C   0  0  0  0  0  0  0  0  0  0  0  0
   38.0440   25.6110   41.8230 C   0  0  0  0  0  0  0  0  0  0  0  0
   38.5040   26.6700   42.5590 C   0  0  0  0  0  0  0  0  0  0  0  0
   39.5270   26.5300   43.4770 N   0  0  0  0  0  0  0  0  0  0  0  0
   40.1130   25.3400   43.6800 C   0  0  0  0  0  0  0  0  0  0  0  0
   39.6990   24.2540   42.9760 N   0  0  0  0  0  0  0  0  0  0  0  0
   38.3530   23.5250   41.5030 H   0  0  0  0  0  0  0  0  0  0  0  0
   40.9160   25.1820   44.3850 H   0  0  0  0  0  0  0  0  0  0  0  0
   36.9690   25.7340   40.8960 N   0  0  0  0  0  0  0  0  0  0  0  0
   36.0860   25.1570   40.9740 H   0  0  0  0  0  0  0  0  0  0  0  0
   37.0380   26.4020   40.1140 H   0  0  0  0  0  0  0  0  0  0  0  0
   38.3890   30.4160   41.6440 C   0  0  0  0  0  0  0  0  0  0  0  0
   39.3620   31.4880   41.6090 C   0  0  0  0  0  0  0  0  0  0  0  0
   40.3610   31.4890   42.0900 H   0  0  0  0  0  0  0  0  0  0  0  0
   38.5130   32.8100   40.5780 S   0  0  0  0  0  0  0  0  0  0  0  0
   37.0140   31.6620   40.3960 C   0  0  0  0  0  0  0  0  0  0  0  0
   35.9300   31.6810   39.8650 H   0  0  0  0  0  0  0  0  0  0  0  0
   37.2880   30.7350   40.9640 N   0  0  0  0  0  0  0  0  0  0  0  0
  1  4  1  6  0  0  0
  1  3  1  0  0  0  0
  1 10  1  0  0  0  0
  1  2  1  0  0  0  0
  2  5  1  0  0  0  0
  2  6  1  0  0  0  0
  3  7  1  1  0  0  0
  3  2  1  0  0  0  0
  8 13  1  0  0  0  0
  9  8  2  0  0  0  0
  9 10  1  0  0  0  0
 10 11  2  0  0  0  0
 11 12  1  0  0  0  0
 12 15  1  0  0  0  0
 13 12  2  0  0  0  0
 14  8  1  0  0  0  0
 16 17  1  0  0  0  0
 16  9  1  0  0  0  0
 18 16  1  0  0  0  0
 19  3  1  0  0  0  0
 20 19  2  0  0  0  0
 20 21  1  0  0  0  0
 22 20  1  0  0  0  0
 23 22  1  0  0  0  0
 23 25  2  0  0  0  0
 24 23  1  0  0  0  0
 25 19  1  0  0  0  0
M  END
>  <minimizedAffinity>
-4.21419096

$$$$

 OpenBabel03252509253D

 25 27  0  0  1  0  0  0  0  0999 V2000
   36.5080   28.4860   39.8830 C   0  0  1  0  0  0  0  0  0  0  0  0
   35.7790   27.6560   38.7960 C   0  0  0  0  0  0  0  0  0  0  0  0
   37.1910   27.3460   39.3920 C   0  0  2  0  0  0  0  0  0  0  0  0
   35.9580   28.5090   40.8440 H   0  0  0  0  0  0  0  0  0  0  0  0
   34.9840   26.9610   39.1440 H   0  0  0  0  0  0  0  0  0  0  0  0
   35.7540   28.0090   37.7720 H   0  0  0  0  0  0  0  0  0  0  0  0
   38.0400   27.4750   38.6710 H   0  0  0  0  0  0  0  0  0  0  0  0
   36.9690   32.1990   39.5660 C   0  0  0  0  0  0  0  0  0  0  0  0
   36.5290   30.9460   40.1030 C   0  0  0  0  0  0  0  0  0  0  0  0
   36.8600   29.8510   39.3490 C   0  0  0  0  0  0  0  0  0  0  0  0
   37.5620   29.9690   38.1640 N   0  0  0  0  0  0  0  0  0  0  0  0
   37.9490   31.1700   37.7080 C   0  0  0  0  0  0  0  0  0  0  0  0
   37.6500   32.2900   38.4160 N   0  0  0  0  0  0  0  0  0  0  0  0
   36.7140   33.0700   40.1560 H   0  0  0  0  0  0  0  0  0  0  0  0
   38.4990   31.3100   36.7890 H   0  0  0  0  0  0  0  0  0  0  0  0
   35.7790   30.8440   41.3100 N   0  0  0  0  0  0  0  0  0  0  0  0
   34.8590   31.3470   41.4490 H   0  0  0  0  0  0  0  0  0  0  0  0
   36.1310   30.2650   42.0880 H   0  0  0  0  0  0  0  0  0  0  0  0
   37.2790   26.1180   40.2260 C   0  0  0  0  0  0  0  0  0  0  0  0
   37.7690   24.9070   39.6000 C   0  0  0  0  0  0  0  0  0  0  0  0
   38.0920   24.7930   38.5450 H   0  0  0  0  0  0  0  0  0  0  0  0
   37.7100   23.6470   40.9910 S   0  0  0  0  0  0  0  0  0  0  0  0
   37.0380   24.9950   42.1440 C   0  0  0  0  0  0  0  0  0  0  0  0
   36.6900   25.0980   43.2960 H   0  0  0  0  0  0  0  0  0  0  0  0
   36.9750   25.9160   41.5070 N   0  0  0  0  0  0  0  0  0  0  0  0
  1  4  1  1  0  0  0
  2  5  1  0  0  0  0
  2  3  1  0  0  0  0
  2  1  1  0  0  0  0
  3  7  1  6  0  0  0
  3  1  1  0  0  0  0
  3 19  1  0  0  0  0
  6  2  1  0  0  0  0
  8  9  1  0  0  0  0
  8 14  1  0  0  0  0
  9 16  1  0  0  0  0
 10  1  1  0  0  0  0
 10  9  2  0  0  0  0
 11 10  1  0  0  0  0
 12 11  2  0  0  0  0
 12 13  1  0  0  0  0
 13  8  2  0  0  0  0
 15 12  1  0  0  0  0
 16 17  1  0  0  0  0
 16 18  1  0  0  0  0
 19 25  1  0  0  0  0
 20 19  2  0  0  0  0
 20 22  1  0  0  0  0
 21 20  1  0  0  0  0
 22 23  1  0  0  0  0
 23 24  1  0  0  0  0
 25 23  2  0  0  0  0
M  END
>  <minimizedAffinity>
-4.2125411

$$$$

 OpenBabel03252509253D

 25 27  0  0  1  0  0  0  0  0999 V2000
   39.3680   30.5390   42.4070 C   0  0  1  0  0  0  0  0  0  0  0  0
   40.9080   30.5130   42.5870 C   0  0  0  0  0  0  0  0  0  0  0  0
   40.1470   30.7140   41.2360 C   0  0  2  0  0  0  0  0  0  0  0  0
   38.8880   31.3700   42.9570 H   0  0  0  0  0  0  0  0  0  0  0  0
   41.3830   31.4410   42.9750 H   0  0  0  0  0  0  0  0  0  0  0  0
   41.4210   29.5680   42.7170 H   0  0  0  0  0  0  0  0  0  0  0  0
   40.2560   29.8660   40.5100 H   0  0  0  0  0  0  0  0  0  0  0  0
   36.9770   27.6660   42.7620 C   0  0  0  0  0  0  0  0  0  0  0  0
   37.4400   29.0000   42.5250 C   0  0  0  0  0  0  0  0  0  0  0  0
   38.7840   29.1830   42.7150 C   0  0  0  0  0  0  0  0  0  0  0  0
   39.6110   28.1490   43.1090 N   0  0  0  0  0  0  0  0  0  0  0  0
   39.1230   26.9170   43.3180 C   0  0  0  0  0  0  0  0  0  0  0  0
   37.7980   26.6770   43.1420 N   0  0  0  0  0  0  0  0  0  0  0  0
   35.9170   27.5100   42.6120 H   0  0  0  0  0  0  0  0  0  0  0  0
   39.7300   26.0780   43.6250 H   0  0  0  0  0  0  0  0  0  0  0  0
   36.5690   30.0640   42.1500 N   0  0  0  0  0  0  0  0  0  0  0  0
   35.7340   30.3440   42.7350 H   0  0  0  0  0  0  0  0  0  0  0  0
   36.7430   30.5890   41.2790 H   0  0  0  0  0  0  0  0  0  0  0  0
   40.2730   32.0630   40.6240 C   0  0  0  0  0  0  0  0  0  0  0  0
   41.4060   32.3120   39.7580 C   0  0  0  0  0  0  0  0  0  0  0  0
   42.2080   31.5910   39.4960 H   0  0  0  0  0  0  0  0  0  0  0  0
   41.1630   34.0970   39.2270 S   0  0  0  0  0  0  0  0  0  0  0  0
   39.5820   34.1610   40.2740 C   0  0  0  0  0  0  0  0  0  0  0  0
   38.7200   34.9610   40.5480 H   0  0  0  0  0  0  0  0  0  0  0  0
   39.4960   33.1400   40.7310 N   0  0  0  0  0  0  0  0  0  0  0  0
  1  2  1  0  0  0  0
  1 10  1  0  0  0  0
  1  4  1  1  0  0  0
  2  6  1  0  0  0  0
  2  5  1  0  0  0  0
  3  7  1  6  0  0  0
  3  1  1  0  0  0  0
  3  2  1  0  0  0  0
  8 13  1  0  0  0  0
  9 10  1  0  0  0  0
  9  8  2  0  0  0  0
 10 11  2  0  0  0  0
 11 12  1  0  0  0  0
 12 15  1  0  0  0  0
 13 12  2  0  0  0  0
 14  8  1  0  0  0  0
 16  9  1  0  0  0  0
 16 17  1  0  0  0  0
 18 16  1  0  0  0  0
 19 25  1  0  0  0  0
 19  3  1  0  0  0  0
 20 19  2  0  0  0  0
 21 20  1  0  0  0  0
 22 20  1  0  0  0  0
 22 23  1  0  0  0  0
 23 24  1  0  0  0  0
 23 25  2  0  0  0  0
M  END
>  <minimizedAffinity>
-4.20144701

$$$$

 OpenBabel03252509253D

 25 27  0  0  1  0  0  0  0  0999 V2000
   36.6140   30.0280   38.8630 C   0  0  1  0  0  0  0  0  0  0  0  0
   37.3330   31.1770   38.1090 C   0  0  0  0  0  0  0  0  0  0  0  0
   37.1610   29.7100   37.5950 C   0  0  2  0  0  0  0  0  0  0  0  0
   35.5410   30.2370   39.0370 H   0  0  0  0  0  0  0  0  0  0  0  0
   36.6860   31.9140   37.5840 H   0  0  0  0  0  0  0  0  0  0  0  0
   38.3330   31.4730   38.4010 H   0  0  0  0  0  0  0  0  0  0  0  0
   38.1150   29.1250   37.5330 H   0  0  0  0  0  0  0  0  0  0  0  0
   37.5990   29.6060   42.4610 C   0  0  0  0  0  0  0  0  0  0  0  0
   36.8600   30.0560   41.3210 C   0  0  0  0  0  0  0  0  0  0  0  0
   37.3770   29.6680   40.1130 C   0  0  0  0  0  0  0  0  0  0  0  0
   38.5250   28.9040   40.0250 N   0  0  0  0  0  0  0  0  0  0  0  0
   39.1780   28.5100   41.1280 C   0  0  0  0  0  0  0  0  0  0  0  0
   38.7090   28.8640   42.3530 N   0  0  0  0  0  0  0  0  0  0  0  0
   37.1970   29.9060   43.4210 H   0  0  0  0  0  0  0  0  0  0  0  0
   40.0770   27.9120   41.1090 H   0  0  0  0  0  0  0  0  0  0  0  0
   35.6950   30.8700   41.4270 N   0  0  0  0  0  0  0  0  0  0  0  0
   35.7010   31.8040   41.9240 H   0  0  0  0  0  0  0  0  0  0  0  0
   34.8060   30.5530   41.0120 H   0  0  0  0  0  0  0  0  0  0  0  0
   36.2630   29.5440   36.4220 C   0  0  0  0  0  0  0  0  0  0  0  0
   34.9530   28.9710   36.6460 C   0  0  0  0  0  0  0  0  0  0  0  0
   34.5370   28.6340   37.6180 H   0  0  0  0  0  0  0  0  0  0  0  0
   34.1880   28.9520   34.9310 S   0  0  0  0  0  0  0  0  0  0  0  0
   35.7810   29.7200   34.2450 C   0  0  0  0  0  0  0  0  0  0  0  0
   36.2160   30.0800   33.1780 H   0  0  0  0  0  0  0  0  0  0  0  0
   36.4510   29.8410   35.1370 N   0  0  0  0  0  0  0  0  0  0  0  0
  1  4  1  1  0  0  0
  1 10  1  0  0  0  0
  2  6  1  0  0  0  0
  2  1  1  0  0  0  0
  3  7  1  1  0  0  0
  3  2  1  0  0  0  0
  3  1  1  0  0  0  0
  5  2  1  0  0  0  0
  8 14  1  0  0  0  0
  9 16  1  0  0  0  0
  9  8  2  0  0  0  0
 10  9  1  0  0  0  0
 11 10  2  0  0  0  0
 11 12  1  0  0  0  0
 12 13  2  0  0  0  0
 13  8  1  0  0  0  0
 15 12  1  0  0  0  0
 16 17  1  0  0  0  0
 18 16  1  0  0  0  0
 19 20  2  0  0  0  0
 19  3  1  0  0  0  0
 20 21  1  0  0  0  0
 22 20  1  0  0  0  0
 23 22  1  0  0  0  0
 23 25  2  0  0  0  0
 24 23  1  0  0  0  0
 25 19  1  0  0  0  0
M  END
>  <minimizedAffinity>
-4.1489172

$$$$

 OpenBabel03252509253D

 25 27  0  0  1  0  0  0  0  0999 V2000
   38.6910   30.0440   42.4310 C   0  0  1  0  0  0  0  0  0  0  0  0
   40.0680   30.6600   42.7910 C   0  0  0  0  0  0  0  0  0  0  0  0
   39.4450   30.5820   41.3590 C   0  0  2  0  0  0  0  0  0  0  0  0
   37.8470   30.5710   42.9170 H   0  0  0  0  0  0  0  0  0  0  0  0
   40.0610   31.6840   43.2260 H   0  0  0  0  0  0  0  0  0  0  0  0
   40.9150   30.0140   42.9860 H   0  0  0  0  0  0  0  0  0  0  0  0
   39.9810   29.8920   40.6560 H   0  0  0  0  0  0  0  0  0  0  0  0
   37.6710   26.4360   42.6260 C   0  0  0  0  0  0  0  0  0  0  0  0
   37.5540   27.8520   42.4480 C   0  0  0  0  0  0  0  0  0  0  0  0
   38.7050   28.5560   42.6780 C   0  0  0  0  0  0  0  0  0  0  0  0
   39.8780   27.9310   43.0550 N   0  0  0  0  0  0  0  0  0  0  0  0
   39.9310   26.5990   43.2090 C   0  0  0  0  0  0  0  0  0  0  0  0
   38.8190   25.8490   42.9910 N   0  0  0  0  0  0  0  0  0  0  0  0
   36.7670   25.8700   42.4450 H   0  0  0  0  0  0  0  0  0  0  0  0
   40.8240   26.0670   43.5010 H   0  0  0  0  0  0  0  0  0  0  0  0
   36.3290   28.4860   42.0890 N   0  0  0  0  0  0  0  0  0  0  0  0
   35.4470   28.3780   42.6630 H   0  0  0  0  0  0  0  0  0  0  0  0
   36.2820   29.0720   41.2420 H   0  0  0  0  0  0  0  0  0  0  0  0
   39.0540   31.8840   40.7580 C   0  0  0  0  0  0  0  0  0  0  0  0
   37.6550   32.0970   40.4520 C   0  0  0  0  0  0  0  0  0  0  0  0
   36.8260   31.3800   40.6200 H   0  0  0  0  0  0  0  0  0  0  0  0
   37.6280   33.8310   39.7300 S   0  0  0  0  0  0  0  0  0  0  0  0
   39.5060   33.9320   39.9810 C   0  0  0  0  0  0  0  0  0  0  0  0
   40.3950   34.7270   39.7890 H   0  0  0  0  0  0  0  0  0  0  0  0
   39.7910   32.9450   40.4340 N   0  0  0  0  0  0  0  0  0  0  0  0
  1 10  1  0  0  0  0
  1  2  1  0  0  0  0
  1  4  1  1  0  0  0
  2  6  1  0  0  0  0
  2  5  1  0  0  0  0
  3  7  1  6  0  0  0
  3  1  1  0  0  0  0
  3  2  1  0  0  0  0
  8 13  1  0  0  0  0
  9  8  2  0  0  0  0
  9 10  1  0  0  0  0
 10 11  2  0  0  0  0
 11 12  1  0  0  0  0
 12 15  1  0  0  0  0
 13 12  2  0  0  0  0
 14  8  1  0  0  0  0
 16  9  1  0  0  0  0
 16 17  1  0  0  0  0
 18 16  1  0  0  0  0
 19  3  1  0  0  0  0
 20 21  1  0  0  0  0
 20 19  2  0  0  0  0
 22 23  1  0  0  0  0
 22 20  1  0  0  0  0
 23 25  2  0  0  0  0
 24 23  1  0  0  0  0
 25 19  1  0  0  0  0
M  END
>  <minimizedAffinity>
-4.09965992

$$$$

 OpenBabel03252509253D

 25 27  0  0  1  0  0  0  0  0999 V2000
   38.5210   29.2150   41.9000 C   0  0  1  0  0  0  0  0  0  0  0  0
   37.5930   28.9800   43.1210 C   0  0  0  0  0  0  0  0  0  0  0  0
   37.5030   28.2410   41.7460 C   0  0  2  0  0  0  0  0  0  0  0  0
   39.5790   28.9710   42.1150 H   0  0  0  0  0  0  0  0  0  0  0  0
   37.9960   28.3490   43.9430 H   0  0  0  0  0  0  0  0  0  0  0  0
   36.8030   29.6870   43.3420 H   0  0  0  0  0  0  0  0  0  0  0  0
   36.5870   28.4850   41.1460 H   0  0  0  0  0  0  0  0  0  0  0  0
   39.0160   32.8310   41.0210 C   0  0  0  0  0  0  0  0  0  0  0  0
   39.2390   31.5640   41.6500 C   0  0  0  0  0  0  0  0  0  0  0  0
   38.3140   30.6020   41.3460 C   0  0  0  0  0  0  0  0  0  0  0  0
   37.2520   30.8540   40.4980 N   0  0  0  0  0  0  0  0  0  0  0  0
   37.0910   32.0620   39.9360 C   0  0  0  0  0  0  0  0  0  0  0  0
   37.9810   33.0540   40.2000 N   0  0  0  0  0  0  0  0  0  0  0  0
   39.7440   33.5980   41.2530 H   0  0  0  0  0  0  0  0  0  0  0  0
   36.2790   32.3060   39.2680 H   0  0  0  0  0  0  0  0  0  0  0  0
   40.3210   31.3280   42.5470 N   0  0  0  0  0  0  0  0  0  0  0  0
   40.4700   31.9070   43.4200 H   0  0  0  0  0  0  0  0  0  0  0  0
   40.9940   30.5710   42.3530 H   0  0  0  0  0  0  0  0  0  0  0  0
   37.8490   26.7960   41.7720 C   0  0  0  0  0  0  0  0  0  0  0  0
   39.1890   26.4120   41.3800 C   0  0  0  0  0  0  0  0  0  0  0  0
   40.0030   27.0930   41.0550 H   0  0  0  0  0  0  0  0  0  0  0  0
   39.1760   24.5430   41.5620 S   0  0  0  0  0  0  0  0  0  0  0  0
   37.3690   24.6410   42.1300 C   0  0  0  0  0  0  0  0  0  0  0  0
   36.4970   23.8830   42.4810 H   0  0  0  0  0  0  0  0  0  0  0  0
   37.1170   25.7340   42.1070 N   0  0  0  0  0  0  0  0  0  0  0  0
  1  4  1  1  0  0  0
  1  2  1  0  0  0  0
  2  6  1  0  0  0  0
  2  5  1  0  0  0  0
  3  7  1  6  0  0  0
  3 19  1  0  0  0  0
  3  1  1  0  0  0  0
  3  2  1  0  0  0  0
  8 14  1  0  0  0  0
  8  9  1  0  0  0  0
  9 16  1  0  0  0  0
 10  9  2  0  0  0  0
 10  1  1  0  0  0  0
 11 10  1  0  0  0  0
 12 13  1  0  0  0  0
 12 11  2  0  0  0  0
 13  8  2  0  0  0  0
 15 12  1  0  0  0  0
 16 17  1  0  0  0  0
 18 16  1  0  0  0  0
 19 25  1  0  0  0  0
 20 22  1  0  0  0  0
 20 19  2  0  0  0  0
 21 20  1  0  0  0  0
 22 23  1  0  0  0  0
 23 24  1  0  0  0  0
 25 23  2  0  0  0  0
M  END
>  <minimizedAffinity>
-4.07902431

$$$$

 OpenBabel03252509253D

 25 27  0  0  1  0  0  0  0  0999 V2000
   37.8940   29.0510   41.0150 C   0  0  1  0  0  0  0  0  0  0  0  0
   37.2210   27.9750   40.1230 C   0  0  0  0  0  0  0  0  0  0  0  0
   38.7240   27.9990   40.5550 C   0  0  2  0  0  0  0  0  0  0  0  0
   37.4600   29.0940   42.0330 H   0  0  0  0  0  0  0  0  0  0  0  0
   36.6180   27.1980   40.6430 H   0  0  0  0  0  0  0  0  0  0  0  0
   37.0140   28.1890   39.0820 H   0  0  0  0  0  0  0  0  0  0  0  0
   39.4450   28.1860   39.7170 H   0  0  0  0  0  0  0  0  0  0  0  0
   37.0230   32.5250   39.8910 C   0  0  0  0  0  0  0  0  0  0  0  0
   36.8890   31.2560   40.5390 C   0  0  0  0  0  0  0  0  0  0  0  0
   37.9140   30.3800   40.3030 C   0  0  0  0  0  0  0  0  0  0  0  0
   38.9850   30.7130   39.4950 N   0  0  0  0  0  0  0  0  0  0  0  0
   39.0590   31.9190   38.9110 C   0  0  0  0  0  0  0  0  0  0  0  0
   38.0710   32.8290   39.1120 N   0  0  0  0  0  0  0  0  0  0  0  0
   36.2180   33.2260   40.0730 H   0  0  0  0  0  0  0  0  0  0  0  0
   39.8750   32.2240   38.2730 H   0  0  0  0  0  0  0  0  0  0  0  0
   35.7630   30.9160   41.3440 N   0  0  0  0  0  0  0  0  0  0  0  0
   34.7720   30.9510   40.9750 H   0  0  0  0  0  0  0  0  0  0  0  0
   35.9000   30.6240   42.3240 H   0  0  0  0  0  0  0  0  0  0  0  0
   39.1380   26.9190   41.4890 C   0  0  0  0  0  0  0  0  0  0  0  0
   39.5700   27.3010   42.8180 C   0  0  0  0  0  0  0  0  0  0  0  0
   39.6260   28.3320   43.2230 H   0  0  0  0  0  0  0  0  0  0  0  0
   39.9870   25.6580   43.6270 S   0  0  0  0  0  0  0  0  0  0  0  0
   39.4990   24.7770   42.0190 C   0  0  0  0  0  0  0  0  0  0  0  0
   39.4460   23.6470   41.5970 H   0  0  0  0  0  0  0  0  0  0  0  0
   39.1890   25.5990   41.3210 N   0  0  0  0  0  0  0  0  0  0  0  0
  1  4  1  1  0  0  0
  2  3  1  0  0  0  0
  2  5  1  0  0  0  0
  2  1  1  0  0  0  0
  3  7  1  6  0  0  0
  3  1  1  0  0  0  0
  3 19  1  0  0  0  0
  6  2  1  0  0  0  0
  8 14  1  0  0  0  0
  8  9  1  0  0  0  0
  9 16  1  0  0  0  0
 10  9  2  0  0  0  0
 10  1  1  0  0  0  0
 11 10  1  0  0  0  0
 12 13  1  0  0  0  0
 12 11  2  0  0  0  0
 13  8  2  0  0  0  0
 15 12  1  0  0  0  0
 16 18  1  0  0  0  0
 17 16  1  0  0  0  0
 19 20  2  0  0  0  0
 20 21  1  0  0  0  0
 20 22  1  0  0  0  0
 23 22  1  0  0  0  0
 24 23  1  0  0  0  0
 25 19  1  0  0  0  0
 25 23  2  0  0  0  0
M  END
>  <minimizedAffinity>
-4.05930567

$$$$

 OpenBabel03252509253D

 25 27  0  0  1  0  0  0  0  0999 V2000
   36.9570   29.1560   41.3790 C   0  0  1  0  0  0  0  0  0  0  0  0
   35.5970   28.9900   40.6520 C   0  0  0  0  0  0  0  0  0  0  0  0
   36.9140   28.2150   40.3210 C   0  0  2  0  0  0  0  0  0  0  0  0
   36.9050   28.8820   42.4500 H   0  0  0  0  0  0  0  0  0  0  0  0
   34.8290   28.3680   41.1620 H   0  0  0  0  0  0  0  0  0  0  0  0
   35.2760   29.7300   39.9300 H   0  0  0  0  0  0  0  0  0  0  0  0
   37.3690   28.4730   39.3290 H   0  0  0  0  0  0  0  0  0  0  0  0
   39.2570   32.1210   41.2680 C   0  0  0  0  0  0  0  0  0  0  0  0
   38.7630   30.8240   41.6180 C   0  0  0  0  0  0  0  0  0  0  0  0
   37.5170   30.5330   41.1270 C   0  0  0  0  0  0  0  0  0  0  0  0
   36.8090   31.4360   40.3580 N   0  0  0  0  0  0  0  0  0  0  0  0
   37.3220   32.6400   40.0610 C   0  0  0  0  0  0  0  0  0  0  0  0
   38.5540   32.9810   40.5200 N   0  0  0  0  0  0  0  0  0  0  0  0
   40.2420   32.3600   41.6500 H   0  0  0  0  0  0  0  0  0  0  0  0
   36.8060   33.3780   39.4640 H   0  0  0  0  0  0  0  0  0  0  0  0
   39.4920   29.9150   42.4390 N   0  0  0  0  0  0  0  0  0  0  0  0
   39.8190   30.1690   43.4120 H   0  0  0  0  0  0  0  0  0  0  0  0
   39.7190   28.9720   42.0870 H   0  0  0  0  0  0  0  0  0  0  0  0
   36.8940   26.7600   40.6230 C   0  0  0  0  0  0  0  0  0  0  0  0
   37.3370   26.3330   41.9350 C   0  0  0  0  0  0  0  0  0  0  0  0
   37.6960   26.9880   42.7550 H   0  0  0  0  0  0  0  0  0  0  0  0
   37.1450   24.4660   41.8720 S   0  0  0  0  0  0  0  0  0  0  0  0
   36.5070   24.6220   40.0920 C   0  0  0  0  0  0  0  0  0  0  0  0
   36.1190   23.8920   39.2110 H   0  0  0  0  0  0  0  0  0  0  0  0
   36.5260   25.7220   39.8730 N   0  0  0  0  0  0  0  0  0  0  0  0
  1  4  1  1  0  0  0
  2  5  1  0  0  0  0
  2  1  1  0  0  0  0
  3  7  1  6  0  0  0
  3 19  1  0  0  0  0
  3  2  1  0  0  0  0
  3  1  1  0  0  0  0
  6  2  1  0  0  0  0
  8  9  1  0  0  0  0
  8 14  1  0  0  0  0
  9 16  1  0  0  0  0
 10  1  1  0  0  0  0
 10  9  2  0  0  0  0
 11 10  1  0  0  0  0
 12 11  2  0  0  0  0
 12 13  1  0  0  0  0
 13  8  2  0  0  0  0
 15 12  1  0  0  0  0
 16 17  1  0  0  0  0
 18 16  1  0  0  0  0
 19 20  2  0  0  0  0
 20 21  1  0  0  0  0
 22 20  1  0  0  0  0
 23 22  1  0  0  0  0
 24 23  1  0  0  0  0
 25 23  2  0  0  0  0
 25 19  1  0  0  0  0
M  END
>  <minimizedAffinity>
-3.99861026

$$$$
