
 OpenBabel03252506373D

 42 45  0  0  1  0  0  0  0  0999 V2000
   44.5290   35.4640   45.1510 C   0  0  0  0  0  0  0  0  0  0  0  0
   45.1880   35.4680   43.9070 C   0  0  0  0  0  0  0  0  0  0  0  0
   46.1180   34.5140   43.6490 C   0  0  0  0  0  0  0  0  0  0  0  0
   46.3550   33.6060   44.6260 N   0  0  0  0  0  0  0  0  0  0  0  0
   45.7310   33.6090   45.7950 C   0  0  0  0  0  0  0  0  0  0  0  0
   44.8160   34.5310   46.0710 N   0  0  0  0  0  0  0  0  0  0  0  0
   46.0670   32.5960   46.7590 N   0  0  0  0  0  0  0  0  0  0  0  0
   45.3310   32.3340   47.9400 C   0  0  0  0  0  0  0  0  0  0  0  0
   46.4110   32.0110   48.9570 C   0  0  0  0  0  0  0  0  0  0  0  0
   47.6920   31.9080   48.1850 C   0  0  0  0  0  0  0  0  0  0  0  0
   47.2050   31.6990   46.7510 C   0  0  1  0  0  0  0  0  0  0  0  0
   43.7780   36.2280   45.3700 H   0  0  0  0  0  0  0  0  0  0  0  0
   46.6280   34.5000   42.7150 H   0  0  0  0  0  0  0  0  0  0  0  0
   44.5560   31.6460   48.0480 H   0  0  0  0  0  0  0  0  0  0  0  0
   44.9150   33.3320   48.2870 H   0  0  0  0  0  0  0  0  0  0  0  0
   46.5650   32.8160   49.7040 H   0  0  0  0  0  0  0  0  0  0  0  0
   46.1720   31.0960   49.5400 H   0  0  0  0  0  0  0  0  0  0  0  0
   48.2860   31.0260   48.4940 H   0  0  0  0  0  0  0  0  0  0  0  0
   48.2720   32.8590   48.1960 H   0  0  0  0  0  0  0  0  0  0  0  0
   48.0070   32.0340   46.0930 H   0  0  0  0  0  0  0  0  0  0  0  0
   44.8230   36.5000   42.9770 N   0  0  0  0  0  0  0  0  0  0  0  0
   43.8550   36.3920   42.6040 H   0  0  0  0  0  0  0  0  0  0  0  0
   45.4780   37.2780   42.7110 H   0  0  0  0  0  0  0  0  0  0  0  0
   46.7160   30.0050   46.5630 S   0  0  0  0  0  0  0  0  0  0  0  0
   45.4460   30.4740   43.5050 O   0  0  0  0  0  0  0  0  0  0  0  0
   44.9030   29.9290   44.4790 C   0  0  0  0  0  0  0  0  0  0  0  0
   45.1200   29.7000   45.9360 C   0  0  1  0  0  0  0  0  0  0  0  0
   44.6090   28.2950   46.0970 C   0  0  0  0  0  0  0  0  0  0  0  0
   43.2190   28.5030   45.4530 C   0  0  0  0  0  0  0  0  0  0  0  0
   43.6470   29.2670   44.2610 N   0  0  0  0  0  0  0  0  0  0  0  0
   44.2570   30.2940   46.3480 H   0  0  0  0  0  0  0  0  0  0  0  0
   44.5120   28.0070   47.1520 H   0  0  0  0  0  0  0  0  0  0  0  0
   45.1650   27.5770   45.4710 H   0  0  0  0  0  0  0  0  0  0  0  0
   42.8070   27.5240   45.1700 H   0  0  0  0  0  0  0  0  0  0  0  0
   42.5750   29.0990   46.1120 H   0  0  0  0  0  0  0  0  0  0  0  0
   42.7530   29.2100   43.1200 C   0  0  0  0  0  0  0  0  0  0  0  0
   41.9800   30.2740   42.6950 C   0  0  0  0  0  0  0  0  0  0  0  0
   42.0200   31.2650   43.2490 H   0  0  0  0  0  0  0  0  0  0  0  0
   41.1190   29.4570   41.2110 S   0  0  0  0  0  0  0  0  0  0  0  0
   42.0240   27.8290   41.5130 C   0  0  0  0  0  0  0  0  0  0  0  0
   41.8400   26.9860   40.8570 H   0  0  0  0  0  0  0  0  0  0  0  0
   42.7380   28.0310   42.5050 N   0  0  0  0  0  0  0  0  0  0  0  0
  1 12  1  0  0  0  0
  1  6  1  0  0  0  0
  2  1  2  0  0  0  0
  3  2  1  0  0  0  0
  3  4  2  0  0  0  0
  4  5  1  0  0  0  0
  5  6  2  0  0  0  0
  5  7  1  0  0  0  0
  7  8  1  0  0  0  0
  8 14  1  0  0  0  0
  8 15  1  0  0  0  0
  8  9  1  0  0  0  0
  9 17  1  0  0  0  0
  9 16  1  0  0  0  0
 10 19  1  0  0  0  0
 10 18  1  0  0  0  0
 10  9  1  0  0  0  0
 11 20  1  6  0  0  0
 11  7  1  0  0  0  0
 11 10  1  0  0  0  0
 13  3  1  0  0  0  0
 21  2  1  0  0  0  0
 22 21  1  0  0  0  0
 23 21  1  0  0  0  0
 24 11  1  0  0  0  0
 25 26  2  0  0  0  0
 26 27  1  0  0  0  0
 27 28  1  0  0  0  0
 27 31  1  1  0  0  0
 27 24  1  0  0  0  0
 28 32  1  0  0  0  0
 29 28  1  0  0  0  0
 29 35  1  0  0  0  0
 30 26  1  0  0  0  0
 30 29  1  0  0  0  0
 33 28  1  0  0  0  0
 34 29  1  0  0  0  0
 36 30  1  0  0  0  0
 37 36  2  0  0  0  0
 37 38  1  0  0  0  0
 39 40  1  0  0  0  0
 39 37  1  0  0  0  0
 40 42  2  0  0  0  0
 41 40  1  0  0  0  0
 42 36  1  0  0  0  0
M  END
>  <minimizedAffinity>
-5.20856953

>  <minimizedRMSD>
0.262011558

$$$$
