
 OpenBabel03252506123D

 34 36  0  0  0  0  0  0  0  0999 V2000
   45.2510   33.4140   41.1400 F   0  0  0  0  0  0  0  0  0  0  0  0
   46.4090   34.0400   41.0220 C   0  0  0  0  0  0  0  0  0  0  0  0
   46.8830   34.8010   42.0790 C   0  0  0  0  0  0  0  0  0  0  0  0
   48.0900   35.4880   42.0390 C   0  0  0  0  0  0  0  0  0  0  0  0
   48.8790   35.4240   40.8890 C   0  0  0  0  0  0  0  0  0  0  0  0
   48.3760   34.6560   39.8530 C   0  0  0  0  0  0  0  0  0  0  0  0
   47.1980   33.9780   39.8750 C   0  0  0  0  0  0  0  0  0  0  0  0
   48.3980   36.0700   42.9180 H   0  0  0  0  0  0  0  0  0  0  0  0
   49.8060   35.9730   40.9050 H   0  0  0  0  0  0  0  0  0  0  0  0
   49.0850   34.6850   39.0310 H   0  0  0  0  0  0  0  0  0  0  0  0
   45.4900   33.9880   45.3760 C   0  0  0  0  0  0  0  0  0  0  0  0
   44.6320   35.0860   45.6060 C   0  0  0  0  0  0  0  0  0  0  0  0
   44.5360   36.1100   44.6180 C   0  0  0  0  0  0  0  0  0  0  0  0
   45.2970   35.9500   43.4960 N   0  0  0  0  0  0  0  0  0  0  0  0
   46.0970   34.8980   43.3140 C   0  0  0  0  0  0  0  0  0  0  0  0
   46.1900   33.9310   44.2440 N   0  0  0  0  0  0  0  0  0  0  0  0
   44.0390   35.1990   46.4930 H   0  0  0  0  0  0  0  0  0  0  0  0
   43.9010   36.9540   44.7540 H   0  0  0  0  0  0  0  0  0  0  0  0
   45.5690   32.9870   46.3690 N   0  0  0  0  0  0  0  0  0  0  0  0
   45.3500   31.9920   46.1150 H   0  0  0  0  0  0  0  0  0  0  0  0
   45.8500   33.3380   47.3130 H   0  0  0  0  0  0  0  0  0  0  0  0
   46.7980   33.2500   38.7900 O   0  0  0  0  0  0  0  0  0  0  0  0
   48.0860   34.7190   36.9950 O   0  0  0  0  0  0  0  0  0  0  0  0
   47.3280   33.4420   37.2050 P   0  0  2  0  0  0  0  0  0  0  0  0
   45.9840   33.3430   36.1670 O   0  0  0  0  0  0  0  0  0  0  0  0
   46.3460   33.2890   35.2390 H   0  0  0  0  0  0  0  0  0  0  0  0
   48.3370   32.1480   36.7100 O   0  0  0  0  0  0  0  0  0  0  0  0
   48.8100   32.1120   35.3800 C   0  0  0  0  0  0  0  0  0  0  0  0
   49.8440   31.2100   35.1700 C   0  0  0  0  0  0  0  0  0  0  0  0
   50.4670   30.4720   35.6800 H   0  0  0  0  0  0  0  0  0  0  0  0
   50.2320   31.4040   33.3480 S   0  0  0  0  0  0  0  0  0  0  0  0
   48.8670   32.7170   33.2260 C   0  0  0  0  0  0  0  0  0  0  0  0
   48.2180   33.5420   32.5090 H   0  0  0  0  0  0  0  0  0  0  0  0
   48.4810   32.7570   34.2770 N   0  0  0  0  0  0  0  0  0  0  0  0
  2  1  1  0  0  0  0
  2  3  1  0  0  0  0
  3 15  1  0  0  0  0
  4  3  2  0  0  0  0
  4  8  1  0  0  0  0
  5  9  1  0  0  0  0
  5  4  1  0  0  0  0
  6  7  1  0  0  0  0
  6  5  2  0  0  0  0
  7  2  2  0  0  0  0
 10  6  1  0  0  0  0
 11 12  1  0  0  0  0
 11 19  1  0  0  0  0
 12 17  1  0  0  0  0
 13 18  1  0  0  0  0
 13 12  2  0  0  0  0
 14 13  1  0  0  0  0
 15 14  2  0  0  0  0
 15 16  1  0  0  0  0
 16 11  2  0  0  0  0
 19 21  1  0  0  0  0
 20 19  1  0  0  0  0
 22  7  1  0  0  0  0
 24 23  2  6  0  0  0
 24 22  1  0  0  0  0
 25 24  1  0  0  0  0
 26 25  1  0  0  0  0
 27 24  1  0  0  0  0
 28 27  1  0  0  0  0
 29 28  2  0  0  0  0
 29 30  1  0  0  0  0
 31 29  1  0  0  0  0
 32 31  1  0  0  0  0
 32 34  2  0  0  0  0
 33 32  1  0  0  0  0
 34 28  1  0  0  0  0
M  END
>  <minimizedAffinity>
-6.48524141

>  <minimizedRMSD>
2.19927382

$$$$
