
 OpenBabel03252508023D

 40 43  0  0  1  0  0  0  0  0999 V2000
   44.2510   34.3810   41.5660 C   0  0  0  0  0  0  0  0  0  0  0  0
   45.1380   34.2960   40.6440 O   0  0  0  0  0  0  0  0  0  0  0  0
   42.0890   33.2480   41.1700 C   0  0  0  0  0  0  0  0  0  0  0  0
   42.8020   34.3990   41.3330 C   0  0  0  0  0  0  0  0  0  0  0  0
   42.1310   35.6280   41.2590 C   0  0  0  0  0  0  0  0  0  0  0  0
   40.7830   35.7340   41.0290 C   0  0  0  0  0  0  0  0  0  0  0  0
   40.0640   34.5830   40.8660 C   0  0  0  0  0  0  0  0  0  0  0  0
   40.7080   33.3880   40.9360 C   0  0  0  0  0  0  0  0  0  0  0  0
   42.6300   36.5790   41.3680 H   0  0  0  0  0  0  0  0  0  0  0  0
   40.2680   36.6770   40.9720 H   0  0  0  0  0  0  0  0  0  0  0  0
   39.0050   34.5350   40.6810 H   0  0  0  0  0  0  0  0  0  0  0  0
   40.1450   32.4490   40.8060 H   0  0  0  0  0  0  0  0  0  0  0  0
   42.7760   31.7060   41.2910 S   0  0  0  0  0  0  0  0  0  0  0  0
   41.7260   30.8550   40.5500 O   0  0  0  0  0  0  0  0  0  0  0  0
   42.7940   31.2070   42.6950 O   0  0  0  0  0  0  0  0  0  0  0  0
   43.9800   31.0770   40.2520 C   0  0  0  0  0  0  0  0  0  0  0  0
   45.2860   30.7440   41.0560 C   0  0  0  0  0  0  0  0  0  0  0  0
   45.5820   30.9060   42.2680 H   0  0  0  0  0  0  0  0  0  0  0  0
   46.3230   30.0710   39.9040 S   0  0  0  0  0  0  0  0  0  0  0  0
   45.1630   30.2040   38.4850 C   0  0  0  0  0  0  0  0  0  0  0  0
   45.2610   29.9280   37.4430 H   0  0  0  0  0  0  0  0  0  0  0  0
   44.2550   30.6900   39.0400 N   0  0  0  0  0  0  0  0  0  0  0  0
   44.5860   34.4710   42.9560 C   0  0  0  0  0  0  0  0  0  0  0  0
   44.3070   35.7170   43.5900 C   0  0  0  0  0  0  0  0  0  0  0  0
   44.6240   35.8140   44.9340 C   0  0  0  0  0  0  0  0  0  0  0  0
   45.1690   34.7390   45.5610 N   0  0  0  0  0  0  0  0  0  0  0  0
   45.4210   33.5580   44.9110 C   0  0  0  0  0  0  0  0  0  0  0  0
   45.1200   33.4930   43.6670 N   0  0  0  0  0  0  0  0  0  0  0  0
   43.8900   36.6010   43.1900 H   0  0  0  0  0  0  0  0  0  0  0  0
   44.4530   36.7230   45.5220 H   0  0  0  0  0  0  0  0  0  0  0  0
   46.0100   32.4400   45.6710 C   0  0  1  0  0  0  0  0  0  0  0  0
   46.9720   32.7570   46.7970 C   0  0  0  0  0  0  0  0  0  0  0  0
   45.5470   32.3520   47.0830 C   0  0  1  0  0  0  0  0  0  0  0  0
   46.1030   31.4660   45.1650 H   0  0  0  0  0  0  0  0  0  0  0  0
   47.7780   31.9930   46.9310 H   0  0  0  0  0  0  0  0  0  0  0  0
   47.2910   33.8030   46.8070 H   0  0  0  0  0  0  0  0  0  0  0  0
   45.4310   31.3620   47.5650 H   0  0  0  0  0  0  0  0  0  0  0  0
   44.7670   33.4030   47.6660 N   0  0  0  0  0  0  0  0  0  0  0  0
   43.9230   33.0830   48.1590 H   0  0  0  0  0  0  0  0  0  0  0  0
   45.3230   34.1250   48.1660 H   0  0  0  0  0  0  0  0  0  0  0  0
  1 23  1  0  0  0  0
  2  1  2  0  0  0  0
  3 13  1  0  0  0  0
  3  4  1  0  0  0  0
  4  1  1  0  0  0  0
  5  4  2  0  0  0  0
  5  9  1  0  0  0  0
  6  5  1  0  0  0  0
  7  8  1  0  0  0  0
  7  6  2  0  0  0  0
  8  3  2  0  0  0  0
 10  6  1  0  0  0  0
 11  7  1  0  0  0  0
 12  8  1  0  0  0  0
 13 15  2  0  0  0  0
 14 13  2  0  0  0  0
 16 17  2  0  0  0  0
 16 13  1  0  0  0  0
 17 18  1  0  0  0  0
 19 17  1  0  0  0  0
 20 22  2  0  0  0  0
 20 19  1  0  0  0  0
 21 20  1  0  0  0  0
 22 16  1  0  0  0  0
 23 24  2  0  0  0  0
 23 28  1  0  0  0  0
 24 25  1  0  0  0  0
 25 30  1  0  0  0  0
 25 26  2  0  0  0  0
 27 26  1  0  0  0  0
 27 31  1  0  0  0  0
 28 27  2  0  0  0  0
 29 24  1  0  0  0  0
 31 34  1  6  0  0  0
 31 32  1  0  0  0  0
 31 33  1  0  0  0  0
 32 36  1  0  0  0  0
 32 35  1  0  0  0  0
 32 33  1  0  0  0  0
 33 37  1  1  0  0  0
 33 38  1  0  0  0  0
 38 39  1  0  0  0  0
 38 40  1  0  0  0  0
M  END
>  <minimizedAffinity>
-5.67504549

>  <minimizedRMSD>
1.06775081

$$$$
