
 OpenBabel03252508573D

 22 23  0  0  0  0  0  0  0  0999 V2000
   45.5730   34.4830   41.2100 C   0  0  0  0  0  0  0  0  0  0  0  0
   45.0000   33.5920   40.8790 H   0  0  0  0  0  0  0  0  0  0  0  0
   45.1840   35.3570   40.6900 H   0  0  0  0  0  0  0  0  0  0  0  0
   44.6090   35.9750   44.5330 C   0  0  0  0  0  0  0  0  0  0  0  0
   44.8100   35.8390   43.1350 C   0  0  0  0  0  0  0  0  0  0  0  0
   45.3520   34.6510   42.6690 C   0  0  0  0  0  0  0  0  0  0  0  0
   45.6570   33.6910   43.5760 N   0  0  0  0  0  0  0  0  0  0  0  0
   45.4580   33.8410   44.9060 C   0  0  0  0  0  0  0  0  0  0  0  0
   44.9380   34.9740   45.3680 N   0  0  0  0  0  0  0  0  0  0  0  0
   44.1830   36.9400   44.7760 H   0  0  0  0  0  0  0  0  0  0  0  0
   44.5660   36.6070   42.4140 H   0  0  0  0  0  0  0  0  0  0  0  0
   45.7070   33.0640   45.6170 H   0  0  0  0  0  0  0  0  0  0  0  0
   47.0360   34.2310   40.9570 C   0  0  0  0  0  0  0  0  0  0  0  0
   47.5990   35.1370   41.2650 H   0  0  0  0  0  0  0  0  0  0  0  0
   47.4120   33.4120   41.5790 H   0  0  0  0  0  0  0  0  0  0  0  0
   47.2260   33.9190   39.4980 C   0  0  0  0  0  0  0  0  0  0  0  0
   46.3990   33.0010   38.7400 C   0  0  0  0  0  0  0  0  0  0  0  0
   45.5770   32.4750   39.1950 H   0  0  0  0  0  0  0  0  0  0  0  0
   47.1300   33.0750   37.1090 S   0  0  0  0  0  0  0  0  0  0  0  0
   48.4400   34.3300   37.6910 C   0  0  0  0  0  0  0  0  0  0  0  0
   49.2600   34.7950   37.0510 H   0  0  0  0  0  0  0  0  0  0  0  0
   48.1900   34.4790   38.7920 N   0  0  0  0  0  0  0  0  0  0  0  0
  1  6  1  0  0  0  0
  2  1  1  0  0  0  0
  3  1  1  0  0  0  0
  4 10  1  0  0  0  0
  4  9  1  0  0  0  0
  5  4  2  0  0  0  0
  6  5  1  0  0  0  0
  6  7  2  0  0  0  0
  7  8  1  0  0  0  0
  8  9  2  0  0  0  0
  8 12  1  0  0  0  0
 11  5  1  0  0  0  0
 13  1  1  0  0  0  0
 13 14  1  0  0  0  0
 13 15  1  0  0  0  0
 16 13  1  0  0  0  0
 17 18  1  0  0  0  0
 17 16  2  0  0  0  0
 19 20  1  0  0  0  0
 19 17  1  0  0  0  0
 20 22  2  0  0  0  0
 21 20  1  0  0  0  0
 22 16  1  0  0  0  0
M  END
>  <minimizedAffinity>
-3.82857347

>  <minimizedRMSD>
1.8850497

$$$$
