
 OpenBabel03252503203D

 37 40  0  0  0  0  0  0  0  0999 V2000
   36.2420   30.3480   39.3290 C   0  0  0  0  0  0  0  0  0  0  0  0
   36.5750   31.3580   40.1910 C   0  0  0  0  0  0  0  0  0  0  0  0
   37.3770   32.1920   39.4820 N   0  0  0  0  0  0  0  0  0  0  0  0
   37.5200   31.7030   38.2470 C   0  0  0  0  0  0  0  0  0  0  0  0
   36.8210   30.5680   38.1520 N   0  0  0  0  0  0  0  0  0  0  0  0
   38.2580   32.2120   37.1430 N   0  0  0  0  0  0  0  0  0  0  0  0
   36.2720   31.4700   41.2050 H   0  0  0  0  0  0  0  0  0  0  0  0
   39.2540   31.8540   37.0930 H   0  0  0  0  0  0  0  0  0  0  0  0
   37.8420   32.8830   36.4460 H   0  0  0  0  0  0  0  0  0  0  0  0
   38.0050   33.4160   39.9240 C   0  0  0  0  0  0  0  0  0  0  0  0
   37.9650   34.1770   39.0900 H   0  0  0  0  0  0  0  0  0  0  0  0
   37.3960   33.8690   40.7310 H   0  0  0  0  0  0  0  0  0  0  0  0
   39.4370   33.2250   40.3160 C   0  0  0  0  0  0  0  0  0  0  0  0
   40.4570   34.1610   39.9200 C   0  0  0  0  0  0  0  0  0  0  0  0
   40.2810   35.0230   39.3410 H   0  0  0  0  0  0  0  0  0  0  0  0
   41.9320   33.4240   40.6670 S   0  0  0  0  0  0  0  0  0  0  0  0
   40.9360   31.9740   41.3930 C   0  0  0  0  0  0  0  0  0  0  0  0
   41.3680   31.1660   41.9850 H   0  0  0  0  0  0  0  0  0  0  0  0
   39.8790   32.2110   41.0410 N   0  0  0  0  0  0  0  0  0  0  0  0
   35.3670   29.1580   39.6160 C   0  0  0  0  0  0  0  0  0  0  0  0
   34.2270   29.2140   40.1480 O   0  0  0  0  0  0  0  0  0  0  0  0
   35.4330   27.2730   38.0560 C   0  0  0  0  0  0  0  0  0  0  0  0
   35.8220   27.8550   39.2750 C   0  0  0  0  0  0  0  0  0  0  0  0
   36.6440   27.0600   40.0520 C   0  0  0  0  0  0  0  0  0  0  0  0
   37.0450   25.8430   39.6890 N   0  0  0  0  0  0  0  0  0  0  0  0
   36.6360   25.3280   38.4930 C   0  0  0  0  0  0  0  0  0  0  0  0
   35.8400   26.0450   37.6950 N   0  0  0  0  0  0  0  0  0  0  0  0
   34.7820   27.8200   37.3690 H   0  0  0  0  0  0  0  0  0  0  0  0
   36.9550   24.3400   38.1880 H   0  0  0  0  0  0  0  0  0  0  0  0
   37.0800   27.5810   41.3090 C   0  0  0  0  0  0  0  0  0  0  0  0
   36.5910   27.6200   42.5720 C   0  0  0  0  0  0  0  0  0  0  0  0
   37.2190   28.1810   43.5760 C   0  0  0  0  0  0  0  0  0  0  0  0
   38.4040   28.7290   43.2780 C   0  0  0  0  0  0  0  0  0  0  0  0
   38.6370   28.4360   41.5000 S   0  0  0  0  0  0  0  0  0  0  0  0
   35.6010   27.1250   42.6620 H   0  0  0  0  0  0  0  0  0  0  0  0
   36.8720   28.2390   44.6000 H   0  0  0  0  0  0  0  0  0  0  0  0
   39.1520   29.2850   43.9920 H   0  0  0  0  0  0  0  0  0  0  0  0
  1 20  1  0  0  0  0
  1  2  2  0  0  0  0
  2  7  1  0  0  0  0
  3 10  1  0  0  0  0
  3  2  1  0  0  0  0
  4  3  1  0  0  0  0
  5  4  2  0  0  0  0
  5  1  1  0  0  0  0
  6  4  1  0  0  0  0
  8  6  1  0  0  0  0
  9  6  1  0  0  0  0
 10 13  1  0  0  0  0
 10 12  1  0  0  0  0
 11 10  1  0  0  0  0
 13 19  1  0  0  0  0
 14 13  2  0  0  0  0
 14 16  1  0  0  0  0
 15 14  1  0  0  0  0
 16 17  1  0  0  0  0
 17 18  1  0  0  0  0
 19 17  2  0  0  0  0
 20 21  2  0  0  0  0
 22 23  1  0  0  0  0
 23 20  1  0  0  0  0
 23 24  2  0  0  0  0
 24 30  1  0  0  0  0
 25 24  1  0  0  0  0
 26 25  2  0  0  0  0
 27 22  2  0  0  0  0
 27 26  1  0  0  0  0
 28 22  1  0  0  0  0
 29 26  1  0  0  0  0
 30 34  1  0  0  0  0
 30 31  2  0  0  0  0
 31 35  1  0  0  0  0
 31 32  1  0  0  0  0
 32 36  1  0  0  0  0
 33 32  2  0  0  0  0
 33 37  1  0  0  0  0
 34 33  1  0  0  0  0
M  END
>  <minimizedAffinity>
-5.56457853

$$$$

 OpenBabel03252503203D

 37 40  0  0  0  0  0  0  0  0999 V2000
   37.6810   28.3870   39.5680 C   0  0  0  0  0  0  0  0  0  0  0  0
   37.9940   29.4850   38.8130 C   0  0  0  0  0  0  0  0  0  0  0  0
   37.2560   30.5020   39.3250 N   0  0  0  0  0  0  0  0  0  0  0  0
   36.5310   30.0350   40.3450 C   0  0  0  0  0  0  0  0  0  0  0  0
   36.7920   28.7320   40.4950 N   0  0  0  0  0  0  0  0  0  0  0  0
   35.6100   30.7070   41.1950 N   0  0  0  0  0  0  0  0  0  0  0  0
   38.6720   29.5350   37.9940 H   0  0  0  0  0  0  0  0  0  0  0  0
   34.6100   30.6860   40.8450 H   0  0  0  0  0  0  0  0  0  0  0  0
   35.9070   31.1810   42.0880 H   0  0  0  0  0  0  0  0  0  0  0  0
   37.2120   31.8800   38.8920 C   0  0  0  0  0  0  0  0  0  0  0  0
   37.0950   31.9140   37.7700 H   0  0  0  0  0  0  0  0  0  0  0  0
   36.2860   32.3540   39.2730 H   0  0  0  0  0  0  0  0  0  0  0  0
   38.4470   32.6430   39.2580 C   0  0  0  0  0  0  0  0  0  0  0  0
   38.4590   33.5690   40.3610 C   0  0  0  0  0  0  0  0  0  0  0  0
   37.6280   33.7760   40.9730 H   0  0  0  0  0  0  0  0  0  0  0  0
   40.1700   34.1610   40.3150 S   0  0  0  0  0  0  0  0  0  0  0  0
   40.5920   33.0640   38.8180 C   0  0  0  0  0  0  0  0  0  0  0  0
   41.5720   33.0260   38.3400 H   0  0  0  0  0  0  0  0  0  0  0  0
   39.6020   32.5360   38.6230 N   0  0  0  0  0  0  0  0  0  0  0  0
   38.2250   26.9930   39.4170 C   0  0  0  0  0  0  0  0  0  0  0  0
   39.3930   26.7120   39.0380 O   0  0  0  0  0  0  0  0  0  0  0  0
   36.4810   25.4100   38.7510 C   0  0  0  0  0  0  0  0  0  0  0  0
   37.3920   25.8790   39.7130 C   0  0  0  0  0  0  0  0  0  0  0  0
   37.3810   25.1750   40.9020 C   0  0  0  0  0  0  0  0  0  0  0  0
   36.5810   24.1360   41.1330 N   0  0  0  0  0  0  0  0  0  0  0  0
   35.7150   23.7230   40.1610 C   0  0  0  0  0  0  0  0  0  0  0  0
   35.6760   24.3610   38.9880 N   0  0  0  0  0  0  0  0  0  0  0  0
   36.4120   25.8980   37.7750 H   0  0  0  0  0  0  0  0  0  0  0  0
   35.0600   22.8800   40.3370 H   0  0  0  0  0  0  0  0  0  0  0  0
   38.2780   25.5930   41.9320 C   0  0  0  0  0  0  0  0  0  0  0  0
   38.3560   26.6350   42.7960 C   0  0  0  0  0  0  0  0  0  0  0  0
   39.3200   26.7820   43.6710 C   0  0  0  0  0  0  0  0  0  0  0  0
   40.2510   25.8190   43.6670 C   0  0  0  0  0  0  0  0  0  0  0  0
   39.7370   24.6580   42.3660 S   0  0  0  0  0  0  0  0  0  0  0  0
   37.5130   27.3490   42.6800 H   0  0  0  0  0  0  0  0  0  0  0  0
   39.4270   27.5930   44.3800 H   0  0  0  0  0  0  0  0  0  0  0  0
   41.2040   25.7210   44.3450 H   0  0  0  0  0  0  0  0  0  0  0  0
  1  5  1  0  0  0  0
  2  3  1  0  0  0  0
  2  1  2  0  0  0  0
  3  4  1  0  0  0  0
  4  5  2  0  0  0  0
  4  6  1  0  0  0  0
  6  9  1  0  0  0  0
  7  2  1  0  0  0  0
  8  6  1  0  0  0  0
 10 13  1  0  0  0  0
 10 12  1  0  0  0  0
 10  3  1  0  0  0  0
 11 10  1  0  0  0  0
 13 14  2  0  0  0  0
 14 15  1  0  0  0  0
 16 14  1  0  0  0  0
 17 16  1  0  0  0  0
 18 17  1  0  0  0  0
 19 17  2  0  0  0  0
 19 13  1  0  0  0  0
 20  1  1  0  0  0  0
 20 23  1  0  0  0  0
 21 20  2  0  0  0  0
 22 27  2  0  0  0  0
 22 23  1  0  0  0  0
 23 24  2  0  0  0  0
 24 25  1  0  0  0  0
 24 30  1  0  0  0  0
 26 29  1  0  0  0  0
 26 25  2  0  0  0  0
 27 26  1  0  0  0  0
 28 22  1  0  0  0  0
 30 34  1  0  0  0  0
 30 31  2  0  0  0  0
 31 32  1  0  0  0  0
 32 36  1  0  0  0  0
 33 32  2  0  0  0  0
 33 37  1  0  0  0  0
 34 33  1  0  0  0  0
 35 31  1  0  0  0  0
M  END
>  <minimizedAffinity>
-5.4872427

$$$$

 OpenBabel03252503203D

 37 40  0  0  0  0  0  0  0  0999 V2000
   37.2270   30.1590   38.8220 C   0  0  0  0  0  0  0  0  0  0  0  0
   38.5050   30.3660   39.2680 C   0  0  0  0  0  0  0  0  0  0  0  0
   39.0830   31.1850   38.3530 N   0  0  0  0  0  0  0  0  0  0  0  0
   38.1900   31.4590   37.3980 C   0  0  0  0  0  0  0  0  0  0  0  0
   37.0470   30.8270   37.6860 N   0  0  0  0  0  0  0  0  0  0  0  0
   38.3160   32.2650   36.2330 N   0  0  0  0  0  0  0  0  0  0  0  0
   38.9560   29.9700   40.1470 H   0  0  0  0  0  0  0  0  0  0  0  0
   38.6440   31.7330   35.3780 H   0  0  0  0  0  0  0  0  0  0  0  0
   38.1000   33.2960   36.2340 H   0  0  0  0  0  0  0  0  0  0  0  0
   40.4280   31.7110   38.3490 C   0  0  0  0  0  0  0  0  0  0  0  0
   40.4100   32.7770   37.9770 H   0  0  0  0  0  0  0  0  0  0  0  0
   40.7900   31.7980   39.3930 H   0  0  0  0  0  0  0  0  0  0  0  0
   41.3560   30.9250   37.4770 C   0  0  0  0  0  0  0  0  0  0  0  0
   42.4780   31.5440   36.8210 C   0  0  0  0  0  0  0  0  0  0  0  0
   42.7240   32.5650   36.9000 H   0  0  0  0  0  0  0  0  0  0  0  0
   43.2020   30.1370   35.9410 S   0  0  0  0  0  0  0  0  0  0  0  0
   41.8770   28.9410   36.5990 C   0  0  0  0  0  0  0  0  0  0  0  0
   41.8340   27.8780   36.3610 H   0  0  0  0  0  0  0  0  0  0  0  0
   41.2330   29.6300   37.2400 N   0  0  0  0  0  0  0  0  0  0  0  0
   36.1610   29.3220   39.4730 C   0  0  0  0  0  0  0  0  0  0  0  0
   35.2600   29.7650   40.2320 O   0  0  0  0  0  0  0  0  0  0  0  0
   35.5960   27.4200   38.0390 C   0  0  0  0  0  0  0  0  0  0  0  0
   36.1310   27.9190   39.2390 C   0  0  0  0  0  0  0  0  0  0  0  0
   36.5930   26.9480   40.1070 C   0  0  0  0  0  0  0  0  0  0  0  0
   36.5440   25.6440   39.8440 N   0  0  0  0  0  0  0  0  0  0  0  0
   36.0130   25.2150   38.6600 C   0  0  0  0  0  0  0  0  0  0  0  0
   35.5490   26.1030   37.7770 N   0  0  0  0  0  0  0  0  0  0  0  0
   35.2040   28.1060   37.2840 H   0  0  0  0  0  0  0  0  0  0  0  0
   35.9680   24.1580   38.4350 H   0  0  0  0  0  0  0  0  0  0  0  0
   37.1490   27.3770   41.3520 C   0  0  0  0  0  0  0  0  0  0  0  0
   36.6640   27.7430   42.5630 C   0  0  0  0  0  0  0  0  0  0  0  0
   37.4220   28.1040   43.5690 C   0  0  0  0  0  0  0  0  0  0  0  0
   38.7400   28.0910   43.3290 C   0  0  0  0  0  0  0  0  0  0  0  0
   38.9090   27.5440   41.6040 S   0  0  0  0  0  0  0  0  0  0  0  0
   35.5550   27.7030   42.6090 H   0  0  0  0  0  0  0  0  0  0  0  0
   37.0850   28.4040   44.5530 H   0  0  0  0  0  0  0  0  0  0  0  0
   39.6180   28.3690   44.0560 H   0  0  0  0  0  0  0  0  0  0  0  0
  1  2  2  0  0  0  0
  1 20  1  0  0  0  0
  2  7  1  0  0  0  0
  3  2  1  0  0  0  0
  4  5  2  0  0  0  0
  4  3  1  0  0  0  0
  5  1  1  0  0  0  0
  6  9  1  0  0  0  0
  6  4  1  0  0  0  0
  8  6  1  0  0  0  0
 10  3  1  0  0  0  0
 10 12  1  0  0  0  0
 11 10  1  0  0  0  0
 13 10  1  0  0  0  0
 14 15  1  0  0  0  0
 14 13  2  0  0  0  0
 16 17  1  0  0  0  0
 16 14  1  0  0  0  0
 17 19  2  0  0  0  0
 18 17  1  0  0  0  0
 19 13  1  0  0  0  0
 20 21  2  0  0  0  0
 22 23  1  0  0  0  0
 23 20  1  0  0  0  0
 23 24  2  0  0  0  0
 24 30  1  0  0  0  0
 25 24  1  0  0  0  0
 26 25  2  0  0  0  0
 27 22  2  0  0  0  0
 27 26  1  0  0  0  0
 28 22  1  0  0  0  0
 29 26  1  0  0  0  0
 30 34  1  0  0  0  0
 30 31  2  0  0  0  0
 31 35  1  0  0  0  0
 31 32  1  0  0  0  0
 32 36  1  0  0  0  0
 33 32  2  0  0  0  0
 33 37  1  0  0  0  0
 34 33  1  0  0  0  0
M  END
>  <minimizedAffinity>
-5.48672771

$$$$

 OpenBabel03252503203D

 37 40  0  0  0  0  0  0  0  0999 V2000
   37.9760   30.4880   41.5620 C   0  0  0  0  0  0  0  0  0  0  0  0
   39.1490   31.1940   41.5450 C   0  0  0  0  0  0  0  0  0  0  0  0
   38.8730   32.3440   40.8790 N   0  0  0  0  0  0  0  0  0  0  0  0
   37.5890   32.3300   40.5120 C   0  0  0  0  0  0  0  0  0  0  0  0
   37.0360   31.1870   40.9320 N   0  0  0  0  0  0  0  0  0  0  0  0
   36.8320   33.2990   39.7980 N   0  0  0  0  0  0  0  0  0  0  0  0
   40.0830   30.9050   41.9640 H   0  0  0  0  0  0  0  0  0  0  0  0
   36.8390   33.1590   38.7480 H   0  0  0  0  0  0  0  0  0  0  0  0
   36.3160   34.0810   40.2810 H   0  0  0  0  0  0  0  0  0  0  0  0
   39.7660   33.4400   40.5820 C   0  0  0  0  0  0  0  0  0  0  0  0
   39.1670   34.3910   40.4780 H   0  0  0  0  0  0  0  0  0  0  0  0
   40.4180   33.6280   41.4580 H   0  0  0  0  0  0  0  0  0  0  0  0
   40.5400   33.2310   39.3180 C   0  0  0  0  0  0  0  0  0  0  0  0
   41.7710   33.9340   39.0660 C   0  0  0  0  0  0  0  0  0  0  0  0
   42.2080   34.6280   39.7280 H   0  0  0  0  0  0  0  0  0  0  0  0
   42.2270   33.2890   37.4370 S   0  0  0  0  0  0  0  0  0  0  0  0
   40.6850   32.1750   37.3590 C   0  0  0  0  0  0  0  0  0  0  0  0
   40.4430   31.5160   36.5250 H   0  0  0  0  0  0  0  0  0  0  0  0
   40.1750   32.4070   38.3510 N   0  0  0  0  0  0  0  0  0  0  0  0
   37.7350   29.1380   42.1790 C   0  0  0  0  0  0  0  0  0  0  0  0
   37.4790   28.9360   43.3950 O   0  0  0  0  0  0  0  0  0  0  0  0
   36.6510   27.5650   40.6470 C   0  0  0  0  0  0  0  0  0  0  0  0
   37.7900   27.9740   41.3630 C   0  0  0  0  0  0  0  0  0  0  0  0
   38.8960   27.1640   41.1900 C   0  0  0  0  0  0  0  0  0  0  0  0
   38.9000   26.0820   40.4130 N   0  0  0  0  0  0  0  0  0  0  0  0
   37.7640   25.7320   39.7410 C   0  0  0  0  0  0  0  0  0  0  0  0
   36.6600   26.4730   39.8650 N   0  0  0  0  0  0  0  0  0  0  0  0
   35.7240   28.1390   40.7160 H   0  0  0  0  0  0  0  0  0  0  0  0
   37.7550   24.8550   39.1070 H   0  0  0  0  0  0  0  0  0  0  0  0
   40.0930   27.5120   41.8870 C   0  0  0  0  0  0  0  0  0  0  0  0
   40.5510   27.3990   43.1580 C   0  0  0  0  0  0  0  0  0  0  0  0
   41.7320   27.8160   43.5430 C   0  0  0  0  0  0  0  0  0  0  0  0
   42.4840   28.3760   42.5870 C   0  0  0  0  0  0  0  0  0  0  0  0
   41.4720   28.3080   41.0780 S   0  0  0  0  0  0  0  0  0  0  0  0
   39.8160   26.9130   43.8350 H   0  0  0  0  0  0  0  0  0  0  0  0
   42.1430   27.7480   44.5430 H   0  0  0  0  0  0  0  0  0  0  0  0
   43.5650   28.8240   42.6760 H   0  0  0  0  0  0  0  0  0  0  0  0
  1 20  1  0  0  0  0
  2  1  2  0  0  0  0
  2  7  1  0  0  0  0
  3  2  1  0  0  0  0
  4  3  1  0  0  0  0
  4  5  2  0  0  0  0
  5  1  1  0  0  0  0
  6  9  1  0  0  0  0
  6  4  1  0  0  0  0
  8  6  1  0  0  0  0
 10  3  1  0  0  0  0
 10 12  1  0  0  0  0
 11 10  1  0  0  0  0
 13 10  1  0  0  0  0
 14 13  2  0  0  0  0
 14 15  1  0  0  0  0
 16 14  1  0  0  0  0
 17 16  1  0  0  0  0
 17 19  2  0  0  0  0
 18 17  1  0  0  0  0
 19 13  1  0  0  0  0
 20 21  2  0  0  0  0
 22 28  1  0  0  0  0
 22 23  1  0  0  0  0
 23 20  1  0  0  0  0
 24 23  2  0  0  0  0
 24 30  1  0  0  0  0
 25 24  1  0  0  0  0
 26 27  1  0  0  0  0
 26 25  2  0  0  0  0
 27 22  2  0  0  0  0
 29 26  1  0  0  0  0
 30 31  2  0  0  0  0
 31 32  1  0  0  0  0
 31 35  1  0  0  0  0
 32 36  1  0  0  0  0
 33 37  1  0  0  0  0
 33 32  2  0  0  0  0
 34 30  1  0  0  0  0
 34 33  1  0  0  0  0
M  END
>  <minimizedAffinity>
-5.45800734

$$$$

 OpenBabel03252503203D

 37 40  0  0  0  0  0  0  0  0999 V2000
   37.9510   28.3000   41.7830 C   0  0  0  0  0  0  0  0  0  0  0  0
   38.4900   28.7980   40.6270 C   0  0  0  0  0  0  0  0  0  0  0  0
   37.7420   29.8850   40.3130 N   0  0  0  0  0  0  0  0  0  0  0  0
   36.7920   30.0340   41.2400 C   0  0  0  0  0  0  0  0  0  0  0  0
   36.9200   29.0580   42.1450 N   0  0  0  0  0  0  0  0  0  0  0  0
   35.7700   31.0160   41.3510 N   0  0  0  0  0  0  0  0  0  0  0  0
   39.3230   28.4160   40.0850 H   0  0  0  0  0  0  0  0  0  0  0  0
   34.8630   30.7470   40.8740 H   0  0  0  0  0  0  0  0  0  0  0  0
   35.9130   31.9260   41.8640 H   0  0  0  0  0  0  0  0  0  0  0  0
   37.8890   30.7750   39.1840 C   0  0  0  0  0  0  0  0  0  0  0  0
   38.2440   30.1860   38.2890 H   0  0  0  0  0  0  0  0  0  0  0  0
   36.8910   31.1480   38.8810 H   0  0  0  0  0  0  0  0  0  0  0  0
   38.8670   31.8780   39.4390 C   0  0  0  0  0  0  0  0  0  0  0  0
   38.4850   33.0750   40.1430 C   0  0  0  0  0  0  0  0  0  0  0  0
   37.5190   33.2610   40.5200 H   0  0  0  0  0  0  0  0  0  0  0  0
   40.0390   34.0040   40.1440 S   0  0  0  0  0  0  0  0  0  0  0  0
   40.9530   32.6310   39.1960 C   0  0  0  0  0  0  0  0  0  0  0  0
   42.0040   32.6760   38.9080 H   0  0  0  0  0  0  0  0  0  0  0  0
   40.1320   31.8530   39.0540 N   0  0  0  0  0  0  0  0  0  0  0  0
   38.4100   27.0950   42.5570 C   0  0  0  0  0  0  0  0  0  0  0  0
   38.9840   27.1340   43.6770 O   0  0  0  0  0  0  0  0  0  0  0  0
   36.8910   25.3130   41.8450 C   0  0  0  0  0  0  0  0  0  0  0  0
   38.1990   25.7950   42.0200 C   0  0  0  0  0  0  0  0  0  0  0  0
   39.1910   24.9130   41.6340 C   0  0  0  0  0  0  0  0  0  0  0  0
   38.9440   23.7030   41.1350 N   0  0  0  0  0  0  0  0  0  0  0  0
   37.6520   23.2860   40.9870 C   0  0  0  0  0  0  0  0  0  0  0  0
   36.6470   24.0910   41.3410 N   0  0  0  0  0  0  0  0  0  0  0  0
   36.0350   25.9340   42.1190 H   0  0  0  0  0  0  0  0  0  0  0  0
   37.4390   22.3050   40.5830 H   0  0  0  0  0  0  0  0  0  0  0  0
   40.5490   25.3290   41.7850 C   0  0  0  0  0  0  0  0  0  0  0  0
   41.5270   25.1570   42.7070 C   0  0  0  0  0  0  0  0  0  0  0  0
   42.7280   25.6670   42.5940 C   0  0  0  0  0  0  0  0  0  0  0  0
   42.9450   26.3890   41.4870 C   0  0  0  0  0  0  0  0  0  0  0  0
   41.3780   26.3410   40.5680 S   0  0  0  0  0  0  0  0  0  0  0  0
   41.1970   24.5360   43.5670 H   0  0  0  0  0  0  0  0  0  0  0  0
   43.5420   25.5590   43.3010 H   0  0  0  0  0  0  0  0  0  0  0  0
   43.9250   26.9430   41.1560 H   0  0  0  0  0  0  0  0  0  0  0  0
  1  5  1  0  0  0  0
  1 20  1  0  0  0  0
  2  1  2  0  0  0  0
  3  2  1  0  0  0  0
  3  4  1  0  0  0  0
  4  6  1  0  0  0  0
  4  5  2  0  0  0  0
  6  9  1  0  0  0  0
  7  2  1  0  0  0  0
  8  6  1  0  0  0  0
 10 13  1  0  0  0  0
 10  3  1  0  0  0  0
 11 10  1  0  0  0  0
 12 10  1  0  0  0  0
 13 14  2  0  0  0  0
 14 16  1  0  0  0  0
 14 15  1  0  0  0  0
 17 16  1  0  0  0  0
 18 17  1  0  0  0  0
 19 17  2  0  0  0  0
 19 13  1  0  0  0  0
 20 21  2  0  0  0  0
 22 23  1  0  0  0  0
 22 28  1  0  0  0  0
 23 20  1  0  0  0  0
 24 30  1  0  0  0  0
 24 23  2  0  0  0  0
 25 24  1  0  0  0  0
 26 25  2  0  0  0  0
 26 27  1  0  0  0  0
 27 22  2  0  0  0  0
 29 26  1  0  0  0  0
 30 31  2  0  0  0  0
 31 35  1  0  0  0  0
 32 31  1  0  0  0  0
 32 36  1  0  0  0  0
 33 32  2  0  0  0  0
 34 33  1  0  0  0  0
 34 30  1  0  0  0  0
 37 33  1  0  0  0  0
M  END
>  <minimizedAffinity>
-5.44002485

$$$$

 OpenBabel03252503203D

 37 40  0  0  0  0  0  0  0  0999 V2000
   37.2980   30.8110   40.7690 C   0  0  0  0  0  0  0  0  0  0  0  0
   38.5630   31.2570   41.0400 C   0  0  0  0  0  0  0  0  0  0  0  0
   38.6280   32.5080   40.5170 N   0  0  0  0  0  0  0  0  0  0  0  0
   37.4520   32.8000   39.9550 C   0  0  0  0  0  0  0  0  0  0  0  0
   36.6320   31.7550   40.1090 N   0  0  0  0  0  0  0  0  0  0  0  0
   37.0290   33.9790   39.2830 N   0  0  0  0  0  0  0  0  0  0  0  0
   39.3370   30.7370   41.5530 H   0  0  0  0  0  0  0  0  0  0  0  0
   37.2020   33.9620   38.2380 H   0  0  0  0  0  0  0  0  0  0  0  0
   36.5850   34.7900   39.7890 H   0  0  0  0  0  0  0  0  0  0  0  0
   39.7460   33.4230   40.5290 C   0  0  0  0  0  0  0  0  0  0  0  0
   39.3590   34.4810   40.6040 H   0  0  0  0  0  0  0  0  0  0  0  0
   40.3240   33.2820   41.4640 H   0  0  0  0  0  0  0  0  0  0  0  0
   40.5950   33.3180   39.3010 C   0  0  0  0  0  0  0  0  0  0  0  0
   41.7470   34.1600   39.1090 C   0  0  0  0  0  0  0  0  0  0  0  0
   42.0710   34.8920   39.7950 H   0  0  0  0  0  0  0  0  0  0  0  0
   42.3460   33.5890   37.4990 S   0  0  0  0  0  0  0  0  0  0  0  0
   40.9480   32.3080   37.3440 C   0  0  0  0  0  0  0  0  0  0  0  0
   40.8210   31.6340   36.4960 H   0  0  0  0  0  0  0  0  0  0  0  0
   40.3700   32.4690   38.3130 N   0  0  0  0  0  0  0  0  0  0  0  0
   36.7050   29.4770   41.1340 C   0  0  0  0  0  0  0  0  0  0  0  0
   35.4980   29.1570   40.9750 O   0  0  0  0  0  0  0  0  0  0  0  0
   37.6560   28.3720   43.1000 C   0  0  0  0  0  0  0  0  0  0  0  0
   37.5360   28.4730   41.7030 C   0  0  0  0  0  0  0  0  0  0  0  0
   38.2730   27.5410   40.9970 C   0  0  0  0  0  0  0  0  0  0  0  0
   39.0380   26.6180   41.5760 N   0  0  0  0  0  0  0  0  0  0  0  0
   39.1170   26.5670   42.9380 C   0  0  0  0  0  0  0  0  0  0  0  0
   38.4290   27.4390   43.6800 N   0  0  0  0  0  0  0  0  0  0  0  0
   37.1120   29.0630   43.7490 H   0  0  0  0  0  0  0  0  0  0  0  0
   39.7350   25.8210   43.4200 H   0  0  0  0  0  0  0  0  0  0  0  0
   38.2050   27.5810   39.5700 C   0  0  0  0  0  0  0  0  0  0  0  0
   37.3780   27.0860   38.6180 C   0  0  0  0  0  0  0  0  0  0  0  0
   37.5520   27.2790   37.3330 C   0  0  0  0  0  0  0  0  0  0  0  0
   38.6230   28.0130   37.0030 C   0  0  0  0  0  0  0  0  0  0  0  0
   39.4150   28.4460   38.5810 S   0  0  0  0  0  0  0  0  0  0  0  0
   36.5360   26.5010   39.0460 H   0  0  0  0  0  0  0  0  0  0  0  0
   36.9220   26.9070   36.5360 H   0  0  0  0  0  0  0  0  0  0  0  0
   38.9940   28.3240   35.9340 H   0  0  0  0  0  0  0  0  0  0  0  0
  1  2  2  0  0  0  0
  1 20  1  0  0  0  0
  2  7  1  0  0  0  0
  3 10  1  0  0  0  0
  3  2  1  0  0  0  0
  4  5  2  0  0  0  0
  4  3  1  0  0  0  0
  5  1  1  0  0  0  0
  6  9  1  0  0  0  0
  6  4  1  0  0  0  0
  8  6  1  0  0  0  0
 10 11  1  0  0  0  0
 10 12  1  0  0  0  0
 13 10  1  0  0  0  0
 14 13  2  0  0  0  0
 14 15  1  0  0  0  0
 16 14  1  0  0  0  0
 17 16  1  0  0  0  0
 17 19  2  0  0  0  0
 18 17  1  0  0  0  0
 19 13  1  0  0  0  0
 20 23  1  0  0  0  0
 21 20  2  0  0  0  0
 22 27  1  0  0  0  0
 22 28  1  0  0  0  0
 23 22  2  0  0  0  0
 24 25  2  0  0  0  0
 24 23  1  0  0  0  0
 25 26  1  0  0  0  0
 26 29  1  0  0  0  0
 26 27  2  0  0  0  0
 30 24  1  0  0  0  0
 31 35  1  0  0  0  0
 31 30  2  0  0  0  0
 32 31  1  0  0  0  0
 33 32  2  0  0  0  0
 33 34  1  0  0  0  0
 34 30  1  0  0  0  0
 36 32  1  0  0  0  0
 37 33  1  0  0  0  0
M  END
>  <minimizedAffinity>
-5.42811632

$$$$

 OpenBabel03252503203D

 37 40  0  0  0  0  0  0  0  0999 V2000
   37.9050   31.3550   40.7780 C   0  0  0  0  0  0  0  0  0  0  0  0
   38.7800   30.8110   41.6800 C   0  0  0  0  0  0  0  0  0  0  0  0
   38.1570   29.7130   42.1770 N   0  0  0  0  0  0  0  0  0  0  0  0
   36.9570   29.6020   41.5990 C   0  0  0  0  0  0  0  0  0  0  0  0
   36.8020   30.6130   40.7380 N   0  0  0  0  0  0  0  0  0  0  0  0
   35.9400   28.6260   41.7850 N   0  0  0  0  0  0  0  0  0  0  0  0
   39.7470   31.1710   41.9400 H   0  0  0  0  0  0  0  0  0  0  0  0
   35.2380   28.8770   42.5380 H   0  0  0  0  0  0  0  0  0  0  0  0
   35.9000   27.7370   41.2200 H   0  0  0  0  0  0  0  0  0  0  0  0
   38.6460   28.7790   43.1650 C   0  0  0  0  0  0  0  0  0  0  0  0
   39.5450   29.2220   43.6830 H   0  0  0  0  0  0  0  0  0  0  0  0
   37.8950   28.6740   43.9720 H   0  0  0  0  0  0  0  0  0  0  0  0
   39.0460   27.4640   42.5710 C   0  0  0  0  0  0  0  0  0  0  0  0
   40.3700   27.2470   42.0480 C   0  0  0  0  0  0  0  0  0  0  0  0
   41.1330   27.9730   42.0410 H   0  0  0  0  0  0  0  0  0  0  0  0
   40.2580   25.5290   41.4890 S   0  0  0  0  0  0  0  0  0  0  0  0
   38.4460   25.3800   42.0510 C   0  0  0  0  0  0  0  0  0  0  0  0
   37.8400   24.4800   41.9430 H   0  0  0  0  0  0  0  0  0  0  0  0
   38.2450   26.4170   42.4790 N   0  0  0  0  0  0  0  0  0  0  0  0
   38.1080   32.5890   39.9430 C   0  0  0  0  0  0  0  0  0  0  0  0
   37.3020   33.5550   39.8770 O   0  0  0  0  0  0  0  0  0  0  0  0
   40.2590   33.6680   39.4980 C   0  0  0  0  0  0  0  0  0  0  0  0
   39.2840   32.7170   39.1540 C   0  0  0  0  0  0  0  0  0  0  0  0
   39.5850   31.9700   38.0300 C   0  0  0  0  0  0  0  0  0  0  0  0
   40.7020   32.1250   37.3230 N   0  0  0  0  0  0  0  0  0  0  0  0
   41.6150   33.0660   37.7040 C   0  0  0  0  0  0  0  0  0  0  0  0
   41.3850   33.8210   38.7810 N   0  0  0  0  0  0  0  0  0  0  0  0
   40.1170   34.3100   40.3710 H   0  0  0  0  0  0  0  0  0  0  0  0
   42.5270   33.2010   37.1370 H   0  0  0  0  0  0  0  0  0  0  0  0
   38.6400   30.9820   37.6140 C   0  0  0  0  0  0  0  0  0  0  0  0
   37.4310   30.9850   37.0000 C   0  0  0  0  0  0  0  0  0  0  0  0
   36.7550   29.8970   36.7260 C   0  0  0  0  0  0  0  0  0  0  0  0
   37.3390   28.7490   37.0950 C   0  0  0  0  0  0  0  0  0  0  0  0
   38.9120   29.2350   37.8630 S   0  0  0  0  0  0  0  0  0  0  0  0
   37.0790   32.0100   36.7560 H   0  0  0  0  0  0  0  0  0  0  0  0
   35.7900   29.8450   36.2380 H   0  0  0  0  0  0  0  0  0  0  0  0
   36.9420   27.6520   36.9630 H   0  0  0  0  0  0  0  0  0  0  0  0
  1  2  2  0  0  0  0
  2  7  1  0  0  0  0
  2  3  1  0  0  0  0
  3 10  1  0  0  0  0
  4  6  1  0  0  0  0
  4  3  1  0  0  0  0
  5  1  1  0  0  0  0
  5  4  2  0  0  0  0
  6  8  1  0  0  0  0
  9  6  1  0  0  0  0
 10 11  1  0  0  0  0
 10 12  1  0  0  0  0
 13 10  1  0  0  0  0
 14 13  2  0  0  0  0
 15 14  1  0  0  0  0
 16 14  1  0  0  0  0
 16 17  1  0  0  0  0
 17 19  2  0  0  0  0
 18 17  1  0  0  0  0
 19 13  1  0  0  0  0
 20  1  1  0  0  0  0
 21 20  2  0  0  0  0
 22 28  1  0  0  0  0
 23 22  1  0  0  0  0
 23 20  1  0  0  0  0
 24 23  2  0  0  0  0
 25 26  2  0  0  0  0
 25 24  1  0  0  0  0
 26 27  1  0  0  0  0
 27 22  2  0  0  0  0
 29 26  1  0  0  0  0
 30 34  1  0  0  0  0
 30 24  1  0  0  0  0
 31 30  2  0  0  0  0
 32 31  1  0  0  0  0
 32 33  2  0  0  0  0
 33 34  1  0  0  0  0
 35 31  1  0  0  0  0
 36 32  1  0  0  0  0
 37 33  1  0  0  0  0
M  END
>  <minimizedAffinity>
-5.35189056

$$$$

 OpenBabel03252503203D

 37 40  0  0  0  0  0  0  0  0999 V2000
   38.3100   31.5600   40.0690 C   0  0  0  0  0  0  0  0  0  0  0  0
   39.2210   32.4810   40.5120 C   0  0  0  0  0  0  0  0  0  0  0  0
   39.9200   32.8620   39.4140 N   0  0  0  0  0  0  0  0  0  0  0  0
   39.4500   32.1970   38.3550 C   0  0  0  0  0  0  0  0  0  0  0  0
   38.4590   31.3950   38.7570 N   0  0  0  0  0  0  0  0  0  0  0  0
   39.8510   32.2490   36.9910 N   0  0  0  0  0  0  0  0  0  0  0  0
   39.3560   32.8290   41.5090 H   0  0  0  0  0  0  0  0  0  0  0  0
   40.6040   31.5480   36.7400 H   0  0  0  0  0  0  0  0  0  0  0  0
   39.4310   32.9290   36.3040 H   0  0  0  0  0  0  0  0  0  0  0  0
   41.0010   33.8170   39.3300 C   0  0  0  0  0  0  0  0  0  0  0  0
   41.3670   33.8710   38.2630 H   0  0  0  0  0  0  0  0  0  0  0  0
   40.6080   34.8330   39.5310 H   0  0  0  0  0  0  0  0  0  0  0  0
   42.1600   33.4590   40.2070 C   0  0  0  0  0  0  0  0  0  0  0  0
   42.9690   32.2970   39.9480 C   0  0  0  0  0  0  0  0  0  0  0  0
   42.8120   31.6280   39.1480 H   0  0  0  0  0  0  0  0  0  0  0  0
   44.1730   32.3880   41.2970 S   0  0  0  0  0  0  0  0  0  0  0  0
   43.3920   33.9780   41.9920 C   0  0  0  0  0  0  0  0  0  0  0  0
   43.7540   34.5060   42.8750 H   0  0  0  0  0  0  0  0  0  0  0  0
   42.5340   34.1590   41.2640 N   0  0  0  0  0  0  0  0  0  0  0  0
   37.2860   30.8240   40.8890 C   0  0  0  0  0  0  0  0  0  0  0  0
   36.1270   31.2450   41.1410 O   0  0  0  0  0  0  0  0  0  0  0  0
   38.3070   29.4760   42.6580 C   0  0  0  0  0  0  0  0  0  0  0  0
   37.6110   29.5540   41.4400 C   0  0  0  0  0  0  0  0  0  0  0  0
   37.3010   28.3290   40.8790 C   0  0  0  0  0  0  0  0  0  0  0  0
   37.6270   27.1640   41.4340 N   0  0  0  0  0  0  0  0  0  0  0  0
   38.3030   27.1480   42.6200 C   0  0  0  0  0  0  0  0  0  0  0  0
   38.6330   28.2970   43.2150 N   0  0  0  0  0  0  0  0  0  0  0  0
   38.5990   30.3890   43.1840 H   0  0  0  0  0  0  0  0  0  0  0  0
   38.5730   26.2070   43.0800 H   0  0  0  0  0  0  0  0  0  0  0  0
   36.5950   28.3250   39.6360 C   0  0  0  0  0  0  0  0  0  0  0  0
   35.3220   28.5580   39.2360 C   0  0  0  0  0  0  0  0  0  0  0  0
   34.9280   28.4840   37.9880 C   0  0  0  0  0  0  0  0  0  0  0  0
   35.8800   28.1560   37.1040 C   0  0  0  0  0  0  0  0  0  0  0  0
   37.3950   27.9440   38.0850 S   0  0  0  0  0  0  0  0  0  0  0  0
   34.6500   28.8190   40.0810 H   0  0  0  0  0  0  0  0  0  0  0  0
   33.9260   28.6610   37.6180 H   0  0  0  0  0  0  0  0  0  0  0  0
   35.7830   28.0260   35.9420 H   0  0  0  0  0  0  0  0  0  0  0  0
  1  2  2  0  0  0  0
  1 20  1  0  0  0  0
  2  7  1  0  0  0  0
  3  2  1  0  0  0  0
  4  5  2  0  0  0  0
  4  3  1  0  0  0  0
  5  1  1  0  0  0  0
  6  4  1  0  0  0  0
  8  6  1  0  0  0  0
  9  6  1  0  0  0  0
 10  3  1  0  0  0  0
 10 12  1  0  0  0  0
 10 13  1  0  0  0  0
 11 10  1  0  0  0  0
 13 19  1  0  0  0  0
 14 13  2  0  0  0  0
 14 16  1  0  0  0  0
 15 14  1  0  0  0  0
 16 17  1  0  0  0  0
 17 18  1  0  0  0  0
 19 17  2  0  0  0  0
 20 21  2  0  0  0  0
 20 23  1  0  0  0  0
 22 28  1  0  0  0  0
 22 27  1  0  0  0  0
 23 22  2  0  0  0  0
 24 25  2  0  0  0  0
 24 23  1  0  0  0  0
 25 26  1  0  0  0  0
 26 29  1  0  0  0  0
 26 27  2  0  0  0  0
 30 24  1  0  0  0  0
 31 30  2  0  0  0  0
 31 35  1  0  0  0  0
 32 31  1  0  0  0  0
 33 32  2  0  0  0  0
 33 34  1  0  0  0  0
 34 30  1  0  0  0  0
 36 32  1  0  0  0  0
 37 33  1  0  0  0  0
M  END
>  <minimizedAffinity>
-5.29794836

$$$$

 OpenBabel03252503203D

 37 40  0  0  0  0  0  0  0  0999 V2000
   36.3850   30.4780   39.8250 C   0  0  0  0  0  0  0  0  0  0  0  0
   36.8950   31.4840   40.6000 C   0  0  0  0  0  0  0  0  0  0  0  0
   37.5320   32.3200   39.7420 N   0  0  0  0  0  0  0  0  0  0  0  0
   37.4110   31.8360   38.5030 C   0  0  0  0  0  0  0  0  0  0  0  0
   36.7040   30.7020   38.5530 N   0  0  0  0  0  0  0  0  0  0  0  0
   37.9010   32.3480   37.2700 N   0  0  0  0  0  0  0  0  0  0  0  0
   36.8120   31.5920   41.6560 H   0  0  0  0  0  0  0  0  0  0  0  0
   38.8630   31.9890   37.0100 H   0  0  0  0  0  0  0  0  0  0  0  0
   37.3490   33.0230   36.6790 H   0  0  0  0  0  0  0  0  0  0  0  0
   38.2420   33.5410   40.0460 C   0  0  0  0  0  0  0  0  0  0  0  0
   38.0800   34.2830   39.2110 H   0  0  0  0  0  0  0  0  0  0  0  0
   37.7780   34.0240   40.9290 H   0  0  0  0  0  0  0  0  0  0  0  0
   39.7150   33.3300   40.2080 C   0  0  0  0  0  0  0  0  0  0  0  0
   40.6730   34.1560   39.5200 C   0  0  0  0  0  0  0  0  0  0  0  0
   40.4210   34.9450   38.8690 H   0  0  0  0  0  0  0  0  0  0  0  0
   42.2380   33.4470   40.0940 S   0  0  0  0  0  0  0  0  0  0  0  0
   41.3480   32.1540   41.1690 C   0  0  0  0  0  0  0  0  0  0  0  0
   41.8570   31.4070   41.7810 H   0  0  0  0  0  0  0  0  0  0  0  0
   40.2520   32.3970   40.9760 N   0  0  0  0  0  0  0  0  0  0  0  0
   35.5860   29.2890   40.2840 C   0  0  0  0  0  0  0  0  0  0  0  0
   34.3310   29.2050   40.2440 O   0  0  0  0  0  0  0  0  0  0  0  0
   36.5130   28.0650   42.1910 C   0  0  0  0  0  0  0  0  0  0  0  0
   36.2600   28.1530   40.8110 C   0  0  0  0  0  0  0  0  0  0  0  0
   36.7160   27.0750   40.0760 C   0  0  0  0  0  0  0  0  0  0  0  0
   37.3430   26.0310   40.6150 N   0  0  0  0  0  0  0  0  0  0  0  0
   37.5610   25.9990   41.9630 C   0  0  0  0  0  0  0  0  0  0  0  0
   37.1460   27.0100   42.7300 N   0  0  0  0  0  0  0  0  0  0  0  0
   36.1920   28.8670   42.8600 H   0  0  0  0  0  0  0  0  0  0  0  0
   38.0700   25.1560   42.4120 H   0  0  0  0  0  0  0  0  0  0  0  0
   36.5000   27.0920   38.6640 C   0  0  0  0  0  0  0  0  0  0  0  0
   35.4390   26.9310   37.8360 C   0  0  0  0  0  0  0  0  0  0  0  0
   35.5200   26.9990   36.5310 C   0  0  0  0  0  0  0  0  0  0  0  0
   36.7430   27.2420   36.0430 C   0  0  0  0  0  0  0  0  0  0  0  0
   37.8230   27.3810   37.4990 S   0  0  0  0  0  0  0  0  0  0  0  0
   34.4940   26.7370   38.3880 H   0  0  0  0  0  0  0  0  0  0  0  0
   34.7040   26.8790   35.8280 H   0  0  0  0  0  0  0  0  0  0  0  0
   37.0750   27.3480   34.9220 H   0  0  0  0  0  0  0  0  0  0  0  0
  1 20  1  0  0  0  0
  1  2  2  0  0  0  0
  2  7  1  0  0  0  0
  3 10  1  0  0  0  0
  3  2  1  0  0  0  0
  4  5  2  0  0  0  0
  4  3  1  0  0  0  0
  5  1  1  0  0  0  0
  6  4  1  0  0  0  0
  8  6  1  0  0  0  0
  9  6  1  0  0  0  0
 10 13  1  0  0  0  0
 10 12  1  0  0  0  0
 11 10  1  0  0  0  0
 13 19  1  0  0  0  0
 14 16  1  0  0  0  0
 14 13  2  0  0  0  0
 15 14  1  0  0  0  0
 16 17  1  0  0  0  0
 17 18  1  0  0  0  0
 19 17  2  0  0  0  0
 20 23  1  0  0  0  0
 21 20  2  0  0  0  0
 22 27  1  0  0  0  0
 22 28  1  0  0  0  0
 23 22  2  0  0  0  0
 24 25  2  0  0  0  0
 24 23  1  0  0  0  0
 25 26  1  0  0  0  0
 26 29  1  0  0  0  0
 26 27  2  0  0  0  0
 30 24  1  0  0  0  0
 31 35  1  0  0  0  0
 31 30  2  0  0  0  0
 32 31  1  0  0  0  0
 33 32  2  0  0  0  0
 33 34  1  0  0  0  0
 34 30  1  0  0  0  0
 36 32  1  0  0  0  0
 37 33  1  0  0  0  0
M  END
>  <minimizedAffinity>
-5.28917074

$$$$
