
 OpenBabel03252501203D

 24 25  0  0  0  0  0  0  0  0999 V2000
   45.0470   34.7770   45.1080 C   0  0  0  0  0  0  0  0  0  0  0  0
   46.1050   34.1680   44.4200 C   0  0  0  0  0  0  0  0  0  0  0  0
   46.4550   34.7320   43.2030 C   0  0  0  0  0  0  0  0  0  0  0  0
   45.7850   35.8190   42.7340 N   0  0  0  0  0  0  0  0  0  0  0  0
   44.7750   36.3720   43.4280 C   0  0  0  0  0  0  0  0  0  0  0  0
   44.4050   35.8500   44.6180 N   0  0  0  0  0  0  0  0  0  0  0  0
   44.7080   34.4140   46.0700 H   0  0  0  0  0  0  0  0  0  0  0  0
   44.2950   37.2370   42.9730 H   0  0  0  0  0  0  0  0  0  0  0  0
   47.5790   34.0690   42.5000 C   0  0  0  0  0  0  0  0  0  0  0  0
   47.8900   34.8010   41.3660 F   0  0  0  0  0  0  0  0  0  0  0  0
   47.1110   32.8580   42.0800 F   0  0  0  0  0  0  0  0  0  0  0  0
   48.7100   34.0330   43.2410 F   0  0  0  0  0  0  0  0  0  0  0  0
   46.7870   32.9960   44.9710 C   0  0  0  0  0  0  0  0  0  0  0  0
   46.1780   32.0880   45.0560 H   0  0  0  0  0  0  0  0  0  0  0  0
   47.7650   32.8780   44.5090 H   0  0  0  0  0  0  0  0  0  0  0  0
   47.0080   33.1960   46.4080 N   0  0  0  0  0  0  0  0  0  0  0  0
   47.3930   34.1180   46.7660 H   0  0  0  0  0  0  0  0  0  0  0  0
   46.8120   32.3650   47.5420 C   0  0  0  0  0  0  0  0  0  0  0  0
   45.4890   32.3070   47.8970 C   0  0  0  0  0  0  0  0  0  0  0  0
   44.5030   32.7140   47.5630 H   0  0  0  0  0  0  0  0  0  0  0  0
   45.4770   31.2180   49.3320 S   0  0  0  0  0  0  0  0  0  0  0  0
   47.3750   31.0060   49.2070 C   0  0  0  0  0  0  0  0  0  0  0  0
   47.9460   30.3250   49.9740 H   0  0  0  0  0  0  0  0  0  0  0  0
   47.5790   31.6490   48.3200 N   0  0  0  0  0  0  0  0  0  0  0  0
  1  7  1  0  0  0  0
  2 13  1  0  0  0  0
  2  1  2  0  0  0  0
  3  2  1  0  0  0  0
  4  3  2  0  0  0  0
  4  5  1  0  0  0  0
  5  6  2  0  0  0  0
  6  1  1  0  0  0  0
  8  5  1  0  0  0  0
  9  3  1  0  0  0  0
  9 12  1  0  0  0  0
 10  9  1  0  0  0  0
 11  9  1  0  0  0  0
 13 14  1  0  0  0  0
 13 16  1  0  0  0  0
 15 13  1  0  0  0  0
 16 17  1  0  0  0  0
 16 18  1  0  0  0  0
 18 19  2  0  0  0  0
 18 24  1  0  0  0  0
 19 21  1  0  0  0  0
 20 19  1  0  0  0  0
 22 21  1  0  0  0  0
 22 23  1  0  0  0  0
 24 22  2  0  0  0  0
M  END
>  <minimizedAffinity>
-5.04994869

>  <minimizedRMSD>
5.18043184

$$$$
