
 OpenBabel03252505513D

 23 24  0  0  0  0  0  0  0  0999 V2000
   44.7200   35.3900   45.0330 C   0  0  0  0  0  0  0  0  0  0  0  0
   45.6000   34.9330   44.0550 C   0  0  0  0  0  0  0  0  0  0  0  0
   46.3440   33.7910   44.3330 C   0  0  0  0  0  0  0  0  0  0  0  0
   46.1860   33.1830   45.5220 N   0  0  0  0  0  0  0  0  0  0  0  0
   45.3360   33.6410   46.4460 C   0  0  0  0  0  0  0  0  0  0  0  0
   44.5890   34.7450   46.2270 N   0  0  0  0  0  0  0  0  0  0  0  0
   44.1080   36.2710   44.8900 H   0  0  0  0  0  0  0  0  0  0  0  0
   47.0160   33.4650   43.5490 H   0  0  0  0  0  0  0  0  0  0  0  0
   45.6620   35.7220   42.7740 C   0  0  0  0  0  0  0  0  0  0  0  0
   45.2370   36.9810   43.0830 F   0  0  0  0  0  0  0  0  0  0  0  0
   44.7590   35.1120   41.9060 F   0  0  0  0  0  0  0  0  0  0  0  0
   46.9450   35.6590   42.3020 F   0  0  0  0  0  0  0  0  0  0  0  0
   45.1530   33.0380   47.6730 O   0  0  0  0  0  0  0  0  0  0  0  0
   46.1710   32.3410   48.3440 C   0  0  0  0  0  0  0  0  0  0  0  0
   47.1660   32.8090   48.1980 H   0  0  0  0  0  0  0  0  0  0  0  0
   45.9870   32.3980   49.4350 H   0  0  0  0  0  0  0  0  0  0  0  0
   46.1880   30.8730   47.9980 C   0  0  0  0  0  0  0  0  0  0  0  0
   45.0080   30.1000   47.8820 C   0  0  0  0  0  0  0  0  0  0  0  0
   43.9870   30.3770   48.0020 H   0  0  0  0  0  0  0  0  0  0  0  0
   45.6350   28.4510   47.4600 S   0  0  0  0  0  0  0  0  0  0  0  0
   47.4270   29.0810   47.5100 C   0  0  0  0  0  0  0  0  0  0  0  0
   48.5320   28.6200   47.3410 H   0  0  0  0  0  0  0  0  0  0  0  0
   47.2810   30.1640   47.7720 N   0  0  0  0  0  0  0  0  0  0  0  0
  1  6  1  0  0  0  0
  2  3  1  0  0  0  0
  2  1  2  0  0  0  0
  3  4  2  0  0  0  0
  4  5  1  0  0  0  0
  5 13  1  0  0  0  0
  6  5  2  0  0  0  0
  7  1  1  0  0  0  0
  8  3  1  0  0  0  0
  9 10  1  0  0  0  0
  9  2  1  0  0  0  0
 11  9  1  0  0  0  0
 12  9  1  0  0  0  0
 13 14  1  0  0  0  0
 14 16  1  0  0  0  0
 15 14  1  0  0  0  0
 17 14  1  0  0  0  0
 18 17  2  0  0  0  0
 18 19  1  0  0  0  0
 20 21  1  0  0  0  0
 20 18  1  0  0  0  0
 21 23  2  0  0  0  0
 22 21  1  0  0  0  0
 23 17  1  0  0  0  0
M  END
>  <minimizedAffinity>
-4.62982798

>  <minimizedRMSD>
0.679749906

$$$$
