
 OpenBabel03252506053D

 41 45  0  0  0  0  0  0  0  0999 V2000
   44.7970   35.9780   43.3280 Cl  0  0  0  0  0  0  0  0  0  0  0  0
   45.5390   34.7340   44.2640 C   0  0  0  0  0  0  0  0  0  0  0  0
   46.6390   34.0460   43.7710 C   0  0  0  0  0  0  0  0  0  0  0  0
   47.1600   33.0720   44.6010 C   0  0  0  0  0  0  0  0  0  0  0  0
   46.6610   32.7540   45.8550 C   0  0  0  0  0  0  0  0  0  0  0  0
   45.5710   33.4530   46.3110 C   0  0  0  0  0  0  0  0  0  0  0  0
   44.9760   33.0170   47.8990 Cl  0  0  0  0  0  0  0  0  0  0  0  0
   45.0180   34.4350   45.5180 C   0  0  0  0  0  0  0  0  0  0  0  0
   48.0210   32.5520   44.1880 H   0  0  0  0  0  0  0  0  0  0  0  0
   44.1610   34.9750   45.8940 H   0  0  0  0  0  0  0  0  0  0  0  0
   47.3540   31.6890   46.5810 C   0  0  0  0  0  0  0  0  0  0  0  0
   47.4620   30.4080   46.1100 C   0  0  0  0  0  0  0  0  0  0  0  0
   48.1140   29.3820   46.7740 C   0  0  0  0  0  0  0  0  0  0  0  0
   48.7020   29.6590   48.0010 C   0  0  0  0  0  0  0  0  0  0  0  0
   49.3230   28.6520   48.6190 N   0  0  0  0  0  0  0  0  0  0  0  0
   49.9300   28.8180   49.8270 C   0  0  0  0  0  0  0  0  0  0  0  0
   49.8660   30.1000   50.3800 C   0  0  0  0  0  0  0  0  0  0  0  0
   49.2220   31.1230   49.7260 C   0  0  0  0  0  0  0  0  0  0  0  0
   48.6180   30.9170   48.5060 C   0  0  0  0  0  0  0  0  0  0  0  0
   47.9580   31.9330   47.8200 C   0  0  0  0  0  0  0  0  0  0  0  0
   46.9850   30.2320   45.1380 H   0  0  0  0  0  0  0  0  0  0  0  0
   48.1460   28.3990   46.3190 H   0  0  0  0  0  0  0  0  0  0  0  0
   50.4430   28.0300   50.3610 H   0  0  0  0  0  0  0  0  0  0  0  0
   50.3280   30.3120   51.3430 H   0  0  0  0  0  0  0  0  0  0  0  0
   49.1750   32.1170   50.1640 H   0  0  0  0  0  0  0  0  0  0  0  0
   47.9250   32.9250   48.2790 H   0  0  0  0  0  0  0  0  0  0  0  0
   48.7940   35.4590   41.2090 C   0  0  0  0  0  0  0  0  0  0  0  0
   48.2990   34.8980   40.0200 C   0  0  0  0  0  0  0  0  0  0  0  0
   47.2090   34.0220   40.1110 C   0  0  0  0  0  0  0  0  0  0  0  0
   46.7260   33.7940   41.3410 N   0  0  0  0  0  0  0  0  0  0  0  0
   47.2020   34.3320   42.4690 C   0  0  0  0  0  0  0  0  0  0  0  0
   48.2570   35.1810   42.4120 N   0  0  0  0  0  0  0  0  0  0  0  0
   49.6200   36.1040   41.0120 H   0  0  0  0  0  0  0  0  0  0  0  0
   48.7090   35.0990   39.0390 H   0  0  0  0  0  0  0  0  0  0  0  0
   46.6320   33.3940   38.9490 C   0  0  0  0  0  0  0  0  0  0  0  0
   45.3710   32.6900   39.0240 C   0  0  0  0  0  0  0  0  0  0  0  0
   44.6840   32.5230   39.8620 H   0  0  0  0  0  0  0  0  0  0  0  0
   45.1550   32.0880   37.2400 S   0  0  0  0  0  0  0  0  0  0  0  0
   46.7930   32.8830   36.7060 C   0  0  0  0  0  0  0  0  0  0  0  0
   47.2330   32.8730   35.7330 H   0  0  0  0  0  0  0  0  0  0  0  0
   46.8620   33.2010   37.7420 N   0  0  0  0  0  0  0  0  0  0  0  0
  1  2  1  0  0  0  0
  2  8  1  0  0  0  0
  3  2  2  0  0  0  0
  3  4  1  0  0  0  0
  4  5  2  0  0  0  0
  5  6  1  0  0  0  0
  5 11  1  0  0  0  0
  6  7  1  0  0  0  0
  8 10  1  0  0  0  0
  8  6  2  0  0  0  0
  9  4  1  0  0  0  0
 11 20  1  0  0  0  0
 12 11  2  0  0  0  0
 12 13  1  0  0  0  0
 13 14  2  0  0  0  0
 14 19  1  0  0  0  0
 14 15  1  0  0  0  0
 15 16  2  0  0  0  0
 16 23  1  0  0  0  0
 16 17  1  0  0  0  0
 17 24  1  0  0  0  0
 18 25  1  0  0  0  0
 18 17  2  0  0  0  0
 19 18  1  0  0  0  0
 20 26  1  0  0  0  0
 20 19  2  0  0  0  0
 21 12  1  0  0  0  0
 22 13  1  0  0  0  0
 27 32  1  0  0  0  0
 28 29  1  0  0  0  0
 28 27  2  0  0  0  0
 29 30  2  0  0  0  0
 30 31  1  0  0  0  0
 31  3  1  0  0  0  0
 32 31  2  0  0  0  0
 33 27  1  0  0  0  0
 34 28  1  0  0  0  0
 35 36  2  0  0  0  0
 35 29  1  0  0  0  0
 36 37  1  0  0  0  0
 38 36  1  0  0  0  0
 39 38  1  0  0  0  0
 39 41  2  0  0  0  0
 40 39  1  0  0  0  0
 41 35  1  0  0  0  0
M  END
>  <minimizedAffinity>
-7.02684212

>  <minimizedRMSD>
0.122283816

$$$$
