
     RDKit          3D

 22 23  0  0  0  0  0  0  0  0999 V2000
   45.1692   35.2327   44.0520 C   0  0  0  0  0  0  0  0  0  0  0  0
   46.2075   34.5859   43.3846 C   0  0  0  0  0  0  0  0  0  0  0  0
   46.9130   33.5524   44.0593 C   0  0  0  0  0  0  0  0  0  0  0  0
   46.5209   33.2601   45.3318 N   0  0  0  0  0  0  0  0  0  0  0  0
   45.5189   33.9087   45.9308 C   0  0  0  0  0  0  0  0  0  0  0  0
   44.8572   34.8803   45.2925 N   0  0  0  0  0  0  0  0  0  0  0  0
   46.5564   34.9780   42.0115 C   0  0  1  0  0  0  0  0  0  0  0  0
   48.0529   35.1879   41.9435 C   0  0  0  0  0  0  0  0  0  0  0  0
   44.5846   36.0266   43.6101 H   0  0  0  0  0  0  0  0  0  0  0  0
   47.7213   33.0280   43.5733 H   0  0  0  0  0  0  0  0  0  0  0  0
   45.2255   33.6556   46.9489 H   0  0  0  0  0  0  0  0  0  0  0  0
   46.1145   35.9892   41.8405 H   0  0  0  0  0  0  0  0  0  0  0  0
   48.3368   36.2620   41.8119 H   0  0  0  0  0  0  0  0  0  0  0  0
   48.3962   34.6943   40.9875 H   0  0  0  0  0  0  0  0  0  0  0  0
   48.5176   34.7334   42.8217 H   0  0  0  0  0  0  0  0  0  0  0  0
   46.0903   34.0205   40.9734 C   0  0  0  0  0  0  0  0  0  0  0  0
   46.5532   32.6289   41.0047 C   0  0  0  0  0  0  0  0  0  0  0  0
   47.2037   32.2289   41.7128 H   0  0  0  0  0  0  0  0  0  0  0  0
   45.7204   31.9188   39.5774 S   0  0  0  0  0  0  0  0  0  0  0  0
   44.8777   33.5852   39.1504 C   0  0  0  0  0  0  0  0  0  0  0  0
   44.2105   33.7081   38.3019 H   0  0  0  0  0  0  0  0  0  0  0  0
   45.2656   34.3219   39.9883 N   0  0  0  0  0  0  0  0  0  0  0  0
  1  6  2  0
  2  1  1  0
  2  3  2  0
  3  4  1  0
  4  5  2  0
  6  5  1  0
  7  2  1  0
  8  7  1  0
  1  9  1  0
  3 10  1  0
  5 11  1  0
  7 12  1  6
  8 13  1  0
  8 14  1  0
  8 15  1  0
 16 17  2  0
 17 18  1  0
 17 19  1  0
 19 20  1  0
 20 21  1  0
 20 22  2  0
 22 16  1  0
  7 16  1  0
M  ISO  8   9  14  10  14  11  14  12   8  13   8  14   8  15   8  18  15
M  ISO  1  21  16
M  END
>  <DihAtoms>  (1) 
1,6,15,16

>  <DihDeg>  (1) 
-89.72452853188814

$$$$
