
 OpenBabel03252509263D

 28 30  0  0  1  0  0  0  0  0999 V2000
   46.7950   35.1880   42.0040 C   0  0  1  0  0  0  0  0  0  0  0  0
   48.3500   35.2170   42.0730 C   0  0  0  0  0  0  0  0  0  0  0  0
   47.4690   34.1800   41.2990 C   0  0  2  0  0  0  0  0  0  0  0  0
   46.3650   36.0850   41.5130 H   0  0  0  0  0  0  0  0  0  0  0  0
   48.8440   34.8790   42.9830 H   0  0  0  0  0  0  0  0  0  0  0  0
   48.8160   35.9430   41.3980 H   0  0  0  0  0  0  0  0  0  0  0  0
   47.6070   33.1370   41.7200 H   0  0  0  0  0  0  0  0  0  0  0  0
   44.6650   35.2830   45.0960 C   0  0  0  0  0  0  0  0  0  0  0  0
   45.1940   35.6730   43.8230 C   0  0  0  0  0  0  0  0  0  0  0  0
   46.2140   34.9050   43.3680 C   0  0  0  0  0  0  0  0  0  0  0  0
   46.7000   33.8320   44.0820 N   0  0  0  0  0  0  0  0  0  0  0  0
   46.1770   33.4980   45.2750 C   0  0  0  0  0  0  0  0  0  0  0  0
   45.1560   34.2260   45.7810 N   0  0  0  0  0  0  0  0  0  0  0  0
   43.8420   35.9150   45.4460 H   0  0  0  0  0  0  0  0  0  0  0  0
   46.5780   32.6540   45.8110 H   0  0  0  0  0  0  0  0  0  0  0  0
   44.7120   36.7880   43.1160 N   0  0  0  0  0  0  0  0  0  0  0  0
   45.4040   37.5060   43.4710 H   0  0  0  0  0  0  0  0  0  0  0  0
   43.9240   36.9140   42.4410 H   0  0  0  0  0  0  0  0  0  0  0  0
   47.5710   34.1770   39.7950 C   0  0  0  0  0  0  0  0  0  0  0  0
   48.6120   33.9570   39.4830 H   0  0  0  0  0  0  0  0  0  0  0  0
   47.3870   35.2200   39.4680 H   0  0  0  0  0  0  0  0  0  0  0  0
   46.6230   33.1940   39.1780 C   0  0  0  0  0  0  0  0  0  0  0  0
   45.2700   33.1650   39.5060 C   0  0  0  0  0  0  0  0  0  0  0  0
   44.7890   33.8590   40.2420 H   0  0  0  0  0  0  0  0  0  0  0  0
   44.6330   31.7780   38.4540 S   0  0  0  0  0  0  0  0  0  0  0  0
   46.3590   31.4920   37.7510 C   0  0  0  0  0  0  0  0  0  0  0  0
   46.6180   30.7240   37.0090 H   0  0  0  0  0  0  0  0  0  0  0  0
   46.9980   32.2880   38.2840 N   0  0  0  0  0  0  0  0  0  0  0  0
  1  4  1  6  0  0  0
  1  2  1  0  0  0  0
  1 10  1  0  0  0  0
  2  5  1  0  0  0  0
  3  7  1  1  0  0  0
  3  1  1  0  0  0  0
  3  2  1  0  0  0  0
  6  2  1  0  0  0  0
  8 14  1  0  0  0  0
  8 13  1  0  0  0  0
  9  8  2  0  0  0  0
 10  9  1  0  0  0  0
 10 11  2  0  0  0  0
 11 12  1  0  0  0  0
 12 13  2  0  0  0  0
 12 15  1  0  0  0  0
 16 17  1  0  0  0  0
 16  9  1  0  0  0  0
 18 16  1  0  0  0  0
 19  3  1  0  0  0  0
 20 19  1  0  0  0  0
 21 19  1  0  0  0  0
 22 23  2  0  0  0  0
 22 19  1  0  0  0  0
 23 24  1  0  0  0  0
 25 23  1  0  0  0  0
 26 28  2  0  0  0  0
 26 25  1  0  0  0  0
 27 26  1  0  0  0  0
 28 22  1  0  0  0  0
M  END
>  <minimizedAffinity>
-4.44279718

>  <minimizedRMSD>
0.824872434

$$$$
