
 OpenBabel03252503533D

 34 36  0  0  1  0  0  0  0  0999 V2000
   46.7540   32.8180   45.1190 N   0  0  0  0  0  0  0  0  0  0  0  0
   46.4330   33.1910   46.5000 C   0  0  0  0  0  0  0  0  0  0  0  0
   47.2300   32.2500   47.3890 C   0  0  0  0  0  0  0  0  0  0  0  0
   46.6120   30.8790   47.2780 C   0  0  0  0  0  0  0  0  0  0  0  0
   46.5250   30.5110   45.8320 C   0  0  0  0  0  0  0  0  0  0  0  0
   47.1600   31.4790   44.9000 C   0  0  1  0  0  0  0  0  0  0  0  0
   45.3620   32.9500   46.6380 H   0  0  0  0  0  0  0  0  0  0  0  0
   46.6590   34.2470   46.7000 H   0  0  0  0  0  0  0  0  0  0  0  0
   48.2700   32.2620   47.0000 H   0  0  0  0  0  0  0  0  0  0  0  0
   47.1590   32.6450   48.4170 H   0  0  0  0  0  0  0  0  0  0  0  0
   45.6100   30.9030   47.7290 H   0  0  0  0  0  0  0  0  0  0  0  0
   47.2480   30.1730   47.8600 H   0  0  0  0  0  0  0  0  0  0  0  0
   45.4620   30.3460   45.5040 H   0  0  0  0  0  0  0  0  0  0  0  0
   47.0630   29.5250   45.7090 H   0  0  0  0  0  0  0  0  0  0  0  0
   48.2600   31.4420   44.9290 H   0  0  0  0  0  0  0  0  0  0  0  0
   47.5610   35.0080   42.2580 C   0  0  0  0  0  0  0  0  0  0  0  0
   47.7310   34.1120   43.3160 C   0  0  0  0  0  0  0  0  0  0  0  0
   46.6410   33.7400   44.0780 C   0  0  0  0  0  0  0  0  0  0  0  0
   45.4370   34.2730   43.7610 N   0  0  0  0  0  0  0  0  0  0  0  0
   45.2730   35.1460   42.7330 C   0  0  0  0  0  0  0  0  0  0  0  0
   46.3450   35.5100   41.9820 N   0  0  0  0  0  0  0  0  0  0  0  0
   48.7360   33.7910   43.4890 H   0  0  0  0  0  0  0  0  0  0  0  0
   44.2750   35.5280   42.5460 H   0  0  0  0  0  0  0  0  0  0  0  0
   48.7720   35.3490   41.4390 C   0  0  0  0  0  0  0  0  0  0  0  0
   48.4960   35.3140   40.0770 F   0  0  0  0  0  0  0  0  0  0  0  0
   49.1900   36.6040   41.8340 F   0  0  0  0  0  0  0  0  0  0  0  0
   49.7910   34.4510   41.7230 F   0  0  0  0  0  0  0  0  0  0  0  0
   46.6810   30.9630   43.5420 C   0  0  0  0  0  0  0  0  0  0  0  0
   45.2270   30.7160   43.2730 C   0  0  0  0  0  0  0  0  0  0  0  0
   44.5380   30.8920   44.0130 H   0  0  0  0  0  0  0  0  0  0  0  0
   45.2740   30.1510   41.5880 S   0  0  0  0  0  0  0  0  0  0  0  0
   47.1650   30.3140   41.4680 C   0  0  0  0  0  0  0  0  0  0  0  0
   48.1450   30.1580   40.6990 H   0  0  0  0  0  0  0  0  0  0  0  0
   47.5550   30.7340   42.5860 N   0  0  0  0  0  0  0  0  0  0  0  0
  1  2  1  0  0  0  0
  2  7  1  0  0  0  0
  2  8  1  0  0  0  0
  2  3  1  0  0  0  0
  3 10  1  0  0  0  0
  4  3  1  0  0  0  0
  4 11  1  0  0  0  0
  4 12  1  0  0  0  0
  5  4  1  0  0  0  0
  6 15  1  1  0  0  0
  6  1  1  0  0  0  0
  6  5  1  0  0  0  0
  9  3  1  0  0  0  0
 13  5  1  0  0  0  0
 14  5  1  0  0  0  0
 16 17  1  0  0  0  0
 17 22  1  0  0  0  0
 17 18  2  0  0  0  0
 18  1  1  0  0  0  0
 19 18  1  0  0  0  0
 20 19  2  0  0  0  0
 21 16  2  0  0  0  0
 21 20  1  0  0  0  0
 23 20  1  0  0  0  0
 24 27  1  0  0  0  0
 24 26  1  0  0  0  0
 24 16  1  0  0  0  0
 25 24  1  0  0  0  0
 28  6  1  0  0  0  0
 29 28  2  0  0  0  0
 29 30  1  0  0  0  0
 31 29  1  0  0  0  0
 32 31  1  0  0  0  0
 32 34  2  0  0  0  0
 33 32  1  0  0  0  0
 34 28  1  0  0  0  0
M  END
>  <minimizedAffinity>
-5.0596652

>  <minimizedRMSD>
1.73916352

$$$$
