
 OpenBabel03252509233D

 25 27  0  0  1  0  0  0  0  0999 V2000
   46.4460   34.7940   42.0300 C   0  0  1  0  0  0  0  0  0  0  0  0
   47.9320   35.2400   42.0030 C   0  0  0  0  0  0  0  0  0  0  0  0
   47.3920   33.8240   41.6150 C   0  0  2  0  0  0  0  0  0  0  0  0
   45.8140   35.3760   41.3310 H   0  0  0  0  0  0  0  0  0  0  0  0
   48.2570   35.8480   41.1310 H   0  0  0  0  0  0  0  0  0  0  0  0
   48.4920   35.3070   42.9270 H   0  0  0  0  0  0  0  0  0  0  0  0
   47.6910   33.0040   42.3190 H   0  0  0  0  0  0  0  0  0  0  0  0
   44.5320   35.6010   45.1560 C   0  0  0  0  0  0  0  0  0  0  0  0
   45.0330   35.7370   43.8220 C   0  0  0  0  0  0  0  0  0  0  0  0
   45.9330   34.7750   43.4470 C   0  0  0  0  0  0  0  0  0  0  0  0
   46.3170   33.7630   44.3060 N   0  0  0  0  0  0  0  0  0  0  0  0
   45.8150   33.6850   45.5480 C   0  0  0  0  0  0  0  0  0  0  0  0
   44.9170   34.6110   45.9730 N   0  0  0  0  0  0  0  0  0  0  0  0
   43.8180   36.3560   45.4620 H   0  0  0  0  0  0  0  0  0  0  0  0
   46.0850   32.9130   46.2530 H   0  0  0  0  0  0  0  0  0  0  0  0
   44.6510   36.8040   42.9580 N   0  0  0  0  0  0  0  0  0  0  0  0
   44.7810   37.8200   43.2230 H   0  0  0  0  0  0  0  0  0  0  0  0
   44.2300   36.5980   42.0400 H   0  0  0  0  0  0  0  0  0  0  0  0
   47.5070   33.4670   40.1770 C   0  0  0  0  0  0  0  0  0  0  0  0
   46.2870   33.3730   39.4020 C   0  0  0  0  0  0  0  0  0  0  0  0
   45.2550   33.5430   39.7720 H   0  0  0  0  0  0  0  0  0  0  0  0
   46.8970   32.9110   37.6860 S   0  0  0  0  0  0  0  0  0  0  0  0
   48.6760   32.9330   38.3470 C   0  0  0  0  0  0  0  0  0  0  0  0
   49.7910   32.7440   37.9240 H   0  0  0  0  0  0  0  0  0  0  0  0
   48.5790   33.2030   39.4320 N   0  0  0  0  0  0  0  0  0  0  0  0
  1  4  1  6  0  0  0
  1 10  1  0  0  0  0
  2  1  1  0  0  0  0
  2  6  1  0  0  0  0
  3  2  1  0  0  0  0
  3  1  1  0  0  0  0
  3  7  1  1  0  0  0
  5  2  1  0  0  0  0
  8 14  1  0  0  0  0
  8 13  1  0  0  0  0
  9  8  2  0  0  0  0
 10  9  1  0  0  0  0
 10 11  2  0  0  0  0
 11 12  1  0  0  0  0
 12 13  2  0  0  0  0
 12 15  1  0  0  0  0
 16 17  1  0  0  0  0
 16  9  1  0  0  0  0
 18 16  1  0  0  0  0
 19  3  1  0  0  0  0
 20 21  1  0  0  0  0
 20 19  2  0  0  0  0
 22 23  1  0  0  0  0
 22 20  1  0  0  0  0
 23 25  2  0  0  0  0
 24 23  1  0  0  0  0
 25 19  1  0  0  0  0
M  END
>  <minimizedAffinity>
-4.58762741

>  <minimizedRMSD>
0.741840363

$$$$
