
 OpenBabel03252501203D

 24 25  0  0  0  0  0  0  0  0999 V2000
   45.1980   34.4800   45.1130 C   0  0  0  0  0  0  0  0  0  0  0  0
   45.9620   34.5920   43.9430 C   0  0  0  0  0  0  0  0  0  0  0  0
   47.0230   33.7090   43.8130 C   0  0  0  0  0  0  0  0  0  0  0  0
   47.2790   32.7970   44.7890 N   0  0  0  0  0  0  0  0  0  0  0  0
   46.5190   32.7260   45.8970 C   0  0  0  0  0  0  0  0  0  0  0  0
   45.4770   33.5690   46.0590 N   0  0  0  0  0  0  0  0  0  0  0  0
   44.3440   35.1200   45.3000 H   0  0  0  0  0  0  0  0  0  0  0  0
   46.8010   31.9670   46.6250 H   0  0  0  0  0  0  0  0  0  0  0  0
   47.8100   33.8480   42.5650 C   0  0  0  0  0  0  0  0  0  0  0  0
   48.8290   32.9100   42.5730 F   0  0  0  0  0  0  0  0  0  0  0  0
   48.3960   35.0790   42.6130 F   0  0  0  0  0  0  0  0  0  0  0  0
   47.0790   33.5920   41.4560 F   0  0  0  0  0  0  0  0  0  0  0  0
   45.6430   35.5960   42.9270 C   0  0  0  0  0  0  0  0  0  0  0  0
   46.4730   36.2440   42.6230 H   0  0  0  0  0  0  0  0  0  0  0  0
   45.0640   35.1480   42.1230 H   0  0  0  0  0  0  0  0  0  0  0  0
   44.8110   36.6450   43.5270 N   0  0  0  0  0  0  0  0  0  0  0  0
   43.7870   36.4590   43.7400 H   0  0  0  0  0  0  0  0  0  0  0  0
   45.0770   37.9810   43.9280 C   0  0  0  0  0  0  0  0  0  0  0  0
   44.9460   38.1310   45.2840 C   0  0  0  0  0  0  0  0  0  0  0  0
   44.6960   37.5200   46.1850 H   0  0  0  0  0  0  0  0  0  0  0  0
   45.3220   39.8720   45.5610 S   0  0  0  0  0  0  0  0  0  0  0  0
   45.6110   40.1230   43.6840 C   0  0  0  0  0  0  0  0  0  0  0  0
   45.9150   41.1780   43.2700 H   0  0  0  0  0  0  0  0  0  0  0  0
   45.4130   39.0890   43.3230 N   0  0  0  0  0  0  0  0  0  0  0  0
  1  7  1  0  0  0  0
  1  6  1  0  0  0  0
  2  1  2  0  0  0  0
  3  2  1  0  0  0  0
  3  4  2  0  0  0  0
  4  5  1  0  0  0  0
  5  6  2  0  0  0  0
  5  8  1  0  0  0  0
  9 10  1  0  0  0  0
  9 11  1  0  0  0  0
  9  3  1  0  0  0  0
 12  9  1  0  0  0  0
 13 16  1  0  0  0  0
 13  2  1  0  0  0  0
 14 13  1  0  0  0  0
 15 13  1  0  0  0  0
 16 17  1  0  0  0  0
 16 18  1  0  0  0  0
 18 19  2  0  0  0  0
 19 21  1  0  0  0  0
 19 20  1  0  0  0  0
 22 21  1  0  0  0  0
 23 22  1  0  0  0  0
 24 22  2  0  0  0  0
 24 18  1  0  0  0  0
M  END
>  <minimizedAffinity>
-2.62435031

>  <minimizedRMSD>
1.31417263

$$$$
