
 OpenBabel03252508053D

 40 43  0  0  1  0  0  0  0  0999 V2000
   36.3830   29.8740   40.9930 C   0  0  0  0  0  0  0  0  0  0  0  0
   36.1320   30.9850   41.5830 O   0  0  0  0  0  0  0  0  0  0  0  0
   36.7760   29.8280   38.5520 C   0  0  0  0  0  0  0  0  0  0  0  0
   35.9780   29.5450   39.6210 C   0  0  0  0  0  0  0  0  0  0  0  0
   34.7330   28.9400   39.3970 C   0  0  0  0  0  0  0  0  0  0  0  0
   34.2710   28.6150   38.1470 C   0  0  0  0  0  0  0  0  0  0  0  0
   35.0680   28.8950   37.0720 C   0  0  0  0  0  0  0  0  0  0  0  0
   36.2770   29.4820   37.2820 C   0  0  0  0  0  0  0  0  0  0  0  0
   34.0440   28.6960   40.1920 H   0  0  0  0  0  0  0  0  0  0  0  0
   33.3170   28.1510   37.9730 H   0  0  0  0  0  0  0  0  0  0  0  0
   34.8200   28.6880   36.0450 H   0  0  0  0  0  0  0  0  0  0  0  0
   36.9330   29.7170   36.4280 H   0  0  0  0  0  0  0  0  0  0  0  0
   38.3180   30.5070   38.7000 S   0  0  0  0  0  0  0  0  0  0  0  0
   38.5190   31.0970   37.2910 O   0  0  0  0  0  0  0  0  0  0  0  0
   39.3760   29.4700   38.8670 O   0  0  0  0  0  0  0  0  0  0  0  0
   38.6620   32.0450   39.3640 C   0  0  0  0  0  0  0  0  0  0  0  0
   40.1940   32.3640   39.2600 C   0  0  0  0  0  0  0  0  0  0  0  0
   41.1590   31.6820   38.8300 H   0  0  0  0  0  0  0  0  0  0  0  0
   40.3370   33.9290   39.8830 S   0  0  0  0  0  0  0  0  0  0  0  0
   38.5510   34.1610   40.2540 C   0  0  0  0  0  0  0  0  0  0  0  0
   38.0050   34.9910   40.6810 H   0  0  0  0  0  0  0  0  0  0  0  0
   38.1550   33.1240   39.8870 N   0  0  0  0  0  0  0  0  0  0  0  0
   37.1000   28.8070   41.6260 C   0  0  0  0  0  0  0  0  0  0  0  0
   38.3050   29.1710   42.2970 C   0  0  0  0  0  0  0  0  0  0  0  0
   39.0040   28.1480   42.9140 C   0  0  0  0  0  0  0  0  0  0  0  0
   38.5130   26.8830   42.8490 N   0  0  0  0  0  0  0  0  0  0  0  0
   37.3490   26.5780   42.1920 C   0  0  0  0  0  0  0  0  0  0  0  0
   36.7190   27.5410   41.6280 N   0  0  0  0  0  0  0  0  0  0  0  0
   38.7630   30.1170   42.3990 H   0  0  0  0  0  0  0  0  0  0  0  0
   39.9420   28.3110   43.4580 H   0  0  0  0  0  0  0  0  0  0  0  0
   36.8860   25.1780   42.1780 C   0  0  1  0  0  0  0  0  0  0  0  0
   36.6800   24.4970   40.8400 C   0  0  0  0  0  0  0  0  0  0  0  0
   37.8980   24.2060   41.6810 C   0  0  1  0  0  0  0  0  0  0  0  0
   36.3010   24.8200   43.0400 H   0  0  0  0  0  0  0  0  0  0  0  0
   35.8470   23.7510   40.8370 H   0  0  0  0  0  0  0  0  0  0  0  0
   36.7100   25.1910   39.9960 H   0  0  0  0  0  0  0  0  0  0  0  0
   37.9390   23.1850   42.1080 H   0  0  0  0  0  0  0  0  0  0  0  0
   39.1190   24.6600   41.0840 N   0  0  0  0  0  0  0  0  0  0  0  0
   39.9660   24.2070   41.4520 H   0  0  0  0  0  0  0  0  0  0  0  0
   39.0830   24.7540   40.0490 H   0  0  0  0  0  0  0  0  0  0  0  0
  1  2  2  0  0  0  0
  1 23  1  0  0  0  0
  3 13  1  0  0  0  0
  3  4  1  0  0  0  0
  4  1  1  0  0  0  0
  5  4  2  0  0  0  0
  5  9  1  0  0  0  0
  6  5  1  0  0  0  0
  7  8  1  0  0  0  0
  7  6  2  0  0  0  0
  8  3  2  0  0  0  0
 10  6  1  0  0  0  0
 11  7  1  0  0  0  0
 12  8  1  0  0  0  0
 13 15  2  0  0  0  0
 13 16  1  0  0  0  0
 14 13  2  0  0  0  0
 16 22  1  0  0  0  0
 17 16  2  0  0  0  0
 17 19  1  0  0  0  0
 18 17  1  0  0  0  0
 19 20  1  0  0  0  0
 20 21  1  0  0  0  0
 22 20  2  0  0  0  0
 23 28  2  0  0  0  0
 23 24  1  0  0  0  0
 24 29  1  0  0  0  0
 24 25  2  0  0  0  0
 25 30  1  0  0  0  0
 26 25  1  0  0  0  0
 27 26  2  0  0  0  0
 28 27  1  0  0  0  0
 31 27  1  0  0  0  0
 31 34  1  1  0  0  0
 32 33  1  0  0  0  0
 32 31  1  0  0  0  0
 33 37  1  1  0  0  0
 33 31  1  0  0  0  0
 35 32  1  0  0  0  0
 36 32  1  0  0  0  0
 38 39  1  0  0  0  0
 38 33  1  0  0  0  0
 40 38  1  0  0  0  0
M  END
>  <minimizedAffinity>
-6.02358246

$$$$

 OpenBabel03252508053D

 40 43  0  0  1  0  0  0  0  0999 V2000
   36.8190   28.5810   41.8730 C   0  0  0  0  0  0  0  0  0  0  0  0
   36.5570   27.9670   42.9670 O   0  0  0  0  0  0  0  0  0  0  0  0
   36.5840   27.3710   39.7280 C   0  0  0  0  0  0  0  0  0  0  0  0
   36.1450   28.3310   40.5920 C   0  0  0  0  0  0  0  0  0  0  0  0
   35.0340   29.1080   40.2350 C   0  0  0  0  0  0  0  0  0  0  0  0
   34.3590   28.9510   39.0510 C   0  0  0  0  0  0  0  0  0  0  0  0
   34.7930   27.9890   38.1830 C   0  0  0  0  0  0  0  0  0  0  0  0
   35.8700   27.2320   38.5230 C   0  0  0  0  0  0  0  0  0  0  0  0
   34.6370   29.8920   40.8620 H   0  0  0  0  0  0  0  0  0  0  0  0
   33.5060   29.5460   38.7760 H   0  0  0  0  0  0  0  0  0  0  0  0
   34.3480   27.7690   37.2280 H   0  0  0  0  0  0  0  0  0  0  0  0
   36.2360   26.4520   37.8350 H   0  0  0  0  0  0  0  0  0  0  0  0
   37.8780   26.3370   40.0710 S   0  0  0  0  0  0  0  0  0  0  0  0
   38.2910   25.8990   38.6520 O   0  0  0  0  0  0  0  0  0  0  0  0
   37.4390   25.0970   40.7730 O   0  0  0  0  0  0  0  0  0  0  0  0
   39.4900   26.8320   40.3570 C   0  0  0  0  0  0  0  0  0  0  0  0
   39.9330   27.9110   39.3070 C   0  0  0  0  0  0  0  0  0  0  0  0
   39.3350   28.4030   38.3170 H   0  0  0  0  0  0  0  0  0  0  0  0
   41.4990   28.3350   39.7810 S   0  0  0  0  0  0  0  0  0  0  0  0
   41.5830   27.2060   41.2290 C   0  0  0  0  0  0  0  0  0  0  0  0
   42.3630   27.0200   41.9550 H   0  0  0  0  0  0  0  0  0  0  0  0
   40.5200   26.7260   41.1450 N   0  0  0  0  0  0  0  0  0  0  0  0
   37.8220   29.5990   41.7770 C   0  0  0  0  0  0  0  0  0  0  0  0
   38.8490   29.5660   42.7650 C   0  0  0  0  0  0  0  0  0  0  0  0
   39.8250   30.5430   42.6790 C   0  0  0  0  0  0  0  0  0  0  0  0
   39.7530   31.4590   41.6780 N   0  0  0  0  0  0  0  0  0  0  0  0
   38.7460   31.4540   40.7470 C   0  0  0  0  0  0  0  0  0  0  0  0
   37.8540   30.5400   40.8480 N   0  0  0  0  0  0  0  0  0  0  0  0
   38.9870   28.9010   43.5740 H   0  0  0  0  0  0  0  0  0  0  0  0
   40.6610   30.6140   43.3840 H   0  0  0  0  0  0  0  0  0  0  0  0
   38.7490   32.4830   39.6910 C   0  0  1  0  0  0  0  0  0  0  0  0
   37.5630   33.4200   39.5880 C   0  0  0  0  0  0  0  0  0  0  0  0
   38.8660   33.8780   40.1970 C   0  0  1  0  0  0  0  0  0  0  0  0
   39.3350   32.2830   38.7800 H   0  0  0  0  0  0  0  0  0  0  0  0
   37.3260   33.7370   38.5420 H   0  0  0  0  0  0  0  0  0  0  0  0
   36.7140   33.1060   40.2020 H   0  0  0  0  0  0  0  0  0  0  0  0
   39.4160   34.6350   39.6070 H   0  0  0  0  0  0  0  0  0  0  0  0
   38.7650   34.1590   41.5990 N   0  0  0  0  0  0  0  0  0  0  0  0
   39.5130   34.7630   41.9660 H   0  0  0  0  0  0  0  0  0  0  0  0
   37.8070   34.3970   41.9230 H   0  0  0  0  0  0  0  0  0  0  0  0
  1  2  2  0  0  0  0
  3 13  1  0  0  0  0
  3  4  1  0  0  0  0
  4  1  1  0  0  0  0
  5  4  2  0  0  0  0
  5  9  1  0  0  0  0
  6  5  1  0  0  0  0
  7  8  1  0  0  0  0
  7  6  2  0  0  0  0
  8  3  2  0  0  0  0
 10  6  1  0  0  0  0
 11  7  1  0  0  0  0
 12  8  1  0  0  0  0
 13 16  1  0  0  0  0
 13 15  2  0  0  0  0
 14 13  2  0  0  0  0
 16 22  1  0  0  0  0
 17 19  1  0  0  0  0
 17 16  2  0  0  0  0
 18 17  1  0  0  0  0
 19 20  1  0  0  0  0
 20 21  1  0  0  0  0
 22 20  2  0  0  0  0
 23  1  1  0  0  0  0
 23 24  1  0  0  0  0
 24 29  1  0  0  0  0
 25 24  2  0  0  0  0
 25 30  1  0  0  0  0
 26 25  1  0  0  0  0
 27 28  1  0  0  0  0
 27 26  2  0  0  0  0
 28 23  2  0  0  0  0
 31 34  1  6  0  0  0
 31 33  1  0  0  0  0
 31 27  1  0  0  0  0
 32 31  1  0  0  0  0
 32 33  1  0  0  0  0
 32 36  1  0  0  0  0
 33 37  1  6  0  0  0
 33 38  1  0  0  0  0
 35 32  1  0  0  0  0
 38 40  1  0  0  0  0
 38 39  1  0  0  0  0
M  END
>  <minimizedAffinity>
-5.6995697

$$$$

 OpenBabel03252508053D

 40 43  0  0  1  0  0  0  0  0999 V2000
   36.0070   29.2190   40.0540 C   0  0  0  0  0  0  0  0  0  0  0  0
   34.8390   29.3690   39.5480 O   0  0  0  0  0  0  0  0  0  0  0  0
   36.7060   26.8500   40.1730 C   0  0  0  0  0  0  0  0  0  0  0  0
   36.4500   28.0340   40.7990 C   0  0  0  0  0  0  0  0  0  0  0  0
   36.5980   28.1110   42.1910 C   0  0  0  0  0  0  0  0  0  0  0  0
   36.9910   27.0470   42.9630 C   0  0  0  0  0  0  0  0  0  0  0  0
   37.2510   25.8590   42.3400 C   0  0  0  0  0  0  0  0  0  0  0  0
   37.1090   25.7770   40.9910 C   0  0  0  0  0  0  0  0  0  0  0  0
   36.4040   29.0100   42.7560 H   0  0  0  0  0  0  0  0  0  0  0  0
   37.1050   27.1050   44.0320 H   0  0  0  0  0  0  0  0  0  0  0  0
   37.5660   24.9560   42.8350 H   0  0  0  0  0  0  0  0  0  0  0  0
   37.3130   24.8270   40.4700 H   0  0  0  0  0  0  0  0  0  0  0  0
   36.6150   26.6490   38.4960 S   0  0  0  0  0  0  0  0  0  0  0  0
   36.7920   25.1230   38.3700 O   0  0  0  0  0  0  0  0  0  0  0  0
   37.7780   27.2580   37.7910 O   0  0  0  0  0  0  0  0  0  0  0  0
   35.1670   26.5280   37.5930 C   0  0  0  0  0  0  0  0  0  0  0  0
   34.6950   25.0340   37.5010 C   0  0  0  0  0  0  0  0  0  0  0  0
   35.2120   23.9700   37.9250 H   0  0  0  0  0  0  0  0  0  0  0  0
   33.2340   25.1120   36.6530 S   0  0  0  0  0  0  0  0  0  0  0  0
   33.2280   26.9360   36.4300 C   0  0  0  0  0  0  0  0  0  0  0  0
   32.5250   27.6010   35.9460 H   0  0  0  0  0  0  0  0  0  0  0  0
   34.2310   27.1880   36.9750 N   0  0  0  0  0  0  0  0  0  0  0  0
   37.0310   30.2160   39.9480 C   0  0  0  0  0  0  0  0  0  0  0  0
   36.6880   31.5210   40.4070 C   0  0  0  0  0  0  0  0  0  0  0  0
   37.6710   32.4910   40.3120 C   0  0  0  0  0  0  0  0  0  0  0  0
   38.8820   32.1510   39.7990 N   0  0  0  0  0  0  0  0  0  0  0  0
   39.1690   30.8810   39.3680 C   0  0  0  0  0  0  0  0  0  0  0  0
   38.2430   30.0010   39.4660 N   0  0  0  0  0  0  0  0  0  0  0  0
   35.7820   31.8770   40.8160 H   0  0  0  0  0  0  0  0  0  0  0  0
   37.5190   33.5270   40.6350 H   0  0  0  0  0  0  0  0  0  0  0  0
   40.5140   30.6000   38.8300 C   0  0  1  0  0  0  0  0  0  0  0  0
   40.6260   29.9350   37.4740 C   0  0  0  0  0  0  0  0  0  0  0  0
   40.8770   31.4140   37.6380 C   0  0  1  0  0  0  0  0  0  0  0  0
   41.3360   30.4600   39.5500 H   0  0  0  0  0  0  0  0  0  0  0  0
   41.5090   29.2560   37.3760 H   0  0  0  0  0  0  0  0  0  0  0  0
   39.6730   29.5460   37.1070 H   0  0  0  0  0  0  0  0  0  0  0  0
   41.9260   31.7300   37.4850 H   0  0  0  0  0  0  0  0  0  0  0  0
   39.8980   32.2290   36.9820 N   0  0  0  0  0  0  0  0  0  0  0  0
   40.2030   33.1950   36.7990 H   0  0  0  0  0  0  0  0  0  0  0  0
   39.4100   31.7630   36.1920 H   0  0  0  0  0  0  0  0  0  0  0  0
  1  4  1  0  0  0  0
  2  1  2  0  0  0  0
  3  4  2  0  0  0  0
  3  8  1  0  0  0  0
  4  5  1  0  0  0  0
  5  9  1  0  0  0  0
  5  6  2  0  0  0  0
  6 10  1  0  0  0  0
  7 11  1  0  0  0  0
  7  6  1  0  0  0  0
  8  7  2  0  0  0  0
 12  8  1  0  0  0  0
 13  3  1  0  0  0  0
 14 13  2  0  0  0  0
 15 13  2  0  0  0  0
 16 13  1  0  0  0  0
 17 16  2  0  0  0  0
 17 18  1  0  0  0  0
 19 17  1  0  0  0  0
 20 19  1  0  0  0  0
 20 22  2  0  0  0  0
 21 20  1  0  0  0  0
 22 16  1  0  0  0  0
 23  1  1  0  0  0  0
 23 24  1  0  0  0  0
 24 29  1  0  0  0  0
 25 24  2  0  0  0  0
 25 30  1  0  0  0  0
 26 25  1  0  0  0  0
 27 28  1  0  0  0  0
 27 26  2  0  0  0  0
 28 23  2  0  0  0  0
 31 27  1  0  0  0  0
 31 34  1  1  0  0  0
 32 33  1  0  0  0  0
 32 31  1  0  0  0  0
 33 37  1  6  0  0  0
 33 31  1  0  0  0  0
 35 32  1  0  0  0  0
 36 32  1  0  0  0  0
 38 33  1  0  0  0  0
 39 38  1  0  0  0  0
 40 38  1  0  0  0  0
M  END
>  <minimizedAffinity>
-5.50776863

$$$$

 OpenBabel03252508053D

 40 43  0  0  1  0  0  0  0  0999 V2000
   38.3990   27.8280   39.6770 C   0  0  0  0  0  0  0  0  0  0  0  0
   39.3470   27.7900   38.8160 O   0  0  0  0  0  0  0  0  0  0  0  0
   38.1250   26.3870   41.6690 C   0  0  0  0  0  0  0  0  0  0  0  0
   37.8430   26.6540   40.3620 C   0  0  0  0  0  0  0  0  0  0  0  0
   37.0150   25.7710   39.6530 C   0  0  0  0  0  0  0  0  0  0  0  0
   36.4690   24.6440   40.2120 C   0  0  0  0  0  0  0  0  0  0  0  0
   36.7470   24.3740   41.5230 C   0  0  0  0  0  0  0  0  0  0  0  0
   37.5490   25.2250   42.2150 C   0  0  0  0  0  0  0  0  0  0  0  0
   36.7570   25.9110   38.6140 H   0  0  0  0  0  0  0  0  0  0  0  0
   35.8330   23.9660   39.6690 H   0  0  0  0  0  0  0  0  0  0  0  0
   36.3790   23.5240   42.0720 H   0  0  0  0  0  0  0  0  0  0  0  0
   37.7860   25.0230   43.2730 H   0  0  0  0  0  0  0  0  0  0  0  0
   39.0650   27.4040   42.6410 S   0  0  0  0  0  0  0  0  0  0  0  0
   39.6130   26.4020   43.6750 O   0  0  0  0  0  0  0  0  0  0  0  0
   38.2350   28.3760   43.4080 O   0  0  0  0  0  0  0  0  0  0  0  0
   40.6700   27.8890   42.3010 C   0  0  0  0  0  0  0  0  0  0  0  0
   41.5340   26.6620   41.8410 C   0  0  0  0  0  0  0  0  0  0  0  0
   41.2550   25.4410   41.7350 H   0  0  0  0  0  0  0  0  0  0  0  0
   43.0440   27.3300   41.4790 S   0  0  0  0  0  0  0  0  0  0  0  0
   42.6010   29.0650   41.8900 C   0  0  0  0  0  0  0  0  0  0  0  0
   43.1730   29.9830   41.8580 H   0  0  0  0  0  0  0  0  0  0  0  0
   41.4880   28.8970   42.2070 N   0  0  0  0  0  0  0  0  0  0  0  0
   37.7610   29.0480   40.0740 C   0  0  0  0  0  0  0  0  0  0  0  0
   36.3450   28.9950   40.2340 C   0  0  0  0  0  0  0  0  0  0  0  0
   35.7200   30.1680   40.6210 C   0  0  0  0  0  0  0  0  0  0  0  0
   36.4740   31.2790   40.8230 N   0  0  0  0  0  0  0  0  0  0  0  0
   37.8350   31.2850   40.6560 C   0  0  0  0  0  0  0  0  0  0  0  0
   38.3910   30.1880   40.2980 N   0  0  0  0  0  0  0  0  0  0  0  0
   35.6800   28.1860   40.1000 H   0  0  0  0  0  0  0  0  0  0  0  0
   34.6370   30.2430   40.7730 H   0  0  0  0  0  0  0  0  0  0  0  0
   38.5760   32.5370   40.9040 C   0  0  1  0  0  0  0  0  0  0  0  0
   39.4010   33.1240   39.7780 C   0  0  0  0  0  0  0  0  0  0  0  0
   38.0610   33.7110   40.1470 C   0  0  1  0  0  0  0  0  0  0  0  0
   38.8730   32.7630   41.9410 H   0  0  0  0  0  0  0  0  0  0  0  0
   40.3240   33.6530   40.1230 H   0  0  0  0  0  0  0  0  0  0  0  0
   39.5230   32.4410   38.9330 H   0  0  0  0  0  0  0  0  0  0  0  0
   38.1010   34.7200   40.6000 H   0  0  0  0  0  0  0  0  0  0  0  0
   37.0710   33.5460   39.1240 N   0  0  0  0  0  0  0  0  0  0  0  0
   36.2740   34.1930   39.1960 H   0  0  0  0  0  0  0  0  0  0  0  0
   37.4580   33.4270   38.1670 H   0  0  0  0  0  0  0  0  0  0  0  0
  1 23  1  0  0  0  0
  1  4  1  0  0  0  0
  2  1  2  0  0  0  0
  3  8  1  0  0  0  0
  3 13  1  0  0  0  0
  4  3  2  0  0  0  0
  5  6  2  0  0  0  0
  5  4  1  0  0  0  0
  6  7  1  0  0  0  0
  7 11  1  0  0  0  0
  7  8  2  0  0  0  0
  8 12  1  0  0  0  0
  9  5  1  0  0  0  0
 10  6  1  0  0  0  0
 13 15  2  0  0  0  0
 13 14  2  0  0  0  0
 16 13  1  0  0  0  0
 17 16  2  0  0  0  0
 18 17  1  0  0  0  0
 19 17  1  0  0  0  0
 19 20  1  0  0  0  0
 20 22  2  0  0  0  0
 21 20  1  0  0  0  0
 22 16  1  0  0  0  0
 23 24  2  0  0  0  0
 23 28  1  0  0  0  0
 24 25  1  0  0  0  0
 25 30  1  0  0  0  0
 25 26  2  0  0  0  0
 27 26  1  0  0  0  0
 27 31  1  0  0  0  0
 28 27  2  0  0  0  0
 29 24  1  0  0  0  0
 31 34  1  1  0  0  0
 32 35  1  0  0  0  0
 32 33  1  0  0  0  0
 32 31  1  0  0  0  0
 33 37  1  1  0  0  0
 33 31  1  0  0  0  0
 36 32  1  0  0  0  0
 38 39  1  0  0  0  0
 38 33  1  0  0  0  0
 40 38  1  0  0  0  0
M  END
>  <minimizedAffinity>
-5.455935

$$$$

 OpenBabel03252508053D

 40 43  0  0  1  0  0  0  0  0999 V2000
   35.8850   29.3160   40.5870 C   0  0  0  0  0  0  0  0  0  0  0  0
   34.6440   29.0030   40.5230 O   0  0  0  0  0  0  0  0  0  0  0  0
   36.7460   30.3990   38.5370 C   0  0  0  0  0  0  0  0  0  0  0  0
   36.5010   30.4450   39.8780 C   0  0  0  0  0  0  0  0  0  0  0  0
   36.8640   31.5940   40.5950 C   0  0  0  0  0  0  0  0  0  0  0  0
   37.4580   32.6840   40.0120 C   0  0  0  0  0  0  0  0  0  0  0  0
   37.7040   32.6440   38.6680 C   0  0  0  0  0  0  0  0  0  0  0  0
   37.3550   31.5330   37.9670 C   0  0  0  0  0  0  0  0  0  0  0  0
   36.7110   31.6980   41.6580 H   0  0  0  0  0  0  0  0  0  0  0  0
   37.7380   33.5670   40.5610 H   0  0  0  0  0  0  0  0  0  0  0  0
   38.1630   33.4340   38.0980 H   0  0  0  0  0  0  0  0  0  0  0  0
   37.5460   31.4810   36.8820 H   0  0  0  0  0  0  0  0  0  0  0  0
   36.3050   29.0920   37.5580 S   0  0  0  0  0  0  0  0  0  0  0  0
   37.1900   29.3360   36.3210 O   0  0  0  0  0  0  0  0  0  0  0  0
   34.8960   29.1950   37.0820 O   0  0  0  0  0  0  0  0  0  0  0  0
   36.9470   27.5110   37.6720 C   0  0  0  0  0  0  0  0  0  0  0  0
   35.8050   26.4660   37.9310 C   0  0  0  0  0  0  0  0  0  0  0  0
   34.5680   26.6110   38.1040 H   0  0  0  0  0  0  0  0  0  0  0  0
   36.6000   24.9750   37.9390 S   0  0  0  0  0  0  0  0  0  0  0  0
   38.2840   25.6430   37.6310 C   0  0  0  0  0  0  0  0  0  0  0  0
   39.2460   25.1570   37.5290 H   0  0  0  0  0  0  0  0  0  0  0  0
   38.0190   26.7800   37.5740 N   0  0  0  0  0  0  0  0  0  0  0  0
   36.8300   28.5810   41.3750 C   0  0  0  0  0  0  0  0  0  0  0  0
   37.2370   29.1890   42.5980 C   0  0  0  0  0  0  0  0  0  0  0  0
   38.1470   28.4850   43.3690 C   0  0  0  0  0  0  0  0  0  0  0  0
   38.5890   27.2800   42.9260 N   0  0  0  0  0  0  0  0  0  0  0  0
   38.1700   26.7320   41.7410 C   0  0  0  0  0  0  0  0  0  0  0  0
   37.3290   27.4020   41.0460 N   0  0  0  0  0  0  0  0  0  0  0  0
   36.9520   30.1140   43.0210 H   0  0  0  0  0  0  0  0  0  0  0  0
   38.5290   28.8570   44.3270 H   0  0  0  0  0  0  0  0  0  0  0  0
   38.6990   25.4140   41.3410 C   0  0  1  0  0  0  0  0  0  0  0  0
   38.9800   24.3890   42.4200 C   0  0  0  0  0  0  0  0  0  0  0  0
   37.7500   24.2870   41.5520 C   0  0  1  0  0  0  0  0  0  0  0  0
   39.2720   25.3530   40.4020 H   0  0  0  0  0  0  0  0  0  0  0  0
   39.8470   23.7200   42.1930 H   0  0  0  0  0  0  0  0  0  0  0  0
   38.9440   24.8070   43.4300 H   0  0  0  0  0  0  0  0  0  0  0  0
   37.7450   23.4320   40.8480 H   0  0  0  0  0  0  0  0  0  0  0  0
   36.5290   24.4810   42.2760 N   0  0  0  0  0  0  0  0  0  0  0  0
   35.6930   24.1090   41.8070 H   0  0  0  0  0  0  0  0  0  0  0  0
   36.5940   24.2750   43.2920 H   0  0  0  0  0  0  0  0  0  0  0  0
  1 23  1  0  0  0  0
  2  1  2  0  0  0  0
  3  4  1  0  0  0  0
  4  1  1  0  0  0  0
  4  5  2  0  0  0  0
  5  9  1  0  0  0  0
  6 10  1  0  0  0  0
  6  5  1  0  0  0  0
  7  6  2  0  0  0  0
  8  3  2  0  0  0  0
  8  7  1  0  0  0  0
 11  7  1  0  0  0  0
 12  8  1  0  0  0  0
 13 16  1  0  0  0  0
 13  3  1  0  0  0  0
 14 13  2  0  0  0  0
 15 13  2  0  0  0  0
 16 17  2  0  0  0  0
 17 19  1  0  0  0  0
 17 18  1  0  0  0  0
 20 19  1  0  0  0  0
 21 20  1  0  0  0  0
 22 20  2  0  0  0  0
 22 16  1  0  0  0  0
 23 24  1  0  0  0  0
 24 29  1  0  0  0  0
 24 25  2  0  0  0  0
 25 30  1  0  0  0  0
 26 25  1  0  0  0  0
 27 26  2  0  0  0  0
 28 23  2  0  0  0  0
 28 27  1  0  0  0  0
 31 34  1  6  0  0  0
 31 33  1  0  0  0  0
 31 27  1  0  0  0  0
 31 32  1  0  0  0  0
 32 36  1  0  0  0  0
 33 37  1  6  0  0  0
 33 38  1  0  0  0  0
 33 32  1  0  0  0  0
 35 32  1  0  0  0  0
 38 40  1  0  0  0  0
 39 38  1  0  0  0  0
M  END
>  <minimizedAffinity>
-5.44442511

$$$$

 OpenBabel03252508053D

 40 43  0  0  1  0  0  0  0  0999 V2000
   36.4200   28.3500   41.0610 C   0  0  0  0  0  0  0  0  0  0  0  0
   35.2220   28.7390   40.8240 O   0  0  0  0  0  0  0  0  0  0  0  0
   37.2950   26.3620   39.8760 C   0  0  0  0  0  0  0  0  0  0  0  0
   36.8680   26.9520   41.0300 C   0  0  0  0  0  0  0  0  0  0  0  0
   36.8410   26.1940   42.2090 C   0  0  0  0  0  0  0  0  0  0  0  0
   37.2260   24.8780   42.2640 C   0  0  0  0  0  0  0  0  0  0  0  0
   37.6560   24.2840   41.1110 C   0  0  0  0  0  0  0  0  0  0  0  0
   37.6840   25.0120   39.9640 C   0  0  0  0  0  0  0  0  0  0  0  0
   36.5060   26.5890   43.1560 H   0  0  0  0  0  0  0  0  0  0  0  0
   37.2060   24.2960   43.1680 H   0  0  0  0  0  0  0  0  0  0  0  0
   37.9830   23.2610   41.0260 H   0  0  0  0  0  0  0  0  0  0  0  0
   38.0270   24.5500   39.0230 H   0  0  0  0  0  0  0  0  0  0  0  0
   37.4220   27.1870   38.4050 S   0  0  0  0  0  0  0  0  0  0  0  0
   37.5700   26.0130   37.4190 O   0  0  0  0  0  0  0  0  0  0  0  0
   38.6860   27.9710   38.3060 O   0  0  0  0  0  0  0  0  0  0  0  0
   36.1050   27.7640   37.4790 C   0  0  0  0  0  0  0  0  0  0  0  0
   34.8730   26.8000   37.6050 C   0  0  0  0  0  0  0  0  0  0  0  0
   34.7310   25.7080   38.2120 H   0  0  0  0  0  0  0  0  0  0  0  0
   33.6600   27.5540   36.7020 S   0  0  0  0  0  0  0  0  0  0  0  0
   34.6620   29.0080   36.1940 C   0  0  0  0  0  0  0  0  0  0  0  0
   34.4250   29.8700   35.5850 H   0  0  0  0  0  0  0  0  0  0  0  0
   35.6640   28.7330   36.7300 N   0  0  0  0  0  0  0  0  0  0  0  0
   37.4780   29.2580   41.3910 C   0  0  0  0  0  0  0  0  0  0  0  0
   38.0870   29.0770   42.6680 C   0  0  0  0  0  0  0  0  0  0  0  0
   39.1120   29.9470   42.9950 C   0  0  0  0  0  0  0  0  0  0  0  0
   39.4740   30.9040   42.1010 N   0  0  0  0  0  0  0  0  0  0  0  0
   38.8600   31.0420   40.8830 C   0  0  0  0  0  0  0  0  0  0  0  0
   37.9140   30.2250   40.6020 N   0  0  0  0  0  0  0  0  0  0  0  0
   37.8750   28.3710   43.4230 H   0  0  0  0  0  0  0  0  0  0  0  0
   39.6510   29.9010   43.9490 H   0  0  0  0  0  0  0  0  0  0  0  0
   39.3230   32.1050   39.9700 C   0  0  1  0  0  0  0  0  0  0  0  0
   38.6400   32.2530   38.6260 C   0  0  0  0  0  0  0  0  0  0  0  0
   38.3370   33.2010   39.7610 C   0  0  1  0  0  0  0  0  0  0  0  0
   40.3650   32.4480   40.0660 H   0  0  0  0  0  0  0  0  0  0  0  0
   39.3200   32.6030   37.8100 H   0  0  0  0  0  0  0  0  0  0  0  0
   37.9860   31.4120   38.3820 H   0  0  0  0  0  0  0  0  0  0  0  0
   38.6900   34.2390   39.6090 H   0  0  0  0  0  0  0  0  0  0  0  0
   36.9960   33.0840   40.2510 N   0  0  0  0  0  0  0  0  0  0  0  0
   36.6620   33.9030   40.7770 H   0  0  0  0  0  0  0  0  0  0  0  0
   36.3190   32.6950   39.5650 H   0  0  0  0  0  0  0  0  0  0  0  0
  1 23  1  0  0  0  0
  2  1  2  0  0  0  0
  3  8  2  0  0  0  0
  3  4  1  0  0  0  0
  4  1  1  0  0  0  0
  4  5  2  0  0  0  0
  5  6  1  0  0  0  0
  5  9  1  0  0  0  0
  6 10  1  0  0  0  0
  7  6  2  0  0  0  0
  8  7  1  0  0  0  0
 11  7  1  0  0  0  0
 12  8  1  0  0  0  0
 13  3  1  0  0  0  0
 14 13  2  0  0  0  0
 15 13  2  0  0  0  0
 16 17  2  0  0  0  0
 16 13  1  0  0  0  0
 17 18  1  0  0  0  0
 19 17  1  0  0  0  0
 20 19  1  0  0  0  0
 20 22  2  0  0  0  0
 21 20  1  0  0  0  0
 22 16  1  0  0  0  0
 23 24  1  0  0  0  0
 24 25  2  0  0  0  0
 24 29  1  0  0  0  0
 25 30  1  0  0  0  0
 26 25  1  0  0  0  0
 27 26  2  0  0  0  0
 28 27  1  0  0  0  0
 28 23  2  0  0  0  0
 31 34  1  1  0  0  0
 31 27  1  0  0  0  0
 32 33  1  0  0  0  0
 32 31  1  0  0  0  0
 33 37  1  6  0  0  0
 33 31  1  0  0  0  0
 33 38  1  0  0  0  0
 35 32  1  0  0  0  0
 36 32  1  0  0  0  0
 38 39  1  0  0  0  0
 40 38  1  0  0  0  0
M  END
>  <minimizedAffinity>
-5.38700342

$$$$

 OpenBabel03252508053D

 40 43  0  0  1  0  0  0  0  0999 V2000
   36.9000   29.5510   41.0570 C   0  0  0  0  0  0  0  0  0  0  0  0
   36.7000   29.4370   42.3180 O   0  0  0  0  0  0  0  0  0  0  0  0
   36.9190   27.3320   39.9630 C   0  0  0  0  0  0  0  0  0  0  0  0
   36.4220   28.6000   40.0450 C   0  0  0  0  0  0  0  0  0  0  0  0
   35.4450   29.0060   39.1250 C   0  0  0  0  0  0  0  0  0  0  0  0
   34.9570   28.1870   38.1390 C   0  0  0  0  0  0  0  0  0  0  0  0
   35.4490   26.9150   38.0540 C   0  0  0  0  0  0  0  0  0  0  0  0
   36.3980   26.5150   38.9420 C   0  0  0  0  0  0  0  0  0  0  0  0
   35.0130   29.9960   39.1220 H   0  0  0  0  0  0  0  0  0  0  0  0
   34.2060   28.4980   37.4330 H   0  0  0  0  0  0  0  0  0  0  0  0
   35.1470   26.1810   37.3270 H   0  0  0  0  0  0  0  0  0  0  0  0
   36.8090   25.4930   38.8880 H   0  0  0  0  0  0  0  0  0  0  0  0
   38.0600   26.7120   41.0460 S   0  0  0  0  0  0  0  0  0  0  0  0
   38.6960   25.5940   40.1980 O   0  0  0  0  0  0  0  0  0  0  0  0
   37.4210   26.0330   42.2100 O   0  0  0  0  0  0  0  0  0  0  0  0
   39.6200   27.3580   41.3160 C   0  0  0  0  0  0  0  0  0  0  0  0
   39.8340   27.6720   42.8390 C   0  0  0  0  0  0  0  0  0  0  0  0
   39.0620   27.5700   43.8260 H   0  0  0  0  0  0  0  0  0  0  0  0
   41.4300   28.2220   42.9300 S   0  0  0  0  0  0  0  0  0  0  0  0
   41.8000   28.0620   41.1370 C   0  0  0  0  0  0  0  0  0  0  0  0
   42.6930   28.2710   40.5630 H   0  0  0  0  0  0  0  0  0  0  0  0
   40.7650   27.6560   40.7740 N   0  0  0  0  0  0  0  0  0  0  0  0
   37.6310   30.6420   40.4850 C   0  0  0  0  0  0  0  0  0  0  0  0
   36.9830   31.9120   40.5030 C   0  0  0  0  0  0  0  0  0  0  0  0
   37.6830   32.9740   39.9560 C   0  0  0  0  0  0  0  0  0  0  0  0
   38.9210   32.7510   39.4450 N   0  0  0  0  0  0  0  0  0  0  0  0
   39.5070   31.5120   39.4480 C   0  0  0  0  0  0  0  0  0  0  0  0
   38.8400   30.5450   39.9590 N   0  0  0  0  0  0  0  0  0  0  0  0
   36.0310   32.1790   40.8740 H   0  0  0  0  0  0  0  0  0  0  0  0
   37.2820   33.9930   39.9160 H   0  0  0  0  0  0  0  0  0  0  0  0
   40.8590   31.3630   38.8770 C   0  0  1  0  0  0  0  0  0  0  0  0
   41.0580   30.3950   37.7290 C   0  0  0  0  0  0  0  0  0  0  0  0
   40.9950   31.8830   37.4880 C   0  0  1  0  0  0  0  0  0  0  0  0
   41.7200   31.5830   39.5280 H   0  0  0  0  0  0  0  0  0  0  0  0
   42.0600   29.8980   37.7250 H   0  0  0  0  0  0  0  0  0  0  0  0
   40.1960   29.7430   37.5630 H   0  0  0  0  0  0  0  0  0  0  0  0
   41.9480   32.3440   37.1630 H   0  0  0  0  0  0  0  0  0  0  0  0
   39.8420   32.2860   36.7400 N   0  0  0  0  0  0  0  0  0  0  0  0
   39.9280   33.2070   36.2900 H   0  0  0  0  0  0  0  0  0  0  0  0
   39.4340   31.5400   36.1430 H   0  0  0  0  0  0  0  0  0  0  0  0
  1  2  2  0  0  0  0
  3  4  1  0  0  0  0
  3 13  1  0  0  0  0
  4  1  1  0  0  0  0
  5  4  2  0  0  0  0
  6  5  1  0  0  0  0
  7  6  2  0  0  0  0
  7  8  1  0  0  0  0
  8  3  2  0  0  0  0
  9  5  1  0  0  0  0
 10  6  1  0  0  0  0
 11  7  1  0  0  0  0
 12  8  1  0  0  0  0
 13 16  1  0  0  0  0
 13 15  2  0  0  0  0
 14 13  2  0  0  0  0
 16 17  2  0  0  0  0
 17 19  1  0  0  0  0
 17 18  1  0  0  0  0
 20 19  1  0  0  0  0
 21 20  1  0  0  0  0
 22 20  2  0  0  0  0
 22 16  1  0  0  0  0
 23 24  1  0  0  0  0
 23  1  1  0  0  0  0
 24 29  1  0  0  0  0
 25 24  2  0  0  0  0
 26 27  2  0  0  0  0
 26 25  1  0  0  0  0
 27 28  1  0  0  0  0
 28 23  2  0  0  0  0
 30 25  1  0  0  0  0
 31 27  1  0  0  0  0
 31 34  1  1  0  0  0
 32 31  1  0  0  0  0
 33 37  1  6  0  0  0
 33 32  1  0  0  0  0
 33 31  1  0  0  0  0
 35 32  1  0  0  0  0
 36 32  1  0  0  0  0
 38 33  1  0  0  0  0
 39 38  1  0  0  0  0
 40 38  1  0  0  0  0
M  END
>  <minimizedAffinity>
-5.37705994

$$$$

 OpenBabel03252508053D

 40 43  0  0  1  0  0  0  0  0999 V2000
   36.3220   29.8570   40.9110 C   0  0  0  0  0  0  0  0  0  0  0  0
   36.0910   30.9300   41.5730 O   0  0  0  0  0  0  0  0  0  0  0  0
   36.5270   29.7760   38.4480 C   0  0  0  0  0  0  0  0  0  0  0  0
   35.7880   29.5670   39.5750 C   0  0  0  0  0  0  0  0  0  0  0  0
   34.4790   29.0790   39.4470 C   0  0  0  0  0  0  0  0  0  0  0  0
   33.8990   28.7980   38.2360 C   0  0  0  0  0  0  0  0  0  0  0  0
   34.6360   29.0040   37.1040 C   0  0  0  0  0  0  0  0  0  0  0  0
   35.9050   29.4770   37.2210 C   0  0  0  0  0  0  0  0  0  0  0  0
   33.8320   28.8990   40.2920 H   0  0  0  0  0  0  0  0  0  0  0  0
   32.8950   28.4240   38.1370 H   0  0  0  0  0  0  0  0  0  0  0  0
   34.2940   28.8220   36.1000 H   0  0  0  0  0  0  0  0  0  0  0  0
   36.5150   29.6510   36.3190 H   0  0  0  0  0  0  0  0  0  0  0  0
   38.1320   30.3100   38.4770 S   0  0  0  0  0  0  0  0  0  0  0  0
   38.2140   31.0750   37.1430 O   0  0  0  0  0  0  0  0  0  0  0  0
   39.1020   29.1840   38.3660 O   0  0  0  0  0  0  0  0  0  0  0  0
   38.6930   31.7100   39.2840 C   0  0  0  0  0  0  0  0  0  0  0  0
   37.6300   32.8610   39.2010 C   0  0  0  0  0  0  0  0  0  0  0  0
   36.5140   32.9220   38.6260 H   0  0  0  0  0  0  0  0  0  0  0  0
   38.3090   34.1200   40.1020 S   0  0  0  0  0  0  0  0  0  0  0  0
   39.8530   33.2320   40.5550 C   0  0  0  0  0  0  0  0  0  0  0  0
   40.7110   33.5310   41.1430 H   0  0  0  0  0  0  0  0  0  0  0  0
   39.6440   32.2180   40.0120 N   0  0  0  0  0  0  0  0  0  0  0  0
   37.1440   28.7970   41.4170 C   0  0  0  0  0  0  0  0  0  0  0  0
   36.6090   27.4800   41.3080 C   0  0  0  0  0  0  0  0  0  0  0  0
   37.3970   26.4490   41.7900 C   0  0  0  0  0  0  0  0  0  0  0  0
   38.6100   26.7430   42.3260 N   0  0  0  0  0  0  0  0  0  0  0  0
   39.0850   28.0270   42.4110 C   0  0  0  0  0  0  0  0  0  0  0  0
   38.3380   28.9640   41.9590 N   0  0  0  0  0  0  0  0  0  0  0  0
   35.6860   27.1560   40.9110 H   0  0  0  0  0  0  0  0  0  0  0  0
   37.0870   25.3980   41.7580 H   0  0  0  0  0  0  0  0  0  0  0  0
   40.4170   28.2540   43.0040 C   0  0  1  0  0  0  0  0  0  0  0  0
   41.6210   27.6170   42.3430 C   0  0  0  0  0  0  0  0  0  0  0  0
   41.3240   29.0850   42.1660 C   0  0  1  0  0  0  0  0  0  0  0  0
   40.4690   28.4740   44.0820 H   0  0  0  0  0  0  0  0  0  0  0  0
   42.4270   27.3220   43.0600 H   0  0  0  0  0  0  0  0  0  0  0  0
   41.3530   26.8750   41.5860 H   0  0  0  0  0  0  0  0  0  0  0  0
   42.0470   29.7700   42.6490 H   0  0  0  0  0  0  0  0  0  0  0  0
   40.9680   29.4320   40.8220 N   0  0  0  0  0  0  0  0  0  0  0  0
   41.0750   30.4300   40.5980 H   0  0  0  0  0  0  0  0  0  0  0  0
   41.3260   28.7760   40.1000 H   0  0  0  0  0  0  0  0  0  0  0  0
  1 23  1  0  0  0  0
  1  2  2  0  0  0  0
  3 13  1  0  0  0  0
  3  4  1  0  0  0  0
  4  1  1  0  0  0  0
  5  4  2  0  0  0  0
  5  9  1  0  0  0  0
  6  5  1  0  0  0  0
  7  8  1  0  0  0  0
  7  6  2  0  0  0  0
  8  3  2  0  0  0  0
 10  6  1  0  0  0  0
 11  7  1  0  0  0  0
 12  8  1  0  0  0  0
 13 16  1  0  0  0  0
 14 13  2  0  0  0  0
 15 13  2  0  0  0  0
 16 22  1  0  0  0  0
 17 16  2  0  0  0  0
 17 19  1  0  0  0  0
 18 17  1  0  0  0  0
 19 20  1  0  0  0  0
 20 21  1  0  0  0  0
 22 20  2  0  0  0  0
 23 28  1  0  0  0  0
 24 23  2  0  0  0  0
 24 25  1  0  0  0  0
 25 26  2  0  0  0  0
 26 27  1  0  0  0  0
 27 31  1  0  0  0  0
 28 27  2  0  0  0  0
 29 24  1  0  0  0  0
 30 25  1  0  0  0  0
 31 34  1  1  0  0  0
 32 31  1  0  0  0  0
 32 35  1  0  0  0  0
 33 32  1  0  0  0  0
 33 37  1  1  0  0  0
 33 31  1  0  0  0  0
 36 32  1  0  0  0  0
 38 33  1  0  0  0  0
 39 38  1  0  0  0  0
 40 38  1  0  0  0  0
M  END
>  <minimizedAffinity>
-5.35353708

$$$$

 OpenBabel03252508053D

 40 43  0  0  1  0  0  0  0  0999 V2000
   40.2610   28.3270   41.3200 C   0  0  0  0  0  0  0  0  0  0  0  0
   41.3160   27.6000   41.2870 O   0  0  0  0  0  0  0  0  0  0  0  0
   38.2290   26.9180   41.3950 C   0  0  0  0  0  0  0  0  0  0  0  0
   38.9850   27.9220   41.9240 C   0  0  0  0  0  0  0  0  0  0  0  0
   38.5190   28.5940   43.0640 C   0  0  0  0  0  0  0  0  0  0  0  0
   37.3310   28.2900   43.6800 C   0  0  0  0  0  0  0  0  0  0  0  0
   36.5710   27.2830   43.1540 C   0  0  0  0  0  0  0  0  0  0  0  0
   37.0170   26.6280   42.0490 C   0  0  0  0  0  0  0  0  0  0  0  0
   39.0570   29.4040   43.5320 H   0  0  0  0  0  0  0  0  0  0  0  0
   36.9730   28.8040   44.5540 H   0  0  0  0  0  0  0  0  0  0  0  0
   35.6250   26.9520   43.5450 H   0  0  0  0  0  0  0  0  0  0  0  0
   36.4170   25.8140   41.6100 H   0  0  0  0  0  0  0  0  0  0  0  0
   38.7110   26.0020   40.0570 S   0  0  0  0  0  0  0  0  0  0  0  0
   37.3490   25.5160   39.5250 O   0  0  0  0  0  0  0  0  0  0  0  0
   39.4590   24.7750   40.4540 O   0  0  0  0  0  0  0  0  0  0  0  0
   39.0630   26.6280   38.5050 C   0  0  0  0  0  0  0  0  0  0  0  0
   37.8190   27.3800   37.9150 C   0  0  0  0  0  0  0  0  0  0  0  0
   36.6550   27.5430   38.3640 H   0  0  0  0  0  0  0  0  0  0  0  0
   38.3630   27.9900   36.4360 S   0  0  0  0  0  0  0  0  0  0  0  0
   40.0720   27.3260   36.5620 C   0  0  0  0  0  0  0  0  0  0  0  0
   40.9220   27.3890   35.8950 H   0  0  0  0  0  0  0  0  0  0  0  0
   39.9830   26.7960   37.6000 N   0  0  0  0  0  0  0  0  0  0  0  0
   40.2080   29.6430   40.7550 C   0  0  0  0  0  0  0  0  0  0  0  0
   41.2130   30.5550   41.1920 C   0  0  0  0  0  0  0  0  0  0  0  0
   41.1730   31.8280   40.6490 C   0  0  0  0  0  0  0  0  0  0  0  0
   40.2020   32.1290   39.7490 N   0  0  0  0  0  0  0  0  0  0  0  0
   39.2540   31.2190   39.3560 C   0  0  0  0  0  0  0  0  0  0  0  0
   39.3110   30.0480   39.8720 N   0  0  0  0  0  0  0  0  0  0  0  0
   42.0000   30.4150   41.8820 H   0  0  0  0  0  0  0  0  0  0  0  0
   41.8940   32.6100   40.9130 H   0  0  0  0  0  0  0  0  0  0  0  0
   38.2400   31.6310   38.3680 C   0  0  1  0  0  0  0  0  0  0  0  0
   36.8290   31.0990   38.5150 C   0  0  0  0  0  0  0  0  0  0  0  0
   37.1740   32.5120   38.9180 C   0  0  1  0  0  0  0  0  0  0  0  0
   38.5870   31.9160   37.3620 H   0  0  0  0  0  0  0  0  0  0  0  0
   36.3020   30.9400   37.5410 H   0  0  0  0  0  0  0  0  0  0  0  0
   36.7490   30.2900   39.2450 H   0  0  0  0  0  0  0  0  0  0  0  0
   36.7280   33.3010   38.2830 H   0  0  0  0  0  0  0  0  0  0  0  0
   37.0660   32.7380   40.3290 N   0  0  0  0  0  0  0  0  0  0  0  0
   36.9750   33.7280   40.5950 H   0  0  0  0  0  0  0  0  0  0  0  0
   36.4220   32.0880   40.8210 H   0  0  0  0  0  0  0  0  0  0  0  0
  1  4  1  0  0  0  0
  2  1  2  0  0  0  0
  3  4  2  0  0  0  0
  3  8  1  0  0  0  0
  4  5  1  0  0  0  0
  5  9  1  0  0  0  0
  5  6  2  0  0  0  0
  6 10  1  0  0  0  0
  7 11  1  0  0  0  0
  7  6  1  0  0  0  0
  8  7  2  0  0  0  0
 12  8  1  0  0  0  0
 13 15  2  0  0  0  0
 13  3  1  0  0  0  0
 14 13  2  0  0  0  0
 16 13  1  0  0  0  0
 17 18  1  0  0  0  0
 17 16  2  0  0  0  0
 19 20  1  0  0  0  0
 19 17  1  0  0  0  0
 20 22  2  0  0  0  0
 21 20  1  0  0  0  0
 22 16  1  0  0  0  0
 23 24  1  0  0  0  0
 23  1  1  0  0  0  0
 24 29  1  0  0  0  0
 25 30  1  0  0  0  0
 25 24  2  0  0  0  0
 26 25  1  0  0  0  0
 27 26  2  0  0  0  0
 27 28  1  0  0  0  0
 28 23  2  0  0  0  0
 31 34  1  6  0  0  0
 31 32  1  0  0  0  0
 31 33  1  0  0  0  0
 31 27  1  0  0  0  0
 32 33  1  0  0  0  0
 32 36  1  0  0  0  0
 33 37  1  6  0  0  0
 33 38  1  0  0  0  0
 35 32  1  0  0  0  0
 38 39  1  0  0  0  0
 38 40  1  0  0  0  0
M  END
>  <minimizedAffinity>
-5.31295109

$$$$
