REMARK  Name = 
REMARK  4 active torsions:
REMARK  status: ('A' for Active; 'I' for Inactive)
REMARK    1  A    between atoms: C_2  and  C_14
REMARK    2  A    between atoms: C_11  and  O_20
REMARK    3  A    between atoms: C_12  and  C_16
REMARK    4  A    between atoms: O_20  and  C_27
REMARK                            x       y       z     vdW  Elec       q    Type
REMARK                         _______ _______ _______ _____ _____    ______ ____
ROOT
ATOM      1  C   UNL     1      45.911  33.263  41.646  0.00  0.00    +0.000 A 
ATOM      2  C   UNL     1      47.055  33.994  41.313  0.00  0.00    +0.000 A 
ATOM      3  C   UNL     1      48.041  34.088  42.280  0.00  0.00    +0.000 A 
ATOM      4  N   UNL     1      47.823  33.466  43.475  0.00  0.00    +0.000 NA
ATOM      5  C   UNL     1      46.721  32.772  43.774  0.00  0.00    +0.000 A 
ATOM      6  N   UNL     1      45.753  32.668  42.852  0.00  0.00    +0.000 NA
ATOM      7  H   UNL     1      45.075  33.107  41.005  0.00  0.00    +0.000 HD
ENDROOT
BRANCH   5   9
ATOM      8  C   UNL     1      46.957  30.845  45.272  0.00  0.00    +0.000 A 
ATOM      9  C   UNL     1      46.590  32.151  45.074  0.00  0.00    +0.000 A 
ATOM     10  C   UNL     1      46.070  32.960  46.107  0.00  0.00    +0.000 A 
ATOM     11  C   UNL     1      45.913  32.436  47.385  0.00  0.00    +0.000 A 
ATOM     12  N   UNL     1      45.466  32.883  48.583  0.00  0.00    +0.000 N 
ATOM     13  C   UNL     1      45.568  31.854  49.480  0.00  0.00    +0.000 A 
ATOM     14  N   UNL     1      46.074  30.792  48.823  0.00  0.00    +0.000 NA
ATOM     15  C   UNL     1      46.296  31.116  47.539  0.00  0.00    +0.000 A 
ATOM     16  C   UNL     1      46.809  30.299  46.546  0.00  0.00    +0.000 A 
ATOM     17  H   UNL     1      47.343  30.304  44.434  0.00  0.00    +0.000 HD
ATOM     18  H   UNL     1      45.782  33.986  45.949  0.00  0.00    +0.000 HD
ATOM     19  H   UNL     1      45.128  33.854  48.696  0.00  0.00    +0.000 HD
ATOM     20  H   UNL     1      45.267  31.985  50.505  0.00  0.00    +0.000 HD
ATOM     21  H   UNL     1      47.090  29.286  46.712  0.00  0.00    +0.000 HD
ENDBRANCH   5   9
BRANCH   3  22
ATOM     22  C   UNL     1      49.279  34.846  41.993  0.00  0.00    +0.000 C 
ATOM     23  F   UNL     1      48.979  36.011  41.262  0.00  0.00    +0.000 F 
ATOM     24  F   UNL     1      49.863  35.275  43.160  0.00  0.00    +0.000 F 
ATOM     25  F   UNL     1      50.117  34.046  41.267  0.00  0.00    +0.000 F 
ENDBRANCH   3  22
BRANCH   2  26
ATOM     26  O   UNL     1      47.158  34.571  40.087  0.00  0.00    +0.000 OA
BRANCH  26  27
ATOM     27  C   UNL     1      46.157  34.459  39.148  0.00  0.00    +0.000 A 
ATOM     28  C   UNL     1      45.382  33.403  39.682  0.00  0.00    +0.000 A 
ATOM     29  H   UNL     1      45.180  32.603  40.503  0.00  0.00    +0.000 HD
ATOM     30  S   UNL     1      44.024  33.209  38.464  0.00  0.00    +0.000 S 
ATOM     31  C   UNL     1      44.738  34.607  37.419  0.00  0.00    +0.000 A 
ATOM     32  H   UNL     1      44.725  35.341  36.451  0.00  0.00    +0.000 HD
ATOM     33  N   UNL     1      45.632  34.882  38.031  0.00  0.00    +0.000 NA
ENDBRANCH  26  27
ENDBRANCH   2  26
TORSDOF 4
