
     RDKit          3D

 43 45  0  0  0  0  0  0  0  0999 V2000
   47.1698   34.1540   43.0816 N   0  0  0  0  0  0  0  0  0  0  0  0
   46.6678   35.3630   42.5318 C   0  0  0  0  0  0  0  0  0  0  0  0
   45.1898   35.5993   42.7502 C   0  0  0  0  0  0  0  0  0  0  0  0
   44.6423   35.0359   44.0338 C   0  0  0  0  0  0  0  0  0  0  0  0
   45.7492   34.4704   44.8938 C   0  0  0  0  0  0  0  0  0  0  0  0
   46.4135   33.3947   43.9584 C   0  0  2  0  0  0  0  0  0  0  0  0
   48.1427   33.4949   42.2626 C   0  0  0  0  0  0  0  0  0  0  0  0
   47.4370   32.6490   41.2541 C   0  0  0  0  0  0  0  0  0  0  0  0
   49.3371   32.2866   38.0310 C   0  0  0  0  0  0  0  0  0  0  0  0
   48.8110   32.0160   39.3084 C   0  0  0  0  0  0  0  0  0  0  0  0
   47.9878   32.9440   39.9047 C   0  0  0  0  0  0  0  0  0  0  0  0
   47.7261   34.0735   39.2284 N   0  0  0  0  0  0  0  0  0  0  0  0
   48.2329   34.3227   38.0098 C   0  0  0  0  0  0  0  0  0  0  0  0
   49.0400   33.4381   37.3989 N   0  0  0  0  0  0  0  0  0  0  0  0
   47.2053   32.6925   44.8541 O   0  0  0  0  0  0  0  0  0  0  0  0
   45.9910   30.5437   43.8677 O   0  0  0  0  0  0  0  0  0  0  0  0
   46.6625   31.1251   45.1167 P   0  0  2  0  0  0  0  0  0  0  0  0
   45.4067   31.2452   46.2721 O   0  0  0  0  0  0  0  0  0  0  0  0
   47.8438   30.1396   45.7387 O   0  0  0  0  0  0  0  0  0  0  0  0
   46.8680   35.5220   41.4670 H   0  0  0  0  0  0  0  0  0  0  0  0
   47.2173   36.1879   43.0660 H   0  0  0  0  0  0  0  0  0  0  0  0
   44.5995   35.2486   41.8637 H   0  0  0  0  0  0  0  0  0  0  0  0
   45.0229   36.6968   42.7862 H   0  0  0  0  0  0  0  0  0  0  0  0
   43.9921   34.1778   43.7591 H   0  0  0  0  0  0  0  0  0  0  0  0
   44.0053   35.7588   44.5706 H   0  0  0  0  0  0  0  0  0  0  0  0
   46.4569   35.2807   45.0929 H   0  0  0  0  0  0  0  0  0  0  0  0
   45.3317   33.9745   45.7752 H   0  0  0  0  0  0  0  0  0  0  0  0
   45.5800   32.8030   43.5270 H   0  0  0  0  0  0  0  0  0  0  0  0
   48.8185   32.8783   42.8905 H   0  0  0  0  0  0  0  0  0  0  0  0
   48.7642   34.2826   41.7750 H   0  0  0  0  0  0  0  0  0  0  0  0
   47.4779   31.5773   41.4603 H   0  0  0  0  0  0  0  0  0  0  0  0
   46.3502   32.9360   41.1932 H   0  0  0  0  0  0  0  0  0  0  0  0
   49.9882   31.5423   37.5698 H   0  0  0  0  0  0  0  0  0  0  0  0
   49.0890   31.0733   39.7599 H   0  0  0  0  0  0  0  0  0  0  0  0
   47.9042   35.2829   37.6361 H   0  0  0  0  0  0  0  0  0  0  0  0
   45.6568   31.9010   46.9642 H   0  0  0  0  0  0  0  0  0  0  0  0
   47.6248   28.9364   46.3912 C   0  0  0  0  0  0  0  0  0  0  0  0
   47.8458   27.6094   45.8612 C   0  0  0  0  0  0  0  0  0  0  0  0
   48.2432   27.5846   44.7884 H   0  0  0  0  0  0  0  0  0  0  0  0
   47.3213   26.5414   47.3325 S   0  0  0  0  0  0  0  0  0  0  0  0
   46.9204   28.1025   48.3369 C   0  0  0  0  0  0  0  0  0  0  0  0
   46.5470   27.9253   49.3545 H   0  0  0  0  0  0  0  0  0  0  0  0
   47.1626   29.0224   47.6358 N   0  0  0  0  0  0  0  0  0  0  0  0
  1  6  1  0
  2  3  1  0
  2  1  1  0
  3  4  1  0
  4  5  1  0
  6 15  1  0
  6  5  1  0
  7  1  1  0
  8  7  1  0
  9 10  2  0
 10 11  1  0
 11  8  1  0
 12 11  2  0
 13 12  1  0
 14 13  2  0
 14  9  1  0
 17 15  1  6
 16 17  2  0
 17 19  1  0
 17 18  1  0
  2 20  1  0
  2 21  1  0
  3 22  1  0
  3 23  1  0
  4 24  1  0
  4 25  1  0
  5 26  1  0
  5 27  1  0
  6 28  1  6
  7 29  1  0
  7 30  1  0
  8 31  1  0
  8 32  1  0
  9 33  1  0
 10 34  1  0
 13 35  1  0
 18 36  1  0
 37 38  2  0
 38 39  1  0
 38 40  1  0
 40 41  1  0
 41 42  1  0
 41 43  2  0
 43 37  1  0
 19 37  1  0
M  ISO  8  20  13  21  13  22  13  23  13  24  13  25  13  26  13  27  13
M  ISO  8  28  13  29   8  30   8  31   8  32   8  33  14  34  14  35  14
M  ISO  3  36   3  39  15  42  16
M  END
>  <DihAtoms>  (1) 
16,18,36,37

>  <DihDeg>  (1) 
0.0031170318101704764

$$$$
