
 OpenBabel03252501173D

 33 36  0  0  1  0  0  0  0  0999 V2000
   38.2310   31.0860   39.9260 C   0  0  1  0  0  0  0  0  0  0  0  0
   37.3460   31.9550   39.1230 C   0  0  0  0  0  0  0  0  0  0  0  0
   37.8620   32.3550   40.5620 C   0  0  2  0  0  0  0  0  0  0  0  0
   39.3050   30.9560   39.6070 H   0  0  0  0  0  0  0  0  0  0  0  0
   37.7020   32.5760   38.3000 H   0  0  0  0  0  0  0  0  0  0  0  0
   36.2460   31.7220   39.1120 H   0  0  0  0  0  0  0  0  0  0  0  0
   37.0770   32.3890   41.3180 H   0  0  0  0  0  0  0  0  0  0  0  0
   37.1060   28.2460   42.0980 C   0  0  0  0  0  0  0  0  0  0  0  0
   37.6960   29.4490   41.7570 C   0  0  0  0  0  0  0  0  0  0  0  0
   37.6190   29.8150   40.4120 C   0  0  0  0  0  0  0  0  0  0  0  0
   36.9930   29.0080   39.5270 N   0  0  0  0  0  0  0  0  0  0  0  0
   36.4300   27.8330   39.9180 C   0  0  0  0  0  0  0  0  0  0  0  0
   36.4910   27.4580   41.2130 N   0  0  0  0  0  0  0  0  0  0  0  0
   38.1960   30.1040   42.4330 H   0  0  0  0  0  0  0  0  0  0  0  0
   35.9210   27.1620   39.2390 H   0  0  0  0  0  0  0  0  0  0  0  0
   37.1590   27.8200   43.5350 C   0  0  0  0  0  0  0  0  0  0  0  0
   37.3520   28.9440   44.3010 F   0  0  0  0  0  0  0  0  0  0  0  0
   38.2490   26.9870   43.6800 F   0  0  0  0  0  0  0  0  0  0  0  0
   35.9870   27.2100   43.9040 F   0  0  0  0  0  0  0  0  0  0  0  0
   38.8960   33.4300   40.4980 C   0  0  0  0  0  0  0  0  0  0  0  0
   38.7020   34.7880   40.2640 C   0  0  0  0  0  0  0  0  0  0  0  0
   39.9920   35.2800   40.3250 C   0  0  0  0  0  0  0  0  0  0  0  0
   40.9050   34.2500   40.5870 C   0  0  0  0  0  0  0  0  0  0  0  0
   40.1570   33.1910   40.6720 O   0  0  0  0  0  0  0  0  0  0  0  0
   37.7780   35.2820   40.0860 H   0  0  0  0  0  0  0  0  0  0  0  0
   40.2720   36.3340   40.1900 H   0  0  0  0  0  0  0  0  0  0  0  0
   42.3590   34.3540   40.7290 C   0  0  0  0  0  0  0  0  0  0  0  0
   43.2360   33.7880   39.7290 C   0  0  0  0  0  0  0  0  0  0  0  0
   42.9000   33.2660   38.8360 H   0  0  0  0  0  0  0  0  0  0  0  0
   44.9040   34.2090   40.4120 S   0  0  0  0  0  0  0  0  0  0  0  0
   44.1200   35.0650   41.9090 C   0  0  0  0  0  0  0  0  0  0  0  0
   44.6470   35.5580   42.7460 H   0  0  0  0  0  0  0  0  0  0  0  0
   42.9480   34.9570   41.7540 N   0  0  0  0  0  0  0  0  0  0  0  0
  1  4  1  6  0  0  0
  1 10  1  0  0  0  0
  1  3  1  0  0  0  0
  2  1  1  0  0  0  0
  2  3  1  0  0  0  0
  3  7  1  1  0  0  0
  5  2  1  0  0  0  0
  6  2  1  0  0  0  0
  8 16  1  0  0  0  0
  9  8  1  0  0  0  0
  9 14  1  0  0  0  0
 10  9  2  0  0  0  0
 11 12  2  0  0  0  0
 11 10  1  0  0  0  0
 12 13  1  0  0  0  0
 13  8  2  0  0  0  0
 15 12  1  0  0  0  0
 16 18  1  0  0  0  0
 16 19  1  0  0  0  0
 16 17  1  0  0  0  0
 20  3  1  0  0  0  0
 20 24  1  0  0  0  0
 21 22  1  0  0  0  0
 21 20  2  0  0  0  0
 22 23  2  0  0  0  0
 23 24  1  0  0  0  0
 23 27  1  0  0  0  0
 25 21  1  0  0  0  0
 26 22  1  0  0  0  0
 27 33  1  0  0  0  0
 28 30  1  0  0  0  0
 28 27  2  0  0  0  0
 29 28  1  0  0  0  0
 30 31  1  0  0  0  0
 31 32  1  0  0  0  0
 33 31  2  0  0  0  0
M  END
>  <minimizedAffinity>
-6.22826672

$$$$

 OpenBabel03252501173D

 33 36  0  0  1  0  0  0  0  0999 V2000
   35.3970   28.6470   39.2490 C   0  0  1  0  0  0  0  0  0  0  0  0
   36.2500   29.3170   38.2460 C   0  0  0  0  0  0  0  0  0  0  0  0
   35.2430   28.1570   37.8750 C   0  0  2  0  0  0  0  0  0  0  0  0
   34.5340   29.2150   39.7000 H   0  0  0  0  0  0  0  0  0  0  0  0
   36.0220   30.2970   37.8240 H   0  0  0  0  0  0  0  0  0  0  0  0
   37.3240   28.9940   38.1650 H   0  0  0  0  0  0  0  0  0  0  0  0
   35.7300   27.2350   37.5570 H   0  0  0  0  0  0  0  0  0  0  0  0
   37.0490   27.4330   42.3860 C   0  0  0  0  0  0  0  0  0  0  0  0
   36.3640   28.2850   41.5410 C   0  0  0  0  0  0  0  0  0  0  0  0
   36.1170   27.8100   40.2520 C   0  0  0  0  0  0  0  0  0  0  0  0
   36.5430   26.5770   39.8940 N   0  0  0  0  0  0  0  0  0  0  0  0
   37.2140   25.7800   40.7670 C   0  0  0  0  0  0  0  0  0  0  0  0
   37.4640   26.2180   42.0190 N   0  0  0  0  0  0  0  0  0  0  0  0
   36.0180   29.2600   41.7960 H   0  0  0  0  0  0  0  0  0  0  0  0
   37.5700   24.7890   40.5170 H   0  0  0  0  0  0  0  0  0  0  0  0
   37.3270   27.9020   43.7840 C   0  0  0  0  0  0  0  0  0  0  0  0
   37.6170   29.2440   43.7280 F   0  0  0  0  0  0  0  0  0  0  0  0
   38.4390   27.2230   44.2350 F   0  0  0  0  0  0  0  0  0  0  0  0
   36.2350   27.7040   44.5890 F   0  0  0  0  0  0  0  0  0  0  0  0
   34.0520   28.6740   37.1390 C   0  0  0  0  0  0  0  0  0  0  0  0
   33.8050   28.6180   35.7710 C   0  0  0  0  0  0  0  0  0  0  0  0
   32.5710   29.2350   35.6730 C   0  0  0  0  0  0  0  0  0  0  0  0
   32.1150   29.6350   36.9360 C   0  0  0  0  0  0  0  0  0  0  0  0
   33.0650   29.2580   37.7390 O   0  0  0  0  0  0  0  0  0  0  0  0
   34.4310   28.1980   35.0220 H   0  0  0  0  0  0  0  0  0  0  0  0
   32.0180   29.3930   34.7380 H   0  0  0  0  0  0  0  0  0  0  0  0
   30.8610   30.3180   37.2620 C   0  0  0  0  0  0  0  0  0  0  0  0
   30.2500   30.1500   38.5610 C   0  0  0  0  0  0  0  0  0  0  0  0
   30.6550   29.5320   39.3590 H   0  0  0  0  0  0  0  0  0  0  0  0
   28.7420   31.2120   38.4070 S   0  0  0  0  0  0  0  0  0  0  0  0
   29.2070   31.6860   36.6320 C   0  0  0  0  0  0  0  0  0  0  0  0
   28.6480   32.3540   35.9520 H   0  0  0  0  0  0  0  0  0  0  0  0
   30.2230   31.1130   36.4120 N   0  0  0  0  0  0  0  0  0  0  0  0
  1  4  1  1  0  0  0
  1 10  1  0  0  0  0
  2  1  1  0  0  0  0
  3  7  1  6  0  0  0
  3  2  1  0  0  0  0
  3  1  1  0  0  0  0
  5  2  1  0  0  0  0
  6  2  1  0  0  0  0
  8 16  1  0  0  0  0
  9 14  1  0  0  0  0
  9  8  2  0  0  0  0
 10  9  1  0  0  0  0
 11 10  2  0  0  0  0
 11 12  1  0  0  0  0
 12 13  2  0  0  0  0
 13  8  1  0  0  0  0
 15 12  1  0  0  0  0
 16 18  1  0  0  0  0
 16 19  1  0  0  0  0
 17 16  1  0  0  0  0
 20 24  1  0  0  0  0
 20  3  1  0  0  0  0
 21 20  2  0  0  0  0
 22 21  1  0  0  0  0
 22 23  2  0  0  0  0
 23 27  1  0  0  0  0
 23 24  1  0  0  0  0
 25 21  1  0  0  0  0
 26 22  1  0  0  0  0
 27 28  2  0  0  0  0
 28 29  1  0  0  0  0
 30 28  1  0  0  0  0
 31 30  1  0  0  0  0
 32 31  1  0  0  0  0
 33 31  2  0  0  0  0
 33 27  1  0  0  0  0
M  END
>  <minimizedAffinity>
-5.83650446

$$$$

 OpenBabel03252501173D

 33 36  0  0  1  0  0  0  0  0999 V2000
   37.9350   31.6810   39.5280 C   0  0  1  0  0  0  0  0  0  0  0  0
   37.2010   32.9320   39.2510 C   0  0  0  0  0  0  0  0  0  0  0  0
   38.3450   32.8340   40.3360 C   0  0  2  0  0  0  0  0  0  0  0  0
   38.6670   31.2950   38.7620 H   0  0  0  0  0  0  0  0  0  0  0  0
   37.4120   33.5740   38.3940 H   0  0  0  0  0  0  0  0  0  0  0  0
   36.1840   33.0610   39.7120 H   0  0  0  0  0  0  0  0  0  0  0  0
   37.9910   32.9460   41.3620 H   0  0  0  0  0  0  0  0  0  0  0  0
   36.7890   28.9130   41.7790 C   0  0  0  0  0  0  0  0  0  0  0  0
   37.6030   29.9140   41.2850 C   0  0  0  0  0  0  0  0  0  0  0  0
   37.1350   30.5900   40.1560 C   0  0  0  0  0  0  0  0  0  0  0  0
   35.9460   30.2490   39.6110 N   0  0  0  0  0  0  0  0  0  0  0  0
   35.1860   29.2540   40.1390 C   0  0  0  0  0  0  0  0  0  0  0  0
   35.6170   28.5870   41.2300 N   0  0  0  0  0  0  0  0  0  0  0  0
   38.5440   30.2030   41.6940 H   0  0  0  0  0  0  0  0  0  0  0  0
   34.2300   28.9540   39.7300 H   0  0  0  0  0  0  0  0  0  0  0  0
   37.2510   28.1680   42.9980 C   0  0  0  0  0  0  0  0  0  0  0  0
   38.2970   27.3580   42.6250 F   0  0  0  0  0  0  0  0  0  0  0  0
   36.2030   27.3790   43.4220 F   0  0  0  0  0  0  0  0  0  0  0  0
   37.6720   29.0400   43.9690 F   0  0  0  0  0  0  0  0  0  0  0  0
   39.5920   33.5220   39.8890 C   0  0  0  0  0  0  0  0  0  0  0  0
   39.9190   34.8680   40.0230 C   0  0  0  0  0  0  0  0  0  0  0  0
   41.1730   34.9200   39.4420 C   0  0  0  0  0  0  0  0  0  0  0  0
   41.5640   33.6540   38.9870 C   0  0  0  0  0  0  0  0  0  0  0  0
   40.5580   32.8930   39.2980 O   0  0  0  0  0  0  0  0  0  0  0  0
   39.3270   35.6300   40.4650 H   0  0  0  0  0  0  0  0  0  0  0  0
   41.7860   35.8270   39.3470 H   0  0  0  0  0  0  0  0  0  0  0  0
   42.8150   33.2870   38.3190 C   0  0  0  0  0  0  0  0  0  0  0  0
   43.9920   34.1120   38.4630 C   0  0  0  0  0  0  0  0  0  0  0  0
   44.0390   35.0260   39.0500 H   0  0  0  0  0  0  0  0  0  0  0  0
   45.2240   33.1890   37.4350 S   0  0  0  0  0  0  0  0  0  0  0  0
   43.9360   31.8690   37.0030 C   0  0  0  0  0  0  0  0  0  0  0  0
   44.0820   30.9780   36.3650 H   0  0  0  0  0  0  0  0  0  0  0  0
   42.9440   32.2060   37.5620 N   0  0  0  0  0  0  0  0  0  0  0  0
  1  4  1  6  0  0  0
  1 10  1  0  0  0  0
  1  3  1  0  0  0  0
  2  1  1  0  0  0  0
  2  6  1  0  0  0  0
  2  3  1  0  0  0  0
  3  7  1  1  0  0  0
  5  2  1  0  0  0  0
  8 16  1  0  0  0  0
  9 14  1  0  0  0  0
  9  8  1  0  0  0  0
 10  9  2  0  0  0  0
 11 12  2  0  0  0  0
 11 10  1  0  0  0  0
 12 13  1  0  0  0  0
 13  8  2  0  0  0  0
 15 12  1  0  0  0  0
 16 18  1  0  0  0  0
 16 19  1  0  0  0  0
 17 16  1  0  0  0  0
 20 21  2  0  0  0  0
 20  3  1  0  0  0  0
 21 25  1  0  0  0  0
 22 21  1  0  0  0  0
 23 24  1  0  0  0  0
 23 22  2  0  0  0  0
 24 20  1  0  0  0  0
 26 22  1  0  0  0  0
 27 28  2  0  0  0  0
 27 23  1  0  0  0  0
 28 29  1  0  0  0  0
 30 28  1  0  0  0  0
 31 30  1  0  0  0  0
 31 33  2  0  0  0  0
 32 31  1  0  0  0  0
 33 27  1  0  0  0  0
M  END
>  <minimizedAffinity>
-5.81259251

$$$$

 OpenBabel03252501173D

 33 36  0  0  1  0  0  0  0  0999 V2000
   35.7890   29.6410   39.2680 C   0  0  1  0  0  0  0  0  0  0  0  0
   36.4820   29.4160   37.9830 C   0  0  0  0  0  0  0  0  0  0  0  0
   35.3800   28.4320   38.5450 C   0  0  2  0  0  0  0  0  0  0  0  0
   35.0400   30.4800   39.3460 H   0  0  0  0  0  0  0  0  0  0  0  0
   36.2250   29.9430   37.0630 H   0  0  0  0  0  0  0  0  0  0  0  0
   37.5120   28.9660   38.0100 H   0  0  0  0  0  0  0  0  0  0  0  0
   35.7680   27.4550   38.8350 H   0  0  0  0  0  0  0  0  0  0  0  0
   37.2720   28.4610   42.5020 C   0  0  0  0  0  0  0  0  0  0  0  0
   36.4390   28.4760   41.3990 C   0  0  0  0  0  0  0  0  0  0  0  0
   36.6370   29.5160   40.4890 C   0  0  0  0  0  0  0  0  0  0  0  0
   37.6030   30.4350   40.7150 N   0  0  0  0  0  0  0  0  0  0  0  0
   38.3940   30.3720   41.8180 C   0  0  0  0  0  0  0  0  0  0  0  0
   38.2210   29.3750   42.7120 N   0  0  0  0  0  0  0  0  0  0  0  0
   35.6700   27.7660   41.1970 H   0  0  0  0  0  0  0  0  0  0  0  0
   39.1760   31.0880   42.0320 H   0  0  0  0  0  0  0  0  0  0  0  0
   37.0970   27.3540   43.5000 C   0  0  0  0  0  0  0  0  0  0  0  0
   36.2320   27.7960   44.4710 F   0  0  0  0  0  0  0  0  0  0  0  0
   38.3290   27.1150   44.0720 F   0  0  0  0  0  0  0  0  0  0  0  0
   36.5780   26.2360   42.8990 F   0  0  0  0  0  0  0  0  0  0  0  0
   34.1020   28.5410   37.7820 C   0  0  0  0  0  0  0  0  0  0  0  0
   33.6960   27.7850   36.6870 C   0  0  0  0  0  0  0  0  0  0  0  0
   32.4490   28.3180   36.4140 C   0  0  0  0  0  0  0  0  0  0  0  0
   32.1390   29.3440   37.3160 C   0  0  0  0  0  0  0  0  0  0  0  0
   33.1830   29.4010   38.0870 O   0  0  0  0  0  0  0  0  0  0  0  0
   34.2360   27.0050   36.2090 H   0  0  0  0  0  0  0  0  0  0  0  0
   31.7860   27.9870   35.6040 H   0  0  0  0  0  0  0  0  0  0  0  0
   30.9210   30.1560   37.3680 C   0  0  0  0  0  0  0  0  0  0  0  0
   30.0130   30.0470   38.4860 C   0  0  0  0  0  0  0  0  0  0  0  0
   30.1570   29.3840   39.3370 H   0  0  0  0  0  0  0  0  0  0  0  0
   28.6990   31.2660   38.0240 S   0  0  0  0  0  0  0  0  0  0  0  0
   29.6080   31.6980   36.4180 C   0  0  0  0  0  0  0  0  0  0  0  0
   29.2920   32.4260   35.6490 H   0  0  0  0  0  0  0  0  0  0  0  0
   30.5820   31.0200   36.4190 N   0  0  0  0  0  0  0  0  0  0  0  0
  1  4  1  1  0  0  0
  1 10  1  0  0  0  0
  2  6  1  0  0  0  0
  2  3  1  0  0  0  0
  2  1  1  0  0  0  0
  3  7  1  1  0  0  0
  3  1  1  0  0  0  0
  5  2  1  0  0  0  0
  8 13  1  0  0  0  0
  8 16  1  0  0  0  0
  9  8  2  0  0  0  0
 10 11  2  0  0  0  0
 10  9  1  0  0  0  0
 11 12  1  0  0  0  0
 12 15  1  0  0  0  0
 12 13  2  0  0  0  0
 14  9  1  0  0  0  0
 16 18  1  0  0  0  0
 16 17  1  0  0  0  0
 19 16  1  0  0  0  0
 20 24  1  0  0  0  0
 20  3  1  0  0  0  0
 21 20  2  0  0  0  0
 22 21  1  0  0  0  0
 22 23  2  0  0  0  0
 23 27  1  0  0  0  0
 23 24  1  0  0  0  0
 25 21  1  0  0  0  0
 26 22  1  0  0  0  0
 27 28  2  0  0  0  0
 28 29  1  0  0  0  0
 30 28  1  0  0  0  0
 31 33  2  0  0  0  0
 31 30  1  0  0  0  0
 32 31  1  0  0  0  0
 33 27  1  0  0  0  0
M  END
>  <minimizedAffinity>
-5.55877829

$$$$

 OpenBabel03252501173D

 33 36  0  0  1  0  0  0  0  0999 V2000
   38.6860   30.1380   40.8600 C   0  0  1  0  0  0  0  0  0  0  0  0
   37.8800   30.5290   39.6860 C   0  0  0  0  0  0  0  0  0  0  0  0
   38.0860   31.4740   40.9350 C   0  0  2  0  0  0  0  0  0  0  0  0
   39.8070   30.0750   40.7570 H   0  0  0  0  0  0  0  0  0  0  0  0
   38.3170   30.8780   38.7480 H   0  0  0  0  0  0  0  0  0  0  0  0
   36.8280   30.1380   39.6130 H   0  0  0  0  0  0  0  0  0  0  0  0
   37.1780   31.6420   41.5150 H   0  0  0  0  0  0  0  0  0  0  0  0
   37.3880   26.8120   42.0000 C   0  0  0  0  0  0  0  0  0  0  0  0
   37.9250   27.7590   41.1490 C   0  0  0  0  0  0  0  0  0  0  0  0
   38.1240   29.0320   41.6880 C   0  0  0  0  0  0  0  0  0  0  0  0
   37.7970   29.2770   42.9760 N   0  0  0  0  0  0  0  0  0  0  0  0
   37.2710   28.3060   43.7690 C   0  0  0  0  0  0  0  0  0  0  0  0
   37.0690   27.0680   43.2700 N   0  0  0  0  0  0  0  0  0  0  0  0
   38.1910   27.5940   40.1300 H   0  0  0  0  0  0  0  0  0  0  0  0
   36.9960   28.4650   44.8040 H   0  0  0  0  0  0  0  0  0  0  0  0
   37.1660   25.4290   41.4610 C   0  0  0  0  0  0  0  0  0  0  0  0
   36.5010   24.7050   42.4210 F   0  0  0  0  0  0  0  0  0  0  0  0
   38.4060   24.8620   41.2520 F   0  0  0  0  0  0  0  0  0  0  0  0
   36.4140   25.4690   40.3150 F   0  0  0  0  0  0  0  0  0  0  0  0
   39.0040   32.6090   40.6240 C   0  0  0  0  0  0  0  0  0  0  0  0
   38.6750   33.8470   40.0820 C   0  0  0  0  0  0  0  0  0  0  0  0
   39.9060   34.4750   40.0270 C   0  0  0  0  0  0  0  0  0  0  0  0
   40.9150   33.6370   40.5200 C   0  0  0  0  0  0  0  0  0  0  0  0
   40.2780   32.5520   40.8470 O   0  0  0  0  0  0  0  0  0  0  0  0
   37.7100   34.1860   39.7940 H   0  0  0  0  0  0  0  0  0  0  0  0
   40.0780   35.4930   39.6510 H   0  0  0  0  0  0  0  0  0  0  0  0
   42.3460   33.9250   40.6330 C   0  0  0  0  0  0  0  0  0  0  0  0
   43.2690   33.4660   39.6200 C   0  0  0  0  0  0  0  0  0  0  0  0
   42.9860   32.8970   38.7370 H   0  0  0  0  0  0  0  0  0  0  0  0
   44.8820   34.1000   40.2680 S   0  0  0  0  0  0  0  0  0  0  0  0
   44.0240   34.8640   41.7750 C   0  0  0  0  0  0  0  0  0  0  0  0
   44.5000   35.4260   42.5980 H   0  0  0  0  0  0  0  0  0  0  0  0
   42.8730   34.6060   41.6420 N   0  0  0  0  0  0  0  0  0  0  0  0
  1  4  1  6  0  0  0
  1  3  1  0  0  0  0
  1 10  1  0  0  0  0
  2  1  1  0  0  0  0
  2  3  1  0  0  0  0
  3  7  1  1  0  0  0
  5  2  1  0  0  0  0
  6  2  1  0  0  0  0
  8 13  1  0  0  0  0
  9 10  1  0  0  0  0
  9  8  2  0  0  0  0
 10 11  2  0  0  0  0
 11 12  1  0  0  0  0
 12 15  1  0  0  0  0
 13 12  2  0  0  0  0
 14  9  1  0  0  0  0
 16  8  1  0  0  0  0
 16 17  1  0  0  0  0
 18 16  1  0  0  0  0
 19 16  1  0  0  0  0
 20 24  1  0  0  0  0
 20  3  1  0  0  0  0
 21 20  2  0  0  0  0
 22 21  1  0  0  0  0
 22 23  2  0  0  0  0
 23 27  1  0  0  0  0
 23 24  1  0  0  0  0
 25 21  1  0  0  0  0
 26 22  1  0  0  0  0
 27 33  1  0  0  0  0
 28 30  1  0  0  0  0
 28 27  2  0  0  0  0
 29 28  1  0  0  0  0
 30 31  1  0  0  0  0
 31 32  1  0  0  0  0
 33 31  2  0  0  0  0
M  END
>  <minimizedAffinity>
-5.51036072

$$$$

 OpenBabel03252501173D

 33 36  0  0  1  0  0  0  0  0999 V2000
   39.3900   30.4840   41.3140 C   0  0  1  0  0  0  0  0  0  0  0  0
   40.2800   30.0300   42.4010 C   0  0  0  0  0  0  0  0  0  0  0  0
   38.7230   30.2160   42.5920 C   0  0  2  0  0  0  0  0  0  0  0  0
   39.1720   29.7840   40.4570 H   0  0  0  0  0  0  0  0  0  0  0  0
   40.6510   29.0070   42.4850 H   0  0  0  0  0  0  0  0  0  0  0  0
   40.8760   30.8060   42.9540 H   0  0  0  0  0  0  0  0  0  0  0  0
   38.4570   31.0360   43.2610 H   0  0  0  0  0  0  0  0  0  0  0  0
   40.9200   33.6960   40.1360 C   0  0  0  0  0  0  0  0  0  0  0  0
   40.8510   32.3710   40.5260 C   0  0  0  0  0  0  0  0  0  0  0  0
   39.5840   31.8930   40.8660 C   0  0  0  0  0  0  0  0  0  0  0  0
   38.5130   32.7160   40.8030 N   0  0  0  0  0  0  0  0  0  0  0  0
   38.6400   34.0120   40.4130 C   0  0  0  0  0  0  0  0  0  0  0  0
   39.8540   34.4960   40.0780 N   0  0  0  0  0  0  0  0  0  0  0  0
   41.6780   31.7020   40.5860 H   0  0  0  0  0  0  0  0  0  0  0  0
   37.8060   34.6990   40.3500 H   0  0  0  0  0  0  0  0  0  0  0  0
   42.2630   34.2460   39.7540 C   0  0  0  0  0  0  0  0  0  0  0  0
   43.1020   33.1840   39.5190 F   0  0  0  0  0  0  0  0  0  0  0  0
   42.7380   34.9630   40.8320 F   0  0  0  0  0  0  0  0  0  0  0  0
   42.1680   35.0140   38.6210 F   0  0  0  0  0  0  0  0  0  0  0  0
   38.0180   28.9050   42.6880 C   0  0  0  0  0  0  0  0  0  0  0  0
   37.4140   28.3400   43.8070 C   0  0  0  0  0  0  0  0  0  0  0  0
   36.9290   27.1470   43.3040 C   0  0  0  0  0  0  0  0  0  0  0  0
   37.2360   27.0200   41.9430 C   0  0  0  0  0  0  0  0  0  0  0  0
   37.8840   28.1130   41.6720 O   0  0  0  0  0  0  0  0  0  0  0  0
   37.3620   28.7540   44.7850 H   0  0  0  0  0  0  0  0  0  0  0  0
   36.3760   26.3970   43.8850 H   0  0  0  0  0  0  0  0  0  0  0  0
   36.9010   25.9110   41.0470 C   0  0  0  0  0  0  0  0  0  0  0  0
   36.9200   24.5480   41.5280 C   0  0  0  0  0  0  0  0  0  0  0  0
   37.1740   24.2540   42.5440 H   0  0  0  0  0  0  0  0  0  0  0  0
   36.4300   23.6090   40.0110 S   0  0  0  0  0  0  0  0  0  0  0  0
   36.2880   25.2130   39.0130 C   0  0  0  0  0  0  0  0  0  0  0  0
   36.0060   25.3130   37.9490 H   0  0  0  0  0  0  0  0  0  0  0  0
   36.5670   26.0800   39.7740 N   0  0  0  0  0  0  0  0  0  0  0  0
  1  4  1  6  0  0  0
  1  2  1  0  0  0  0
  1  3  1  0  0  0  0
  2  5  1  0  0  0  0
  2  3  1  0  0  0  0
  2  6  1  0  0  0  0
  3 20  1  0  0  0  0
  3  7  1  1  0  0  0
  8  9  1  0  0  0  0
  9 14  1  0  0  0  0
  9 10  2  0  0  0  0
 10  1  1  0  0  0  0
 11 10  1  0  0  0  0
 12 11  2  0  0  0  0
 13  8  2  0  0  0  0
 13 12  1  0  0  0  0
 15 12  1  0  0  0  0
 16  8  1  0  0  0  0
 16 18  1  0  0  0  0
 17 16  1  0  0  0  0
 19 16  1  0  0  0  0
 20 21  2  0  0  0  0
 21 25  1  0  0  0  0
 22 21  1  0  0  0  0
 22 26  1  0  0  0  0
 23 22  2  0  0  0  0
 24 23  1  0  0  0  0
 24 20  1  0  0  0  0
 27 28  2  0  0  0  0
 27 23  1  0  0  0  0
 28 29  1  0  0  0  0
 30 28  1  0  0  0  0
 31 33  2  0  0  0  0
 31 30  1  0  0  0  0
 32 31  1  0  0  0  0
 33 27  1  0  0  0  0
M  END
>  <minimizedAffinity>
-5.50708914

$$$$

 OpenBabel03252501173D

 33 36  0  0  1  0  0  0  0  0999 V2000
   37.9900   30.0540   40.4990 C   0  0  1  0  0  0  0  0  0  0  0  0
   36.9040   30.5860   39.6530 C   0  0  0  0  0  0  0  0  0  0  0  0
   37.5170   31.3920   40.8650 C   0  0  2  0  0  0  0  0  0  0  0  0
   39.0280   29.9680   40.0670 H   0  0  0  0  0  0  0  0  0  0  0  0
   37.0700   31.0150   38.6630 H   0  0  0  0  0  0  0  0  0  0  0  0
   35.8550   30.2360   39.8580 H   0  0  0  0  0  0  0  0  0  0  0  0
   36.8260   31.5280   41.6980 H   0  0  0  0  0  0  0  0  0  0  0  0
   37.1610   26.5990   41.6910 C   0  0  0  0  0  0  0  0  0  0  0  0
   37.5120   27.6050   40.8120 C   0  0  0  0  0  0  0  0  0  0  0  0
   37.6290   28.8870   41.3550 C   0  0  0  0  0  0  0  0  0  0  0  0
   37.4020   29.0840   42.6730 N   0  0  0  0  0  0  0  0  0  0  0  0
   37.0580   28.0550   43.4930 C   0  0  0  0  0  0  0  0  0  0  0  0
   36.9400   26.8080   42.9910 N   0  0  0  0  0  0  0  0  0  0  0  0
   37.6960   27.4790   39.7700 H   0  0  0  0  0  0  0  0  0  0  0  0
   36.8690   28.1750   44.5520 H   0  0  0  0  0  0  0  0  0  0  0  0
   37.0340   25.2050   41.1500 C   0  0  0  0  0  0  0  0  0  0  0  0
   36.2190   25.2560   40.0440 F   0  0  0  0  0  0  0  0  0  0  0  0
   36.4240   24.4380   42.1200 F   0  0  0  0  0  0  0  0  0  0  0  0
   38.2610   24.7090   40.7910 F   0  0  0  0  0  0  0  0  0  0  0  0
   38.3690   32.5250   40.4000 C   0  0  0  0  0  0  0  0  0  0  0  0
   38.0200   33.8680   40.2910 C   0  0  0  0  0  0  0  0  0  0  0  0
   39.1910   34.4350   39.8230 C   0  0  0  0  0  0  0  0  0  0  0  0
   40.1860   33.4620   39.6640 C   0  0  0  0  0  0  0  0  0  0  0  0
   39.6000   32.3620   40.0310 O   0  0  0  0  0  0  0  0  0  0  0  0
   37.0800   34.3060   40.5210 H   0  0  0  0  0  0  0  0  0  0  0  0
   39.3300   35.5020   39.6030 H   0  0  0  0  0  0  0  0  0  0  0  0
   41.5600   33.6510   39.1930 C   0  0  0  0  0  0  0  0  0  0  0  0
   42.6780   33.4140   40.0780 C   0  0  0  0  0  0  0  0  0  0  0  0
   42.5900   33.0920   41.1130 H   0  0  0  0  0  0  0  0  0  0  0  0
   44.1150   33.8000   38.9770 S   0  0  0  0  0  0  0  0  0  0  0  0
   42.9550   34.2070   37.5360 C   0  0  0  0  0  0  0  0  0  0  0  0
   43.2430   34.5300   36.5190 H   0  0  0  0  0  0  0  0  0  0  0  0
   41.8590   34.0410   37.9610 N   0  0  0  0  0  0  0  0  0  0  0  0
  1  4  1  6  0  0  0
  1  3  1  0  0  0  0
  1 10  1  0  0  0  0
  2  6  1  0  0  0  0
  2  1  1  0  0  0  0
  2  3  1  0  0  0  0
  3  7  1  1  0  0  0
  5  2  1  0  0  0  0
  8 13  1  0  0  0  0
  9 10  1  0  0  0  0
  9  8  2  0  0  0  0
 10 11  2  0  0  0  0
 11 12  1  0  0  0  0
 12 15  1  0  0  0  0
 13 12  2  0  0  0  0
 14  9  1  0  0  0  0
 16  8  1  0  0  0  0
 16 18  1  0  0  0  0
 17 16  1  0  0  0  0
 19 16  1  0  0  0  0
 20  3  1  0  0  0  0
 21 20  2  0  0  0  0
 21 25  1  0  0  0  0
 22 21  1  0  0  0  0
 23 22  2  0  0  0  0
 23 24  1  0  0  0  0
 24 20  1  0  0  0  0
 26 22  1  0  0  0  0
 27 23  1  0  0  0  0
 27 28  2  0  0  0  0
 28 29  1  0  0  0  0
 30 28  1  0  0  0  0
 31 33  2  0  0  0  0
 31 30  1  0  0  0  0
 32 31  1  0  0  0  0
 33 27  1  0  0  0  0
M  END
>  <minimizedAffinity>
-5.48088598

$$$$

 OpenBabel03252501173D

 33 36  0  0  1  0  0  0  0  0999 V2000
   37.7270   29.7010   39.1110 C   0  0  1  0  0  0  0  0  0  0  0  0
   36.8870   30.3900   38.1110 C   0  0  0  0  0  0  0  0  0  0  0  0
   36.9640   30.8440   39.6220 C   0  0  2  0  0  0  0  0  0  0  0  0
   38.8480   29.8080   39.0500 H   0  0  0  0  0  0  0  0  0  0  0  0
   37.2820   31.0980   37.3800 H   0  0  0  0  0  0  0  0  0  0  0  0
   35.8920   29.9330   37.8520 H   0  0  0  0  0  0  0  0  0  0  0  0
   36.0390   30.6890   40.1770 H   0  0  0  0  0  0  0  0  0  0  0  0
   37.0100   26.5400   40.9910 C   0  0  0  0  0  0  0  0  0  0  0  0
   37.4210   27.8410   40.7740 C   0  0  0  0  0  0  0  0  0  0  0  0
   37.3030   28.3160   39.4660 C   0  0  0  0  0  0  0  0  0  0  0  0
   36.8100   27.5110   38.4980 N   0  0  0  0  0  0  0  0  0  0  0  0
   36.4210   26.2370   38.7680 C   0  0  0  0  0  0  0  0  0  0  0  0
   36.5240   25.7560   40.0250 N   0  0  0  0  0  0  0  0  0  0  0  0
   37.8140   28.4960   41.5170 H   0  0  0  0  0  0  0  0  0  0  0  0
   36.0220   25.5650   38.0200 H   0  0  0  0  0  0  0  0  0  0  0  0
   37.1110   25.9940   42.3850 C   0  0  0  0  0  0  0  0  0  0  0  0
   36.4110   26.8330   43.2180 F   0  0  0  0  0  0  0  0  0  0  0  0
   38.4430   26.0180   42.7430 F   0  0  0  0  0  0  0  0  0  0  0  0
   36.5780   24.7320   42.4530 F   0  0  0  0  0  0  0  0  0  0  0  0
   37.7340   32.1130   39.7780 C   0  0  0  0  0  0  0  0  0  0  0  0
   37.2620   33.4170   39.6660 C   0  0  0  0  0  0  0  0  0  0  0  0
   38.4010   34.1600   39.9130 C   0  0  0  0  0  0  0  0  0  0  0  0
   39.4970   33.3230   40.1610 C   0  0  0  0  0  0  0  0  0  0  0  0
   38.9990   32.1270   40.0570 O   0  0  0  0  0  0  0  0  0  0  0  0
   36.2690   33.7230   39.4440 H   0  0  0  0  0  0  0  0  0  0  0  0
   38.4500   35.2580   39.9170 H   0  0  0  0  0  0  0  0  0  0  0  0
   40.8750   33.7150   40.4640 C   0  0  0  0  0  0  0  0  0  0  0  0
   41.9590   32.7740   40.2960 C   0  0  0  0  0  0  0  0  0  0  0  0
   41.8410   31.7500   39.9480 H   0  0  0  0  0  0  0  0  0  0  0  0
   43.4190   33.7880   40.8120 S   0  0  0  0  0  0  0  0  0  0  0  0
   42.3100   35.2840   41.1570 C   0  0  0  0  0  0  0  0  0  0  0  0
   42.6270   36.2780   41.5210 H   0  0  0  0  0  0  0  0  0  0  0  0
   41.2090   34.9230   40.9000 N   0  0  0  0  0  0  0  0  0  0  0  0
  1  4  1  6  0  0  0
  1 10  1  0  0  0  0
  1  3  1  0  0  0  0
  2  1  1  0  0  0  0
  2  3  1  0  0  0  0
  3 20  1  0  0  0  0
  3  7  1  1  0  0  0
  5  2  1  0  0  0  0
  6  2  1  0  0  0  0
  8 16  1  0  0  0  0
  9  8  1  0  0  0  0
  9 14  1  0  0  0  0
 10  9  2  0  0  0  0
 11 12  2  0  0  0  0
 11 10  1  0  0  0  0
 12 13  1  0  0  0  0
 13  8  2  0  0  0  0
 15 12  1  0  0  0  0
 16 19  1  0  0  0  0
 16 18  1  0  0  0  0
 16 17  1  0  0  0  0
 20 24  1  0  0  0  0
 21 20  2  0  0  0  0
 21 22  1  0  0  0  0
 22 26  1  0  0  0  0
 22 23  2  0  0  0  0
 23 27  1  0  0  0  0
 24 23  1  0  0  0  0
 25 21  1  0  0  0  0
 27 33  1  0  0  0  0
 28 27  2  0  0  0  0
 28 30  1  0  0  0  0
 29 28  1  0  0  0  0
 30 31  1  0  0  0  0
 31 32  1  0  0  0  0
 33 31  2  0  0  0  0
M  END
>  <minimizedAffinity>
-5.4544878

$$$$

 OpenBabel03252501173D

 33 36  0  0  1  0  0  0  0  0999 V2000
   40.0870   29.7550   41.6460 C   0  0  1  0  0  0  0  0  0  0  0  0
   40.6820   29.1040   42.8310 C   0  0  0  0  0  0  0  0  0  0  0  0
   39.1830   29.6030   42.7910 C   0  0  2  0  0  0  0  0  0  0  0  0
   39.8750   29.1340   40.7290 H   0  0  0  0  0  0  0  0  0  0  0  0
   40.8210   28.0250   42.9150 H   0  0  0  0  0  0  0  0  0  0  0  0
   41.3230   29.7280   43.5110 H   0  0  0  0  0  0  0  0  0  0  0  0
   38.9820   30.4460   43.4530 H   0  0  0  0  0  0  0  0  0  0  0  0
   40.3880   33.3530   40.6400 C   0  0  0  0  0  0  0  0  0  0  0  0
   39.7810   32.1480   40.9410 C   0  0  0  0  0  0  0  0  0  0  0  0
   40.6300   31.1040   41.3110 C   0  0  0  0  0  0  0  0  0  0  0  0
   41.9660   31.3040   41.3590 N   0  0  0  0  0  0  0  0  0  0  0  0
   42.5100   32.5120   41.0510 C   0  0  0  0  0  0  0  0  0  0  0  0
   41.7090   33.5370   40.6910 N   0  0  0  0  0  0  0  0  0  0  0  0
   38.7320   31.9620   40.9110 H   0  0  0  0  0  0  0  0  0  0  0  0
   43.5740   32.7100   41.0780 H   0  0  0  0  0  0  0  0  0  0  0  0
   39.5100   34.5040   40.2460 C   0  0  0  0  0  0  0  0  0  0  0  0
   39.2700   35.2550   41.3710 F   0  0  0  0  0  0  0  0  0  0  0  0
   38.3170   33.9790   39.7950 F   0  0  0  0  0  0  0  0  0  0  0  0
   40.1260   35.2830   39.2990 F   0  0  0  0  0  0  0  0  0  0  0  0
   38.2230   28.4640   42.7050 C   0  0  0  0  0  0  0  0  0  0  0  0
   37.3420   28.0150   43.6840 C   0  0  0  0  0  0  0  0  0  0  0  0
   36.7180   26.9570   43.0490 C   0  0  0  0  0  0  0  0  0  0  0  0
   37.2130   26.7950   41.7490 C   0  0  0  0  0  0  0  0  0  0  0  0
   38.1030   27.7360   41.6410 O   0  0  0  0  0  0  0  0  0  0  0  0
   37.2130   28.4120   44.6610 H   0  0  0  0  0  0  0  0  0  0  0  0
   35.9380   26.3260   43.4960 H   0  0  0  0  0  0  0  0  0  0  0  0
   36.8150   25.7960   40.7550 C   0  0  0  0  0  0  0  0  0  0  0  0
   36.6170   26.1730   39.3740 C   0  0  0  0  0  0  0  0  0  0  0  0
   36.7410   27.1820   38.9850 H   0  0  0  0  0  0  0  0  0  0  0  0
   36.1410   24.5570   38.6080 S   0  0  0  0  0  0  0  0  0  0  0  0
   36.2960   23.6740   40.2770 C   0  0  0  0  0  0  0  0  0  0  0  0
   36.1230   22.6020   40.4830 H   0  0  0  0  0  0  0  0  0  0  0  0
   36.6180   24.5170   41.0480 N   0  0  0  0  0  0  0  0  0  0  0  0
  1  4  1  6  0  0  0
  1  3  1  0  0  0  0
  1  2  1  0  0  0  0
  2  5  1  0  0  0  0
  2  6  1  0  0  0  0
  3  2  1  0  0  0  0
  3  7  1  1  0  0  0
  8 13  2  0  0  0  0
  8  9  1  0  0  0  0
  9 10  2  0  0  0  0
 10 11  1  0  0  0  0
 10  1  1  0  0  0  0
 12 15  1  0  0  0  0
 12 11  2  0  0  0  0
 13 12  1  0  0  0  0
 14  9  1  0  0  0  0
 16  8  1  0  0  0  0
 16 17  1  0  0  0  0
 18 16  1  0  0  0  0
 19 16  1  0  0  0  0
 20  3  1  0  0  0  0
 20 21  2  0  0  0  0
 21 25  1  0  0  0  0
 22 26  1  0  0  0  0
 22 21  1  0  0  0  0
 23 22  2  0  0  0  0
 24 23  1  0  0  0  0
 24 20  1  0  0  0  0
 27 33  1  0  0  0  0
 27 23  1  0  0  0  0
 28 27  2  0  0  0  0
 29 28  1  0  0  0  0
 30 28  1  0  0  0  0
 30 31  1  0  0  0  0
 31 32  1  0  0  0  0
 31 33  2  0  0  0  0
M  END
>  <minimizedAffinity>
-5.32891655

$$$$
