
 OpenBabel03252502053D

 44 48  0  0  0  0  0  0  0  0999 V2000
   37.3480   32.2720   40.2150 C   0  0  0  0  0  0  0  0  0  0  0  0
   37.0820   31.1350   40.9690 C   0  0  0  0  0  0  0  0  0  0  0  0
   38.1540   30.4420   41.4160 C   0  0  0  0  0  0  0  0  0  0  0  0
   39.4010   30.8480   41.1420 N   0  0  0  0  0  0  0  0  0  0  0  0
   39.6690   31.9390   40.4260 C   0  0  0  0  0  0  0  0  0  0  0  0
   38.6080   32.6340   39.9700 N   0  0  0  0  0  0  0  0  0  0  0  0
   38.0000   29.2790   42.1540 N   0  0  0  0  0  0  0  0  0  0  0  0
   39.0690   28.3110   42.4820 C   0  0  0  0  0  0  0  0  0  0  0  0
   38.4820   27.3990   43.5240 C   0  0  0  0  0  0  0  0  0  0  0  0
   37.0110   27.4440   43.2360 C   0  0  0  0  0  0  0  0  0  0  0  0
   36.7570   28.8080   42.7230 C   0  0  0  0  0  0  0  0  0  0  0  0
   36.5020   32.8480   39.8390 H   0  0  0  0  0  0  0  0  0  0  0  0
   39.9670   28.8300   42.8530 H   0  0  0  0  0  0  0  0  0  0  0  0
   39.2520   27.7540   41.5260 H   0  0  0  0  0  0  0  0  0  0  0  0
   38.8800   26.3680   43.4740 H   0  0  0  0  0  0  0  0  0  0  0  0
   38.6800   27.8080   44.5280 H   0  0  0  0  0  0  0  0  0  0  0  0
   36.4250   27.2590   44.1820 H   0  0  0  0  0  0  0  0  0  0  0  0
   36.7850   26.6080   42.5620 H   0  0  0  0  0  0  0  0  0  0  0  0
   36.3750   29.5180   43.4510 H   0  0  0  0  0  0  0  0  0  0  0  0
   36.0540   28.6190   41.8860 H   0  0  0  0  0  0  0  0  0  0  0  0
   40.9390   32.5610   40.0340 C   0  0  0  0  0  0  0  0  0  0  0  0
   41.5120   33.5720   40.7480 N   0  0  0  0  0  0  0  0  0  0  0  0
   42.6650   34.1590   40.4440 C   0  0  0  0  0  0  0  0  0  0  0  0
   43.3540   33.7530   39.3550 N   0  0  0  0  0  0  0  0  0  0  0  0
   42.8870   32.7610   38.5730 C   0  0  0  0  0  0  0  0  0  0  0  0
   43.5970   32.3600   37.4750 C   0  0  0  0  0  0  0  0  0  0  0  0
   43.1400   31.3630   36.6740 C   0  0  0  0  0  0  0  0  0  0  0  0
   41.9340   30.7710   37.0120 C   0  0  0  0  0  0  0  0  0  0  0  0
   41.2510   31.2110   38.1350 C   0  0  0  0  0  0  0  0  0  0  0  0
   41.6840   32.2020   38.9520 C   0  0  0  0  0  0  0  0  0  0  0  0
   43.0750   34.9590   41.0460 H   0  0  0  0  0  0  0  0  0  0  0  0
   44.5360   32.8840   37.2850 H   0  0  0  0  0  0  0  0  0  0  0  0
   43.7780   31.1260   35.8370 H   0  0  0  0  0  0  0  0  0  0  0  0
   41.6910   29.9960   36.2930 H   0  0  0  0  0  0  0  0  0  0  0  0
   40.0190   30.4260   38.1630 C   0  0  0  0  0  0  0  0  0  0  0  0
   40.3670   28.9780   38.7780 C   0  0  0  0  0  0  0  0  0  0  0  0
   41.3860   28.6110   39.1240 H   0  0  0  0  0  0  0  0  0  0  0  0
   38.7580   28.1220   38.7740 S   0  0  0  0  0  0  0  0  0  0  0  0
   37.8960   29.6500   38.0240 C   0  0  0  0  0  0  0  0  0  0  0  0
   36.8330   29.7590   37.7670 H   0  0  0  0  0  0  0  0  0  0  0  0
   38.7470   30.4720   37.8870 N   0  0  0  0  0  0  0  0  0  0  0  0
   35.7650   30.8290   41.2780 N   0  0  0  0  0  0  0  0  0  0  0  0
   35.4790   30.3370   40.3810 H   0  0  0  0  0  0  0  0  0  0  0  0
   35.1580   30.9970   42.1050 H   0  0  0  0  0  0  0  0  0  0  0  0
  1  2  1  0  0  0  0
  2 42  1  0  0  0  0
  2  3  2  0  0  0  0
  3  7  1  0  0  0  0
  4  3  1  0  0  0  0
  5  4  2  0  0  0  0
  6  1  2  0  0  0  0
  6  5  1  0  0  0  0
  7  8  1  0  0  0  0
  7 11  1  0  0  0  0
  8 13  1  0  0  0  0
  8  9  1  0  0  0  0
  9 16  1  0  0  0  0
 10  9  1  0  0  0  0
 10 17  1  0  0  0  0
 11 10  1  0  0  0  0
 11 19  1  0  0  0  0
 12  1  1  0  0  0  0
 14  8  1  0  0  0  0
 15  9  1  0  0  0  0
 18 10  1  0  0  0  0
 20 11  1  0  0  0  0
 21  5  1  0  0  0  0
 21 22  1  0  0  0  0
 23 22  2  0  0  0  0
 23 31  1  0  0  0  0
 24 23  1  0  0  0  0
 25 30  1  0  0  0  0
 25 24  2  0  0  0  0
 26 25  1  0  0  0  0
 27 28  1  0  0  0  0
 27 26  2  0  0  0  0
 28 29  2  0  0  0  0
 29 35  1  0  0  0  0
 29 30  1  0  0  0  0
 30 21  2  0  0  0  0
 32 26  1  0  0  0  0
 33 27  1  0  0  0  0
 34 28  1  0  0  0  0
 35 36  2  0  0  0  0
 36 37  1  0  0  0  0
 38 36  1  0  0  0  0
 39 38  1  0  0  0  0
 40 39  1  0  0  0  0
 41 39  2  0  0  0  0
 41 35  1  0  0  0  0
 42 44  1  0  0  0  0
 43 42  1  0  0  0  0
M  END
>  <minimizedAffinity>
-6.5972805

$$$$

 OpenBabel03252502053D

 44 48  0  0  0  0  0  0  0  0999 V2000
   37.3480   30.5480   37.4760 C   0  0  0  0  0  0  0  0  0  0  0  0
   38.5810   31.1780   37.3520 C   0  0  0  0  0  0  0  0  0  0  0  0
   39.6140   30.6210   38.0230 C   0  0  0  0  0  0  0  0  0  0  0  0
   39.4430   29.5160   38.7600 N   0  0  0  0  0  0  0  0  0  0  0  0
   38.2680   28.8990   38.8820 C   0  0  0  0  0  0  0  0  0  0  0  0
   37.2290   29.4490   38.2220 N   0  0  0  0  0  0  0  0  0  0  0  0
   40.8800   31.1850   37.9880 N   0  0  0  0  0  0  0  0  0  0  0  0
   42.0160   30.8230   38.8630 C   0  0  0  0  0  0  0  0  0  0  0  0
   43.2210   31.4850   38.2540 C   0  0  0  0  0  0  0  0  0  0  0  0
   42.6430   32.6710   37.5410 C   0  0  0  0  0  0  0  0  0  0  0  0
   41.3010   32.2380   37.0910 C   0  0  0  0  0  0  0  0  0  0  0  0
   36.4970   30.9770   36.9480 H   0  0  0  0  0  0  0  0  0  0  0  0
   42.1350   29.7290   38.9170 H   0  0  0  0  0  0  0  0  0  0  0  0
   41.7700   31.2840   39.8550 H   0  0  0  0  0  0  0  0  0  0  0  0
   43.9780   31.7840   39.0020 H   0  0  0  0  0  0  0  0  0  0  0  0
   43.6910   30.8030   37.5270 H   0  0  0  0  0  0  0  0  0  0  0  0
   43.2890   32.9460   36.6580 H   0  0  0  0  0  0  0  0  0  0  0  0
   42.6850   33.5210   38.2330 H   0  0  0  0  0  0  0  0  0  0  0  0
   41.2380   31.9090   36.0570 H   0  0  0  0  0  0  0  0  0  0  0  0
   40.6810   33.1310   37.3040 H   0  0  0  0  0  0  0  0  0  0  0  0
   37.8730   27.6870   39.6090 C   0  0  0  0  0  0  0  0  0  0  0  0
   37.8220   26.4590   39.0170 N   0  0  0  0  0  0  0  0  0  0  0  0
   37.4850   25.3310   39.6340 C   0  0  0  0  0  0  0  0  0  0  0  0
   37.1630   25.3580   40.9460 N   0  0  0  0  0  0  0  0  0  0  0  0
   37.1790   26.5140   41.6370 C   0  0  0  0  0  0  0  0  0  0  0  0
   36.8520   26.5240   42.9650 C   0  0  0  0  0  0  0  0  0  0  0  0
   36.8620   27.6810   43.6770 C   0  0  0  0  0  0  0  0  0  0  0  0
   37.2140   28.8420   43.0090 C   0  0  0  0  0  0  0  0  0  0  0  0
   37.5370   28.7820   41.6630 C   0  0  0  0  0  0  0  0  0  0  0  0
   37.5380   27.6420   40.9290 C   0  0  0  0  0  0  0  0  0  0  0  0
   37.4600   24.3830   39.1150 H   0  0  0  0  0  0  0  0  0  0  0  0
   36.5870   25.5620   43.4090 H   0  0  0  0  0  0  0  0  0  0  0  0
   36.5900   27.5750   44.7150 H   0  0  0  0  0  0  0  0  0  0  0  0
   37.1800   29.6840   43.6930 H   0  0  0  0  0  0  0  0  0  0  0  0
   37.7970   30.1650   41.2710 C   0  0  0  0  0  0  0  0  0  0  0  0
   39.2970   30.5360   41.7270 C   0  0  0  0  0  0  0  0  0  0  0  0
   40.0330   29.8580   42.2690 H   0  0  0  0  0  0  0  0  0  0  0  0
   39.4930   32.2580   41.1670 S   0  0  0  0  0  0  0  0  0  0  0  0
   37.7220   32.2770   40.4580 C   0  0  0  0  0  0  0  0  0  0  0  0
   37.2140   33.1080   39.9490 H   0  0  0  0  0  0  0  0  0  0  0  0
   37.2700   31.1980   40.6800 N   0  0  0  0  0  0  0  0  0  0  0  0
   38.6920   32.2700   36.5040 N   0  0  0  0  0  0  0  0  0  0  0  0
   38.3330   33.0350   37.1460 H   0  0  0  0  0  0  0  0  0  0  0  0
   39.0110   32.3930   35.5220 H   0  0  0  0  0  0  0  0  0  0  0  0
  1  6  1  0  0  0  0
  2  1  2  0  0  0  0
  2  3  1  0  0  0  0
  3  4  2  0  0  0  0
  4  5  1  0  0  0  0
  5 21  1  0  0  0  0
  6  5  2  0  0  0  0
  7  3  1  0  0  0  0
  7  8  1  0  0  0  0
  8 13  1  0  0  0  0
  8 14  1  0  0  0  0
  9  8  1  0  0  0  0
  9 15  1  0  0  0  0
 10 18  1  0  0  0  0
 10  9  1  0  0  0  0
 11 20  1  0  0  0  0
 11 10  1  0  0  0  0
 11  7  1  0  0  0  0
 12  1  1  0  0  0  0
 16  9  1  0  0  0  0
 17 10  1  0  0  0  0
 19 11  1  0  0  0  0
 21 30  1  0  0  0  0
 22 21  2  0  0  0  0
 22 23  1  0  0  0  0
 23 24  2  0  0  0  0
 24 25  1  0  0  0  0
 25 26  1  0  0  0  0
 26 32  1  0  0  0  0
 26 27  2  0  0  0  0
 27 33  1  0  0  0  0
 28 27  1  0  0  0  0
 28 34  1  0  0  0  0
 29 28  2  0  0  0  0
 30 25  2  0  0  0  0
 30 29  1  0  0  0  0
 31 23  1  0  0  0  0
 35 29  1  0  0  0  0
 35 36  2  0  0  0  0
 36 37  1  0  0  0  0
 38 36  1  0  0  0  0
 39 41  2  0  0  0  0
 39 38  1  0  0  0  0
 40 39  1  0  0  0  0
 41 35  1  0  0  0  0
 42 43  1  0  0  0  0
 42  2  1  0  0  0  0
 44 42  1  0  0  0  0
M  END
>  <minimizedAffinity>
-6.54268074

$$$$

 OpenBabel03252502053D

 44 48  0  0  0  0  0  0  0  0999 V2000
   35.8940   30.4200   40.6490 C   0  0  0  0  0  0  0  0  0  0  0  0
   36.9900   31.1840   40.2670 C   0  0  0  0  0  0  0  0  0  0  0  0
   37.9610   30.5430   39.5770 C   0  0  0  0  0  0  0  0  0  0  0  0
   37.8530   29.2400   39.2810 N   0  0  0  0  0  0  0  0  0  0  0  0
   36.8040   28.5000   39.6370 C   0  0  0  0  0  0  0  0  0  0  0  0
   35.8330   29.1270   40.3300 N   0  0  0  0  0  0  0  0  0  0  0  0
   39.1090   31.2050   39.1700 N   0  0  0  0  0  0  0  0  0  0  0  0
   40.3340   30.5700   38.6380 C   0  0  0  0  0  0  0  0  0  0  0  0
   41.1590   31.6940   38.0750 C   0  0  0  0  0  0  0  0  0  0  0  0
   40.7300   32.8800   38.8870 C   0  0  0  0  0  0  0  0  0  0  0  0
   39.3060   32.6360   39.2080 C   0  0  0  0  0  0  0  0  0  0  0  0
   35.0980   30.9110   41.2100 H   0  0  0  0  0  0  0  0  0  0  0  0
   40.0860   29.8220   37.8680 H   0  0  0  0  0  0  0  0  0  0  0  0
   40.8360   30.1220   39.5360 H   0  0  0  0  0  0  0  0  0  0  0  0
   42.2480   31.5160   38.1520 H   0  0  0  0  0  0  0  0  0  0  0  0
   40.8990   31.8510   37.0160 H   0  0  0  0  0  0  0  0  0  0  0  0
   40.8450   33.8260   38.2830 H   0  0  0  0  0  0  0  0  0  0  0  0
   41.4240   32.9660   39.7330 H   0  0  0  0  0  0  0  0  0  0  0  0
   38.5890   33.1400   38.5660 H   0  0  0  0  0  0  0  0  0  0  0  0
   39.2450   32.9570   40.2670 H   0  0  0  0  0  0  0  0  0  0  0  0
   36.4820   27.0870   39.4010 C   0  0  0  0  0  0  0  0  0  0  0  0
   35.7310   26.6720   38.3410 N   0  0  0  0  0  0  0  0  0  0  0  0
   35.4230   25.4070   38.0760 C   0  0  0  0  0  0  0  0  0  0  0  0
   35.8690   24.4270   38.8910 N   0  0  0  0  0  0  0  0  0  0  0  0
   36.6210   24.7150   39.9710 C   0  0  0  0  0  0  0  0  0  0  0  0
   37.0660   23.7110   40.7860 C   0  0  0  0  0  0  0  0  0  0  0  0
   37.8240   23.9850   41.8800 C   0  0  0  0  0  0  0  0  0  0  0  0
   38.1270   25.3120   42.1350 C   0  0  0  0  0  0  0  0  0  0  0  0
   37.6540   26.2940   41.2790 C   0  0  0  0  0  0  0  0  0  0  0  0
   36.8970   26.0500   40.1810 C   0  0  0  0  0  0  0  0  0  0  0  0
   34.8220   25.1330   37.2190 H   0  0  0  0  0  0  0  0  0  0  0  0
   36.7780   22.6950   40.5090 H   0  0  0  0  0  0  0  0  0  0  0  0
   38.1210   23.1200   42.4520 H   0  0  0  0  0  0  0  0  0  0  0  0
   38.7330   25.3850   43.0310 H   0  0  0  0  0  0  0  0  0  0  0  0
   38.1010   27.5570   41.8640 C   0  0  0  0  0  0  0  0  0  0  0  0
   39.6440   27.7740   41.4510 C   0  0  0  0  0  0  0  0  0  0  0  0
   40.2880   27.0750   40.8260 H   0  0  0  0  0  0  0  0  0  0  0  0
   40.0630   29.3720   42.2190 S   0  0  0  0  0  0  0  0  0  0  0  0
   38.3010   29.5440   42.9300 C   0  0  0  0  0  0  0  0  0  0  0  0
   37.9030   30.3680   43.5400 H   0  0  0  0  0  0  0  0  0  0  0  0
   37.7110   28.5710   42.5800 N   0  0  0  0  0  0  0  0  0  0  0  0
   36.9880   32.5430   40.5390 N   0  0  0  0  0  0  0  0  0  0  0  0
   37.3160   32.5250   41.5490 H   0  0  0  0  0  0  0  0  0  0  0  0
   36.7470   33.3910   39.9890 H   0  0  0  0  0  0  0  0  0  0  0  0
  1 12  1  0  0  0  0
  2 42  1  0  0  0  0
  2  1  2  0  0  0  0
  3  2  1  0  0  0  0
  4  3  2  0  0  0  0
  4  5  1  0  0  0  0
  5  6  2  0  0  0  0
  6  1  1  0  0  0  0
  7 11  1  0  0  0  0
  7  3  1  0  0  0  0
  8  7  1  0  0  0  0
  8 14  1  0  0  0  0
  9 15  1  0  0  0  0
  9  8  1  0  0  0  0
  9 10  1  0  0  0  0
 10 11  1  0  0  0  0
 10 18  1  0  0  0  0
 11 20  1  0  0  0  0
 13  8  1  0  0  0  0
 16  9  1  0  0  0  0
 17 10  1  0  0  0  0
 19 11  1  0  0  0  0
 21  5  1  0  0  0  0
 21 30  1  0  0  0  0
 22 21  2  0  0  0  0
 23 22  1  0  0  0  0
 23 24  2  0  0  0  0
 24 25  1  0  0  0  0
 25 30  2  0  0  0  0
 25 26  1  0  0  0  0
 26 27  2  0  0  0  0
 27 28  1  0  0  0  0
 27 33  1  0  0  0  0
 28 34  1  0  0  0  0
 29 35  1  0  0  0  0
 29 28  2  0  0  0  0
 30 29  1  0  0  0  0
 31 23  1  0  0  0  0
 32 26  1  0  0  0  0
 35 41  1  0  0  0  0
 36 35  2  0  0  0  0
 36 38  1  0  0  0  0
 37 36  1  0  0  0  0
 38 39  1  0  0  0  0
 39 40  1  0  0  0  0
 41 39  2  0  0  0  0
 42 43  1  0  0  0  0
 44 42  1  0  0  0  0
M  END
>  <minimizedAffinity>
-6.53664446

$$$$

 OpenBabel03252502053D

 44 48  0  0  0  0  0  0  0  0999 V2000
   36.3550   30.1310   41.4300 C   0  0  0  0  0  0  0  0  0  0  0  0
   37.2460   30.9390   40.7320 C   0  0  0  0  0  0  0  0  0  0  0  0
   38.3170   30.3230   40.1830 C   0  0  0  0  0  0  0  0  0  0  0  0
   38.4920   29.0000   40.3090 N   0  0  0  0  0  0  0  0  0  0  0  0
   37.6430   28.2150   40.9700 C   0  0  0  0  0  0  0  0  0  0  0  0
   36.5750   28.8200   41.5270 N   0  0  0  0  0  0  0  0  0  0  0  0
   39.2790   31.0400   39.4880 N   0  0  0  0  0  0  0  0  0  0  0  0
   40.6010   30.5310   39.0630 C   0  0  0  0  0  0  0  0  0  0  0  0
   41.1420   31.5610   38.1100 C   0  0  0  0  0  0  0  0  0  0  0  0
   40.4810   32.8300   38.5580 C   0  0  0  0  0  0  0  0  0  0  0  0
   39.1550   32.4180   39.0700 C   0  0  0  0  0  0  0  0  0  0  0  0
   35.4850   30.6030   41.8860 H   0  0  0  0  0  0  0  0  0  0  0  0
   40.5050   29.5430   38.5840 H   0  0  0  0  0  0  0  0  0  0  0  0
   41.2120   30.5020   40.0040 H   0  0  0  0  0  0  0  0  0  0  0  0
   42.2450   31.6410   38.1350 H   0  0  0  0  0  0  0  0  0  0  0  0
   40.8270   31.3160   37.0820 H   0  0  0  0  0  0  0  0  0  0  0  0
   40.3680   33.5380   37.6870 H   0  0  0  0  0  0  0  0  0  0  0  0
   41.1590   33.3180   39.2690 H   0  0  0  0  0  0  0  0  0  0  0  0
   38.3280   32.5350   38.3750 H   0  0  0  0  0  0  0  0  0  0  0  0
   39.0500   33.0380   39.9820 H   0  0  0  0  0  0  0  0  0  0  0  0
   37.6360   26.7670   41.2070 C   0  0  0  0  0  0  0  0  0  0  0  0
   38.2090   26.1990   42.3060 N   0  0  0  0  0  0  0  0  0  0  0  0
   38.2180   24.8970   42.5730 C   0  0  0  0  0  0  0  0  0  0  0  0
   37.6240   24.0370   41.7170 N   0  0  0  0  0  0  0  0  0  0  0  0
   37.0230   24.4810   40.5960 C   0  0  0  0  0  0  0  0  0  0  0  0
   36.4250   23.5980   39.7410 C   0  0  0  0  0  0  0  0  0  0  0  0
   35.8160   24.0290   38.6060 C   0  0  0  0  0  0  0  0  0  0  0  0
   35.8240   25.3910   38.3510 C   0  0  0  0  0  0  0  0  0  0  0  0
   36.4430   26.2470   39.2480 C   0  0  0  0  0  0  0  0  0  0  0  0
   37.0570   25.8450   40.3880 C   0  0  0  0  0  0  0  0  0  0  0  0
   38.6890   24.4990   43.4610 H   0  0  0  0  0  0  0  0  0  0  0  0
   36.4670   22.5440   40.0220 H   0  0  0  0  0  0  0  0  0  0  0  0
   35.3750   23.2500   38.0050 H   0  0  0  0  0  0  0  0  0  0  0  0
   35.3070   25.5940   37.4190 H   0  0  0  0  0  0  0  0  0  0  0  0
   36.3180   27.5760   38.6540 C   0  0  0  0  0  0  0  0  0  0  0  0
   37.5230   27.7630   37.6000 C   0  0  0  0  0  0  0  0  0  0  0  0
   38.3410   27.0100   37.3580 H   0  0  0  0  0  0  0  0  0  0  0  0
   37.2380   29.4330   36.9290 S   0  0  0  0  0  0  0  0  0  0  0  0
   35.6950   29.6610   38.0270 C   0  0  0  0  0  0  0  0  0  0  0  0
   35.0340   30.5370   38.0790 H   0  0  0  0  0  0  0  0  0  0  0  0
   35.5880   28.6530   38.6540 N   0  0  0  0  0  0  0  0  0  0  0  0
   36.9490   32.2850   40.5770 N   0  0  0  0  0  0  0  0  0  0  0  0
   37.2980   32.6550   41.5090 H   0  0  0  0  0  0  0  0  0  0  0  0
   36.5120   32.8460   39.8190 H   0  0  0  0  0  0  0  0  0  0  0  0
  1  6  1  0  0  0  0
  1 12  1  0  0  0  0
  2  1  2  0  0  0  0
  3  4  2  0  0  0  0
  3  2  1  0  0  0  0
  4  5  1  0  0  0  0
  5 21  1  0  0  0  0
  5  6  2  0  0  0  0
  7  3  1  0  0  0  0
  8  7  1  0  0  0  0
  8 14  1  0  0  0  0
  9 15  1  0  0  0  0
  9 10  1  0  0  0  0
  9  8  1  0  0  0  0
 10 11  1  0  0  0  0
 10 18  1  0  0  0  0
 11  7  1  0  0  0  0
 11 20  1  0  0  0  0
 13  8  1  0  0  0  0
 16  9  1  0  0  0  0
 17 10  1  0  0  0  0
 19 11  1  0  0  0  0
 21 22  1  0  0  0  0
 22 23  2  0  0  0  0
 23 31  1  0  0  0  0
 24 23  1  0  0  0  0
 25 24  2  0  0  0  0
 26 32  1  0  0  0  0
 26 25  1  0  0  0  0
 27 26  2  0  0  0  0
 28 27  1  0  0  0  0
 28 29  2  0  0  0  0
 29 30  1  0  0  0  0
 30 25  1  0  0  0  0
 30 21  2  0  0  0  0
 33 27  1  0  0  0  0
 34 28  1  0  0  0  0
 35 29  1  0  0  0  0
 36 35  2  0  0  0  0
 37 36  1  0  0  0  0
 38 36  1  0  0  0  0
 38 39  1  0  0  0  0
 39 40  1  0  0  0  0
 39 41  2  0  0  0  0
 41 35  1  0  0  0  0
 42  2  1  0  0  0  0
 42 43  1  0  0  0  0
 44 42  1  0  0  0  0
M  END
>  <minimizedAffinity>
-6.08023548

$$$$

 OpenBabel03252502053D

 44 48  0  0  0  0  0  0  0  0999 V2000
   36.5200   31.2570   40.9410 C   0  0  0  0  0  0  0  0  0  0  0  0
   36.3040   29.9720   40.4570 C   0  0  0  0  0  0  0  0  0  0  0  0
   37.3380   29.3910   39.8070 C   0  0  0  0  0  0  0  0  0  0  0  0
   38.5040   30.0320   39.6520 N   0  0  0  0  0  0  0  0  0  0  0  0
   38.7250   31.2600   40.1170 C   0  0  0  0  0  0  0  0  0  0  0  0
   37.6990   31.8520   40.7620 N   0  0  0  0  0  0  0  0  0  0  0  0
   37.2200   28.1210   39.2610 N   0  0  0  0  0  0  0  0  0  0  0  0
   38.1750   27.4870   38.3270 C   0  0  0  0  0  0  0  0  0  0  0  0
   37.7720   26.0390   38.2610 C   0  0  0  0  0  0  0  0  0  0  0  0
   36.3050   26.0730   38.5700 C   0  0  0  0  0  0  0  0  0  0  0  0
   36.1300   27.2040   39.5080 C   0  0  0  0  0  0  0  0  0  0  0  0
   35.7020   31.7510   41.4670 H   0  0  0  0  0  0  0  0  0  0  0  0
   39.2100   27.6060   38.6840 H   0  0  0  0  0  0  0  0  0  0  0  0
   37.9910   27.9940   37.3440 H   0  0  0  0  0  0  0  0  0  0  0  0
   37.9740   25.5760   37.2770 H   0  0  0  0  0  0  0  0  0  0  0  0
   38.3060   25.4700   39.0390 H   0  0  0  0  0  0  0  0  0  0  0  0
   35.9880   25.1030   39.0530 H   0  0  0  0  0  0  0  0  0  0  0  0
   35.7700   26.1320   37.6130 H   0  0  0  0  0  0  0  0  0  0  0  0
   36.0850   26.9360   40.5600 H   0  0  0  0  0  0  0  0  0  0  0  0
   35.2000   27.6780   39.1360 H   0  0  0  0  0  0  0  0  0  0  0  0
   39.9130   32.1210   40.0750 C   0  0  0  0  0  0  0  0  0  0  0  0
   40.1070   33.0590   39.1050 N   0  0  0  0  0  0  0  0  0  0  0  0
   41.1570   33.8710   39.0310 C   0  0  0  0  0  0  0  0  0  0  0  0
   42.1270   33.7940   39.9680 N   0  0  0  0  0  0  0  0  0  0  0  0
   42.0450   32.9050   40.9770 C   0  0  0  0  0  0  0  0  0  0  0  0
   43.0350   32.8400   41.9180 C   0  0  0  0  0  0  0  0  0  0  0  0
   42.9680   31.9490   42.9410 C   0  0  0  0  0  0  0  0  0  0  0  0
   41.8640   31.1130   42.9920 C   0  0  0  0  0  0  0  0  0  0  0  0
   40.8870   31.2160   42.0150 C   0  0  0  0  0  0  0  0  0  0  0  0
   40.9270   32.0970   40.9860 C   0  0  0  0  0  0  0  0  0  0  0  0
   41.2620   34.5980   38.2380 H   0  0  0  0  0  0  0  0  0  0  0  0
   43.8670   33.5360   41.7980 H   0  0  0  0  0  0  0  0  0  0  0  0
   43.7990   31.9830   43.6270 H   0  0  0  0  0  0  0  0  0  0  0  0
   41.9390   30.4570   43.8530 H   0  0  0  0  0  0  0  0  0  0  0  0
   39.9170   30.1700   42.3350 C   0  0  0  0  0  0  0  0  0  0  0  0
   40.4730   28.7800   41.7390 C   0  0  0  0  0  0  0  0  0  0  0  0
   41.4400   28.6240   41.1610 H   0  0  0  0  0  0  0  0  0  0  0  0
   39.1940   27.5750   42.2190 S   0  0  0  0  0  0  0  0  0  0  0  0
   38.1680   28.9370   43.0750 C   0  0  0  0  0  0  0  0  0  0  0  0
   37.2070   28.8240   43.5960 H   0  0  0  0  0  0  0  0  0  0  0  0
   38.7820   29.9480   42.9310 N   0  0  0  0  0  0  0  0  0  0  0  0
   35.0970   29.3470   40.7300 N   0  0  0  0  0  0  0  0  0  0  0  0
   34.4980   29.7680   39.9630 H   0  0  0  0  0  0  0  0  0  0  0  0
   34.7820   28.6660   41.4500 H   0  0  0  0  0  0  0  0  0  0  0  0
  1 12  1  0  0  0  0
  2 42  1  0  0  0  0
  2  1  2  0  0  0  0
  3  2  1  0  0  0  0
  4  3  2  0  0  0  0
  4  5  1  0  0  0  0
  5  6  2  0  0  0  0
  6  1  1  0  0  0  0
  7 11  1  0  0  0  0
  7  3  1  0  0  0  0
  8 13  1  0  0  0  0
  8  7  1  0  0  0  0
  9  8  1  0  0  0  0
  9 10  1  0  0  0  0
  9 16  1  0  0  0  0
 10 17  1  0  0  0  0
 10 11  1  0  0  0  0
 11 19  1  0  0  0  0
 14  8  1  0  0  0  0
 15  9  1  0  0  0  0
 18 10  1  0  0  0  0
 20 11  1  0  0  0  0
 21  5  1  0  0  0  0
 21 30  1  0  0  0  0
 22 21  2  0  0  0  0
 23 22  1  0  0  0  0
 23 24  2  0  0  0  0
 24 25  1  0  0  0  0
 25 30  2  0  0  0  0
 25 26  1  0  0  0  0
 26 27  2  0  0  0  0
 27 28  1  0  0  0  0
 27 33  1  0  0  0  0
 28 34  1  0  0  0  0
 29 35  1  0  0  0  0
 29 28  2  0  0  0  0
 30 29  1  0  0  0  0
 31 23  1  0  0  0  0
 32 26  1  0  0  0  0
 35 41  1  0  0  0  0
 36 38  1  0  0  0  0
 36 35  2  0  0  0  0
 37 36  1  0  0  0  0
 38 39  1  0  0  0  0
 39 40  1  0  0  0  0
 41 39  2  0  0  0  0
 42 44  1  0  0  0  0
 43 42  1  0  0  0  0
M  END
>  <minimizedAffinity>
-6.06729412

$$$$

 OpenBabel03252502053D

 44 48  0  0  0  0  0  0  0  0999 V2000
   37.9020   31.2290   38.5020 C   0  0  0  0  0  0  0  0  0  0  0  0
   39.1810   31.3930   37.9830 C   0  0  0  0  0  0  0  0  0  0  0  0
   40.1760   30.7250   38.6100 C   0  0  0  0  0  0  0  0  0  0  0  0
   39.9240   29.9460   39.6710 N   0  0  0  0  0  0  0  0  0  0  0  0
   38.7020   29.7770   40.1730 C   0  0  0  0  0  0  0  0  0  0  0  0
   37.7030   30.4420   39.5590 N   0  0  0  0  0  0  0  0  0  0  0  0
   41.4930   30.8400   38.1900 N   0  0  0  0  0  0  0  0  0  0  0  0
   42.6830   30.3690   38.9310 C   0  0  0  0  0  0  0  0  0  0  0  0
   43.8240   30.4500   37.9540 C   0  0  0  0  0  0  0  0  0  0  0  0
   43.4020   31.5430   37.0180 C   0  0  0  0  0  0  0  0  0  0  0  0
   41.9260   31.4520   36.9550 C   0  0  0  0  0  0  0  0  0  0  0  0
   37.0810   31.7590   38.0180 H   0  0  0  0  0  0  0  0  0  0  0  0
   42.5350   29.3410   39.2990 H   0  0  0  0  0  0  0  0  0  0  0  0
   42.8180   31.1140   39.7590 H   0  0  0  0  0  0  0  0  0  0  0  0
   44.7940   30.6740   38.4350 H   0  0  0  0  0  0  0  0  0  0  0  0
   43.9100   29.4980   37.4050 H   0  0  0  0  0  0  0  0  0  0  0  0
   43.8530   31.3750   35.9970 H   0  0  0  0  0  0  0  0  0  0  0  0
   43.8270   32.4800   37.3960 H   0  0  0  0  0  0  0  0  0  0  0  0
   41.5260   30.9150   36.0990 H   0  0  0  0  0  0  0  0  0  0  0  0
   41.6220   32.5180   36.9830 H   0  0  0  0  0  0  0  0  0  0  0  0
   38.2110   28.9670   41.2940 C   0  0  0  0  0  0  0  0  0  0  0  0
   38.0700   29.4670   42.5550 N   0  0  0  0  0  0  0  0  0  0  0  0
   37.6180   28.7800   43.5990 C   0  0  0  0  0  0  0  0  0  0  0  0
   37.2580   27.4870   43.4430 N   0  0  0  0  0  0  0  0  0  0  0  0
   37.3530   26.8840   42.2420 C   0  0  0  0  0  0  0  0  0  0  0  0
   36.9840   25.5750   42.1000 C   0  0  0  0  0  0  0  0  0  0  0  0
   37.0750   24.9520   40.8960 C   0  0  0  0  0  0  0  0  0  0  0  0
   37.5520   25.6890   39.8260 C   0  0  0  0  0  0  0  0  0  0  0  0
   37.9140   27.0130   40.0190 C   0  0  0  0  0  0  0  0  0  0  0  0
   37.8320   27.6610   41.2070 C   0  0  0  0  0  0  0  0  0  0  0  0
   37.5260   29.2270   44.5800 H   0  0  0  0  0  0  0  0  0  0  0  0
   36.6200   25.0720   42.9980 H   0  0  0  0  0  0  0  0  0  0  0  0
   36.7570   23.9210   40.8960 H   0  0  0  0  0  0  0  0  0  0  0  0
   37.5720   25.0730   38.9330 H   0  0  0  0  0  0  0  0  0  0  0  0
   38.4170   27.4640   38.7230 C   0  0  0  0  0  0  0  0  0  0  0  0
   39.9590   27.0100   38.6050 C   0  0  0  0  0  0  0  0  0  0  0  0
   40.5660   26.4470   39.3860 H   0  0  0  0  0  0  0  0  0  0  0  0
   40.4490   27.6110   36.9570 S   0  0  0  0  0  0  0  0  0  0  0  0
   38.7080   28.3280   36.6500 C   0  0  0  0  0  0  0  0  0  0  0  0
   38.3500   28.8590   35.7570 H   0  0  0  0  0  0  0  0  0  0  0  0
   38.0760   28.0830   37.6310 N   0  0  0  0  0  0  0  0  0  0  0  0
   39.3470   32.1500   36.8340 N   0  0  0  0  0  0  0  0  0  0  0  0
   39.3630   33.1230   37.2590 H   0  0  0  0  0  0  0  0  0  0  0  0
   39.4300   31.9220   35.8230 H   0  0  0  0  0  0  0  0  0  0  0  0
  1  6  1  0  0  0  0
  2  1  2  0  0  0  0
  2  3  1  0  0  0  0
  3  4  2  0  0  0  0
  4  5  1  0  0  0  0
  5 21  1  0  0  0  0
  6  5  2  0  0  0  0
  7  3  1  0  0  0  0
  7  8  1  0  0  0  0
  8 13  1  0  0  0  0
  8 14  1  0  0  0  0
  9 15  1  0  0  0  0
  9  8  1  0  0  0  0
 10 18  1  0  0  0  0
 10  9  1  0  0  0  0
 11 20  1  0  0  0  0
 11 10  1  0  0  0  0
 11  7  1  0  0  0  0
 12  1  1  0  0  0  0
 16  9  1  0  0  0  0
 17 10  1  0  0  0  0
 19 11  1  0  0  0  0
 21 22  1  0  0  0  0
 22 23  2  0  0  0  0
 23 31  1  0  0  0  0
 24 23  1  0  0  0  0
 25 24  2  0  0  0  0
 26 25  1  0  0  0  0
 26 32  1  0  0  0  0
 27 26  2  0  0  0  0
 28 29  2  0  0  0  0
 28 27  1  0  0  0  0
 29 30  1  0  0  0  0
 30 21  2  0  0  0  0
 30 25  1  0  0  0  0
 33 27  1  0  0  0  0
 34 28  1  0  0  0  0
 35 29  1  0  0  0  0
 36 35  2  0  0  0  0
 36 37  1  0  0  0  0
 38 36  1  0  0  0  0
 39 38  1  0  0  0  0
 39 41  2  0  0  0  0
 40 39  1  0  0  0  0
 41 35  1  0  0  0  0
 42 43  1  0  0  0  0
 42  2  1  0  0  0  0
 44 42  1  0  0  0  0
M  END
>  <minimizedAffinity>
-6.06704187

$$$$

 OpenBabel03252502053D

 44 48  0  0  0  0  0  0  0  0999 V2000
   38.2070   27.4900   36.8360 C   0  0  0  0  0  0  0  0  0  0  0  0
   37.1280   28.0560   36.1670 C   0  0  0  0  0  0  0  0  0  0  0  0
   35.9480   28.0680   36.8270 C   0  0  0  0  0  0  0  0  0  0  0  0
   35.8440   27.5630   38.0640 N   0  0  0  0  0  0  0  0  0  0  0  0
   36.8720   27.0250   38.7180 C   0  0  0  0  0  0  0  0  0  0  0  0
   38.0520   27.0010   38.0670 N   0  0  0  0  0  0  0  0  0  0  0  0
   34.8030   28.5850   36.2410 N   0  0  0  0  0  0  0  0  0  0  0  0
   33.4230   28.4330   36.7510 C   0  0  0  0  0  0  0  0  0  0  0  0
   32.5900   29.3970   35.9520 C   0  0  0  0  0  0  0  0  0  0  0  0
   33.3380   29.5140   34.6580 C   0  0  0  0  0  0  0  0  0  0  0  0
   34.7650   29.3550   35.0180 C   0  0  0  0  0  0  0  0  0  0  0  0
   39.1700   27.4640   36.3260 H   0  0  0  0  0  0  0  0  0  0  0  0
   33.3770   28.6510   37.8300 H   0  0  0  0  0  0  0  0  0  0  0  0
   33.1440   27.3740   36.5080 H   0  0  0  0  0  0  0  0  0  0  0  0
   31.5510   29.0500   35.7960 H   0  0  0  0  0  0  0  0  0  0  0  0
   32.5650   30.3750   36.4610 H   0  0  0  0  0  0  0  0  0  0  0  0
   33.1560   30.5260   34.1940 H   0  0  0  0  0  0  0  0  0  0  0  0
   32.9140   28.7750   33.9670 H   0  0  0  0  0  0  0  0  0  0  0  0
   35.3250   30.2800   35.1300 H   0  0  0  0  0  0  0  0  0  0  0  0
   35.1450   28.7100   34.2020 H   0  0  0  0  0  0  0  0  0  0  0  0
   36.9780   26.4440   40.0610 C   0  0  0  0  0  0  0  0  0  0  0  0
   36.7950   25.1140   40.3040 N   0  0  0  0  0  0  0  0  0  0  0  0
   36.8940   24.5380   41.4970 C   0  0  0  0  0  0  0  0  0  0  0  0
   37.1970   25.2900   42.5780 N   0  0  0  0  0  0  0  0  0  0  0  0
   37.4000   26.6160   42.4620 C   0  0  0  0  0  0  0  0  0  0  0  0
   37.7070   27.3630   43.5660 C   0  0  0  0  0  0  0  0  0  0  0  0
   37.9140   28.7020   43.4670 C   0  0  0  0  0  0  0  0  0  0  0  0
   37.8020   29.2770   42.2120 C   0  0  0  0  0  0  0  0  0  0  0  0
   37.4890   28.4790   41.1230 C   0  0  0  0  0  0  0  0  0  0  0  0
   37.2790   27.1410   41.1920 C   0  0  0  0  0  0  0  0  0  0  0  0
   36.7380   23.4760   41.6330 H   0  0  0  0  0  0  0  0  0  0  0  0
   37.7740   26.8260   44.5140 H   0  0  0  0  0  0  0  0  0  0  0  0
   38.1510   29.1930   44.3970 H   0  0  0  0  0  0  0  0  0  0  0  0
   37.9910   30.3430   42.2770 H   0  0  0  0  0  0  0  0  0  0  0  0
   37.3960   29.3980   39.9900 C   0  0  0  0  0  0  0  0  0  0  0  0
   38.8940   29.7200   39.4890 C   0  0  0  0  0  0  0  0  0  0  0  0
   39.8620   29.3210   39.9330 H   0  0  0  0  0  0  0  0  0  0  0  0
   38.6320   30.8460   38.0810 S   0  0  0  0  0  0  0  0  0  0  0  0
   36.7400   30.7620   38.3060 C   0  0  0  0  0  0  0  0  0  0  0  0
   35.9720   31.2720   37.7080 H   0  0  0  0  0  0  0  0  0  0  0  0
   36.5530   30.0380   39.2340 N   0  0  0  0  0  0  0  0  0  0  0  0
   37.3380   28.6310   34.9230 N   0  0  0  0  0  0  0  0  0  0  0  0
   37.2980   27.7620   34.3140 H   0  0  0  0  0  0  0  0  0  0  0  0
   37.5010   29.6030   34.5940 H   0  0  0  0  0  0  0  0  0  0  0  0
  1  6  1  0  0  0  0
  2  3  1  0  0  0  0
  2  1  2  0  0  0  0
  3  4  2  0  0  0  0
  4  5  1  0  0  0  0
  5 21  1  0  0  0  0
  6  5  2  0  0  0  0
  7  8  1  0  0  0  0
  7  3  1  0  0  0  0
  8 13  1  0  0  0  0
  9 16  1  0  0  0  0
  9  8  1  0  0  0  0
 10 11  1  0  0  0  0
 10  9  1  0  0  0  0
 11 19  1  0  0  0  0
 11  7  1  0  0  0  0
 12  1  1  0  0  0  0
 14  8  1  0  0  0  0
 15  9  1  0  0  0  0
 17 10  1  0  0  0  0
 18 10  1  0  0  0  0
 20 11  1  0  0  0  0
 21 22  2  0  0  0  0
 21 30  1  0  0  0  0
 22 23  1  0  0  0  0
 23 31  1  0  0  0  0
 23 24  2  0  0  0  0
 25 24  1  0  0  0  0
 25 26  1  0  0  0  0
 26 32  1  0  0  0  0
 27 26  2  0  0  0  0
 27 33  1  0  0  0  0
 28 34  1  0  0  0  0
 28 27  1  0  0  0  0
 29 30  1  0  0  0  0
 29 28  2  0  0  0  0
 30 25  2  0  0  0  0
 35 29  1  0  0  0  0
 36 37  1  0  0  0  0
 36 35  2  0  0  0  0
 38 39  1  0  0  0  0
 38 36  1  0  0  0  0
 39 41  2  0  0  0  0
 40 39  1  0  0  0  0
 41 35  1  0  0  0  0
 42  2  1  0  0  0  0
 43 42  1  0  0  0  0
 44 42  1  0  0  0  0
M  END
>  <minimizedAffinity>
-6.03151655

$$$$

 OpenBabel03252502053D

 44 48  0  0  0  0  0  0  0  0999 V2000
   38.4190   28.0680   37.0950 C   0  0  0  0  0  0  0  0  0  0  0  0
   37.8930   27.0820   37.9210 C   0  0  0  0  0  0  0  0  0  0  0  0
   38.0750   27.2500   39.2510 C   0  0  0  0  0  0  0  0  0  0  0  0
   38.7250   28.3190   39.7300 N   0  0  0  0  0  0  0  0  0  0  0  0
   39.2270   29.2730   38.9480 C   0  0  0  0  0  0  0  0  0  0  0  0
   39.0570   29.1140   37.6210 N   0  0  0  0  0  0  0  0  0  0  0  0
   37.6130   26.3120   40.1620 N   0  0  0  0  0  0  0  0  0  0  0  0
   37.9600   26.2530   41.5980 C   0  0  0  0  0  0  0  0  0  0  0  0
   37.0000   25.2670   42.2050 C   0  0  0  0  0  0  0  0  0  0  0  0
   36.6630   24.3610   41.0590 C   0  0  0  0  0  0  0  0  0  0  0  0
   36.7170   25.2200   39.8550 C   0  0  0  0  0  0  0  0  0  0  0  0
   38.2900   27.9570   36.0180 H   0  0  0  0  0  0  0  0  0  0  0  0
   37.8710   27.2480   42.0640 H   0  0  0  0  0  0  0  0  0  0  0  0
   39.0070   25.8520   41.6220 H   0  0  0  0  0  0  0  0  0  0  0  0
   37.4310   24.7090   43.0570 H   0  0  0  0  0  0  0  0  0  0  0  0
   36.0940   25.7940   42.5460 H   0  0  0  0  0  0  0  0  0  0  0  0
   35.6280   23.9320   41.1950 H   0  0  0  0  0  0  0  0  0  0  0  0
   37.3580   23.5130   41.0970 H   0  0  0  0  0  0  0  0  0  0  0  0
   35.7590   25.5960   39.5060 H   0  0  0  0  0  0  0  0  0  0  0  0
   37.2240   24.5640   39.1200 H   0  0  0  0  0  0  0  0  0  0  0  0
   39.9430   30.5160   39.2630 C   0  0  0  0  0  0  0  0  0  0  0  0
   41.3030   30.5830   39.3290 N   0  0  0  0  0  0  0  0  0  0  0  0
   41.9980   31.6840   39.5950 C   0  0  0  0  0  0  0  0  0  0  0  0
   41.3470   32.8460   39.8220 N   0  0  0  0  0  0  0  0  0  0  0  0
   40.0010   32.9030   39.7830 C   0  0  0  0  0  0  0  0  0  0  0  0
   39.3570   34.0860   40.0130 C   0  0  0  0  0  0  0  0  0  0  0  0
   38.0010   34.1610   39.9790 C   0  0  0  0  0  0  0  0  0  0  0  0
   37.3010   32.9970   39.7020 C   0  0  0  0  0  0  0  0  0  0  0  0
   37.9990   31.8220   39.4750 C   0  0  0  0  0  0  0  0  0  0  0  0
   39.3510   31.7190   39.5010 C   0  0  0  0  0  0  0  0  0  0  0  0
   43.0790   31.6820   39.6360 H   0  0  0  0  0  0  0  0  0  0  0  0
   39.9880   34.9510   40.2250 H   0  0  0  0  0  0  0  0  0  0  0  0
   37.5960   35.1410   40.1740 H   0  0  0  0  0  0  0  0  0  0  0  0
   36.2360   33.1990   39.7060 H   0  0  0  0  0  0  0  0  0  0  0  0
   36.9720   30.8020   39.2750 C   0  0  0  0  0  0  0  0  0  0  0  0
   36.4890   30.2940   40.7270 C   0  0  0  0  0  0  0  0  0  0  0  0
   36.8750   30.6480   41.7360 H   0  0  0  0  0  0  0  0  0  0  0  0
   35.2120   29.0560   40.3350 S   0  0  0  0  0  0  0  0  0  0  0  0
   35.4500   29.3340   38.4630 C   0  0  0  0  0  0  0  0  0  0  0  0
   34.9200   28.8360   37.6390 H   0  0  0  0  0  0  0  0  0  0  0  0
   36.2990   30.1650   38.3610 N   0  0  0  0  0  0  0  0  0  0  0  0
   37.1630   26.0500   37.3520 N   0  0  0  0  0  0  0  0  0  0  0  0
   37.9560   25.4140   37.0490 H   0  0  0  0  0  0  0  0  0  0  0  0
   36.1480   25.8740   37.2140 H   0  0  0  0  0  0  0  0  0  0  0  0
  1  6  2  0  0  0  0
  1  2  1  0  0  0  0
  2  3  2  0  0  0  0
  3  4  1  0  0  0  0
  3  7  1  0  0  0  0
  5 21  1  0  0  0  0
  5  4  2  0  0  0  0
  6  5  1  0  0  0  0
  7  8  1  0  0  0  0
  8 14  1  0  0  0  0
  8 13  1  0  0  0  0
  8  9  1  0  0  0  0
  9 16  1  0  0  0  0
  9 15  1  0  0  0  0
 10 18  1  0  0  0  0
 10 17  1  0  0  0  0
 10  9  1  0  0  0  0
 11  7  1  0  0  0  0
 11 10  1  0  0  0  0
 12  1  1  0  0  0  0
 19 11  1  0  0  0  0
 20 11  1  0  0  0  0
 21 22  2  0  0  0  0
 21 30  1  0  0  0  0
 22 23  1  0  0  0  0
 23 31  1  0  0  0  0
 23 24  2  0  0  0  0
 25 24  1  0  0  0  0
 25 26  1  0  0  0  0
 26 32  1  0  0  0  0
 27 26  2  0  0  0  0
 27 33  1  0  0  0  0
 28 34  1  0  0  0  0
 28 27  1  0  0  0  0
 29 30  1  0  0  0  0
 29 28  2  0  0  0  0
 30 25  2  0  0  0  0
 35 29  1  0  0  0  0
 35 36  2  0  0  0  0
 36 37  1  0  0  0  0
 38 36  1  0  0  0  0
 39 38  1  0  0  0  0
 40 39  1  0  0  0  0
 41 39  2  0  0  0  0
 41 35  1  0  0  0  0
 42  2  1  0  0  0  0
 43 42  1  0  0  0  0
 44 42  1  0  0  0  0
M  END
>  <minimizedAffinity>
-5.98127174

$$$$

 OpenBabel03252502053D

 44 48  0  0  0  0  0  0  0  0999 V2000
   36.5950   30.1630   38.3530 C   0  0  0  0  0  0  0  0  0  0  0  0
   36.4420   29.4720   39.5490 C   0  0  0  0  0  0  0  0  0  0  0  0
   37.5510   29.3300   40.3100 C   0  0  0  0  0  0  0  0  0  0  0  0
   38.7260   29.8410   39.9190 N   0  0  0  0  0  0  0  0  0  0  0  0
   38.8840   30.5100   38.7780 C   0  0  0  0  0  0  0  0  0  0  0  0
   37.7870   30.6520   38.0090 N   0  0  0  0  0  0  0  0  0  0  0  0
   37.5140   28.6350   41.5100 N   0  0  0  0  0  0  0  0  0  0  0  0
   38.6880   28.2030   42.2980 C   0  0  0  0  0  0  0  0  0  0  0  0
   38.1410   27.7630   43.6280 C   0  0  0  0  0  0  0  0  0  0  0  0
   36.7430   27.3290   43.3020 C   0  0  0  0  0  0  0  0  0  0  0  0
   36.3130   28.2060   42.1900 C   0  0  0  0  0  0  0  0  0  0  0  0
   35.7180   30.2890   37.7180 H   0  0  0  0  0  0  0  0  0  0  0  0
   39.4120   29.0260   42.4070 H   0  0  0  0  0  0  0  0  0  0  0  0
   39.1040   27.3280   41.7320 H   0  0  0  0  0  0  0  0  0  0  0  0
   38.7270   26.9480   44.0920 H   0  0  0  0  0  0  0  0  0  0  0  0
   38.1160   28.6210   44.3200 H   0  0  0  0  0  0  0  0  0  0  0  0
   36.0740   27.4690   44.2000 H   0  0  0  0  0  0  0  0  0  0  0  0
   36.7730   26.2510   43.1030 H   0  0  0  0  0  0  0  0  0  0  0  0
   35.7070   29.0610   42.4750 H   0  0  0  0  0  0  0  0  0  0  0  0
   35.7830   27.4970   41.5220 H   0  0  0  0  0  0  0  0  0  0  0  0
   40.0580   31.1580   38.1810 C   0  0  0  0  0  0  0  0  0  0  0  0
   40.3060   32.4920   38.3130 N   0  0  0  0  0  0  0  0  0  0  0  0
   41.3600   33.1230   37.8050 C   0  0  0  0  0  0  0  0  0  0  0  0
   42.2780   32.4280   37.0990 N   0  0  0  0  0  0  0  0  0  0  0  0
   42.1400   31.1020   36.9030 C   0  0  0  0  0  0  0  0  0  0  0  0
   43.0790   30.4120   36.1880 C   0  0  0  0  0  0  0  0  0  0  0  0
   42.9550   29.0750   35.9810 C   0  0  0  0  0  0  0  0  0  0  0  0
   41.8450   28.4430   36.5180 C   0  0  0  0  0  0  0  0  0  0  0  0
   40.9210   29.1850   37.2360 C   0  0  0  0  0  0  0  0  0  0  0  0
   41.0210   30.5180   37.4600 C   0  0  0  0  0  0  0  0  0  0  0  0
   41.5080   34.1860   37.9390 H   0  0  0  0  0  0  0  0  0  0  0  0
   43.9190   30.9920   35.8010 H   0  0  0  0  0  0  0  0  0  0  0  0
   43.7510   28.6310   35.4050 H   0  0  0  0  0  0  0  0  0  0  0  0
   41.8720   27.3860   36.2780 H   0  0  0  0  0  0  0  0  0  0  0  0
   39.8720   28.2360   37.6020 C   0  0  0  0  0  0  0  0  0  0  0  0
   38.8610   28.1090   36.3540 C   0  0  0  0  0  0  0  0  0  0  0  0
   38.9290   28.6600   35.3620 H   0  0  0  0  0  0  0  0  0  0  0  0
   37.6300   26.8960   36.9320 S   0  0  0  0  0  0  0  0  0  0  0  0
   38.5240   26.7190   38.6080 C   0  0  0  0  0  0  0  0  0  0  0  0
   38.2390   26.0790   39.4540 H   0  0  0  0  0  0  0  0  0  0  0  0
   39.4640   27.4500   38.5560 N   0  0  0  0  0  0  0  0  0  0  0  0
   35.1750   29.0460   39.9200 N   0  0  0  0  0  0  0  0  0  0  0  0
   35.1160   28.1470   39.3590 H   0  0  0  0  0  0  0  0  0  0  0  0
   34.4370   29.4310   40.5430 H   0  0  0  0  0  0  0  0  0  0  0  0
  1  2  1  0  0  0  0
  2 42  1  0  0  0  0
  2  3  2  0  0  0  0
  3  7  1  0  0  0  0
  4  3  1  0  0  0  0
  5  4  2  0  0  0  0
  6  1  2  0  0  0  0
  6  5  1  0  0  0  0
  7 11  1  0  0  0  0
  7  8  1  0  0  0  0
  8 13  1  0  0  0  0
  8  9  1  0  0  0  0
  9 15  1  0  0  0  0
  9 16  1  0  0  0  0
 10  9  1  0  0  0  0
 10 17  1  0  0  0  0
 11 19  1  0  0  0  0
 11 10  1  0  0  0  0
 12  1  1  0  0  0  0
 14  8  1  0  0  0  0
 18 10  1  0  0  0  0
 20 11  1  0  0  0  0
 21 22  1  0  0  0  0
 21  5  1  0  0  0  0
 23 31  1  0  0  0  0
 23 22  2  0  0  0  0
 24 23  1  0  0  0  0
 25 24  2  0  0  0  0
 25 30  1  0  0  0  0
 26 25  1  0  0  0  0
 27 26  2  0  0  0  0
 27 28  1  0  0  0  0
 28 29  2  0  0  0  0
 29 30  1  0  0  0  0
 29 35  1  0  0  0  0
 30 21  2  0  0  0  0
 32 26  1  0  0  0  0
 33 27  1  0  0  0  0
 34 28  1  0  0  0  0
 35 41  1  0  0  0  0
 36 38  1  0  0  0  0
 36 35  2  0  0  0  0
 37 36  1  0  0  0  0
 38 39  1  0  0  0  0
 39 40  1  0  0  0  0
 41 39  2  0  0  0  0
 42 44  1  0  0  0  0
 43 42  1  0  0  0  0
M  END
>  <minimizedAffinity>
-5.82734489

$$$$
