REMARK  Name = 
REMARK  9 active torsions:
REMARK  status: ('A' for Active; 'I' for Inactive)
REMARK    1  A    between atoms: N_1  and  C_7
REMARK    2  A    between atoms: C_6  and  O_15
REMARK    3  A    between atoms: C_7  and  C_8
REMARK    4  A    between atoms: C_8  and  C_11
REMARK    5  A    between atoms: O_15  and  P_17
REMARK    6  A    between atoms: P_17  and  O_18
REMARK    7  A    between atoms: P_17  and  O_19
REMARK    8  A    between atoms: O_19  and  C_20
REMARK    9  A    between atoms: C_20  and  C_40
REMARK                            x       y       z     vdW  Elec       q    Type
REMARK                         _______ _______ _______ _____ _____    ______ ____
ROOT
ATOM      1  N   UNL     1      47.157  34.166  43.079  0.00  0.00    +0.000 NA
ATOM      2  C   UNL     1      46.644  35.350  42.515  0.00  0.00    +0.000 C 
ATOM      3  C   UNL     1      45.155  35.548  42.706  0.00  0.00    +0.000 C 
ATOM      4  C   UNL     1      44.649  35.049  44.038  0.00  0.00    +0.000 C 
ATOM      5  C   UNL     1      45.758  34.484  44.896  0.00  0.00    +0.000 C 
ATOM      6  C   UNL     1      46.428  33.405  43.965  0.00  0.00    +0.000 C 
ATOM      7  H   UNL     1      46.862  35.528  41.463  0.00  0.00    +0.000 HD
ATOM      8  H   UNL     1      47.123  36.212  43.066  0.00  0.00    +0.000 HD
ATOM      9  H   UNL     1      44.871  36.590  42.500  0.00  0.00    +0.000 HD
ATOM     10  H   UNL     1      44.664  34.929  41.919  0.00  0.00    +0.000 HD
ATOM     11  H   UNL     1      43.850  34.314  43.982  0.00  0.00    +0.000 HD
ATOM     12  H   UNL     1      44.267  35.943  44.586  0.00  0.00    +0.000 HD
ATOM     13  H   UNL     1      46.503  35.254  45.131  0.00  0.00    +0.000 HD
ATOM     14  H   UNL     1      45.309  33.983  45.760  0.00  0.00    +0.000 HD
ATOM     15  H   UNL     1      45.575  32.828  43.581  0.00  0.00    +0.000 HD
ENDROOT
BRANCH   1  16
ATOM     16  C   UNL     1      48.150  33.505  42.266  0.00  0.00    +0.000 C 
ATOM     17  H   UNL     1      48.816  32.920  42.900  0.00  0.00    +0.000 HD
ATOM     18  H   UNL     1      48.767  34.299  41.784  0.00  0.00    +0.000 HD
BRANCH  16  19
ATOM     19  C   UNL     1      47.462  32.656  41.262  0.00  0.00    +0.000 C 
ATOM     20  H   UNL     1      47.567  31.591  41.500  0.00  0.00    +0.000 HD
ATOM     21  H   UNL     1      46.361  32.864  41.228  0.00  0.00    +0.000 HD
BRANCH  19  24
ATOM     22  C   UNL     1      49.337  32.272  38.034  0.00  0.00    +0.000 A 
ATOM     23  C   UNL     1      48.815  32.024  39.308  0.00  0.00    +0.000 A 
ATOM     24  C   UNL     1      48.006  32.939  39.908  0.00  0.00    +0.000 A 
ATOM     25  N   UNL     1      47.738  34.067  39.237  0.00  0.00    +0.000 NA
ATOM     26  C   UNL     1      48.234  34.316  38.012  0.00  0.00    +0.000 A 
ATOM     27  N   UNL     1      49.033  33.433  37.396  0.00  0.00    +0.000 NA
ATOM     28  H   UNL     1      49.975  31.592  37.516  0.00  0.00    +0.000 HD
ATOM     29  H   UNL     1      49.100  31.078  39.753  0.00  0.00    +0.000 HD
ATOM     30  H   UNL     1      47.922  35.263  37.617  0.00  0.00    +0.000 HD
ENDBRANCH  19  24
ENDBRANCH  16  19
ENDBRANCH   1  16
BRANCH   6  31
ATOM     31  O   UNL     1      47.221  32.710  44.858  0.00  0.00    +0.000 OA
BRANCH  31  33
ATOM     32  O   UNL     1      46.033  30.545  43.884  0.00  0.00    +0.000 OA
ATOM     33  P   UNL     1      46.693  31.151  45.143  0.00  0.00    +0.000 P 
BRANCH  33  34
ATOM     34  O   UNL     1      45.404  31.273  46.265  0.00  0.00    +0.000 OA
ATOM     35  H   UNL     1      45.614  30.782  47.096  0.00  0.00    +0.000 HD
ENDBRANCH  33  34
BRANCH  33  36
ATOM     36  O   UNL     1      47.855  30.148  45.771  0.00  0.00    +0.000 OA
BRANCH  36  37
ATOM     37  C   UNL     1      47.730  28.887  45.214  0.00  0.00    +0.000 C 
ATOM     38  H   UNL     1      46.742  28.450  45.401  0.00  0.00    +0.000 HD
ATOM     39  H   UNL     1      47.863  28.943  44.100  0.00  0.00    +0.000 HD
BRANCH  37  40
ATOM     40  C   UNL     1      48.769  27.938  45.757  0.00  0.00    +0.000 A 
ATOM     41  C   UNL     1      50.053  27.810  45.089  0.00  0.00    +0.000 A 
ATOM     42  H   UNL     1      50.318  28.367  44.200  0.00  0.00    +0.000 HD
ATOM     43  S   UNL     1      50.880  26.568  46.152  0.00  0.00    +0.000 S 
ATOM     44  C   UNL     1      49.391  26.432  47.293  0.00  0.00    +0.000 A 
ATOM     45  H   UNL     1      49.285  25.802  48.175  0.00  0.00    +0.000 HD
ATOM     46  N   UNL     1      48.582  27.198  46.831  0.00  0.00    +0.000 NA
ENDBRANCH  37  40
ENDBRANCH  36  37
ENDBRANCH  33  36
ENDBRANCH  31  33
ENDBRANCH   6  31
TORSDOF 9
