
     RDKit          3D

 23 24  0  0  0  0  0  0  0  0999 V2000
   44.7324   35.3916   45.0231 C   0  0  0  0  0  0  0  0  0  0  0  0
   45.6119   34.9262   44.0489 C   0  0  0  0  0  0  0  0  0  0  0  0
   46.3522   33.7826   44.3364 C   0  0  0  0  0  0  0  0  0  0  0  0
   46.1890   33.1819   45.5284 N   0  0  0  0  0  0  0  0  0  0  0  0
   45.3377   33.6484   46.4471 C   0  0  0  0  0  0  0  0  0  0  0  0
   44.5953   34.7540   46.2203 N   0  0  0  0  0  0  0  0  0  0  0  0
   45.6797   35.7083   42.7640 C   0  0  0  0  0  0  0  0  0  0  0  0
   45.2435   36.9645   43.0619 F   0  0  0  0  0  0  0  0  0  0  0  0
   44.7898   35.0859   41.8916 F   0  0  0  0  0  0  0  0  0  0  0  0
   46.9678   35.6521   42.3046 F   0  0  0  0  0  0  0  0  0  0  0  0
   45.1496   33.0525   47.6770 O   0  0  0  0  0  0  0  0  0  0  0  0
   46.1292   32.2660   48.3048 C   0  0  0  0  0  0  0  0  0  0  0  0
   44.1235   36.2740   44.8727 H   0  0  0  0  0  0  0  0  0  0  0  0
   47.0252   33.4509   43.5554 H   0  0  0  0  0  0  0  0  0  0  0  0
   47.0145   32.8612   48.6079 H   0  0  0  0  0  0  0  0  0  0  0  0
   45.7164   31.8667   49.2531 H   0  0  0  0  0  0  0  0  0  0  0  0
   46.5192   31.0654   47.4802 C   0  0  0  0  0  0  0  0  0  0  0  0
   47.5741   31.0938   46.5358 C   0  0  0  0  0  0  0  0  0  0  0  0
   48.2276   31.8867   46.2552 H   0  0  0  0  0  0  0  0  0  0  0  0
   47.5789   29.4079   45.8695 S   0  0  0  0  0  0  0  0  0  0  0  0
   46.1261   28.9224   46.9948 C   0  0  0  0  0  0  0  0  0  0  0  0
   45.4634   27.9331   47.2066 H   0  0  0  0  0  0  0  0  0  0  0  0
   45.9337   29.8820   47.5459 N   0  0  0  0  0  0  0  0  0  0  0  0
  1  6  2  0
  2  3  2  0
  2  1  1  0
  3  4  1  0
  4  5  2  0
  5 11  1  0
  6  5  1  0
  7  8  1  0
  7  2  1  0
  9  7  1  0
 10  7  1  0
 11 12  1  0
  1 13  1  0
  3 14  1  0
 12 15  1  0
 12 16  1  0
 17 18  2  0
 18 19  1  0
 18 20  1  0
 20 21  1  0
 21 22  1  0
 21 23  2  0
 23 17  1  0
 12 17  1  0
M  ISO  6  13  14  14  14  15   8  16   8  19  15  22  16
M  END
>  <DihAtoms>  (1) 
10,11,16,17

>  <DihDeg>  (1) 
-89.73977287900071

$$$$
