
 OpenBabel03252509273D

 28 30  0  0  1  0  0  0  0  0999 V2000
   37.1630   26.6870   42.2910 C   0  0  1  0  0  0  0  0  0  0  0  0
   36.3710   27.3420   43.4600 C   0  0  0  0  0  0  0  0  0  0  0  0
   36.8810   28.0540   42.1630 C   0  0  2  0  0  0  0  0  0  0  0  0
   36.5870   25.8990   41.7640 H   0  0  0  0  0  0  0  0  0  0  0  0
   36.8900   27.5600   44.3920 H   0  0  0  0  0  0  0  0  0  0  0  0
   35.2910   27.1590   43.4280 H   0  0  0  0  0  0  0  0  0  0  0  0
   37.6440   28.8550   42.4140 H   0  0  0  0  0  0  0  0  0  0  0  0
   40.2020   24.6100   43.0370 C   0  0  0  0  0  0  0  0  0  0  0  0
   38.8700   24.9300   42.6180 C   0  0  0  0  0  0  0  0  0  0  0  0
   38.5210   26.2310   42.7680 C   0  0  0  0  0  0  0  0  0  0  0  0
   39.3870   27.1690   43.2860 N   0  0  0  0  0  0  0  0  0  0  0  0
   40.6300   26.8290   43.6680 C   0  0  0  0  0  0  0  0  0  0  0  0
   41.0380   25.5450   43.5420 N   0  0  0  0  0  0  0  0  0  0  0  0
   40.4660   23.5550   42.9080 H   0  0  0  0  0  0  0  0  0  0  0  0
   41.2860   27.5840   44.0700 H   0  0  0  0  0  0  0  0  0  0  0  0
   37.9820   23.9600   42.1200 N   0  0  0  0  0  0  0  0  0  0  0  0
   37.4940   23.7190   43.0270 H   0  0  0  0  0  0  0  0  0  0  0  0
   37.8210   23.5710   41.1650 H   0  0  0  0  0  0  0  0  0  0  0  0
   35.8380   28.5780   41.2080 C   0  0  0  0  0  0  0  0  0  0  0  0
   34.9160   28.8520   41.7620 H   0  0  0  0  0  0  0  0  0  0  0  0
   35.5450   27.7220   40.5680 H   0  0  0  0  0  0  0  0  0  0  0  0
   36.3430   29.7500   40.4230 C   0  0  0  0  0  0  0  0  0  0  0  0
   36.5300   29.6920   39.0440 C   0  0  0  0  0  0  0  0  0  0  0  0
   36.3230   28.7850   38.4230 H   0  0  0  0  0  0  0  0  0  0  0  0
   37.1530   31.3930   38.6530 S   0  0  0  0  0  0  0  0  0  0  0  0
   37.0410   31.8740   40.4720 C   0  0  0  0  0  0  0  0  0  0  0  0
   37.3060   32.8580   40.8820 H   0  0  0  0  0  0  0  0  0  0  0  0
   36.6480   30.9170   40.9770 N   0  0  0  0  0  0  0  0  0  0  0  0
  1  4  1  6  0  0  0
  1 10  1  0  0  0  0
  1  2  1  0  0  0  0
  2  5  1  0  0  0  0
  3  1  1  0  0  0  0
  3  7  1  1  0  0  0
  3  2  1  0  0  0  0
  6  2  1  0  0  0  0
  8 13  1  0  0  0  0
  9 10  1  0  0  0  0
  9  8  2  0  0  0  0
 10 11  2  0  0  0  0
 11 12  1  0  0  0  0
 12 15  1  0  0  0  0
 13 12  2  0  0  0  0
 14  8  1  0  0  0  0
 16  9  1  0  0  0  0
 16 17  1  0  0  0  0
 18 16  1  0  0  0  0
 19 20  1  0  0  0  0
 19  3  1  0  0  0  0
 21 19  1  0  0  0  0
 22 28  1  0  0  0  0
 22 19  1  0  0  0  0
 23 22  2  0  0  0  0
 24 23  1  0  0  0  0
 25 23  1  0  0  0  0
 25 26  1  0  0  0  0
 26 27  1  0  0  0  0
 26 28  2  0  0  0  0
M  END
>  <minimizedAffinity>
-4.82036066

$$$$

 OpenBabel03252509273D

 28 30  0  0  1  0  0  0  0  0999 V2000
   36.3070   29.8260   40.7890 C   0  0  1  0  0  0  0  0  0  0  0  0
   35.0610   28.9280   40.5340 C   0  0  0  0  0  0  0  0  0  0  0  0
   36.4530   28.4620   41.0760 C   0  0  2  0  0  0  0  0  0  0  0  0
   36.1360   30.5940   41.5720 H   0  0  0  0  0  0  0  0  0  0  0  0
   34.8030   28.6620   39.5100 H   0  0  0  0  0  0  0  0  0  0  0  0
   34.3060   28.9710   41.3270 H   0  0  0  0  0  0  0  0  0  0  0  0
   36.9490   27.7420   40.3530 H   0  0  0  0  0  0  0  0  0  0  0  0
   37.6240   32.1470   38.1460 C   0  0  0  0  0  0  0  0  0  0  0  0
   37.0720   31.7200   39.3980 C   0  0  0  0  0  0  0  0  0  0  0  0
   36.8220   30.3900   39.4870 C   0  0  0  0  0  0  0  0  0  0  0  0
   37.0810   29.5220   38.4490 N   0  0  0  0  0  0  0  0  0  0  0  0
   37.5990   29.9630   37.2890 C   0  0  0  0  0  0  0  0  0  0  0  0
   37.8720   31.2790   37.1390 N   0  0  0  0  0  0  0  0  0  0  0  0
   37.8190   33.2230   38.0930 H   0  0  0  0  0  0  0  0  0  0  0  0
   37.7910   29.2610   36.4940 H   0  0  0  0  0  0  0  0  0  0  0  0
   36.7820   32.6170   40.4390 N   0  0  0  0  0  0  0  0  0  0  0  0
   35.7660   32.7980   40.2080 H   0  0  0  0  0  0  0  0  0  0  0  0
   37.3570   33.0080   41.2190 H   0  0  0  0  0  0  0  0  0  0  0  0
   36.5010   27.9340   42.4870 C   0  0  0  0  0  0  0  0  0  0  0  0
   35.5750   27.3690   42.7160 H   0  0  0  0  0  0  0  0  0  0  0  0
   36.4690   28.8200   43.1520 H   0  0  0  0  0  0  0  0  0  0  0  0
   37.7070   27.0740   42.7160 C   0  0  0  0  0  0  0  0  0  0  0  0
   37.8160   25.7930   42.1770 C   0  0  0  0  0  0  0  0  0  0  0  0
   37.0290   25.3130   41.5430 H   0  0  0  0  0  0  0  0  0  0  0  0
   39.4760   25.2420   42.7880 S   0  0  0  0  0  0  0  0  0  0  0  0
   39.7160   26.8860   43.6800 C   0  0  0  0  0  0  0  0  0  0  0  0
   40.6010   27.1600   44.2700 H   0  0  0  0  0  0  0  0  0  0  0  0
   38.7490   27.4610   43.4420 N   0  0  0  0  0  0  0  0  0  0  0  0
  1  3  1  0  0  0  0
  1  4  1  1  0  0  0
  2  1  1  0  0  0  0
  2  3  1  0  0  0  0
  2  6  1  0  0  0  0
  3  7  1  6  0  0  0
  3 19  1  0  0  0  0
  5  2  1  0  0  0  0
  8  9  1  0  0  0  0
  9 10  2  0  0  0  0
  9 16  1  0  0  0  0
 10  1  1  0  0  0  0
 11 10  1  0  0  0  0
 12 11  2  0  0  0  0
 13 12  1  0  0  0  0
 13  8  2  0  0  0  0
 14  8  1  0  0  0  0
 15 12  1  0  0  0  0
 16 18  1  0  0  0  0
 17 16  1  0  0  0  0
 19 20  1  0  0  0  0
 19 22  1  0  0  0  0
 19 21  1  0  0  0  0
 22 28  1  0  0  0  0
 23 22  2  0  0  0  0
 23 25  1  0  0  0  0
 24 23  1  0  0  0  0
 25 26  1  0  0  0  0
 26 27  1  0  0  0  0
 28 26  2  0  0  0  0
M  END
>  <minimizedAffinity>
-4.72475958

$$$$

 OpenBabel03252509273D

 28 30  0  0  1  0  0  0  0  0999 V2000
   37.7710   32.3580   39.5030 C   0  0  1  0  0  0  0  0  0  0  0  0
   37.3190   31.7590   38.1390 C   0  0  0  0  0  0  0  0  0  0  0  0
   37.5310   30.9770   39.4780 C   0  0  2  0  0  0  0  0  0  0  0  0
   37.0480   33.0900   39.9170 H   0  0  0  0  0  0  0  0  0  0  0  0
   38.0590   31.6220   37.3520 H   0  0  0  0  0  0  0  0  0  0  0  0
   36.2570   31.9060   37.9140 H   0  0  0  0  0  0  0  0  0  0  0  0
   38.3690   30.2190   39.3760 H   0  0  0  0  0  0  0  0  0  0  0  0
   41.0200   34.0960   40.2290 C   0  0  0  0  0  0  0  0  0  0  0  0
   39.6500   33.7030   40.3780 C   0  0  0  0  0  0  0  0  0  0  0  0
   39.1820   32.8880   39.4020 C   0  0  0  0  0  0  0  0  0  0  0  0
   39.9680   32.4730   38.3500 N   0  0  0  0  0  0  0  0  0  0  0  0
   41.2490   32.8640   38.2450 C   0  0  0  0  0  0  0  0  0  0  0  0
   41.7760   33.6780   39.1890 N   0  0  0  0  0  0  0  0  0  0  0  0
   41.3810   34.7540   41.0260 H   0  0  0  0  0  0  0  0  0  0  0  0
   41.8410   32.5240   37.4110 H   0  0  0  0  0  0  0  0  0  0  0  0
   38.8470   34.1570   41.4370 N   0  0  0  0  0  0  0  0  0  0  0  0
   38.4130   34.9920   40.9550 H   0  0  0  0  0  0  0  0  0  0  0  0
   38.6940   33.8090   42.4100 H   0  0  0  0  0  0  0  0  0  0  0  0
   36.3120   30.3570   40.1140 C   0  0  0  0  0  0  0  0  0  0  0  0
   35.7250   29.8020   39.3540 H   0  0  0  0  0  0  0  0  0  0  0  0
   35.6610   31.1990   40.4220 H   0  0  0  0  0  0  0  0  0  0  0  0
   36.6800   29.4540   41.2520 C   0  0  0  0  0  0  0  0  0  0  0  0
   36.1240   28.1850   41.3990 C   0  0  0  0  0  0  0  0  0  0  0  0
   35.3740   27.7460   40.6940 H   0  0  0  0  0  0  0  0  0  0  0  0
   36.9410   27.5680   42.9430 S   0  0  0  0  0  0  0  0  0  0  0  0
   37.9030   29.1810   43.1040 C   0  0  0  0  0  0  0  0  0  0  0  0
   38.6160   29.4130   43.9060 H   0  0  0  0  0  0  0  0  0  0  0  0
   37.5510   29.7920   42.1940 N   0  0  0  0  0  0  0  0  0  0  0  0
  1  4  1  1  0  0  0
  2  3  1  0  0  0  0
  2  1  1  0  0  0  0
  3  7  1  1  0  0  0
  3  1  1  0  0  0  0
  3 19  1  0  0  0  0
  5  2  1  0  0  0  0
  6  2  1  0  0  0  0
  8  9  1  0  0  0  0
  8 14  1  0  0  0  0
  9 16  1  0  0  0  0
 10  1  1  0  0  0  0
 10  9  2  0  0  0  0
 11 10  1  0  0  0  0
 12 11  2  0  0  0  0
 12 13  1  0  0  0  0
 13  8  2  0  0  0  0
 15 12  1  0  0  0  0
 16 18  1  0  0  0  0
 17 16  1  0  0  0  0
 19 21  1  0  0  0  0
 19 22  1  0  0  0  0
 20 19  1  0  0  0  0
 22 23  2  0  0  0  0
 22 28  1  0  0  0  0
 23 25  1  0  0  0  0
 24 23  1  0  0  0  0
 25 26  1  0  0  0  0
 26 27  1  0  0  0  0
 28 26  2  0  0  0  0
M  END
>  <minimizedAffinity>
-4.61368608

$$$$

 OpenBabel03252509273D

 28 30  0  0  1  0  0  0  0  0999 V2000
   38.2050   32.6580   40.6260 C   0  0  1  0  0  0  0  0  0  0  0  0
   37.3620   32.9380   39.3480 C   0  0  0  0  0  0  0  0  0  0  0  0
   37.5560   31.5550   40.0530 C   0  0  2  0  0  0  0  0  0  0  0  0
   37.8220   33.1860   41.5240 H   0  0  0  0  0  0  0  0  0  0  0  0
   37.8760   33.0980   38.4010 H   0  0  0  0  0  0  0  0  0  0  0  0
   36.3720   33.3640   39.5470 H   0  0  0  0  0  0  0  0  0  0  0  0
   38.0930   30.8240   39.3720 H   0  0  0  0  0  0  0  0  0  0  0  0
   41.9570   32.5880   40.7920 C   0  0  0  0  0  0  0  0  0  0  0  0
   40.5960   32.3530   41.1740 C   0  0  0  0  0  0  0  0  0  0  0  0
   39.6690   32.9060   40.3530 C   0  0  0  0  0  0  0  0  0  0  0  0
   40.0170   33.6390   39.2400 N   0  0  0  0  0  0  0  0  0  0  0  0
   41.3070   33.8370   38.9160 C   0  0  0  0  0  0  0  0  0  0  0  0
   42.2780   33.3090   39.6950 N   0  0  0  0  0  0  0  0  0  0  0  0
   42.6900   32.1330   41.4660 H   0  0  0  0  0  0  0  0  0  0  0  0
   41.5500   34.4150   38.0390 H   0  0  0  0  0  0  0  0  0  0  0  0
   40.2500   31.6310   42.3290 N   0  0  0  0  0  0  0  0  0  0  0  0
   40.1540   32.4460   42.9970 H   0  0  0  0  0  0  0  0  0  0  0  0
   40.1170   30.6120   42.5150 H   0  0  0  0  0  0  0  0  0  0  0  0
   36.3380   30.9210   40.6760 C   0  0  0  0  0  0  0  0  0  0  0  0
   35.6010   30.6580   39.8910 H   0  0  0  0  0  0  0  0  0  0  0  0
   35.8480   31.7140   41.2770 H   0  0  0  0  0  0  0  0  0  0  0  0
   36.6950   29.7110   41.4840 C   0  0  0  0  0  0  0  0  0  0  0  0
   36.0730   28.4800   41.2880 C   0  0  0  0  0  0  0  0  0  0  0  0
   35.2730   28.2980   40.5270 H   0  0  0  0  0  0  0  0  0  0  0  0
   36.9090   27.4040   42.5440 S   0  0  0  0  0  0  0  0  0  0  0  0
   37.9680   28.8560   43.1120 C   0  0  0  0  0  0  0  0  0  0  0  0
   38.7230   28.8130   43.9090 H   0  0  0  0  0  0  0  0  0  0  0  0
   37.6190   29.7200   42.4370 N   0  0  0  0  0  0  0  0  0  0  0  0
  1  4  1  1  0  0  0
  2  6  1  0  0  0  0
  2  3  1  0  0  0  0
  2  1  1  0  0  0  0
  3  7  1  6  0  0  0
  3  1  1  0  0  0  0
  3 19  1  0  0  0  0
  5  2  1  0  0  0  0
  8  9  1  0  0  0  0
  8 14  1  0  0  0  0
  9 16  1  0  0  0  0
 10  1  1  0  0  0  0
 10  9  2  0  0  0  0
 11 10  1  0  0  0  0
 12 11  2  0  0  0  0
 12 13  1  0  0  0  0
 13  8  2  0  0  0  0
 15 12  1  0  0  0  0
 16 18  1  0  0  0  0
 16 17  1  0  0  0  0
 19 21  1  0  0  0  0
 19 22  1  0  0  0  0
 20 19  1  0  0  0  0
 22 28  1  0  0  0  0
 23 22  2  0  0  0  0
 23 25  1  0  0  0  0
 24 23  1  0  0  0  0
 25 26  1  0  0  0  0
 26 27  1  0  0  0  0
 28 26  2  0  0  0  0
M  END
>  <minimizedAffinity>
-4.48668337

$$$$

 OpenBabel03252509273D

 28 30  0  0  1  0  0  0  0  0999 V2000
   36.2290   28.5570   39.7480 C   0  0  1  0  0  0  0  0  0  0  0  0
   36.5830   27.4640   38.6960 C   0  0  0  0  0  0  0  0  0  0  0  0
   37.1650   27.5910   40.1440 C   0  0  2  0  0  0  0  0  0  0  0  0
   35.1640   28.5310   40.0590 H   0  0  0  0  0  0  0  0  0  0  0  0
   37.2370   27.7240   37.8650 H   0  0  0  0  0  0  0  0  0  0  0  0
   35.8450   26.6580   38.6210 H   0  0  0  0  0  0  0  0  0  0  0  0
   38.2820   27.7850   40.1160 H   0  0  0  0  0  0  0  0  0  0  0  0
   37.0330   32.2200   39.5590 C   0  0  0  0  0  0  0  0  0  0  0  0
   36.5010   30.9920   40.0690 C   0  0  0  0  0  0  0  0  0  0  0  0
   36.6890   29.9130   39.2700 C   0  0  0  0  0  0  0  0  0  0  0  0
   37.3430   29.9990   38.0610 N   0  0  0  0  0  0  0  0  0  0  0  0
   37.8280   31.1720   37.6170 C   0  0  0  0  0  0  0  0  0  0  0  0
   37.6730   32.2850   38.3700 N   0  0  0  0  0  0  0  0  0  0  0  0
   36.8720   33.0800   40.2180 H   0  0  0  0  0  0  0  0  0  0  0  0
   38.3350   31.2100   36.6660 H   0  0  0  0  0  0  0  0  0  0  0  0
   35.8080   30.9190   41.2890 N   0  0  0  0  0  0  0  0  0  0  0  0
   34.8250   31.0320   40.9150 H   0  0  0  0  0  0  0  0  0  0  0  0
   36.1230   30.7930   42.2770 H   0  0  0  0  0  0  0  0  0  0  0  0
   36.8290   26.4930   41.1200 C   0  0  0  0  0  0  0  0  0  0  0  0
   36.5010   25.5840   40.5750 H   0  0  0  0  0  0  0  0  0  0  0  0
   35.9330   26.8350   41.6760 H   0  0  0  0  0  0  0  0  0  0  0  0
   37.9870   26.1750   42.0160 C   0  0  0  0  0  0  0  0  0  0  0  0
   38.5780   27.1370   42.8320 C   0  0  0  0  0  0  0  0  0  0  0  0
   38.2440   28.2040   42.8830 H   0  0  0  0  0  0  0  0  0  0  0  0
   39.9170   26.1760   43.6780 S   0  0  0  0  0  0  0  0  0  0  0  0
   39.4140   24.6160   42.7480 C   0  0  0  0  0  0  0  0  0  0  0  0
   39.8980   23.6350   42.8510 H   0  0  0  0  0  0  0  0  0  0  0  0
   38.5310   24.9670   42.0990 N   0  0  0  0  0  0  0  0  0  0  0  0
  1  4  1  1  0  0  0
  1  3  1  0  0  0  0
  2  1  1  0  0  0  0
  2  3  1  0  0  0  0
  3  7  1  1  0  0  0
  3 19  1  0  0  0  0
  5  2  1  0  0  0  0
  6  2  1  0  0  0  0
  8  9  1  0  0  0  0
  8 14  1  0  0  0  0
  9 16  1  0  0  0  0
 10  1  1  0  0  0  0
 10  9  2  0  0  0  0
 11 10  1  0  0  0  0
 12 11  2  0  0  0  0
 12 13  1  0  0  0  0
 13  8  2  0  0  0  0
 15 12  1  0  0  0  0
 16 18  1  0  0  0  0
 17 16  1  0  0  0  0
 19 21  1  0  0  0  0
 19 22  1  0  0  0  0
 20 19  1  0  0  0  0
 22 28  1  0  0  0  0
 22 23  2  0  0  0  0
 23 24  1  0  0  0  0
 23 25  1  0  0  0  0
 26 27  1  0  0  0  0
 26 25  1  0  0  0  0
 28 26  2  0  0  0  0
M  END
>  <minimizedAffinity>
-4.44558811

$$$$

 OpenBabel03252509273D

 28 30  0  0  1  0  0  0  0  0999 V2000
   37.3660   26.5930   42.5700 C   0  0  1  0  0  0  0  0  0  0  0  0
   37.0060   25.2520   41.8640 C   0  0  0  0  0  0  0  0  0  0  0  0
   38.4420   25.8320   42.0910 C   0  0  2  0  0  0  0  0  0  0  0  0
   37.0690   26.6150   43.6380 H   0  0  0  0  0  0  0  0  0  0  0  0
   36.6050   25.2800   40.8520 H   0  0  0  0  0  0  0  0  0  0  0  0
   36.7840   24.4280   42.5520 H   0  0  0  0  0  0  0  0  0  0  0  0
   38.9490   26.0570   41.1020 H   0  0  0  0  0  0  0  0  0  0  0  0
   36.4900   30.0610   41.4240 C   0  0  0  0  0  0  0  0  0  0  0  0
   36.9470   29.0120   42.2870 C   0  0  0  0  0  0  0  0  0  0  0  0
   36.8450   27.7630   41.7700 C   0  0  0  0  0  0  0  0  0  0  0  0
   36.3380   27.5270   40.5110 N   0  0  0  0  0  0  0  0  0  0  0  0
   35.9180   28.5390   39.7320 C   0  0  0  0  0  0  0  0  0  0  0  0
   35.9960   29.8090   40.1910 N   0  0  0  0  0  0  0  0  0  0  0  0
   36.5800   31.0620   41.8580 H   0  0  0  0  0  0  0  0  0  0  0  0
   35.5260   28.3250   38.7510 H   0  0  0  0  0  0  0  0  0  0  0  0
   37.4340   29.2580   43.5810 N   0  0  0  0  0  0  0  0  0  0  0  0
   36.5310   29.1180   44.1150 H   0  0  0  0  0  0  0  0  0  0  0  0
   38.3800   29.5050   43.9490 H   0  0  0  0  0  0  0  0  0  0  0  0
   39.3590   25.0630   43.0080 C   0  0  0  0  0  0  0  0  0  0  0  0
   39.5560   24.0540   42.5930 H   0  0  0  0  0  0  0  0  0  0  0  0
   38.7870   24.8840   43.9410 H   0  0  0  0  0  0  0  0  0  0  0  0
   40.6470   25.7920   43.2430 C   0  0  0  0  0  0  0  0  0  0  0  0
   40.6900   27.1670   43.4610 C   0  0  0  0  0  0  0  0  0  0  0  0
   39.7860   27.8260   43.4790 H   0  0  0  0  0  0  0  0  0  0  0  0
   42.5030   27.4810   43.6800 S   0  0  0  0  0  0  0  0  0  0  0  0
   42.8710   25.6490   43.4280 C   0  0  0  0  0  0  0  0  0  0  0  0
   43.8720   25.1970   43.4510 H   0  0  0  0  0  0  0  0  0  0  0  0
   41.8300   25.1900   43.2590 N   0  0  0  0  0  0  0  0  0  0  0  0
  1  4  1  1  0  0  0
  2  3  1  0  0  0  0
  2  6  1  0  0  0  0
  2  1  1  0  0  0  0
  3  7  1  6  0  0  0
  3  1  1  0  0  0  0
  3 19  1  0  0  0  0
  5  2  1  0  0  0  0
  8 14  1  0  0  0  0
  8  9  1  0  0  0  0
  9 16  1  0  0  0  0
 10  9  2  0  0  0  0
 10  1  1  0  0  0  0
 11 10  1  0  0  0  0
 12 13  1  0  0  0  0
 12 11  2  0  0  0  0
 13  8  2  0  0  0  0
 15 12  1  0  0  0  0
 16 18  1  0  0  0  0
 16 17  1  0  0  0  0
 19 22  1  0  0  0  0
 19 21  1  0  0  0  0
 20 19  1  0  0  0  0
 22 28  1  0  0  0  0
 22 23  2  0  0  0  0
 23 24  1  0  0  0  0
 23 25  1  0  0  0  0
 26 27  1  0  0  0  0
 26 25  1  0  0  0  0
 28 26  2  0  0  0  0
M  END
>  <minimizedAffinity>
-4.40334558

$$$$

 OpenBabel03252509273D

 28 30  0  0  1  0  0  0  0  0999 V2000
   39.1580   28.0970   43.2680 C   0  0  1  0  0  0  0  0  0  0  0  0
   40.7040   28.0820   43.0820 C   0  0  0  0  0  0  0  0  0  0  0  0
   39.6720   28.9180   42.2540 C   0  0  2  0  0  0  0  0  0  0  0  0
   38.8440   28.4850   44.2590 H   0  0  0  0  0  0  0  0  0  0  0  0
   41.1690   27.2270   42.5930 H   0  0  0  0  0  0  0  0  0  0  0  0
   41.2490   28.7030   43.8030 H   0  0  0  0  0  0  0  0  0  0  0  0
   39.6760   28.6020   41.1640 H   0  0  0  0  0  0  0  0  0  0  0  0
   36.8230   25.3440   42.2330 C   0  0  0  0  0  0  0  0  0  0  0  0
   37.2640   26.6560   42.6030 C   0  0  0  0  0  0  0  0  0  0  0  0
   38.5770   26.7450   42.9320 C   0  0  0  0  0  0  0  0  0  0  0  0
   39.4160   25.6530   42.9100 N   0  0  0  0  0  0  0  0  0  0  0  0
   38.9630   24.4370   42.5570 C   0  0  0  0  0  0  0  0  0  0  0  0
   37.6630   24.2840   42.2170 N   0  0  0  0  0  0  0  0  0  0  0  0
   35.7620   25.2910   41.9710 H   0  0  0  0  0  0  0  0  0  0  0  0
   39.6430   23.6010   42.5500 H   0  0  0  0  0  0  0  0  0  0  0  0
   36.3940   27.7580   42.6530 N   0  0  0  0  0  0  0  0  0  0  0  0
   36.1350   27.7030   43.6780 H   0  0  0  0  0  0  0  0  0  0  0  0
   36.0750   28.4430   41.9320 H   0  0  0  0  0  0  0  0  0  0  0  0
   39.7370   30.4180   42.3850 C   0  0  0  0  0  0  0  0  0  0  0  0
   40.7580   30.7790   42.1450 H   0  0  0  0  0  0  0  0  0  0  0  0
   39.5980   30.6430   43.4610 H   0  0  0  0  0  0  0  0  0  0  0  0
   38.7260   31.0950   41.5100 C   0  0  0  0  0  0  0  0  0  0  0  0
   39.0260   32.2490   40.7880 C   0  0  0  0  0  0  0  0  0  0  0  0
   40.0250   32.7530   40.8030 H   0  0  0  0  0  0  0  0  0  0  0  0
   37.4270   32.6060   39.9220 S   0  0  0  0  0  0  0  0  0  0  0  0
   36.6340   31.0920   40.7180 C   0  0  0  0  0  0  0  0  0  0  0  0
   35.5970   30.7660   40.5610 H   0  0  0  0  0  0  0  0  0  0  0  0
   37.4840   30.6530   41.3590 N   0  0  0  0  0  0  0  0  0  0  0  0
  1  4  1  1  0  0  0
  2  1  1  0  0  0  0
  2  6  1  0  0  0  0
  3  7  1  6  0  0  0
  3 19  1  0  0  0  0
  3  2  1  0  0  0  0
  3  1  1  0  0  0  0
  5  2  1  0  0  0  0
  8  9  1  0  0  0  0
  9 16  1  0  0  0  0
  9 10  2  0  0  0  0
 10  1  1  0  0  0  0
 11 10  1  0  0  0  0
 12 11  2  0  0  0  0
 13  8  2  0  0  0  0
 13 12  1  0  0  0  0
 14  8  1  0  0  0  0
 15 12  1  0  0  0  0
 16 17  1  0  0  0  0
 18 16  1  0  0  0  0
 19 21  1  0  0  0  0
 20 19  1  0  0  0  0
 22 19  1  0  0  0  0
 23 24  1  0  0  0  0
 23 22  2  0  0  0  0
 25 26  1  0  0  0  0
 25 23  1  0  0  0  0
 26 28  2  0  0  0  0
 27 26  1  0  0  0  0
 28 22  1  0  0  0  0
M  END
>  <minimizedAffinity>
-4.40182066

$$$$

 OpenBabel03252509273D

 28 30  0  0  1  0  0  0  0  0999 V2000
   36.9830   31.1530   40.2240 C   0  0  1  0  0  0  0  0  0  0  0  0
   36.7460   30.6370   38.7740 C   0  0  0  0  0  0  0  0  0  0  0  0
   37.1360   29.7740   40.0200 C   0  0  2  0  0  0  0  0  0  0  0  0
   36.0770   31.6010   40.6800 H   0  0  0  0  0  0  0  0  0  0  0  0
   37.5120   30.8100   38.0200 H   0  0  0  0  0  0  0  0  0  0  0  0
   35.6900   30.5180   38.5080 H   0  0  0  0  0  0  0  0  0  0  0  0
   38.1530   29.2930   39.8780 H   0  0  0  0  0  0  0  0  0  0  0  0
   39.2320   34.1610   40.1490 C   0  0  0  0  0  0  0  0  0  0  0  0
   38.0390   33.3780   40.0140 C   0  0  0  0  0  0  0  0  0  0  0  0
   38.1940   32.0550   40.2680 C   0  0  0  0  0  0  0  0  0  0  0  0
   39.4080   31.5120   40.6250 N   0  0  0  0  0  0  0  0  0  0  0  0
   40.5050   32.2810   40.7400 C   0  0  0  0  0  0  0  0  0  0  0  0
   40.4150   33.6090   40.5020 N   0  0  0  0  0  0  0  0  0  0  0  0
   39.0880   35.2260   39.9410 H   0  0  0  0  0  0  0  0  0  0  0  0
   41.4420   31.8280   41.0210 H   0  0  0  0  0  0  0  0  0  0  0  0
   36.8120   33.9350   39.6180 N   0  0  0  0  0  0  0  0  0  0  0  0
   36.8870   33.7510   38.5790 H   0  0  0  0  0  0  0  0  0  0  0  0
   36.0380   34.3950   40.1480 H   0  0  0  0  0  0  0  0  0  0  0  0
   36.1230   28.7700   40.5070 C   0  0  0  0  0  0  0  0  0  0  0  0
   35.4820   28.4350   39.6660 H   0  0  0  0  0  0  0  0  0  0  0  0
   35.4420   29.3190   41.1870 H   0  0  0  0  0  0  0  0  0  0  0  0
   36.7800   27.5930   41.1620 C   0  0  0  0  0  0  0  0  0  0  0  0
   36.7920   26.3300   40.5750 C   0  0  0  0  0  0  0  0  0  0  0  0
   36.3220   26.0950   39.5870 H   0  0  0  0  0  0  0  0  0  0  0  0
   37.7220   25.3190   41.8190 S   0  0  0  0  0  0  0  0  0  0  0  0
   37.9240   26.8310   42.9270 C   0  0  0  0  0  0  0  0  0  0  0  0
   38.4410   26.8390   43.8960 H   0  0  0  0  0  0  0  0  0  0  0  0
   37.3920   27.6640   42.3380 N   0  0  0  0  0  0  0  0  0  0  0  0
  1 10  1  0  0  0  0
  1  4  1  1  0  0  0
  2  3  1  0  0  0  0
  2  1  1  0  0  0  0
  3  7  1  1  0  0  0
  3  1  1  0  0  0  0
  3 19  1  0  0  0  0
  5  2  1  0  0  0  0
  6  2  1  0  0  0  0
  8 13  1  0  0  0  0
  9  8  2  0  0  0  0
  9 10  1  0  0  0  0
 10 11  2  0  0  0  0
 11 12  1  0  0  0  0
 12 15  1  0  0  0  0
 13 12  2  0  0  0  0
 14  8  1  0  0  0  0
 16  9  1  0  0  0  0
 16 18  1  0  0  0  0
 17 16  1  0  0  0  0
 19 22  1  0  0  0  0
 19 21  1  0  0  0  0
 20 19  1  0  0  0  0
 22 28  1  0  0  0  0
 23 22  2  0  0  0  0
 23 25  1  0  0  0  0
 24 23  1  0  0  0  0
 25 26  1  0  0  0  0
 26 27  1  0  0  0  0
 28 26  2  0  0  0  0
M  END
>  <minimizedAffinity>
-4.34252548

$$$$

 OpenBabel03252509273D

 28 30  0  0  1  0  0  0  0  0999 V2000
   37.3220   28.2340   42.2930 C   0  0  1  0  0  0  0  0  0  0  0  0
   36.5290   27.4660   43.3910 C   0  0  0  0  0  0  0  0  0  0  0  0
   37.8960   27.0420   42.7580 C   0  0  2  0  0  0  0  0  0  0  0  0
   37.6600   29.2380   42.6230 H   0  0  0  0  0  0  0  0  0  0  0  0
   35.6430   26.9000   43.1040 H   0  0  0  0  0  0  0  0  0  0  0  0
   36.6530   27.8720   44.4010 H   0  0  0  0  0  0  0  0  0  0  0  0
   37.7960   26.0630   42.1950 H   0  0  0  0  0  0  0  0  0  0  0  0
   35.2280   29.3160   39.3690 C   0  0  0  0  0  0  0  0  0  0  0  0
   35.8770   29.3750   40.6450 C   0  0  0  0  0  0  0  0  0  0  0  0
   36.5440   28.2500   40.9980 C   0  0  0  0  0  0  0  0  0  0  0  0
   36.5900   27.1370   40.1880 N   0  0  0  0  0  0  0  0  0  0  0  0
   35.9670   27.1210   38.9970 C   0  0  0  0  0  0  0  0  0  0  0  0
   35.2850   28.2140   38.5870 N   0  0  0  0  0  0  0  0  0  0  0  0
   34.6940   30.2340   39.1000 H   0  0  0  0  0  0  0  0  0  0  0  0
   36.0200   26.2360   38.3840 H   0  0  0  0  0  0  0  0  0  0  0  0
   35.7980   30.5030   41.4790 N   0  0  0  0  0  0  0  0  0  0  0  0
   34.9700   30.2040   42.0660 H   0  0  0  0  0  0  0  0  0  0  0  0
   36.3590   31.3830   41.5380 H   0  0  0  0  0  0  0  0  0  0  0  0
   39.1000   27.0270   43.6660 C   0  0  0  0  0  0  0  0  0  0  0  0
   39.1850   26.0430   44.1710 H   0  0  0  0  0  0  0  0  0  0  0  0
   38.8860   27.7500   44.4780 H   0  0  0  0  0  0  0  0  0  0  0  0
   40.3610   27.3400   42.9190 C   0  0  0  0  0  0  0  0  0  0  0  0
   40.8090   26.5530   41.8610 C   0  0  0  0  0  0  0  0  0  0  0  0
   40.2760   25.6410   41.4900 H   0  0  0  0  0  0  0  0  0  0  0  0
   42.3700   27.4140   41.3550 S   0  0  0  0  0  0  0  0  0  0  0  0
   42.1170   28.7070   42.7030 C   0  0  0  0  0  0  0  0  0  0  0  0
   42.7910   29.5520   42.9020 H   0  0  0  0  0  0  0  0  0  0  0  0
   41.1370   28.3780   43.2070 N   0  0  0  0  0  0  0  0  0  0  0  0
  1  4  1  1  0  0  0
  1  3  1  0  0  0  0
  1  2  1  0  0  0  0
  2  6  1  0  0  0  0
  3  7  1  6  0  0  0
  3  2  1  0  0  0  0
  3 19  1  0  0  0  0
  5  2  1  0  0  0  0
  8  9  1  0  0  0  0
  9 10  2  0  0  0  0
  9 16  1  0  0  0  0
 10  1  1  0  0  0  0
 11 10  1  0  0  0  0
 12 11  2  0  0  0  0
 13 12  1  0  0  0  0
 13  8  2  0  0  0  0
 14  8  1  0  0  0  0
 15 12  1  0  0  0  0
 16 18  1  0  0  0  0
 16 17  1  0  0  0  0
 19 20  1  0  0  0  0
 19 21  1  0  0  0  0
 22 28  1  0  0  0  0
 22 19  1  0  0  0  0
 23 22  2  0  0  0  0
 24 23  1  0  0  0  0
 25 23  1  0  0  0  0
 25 26  1  0  0  0  0
 26 27  1  0  0  0  0
 26 28  2  0  0  0  0
M  END
>  <minimizedAffinity>
-4.30931759

$$$$
