
 OpenBabel03242519473D

 36 38  0  0  1  0  0  0  0  0999 V2000
   46.6900   32.7710   46.5520 C   0  0  2  0  0  0  0  0  0  0  0  0
   47.0490   32.7140   45.1220 C   0  0  1  0  0  0  0  0  0  0  0  0
   46.5000   31.4270   44.6820 O   0  0  0  0  0  0  0  0  0  0  0  0
   47.1550   30.6420   45.6600 C   0  0  0  0  0  0  0  0  0  0  0  0
   46.5780   31.3010   46.9340 C   0  0  2  0  0  0  0  0  0  0  0  0
   47.4160   33.3150   47.1770 H   0  0  0  0  0  0  0  0  0  0  0  0
   48.1240   32.6030   44.9240 H   0  0  0  0  0  0  0  0  0  0  0  0
   48.2470   30.8630   45.6130 H   0  0  0  0  0  0  0  0  0  0  0  0
   46.8930   29.6200   45.5230 H   0  0  0  0  0  0  0  0  0  0  0  0
   47.2480   30.9950   47.7670 H   0  0  0  0  0  0  0  0  0  0  0  0
   44.7200   35.2780   43.9750 C   0  0  0  0  0  0  0  0  0  0  0  0
   45.3590   35.8410   42.8680 C   0  0  0  0  0  0  0  0  0  0  0  0
   46.6190   35.3300   42.4960 C   0  0  0  0  0  0  0  0  0  0  0  0
   47.1700   34.3040   43.2290 N   0  0  0  0  0  0  0  0  0  0  0  0
   46.5160   33.7890   44.2930 C   0  0  0  0  0  0  0  0  0  0  0  0
   45.2960   34.2640   44.6750 N   0  0  0  0  0  0  0  0  0  0  0  0
   44.8910   36.6480   42.3190 H   0  0  0  0  0  0  0  0  0  0  0  0
   47.1410   35.7470   41.6400 H   0  0  0  0  0  0  0  0  0  0  0  0
   43.4670   35.7390   44.3980 O   0  0  0  0  0  0  0  0  0  0  0  0
   42.6930   35.4340   43.7960 H   0  0  0  0  0  0  0  0  0  0  0  0
   45.3860   33.3590   46.6950 O   0  0  0  0  0  0  0  0  0  0  0  0
   44.9540   32.8390   47.3960 H   0  0  0  0  0  0  0  0  0  0  0  0
   45.2820   30.9110   47.0580 O   0  0  0  0  0  0  0  0  0  0  0  0
   44.9960   29.9660   48.0050 C   0  0  0  0  0  0  0  0  0  0  0  0
   43.8800   29.6580   47.8100 H   0  0  0  0  0  0  0  0  0  0  0  0
   45.0940   30.2390   49.0150 H   0  0  0  0  0  0  0  0  0  0  0  0
   45.6190   28.5980   47.7400 C   0  0  0  0  0  0  0  0  0  0  0  0
   46.0800   28.2790   48.6870 H   0  0  0  0  0  0  0  0  0  0  0  0
   46.4520   28.6580   47.0190 H   0  0  0  0  0  0  0  0  0  0  0  0
   44.5540   27.6670   47.2990 C   0  0  0  0  0  0  0  0  0  0  0  0
   43.8160   27.8040   46.1070 C   0  0  0  0  0  0  0  0  0  0  0  0
   43.7800   28.4740   45.2990 H   0  0  0  0  0  0  0  0  0  0  0  0
   42.7030   26.3630   46.1570 S   0  0  0  0  0  0  0  0  0  0  0  0
   43.4150   25.7910   47.8020 C   0  0  0  0  0  0  0  0  0  0  0  0
   43.0760   24.9000   48.3260 H   0  0  0  0  0  0  0  0  0  0  0  0
   44.2580   26.6170   48.0620 N   0  0  0  0  0  0  0  0  0  0  0  0
  1 21  1  0  0  0  0
  1  5  1  0  0  0  0
  1  6  1  1  0  0  0
  2  7  1  6  0  0  0
  2  1  1  0  0  0  0
  3  2  1  0  0  0  0
  3  4  1  0  0  0  0
  4  5  1  0  0  0  0
  5 23  1  0  0  0  0
  5 10  1  1  0  0  0
  8  4  1  0  0  0  0
  9  4  1  0  0  0  0
 11 19  1  0  0  0  0
 11 16  1  0  0  0  0
 12 11  2  0  0  0  0
 13 12  1  0  0  0  0
 13 14  2  0  0  0  0
 14 15  1  0  0  0  0
 15 16  2  0  0  0  0
 15  2  1  0  0  0  0
 17 12  1  0  0  0  0
 18 13  1  0  0  0  0
 20 19  1  0  0  0  0
 21 22  1  0  0  0  0
 23 24  1  0  0  0  0
 24 26  1  0  0  0  0
 25 24  1  0  0  0  0
 27 24  1  0  0  0  0
 27 28  1  0  0  0  0
 29 27  1  0  0  0  0
 30 27  1  0  0  0  0
 30 36  1  0  0  0  0
 31 33  1  0  0  0  0
 31 30  2  0  0  0  0
 32 31  1  0  0  0  0
 33 34  1  0  0  0  0
 34 36  2  0  0  0  0
 34 35  1  0  0  0  0
M  END
>  <minimizedAffinity>
-5.18836689

>  <minimizedRMSD>
0.860975802

$$$$
