REMARK  Name = 
REMARK  3 active torsions:
REMARK  status: ('A' for Active; 'I' for Inactive)
REMARK    1  A    between atoms: C_2  and  C_7
REMARK    2  A    between atoms: C_7  and  C_8
REMARK    3  A    between atoms: C_7  and  C_16
REMARK                            x       y       z     vdW  Elec       q    Type
REMARK                         _______ _______ _______ _____ _____    ______ ____
ROOT
ATOM      1  C   UNL     1      46.556  34.978  42.011  0.00  0.00    +0.000 C 
ATOM      2  H   UNL     1      46.114  35.989  41.840  0.00  0.00    +0.000 HD
ENDROOT
BRANCH   1   4
ATOM      3  C   UNL     1      45.169  35.233  44.052  0.00  0.00    +0.000 A 
ATOM      4  C   UNL     1      46.208  34.586  43.385  0.00  0.00    +0.000 A 
ATOM      5  C   UNL     1      46.913  33.552  44.059  0.00  0.00    +0.000 A 
ATOM      6  N   UNL     1      46.521  33.260  45.332  0.00  0.00    +0.000 NA
ATOM      7  C   UNL     1      45.519  33.909  45.931  0.00  0.00    +0.000 A 
ATOM      8  N   UNL     1      44.857  34.880  45.292  0.00  0.00    +0.000 NA
ATOM      9  H   UNL     1      44.585  36.027  43.610  0.00  0.00    +0.000 HD
ATOM     10  H   UNL     1      47.721  33.028  43.573  0.00  0.00    +0.000 HD
ATOM     11  H   UNL     1      45.225  33.656  46.949  0.00  0.00    +0.000 HD
ENDBRANCH   1   4
BRANCH   1  12
ATOM     12  C   UNL     1      46.090  34.020  40.973  0.00  0.00    +0.000 A 
ATOM     13  C   UNL     1      45.965  32.596  41.299  0.00  0.00    +0.000 A 
ATOM     14  H   UNL     1      46.179  32.171  42.226  0.00  0.00    +0.000 HD
ATOM     15  S   UNL     1      45.383  31.900  39.746  0.00  0.00    +0.000 S 
ATOM     16  C   UNL     1      45.394  33.614  38.892  0.00  0.00    +0.000 A 
ATOM     17  H   UNL     1      45.102  33.758  37.855  0.00  0.00    +0.000 HD
ATOM     18  N   UNL     1      45.767  34.350  39.737  0.00  0.00    +0.000 NA
ENDBRANCH   1  12
BRANCH   1  19
ATOM     19  C   UNL     1      48.053  35.188  41.944  0.00  0.00    +0.000 C 
ATOM     20  H   UNL     1      48.337  36.262  41.812  0.00  0.00    +0.000 HD
ATOM     21  H   UNL     1      48.396  34.694  40.987  0.00  0.00    +0.000 HD
ATOM     22  H   UNL     1      48.518  34.733  42.822  0.00  0.00    +0.000 HD
ENDBRANCH   1  19
TORSDOF 3
