
 OpenBabel03252509263D

 28 30  0  0  1  0  0  0  0  0999 V2000
   46.5950   35.0920   41.9180 C   0  0  1  0  0  0  0  0  0  0  0  0
   48.1430   35.2580   41.9360 C   0  0  0  0  0  0  0  0  0  0  0  0
   47.3380   34.0830   41.2870 C   0  0  2  0  0  0  0  0  0  0  0  0
   46.0780   35.9000   41.3610 H   0  0  0  0  0  0  0  0  0  0  0  0
   48.6850   35.0500   42.8570 H   0  0  0  0  0  0  0  0  0  0  0  0
   48.5290   35.9550   41.1830 H   0  0  0  0  0  0  0  0  0  0  0  0
   47.5750   33.0990   41.7970 H   0  0  0  0  0  0  0  0  0  0  0  0
   44.6420   35.4160   45.1090 C   0  0  0  0  0  0  0  0  0  0  0  0
   45.1240   35.7320   43.7970 C   0  0  0  0  0  0  0  0  0  0  0  0
   46.0720   34.8890   43.3200 C   0  0  0  0  0  0  0  0  0  0  0  0
   46.5340   33.8140   44.0460 N   0  0  0  0  0  0  0  0  0  0  0  0
   46.0570   33.5520   45.2760 C   0  0  0  0  0  0  0  0  0  0  0  0
   45.1080   34.3550   45.8070 N   0  0  0  0  0  0  0  0  0  0  0  0
   43.8770   36.1070   45.4780 H   0  0  0  0  0  0  0  0  0  0  0  0
   46.4370   32.7040   45.8220 H   0  0  0  0  0  0  0  0  0  0  0  0
   44.6700   36.8490   43.0760 N   0  0  0  0  0  0  0  0  0  0  0  0
   45.4190   37.5360   43.3680 H   0  0  0  0  0  0  0  0  0  0  0  0
   43.8560   36.9980   42.4380 H   0  0  0  0  0  0  0  0  0  0  0  0
   47.4050   33.9480   39.7870 C   0  0  0  0  0  0  0  0  0  0  0  0
   48.4050   33.5780   39.4810 H   0  0  0  0  0  0  0  0  0  0  0  0
   47.3410   34.9760   39.3790 H   0  0  0  0  0  0  0  0  0  0  0  0
   46.3320   33.0420   39.2640 C   0  0  0  0  0  0  0  0  0  0  0  0
   45.7490   32.0520   40.0530 C   0  0  0  0  0  0  0  0  0  0  0  0
   46.0300   31.8550   41.1180 H   0  0  0  0  0  0  0  0  0  0  0  0
   44.5270   31.2830   38.8920 S   0  0  0  0  0  0  0  0  0  0  0  0
   45.0450   32.4760   37.5260 C   0  0  0  0  0  0  0  0  0  0  0  0
   44.6220   32.4950   36.5120 H   0  0  0  0  0  0  0  0  0  0  0  0
   45.8600   33.1160   38.0260 N   0  0  0  0  0  0  0  0  0  0  0  0
  1  4  1  6  0  0  0
  1  2  1  0  0  0  0
  1 10  1  0  0  0  0
  2  5  1  0  0  0  0
  3  7  1  1  0  0  0
  3  1  1  0  0  0  0
  3  2  1  0  0  0  0
  6  2  1  0  0  0  0
  8 14  1  0  0  0  0
  8 13  1  0  0  0  0
  9  8  2  0  0  0  0
 10  9  1  0  0  0  0
 10 11  2  0  0  0  0
 11 12  1  0  0  0  0
 12 13  2  0  0  0  0
 12 15  1  0  0  0  0
 16 17  1  0  0  0  0
 16  9  1  0  0  0  0
 18 16  1  0  0  0  0
 19  3  1  0  0  0  0
 20 19  1  0  0  0  0
 21 19  1  0  0  0  0
 22 19  1  0  0  0  0
 22 23  2  0  0  0  0
 23 24  1  0  0  0  0
 25 23  1  0  0  0  0
 26 28  2  0  0  0  0
 26 25  1  0  0  0  0
 27 26  1  0  0  0  0
 28 22  1  0  0  0  0
M  END
>  <minimizedAffinity>
-4.47668362

>  <minimizedRMSD>
0.751385152

$$$$
