
 OpenBabel03242516393D

 18 19  0  0  0  0  0  0  0  0999 V2000
   37.1490   32.3800   39.4910 C   0  0  0  0  0  0  0  0  0  0  0  0
   37.1190   31.4910   40.5760 C   0  0  0  0  0  0  0  0  0  0  0  0
   37.2040   30.1110   40.3650 C   0  0  0  0  0  0  0  0  0  0  0  0
   37.3130   29.7310   39.0740 N   0  0  0  0  0  0  0  0  0  0  0  0
   37.3410   30.5820   38.0460 C   0  0  0  0  0  0  0  0  0  0  0  0
   37.2590   31.8930   38.2620 N   0  0  0  0  0  0  0  0  0  0  0  0
   37.0580   33.7780   39.7710 N   0  0  0  0  0  0  0  0  0  0  0  0
   37.0300   31.8580   41.5780 H   0  0  0  0  0  0  0  0  0  0  0  0
   37.4310   30.1660   37.0510 H   0  0  0  0  0  0  0  0  0  0  0  0
   37.2350   34.1460   40.7210 H   0  0  0  0  0  0  0  0  0  0  0  0
   36.8000   34.3970   38.9490 H   0  0  0  0  0  0  0  0  0  0  0  0
   37.1760   29.1460   41.4840 C   0  0  0  0  0  0  0  0  0  0  0  0
   36.6600   27.8860   41.2910 C   0  0  0  0  0  0  0  0  0  0  0  0
   36.2110   27.3410   40.4280 H   0  0  0  0  0  0  0  0  0  0  0  0
   36.8490   27.1130   42.9190 S   0  0  0  0  0  0  0  0  0  0  0  0
   37.6190   28.6610   43.6270 C   0  0  0  0  0  0  0  0  0  0  0  0
   38.1120   29.1940   44.6560 H   0  0  0  0  0  0  0  0  0  0  0  0
   37.6140   29.3970   42.6820 N   0  0  0  0  0  0  0  0  0  0  0  0
  1  7  1  0  0  0  0
  1  2  1  0  0  0  0
  2  8  1  0  0  0  0
  3  2  2  0  0  0  0
  3 12  1  0  0  0  0
  4  3  1  0  0  0  0
  5  6  1  0  0  0  0
  5  4  2  0  0  0  0
  6  1  2  0  0  0  0
  7 10  1  0  0  0  0
  9  5  1  0  0  0  0
 11  7  1  0  0  0  0
 12 18  1  0  0  0  0
 13 12  2  0  0  0  0
 13 15  1  0  0  0  0
 14 13  1  0  0  0  0
 15 16  1  0  0  0  0
 16 17  1  0  0  0  0
 18 16  2  0  0  0  0
M  END
>  <minimizedAffinity>
-4.07862186

$$$$

 OpenBabel03242516393D

 18 19  0  0  0  0  0  0  0  0999 V2000
   37.8750   33.3000   39.8840 C   0  0  0  0  0  0  0  0  0  0  0  0
   37.4000   32.1090   40.4510 C   0  0  0  0  0  0  0  0  0  0  0  0
   38.2690   31.2560   41.1420 C   0  0  0  0  0  0  0  0  0  0  0  0
   39.5520   31.6720   41.2070 N   0  0  0  0  0  0  0  0  0  0  0  0
   39.9970   32.8080   40.6660 C   0  0  0  0  0  0  0  0  0  0  0  0
   39.1580   33.6090   40.0120 N   0  0  0  0  0  0  0  0  0  0  0  0
   36.9380   34.1280   39.1910 N   0  0  0  0  0  0  0  0  0  0  0  0
   36.3690   31.8360   40.3630 H   0  0  0  0  0  0  0  0  0  0  0  0
   41.0470   33.0430   40.7800 H   0  0  0  0  0  0  0  0  0  0  0  0
   35.9200   34.0110   39.3250 H   0  0  0  0  0  0  0  0  0  0  0  0
   37.3580   34.8570   38.5440 H   0  0  0  0  0  0  0  0  0  0  0  0
   37.8040   29.9930   41.7520 C   0  0  0  0  0  0  0  0  0  0  0  0
   38.4160   29.5130   42.8870 C   0  0  0  0  0  0  0  0  0  0  0  0
   39.2540   29.8570   43.5360 H   0  0  0  0  0  0  0  0  0  0  0  0
   37.5050   27.9830   43.2250 S   0  0  0  0  0  0  0  0  0  0  0  0
   36.4080   28.2400   41.7340 C   0  0  0  0  0  0  0  0  0  0  0  0
   35.4520   27.7730   41.0600 H   0  0  0  0  0  0  0  0  0  0  0  0
   36.8290   29.2690   41.2880 N   0  0  0  0  0  0  0  0  0  0  0  0
  1  6  2  0  0  0  0
  1  2  1  0  0  0  0
  2  3  2  0  0  0  0
  3  4  1  0  0  0  0
  3 12  1  0  0  0  0
  5  9  1  0  0  0  0
  5  4  2  0  0  0  0
  6  5  1  0  0  0  0
  7 10  1  0  0  0  0
  7  1  1  0  0  0  0
  8  2  1  0  0  0  0
 11  7  1  0  0  0  0
 12 13  2  0  0  0  0
 13 15  1  0  0  0  0
 13 14  1  0  0  0  0
 16 15  1  0  0  0  0
 17 16  1  0  0  0  0
 18 16  2  0  0  0  0
 18 12  1  0  0  0  0
M  END
>  <minimizedAffinity>
-4.07537317

$$$$

 OpenBabel03242516393D

 18 19  0  0  0  0  0  0  0  0999 V2000
   36.7400   30.0420   41.3820 C   0  0  0  0  0  0  0  0  0  0  0  0
   36.4450   28.6800   41.2240 C   0  0  0  0  0  0  0  0  0  0  0  0
   37.4630   27.7220   41.2850 C   0  0  0  0  0  0  0  0  0  0  0  0
   38.7020   28.2110   41.5010 N   0  0  0  0  0  0  0  0  0  0  0  0
   38.9760   29.5090   41.6510 C   0  0  0  0  0  0  0  0  0  0  0  0
   37.9970   30.4100   41.5910 N   0  0  0  0  0  0  0  0  0  0  0  0
   35.6570   30.9720   41.3100 N   0  0  0  0  0  0  0  0  0  0  0  0
   35.4380   28.3570   41.0550 H   0  0  0  0  0  0  0  0  0  0  0  0
   40.0080   29.7890   41.8200 H   0  0  0  0  0  0  0  0  0  0  0  0
   34.6760   30.6600   41.4100 H   0  0  0  0  0  0  0  0  0  0  0  0
   35.9290   31.9850   41.1500 H   0  0  0  0  0  0  0  0  0  0  0  0
   37.1880   26.2780   41.1230 C   0  0  0  0  0  0  0  0  0  0  0  0
   36.6620   25.8090   39.9420 C   0  0  0  0  0  0  0  0  0  0  0  0
   36.3560   26.2720   38.9750 H   0  0  0  0  0  0  0  0  0  0  0  0
   36.5170   24.0270   40.2410 S   0  0  0  0  0  0  0  0  0  0  0  0
   37.2110   24.2030   41.9670 C   0  0  0  0  0  0  0  0  0  0  0  0
   37.5290   23.5920   43.0210 H   0  0  0  0  0  0  0  0  0  0  0  0
   37.4110   25.3810   42.0370 N   0  0  0  0  0  0  0  0  0  0  0  0
  1  6  1  0  0  0  0
  2  3  1  0  0  0  0
  2  1  2  0  0  0  0
  3  4  2  0  0  0  0
  4  5  1  0  0  0  0
  5  9  1  0  0  0  0
  6  5  2  0  0  0  0
  7  1  1  0  0  0  0
  7 10  1  0  0  0  0
  8  2  1  0  0  0  0
 11  7  1  0  0  0  0
 12  3  1  0  0  0  0
 12 18  1  0  0  0  0
 13 15  1  0  0  0  0
 13 12  2  0  0  0  0
 14 13  1  0  0  0  0
 15 16  1  0  0  0  0
 16 18  2  0  0  0  0
 16 17  1  0  0  0  0
M  END
>  <minimizedAffinity>
-3.91514421

$$$$

 OpenBabel03242516393D

 18 19  0  0  0  0  0  0  0  0999 V2000
   38.6940   25.0160   42.5500 C   0  0  0  0  0  0  0  0  0  0  0  0
   37.8820   26.0150   41.9940 C   0  0  0  0  0  0  0  0  0  0  0  0
   38.1000   27.3620   42.3050 C   0  0  0  0  0  0  0  0  0  0  0  0
   39.1220   27.5980   43.1550 N   0  0  0  0  0  0  0  0  0  0  0  0
   39.8920   26.6430   43.6800 C   0  0  0  0  0  0  0  0  0  0  0  0
   39.6730   25.3650   43.3740 N   0  0  0  0  0  0  0  0  0  0  0  0
   38.4210   23.6600   42.1930 N   0  0  0  0  0  0  0  0  0  0  0  0
   37.0850   25.7610   41.3260 H   0  0  0  0  0  0  0  0  0  0  0  0
   40.6850   26.9470   44.3500 H   0  0  0  0  0  0  0  0  0  0  0  0
   37.8440   23.4290   41.3670 H   0  0  0  0  0  0  0  0  0  0  0  0
   38.8470   22.9220   42.8250 H   0  0  0  0  0  0  0  0  0  0  0  0
   37.2630   28.4410   41.7390 C   0  0  0  0  0  0  0  0  0  0  0  0
   37.6300   29.7550   41.9110 C   0  0  0  0  0  0  0  0  0  0  0  0
   38.4750   30.2790   42.4150 H   0  0  0  0  0  0  0  0  0  0  0  0
   36.3140   30.6610   41.0540 S   0  0  0  0  0  0  0  0  0  0  0  0
   35.4500   29.0730   40.5840 C   0  0  0  0  0  0  0  0  0  0  0  0
   34.4590   28.5710   39.9900 H   0  0  0  0  0  0  0  0  0  0  0  0
   36.1680   28.2450   41.0660 N   0  0  0  0  0  0  0  0  0  0  0  0
  1  6  1  0  0  0  0
  2  3  1  0  0  0  0
  2  1  2  0  0  0  0
  3  4  2  0  0  0  0
  4  5  1  0  0  0  0
  5  9  1  0  0  0  0
  6  5  2  0  0  0  0
  7  1  1  0  0  0  0
  7 11  1  0  0  0  0
  8  2  1  0  0  0  0
 10  7  1  0  0  0  0
 12 13  2  0  0  0  0
 12  3  1  0  0  0  0
 13 14  1  0  0  0  0
 15 13  1  0  0  0  0
 16 15  1  0  0  0  0
 16 18  2  0  0  0  0
 17 16  1  0  0  0  0
 18 12  1  0  0  0  0
M  END
>  <minimizedAffinity>
-3.91346049

$$$$

 OpenBabel03242516393D

 18 19  0  0  0  0  0  0  0  0999 V2000
   36.0900   29.6930   40.9620 C   0  0  0  0  0  0  0  0  0  0  0  0
   37.0810   29.0990   41.7580 C   0  0  0  0  0  0  0  0  0  0  0  0
   37.5450   27.8110   41.4690 C   0  0  0  0  0  0  0  0  0  0  0  0
   36.9740   27.2200   40.3980 N   0  0  0  0  0  0  0  0  0  0  0  0
   36.0320   27.7900   39.6440 C   0  0  0  0  0  0  0  0  0  0  0  0
   35.6000   29.0170   39.9310 N   0  0  0  0  0  0  0  0  0  0  0  0
   35.6570   31.0100   41.3090 N   0  0  0  0  0  0  0  0  0  0  0  0
   37.4930   29.6230   42.5950 H   0  0  0  0  0  0  0  0  0  0  0  0
   35.6440   27.2240   38.8080 H   0  0  0  0  0  0  0  0  0  0  0  0
   36.2200   31.6110   41.9340 H   0  0  0  0  0  0  0  0  0  0  0  0
   34.7350   31.3190   40.8840 H   0  0  0  0  0  0  0  0  0  0  0  0
   38.5880   27.1540   42.2850 C   0  0  0  0  0  0  0  0  0  0  0  0
   38.5900   25.7860   42.4240 C   0  0  0  0  0  0  0  0  0  0  0  0
   37.9500   24.9540   42.0480 H   0  0  0  0  0  0  0  0  0  0  0  0
   40.0260   25.4870   43.4890 S   0  0  0  0  0  0  0  0  0  0  0  0
   40.4090   27.3130   43.5810 C   0  0  0  0  0  0  0  0  0  0  0  0
   41.1870   28.1840   44.0530 H   0  0  0  0  0  0  0  0  0  0  0  0
   39.5400   27.7850   42.9070 N   0  0  0  0  0  0  0  0  0  0  0  0
  1  7  1  0  0  0  0
  1  2  1  0  0  0  0
  2  8  1  0  0  0  0
  3  2  2  0  0  0  0
  3 12  1  0  0  0  0
  4  3  1  0  0  0  0
  5  6  1  0  0  0  0
  5  4  2  0  0  0  0
  6  1  2  0  0  0  0
  7 10  1  0  0  0  0
  9  5  1  0  0  0  0
 11  7  1  0  0  0  0
 12 13  2  0  0  0  0
 12 18  1  0  0  0  0
 13 15  1  0  0  0  0
 14 13  1  0  0  0  0
 15 16  1  0  0  0  0
 16 17  1  0  0  0  0
 18 16  2  0  0  0  0
M  END
>  <minimizedAffinity>
-3.87827635

$$$$

 OpenBabel03242516393D

 18 19  0  0  0  0  0  0  0  0999 V2000
   36.6130   29.7980   41.5280 C   0  0  0  0  0  0  0  0  0  0  0  0
   36.3070   28.5560   40.9520 C   0  0  0  0  0  0  0  0  0  0  0  0
   37.1430   27.4530   41.1590 C   0  0  0  0  0  0  0  0  0  0  0  0
   38.2250   27.6870   41.9310 N   0  0  0  0  0  0  0  0  0  0  0  0
   38.5100   28.8710   42.4770 C   0  0  0  0  0  0  0  0  0  0  0  0
   37.7050   29.9130   42.2720 N   0  0  0  0  0  0  0  0  0  0  0  0
   35.7200   30.8860   41.2800 N   0  0  0  0  0  0  0  0  0  0  0  0
   35.4310   28.4370   40.3480 H   0  0  0  0  0  0  0  0  0  0  0  0
   39.4050   28.9460   43.0800 H   0  0  0  0  0  0  0  0  0  0  0  0
   34.7610   30.7220   40.9300 H   0  0  0  0  0  0  0  0  0  0  0  0
   36.1070   31.8540   41.4790 H   0  0  0  0  0  0  0  0  0  0  0  0
   36.8520   26.1300   40.5680 C   0  0  0  0  0  0  0  0  0  0  0  0
   37.0840   24.9870   41.2960 C   0  0  0  0  0  0  0  0  0  0  0  0
   37.4730   24.7680   42.3180 H   0  0  0  0  0  0  0  0  0  0  0  0
   36.5810   23.6690   40.1580 S   0  0  0  0  0  0  0  0  0  0  0  0
   36.1210   24.9080   38.8370 C   0  0  0  0  0  0  0  0  0  0  0  0
   35.6720   25.0570   37.6700 H   0  0  0  0  0  0  0  0  0  0  0  0
   36.3770   25.9490   39.3710 N   0  0  0  0  0  0  0  0  0  0  0  0
  1  6  1  0  0  0  0
  2  3  1  0  0  0  0
  2  1  2  0  0  0  0
  3  4  2  0  0  0  0
  4  5  1  0  0  0  0
  5  9  1  0  0  0  0
  6  5  2  0  0  0  0
  7 11  1  0  0  0  0
  7  1  1  0  0  0  0
  8  2  1  0  0  0  0
 10  7  1  0  0  0  0
 12  3  1  0  0  0  0
 12 13  2  0  0  0  0
 13 14  1  0  0  0  0
 15 13  1  0  0  0  0
 16 18  2  0  0  0  0
 16 15  1  0  0  0  0
 17 16  1  0  0  0  0
 18 12  1  0  0  0  0
M  END
>  <minimizedAffinity>
-3.85366344

$$$$

 OpenBabel03242516393D

 18 19  0  0  0  0  0  0  0  0999 V2000
   39.4250   33.1540   40.6720 C   0  0  0  0  0  0  0  0  0  0  0  0
   39.1950   31.9290   41.3160 C   0  0  0  0  0  0  0  0  0  0  0  0
   37.9860   31.2480   41.1350 C   0  0  0  0  0  0  0  0  0  0  0  0
   37.1010   31.8540   40.3150 N   0  0  0  0  0  0  0  0  0  0  0  0
   37.3260   33.0190   39.7050 C   0  0  0  0  0  0  0  0  0  0  0  0
   38.4810   33.6570   39.8870 N   0  0  0  0  0  0  0  0  0  0  0  0
   40.6790   33.8010   40.8970 N   0  0  0  0  0  0  0  0  0  0  0  0
   39.9400   31.5010   41.9550 H   0  0  0  0  0  0  0  0  0  0  0  0
   36.5440   33.4140   39.0690 H   0  0  0  0  0  0  0  0  0  0  0  0
   41.4850   33.2840   41.2870 H   0  0  0  0  0  0  0  0  0  0  0  0
   40.7190   34.8290   40.6400 H   0  0  0  0  0  0  0  0  0  0  0  0
   37.7100   29.9560   41.7980 C   0  0  0  0  0  0  0  0  0  0  0  0
   38.4840   29.5500   42.8590 C   0  0  0  0  0  0  0  0  0  0  0  0
   39.3540   29.9780   43.4100 H   0  0  0  0  0  0  0  0  0  0  0  0
   37.7600   27.9490   43.3030 S   0  0  0  0  0  0  0  0  0  0  0  0
   36.4870   28.0840   41.9430 C   0  0  0  0  0  0  0  0  0  0  0  0
   35.5090   27.5230   41.3810 H   0  0  0  0  0  0  0  0  0  0  0  0
   36.7600   29.1400   41.4480 N   0  0  0  0  0  0  0  0  0  0  0  0
  1  7  1  0  0  0  0
  1  2  1  0  0  0  0
  2  8  1  0  0  0  0
  3  2  2  0  0  0  0
  3 12  1  0  0  0  0
  4  3  1  0  0  0  0
  5  6  1  0  0  0  0
  5  4  2  0  0  0  0
  6  1  2  0  0  0  0
  7 10  1  0  0  0  0
  9  5  1  0  0  0  0
 11  7  1  0  0  0  0
 12 13  2  0  0  0  0
 13 15  1  0  0  0  0
 13 14  1  0  0  0  0
 16 15  1  0  0  0  0
 17 16  1  0  0  0  0
 18 12  1  0  0  0  0
 18 16  2  0  0  0  0
M  END
>  <minimizedAffinity>
-3.79444003

$$$$

 OpenBabel03242516393D

 18 19  0  0  0  0  0  0  0  0999 V2000
   39.9560   32.3740   38.2990 C   0  0  0  0  0  0  0  0  0  0  0  0
   39.2720   31.4330   39.0820 C   0  0  0  0  0  0  0  0  0  0  0  0
   39.3550   31.4770   40.4780 C   0  0  0  0  0  0  0  0  0  0  0  0
   40.1220   32.4690   40.9780 N   0  0  0  0  0  0  0  0  0  0  0  0
   40.7700   33.3620   40.2280 C   0  0  0  0  0  0  0  0  0  0  0  0
   40.6820   33.3080   38.9000 N   0  0  0  0  0  0  0  0  0  0  0  0
   39.8320   32.2760   36.8790 N   0  0  0  0  0  0  0  0  0  0  0  0
   38.6800   30.6690   38.6220 H   0  0  0  0  0  0  0  0  0  0  0  0
   41.3570   34.1160   40.7350 H   0  0  0  0  0  0  0  0  0  0  0  0
   39.0730   31.7250   36.4440 H   0  0  0  0  0  0  0  0  0  0  0  0
   40.5620   32.8010   36.3150 H   0  0  0  0  0  0  0  0  0  0  0  0
   38.6480   30.5020   41.3340 C   0  0  0  0  0  0  0  0  0  0  0  0
   39.1990   30.1160   42.5340 C   0  0  0  0  0  0  0  0  0  0  0  0
   40.1320   30.3670   43.0910 H   0  0  0  0  0  0  0  0  0  0  0  0
   37.9810   28.9420   43.1830 S   0  0  0  0  0  0  0  0  0  0  0  0
   36.8850   29.1640   41.6860 C   0  0  0  0  0  0  0  0  0  0  0  0
   35.8080   28.8190   41.1320 H   0  0  0  0  0  0  0  0  0  0  0  0
   37.5060   29.9570   41.0380 N   0  0  0  0  0  0  0  0  0  0  0  0
  1  6  2  0  0  0  0
  1  2  1  0  0  0  0
  2  3  2  0  0  0  0
  3  4  1  0  0  0  0
  3 12  1  0  0  0  0
  5  9  1  0  0  0  0
  5  4  2  0  0  0  0
  6  5  1  0  0  0  0
  7  1  1  0  0  0  0
  8  2  1  0  0  0  0
 10  7  1  0  0  0  0
 11  7  1  0  0  0  0
 12 13  2  0  0  0  0
 13 14  1  0  0  0  0
 13 15  1  0  0  0  0
 16 15  1  0  0  0  0
 17 16  1  0  0  0  0
 18 12  1  0  0  0  0
 18 16  2  0  0  0  0
M  END
>  <minimizedAffinity>
-3.71860266

$$$$

 OpenBabel03242516393D

 18 19  0  0  0  0  0  0  0  0999 V2000
   36.9220   30.5610   41.4730 C   0  0  0  0  0  0  0  0  0  0  0  0
   37.8630   31.4370   40.9130 C   0  0  0  0  0  0  0  0  0  0  0  0
   39.2190   31.3270   41.2430 C   0  0  0  0  0  0  0  0  0  0  0  0
   39.5210   30.3400   42.1130 N   0  0  0  0  0  0  0  0  0  0  0  0
   38.6200   29.5100   42.6420 C   0  0  0  0  0  0  0  0  0  0  0  0
   37.3330   29.6260   42.3180 N   0  0  0  0  0  0  0  0  0  0  0  0
   35.5530   30.7250   41.0960 N   0  0  0  0  0  0  0  0  0  0  0  0
   37.5570   32.2010   40.2270 H   0  0  0  0  0  0  0  0  0  0  0  0
   38.9750   28.7540   43.3300 H   0  0  0  0  0  0  0  0  0  0  0  0
   35.2900   31.2690   40.2570 H   0  0  0  0  0  0  0  0  0  0  0  0
   34.8420   30.2550   41.7290 H   0  0  0  0  0  0  0  0  0  0  0  0
   40.2380   32.2320   40.6730 C   0  0  0  0  0  0  0  0  0  0  0  0
   41.5000   32.2760   41.2190 C   0  0  0  0  0  0  0  0  0  0  0  0
   42.0120   31.7590   42.0640 H   0  0  0  0  0  0  0  0  0  0  0  0
   42.3470   33.5060   40.1910 S   0  0  0  0  0  0  0  0  0  0  0  0
   40.8170   33.7750   39.1530 C   0  0  0  0  0  0  0  0  0  0  0  0
   40.3230   34.4080   38.1830 H   0  0  0  0  0  0  0  0  0  0  0  0
   40.0350   33.0220   39.6590 N   0  0  0  0  0  0  0  0  0  0  0  0
  1  6  1  0  0  0  0
  2  3  1  0  0  0  0
  2  1  2  0  0  0  0
  3  4  2  0  0  0  0
  4  5  1  0  0  0  0
  5  9  1  0  0  0  0
  6  5  2  0  0  0  0
  7  1  1  0  0  0  0
  7 11  1  0  0  0  0
  8  2  1  0  0  0  0
 10  7  1  0  0  0  0
 12 13  2  0  0  0  0
 12  3  1  0  0  0  0
 13 14  1  0  0  0  0
 15 13  1  0  0  0  0
 16 18  2  0  0  0  0
 16 15  1  0  0  0  0
 17 16  1  0  0  0  0
 18 12  1  0  0  0  0
M  END
>  <minimizedAffinity>
-3.71231174

$$$$
