
 OpenBabel03252505513D

 23 24  0  0  0  0  0  0  0  0999 V2000
   44.7230   35.3910   45.0250 C   0  0  0  0  0  0  0  0  0  0  0  0
   45.6040   34.9360   44.0470 C   0  0  0  0  0  0  0  0  0  0  0  0
   46.3470   33.7930   44.3230 C   0  0  0  0  0  0  0  0  0  0  0  0
   46.1870   33.1810   45.5100 N   0  0  0  0  0  0  0  0  0  0  0  0
   45.3350   33.6370   46.4340 C   0  0  0  0  0  0  0  0  0  0  0  0
   44.5890   34.7430   46.2160 N   0  0  0  0  0  0  0  0  0  0  0  0
   44.1110   36.2730   44.8830 H   0  0  0  0  0  0  0  0  0  0  0  0
   47.0210   33.4700   43.5390 H   0  0  0  0  0  0  0  0  0  0  0  0
   45.6690   35.7300   42.7680 C   0  0  0  0  0  0  0  0  0  0  0  0
   45.2470   36.9880   43.0820 F   0  0  0  0  0  0  0  0  0  0  0  0
   44.7660   35.1250   41.8980 F   0  0  0  0  0  0  0  0  0  0  0  0
   46.9520   35.6650   42.2980 F   0  0  0  0  0  0  0  0  0  0  0  0
   45.1490   33.0310   47.6590 O   0  0  0  0  0  0  0  0  0  0  0  0
   46.1450   32.2730   48.2970 C   0  0  0  0  0  0  0  0  0  0  0  0
   47.1520   32.7200   48.1780 H   0  0  0  0  0  0  0  0  0  0  0  0
   45.9570   32.2810   49.3890 H   0  0  0  0  0  0  0  0  0  0  0  0
   46.1220   30.8240   47.8790 C   0  0  0  0  0  0  0  0  0  0  0  0
   47.2960   30.0390   47.7730 C   0  0  0  0  0  0  0  0  0  0  0  0
   48.3150   30.2940   47.9510 H   0  0  0  0  0  0  0  0  0  0  0  0
   46.6670   28.4220   47.2460 S   0  0  0  0  0  0  0  0  0  0  0  0
   44.8820   29.0780   47.2520 C   0  0  0  0  0  0  0  0  0  0  0  0
   43.7790   28.6430   47.0140 H   0  0  0  0  0  0  0  0  0  0  0  0
   45.0320   30.1440   47.5720 N   0  0  0  0  0  0  0  0  0  0  0  0
  1  6  1  0  0  0  0
  2  3  1  0  0  0  0
  2  1  2  0  0  0  0
  3  4  2  0  0  0  0
  4  5  1  0  0  0  0
  5 13  1  0  0  0  0
  6  5  2  0  0  0  0
  7  1  1  0  0  0  0
  8  3  1  0  0  0  0
  9 10  1  0  0  0  0
  9  2  1  0  0  0  0
 11  9  1  0  0  0  0
 12  9  1  0  0  0  0
 13 14  1  0  0  0  0
 14 16  1  0  0  0  0
 15 14  1  0  0  0  0
 17 14  1  0  0  0  0
 18 17  2  0  0  0  0
 18 19  1  0  0  0  0
 20 21  1  0  0  0  0
 20 18  1  0  0  0  0
 21 23  2  0  0  0  0
 22 21  1  0  0  0  0
 23 17  1  0  0  0  0
M  END
>  <minimizedAffinity>
-4.63303661

>  <minimizedRMSD>
0.710483551

$$$$
