REMARK  Name = 
REMARK  3 active torsions:
REMARK  status: ('A' for Active; 'I' for Inactive)
REMARK    1  A    between atoms: C_3  and  C_23
REMARK    2  A    between atoms: C_5  and  C_9
REMARK    3  A    between atoms: C_21  and  C_35
REMARK                            x       y       z     vdW  Elec       q    Type
REMARK                         _______ _______ _______ _____ _____    ______ ____
ROOT
ATOM      1 CL   UNL     1      44.794  35.980  43.303  0.00  0.00    +0.000 Cl
ATOM      2  C   UNL     1      45.535  34.738  44.242  0.00  0.00    +0.000 A 
ATOM      3  C   UNL     1      46.631  34.043  43.748  0.00  0.00    +0.000 A 
ATOM      4  C   UNL     1      47.152  33.072  44.581  0.00  0.00    +0.000 A 
ATOM      5  C   UNL     1      46.657  32.763  45.840  0.00  0.00    +0.000 A 
ATOM      6  C   UNL     1      45.572  33.469  46.297  0.00  0.00    +0.000 A 
ATOM      7 CL   UNL     1      44.983  33.045  47.890  0.00  0.00    +0.000 Cl
ATOM      8  C   UNL     1      45.019  34.449  45.501  0.00  0.00    +0.000 A 
ATOM      9  H   UNL     1      48.009  32.546  44.167  0.00  0.00    +0.000 HD
ATOM     10  H   UNL     1      44.166  34.994  45.877  0.00  0.00    +0.000 HD
ENDROOT
BRANCH   5  11
ATOM     11  C   UNL     1      47.350  31.700  46.568  0.00  0.00    +0.000 A 
ATOM     12  C   UNL     1      47.457  30.418  46.101  0.00  0.00    +0.000 A 
ATOM     13  C   UNL     1      48.108  29.393  46.767  0.00  0.00    +0.000 A 
ATOM     14  C   UNL     1      48.696  29.673  47.994  0.00  0.00    +0.000 A 
ATOM     15  N   UNL     1      49.316  28.667  48.615  0.00  0.00    +0.000 NA
ATOM     16  C   UNL     1      49.923  28.836  49.822  0.00  0.00    +0.000 A 
ATOM     17  C   UNL     1      49.860  30.119  50.372  0.00  0.00    +0.000 A 
ATOM     18  C   UNL     1      49.216  31.141  49.715  0.00  0.00    +0.000 A 
ATOM     19  C   UNL     1      48.613  30.932  48.496  0.00  0.00    +0.000 A 
ATOM     20  C   UNL     1      47.953  31.947  47.807  0.00  0.00    +0.000 A 
ATOM     21  H   UNL     1      46.980  30.239  45.129  0.00  0.00    +0.000 HD
ATOM     22  H   UNL     1      48.140  28.409  46.315  0.00  0.00    +0.000 HD
ATOM     23  H   UNL     1      50.436  28.049  50.358  0.00  0.00    +0.000 HD
ATOM     24  H   UNL     1      50.322  30.333  51.335  0.00  0.00    +0.000 HD
ATOM     25  H   UNL     1      49.170  32.136  50.151  0.00  0.00    +0.000 HD
ATOM     26  H   UNL     1      47.921  32.940  48.263  0.00  0.00    +0.000 HD
ENDBRANCH   5  11
BRANCH   3  31
ATOM     27  C   UNL     1      48.762  35.454  41.165  0.00  0.00    +0.000 A 
ATOM     28  C   UNL     1      48.276  34.868  39.985  0.00  0.00    +0.000 A 
ATOM     29  C   UNL     1      47.200  33.976  40.089  0.00  0.00    +0.000 A 
ATOM     30  N   UNL     1      46.721  33.758  41.322  0.00  0.00    +0.000 NA
ATOM     31  C   UNL     1      47.189  34.320  42.442  0.00  0.00    +0.000 A 
ATOM     32  N   UNL     1      48.229  35.185  42.372  0.00  0.00    +0.000 NA
ATOM     33  H   UNL     1      49.577  36.110  40.959  0.00  0.00    +0.000 HD
ATOM     34  H   UNL     1      48.682  35.062  39.001  0.00  0.00    +0.000 HD
BRANCH  29  35
ATOM     35  C   UNL     1      46.634  33.321  38.936  0.00  0.00    +0.000 A 
ATOM     36  C   UNL     1      47.474  32.744  37.912  0.00  0.00    +0.000 A 
ATOM     37  H   UNL     1      48.566  32.688  37.818  0.00  0.00    +0.000 HD
ATOM     38  S   UNL     1      46.193  32.066  36.692  0.00  0.00    +0.000 S 
ATOM     39  C   UNL     1      44.754  32.673  37.769  0.00  0.00    +0.000 A 
ATOM     40  H   UNL     1      43.708  32.569  37.576  0.00  0.00    +0.000 HD
ATOM     41  N   UNL     1      45.533  33.040  38.430  0.00  0.00    +0.000 NA
ENDBRANCH  29  35
ENDBRANCH   3  31
TORSDOF 3
