
 OpenBabel03252509043D

 46 48  0  0  1  0  0  0  0  0999 V2000
   46.7340   34.3670   43.4870 N   0  0  0  0  0  0  0  0  0  0  0  0
   46.4650   34.9410   42.2290 C   0  0  0  0  0  0  0  0  0  0  0  0
   45.0010   34.9700   41.8470 C   0  0  0  0  0  0  0  0  0  0  0  0
   44.0800   35.2170   43.0170 C   0  0  0  0  0  0  0  0  0  0  0  0
   44.8370   35.4070   44.3110 C   0  0  0  0  0  0  0  0  0  0  0  0
   45.7360   34.1170   44.4020 C   0  0  2  0  0  0  0  0  0  0  0  0
   47.0140   34.5390   41.3780 H   0  0  0  0  0  0  0  0  0  0  0  0
   46.7690   36.0270   42.2910 H   0  0  0  0  0  0  0  0  0  0  0  0
   44.8300   35.6620   41.0100 H   0  0  0  0  0  0  0  0  0  0  0  0
   44.7680   33.9500   41.4600 H   0  0  0  0  0  0  0  0  0  0  0  0
   43.3180   34.4570   43.1740 H   0  0  0  0  0  0  0  0  0  0  0  0
   43.5700   36.1900   42.8180 H   0  0  0  0  0  0  0  0  0  0  0  0
   45.4910   36.2860   44.2570 H   0  0  0  0  0  0  0  0  0  0  0  0
   44.1200   35.4030   45.1390 H   0  0  0  0  0  0  0  0  0  0  0  0
   45.0340   33.2970   44.2010 H   0  0  0  0  0  0  0  0  0  0  0  0
   47.9140   33.5360   43.5180 C   0  0  0  0  0  0  0  0  0  0  0  0
   48.1500   33.2690   44.5480 H   0  0  0  0  0  0  0  0  0  0  0  0
   48.7620   34.1490   43.1340 H   0  0  0  0  0  0  0  0  0  0  0  0
   47.6780   32.3340   42.6800 C   0  0  0  0  0  0  0  0  0  0  0  0
   47.4890   31.4470   43.2970 H   0  0  0  0  0  0  0  0  0  0  0  0
   46.7790   32.4570   42.0220 H   0  0  0  0  0  0  0  0  0  0  0  0
   51.2110   32.1800   41.4240 C   0  0  0  0  0  0  0  0  0  0  0  0
   50.0980   32.3880   42.2450 C   0  0  0  0  0  0  0  0  0  0  0  0
   48.8470   32.1050   41.7910 C   0  0  0  0  0  0  0  0  0  0  0  0
   48.7310   31.6270   40.5450 N   0  0  0  0  0  0  0  0  0  0  0  0
   49.7940   31.4230   39.7460 C   0  0  0  0  0  0  0  0  0  0  0  0
   51.0380   31.6920   40.1670 N   0  0  0  0  0  0  0  0  0  0  0  0
   52.2130   32.3830   41.7260 H   0  0  0  0  0  0  0  0  0  0  0  0
   50.3140   32.7770   43.2330 H   0  0  0  0  0  0  0  0  0  0  0  0
   49.5260   31.0370   38.7820 H   0  0  0  0  0  0  0  0  0  0  0  0
   46.1800   34.1700   45.7100 O   0  0  0  0  0  0  0  0  0  0  0  0
   45.5960   31.5850   45.5630 O   0  0  0  0  0  0  0  0  0  0  0  0
   46.0440   32.7140   46.5180 P   0  0  2  0  0  0  0  0  0  0  0  0
   44.7280   32.8820   47.6020 O   0  0  0  0  0  0  0  0  0  0  0  0
   45.0250   32.7600   48.5360 H   0  0  0  0  0  0  0  0  0  0  0  0
   47.3960   32.2900   47.3800 O   0  0  0  0  0  0  0  0  0  0  0  0
   47.6240   30.9310   47.2470 C   0  0  0  0  0  0  0  0  0  0  0  0
   46.6950   30.3510   47.2980 H   0  0  0  0  0  0  0  0  0  0  0  0
   48.0970   30.7150   46.2510 H   0  0  0  0  0  0  0  0  0  0  0  0
   48.5520   30.4200   48.3210 C   0  0  0  0  0  0  0  0  0  0  0  0
   48.8820   31.2640   49.4550 C   0  0  0  0  0  0  0  0  0  0  0  0
   48.4950   32.2670   49.5820 H   0  0  0  0  0  0  0  0  0  0  0  0
   50.0000   30.1610   50.4000 S   0  0  0  0  0  0  0  0  0  0  0  0
   49.8380   28.7780   49.1350 C   0  0  0  0  0  0  0  0  0  0  0  0
   50.3110   27.7980   49.1600 H   0  0  0  0  0  0  0  0  0  0  0  0
   49.0960   29.2190   48.2940 N   0  0  0  0  0  0  0  0  0  0  0  0
  1 16  1  0  0  0  0
  1  6  1  0  0  0  0
  2  8  1  0  0  0  0
  2  1  1  0  0  0  0
  3  2  1  0  0  0  0
  3  4  1  0  0  0  0
  4 11  1  0  0  0  0
  4  5  1  0  0  0  0
  5  6  1  0  0  0  0
  5 14  1  0  0  0  0
  6 15  1  6  0  0  0
  6 31  1  0  0  0  0
  7  2  1  0  0  0  0
  9  3  1  0  0  0  0
 10  3  1  0  0  0  0
 12  4  1  0  0  0  0
 13  5  1  0  0  0  0
 16 17  1  0  0  0  0
 18 16  1  0  0  0  0
 19 20  1  0  0  0  0
 19 16  1  0  0  0  0
 21 19  1  0  0  0  0
 22 28  1  0  0  0  0
 22 23  1  0  0  0  0
 23 29  1  0  0  0  0
 24 23  2  0  0  0  0
 24 19  1  0  0  0  0
 25 24  1  0  0  0  0
 26 27  1  0  0  0  0
 26 25  2  0  0  0  0
 27 22  2  0  0  0  0
 30 26  1  0  0  0  0
 31 33  1  0  0  0  0
 33 32  2  6  0  0  0
 33 36  1  0  0  0  0
 33 34  1  0  0  0  0
 34 35  1  0  0  0  0
 37 38  1  0  0  0  0
 37 36  1  0  0  0  0
 37 40  1  0  0  0  0
 39 37  1  0  0  0  0
 40 41  2  0  0  0  0
 41 42  1  0  0  0  0
 41 43  1  0  0  0  0
 44 45  1  0  0  0  0
 44 43  1  0  0  0  0
 46 40  1  0  0  0  0
 46 44  2  0  0  0  0
M  END
>  <minimizedAffinity>
-4.82093477

>  <minimizedRMSD>
2.80876303

$$$$
