REMARK  Name = 
REMARK  8 active torsions:
REMARK  status: ('A' for Active; 'I' for Inactive)
REMARK    1  A    between atoms: N_1  and  C_7
REMARK    2  A    between atoms: C_6  and  O_15
REMARK    3  A    between atoms: C_7  and  C_8
REMARK    4  A    between atoms: C_8  and  C_11
REMARK    5  A    between atoms: O_15  and  P_17
REMARK    6  A    between atoms: P_17  and  O_18
REMARK    7  A    between atoms: P_17  and  O_19
REMARK    8  A    between atoms: O_19  and  C_37
REMARK                            x       y       z     vdW  Elec       q    Type
REMARK                         _______ _______ _______ _____ _____    ______ ____
ROOT
ATOM      1  N   UNL     1      47.170  34.154  43.082  0.00  0.00    +0.000 NA
ATOM      2  C   UNL     1      46.668  35.363  42.532  0.00  0.00    +0.000 C 
ATOM      3  C   UNL     1      45.190  35.599  42.750  0.00  0.00    +0.000 C 
ATOM      4  C   UNL     1      44.642  35.036  44.034  0.00  0.00    +0.000 C 
ATOM      5  C   UNL     1      45.749  34.470  44.894  0.00  0.00    +0.000 C 
ATOM      6  C   UNL     1      46.413  33.395  43.958  0.00  0.00    +0.000 C 
ATOM      7  H   UNL     1      46.868  35.522  41.467  0.00  0.00    +0.000 HD
ATOM      8  H   UNL     1      47.217  36.188  43.066  0.00  0.00    +0.000 HD
ATOM      9  H   UNL     1      44.599  35.249  41.864  0.00  0.00    +0.000 HD
ATOM     10  H   UNL     1      45.023  36.697  42.786  0.00  0.00    +0.000 HD
ATOM     11  H   UNL     1      43.992  34.178  43.759  0.00  0.00    +0.000 HD
ATOM     12  H   UNL     1      44.005  35.759  44.571  0.00  0.00    +0.000 HD
ATOM     13  H   UNL     1      46.457  35.281  45.093  0.00  0.00    +0.000 HD
ATOM     14  H   UNL     1      45.332  33.974  45.775  0.00  0.00    +0.000 HD
ATOM     15  H   UNL     1      45.580  32.803  43.527  0.00  0.00    +0.000 HD
ENDROOT
BRANCH   1  16
ATOM     16  C   UNL     1      48.143  33.495  42.263  0.00  0.00    +0.000 C 
ATOM     17  H   UNL     1      48.819  32.878  42.891  0.00  0.00    +0.000 HD
ATOM     18  H   UNL     1      48.764  34.283  41.775  0.00  0.00    +0.000 HD
BRANCH  16  19
ATOM     19  C   UNL     1      47.437  32.649  41.254  0.00  0.00    +0.000 C 
ATOM     20  H   UNL     1      47.478  31.577  41.460  0.00  0.00    +0.000 HD
ATOM     21  H   UNL     1      46.350  32.936  41.193  0.00  0.00    +0.000 HD
BRANCH  19  24
ATOM     22  C   UNL     1      49.337  32.287  38.031  0.00  0.00    +0.000 A 
ATOM     23  C   UNL     1      48.811  32.016  39.308  0.00  0.00    +0.000 A 
ATOM     24  C   UNL     1      47.988  32.944  39.905  0.00  0.00    +0.000 A 
ATOM     25  N   UNL     1      47.726  34.074  39.228  0.00  0.00    +0.000 NA
ATOM     26  C   UNL     1      48.233  34.323  38.010  0.00  0.00    +0.000 A 
ATOM     27  N   UNL     1      49.040  33.438  37.399  0.00  0.00    +0.000 NA
ATOM     28  H   UNL     1      49.988  31.542  37.570  0.00  0.00    +0.000 HD
ATOM     29  H   UNL     1      49.089  31.073  39.760  0.00  0.00    +0.000 HD
ATOM     30  H   UNL     1      47.904  35.283  37.636  0.00  0.00    +0.000 HD
ENDBRANCH  19  24
ENDBRANCH  16  19
ENDBRANCH   1  16
BRANCH   6  31
ATOM     31  O   UNL     1      47.205  32.693  44.854  0.00  0.00    +0.000 OA
BRANCH  31  33
ATOM     32  O   UNL     1      45.991  30.544  43.868  0.00  0.00    +0.000 OA
ATOM     33  P   UNL     1      46.663  31.125  45.117  0.00  0.00    +0.000 P 
BRANCH  33  34
ATOM     34  O   UNL     1      45.407  31.245  46.272  0.00  0.00    +0.000 OA
ATOM     35  H   UNL     1      45.657  31.901  46.964  0.00  0.00    +0.000 HD
ENDBRANCH  33  34
BRANCH  33  36
ATOM     36  O   UNL     1      47.844  30.140  45.739  0.00  0.00    +0.000 OA
BRANCH  36  37
ATOM     37  C   UNL     1      47.625  28.936  46.391  0.00  0.00    +0.000 A 
ATOM     38  C   UNL     1      47.255  27.676  45.786  0.00  0.00    +0.000 A 
ATOM     39  H   UNL     1      47.140  27.709  44.648  0.00  0.00    +0.000 HD
ATOM     40  S   UNL     1      47.152  26.561  47.311  0.00  0.00    +0.000 S 
ATOM     41  C   UNL     1      47.626  28.023  48.426  0.00  0.00    +0.000 A 
ATOM     42  H   UNL     1      47.688  27.796  49.499  0.00  0.00    +0.000 HD
ATOM     43  N   UNL     1      47.773  28.953  47.713  0.00  0.00    +0.000 NA
ENDBRANCH  36  37
ENDBRANCH  33  36
ENDBRANCH  31  33
ENDBRANCH   6  31
TORSDOF 8
