
 OpenBabel03252507453D

 35 37  0  0  0  0  0  0  0  0999 V2000
   47.1360   34.4090   40.9110 C   0  0  0  0  0  0  0  0  0  0  0  0
   46.5580   33.5950   40.4560 H   0  0  0  0  0  0  0  0  0  0  0  0
   47.3140   35.2580   40.1940 H   0  0  0  0  0  0  0  0  0  0  0  0
   48.4700   33.9590   41.3450 C   0  0  0  0  0  0  0  0  0  0  0  0
   48.8870   32.7100   40.9050 C   0  0  0  0  0  0  0  0  0  0  0  0
   50.1350   32.2120   41.2700 C   0  0  0  0  0  0  0  0  0  0  0  0
   50.9110   33.0000   42.0680 N   0  0  0  0  0  0  0  0  0  0  0  0
   50.4780   34.2070   42.4780 C   0  0  0  0  0  0  0  0  0  0  0  0
   49.2850   34.6700   42.1220 N   0  0  0  0  0  0  0  0  0  0  0  0
   50.4250   31.2330   40.9070 H   0  0  0  0  0  0  0  0  0  0  0  0
   51.1930   34.7410   43.1140 H   0  0  0  0  0  0  0  0  0  0  0  0
   47.8170   31.7190   39.8540 S   0  0  0  0  0  0  0  0  0  0  0  0
   48.0410   32.1750   38.1200 C   0  0  0  0  0  0  0  0  0  0  0  0
   47.7090   31.3350   37.0360 C   0  0  0  0  0  0  0  0  0  0  0  0
   47.2860   30.3360   37.1920 H   0  0  0  0  0  0  0  0  0  0  0  0
   48.1780   32.3880   35.5960 S   0  0  0  0  0  0  0  0  0  0  0  0
   48.7460   33.7870   36.7450 C   0  0  0  0  0  0  0  0  0  0  0  0
   49.1390   34.7030   36.3090 H   0  0  0  0  0  0  0  0  0  0  0  0
   48.5460   33.3600   37.8230 N   0  0  0  0  0  0  0  0  0  0  0  0
   46.3100   34.9730   42.0330 C   0  0  0  0  0  0  0  0  0  0  0  0
   46.4720   34.3180   42.9270 H   0  0  0  0  0  0  0  0  0  0  0  0
   46.6410   35.9960   42.3260 H   0  0  0  0  0  0  0  0  0  0  0  0
   44.8440   34.9430   41.7830 C   0  0  0  0  0  0  0  0  0  0  0  0
   43.9420   35.4790   42.7510 C   0  0  0  0  0  0  0  0  0  0  0  0
   42.2980   35.2060   41.9840 S   0  0  0  0  0  0  0  0  0  0  0  0
   43.1120   34.4040   40.4650 C   0  0  0  0  0  0  0  0  0  0  0  0
   44.2160   34.4690   40.7410 N   0  0  0  0  0  0  0  0  0  0  0  0
   44.1970   35.9300   43.6970 H   0  0  0  0  0  0  0  0  0  0  0  0
   42.3760   33.9180   39.3860 O   0  0  0  0  0  0  0  0  0  0  0  0
   40.4550   34.3580   37.6230 O   0  0  0  0  0  0  0  0  0  0  0  0
   41.5210   35.0540   38.4450 P   0  0  0  0  0  0  0  0  0  0  0  0
   40.7760   36.1320   39.5160 O   0  0  0  0  0  0  0  0  0  0  0  0
   39.9890   35.6380   39.8900 H   0  0  0  0  0  0  0  0  0  0  0  0
   42.5880   35.9240   37.4650 O   0  0  0  0  0  0  0  0  0  0  0  0
   42.7660   36.8210   37.8440 H   0  0  0  0  0  0  0  0  0  0  0  0
  1  4  1  0  0  0  0
  1 20  1  0  0  0  0
  2  1  1  0  0  0  0
  3  1  1  0  0  0  0
  4  9  1  0  0  0  0
  5  6  1  0  0  0  0
  5  4  2  0  0  0  0
  6  7  2  0  0  0  0
  7  8  1  0  0  0  0
  8 11  1  0  0  0  0
  9  8  2  0  0  0  0
 10  6  1  0  0  0  0
 12  5  1  0  0  0  0
 13 12  1  0  0  0  0
 14 15  1  0  0  0  0
 14 13  2  0  0  0  0
 16 17  1  0  0  0  0
 16 14  1  0  0  0  0
 17 19  2  0  0  0  0
 18 17  1  0  0  0  0
 19 13  1  0  0  0  0
 20 22  1  0  0  0  0
 20 21  1  0  0  0  0
 23 20  1  0  0  0  0
 23 24  2  0  0  0  0
 24 28  1  0  0  0  0
 25 24  1  0  0  0  0
 26 27  2  0  0  0  0
 26 25  1  0  0  0  0
 27 23  1  0  0  0  0
 29 26  1  0  0  0  0
 30 31  2  0  0  0  0
 31 29  1  0  0  0  0
 31 32  1  0  0  0  0
 32 33  1  0  0  0  0
 34 35  1  0  0  0  0
 34 31  1  0  0  0  0
M  END
>  <minimizedAffinity>
-4.83687687

>  <minimizedRMSD>
0.255164504

$$$$
