
 OpenBabel03242517163D

 31 33  0  0  0  0  0  0  0  0999 V2000
   43.7570   35.4310   41.9910 C   0  0  0  0  0  0  0  0  0  0  0  0
   42.5770   35.2030   41.4840 C   0  0  0  0  0  0  0  0  0  0  0  0
   44.5370   35.3300   44.3750 C   0  0  0  0  0  0  0  0  0  0  0  0
   44.3650   34.7080   43.1100 C   0  0  0  0  0  0  0  0  0  0  0  0
   44.7850   33.4030   42.9440 C   0  0  0  0  0  0  0  0  0  0  0  0
   45.3470   32.7840   44.0250 N   0  0  0  0  0  0  0  0  0  0  0  0
   45.5000   33.3800   45.2020 C   0  0  0  0  0  0  0  0  0  0  0  0
   45.0980   34.6390   45.3730 N   0  0  0  0  0  0  0  0  0  0  0  0
   44.1780   36.3490   44.4050 H   0  0  0  0  0  0  0  0  0  0  0  0
   44.6890   32.8660   42.0160 H   0  0  0  0  0  0  0  0  0  0  0  0
   46.0860   32.7770   46.3870 C   0  0  0  0  0  0  0  0  0  0  0  0
   47.3850   32.0450   46.5070 C   0  0  0  0  0  0  0  0  0  0  0  0
   47.9120   32.0230   45.4210 H   0  0  0  0  0  0  0  0  0  0  0  0
   47.3480   31.6210   48.3420 S   0  0  0  0  0  0  0  0  0  0  0  0
   45.6690   32.4760   48.5580 C   0  0  0  0  0  0  0  0  0  0  0  0
   45.3460   32.4010   49.5880 H   0  0  0  0  0  0  0  0  0  0  0  0
   45.3750   32.8900   47.5080 N   0  0  0  0  0  0  0  0  0  0  0  0
   42.0210   35.9840   40.3400 C   0  0  0  0  0  0  0  0  0  0  0  0
   42.8380   36.0050   39.5610 H   0  0  0  0  0  0  0  0  0  0  0  0
   41.8530   37.0530   40.6070 H   0  0  0  0  0  0  0  0  0  0  0  0
   41.7180   35.7530   37.5830 F   0  0  0  0  0  0  0  0  0  0  0  0
   40.7490   35.2090   38.3680 C   0  0  0  0  0  0  0  0  0  0  0  0
   40.8810   35.3130   39.7520 C   0  0  0  0  0  0  0  0  0  0  0  0
   39.8290   34.7190   40.4220 C   0  0  0  0  0  0  0  0  0  0  0  0
   38.7400   34.0790   39.8920 C   0  0  0  0  0  0  0  0  0  0  0  0
   38.7190   34.0390   38.4980 C   0  0  0  0  0  0  0  0  0  0  0  0
   39.6940   34.5850   37.6980 C   0  0  0  0  0  0  0  0  0  0  0  0
   39.8490   34.7550   41.5150 H   0  0  0  0  0  0  0  0  0  0  0  0
   37.9770   33.6500   40.4930 H   0  0  0  0  0  0  0  0  0  0  0  0
   37.8890   33.5490   37.9860 H   0  0  0  0  0  0  0  0  0  0  0  0
   39.6830   34.5570   36.6190 H   0  0  0  0  0  0  0  0  0  0  0  0
  1  4  1  0  0  0  0
  2  1  2  0  0  0  0
  3  9  1  0  0  0  0
  3  8  1  0  0  0  0
  4  3  2  0  0  0  0
  5  4  1  0  0  0  0
  5  6  2  0  0  0  0
  6  7  1  0  0  0  0
  7  8  2  0  0  0  0
  7 11  1  0  0  0  0
 10  5  1  0  0  0  0
 11 12  2  0  0  0  0
 11 17  1  0  0  0  0
 12 14  1  0  0  0  0
 13 12  1  0  0  0  0
 14 15  1  0  0  0  0
 15 16  1  0  0  0  0
 17 15  2  0  0  0  0
 18 20  1  0  0  0  0
 18  2  1  0  0  0  0
 19 18  1  0  0  0  0
 21 22  1  0  0  0  0
 22 23  1  0  0  0  0
 23 18  1  0  0  0  0
 23 24  2  0  0  0  0
 24 28  1  0  0  0  0
 25 24  1  0  0  0  0
 25 29  1  0  0  0  0
 26 25  2  0  0  0  0
 27 22  2  0  0  0  0
 27 26  1  0  0  0  0
 30 26  1  0  0  0  0
 31 27  1  0  0  0  0
M  END
>  <minimizedAffinity>
-6.01587772

>  <minimizedRMSD>
0.945478678

$$$$
