
 OpenBabel03242516003D

 26 28  0  0  0  0  0  0  0  0999 V2000
   44.9390   33.0850   41.1460 Cl  0  0  0  0  0  0  0  0  0  0  0  0
   46.4390   33.9900   40.9850 C   0  0  0  0  0  0  0  0  0  0  0  0
   46.8980   34.7710   41.9850 C   0  0  0  0  0  0  0  0  0  0  0  0
   48.0830   35.4180   41.7250 C   0  0  0  0  0  0  0  0  0  0  0  0
   48.7640   35.3000   40.5640 C   0  0  0  0  0  0  0  0  0  0  0  0
   48.2800   34.5040   39.5670 C   0  0  0  0  0  0  0  0  0  0  0  0
   47.0850   33.8310   39.7840 C   0  0  0  0  0  0  0  0  0  0  0  0
   48.4950   36.0610   42.5030 H   0  0  0  0  0  0  0  0  0  0  0  0
   49.6940   35.8440   40.4320 H   0  0  0  0  0  0  0  0  0  0  0  0
   48.8620   34.4460   38.6600 H   0  0  0  0  0  0  0  0  0  0  0  0
   44.4830   35.9400   44.6540 C   0  0  0  0  0  0  0  0  0  0  0  0
   45.2080   35.8700   43.4550 C   0  0  0  0  0  0  0  0  0  0  0  0
   46.1370   34.8680   43.2110 C   0  0  0  0  0  0  0  0  0  0  0  0
   46.2920   33.9610   44.2200 N   0  0  0  0  0  0  0  0  0  0  0  0
   45.5920   34.0390   45.3630 C   0  0  0  0  0  0  0  0  0  0  0  0
   44.7030   35.0080   45.5820 N   0  0  0  0  0  0  0  0  0  0  0  0
   43.7940   36.7770   44.7030 H   0  0  0  0  0  0  0  0  0  0  0  0
   45.0690   36.5970   42.6740 H   0  0  0  0  0  0  0  0  0  0  0  0
   45.7410   33.2920   46.1550 H   0  0  0  0  0  0  0  0  0  0  0  0
   46.5480   32.9630   38.7080 C   0  0  0  0  0  0  0  0  0  0  0  0
   46.8580   31.5990   38.6020 C   0  0  0  0  0  0  0  0  0  0  0  0
   47.6000   30.9430   39.3640 H   0  0  0  0  0  0  0  0  0  0  0  0
   45.9460   31.0530   37.1370 S   0  0  0  0  0  0  0  0  0  0  0  0
   45.2590   32.8080   36.8790 C   0  0  0  0  0  0  0  0  0  0  0  0
   44.5830   32.9940   36.0230 H   0  0  0  0  0  0  0  0  0  0  0  0
   45.7480   33.3150   37.7470 N   0  0  0  0  0  0  0  0  0  0  0  0
  2  1  1  0  0  0  0
  2  3  1  0  0  0  0
  3 13  1  0  0  0  0
  4  3  2  0  0  0  0
  4  8  1  0  0  0  0
  5  4  1  0  0  0  0
  6  7  1  0  0  0  0
  6  5  2  0  0  0  0
  7  2  2  0  0  0  0
  9  5  1  0  0  0  0
 10  6  1  0  0  0  0
 11 17  1  0  0  0  0
 11 16  1  0  0  0  0
 12 11  2  0  0  0  0
 13 12  1  0  0  0  0
 13 14  2  0  0  0  0
 14 15  1  0  0  0  0
 15 16  2  0  0  0  0
 15 19  1  0  0  0  0
 18 12  1  0  0  0  0
 20  7  1  0  0  0  0
 21 20  2  0  0  0  0
 21 22  1  0  0  0  0
 23 21  1  0  0  0  0
 24 23  1  0  0  0  0
 24 26  2  0  0  0  0
 25 24  1  0  0  0  0
 26 20  1  0  0  0  0
M  END
>  <minimizedAffinity>
-5.44907713

>  <minimizedRMSD>
0.435663849

$$$$
