
 OpenBabel03252508263D

 39 43  0  0  1  0  0  0  0  0999 V2000
   46.5220   32.3360   45.6600 C   0  0  1  0  0  0  0  0  0  0  0  0
   46.9000   32.7120   47.0310 C   0  0  0  0  0  0  0  0  0  0  0  0
   45.5410   31.9910   46.6740 C   0  0  2  0  0  0  0  0  0  0  0  0
   47.3720   31.6550   45.2980 H   0  0  0  0  0  0  0  0  0  0  0  0
   46.8560   33.7570   47.3750 H   0  0  0  0  0  0  0  0  0  0  0  0
   47.4660   32.0670   47.7170 H   0  0  0  0  0  0  0  0  0  0  0  0
   44.7940   32.7290   47.0980 H   0  0  0  0  0  0  0  0  0  0  0  0
   45.2810   30.6380   47.1740 C   0  0  0  0  0  0  0  0  0  0  0  0
   45.1960   30.2410   48.4720 C   0  0  0  0  0  0  0  0  0  0  0  0
   45.0760   28.9330   48.9180 C   0  0  0  0  0  0  0  0  0  0  0  0
   45.0430   27.9380   47.9200 C   0  0  0  0  0  0  0  0  0  0  0  0
   45.1250   28.3150   46.5840 C   0  0  0  0  0  0  0  0  0  0  0  0
   45.0280   27.3140   45.6380 C   0  0  0  0  0  0  0  0  0  0  0  0
   45.0350   27.6500   44.2920 C   0  0  0  0  0  0  0  0  0  0  0  0
   45.1350   28.9690   43.8940 C   0  0  0  0  0  0  0  0  0  0  0  0
   45.2330   29.9300   44.8770 C   0  0  0  0  0  0  0  0  0  0  0  0
   45.2390   29.6450   46.2280 C   0  0  0  0  0  0  0  0  0  0  0  0
   45.2260   31.0440   49.2050 H   0  0  0  0  0  0  0  0  0  0  0  0
   45.0130   28.6890   49.9710 H   0  0  0  0  0  0  0  0  0  0  0  0
   44.9550   26.9070   48.2250 H   0  0  0  0  0  0  0  0  0  0  0  0
   44.9480   26.2850   45.9780 H   0  0  0  0  0  0  0  0  0  0  0  0
   44.9540   26.7710   43.6320 H   0  0  0  0  0  0  0  0  0  0  0  0
   45.1200   29.0250   42.8320 H   0  0  0  0  0  0  0  0  0  0  0  0
   45.2100   30.8340   44.3410 H   0  0  0  0  0  0  0  0  0  0  0  0
   45.1300   35.3730   44.1010 C   0  0  0  0  0  0  0  0  0  0  0  0
   45.5390   35.2390   42.7330 C   0  0  0  0  0  0  0  0  0  0  0  0
   46.3060   34.0710   42.3950 C   0  0  0  0  0  0  0  0  0  0  0  0
   46.5950   33.1930   43.3460 N   0  0  0  0  0  0  0  0  0  0  0  0
   46.1820   33.3670   44.6420 C   0  0  0  0  0  0  0  0  0  0  0  0
   45.4690   34.4280   45.0020 N   0  0  0  0  0  0  0  0  0  0  0  0
   44.5680   36.2670   44.2440 H   0  0  0  0  0  0  0  0  0  0  0  0
   45.3050   35.9490   41.9710 H   0  0  0  0  0  0  0  0  0  0  0  0
   46.7170   33.9360   41.0070 C   0  0  0  0  0  0  0  0  0  0  0  0
   48.0180   34.5090   40.6180 C   0  0  0  0  0  0  0  0  0  0  0  0
   48.7170   35.0350   41.2790 H   0  0  0  0  0  0  0  0  0  0  0  0
   48.0880   34.0870   38.7820 S   0  0  0  0  0  0  0  0  0  0  0  0
   46.3950   33.2440   38.9050 C   0  0  0  0  0  0  0  0  0  0  0  0
   45.7970   32.7330   38.0920 H   0  0  0  0  0  0  0  0  0  0  0  0
   46.0550   33.3460   40.0130 N   0  0  0  0  0  0  0  0  0  0  0  0
  1  4  1  6  0  0  0
  1  3  1  0  0  0  0
  1  2  1  0  0  0  0
  2  5  1  0  0  0  0
  2  6  1  0  0  0  0
  3  2  1  0  0  0  0
  3  7  1  1  0  0  0
  3  8  1  0  0  0  0
  8  9  1  0  0  0  0
  9 10  2  0  0  0  0
  9 18  1  0  0  0  0
 10 19  1  0  0  0  0
 11 20  1  0  0  0  0
 11 10  1  0  0  0  0
 12 11  2  0  0  0  0
 13 21  1  0  0  0  0
 13 12  1  0  0  0  0
 14 13  2  0  0  0  0
 15 14  1  0  0  0  0
 15 16  2  0  0  0  0
 16 17  1  0  0  0  0
 17 12  1  0  0  0  0
 17  8  2  0  0  0  0
 22 14  1  0  0  0  0
 23 15  1  0  0  0  0
 24 16  1  0  0  0  0
 25 31  1  0  0  0  0
 25 30  1  0  0  0  0
 26 25  2  0  0  0  0
 27 26  1  0  0  0  0
 27 28  2  0  0  0  0
 28 29  1  0  0  0  0
 29 30  2  0  0  0  0
 29  1  1  0  0  0  0
 32 26  1  0  0  0  0
 33 27  1  0  0  0  0
 34 33  2  0  0  0  0
 34 35  1  0  0  0  0
 36 37  1  0  0  0  0
 36 34  1  0  0  0  0
 37 39  2  0  0  0  0
 38 37  1  0  0  0  0
 39 33  1  0  0  0  0
M  END
>  <minimizedAffinity>
-4.7741251

>  <minimizedRMSD>
1.00973511

$$$$
