
 OpenBabel03252502403D

 44 47  0  0  1  0  0  0  0  0999 V2000
   37.3000   30.2330   39.5990 C   0  0  1  0  0  0  0  0  0  0  0  0
   38.1920   29.5410   39.5430 H   0  0  0  0  0  0  0  0  0  0  0  0
   36.6080   30.0730   38.3500 N   0  0  0  0  0  0  0  0  0  0  0  0
   37.4320   29.5480   37.3210 C   0  0  0  0  0  0  0  0  0  0  0  0
   36.6560   29.8100   36.0130 C   0  0  0  0  0  0  0  0  0  0  0  0
   35.5910   28.8910   36.0890 N   0  0  0  0  0  0  0  0  0  0  0  0
   34.7180   29.0810   37.1700 C   0  0  0  0  0  0  0  0  0  0  0  0
   35.4030   29.3650   38.4930 C   0  0  0  0  0  0  0  0  0  0  0  0
   37.5650   28.4390   37.3860 H   0  0  0  0  0  0  0  0  0  0  0  0
   38.4300   30.0070   37.2790 H   0  0  0  0  0  0  0  0  0  0  0  0
   36.3840   30.8730   35.9450 H   0  0  0  0  0  0  0  0  0  0  0  0
   37.3580   29.5000   35.2000 H   0  0  0  0  0  0  0  0  0  0  0  0
   35.4510   28.1750   35.4170 H   0  0  0  0  0  0  0  0  0  0  0  0
   34.0580   29.9650   36.9380 H   0  0  0  0  0  0  0  0  0  0  0  0
   34.0180   28.2140   37.2430 H   0  0  0  0  0  0  0  0  0  0  0  0
   35.7370   28.3020   38.7230 H   0  0  0  0  0  0  0  0  0  0  0  0
   34.6030   29.7010   39.1100 H   0  0  0  0  0  0  0  0  0  0  0  0
   38.8480   31.8300   40.7160 C   0  0  0  0  0  0  0  0  0  0  0  0
   37.7640   31.5500   39.9090 C   0  0  0  0  0  0  0  0  0  0  0  0
   37.0920   32.6650   39.3680 C   0  0  0  0  0  0  0  0  0  0  0  0
   37.5340   33.9270   39.6610 N   0  0  0  0  0  0  0  0  0  0  0  0
   38.6050   34.1310   40.4610 C   0  0  0  0  0  0  0  0  0  0  0  0
   39.2700   33.0710   40.9960 N   0  0  0  0  0  0  0  0  0  0  0  0
   39.4120   31.0260   41.1660 H   0  0  0  0  0  0  0  0  0  0  0  0
   36.2360   32.5030   38.7290 H   0  0  0  0  0  0  0  0  0  0  0  0
   38.7720   35.1960   40.5530 H   0  0  0  0  0  0  0  0  0  0  0  0
   36.3820   29.7660   40.7360 C   0  0  0  0  0  0  0  0  0  0  0  0
   35.5600   29.3240   40.0850 H   0  0  0  0  0  0  0  0  0  0  0  0
   35.8170   30.5470   41.2390 H   0  0  0  0  0  0  0  0  0  0  0  0
   36.9350   28.8210   41.6490 C   0  0  0  0  0  0  0  0  0  0  0  0
   37.4680   28.8150   42.8940 C   0  0  0  0  0  0  0  0  0  0  0  0
   37.9670   27.7400   43.6030 C   0  0  0  0  0  0  0  0  0  0  0  0
   37.9170   26.5680   42.9800 N   0  0  0  0  0  0  0  0  0  0  0  0
   37.4150   26.4820   41.7690 C   0  0  0  0  0  0  0  0  0  0  0  0
   36.9560   27.5620   41.1570 N   0  0  0  0  0  0  0  0  0  0  0  0
   37.4770   29.8320   43.3310 H   0  0  0  0  0  0  0  0  0  0  0  0
   38.3480   27.9890   44.6030 H   0  0  0  0  0  0  0  0  0  0  0  0
   37.4110   25.1330   41.1760 C   0  0  0  0  0  0  0  0  0  0  0  0
   38.5600   24.3800   41.2910 C   0  0  0  0  0  0  0  0  0  0  0  0
   39.5360   24.5800   41.7560 H   0  0  0  0  0  0  0  0  0  0  0  0
   38.1720   22.8340   40.4620 S   0  0  0  0  0  0  0  0  0  0  0  0
   36.4080   23.4810   40.0630 C   0  0  0  0  0  0  0  0  0  0  0  0
   35.4290   23.1070   39.5210 H   0  0  0  0  0  0  0  0  0  0  0  0
   36.4640   24.4970   40.5310 N   0  0  0  0  0  0  0  0  0  0  0  0
  1  2  1  6  0  0  0
  1 19  1  0  0  0  0
  1 27  1  0  0  0  0
  3  8  1  0  0  0  0
  3  1  1  0  0  0  0
  4  9  1  0  0  0  0
  4  3  1  0  0  0  0
  5  6  1  0  0  0  0
  5  4  1  0  0  0  0
  6  7  1  0  0  0  0
  7 15  1  0  0  0  0
  7  8  1  0  0  0  0
  8 16  1  0  0  0  0
  8 17  1  0  0  0  0
 10  4  1  0  0  0  0
 11  5  1  0  0  0  0
 12  5  1  0  0  0  0
 13  6  1  0  0  0  0
 14  7  1  0  0  0  0
 18 23  1  0  0  0  0
 18 24  1  0  0  0  0
 19 18  2  0  0  0  0
 20 21  2  0  0  0  0
 20 19  1  0  0  0  0
 21 22  1  0  0  0  0
 22 26  1  0  0  0  0
 22 23  2  0  0  0  0
 25 20  1  0  0  0  0
 27 29  1  0  0  0  0
 27 30  1  0  0  0  0
 28 27  1  0  0  0  0
 30 31  1  0  0  0  0
 31 36  1  0  0  0  0
 31 32  2  0  0  0  0
 32 37  1  0  0  0  0
 33 32  1  0  0  0  0
 34 33  2  0  0  0  0
 35 30  2  0  0  0  0
 35 34  1  0  0  0  0
 38 39  2  0  0  0  0
 38 34  1  0  0  0  0
 39 40  1  0  0  0  0
 41 39  1  0  0  0  0
 42 41  1  0  0  0  0
 42 44  2  0  0  0  0
 43 42  1  0  0  0  0
 44 38  1  0  0  0  0
M  END
>  <minimizedAffinity>
-5.33216953

$$$$

 OpenBabel03252502403D

 44 47  0  0  1  0  0  0  0  0999 V2000
   37.1960   31.2540   38.7290 C   0  0  1  0  0  0  0  0  0  0  0  0
   36.5090   31.8930   38.1000 H   0  0  0  0  0  0  0  0  0  0  0  0
   38.1810   32.1550   39.2630 N   0  0  0  0  0  0  0  0  0  0  0  0
   39.2440   32.4150   38.3600 C   0  0  0  0  0  0  0  0  0  0  0  0
   40.3520   33.0570   39.2200 C   0  0  0  0  0  0  0  0  0  0  0  0
   39.8330   34.3360   39.4990 N   0  0  0  0  0  0  0  0  0  0  0  0
   38.6380   34.3450   40.2350 C   0  0  0  0  0  0  0  0  0  0  0  0
   37.6080   33.3300   39.7780 C   0  0  0  0  0  0  0  0  0  0  0  0
   38.9820   33.1690   37.5770 H   0  0  0  0  0  0  0  0  0  0  0  0
   39.6200   31.5150   37.8510 H   0  0  0  0  0  0  0  0  0  0  0  0
   40.5750   32.4160   40.0850 H   0  0  0  0  0  0  0  0  0  0  0  0
   41.2270   33.1530   38.5290 H   0  0  0  0  0  0  0  0  0  0  0  0
   40.2870   35.1730   39.2200 H   0  0  0  0  0  0  0  0  0  0  0  0
   38.8850   34.1100   41.3100 H   0  0  0  0  0  0  0  0  0  0  0  0
   38.2200   35.3790   40.2570 H   0  0  0  0  0  0  0  0  0  0  0  0
   37.2470   33.8850   38.8520 H   0  0  0  0  0  0  0  0  0  0  0  0
   36.9020   33.3290   40.5750 H   0  0  0  0  0  0  0  0  0  0  0  0
   38.9170   29.5780   38.0800 C   0  0  0  0  0  0  0  0  0  0  0  0
   37.6850   30.1780   37.9220 C   0  0  0  0  0  0  0  0  0  0  0  0
   36.8780   29.6680   36.8860 C   0  0  0  0  0  0  0  0  0  0  0  0
   37.3420   28.6380   36.1130 N   0  0  0  0  0  0  0  0  0  0  0  0
   38.5620   28.0950   36.3220 C   0  0  0  0  0  0  0  0  0  0  0  0
   39.3600   28.5700   37.3170 N   0  0  0  0  0  0  0  0  0  0  0  0
   39.5910   29.9150   38.8550 H   0  0  0  0  0  0  0  0  0  0  0  0
   35.9020   30.1020   36.7180 H   0  0  0  0  0  0  0  0  0  0  0  0
   38.7170   27.3030   35.6010 H   0  0  0  0  0  0  0  0  0  0  0  0
   36.3920   30.6570   39.8910 C   0  0  0  0  0  0  0  0  0  0  0  0
   35.7110   29.9900   39.2690 H   0  0  0  0  0  0  0  0  0  0  0  0
   35.6490   31.3120   40.3380 H   0  0  0  0  0  0  0  0  0  0  0  0
   37.1360   29.9320   40.8680 C   0  0  0  0  0  0  0  0  0  0  0  0
   37.9850   30.1960   41.8890 C   0  0  0  0  0  0  0  0  0  0  0  0
   38.6170   29.2990   42.7280 C   0  0  0  0  0  0  0  0  0  0  0  0
   38.3550   28.0160   42.4990 N   0  0  0  0  0  0  0  0  0  0  0  0
   37.5410   27.6700   41.5270 C   0  0  0  0  0  0  0  0  0  0  0  0
   36.9750   28.5930   40.7670 N   0  0  0  0  0  0  0  0  0  0  0  0
   38.1510   31.2850   42.0010 H   0  0  0  0  0  0  0  0  0  0  0  0
   39.2630   29.7590   43.4870 H   0  0  0  0  0  0  0  0  0  0  0  0
   37.3260   26.2210   41.3650 C   0  0  0  0  0  0  0  0  0  0  0  0
   36.7410   25.7880   40.1950 C   0  0  0  0  0  0  0  0  0  0  0  0
   36.3790   26.3210   39.3030 H   0  0  0  0  0  0  0  0  0  0  0  0
   36.6480   24.0020   40.3690 S   0  0  0  0  0  0  0  0  0  0  0  0
   37.4640   24.1210   42.1040 C   0  0  0  0  0  0  0  0  0  0  0  0
   37.7990   23.4000   42.9760 H   0  0  0  0  0  0  0  0  0  0  0  0
   37.6060   25.2300   42.1750 N   0  0  0  0  0  0  0  0  0  0  0  0
  1  2  1  6  0  0  0
  1  3  1  0  0  0  0
  1 27  1  0  0  0  0
  3  8  1  0  0  0  0
  4  5  1  0  0  0  0
  4  3  1  0  0  0  0
  5  6  1  0  0  0  0
  5 11  1  0  0  0  0
  6  7  1  0  0  0  0
  7 15  1  0  0  0  0
  7 14  1  0  0  0  0
  8  7  1  0  0  0  0
  8 17  1  0  0  0  0
  9  4  1  0  0  0  0
 10  4  1  0  0  0  0
 12  5  1  0  0  0  0
 13  6  1  0  0  0  0
 16  8  1  0  0  0  0
 18 24  1  0  0  0  0
 19 18  1  0  0  0  0
 19  1  1  0  0  0  0
 20 19  2  0  0  0  0
 21 22  2  0  0  0  0
 21 20  1  0  0  0  0
 22 23  1  0  0  0  0
 23 18  2  0  0  0  0
 25 20  1  0  0  0  0
 26 22  1  0  0  0  0
 27 29  1  0  0  0  0
 27 30  1  0  0  0  0
 28 27  1  0  0  0  0
 30 31  1  0  0  0  0
 31 36  1  0  0  0  0
 31 32  2  0  0  0  0
 32 37  1  0  0  0  0
 33 32  1  0  0  0  0
 34 33  2  0  0  0  0
 35 30  2  0  0  0  0
 35 34  1  0  0  0  0
 38 34  1  0  0  0  0
 38 44  1  0  0  0  0
 39 41  1  0  0  0  0
 39 38  2  0  0  0  0
 40 39  1  0  0  0  0
 41 42  1  0  0  0  0
 42 44  2  0  0  0  0
 42 43  1  0  0  0  0
M  END
>  <minimizedAffinity>
-5.24253273

$$$$

 OpenBabel03252502403D

 44 47  0  0  1  0  0  0  0  0999 V2000
   38.5240   30.9400   40.5140 C   0  0  1  0  0  0  0  0  0  0  0  0
   37.7100   31.3170   41.2010 H   0  0  0  0  0  0  0  0  0  0  0  0
   39.4380   32.0370   40.3580 N   0  0  0  0  0  0  0  0  0  0  0  0
   38.8860   33.2820   40.7550 C   0  0  0  0  0  0  0  0  0  0  0  0
   39.8340   34.3480   40.1670 C   0  0  0  0  0  0  0  0  0  0  0  0
   40.9850   34.2230   40.9700 N   0  0  0  0  0  0  0  0  0  0  0  0
   41.6220   32.9750   40.9050 C   0  0  0  0  0  0  0  0  0  0  0  0
   40.6850   31.7830   40.9530 C   0  0  0  0  0  0  0  0  0  0  0  0
   38.8960   33.4350   41.8630 H   0  0  0  0  0  0  0  0  0  0  0  0
   37.8570   33.4410   40.4010 H   0  0  0  0  0  0  0  0  0  0  0  0
   39.9660   34.1790   39.0890 H   0  0  0  0  0  0  0  0  0  0  0  0
   39.3330   35.3240   40.3840 H   0  0  0  0  0  0  0  0  0  0  0  0
   41.3370   34.9670   41.5250 H   0  0  0  0  0  0  0  0  0  0  0  0
   42.1860   32.9190   39.9300 H   0  0  0  0  0  0  0  0  0  0  0  0
   42.4100   32.9160   41.6930 H   0  0  0  0  0  0  0  0  0  0  0  0
   40.4650   31.8080   42.0690 H   0  0  0  0  0  0  0  0  0  0  0  0
   41.3120   30.9740   40.6620 H   0  0  0  0  0  0  0  0  0  0  0  0
   38.6120   29.9680   38.2240 C   0  0  0  0  0  0  0  0  0  0  0  0
   37.9160   30.4390   39.3190 C   0  0  0  0  0  0  0  0  0  0  0  0
   36.5110   30.4070   39.2180 C   0  0  0  0  0  0  0  0  0  0  0  0
   35.9270   29.9270   38.0770 N   0  0  0  0  0  0  0  0  0  0  0  0
   36.6690   29.4810   37.0390 C   0  0  0  0  0  0  0  0  0  0  0  0
   38.0280   29.5020   37.1120 N   0  0  0  0  0  0  0  0  0  0  0  0
   39.6930   29.9610   38.2290 H   0  0  0  0  0  0  0  0  0  0  0  0
   35.9170   30.7640   40.0470 H   0  0  0  0  0  0  0  0  0  0  0  0
   36.0030   29.1520   36.2520 H   0  0  0  0  0  0  0  0  0  0  0  0
   39.2560   29.7810   41.2020 C   0  0  0  0  0  0  0  0  0  0  0  0
   39.9500   30.4120   41.8480 H   0  0  0  0  0  0  0  0  0  0  0  0
   39.9930   29.2610   40.5960 H   0  0  0  0  0  0  0  0  0  0  0  0
   38.4490   28.8860   41.9650 C   0  0  0  0  0  0  0  0  0  0  0  0
   37.7230   28.9080   43.1070 C   0  0  0  0  0  0  0  0  0  0  0  0
   37.0020   27.8790   43.6800 C   0  0  0  0  0  0  0  0  0  0  0  0
   37.0300   26.7230   43.0230 N   0  0  0  0  0  0  0  0  0  0  0  0
   37.7110   26.6130   41.9050 C   0  0  0  0  0  0  0  0  0  0  0  0
   38.3760   27.6500   41.4220 N   0  0  0  0  0  0  0  0  0  0  0  0
   37.7630   29.9040   43.5880 H   0  0  0  0  0  0  0  0  0  0  0  0
   36.4910   28.1430   44.6150 H   0  0  0  0  0  0  0  0  0  0  0  0
   37.6710   25.2860   41.2650 C   0  0  0  0  0  0  0  0  0  0  0  0
   38.8720   24.6480   41.0400 C   0  0  0  0  0  0  0  0  0  0  0  0
   39.9140   24.9320   41.2460 H   0  0  0  0  0  0  0  0  0  0  0  0
   38.4190   23.0940   40.2610 S   0  0  0  0  0  0  0  0  0  0  0  0
   36.5620   23.5730   40.3660 C   0  0  0  0  0  0  0  0  0  0  0  0
   35.5120   23.1180   40.0770 H   0  0  0  0  0  0  0  0  0  0  0  0
   36.6490   24.5770   40.8560 N   0  0  0  0  0  0  0  0  0  0  0  0
  1  2  1  1  0  0  0
  1 27  1  0  0  0  0
  3  1  1  0  0  0  0
  3  4  1  0  0  0  0
  3  8  1  0  0  0  0
  4  9  1  0  0  0  0
  5 12  1  0  0  0  0
  5  4  1  0  0  0  0
  5  6  1  0  0  0  0
  6 13  1  0  0  0  0
  7  8  1  0  0  0  0
  7  6  1  0  0  0  0
  7 15  1  0  0  0  0
  8 16  1  0  0  0  0
 10  4  1  0  0  0  0
 11  5  1  0  0  0  0
 14  7  1  0  0  0  0
 17  8  1  0  0  0  0
 18 24  1  0  0  0  0
 18 19  1  0  0  0  0
 19  1  1  0  0  0  0
 20 19  2  0  0  0  0
 20 25  1  0  0  0  0
 21 20  1  0  0  0  0
 22 23  1  0  0  0  0
 22 21  2  0  0  0  0
 23 18  2  0  0  0  0
 26 22  1  0  0  0  0
 27 28  1  0  0  0  0
 27 30  1  0  0  0  0
 29 27  1  0  0  0  0
 30 31  1  0  0  0  0
 31 36  1  0  0  0  0
 31 32  2  0  0  0  0
 32 37  1  0  0  0  0
 33 32  1  0  0  0  0
 34 33  2  0  0  0  0
 35 34  1  0  0  0  0
 35 30  2  0  0  0  0
 38 34  1  0  0  0  0
 39 40  1  0  0  0  0
 39 38  2  0  0  0  0
 41 42  1  0  0  0  0
 41 39  1  0  0  0  0
 42 44  2  0  0  0  0
 43 42  1  0  0  0  0
 44 38  1  0  0  0  0
M  END
>  <minimizedAffinity>
-5.20745754

$$$$

 OpenBabel03252502403D

 44 47  0  0  1  0  0  0  0  0999 V2000
   37.4150   30.4250   39.6960 C   0  0  1  0  0  0  0  0  0  0  0  0
   38.2940   29.7150   39.6790 H   0  0  0  0  0  0  0  0  0  0  0  0
   36.7100   30.1970   38.4640 N   0  0  0  0  0  0  0  0  0  0  0  0
   37.5410   29.6810   37.4360 C   0  0  0  0  0  0  0  0  0  0  0  0
   36.7320   29.8690   36.1350 C   0  0  0  0  0  0  0  0  0  0  0  0
   35.7130   28.9040   36.2550 N   0  0  0  0  0  0  0  0  0  0  0  0
   34.8500   29.0840   37.3460 C   0  0  0  0  0  0  0  0  0  0  0  0
   35.5420   29.4380   38.6490 C   0  0  0  0  0  0  0  0  0  0  0  0
   37.7270   28.5830   37.5290 H   0  0  0  0  0  0  0  0  0  0  0  0
   38.5160   30.1850   37.3620 H   0  0  0  0  0  0  0  0  0  0  0  0
   36.4090   30.9160   36.0420 H   0  0  0  0  0  0  0  0  0  0  0  0
   37.4340   29.5690   35.3190 H   0  0  0  0  0  0  0  0  0  0  0  0
   35.5950   28.1630   35.6060 H   0  0  0  0  0  0  0  0  0  0  0  0
   34.1450   29.9300   37.1010 H   0  0  0  0  0  0  0  0  0  0  0  0
   34.1930   28.1880   37.4560 H   0  0  0  0  0  0  0  0  0  0  0  0
   35.9290   28.3990   38.9020 H   0  0  0  0  0  0  0  0  0  0  0  0
   34.7370   29.7550   39.2700 H   0  0  0  0  0  0  0  0  0  0  0  0
   39.1110   32.0530   40.5120 C   0  0  0  0  0  0  0  0  0  0  0  0
   37.9030   31.7510   39.9170 C   0  0  0  0  0  0  0  0  0  0  0  0
   37.1240   32.8520   39.5080 C   0  0  0  0  0  0  0  0  0  0  0  0
   37.5890   34.1230   39.7170 N   0  0  0  0  0  0  0  0  0  0  0  0
   38.7840   34.3480   40.3070 C   0  0  0  0  0  0  0  0  0  0  0  0
   39.5540   33.3020   40.7110 N   0  0  0  0  0  0  0  0  0  0  0  0
   39.7630   31.2600   40.8510 H   0  0  0  0  0  0  0  0  0  0  0  0
   36.1690   32.6730   39.0360 H   0  0  0  0  0  0  0  0  0  0  0  0
   38.9450   35.4170   40.3680 H   0  0  0  0  0  0  0  0  0  0  0  0
   36.4970   30.0490   40.8660 C   0  0  0  0  0  0  0  0  0  0  0  0
   35.5730   29.7990   40.2510 H   0  0  0  0  0  0  0  0  0  0  0  0
   36.1100   30.8800   41.4490 H   0  0  0  0  0  0  0  0  0  0  0  0
   36.9290   28.9640   41.6850 C   0  0  0  0  0  0  0  0  0  0  0  0
   36.3880   27.8830   42.2940 C   0  0  0  0  0  0  0  0  0  0  0  0
   37.0220   26.9370   43.0760 C   0  0  0  0  0  0  0  0  0  0  0  0
   38.3270   27.1160   43.2480 N   0  0  0  0  0  0  0  0  0  0  0  0
   38.9340   28.1400   42.6930 C   0  0  0  0  0  0  0  0  0  0  0  0
   38.2530   29.0040   41.9560 N   0  0  0  0  0  0  0  0  0  0  0  0
   35.2990   27.8190   42.1030 H   0  0  0  0  0  0  0  0  0  0  0  0
   36.3640   26.1470   43.4620 H   0  0  0  0  0  0  0  0  0  0  0  0
   40.3820   28.2380   42.9530 C   0  0  0  0  0  0  0  0  0  0  0  0
   41.0050   27.1490   43.5210 C   0  0  0  0  0  0  0  0  0  0  0  0
   40.6360   26.1640   43.8420 H   0  0  0  0  0  0  0  0  0  0  0  0
   42.7250   27.6440   43.6800 S   0  0  0  0  0  0  0  0  0  0  0  0
   42.3130   29.3530   42.9060 C   0  0  0  0  0  0  0  0  0  0  0  0
   42.8710   30.3520   42.6180 H   0  0  0  0  0  0  0  0  0  0  0  0
   41.2140   29.2250   42.7280 N   0  0  0  0  0  0  0  0  0  0  0  0
  1  2  1  1  0  0  0
  1 19  1  0  0  0  0
  1 27  1  0  0  0  0
  3  8  1  0  0  0  0
  3  1  1  0  0  0  0
  4  9  1  0  0  0  0
  4  3  1  0  0  0  0
  5  6  1  0  0  0  0
  5  4  1  0  0  0  0
  6  7  1  0  0  0  0
  7 15  1  0  0  0  0
  7  8  1  0  0  0  0
  8 16  1  0  0  0  0
  8 17  1  0  0  0  0
 10  4  1  0  0  0  0
 11  5  1  0  0  0  0
 12  5  1  0  0  0  0
 13  6  1  0  0  0  0
 14  7  1  0  0  0  0
 18 23  1  0  0  0  0
 18 24  1  0  0  0  0
 19 18  2  0  0  0  0
 20 21  2  0  0  0  0
 20 19  1  0  0  0  0
 21 22  1  0  0  0  0
 22 26  1  0  0  0  0
 22 23  2  0  0  0  0
 25 20  1  0  0  0  0
 27 29  1  0  0  0  0
 27 30  1  0  0  0  0
 28 27  1  0  0  0  0
 30 35  2  0  0  0  0
 30 31  1  0  0  0  0
 31 32  2  0  0  0  0
 32 33  1  0  0  0  0
 32 37  1  0  0  0  0
 34 38  1  0  0  0  0
 34 33  2  0  0  0  0
 35 34  1  0  0  0  0
 36 31  1  0  0  0  0
 38 39  2  0  0  0  0
 39 41  1  0  0  0  0
 39 40  1  0  0  0  0
 42 41  1  0  0  0  0
 43 42  1  0  0  0  0
 44 42  2  0  0  0  0
 44 38  1  0  0  0  0
M  END
>  <minimizedAffinity>
-5.16097879

$$$$

 OpenBabel03252502403D

 44 47  0  0  1  0  0  0  0  0999 V2000
   37.7630   30.1710   39.9750 C   0  0  1  0  0  0  0  0  0  0  0  0
   38.4180   29.5540   39.2930 H   0  0  0  0  0  0  0  0  0  0  0  0
   38.3930   31.4610   40.0540 N   0  0  0  0  0  0  0  0  0  0  0  0
   39.3860   31.6560   39.0600 C   0  0  0  0  0  0  0  0  0  0  0  0
   40.1900   32.8850   39.5310 C   0  0  0  0  0  0  0  0  0  0  0  0
   39.2920   33.9500   39.3180 N   0  0  0  0  0  0  0  0  0  0  0  0
   38.1030   33.8830   40.0600 C   0  0  0  0  0  0  0  0  0  0  0  0
   37.4590   32.5100   40.1000 C   0  0  0  0  0  0  0  0  0  0  0  0
   38.9620   31.9260   38.0610 H   0  0  0  0  0  0  0  0  0  0  0  0
   40.0490   30.7880   38.9230 H   0  0  0  0  0  0  0  0  0  0  0  0
   40.5360   32.7340   40.5640 H   0  0  0  0  0  0  0  0  0  0  0  0
   41.0380   32.9640   38.8080 H   0  0  0  0  0  0  0  0  0  0  0  0
   39.4900   34.7050   38.7060 H   0  0  0  0  0  0  0  0  0  0  0  0
   38.3370   34.1740   41.1250 H   0  0  0  0  0  0  0  0  0  0  0  0
   37.3930   34.6640   39.7010 H   0  0  0  0  0  0  0  0  0  0  0  0
   37.0110   32.5220   39.0540 H   0  0  0  0  0  0  0  0  0  0  0  0
   36.7350   32.6070   40.8740 H   0  0  0  0  0  0  0  0  0  0  0  0
   38.3460   29.6870   42.3460 C   0  0  0  0  0  0  0  0  0  0  0  0
   37.5960   29.4660   41.2090 C   0  0  0  0  0  0  0  0  0  0  0  0
   36.6040   28.4700   41.3080 C   0  0  0  0  0  0  0  0  0  0  0  0
   36.4400   27.7940   42.4870 N   0  0  0  0  0  0  0  0  0  0  0  0
   37.2110   28.0610   43.5650 C   0  0  0  0  0  0  0  0  0  0  0  0
   38.1770   29.0180   43.4940 N   0  0  0  0  0  0  0  0  0  0  0  0
   39.1260   30.4360   42.3450 H   0  0  0  0  0  0  0  0  0  0  0  0
   35.9870   28.2560   40.4470 H   0  0  0  0  0  0  0  0  0  0  0  0
   36.9090   27.4130   44.3770 H   0  0  0  0  0  0  0  0  0  0  0  0
   36.3840   30.3350   39.3240 C   0  0  0  0  0  0  0  0  0  0  0  0
   36.3180   31.4680   39.4070 H   0  0  0  0  0  0  0  0  0  0  0  0
   35.5330   30.0570   39.9410 H   0  0  0  0  0  0  0  0  0  0  0  0
   36.2580   29.8670   37.9830 C   0  0  0  0  0  0  0  0  0  0  0  0
   37.0360   29.7380   36.8830 C   0  0  0  0  0  0  0  0  0  0  0  0
   36.6840   29.2480   35.6410 C   0  0  0  0  0  0  0  0  0  0  0  0
   35.4210   28.8560   35.5150 N   0  0  0  0  0  0  0  0  0  0  0  0
   34.5950   28.9460   36.5330 C   0  0  0  0  0  0  0  0  0  0  0  0
   35.0120   29.4280   37.6930 N   0  0  0  0  0  0  0  0  0  0  0  0
   38.0660   30.0950   37.0770 H   0  0  0  0  0  0  0  0  0  0  0  0
   37.4980   29.2430   34.9030 H   0  0  0  0  0  0  0  0  0  0  0  0
   33.2190   28.4830   36.2780 C   0  0  0  0  0  0  0  0  0  0  0  0
   32.1970   29.3910   36.4470 C   0  0  0  0  0  0  0  0  0  0  0  0
   32.1850   30.4490   36.7480 H   0  0  0  0  0  0  0  0  0  0  0  0
   30.7050   28.4720   36.0520 S   0  0  0  0  0  0  0  0  0  0  0  0
   31.7560   26.9040   35.6970 C   0  0  0  0  0  0  0  0  0  0  0  0
   31.5900   25.7850   35.3610 H   0  0  0  0  0  0  0  0  0  0  0  0
   32.7810   27.3070   35.9020 N   0  0  0  0  0  0  0  0  0  0  0  0
  1  2  1  6  0  0  0
  1  3  1  0  0  0  0
  1 19  1  0  0  0  0
  3  8  1  0  0  0  0
  4  5  1  0  0  0  0
  4  3  1  0  0  0  0
  5 11  1  0  0  0  0
  6  5  1  0  0  0  0
  6  7  1  0  0  0  0
  7  8  1  0  0  0  0
  7 14  1  0  0  0  0
  8 17  1  0  0  0  0
  9  4  1  0  0  0  0
 10  4  1  0  0  0  0
 12  5  1  0  0  0  0
 13  6  1  0  0  0  0
 15  7  1  0  0  0  0
 16  8  1  0  0  0  0
 18 23  1  0  0  0  0
 19 20  1  0  0  0  0
 19 18  2  0  0  0  0
 20 21  2  0  0  0  0
 21 22  1  0  0  0  0
 22 26  1  0  0  0  0
 23 22  2  0  0  0  0
 24 18  1  0  0  0  0
 25 20  1  0  0  0  0
 27 28  1  0  0  0  0
 27 29  1  0  0  0  0
 27  1  1  0  0  0  0
 30 27  1  0  0  0  0
 31 36  1  0  0  0  0
 31 30  2  0  0  0  0
 32 31  1  0  0  0  0
 33 32  2  0  0  0  0
 33 34  1  0  0  0  0
 34 35  2  0  0  0  0
 35 30  1  0  0  0  0
 37 32  1  0  0  0  0
 38 39  2  0  0  0  0
 38 34  1  0  0  0  0
 39 40  1  0  0  0  0
 41 39  1  0  0  0  0
 42 44  2  0  0  0  0
 42 41  1  0  0  0  0
 43 42  1  0  0  0  0
 44 38  1  0  0  0  0
M  END
>  <minimizedAffinity>
-5.08849859

$$$$

 OpenBabel03252502403D

 44 47  0  0  1  0  0  0  0  0999 V2000
   39.4680   30.1040   39.9030 C   0  0  1  0  0  0  0  0  0  0  0  0
   38.6620   29.3910   39.5590 H   0  0  0  0  0  0  0  0  0  0  0  0
   38.9080   31.4200   39.7590 N   0  0  0  0  0  0  0  0  0  0  0  0
   37.4920   31.4140   39.6660 C   0  0  0  0  0  0  0  0  0  0  0  0
   37.1190   32.8160   39.1400 C   0  0  0  0  0  0  0  0  0  0  0  0
   37.3750   33.6460   40.2480 N   0  0  0  0  0  0  0  0  0  0  0  0
   38.7120   33.6720   40.6750 C   0  0  0  0  0  0  0  0  0  0  0  0
   39.3820   32.3130   40.7350 C   0  0  0  0  0  0  0  0  0  0  0  0
   36.9860   31.3090   40.6570 H   0  0  0  0  0  0  0  0  0  0  0  0
   37.0980   30.6320   38.9990 H   0  0  0  0  0  0  0  0  0  0  0  0
   37.6810   33.0340   38.2210 H   0  0  0  0  0  0  0  0  0  0  0  0
   36.0170   32.7660   38.9590 H   0  0  0  0  0  0  0  0  0  0  0  0
   36.6710   34.1930   40.6840 H   0  0  0  0  0  0  0  0  0  0  0  0
   39.3000   34.3040   39.9500 H   0  0  0  0  0  0  0  0  0  0  0  0
   38.7830   34.2130   41.6480 H   0  0  0  0  0  0  0  0  0  0  0  0
   38.8990   31.9470   41.6970 H   0  0  0  0  0  0  0  0  0  0  0  0
   40.4120   32.5580   40.8440 H   0  0  0  0  0  0  0  0  0  0  0  0
   41.7540   29.1490   39.6580 C   0  0  0  0  0  0  0  0  0  0  0  0
   40.6630   29.8350   39.1630 C   0  0  0  0  0  0  0  0  0  0  0  0
   40.7680   30.2820   37.8300 C   0  0  0  0  0  0  0  0  0  0  0  0
   41.9090   30.0240   37.1190 N   0  0  0  0  0  0  0  0  0  0  0  0
   42.9420   29.3460   37.6660 C   0  0  0  0  0  0  0  0  0  0  0  0
   42.8650   28.9040   38.9520 N   0  0  0  0  0  0  0  0  0  0  0  0
   41.7450   28.7750   40.6720 H   0  0  0  0  0  0  0  0  0  0  0  0
   39.9420   30.8240   37.3920 H   0  0  0  0  0  0  0  0  0  0  0  0
   43.7300   29.2600   36.9300 H   0  0  0  0  0  0  0  0  0  0  0  0
   39.7550   29.8500   41.3880 C   0  0  0  0  0  0  0  0  0  0  0  0
   39.7360   30.9360   41.7270 H   0  0  0  0  0  0  0  0  0  0  0  0
   40.7830   29.5990   41.6350 H   0  0  0  0  0  0  0  0  0  0  0  0
   38.8140   29.0330   42.0830 C   0  0  0  0  0  0  0  0  0  0  0  0
   38.0100   29.1230   43.1680 C   0  0  0  0  0  0  0  0  0  0  0  0
   37.1570   28.1650   43.6790 C   0  0  0  0  0  0  0  0  0  0  0  0
   37.1260   27.0120   43.0190 N   0  0  0  0  0  0  0  0  0  0  0  0
   37.8750   26.8390   41.9540 C   0  0  0  0  0  0  0  0  0  0  0  0
   38.6680   27.8090   41.5270 N   0  0  0  0  0  0  0  0  0  0  0  0
   38.1070   30.1110   43.6570 H   0  0  0  0  0  0  0  0  0  0  0  0
   36.6040   28.4760   44.5760 H   0  0  0  0  0  0  0  0  0  0  0  0
   37.7610   25.5210   41.3040 C   0  0  0  0  0  0  0  0  0  0  0  0
   38.8840   24.7230   41.2720 C   0  0  0  0  0  0  0  0  0  0  0  0
   39.9070   24.8650   41.6480 H   0  0  0  0  0  0  0  0  0  0  0  0
   38.3580   23.2340   40.4160 S   0  0  0  0  0  0  0  0  0  0  0  0
   36.5910   23.9620   40.2200 C   0  0  0  0  0  0  0  0  0  0  0  0
   35.5500   23.6490   39.7590 H   0  0  0  0  0  0  0  0  0  0  0  0
   36.7320   24.9520   40.7260 N   0  0  0  0  0  0  0  0  0  0  0  0
  1  2  1  6  0  0  0
  1 27  1  0  0  0  0
  3  1  1  0  0  0  0
  3  8  1  0  0  0  0
  4  3  1  0  0  0  0
  4  9  1  0  0  0  0
  5  4  1  0  0  0  0
  5  6  1  0  0  0  0
  6  7  1  0  0  0  0
  6 13  1  0  0  0  0
  7  8  1  0  0  0  0
  7 15  1  0  0  0  0
  8 17  1  0  0  0  0
  8 16  1  0  0  0  0
 10  4  1  0  0  0  0
 11  5  1  0  0  0  0
 12  5  1  0  0  0  0
 14  7  1  0  0  0  0
 18 24  1  0  0  0  0
 19 18  1  0  0  0  0
 19  1  1  0  0  0  0
 20 19  2  0  0  0  0
 21 22  2  0  0  0  0
 21 20  1  0  0  0  0
 22 23  1  0  0  0  0
 23 18  2  0  0  0  0
 25 20  1  0  0  0  0
 26 22  1  0  0  0  0
 27 29  1  0  0  0  0
 27 28  1  0  0  0  0
 27 30  1  0  0  0  0
 30 31  1  0  0  0  0
 31 36  1  0  0  0  0
 31 32  2  0  0  0  0
 32 37  1  0  0  0  0
 33 32  1  0  0  0  0
 34 33  2  0  0  0  0
 35 34  1  0  0  0  0
 35 30  2  0  0  0  0
 38 34  1  0  0  0  0
 39 38  2  0  0  0  0
 39 40  1  0  0  0  0
 41 39  1  0  0  0  0
 42 41  1  0  0  0  0
 42 44  2  0  0  0  0
 43 42  1  0  0  0  0
 44 38  1  0  0  0  0
M  END
>  <minimizedAffinity>
-5.04701185

$$$$

 OpenBabel03252502403D

 44 47  0  0  1  0  0  0  0  0999 V2000
   37.1630   29.6260   40.3580 C   0  0  1  0  0  0  0  0  0  0  0  0
   38.2040   29.6890   39.9240 H   0  0  0  0  0  0  0  0  0  0  0  0
   37.2230   28.5940   41.3570 N   0  0  0  0  0  0  0  0  0  0  0  0
   38.0720   27.5180   40.9940 C   0  0  0  0  0  0  0  0  0  0  0  0
   37.7120   26.3760   41.9680 C   0  0  0  0  0  0  0  0  0  0  0  0
   38.2490   26.8260   43.1910 N   0  0  0  0  0  0  0  0  0  0  0  0
   37.6970   28.0190   43.6790 C   0  0  0  0  0  0  0  0  0  0  0  0
   37.5090   29.1030   42.6350 C   0  0  0  0  0  0  0  0  0  0  0  0
   39.1560   27.7370   41.1590 H   0  0  0  0  0  0  0  0  0  0  0  0
   37.9470   27.1910   39.9510 H   0  0  0  0  0  0  0  0  0  0  0  0
   36.6290   26.1910   41.9450 H   0  0  0  0  0  0  0  0  0  0  0  0
   38.3000   25.4970   41.6050 H   0  0  0  0  0  0  0  0  0  0  0  0
   38.9490   26.3270   43.6860 H   0  0  0  0  0  0  0  0  0  0  0  0
   36.6790   27.7870   44.1070 H   0  0  0  0  0  0  0  0  0  0  0  0
   38.2950   28.3800   44.5490 H   0  0  0  0  0  0  0  0  0  0  0  0
   38.5960   29.4310   42.5600 H   0  0  0  0  0  0  0  0  0  0  0  0
   36.8860   29.8090   43.1310 H   0  0  0  0  0  0  0  0  0  0  0  0
   36.5350   29.5750   37.9500 C   0  0  0  0  0  0  0  0  0  0  0  0
   36.2330   29.4270   39.2890 C   0  0  0  0  0  0  0  0  0  0  0  0
   34.9080   29.0510   39.5850 C   0  0  0  0  0  0  0  0  0  0  0  0
   34.0160   28.8590   38.5640 N   0  0  0  0  0  0  0  0  0  0  0  0
   34.3780   29.0200   37.2720 C   0  0  0  0  0  0  0  0  0  0  0  0
   35.6530   29.3840   36.9600 N   0  0  0  0  0  0  0  0  0  0  0  0
   37.5320   29.8610   37.6470 H   0  0  0  0  0  0  0  0  0  0  0  0
   34.6170   28.9220   40.6180 H   0  0  0  0  0  0  0  0  0  0  0  0
   33.5220   28.8180   36.6430 H   0  0  0  0  0  0  0  0  0  0  0  0
   36.8300   30.9570   41.0430 C   0  0  0  0  0  0  0  0  0  0  0  0
   37.1260   30.6540   42.1000 H   0  0  0  0  0  0  0  0  0  0  0  0
   35.7740   31.1580   41.1990 H   0  0  0  0  0  0  0  0  0  0  0  0
   37.5380   32.1040   40.5760 C   0  0  0  0  0  0  0  0  0  0  0  0
   37.2810   33.2300   39.8700 C   0  0  0  0  0  0  0  0  0  0  0  0
   38.1590   34.2350   39.5160 C   0  0  0  0  0  0  0  0  0  0  0  0
   39.4140   34.0700   39.9210 N   0  0  0  0  0  0  0  0  0  0  0  0
   39.7520   33.0060   40.6120 C   0  0  0  0  0  0  0  0  0  0  0  0
   38.8480   32.0860   40.9110 N   0  0  0  0  0  0  0  0  0  0  0  0
   36.2160   33.2780   39.5690 H   0  0  0  0  0  0  0  0  0  0  0  0
   37.7090   35.0530   38.9380 H   0  0  0  0  0  0  0  0  0  0  0  0
   41.1700   32.9280   41.0060 C   0  0  0  0  0  0  0  0  0  0  0  0
   42.0030   33.9500   40.6040 C   0  0  0  0  0  0  0  0  0  0  0  0
   41.8290   34.8640   40.0180 H   0  0  0  0  0  0  0  0  0  0  0  0
   43.6150   33.5060   41.2620 S   0  0  0  0  0  0  0  0  0  0  0  0
   42.8710   31.9080   42.0270 C   0  0  0  0  0  0  0  0  0  0  0  0
   43.2280   30.9820   42.6650 H   0  0  0  0  0  0  0  0  0  0  0  0
   41.8040   32.0170   41.7020 N   0  0  0  0  0  0  0  0  0  0  0  0
  1  2  1  6  0  0  0
  1 27  1  0  0  0  0
  1  3  1  0  0  0  0
  3  8  1  0  0  0  0
  4  9  1  0  0  0  0
  4  3  1  0  0  0  0
  4  5  1  0  0  0  0
  5  6  1  0  0  0  0
  6  7  1  0  0  0  0
  6 13  1  0  0  0  0
  7 14  1  0  0  0  0
  7 15  1  0  0  0  0
  8 17  1  0  0  0  0
  8  7  1  0  0  0  0
 10  4  1  0  0  0  0
 11  5  1  0  0  0  0
 12  5  1  0  0  0  0
 16  8  1  0  0  0  0
 18 19  1  0  0  0  0
 19 20  2  0  0  0  0
 19  1  1  0  0  0  0
 20 25  1  0  0  0  0
 21 20  1  0  0  0  0
 22 21  2  0  0  0  0
 23 22  1  0  0  0  0
 23 18  2  0  0  0  0
 24 18  1  0  0  0  0
 26 22  1  0  0  0  0
 27 29  1  0  0  0  0
 27 28  1  0  0  0  0
 30 35  1  0  0  0  0
 30 27  1  0  0  0  0
 31 30  2  0  0  0  0
 32 31  1  0  0  0  0
 32 33  2  0  0  0  0
 33 34  1  0  0  0  0
 34 35  2  0  0  0  0
 34 38  1  0  0  0  0
 36 31  1  0  0  0  0
 37 32  1  0  0  0  0
 38 44  1  0  0  0  0
 39 38  2  0  0  0  0
 39 41  1  0  0  0  0
 40 39  1  0  0  0  0
 41 42  1  0  0  0  0
 42 43  1  0  0  0  0
 44 42  2  0  0  0  0
M  END
>  <minimizedAffinity>
-5.03803158

$$$$

 OpenBabel03252502403D

 44 47  0  0  1  0  0  0  0  0999 V2000
   38.0030   30.2590   39.9920 C   0  0  1  0  0  0  0  0  0  0  0  0
   38.8540   29.7450   39.4560 H   0  0  0  0  0  0  0  0  0  0  0  0
   38.4080   31.6300   40.1350 N   0  0  0  0  0  0  0  0  0  0  0  0
   39.5720   31.9470   39.3880 C   0  0  0  0  0  0  0  0  0  0  0  0
   40.0600   33.2960   39.9570 C   0  0  0  0  0  0  0  0  0  0  0  0
   39.0980   34.2060   39.4770 N   0  0  0  0  0  0  0  0  0  0  0  0
   37.7880   33.9800   39.9270 C   0  0  0  0  0  0  0  0  0  0  0  0
   37.3530   32.5280   39.9000 C   0  0  0  0  0  0  0  0  0  0  0  0
   39.3640   32.1250   38.3040 H   0  0  0  0  0  0  0  0  0  0  0  0
   40.3630   31.1860   39.4620 H   0  0  0  0  0  0  0  0  0  0  0  0
   40.1680   33.2250   41.0490 H   0  0  0  0  0  0  0  0  0  0  0  0
   41.0360   33.4820   39.4470 H   0  0  0  0  0  0  0  0  0  0  0  0
   39.3280   34.9670   38.8830 H   0  0  0  0  0  0  0  0  0  0  0  0
   37.7190   34.3310   40.9970 H   0  0  0  0  0  0  0  0  0  0  0  0
   37.0820   34.6360   39.3660 H   0  0  0  0  0  0  0  0  0  0  0  0
   37.1690   32.4450   38.7800 H   0  0  0  0  0  0  0  0  0  0  0  0
   36.4590   32.5350   40.4780 H   0  0  0  0  0  0  0  0  0  0  0  0
   38.4170   29.7090   42.3840 C   0  0  0  0  0  0  0  0  0  0  0  0
   37.7260   29.5450   41.2000 C   0  0  0  0  0  0  0  0  0  0  0  0
   36.6790   28.6020   41.2230 C   0  0  0  0  0  0  0  0  0  0  0  0
   36.4110   27.9180   42.3780 N   0  0  0  0  0  0  0  0  0  0  0  0
   37.1290   28.1280   43.5040 C   0  0  0  0  0  0  0  0  0  0  0  0
   38.1450   29.0330   43.5080 N   0  0  0  0  0  0  0  0  0  0  0  0
   39.2330   30.4160   42.4420 H   0  0  0  0  0  0  0  0  0  0  0  0
   36.1050   28.4340   40.3230 H   0  0  0  0  0  0  0  0  0  0  0  0
   36.7450   27.4850   44.2850 H   0  0  0  0  0  0  0  0  0  0  0  0
   36.7530   30.2050   39.1040 C   0  0  0  0  0  0  0  0  0  0  0  0
   36.5670   31.3260   39.0470 H   0  0  0  0  0  0  0  0  0  0  0  0
   35.8360   29.8910   39.5960 H   0  0  0  0  0  0  0  0  0  0  0  0
   36.9140   29.6030   37.8210 C   0  0  0  0  0  0  0  0  0  0  0  0
   36.2650   29.5700   36.6340 C   0  0  0  0  0  0  0  0  0  0  0  0
   36.6160   28.8850   35.4870 C   0  0  0  0  0  0  0  0  0  0  0  0
   37.7320   28.1690   35.5660 N   0  0  0  0  0  0  0  0  0  0  0  0
   38.4260   28.1430   36.6810 C   0  0  0  0  0  0  0  0  0  0  0  0
   38.0210   28.8300   37.7370 N   0  0  0  0  0  0  0  0  0  0  0  0
   35.3460   30.1870   36.6640 H   0  0  0  0  0  0  0  0  0  0  0  0
   35.9230   29.0170   34.6450 H   0  0  0  0  0  0  0  0  0  0  0  0
   39.6450   27.3150   36.6520 C   0  0  0  0  0  0  0  0  0  0  0  0
   39.4920   25.9590   36.4580 C   0  0  0  0  0  0  0  0  0  0  0  0
   38.6070   25.3240   36.3120 H   0  0  0  0  0  0  0  0  0  0  0  0
   41.1660   25.3070   36.4860 S   0  0  0  0  0  0  0  0  0  0  0  0
   41.8580   27.0760   36.7740 C   0  0  0  0  0  0  0  0  0  0  0  0
   42.9040   27.6050   36.9170 H   0  0  0  0  0  0  0  0  0  0  0  0
   40.9020   27.6580   36.7850 N   0  0  0  0  0  0  0  0  0  0  0  0
  1  2  1  6  0  0  0
  1  3  1  0  0  0  0
  1 19  1  0  0  0  0
  4 10  1  0  0  0  0
  4  5  1  0  0  0  0
  4  3  1  0  0  0  0
  5 11  1  0  0  0  0
  6  7  1  0  0  0  0
  6  5  1  0  0  0  0
  7 14  1  0  0  0  0
  8  7  1  0  0  0  0
  8  3  1  0  0  0  0
  8 17  1  0  0  0  0
  9  4  1  0  0  0  0
 12  5  1  0  0  0  0
 13  6  1  0  0  0  0
 15  7  1  0  0  0  0
 16  8  1  0  0  0  0
 18 24  1  0  0  0  0
 18 23  1  0  0  0  0
 19 20  1  0  0  0  0
 19 18  2  0  0  0  0
 20 21  2  0  0  0  0
 21 22  1  0  0  0  0
 22 23  2  0  0  0  0
 22 26  1  0  0  0  0
 25 20  1  0  0  0  0
 27 29  1  0  0  0  0
 27  1  1  0  0  0  0
 28 27  1  0  0  0  0
 30 27  1  0  0  0  0
 31 36  1  0  0  0  0
 31 30  2  0  0  0  0
 32 33  2  0  0  0  0
 32 31  1  0  0  0  0
 33 34  1  0  0  0  0
 34 35  2  0  0  0  0
 35 30  1  0  0  0  0
 37 32  1  0  0  0  0
 38 34  1  0  0  0  0
 38 44  1  0  0  0  0
 39 41  1  0  0  0  0
 39 38  2  0  0  0  0
 40 39  1  0  0  0  0
 41 42  1  0  0  0  0
 42 44  2  0  0  0  0
 42 43  1  0  0  0  0
M  END
>  <minimizedAffinity>
-5.00225687

$$$$

 OpenBabel03252502403D

 44 47  0  0  1  0  0  0  0  0999 V2000
   36.5710   30.1640   39.0100 C   0  0  1  0  0  0  0  0  0  0  0  0
   35.7360   30.8360   39.3680 H   0  0  0  0  0  0  0  0  0  0  0  0
   35.9580   29.2400   38.0960 N   0  0  0  0  0  0  0  0  0  0  0  0
   34.5800   29.0270   38.3610 C   0  0  0  0  0  0  0  0  0  0  0  0
   34.2090   27.7600   37.5620 C   0  0  0  0  0  0  0  0  0  0  0  0
   34.2260   28.2130   36.2280 N   0  0  0  0  0  0  0  0  0  0  0  0
   35.4690   28.6780   35.7740 C   0  0  0  0  0  0  0  0  0  0  0  0
   36.2070   29.5700   36.7530 C   0  0  0  0  0  0  0  0  0  0  0  0
   33.9250   29.8440   37.9690 H   0  0  0  0  0  0  0  0  0  0  0  0
   34.3530   28.8920   39.4290 H   0  0  0  0  0  0  0  0  0  0  0  0
   34.9000   26.9430   37.8120 H   0  0  0  0  0  0  0  0  0  0  0  0
   33.1580   27.5320   37.8650 H   0  0  0  0  0  0  0  0  0  0  0  0
   33.4260   28.1860   35.6420 H   0  0  0  0  0  0  0  0  0  0  0  0
   36.1270   27.7840   35.5740 H   0  0  0  0  0  0  0  0  0  0  0  0
   35.3440   29.1680   34.7790 H   0  0  0  0  0  0  0  0  0  0  0  0
   35.5960   30.5160   36.5880 H   0  0  0  0  0  0  0  0  0  0  0  0
   37.1870   29.6210   36.3410 H   0  0  0  0  0  0  0  0  0  0  0  0
   38.2940   28.7300   40.0910 C   0  0  0  0  0  0  0  0  0  0  0  0
   37.2220   29.5980   40.1510 C   0  0  0  0  0  0  0  0  0  0  0  0
   36.7680   29.9290   41.4430 C   0  0  0  0  0  0  0  0  0  0  0  0
   37.3900   29.3900   42.5360 N   0  0  0  0  0  0  0  0  0  0  0  0
   38.4370   28.5440   42.4060 C   0  0  0  0  0  0  0  0  0  0  0  0
   38.8950   28.2090   41.1690 N   0  0  0  0  0  0  0  0  0  0  0  0
   38.6980   28.4320   39.1340 H   0  0  0  0  0  0  0  0  0  0  0  0
   35.9310   30.6050   41.5480 H   0  0  0  0  0  0  0  0  0  0  0  0
   38.7670   28.2460   43.3930 H   0  0  0  0  0  0  0  0  0  0  0  0
   37.5940   31.0110   38.2430 C   0  0  0  0  0  0  0  0  0  0  0  0
   36.9460   31.2340   37.3340 H   0  0  0  0  0  0  0  0  0  0  0  0
   38.3990   30.4600   37.7620 H   0  0  0  0  0  0  0  0  0  0  0  0
   38.0580   32.1900   38.8970 C   0  0  0  0  0  0  0  0  0  0  0  0
   37.5490   33.1880   39.6570 C   0  0  0  0  0  0  0  0  0  0  0  0
   38.2110   34.2740   40.1950 C   0  0  0  0  0  0  0  0  0  0  0  0
   39.5110   34.3440   39.9290 N   0  0  0  0  0  0  0  0  0  0  0  0
   40.0880   33.4170   39.1980 C   0  0  0  0  0  0  0  0  0  0  0  0
   39.3810   32.4050   38.7190 N   0  0  0  0  0  0  0  0  0  0  0  0
   36.4620   33.0520   39.8200 H   0  0  0  0  0  0  0  0  0  0  0  0
   37.5760   34.9530   40.7810 H   0  0  0  0  0  0  0  0  0  0  0  0
   41.5320   33.5980   38.9670 C   0  0  0  0  0  0  0  0  0  0  0  0
   42.3770   33.4460   40.0450 C   0  0  0  0  0  0  0  0  0  0  0  0
   42.1960   33.2060   41.1030 H   0  0  0  0  0  0  0  0  0  0  0  0
   44.0190   33.7380   39.3780 S   0  0  0  0  0  0  0  0  0  0  0  0
   43.2670   34.0380   37.6360 C   0  0  0  0  0  0  0  0  0  0  0  0
   43.6340   34.3020   36.5460 H   0  0  0  0  0  0  0  0  0  0  0  0
   42.1800   33.8890   37.8660 N   0  0  0  0  0  0  0  0  0  0  0  0
  1  2  1  1  0  0  0
  1 19  1  0  0  0  0
  3  4  1  0  0  0  0
  3  1  1  0  0  0  0
  4 10  1  0  0  0  0
  5 11  1  0  0  0  0
  5 12  1  0  0  0  0
  5  4  1  0  0  0  0
  6  5  1  0  0  0  0
  7  6  1  0  0  0  0
  7  8  1  0  0  0  0
  8  3  1  0  0  0  0
  9  4  1  0  0  0  0
 13  6  1  0  0  0  0
 14  7  1  0  0  0  0
 15  7  1  0  0  0  0
 16  8  1  0  0  0  0
 17  8  1  0  0  0  0
 18 19  2  0  0  0  0
 18 23  1  0  0  0  0
 19 20  1  0  0  0  0
 20 25  1  0  0  0  0
 20 21  2  0  0  0  0
 22 21  1  0  0  0  0
 22 26  1  0  0  0  0
 23 22  2  0  0  0  0
 24 18  1  0  0  0  0
 27 30  1  0  0  0  0
 27  1  1  0  0  0  0
 28 27  1  0  0  0  0
 29 27  1  0  0  0  0
 30 31  1  0  0  0  0
 31 36  1  0  0  0  0
 31 32  2  0  0  0  0
 32 37  1  0  0  0  0
 33 32  1  0  0  0  0
 34 33  2  0  0  0  0
 35 30  2  0  0  0  0
 35 34  1  0  0  0  0
 38 34  1  0  0  0  0
 38 39  2  0  0  0  0
 39 40  1  0  0  0  0
 41 39  1  0  0  0  0
 42 44  2  0  0  0  0
 42 41  1  0  0  0  0
 43 42  1  0  0  0  0
 44 38  1  0  0  0  0
M  END
>  <minimizedAffinity>
-4.97853518

$$$$
