
 OpenBabel03242518053D

 18 19  0  0  0  0  0  0  0  0999 V2000
   36.9640   31.2910   40.7820 C   0  0  0  0  0  0  0  0  0  0  0  0
   38.0310   30.4120   41.0230 C   0  0  0  0  0  0  0  0  0  0  0  0
   39.2970   30.7350   40.5260 C   0  0  0  0  0  0  0  0  0  0  0  0
   39.4160   31.8970   39.8320 N   0  0  0  0  0  0  0  0  0  0  0  0
   38.3790   32.7160   39.6200 C   0  0  0  0  0  0  0  0  0  0  0  0
   37.1620   32.4110   40.0940 N   0  0  0  0  0  0  0  0  0  0  0  0
   35.6830   30.9560   41.2900 N   0  0  0  0  0  0  0  0  0  0  0  0
   40.1190   30.0980   40.6870 H   0  0  0  0  0  0  0  0  0  0  0  0
   38.6270   33.6060   39.0510 H   0  0  0  0  0  0  0  0  0  0  0  0
   34.9240   30.8070   40.5950 H   0  0  0  0  0  0  0  0  0  0  0  0
   35.4030   30.8370   42.2840 H   0  0  0  0  0  0  0  0  0  0  0  0
   37.7740   29.2000   41.7780 C   0  0  0  0  0  0  0  0  0  0  0  0
   37.7920   27.9280   41.1030 C   0  0  0  0  0  0  0  0  0  0  0  0
   37.9900   27.6940   39.9870 H   0  0  0  0  0  0  0  0  0  0  0  0
   37.4140   26.6760   42.4570 S   0  0  0  0  0  0  0  0  0  0  0  0
   37.3040   28.1190   43.6800 C   0  0  0  0  0  0  0  0  0  0  0  0
   37.0840   28.1820   44.8300 H   0  0  0  0  0  0  0  0  0  0  0  0
   37.5100   29.0410   43.0550 N   0  0  0  0  0  0  0  0  0  0  0  0
  1  2  1  0  0  0  0
  1  7  1  0  0  0  0
  2 12  1  0  0  0  0
  3  8  1  0  0  0  0
  3  2  2  0  0  0  0
  4  3  1  0  0  0  0
  5  4  2  0  0  0  0
  5  6  1  0  0  0  0
  6  1  2  0  0  0  0
  7 11  1  0  0  0  0
  9  5  1  0  0  0  0
 10  7  1  0  0  0  0
 12 18  1  0  0  0  0
 13 12  2  0  0  0  0
 13 15  1  0  0  0  0
 14 13  1  0  0  0  0
 15 16  1  0  0  0  0
 16 17  1  0  0  0  0
 18 16  2  0  0  0  0
M  END
>  <minimizedAffinity>
-4.18759203

$$$$

 OpenBabel03242518053D

 18 19  0  0  0  0  0  0  0  0999 V2000
   35.7170   30.2650   40.1290 C   0  0  0  0  0  0  0  0  0  0  0  0
   36.5950   30.7020   39.1250 C   0  0  0  0  0  0  0  0  0  0  0  0
   36.5560   30.0760   37.8750 C   0  0  0  0  0  0  0  0  0  0  0  0
   35.6570   29.0710   37.7100 N   0  0  0  0  0  0  0  0  0  0  0  0
   34.8320   28.6770   38.6880 C   0  0  0  0  0  0  0  0  0  0  0  0
   34.8650   29.2750   39.8890 N   0  0  0  0  0  0  0  0  0  0  0  0
   35.7630   30.9070   41.3940 N   0  0  0  0  0  0  0  0  0  0  0  0
   37.2010   30.3770   37.1000 H   0  0  0  0  0  0  0  0  0  0  0  0
   34.1710   27.8640   38.4080 H   0  0  0  0  0  0  0  0  0  0  0  0
   36.0260   30.3210   42.2110 H   0  0  0  0  0  0  0  0  0  0  0  0
   35.5660   31.9050   41.6090 H   0  0  0  0  0  0  0  0  0  0  0  0
   37.5090   31.7870   39.4260 C   0  0  0  0  0  0  0  0  0  0  0  0
   38.9250   31.5270   39.4760 C   0  0  0  0  0  0  0  0  0  0  0  0
   39.4930   30.5330   39.3040 H   0  0  0  0  0  0  0  0  0  0  0  0
   39.6920   33.1940   39.8920 S   0  0  0  0  0  0  0  0  0  0  0  0
   37.9440   33.9250   39.9190 C   0  0  0  0  0  0  0  0  0  0  0  0
   37.5280   35.0040   40.1210 H   0  0  0  0  0  0  0  0  0  0  0  0
   37.2650   33.0530   39.6800 N   0  0  0  0  0  0  0  0  0  0  0  0
  1  7  1  0  0  0  0
  2 12  1  0  0  0  0
  2  1  2  0  0  0  0
  3  2  1  0  0  0  0
  4  3  2  0  0  0  0
  4  5  1  0  0  0  0
  5  6  2  0  0  0  0
  6  1  1  0  0  0  0
  7 11  1  0  0  0  0
  7 10  1  0  0  0  0
  8  3  1  0  0  0  0
  9  5  1  0  0  0  0
 12 13  2  0  0  0  0
 12 18  1  0  0  0  0
 13 15  1  0  0  0  0
 14 13  1  0  0  0  0
 15 16  1  0  0  0  0
 16 17  1  0  0  0  0
 18 16  2  0  0  0  0
M  END
>  <minimizedAffinity>
-4.00277328

$$$$

 OpenBabel03242518053D

 18 19  0  0  0  0  0  0  0  0999 V2000
   37.2280   31.8310   40.5070 C   0  0  0  0  0  0  0  0  0  0  0  0
   38.5480   31.3710   40.3740 C   0  0  0  0  0  0  0  0  0  0  0  0
   38.8460   30.0590   40.7560 C   0  0  0  0  0  0  0  0  0  0  0  0
   37.8250   29.3030   41.2370 N   0  0  0  0  0  0  0  0  0  0  0  0
   36.5760   29.7710   41.3500 C   0  0  0  0  0  0  0  0  0  0  0  0
   36.2840   31.0280   40.9860 N   0  0  0  0  0  0  0  0  0  0  0  0
   36.9340   33.1630   40.1170 N   0  0  0  0  0  0  0  0  0  0  0  0
   39.8250   29.6820   40.6710 H   0  0  0  0  0  0  0  0  0  0  0  0
   35.8690   29.0520   41.7500 H   0  0  0  0  0  0  0  0  0  0  0  0
   36.5920   33.8070   40.8580 H   0  0  0  0  0  0  0  0  0  0  0  0
   37.0210   33.5830   39.1700 H   0  0  0  0  0  0  0  0  0  0  0  0
   39.5490   32.2780   39.8470 C   0  0  0  0  0  0  0  0  0  0  0  0
   40.1940   31.9710   38.5960 C   0  0  0  0  0  0  0  0  0  0  0  0
   40.0370   31.0630   37.8950 H   0  0  0  0  0  0  0  0  0  0  0  0
   41.3880   33.3990   38.3230 S   0  0  0  0  0  0  0  0  0  0  0  0
   40.7840   34.1400   39.9590 C   0  0  0  0  0  0  0  0  0  0  0  0
   41.0620   35.1140   40.5510 H   0  0  0  0  0  0  0  0  0  0  0  0
   40.0080   33.4070   40.3360 N   0  0  0  0  0  0  0  0  0  0  0  0
  1  6  1  0  0  0  0
  2  1  2  0  0  0  0
  2  3  1  0  0  0  0
  3  4  2  0  0  0  0
  4  5  1  0  0  0  0
  5  9  1  0  0  0  0
  6  5  2  0  0  0  0
  7  1  1  0  0  0  0
  7 10  1  0  0  0  0
  8  3  1  0  0  0  0
 11  7  1  0  0  0  0
 12 18  1  0  0  0  0
 12  2  1  0  0  0  0
 13 12  2  0  0  0  0
 14 13  1  0  0  0  0
 15 13  1  0  0  0  0
 15 16  1  0  0  0  0
 16 18  2  0  0  0  0
 16 17  1  0  0  0  0
M  END
>  <minimizedAffinity>
-3.71832204

$$$$

 OpenBabel03242518053D

 18 19  0  0  0  0  0  0  0  0999 V2000
   41.1350   32.9970   37.7200 C   0  0  0  0  0  0  0  0  0  0  0  0
   40.8600   33.0920   39.0930 C   0  0  0  0  0  0  0  0  0  0  0  0
   41.8030   33.6960   39.9300 C   0  0  0  0  0  0  0  0  0  0  0  0
   42.9410   34.1610   39.3520 N   0  0  0  0  0  0  0  0  0  0  0  0
   43.1740   34.0560   38.0370 C   0  0  0  0  0  0  0  0  0  0  0  0
   42.2720   33.4770   37.2300 N   0  0  0  0  0  0  0  0  0  0  0  0
   40.1710   32.3830   36.8780 N   0  0  0  0  0  0  0  0  0  0  0  0
   41.6300   33.7830   40.9640 H   0  0  0  0  0  0  0  0  0  0  0  0
   44.1250   34.4730   37.7220 H   0  0  0  0  0  0  0  0  0  0  0  0
   40.4630   31.5180   36.3800 H   0  0  0  0  0  0  0  0  0  0  0  0
   39.1960   32.6920   36.6950 H   0  0  0  0  0  0  0  0  0  0  0  0
   39.6060   32.5560   39.5880 C   0  0  0  0  0  0  0  0  0  0  0  0
   39.6180   31.3770   40.4150 C   0  0  0  0  0  0  0  0  0  0  0  0
   40.5170   30.7430   40.7740 H   0  0  0  0  0  0  0  0  0  0  0  0
   37.8040   31.0640   40.8070 S   0  0  0  0  0  0  0  0  0  0  0  0
   37.3770   32.5940   39.7740 C   0  0  0  0  0  0  0  0  0  0  0  0
   36.3660   33.1220   39.5000 H   0  0  0  0  0  0  0  0  0  0  0  0
   38.3760   32.9800   39.4080 N   0  0  0  0  0  0  0  0  0  0  0  0
  1  2  1  0  0  0  0
  2 12  1  0  0  0  0
  2  3  2  0  0  0  0
  3  8  1  0  0  0  0
  4  3  1  0  0  0  0
  5  4  2  0  0  0  0
  6  1  2  0  0  0  0
  6  5  1  0  0  0  0
  7  1  1  0  0  0  0
  9  5  1  0  0  0  0
 10  7  1  0  0  0  0
 11  7  1  0  0  0  0
 12 13  2  0  0  0  0
 13 14  1  0  0  0  0
 13 15  1  0  0  0  0
 16 15  1  0  0  0  0
 17 16  1  0  0  0  0
 18 12  1  0  0  0  0
 18 16  2  0  0  0  0
M  END
>  <minimizedAffinity>
-3.69558883

$$$$

 OpenBabel03242518053D

 18 19  0  0  0  0  0  0  0  0999 V2000
   37.2460   28.2410   42.7150 C   0  0  0  0  0  0  0  0  0  0  0  0
   37.3770   28.5780   41.3590 C   0  0  0  0  0  0  0  0  0  0  0  0
   37.3100   27.5610   40.4020 C   0  0  0  0  0  0  0  0  0  0  0  0
   37.1170   26.2930   40.8520 N   0  0  0  0  0  0  0  0  0  0  0  0
   36.9940   26.0040   42.1530 C   0  0  0  0  0  0  0  0  0  0  0  0
   37.0580   26.9760   43.0760 N   0  0  0  0  0  0  0  0  0  0  0  0
   37.3150   29.2790   43.6800 N   0  0  0  0  0  0  0  0  0  0  0  0
   37.4050   27.7770   39.3760 H   0  0  0  0  0  0  0  0  0  0  0  0
   36.8450   24.9500   42.3600 H   0  0  0  0  0  0  0  0  0  0  0  0
   38.0930   29.2330   44.3670 H   0  0  0  0  0  0  0  0  0  0  0  0
   36.6770   30.0930   43.7860 H   0  0  0  0  0  0  0  0  0  0  0  0
   37.5800   29.9700   41.0060 C   0  0  0  0  0  0  0  0  0  0  0  0
   36.6000   30.6440   40.1940 C   0  0  0  0  0  0  0  0  0  0  0  0
   35.6140   30.2350   39.7460 H   0  0  0  0  0  0  0  0  0  0  0  0
   37.2750   32.3910   40.0010 S   0  0  0  0  0  0  0  0  0  0  0  0
   38.7570   31.8710   41.0610 C   0  0  0  0  0  0  0  0  0  0  0  0
   39.7130   32.4380   41.4380 H   0  0  0  0  0  0  0  0  0  0  0  0
   38.5620   30.7850   41.3140 N   0  0  0  0  0  0  0  0  0  0  0  0
  1  6  1  0  0  0  0
  1  7  1  0  0  0  0
  2  1  2  0  0  0  0
  3  4  2  0  0  0  0
  3  2  1  0  0  0  0
  4  5  1  0  0  0  0
  5  9  1  0  0  0  0
  5  6  2  0  0  0  0
  7 11  1  0  0  0  0
  7 10  1  0  0  0  0
  8  3  1  0  0  0  0
 12 18  1  0  0  0  0
 12  2  1  0  0  0  0
 13 12  2  0  0  0  0
 14 13  1  0  0  0  0
 15 13  1  0  0  0  0
 15 16  1  0  0  0  0
 16 18  2  0  0  0  0
 16 17  1  0  0  0  0
M  END
>  <minimizedAffinity>
-3.63583207

$$$$

 OpenBabel03242518053D

 18 19  0  0  0  0  0  0  0  0999 V2000
   37.1730   29.2460   42.1370 C   0  0  0  0  0  0  0  0  0  0  0  0
   37.8020   28.2170   41.4200 C   0  0  0  0  0  0  0  0  0  0  0  0
   37.6600   28.1800   40.0290 C   0  0  0  0  0  0  0  0  0  0  0  0
   36.9130   29.1570   39.4530 N   0  0  0  0  0  0  0  0  0  0  0  0
   36.3260   30.1270   40.1650 C   0  0  0  0  0  0  0  0  0  0  0  0
   36.4580   30.1670   41.4990 N   0  0  0  0  0  0  0  0  0  0  0  0
   37.3220   29.2760   43.5480 N   0  0  0  0  0  0  0  0  0  0  0  0
   38.1180   27.4220   39.4600 H   0  0  0  0  0  0  0  0  0  0  0  0
   35.7630   30.8360   39.5670 H   0  0  0  0  0  0  0  0  0  0  0  0
   36.4570   29.1730   44.1160 H   0  0  0  0  0  0  0  0  0  0  0  0
   38.2000   29.3870   44.0930 H   0  0  0  0  0  0  0  0  0  0  0  0
   38.5730   27.2310   42.1530 C   0  0  0  0  0  0  0  0  0  0  0  0
   38.3750   25.8310   41.8790 C   0  0  0  0  0  0  0  0  0  0  0  0
   37.6580   25.3270   41.1230 H   0  0  0  0  0  0  0  0  0  0  0  0
   39.5660   24.9540   43.0440 S   0  0  0  0  0  0  0  0  0  0  0  0
   40.1040   26.6560   43.6790 C   0  0  0  0  0  0  0  0  0  0  0  0
   40.8810   27.0030   44.4870 H   0  0  0  0  0  0  0  0  0  0  0  0
   39.4830   27.3940   43.0860 N   0  0  0  0  0  0  0  0  0  0  0  0
  1  7  1  0  0  0  0
  2  1  2  0  0  0  0
  2 12  1  0  0  0  0
  3  2  1  0  0  0  0
  4  3  2  0  0  0  0
  4  5  1  0  0  0  0
  5  6  2  0  0  0  0
  6  1  1  0  0  0  0
  7 11  1  0  0  0  0
  7 10  1  0  0  0  0
  8  3  1  0  0  0  0
  9  5  1  0  0  0  0
 12 18  1  0  0  0  0
 13 12  2  0  0  0  0
 13 15  1  0  0  0  0
 14 13  1  0  0  0  0
 15 16  1  0  0  0  0
 16 17  1  0  0  0  0
 18 16  2  0  0  0  0
M  END
>  <minimizedAffinity>
-3.6115675

$$$$

 OpenBabel03242518053D

 18 19  0  0  0  0  0  0  0  0999 V2000
   39.1370   32.2660   41.2670 C   0  0  0  0  0  0  0  0  0  0  0  0
   38.1080   31.3820   40.9070 C   0  0  0  0  0  0  0  0  0  0  0  0
   37.1020   31.8320   40.0450 C   0  0  0  0  0  0  0  0  0  0  0  0
   37.1880   33.1140   39.6030 N   0  0  0  0  0  0  0  0  0  0  0  0
   38.1840   33.9330   39.9640 C   0  0  0  0  0  0  0  0  0  0  0  0
   39.1510   33.5070   40.7910 N   0  0  0  0  0  0  0  0  0  0  0  0
   40.1530   31.8020   42.1410 N   0  0  0  0  0  0  0  0  0  0  0  0
   36.3150   31.1960   39.7560 H   0  0  0  0  0  0  0  0  0  0  0  0
   38.1180   34.9260   39.5320 H   0  0  0  0  0  0  0  0  0  0  0  0
   40.2410   32.2820   43.0590 H   0  0  0  0  0  0  0  0  0  0  0  0
   40.8280   31.0290   41.9790 H   0  0  0  0  0  0  0  0  0  0  0  0
   38.1290   30.0360   41.4470 C   0  0  0  0  0  0  0  0  0  0  0  0
   38.3200   28.9200   40.5580 C   0  0  0  0  0  0  0  0  0  0  0  0
   38.4710   28.9150   39.4110 H   0  0  0  0  0  0  0  0  0  0  0  0
   38.2760   27.4130   41.6850 S   0  0  0  0  0  0  0  0  0  0  0  0
   38.0050   28.5870   43.1470 C   0  0  0  0  0  0  0  0  0  0  0  0
   37.8670   28.4160   44.3000 H   0  0  0  0  0  0  0  0  0  0  0  0
   37.9950   29.6210   42.6860 N   0  0  0  0  0  0  0  0  0  0  0  0
  1  7  1  0  0  0  0
  2  1  1  0  0  0  0
  2 12  1  0  0  0  0
  3  2  2  0  0  0  0
  4  5  2  0  0  0  0
  4  3  1  0  0  0  0
  5  6  1  0  0  0  0
  6  1  2  0  0  0  0
  7 10  1  0  0  0  0
  8  3  1  0  0  0  0
  9  5  1  0  0  0  0
 11  7  1  0  0  0  0
 12 18  1  0  0  0  0
 13 12  2  0  0  0  0
 13 15  1  0  0  0  0
 14 13  1  0  0  0  0
 15 16  1  0  0  0  0
 16 17  1  0  0  0  0
 18 16  2  0  0  0  0
M  END
>  <minimizedAffinity>
-3.59763145

$$$$

 OpenBabel03242518053D

 18 19  0  0  0  0  0  0  0  0999 V2000
   37.3950   29.4180   42.2780 C   0  0  0  0  0  0  0  0  0  0  0  0
   38.7200   29.7420   41.9500 C   0  0  0  0  0  0  0  0  0  0  0  0
   39.7560   28.9680   42.4820 C   0  0  0  0  0  0  0  0  0  0  0  0
   39.4070   27.9350   43.2940 N   0  0  0  0  0  0  0  0  0  0  0  0
   38.1320   27.6520   43.5880 C   0  0  0  0  0  0  0  0  0  0  0  0
   37.1350   28.3910   43.0800 N   0  0  0  0  0  0  0  0  0  0  0  0
   36.3510   30.2090   41.7330 N   0  0  0  0  0  0  0  0  0  0  0  0
   40.7610   29.1820   42.2580 H   0  0  0  0  0  0  0  0  0  0  0  0
   38.0100   26.7990   44.2480 H   0  0  0  0  0  0  0  0  0  0  0  0
   35.7520   30.7290   42.4060 H   0  0  0  0  0  0  0  0  0  0  0  0
   36.1060   30.3380   40.7310 H   0  0  0  0  0  0  0  0  0  0  0  0
   38.9620   30.8700   41.0710 C   0  0  0  0  0  0  0  0  0  0  0  0
   39.4500   30.6360   39.7360 C   0  0  0  0  0  0  0  0  0  0  0  0
   39.6970   29.6340   39.2120 H   0  0  0  0  0  0  0  0  0  0  0  0
   39.6080   32.3560   38.9880 S   0  0  0  0  0  0  0  0  0  0  0  0
   38.9830   33.0630   40.6310 C   0  0  0  0  0  0  0  0  0  0  0  0
   38.7810   34.1550   41.0100 H   0  0  0  0  0  0  0  0  0  0  0  0
   38.8060   32.1570   41.2850 N   0  0  0  0  0  0  0  0  0  0  0  0
  1  6  1  0  0  0  0
  2  1  2  0  0  0  0
  2  3  1  0  0  0  0
  3  4  2  0  0  0  0
  4  5  1  0  0  0  0
  5  9  1  0  0  0  0
  6  5  2  0  0  0  0
  7  1  1  0  0  0  0
  7 10  1  0  0  0  0
  8  3  1  0  0  0  0
 11  7  1  0  0  0  0
 12 18  1  0  0  0  0
 12  2  1  0  0  0  0
 13 12  2  0  0  0  0
 14 13  1  0  0  0  0
 15 13  1  0  0  0  0
 15 16  1  0  0  0  0
 16 17  1  0  0  0  0
 16 18  2  0  0  0  0
M  END
>  <minimizedAffinity>
-3.58715296

$$$$

 OpenBabel03242518053D

 18 19  0  0  0  0  0  0  0  0999 V2000
   37.8250   28.0840   42.8010 C   0  0  0  0  0  0  0  0  0  0  0  0
   37.6790   27.5850   41.4980 C   0  0  0  0  0  0  0  0  0  0  0  0
   38.3680   26.4220   41.1390 C   0  0  0  0  0  0  0  0  0  0  0  0
   39.1450   25.8400   42.0890 N   0  0  0  0  0  0  0  0  0  0  0  0
   39.2640   26.3410   43.3250 C   0  0  0  0  0  0  0  0  0  0  0  0
   38.6050   27.4560   43.6750 N   0  0  0  0  0  0  0  0  0  0  0  0
   37.1220   29.2630   43.1570 N   0  0  0  0  0  0  0  0  0  0  0  0
   38.2820   26.0210   40.1700 H   0  0  0  0  0  0  0  0  0  0  0  0
   39.9190   25.7680   43.9740 H   0  0  0  0  0  0  0  0  0  0  0  0
   37.6920   30.0900   43.4250 H   0  0  0  0  0  0  0  0  0  0  0  0
   36.0930   29.4090   43.1810 H   0  0  0  0  0  0  0  0  0  0  0  0
   36.8180   28.2980   40.5740 C   0  0  0  0  0  0  0  0  0  0  0  0
   37.3380   28.7090   39.2950 C   0  0  0  0  0  0  0  0  0  0  0  0
   38.3960   28.5550   38.8510 H   0  0  0  0  0  0  0  0  0  0  0  0
   35.8930   29.5790   38.4610 S   0  0  0  0  0  0  0  0  0  0  0  0
   34.8600   29.2190   40.0080 C   0  0  0  0  0  0  0  0  0  0  0  0
   33.7500   29.4570   40.3060 H   0  0  0  0  0  0  0  0  0  0  0  0
   35.5630   28.6640   40.7000 N   0  0  0  0  0  0  0  0  0  0  0  0
  1  7  1  0  0  0  0
  1  6  1  0  0  0  0
  2  1  2  0  0  0  0
  3  2  1  0  0  0  0
  3  4  2  0  0  0  0
  4  5  1  0  0  0  0
  5  6  2  0  0  0  0
  5  9  1  0  0  0  0
  7 11  1  0  0  0  0
  7 10  1  0  0  0  0
  8  3  1  0  0  0  0
 12 18  1  0  0  0  0
 12  2  1  0  0  0  0
 13 12  2  0  0  0  0
 14 13  1  0  0  0  0
 15 13  1  0  0  0  0
 15 16  1  0  0  0  0
 16 17  1  0  0  0  0
 16 18  2  0  0  0  0
M  END
>  <minimizedAffinity>
-3.57331371

$$$$
