
 OpenBabel03252504423D

 43 46  0  0  0  0  0  0  0  0999 V2000
   46.3500   32.2090   47.8290 C   0  0  0  0  0  0  0  0  0  0  0  0
   45.8820   31.7750   49.0390 C   0  0  0  0  0  0  0  0  0  0  0  0
   46.8900   31.1030   49.6080 N   0  0  0  0  0  0  0  0  0  0  0  0
   47.9680   31.0950   48.8140 C   0  0  0  0  0  0  0  0  0  0  0  0
   47.6100   31.7960   47.6970 N   0  0  0  0  0  0  0  0  0  0  0  0
   49.2510   30.5220   48.9800 N   0  0  0  0  0  0  0  0  0  0  0  0
   50.2800   31.3210   49.6680 C   0  0  0  0  0  0  0  0  0  0  0  0
   50.3830   30.7020   51.0590 C   0  0  0  0  0  0  0  0  0  0  0  0
   50.5020   29.2020   50.9560 C   0  0  0  0  0  0  0  0  0  0  0  0
   50.8750   28.8080   49.5430 C   0  0  0  0  0  0  0  0  0  0  0  0
   49.7970   29.2460   48.5920 C   0  0  0  0  0  0  0  0  0  0  0  0
   44.8970   31.9280   49.4760 H   0  0  0  0  0  0  0  0  0  0  0  0
   46.8700   30.6370   50.5440 H   0  0  0  0  0  0  0  0  0  0  0  0
   51.2430   31.2900   49.1450 H   0  0  0  0  0  0  0  0  0  0  0  0
   49.9550   32.3790   49.7780 H   0  0  0  0  0  0  0  0  0  0  0  0
   49.5720   31.0450   51.7090 H   0  0  0  0  0  0  0  0  0  0  0  0
   51.3250   31.0460   51.5470 H   0  0  0  0  0  0  0  0  0  0  0  0
   49.5680   28.6880   51.2970 H   0  0  0  0  0  0  0  0  0  0  0  0
   51.3170   28.7820   51.6100 H   0  0  0  0  0  0  0  0  0  0  0  0
   51.0210   27.6950   49.5230 H   0  0  0  0  0  0  0  0  0  0  0  0
   51.8510   29.2600   49.3220 H   0  0  0  0  0  0  0  0  0  0  0  0
   50.1440   29.2390   47.5510 H   0  0  0  0  0  0  0  0  0  0  0  0
   48.9620   28.4990   48.7210 H   0  0  0  0  0  0  0  0  0  0  0  0
   45.5920   33.0110   46.8160 C   0  0  0  0  0  0  0  0  0  0  0  0
   45.2680   33.9910   47.2230 H   0  0  0  0  0  0  0  0  0  0  0  0
   44.6530   32.4310   46.6310 H   0  0  0  0  0  0  0  0  0  0  0  0
   45.9500   33.9270   44.5660 C   0  0  0  0  0  3  0  0  0  0  0  0
   46.3880   33.2200   45.5990 C   0  0  0  0  0  3  0  0  0  0  0  0
   46.8490   34.0580   43.4100 C   0  0  0  0  0  0  0  0  0  0  0  0
   46.7120   35.0680   42.4320 C   0  0  0  0  0  0  0  0  0  0  0  0
   47.6030   35.1110   41.3880 C   0  0  0  0  0  0  0  0  0  0  0  0
   48.5850   34.1890   41.3230 N   0  0  0  0  0  0  0  0  0  0  0  0
   48.7020   33.2290   42.2640 C   0  0  0  0  0  0  0  0  0  0  0  0
   47.8630   33.1580   43.2820 N   0  0  0  0  0  0  0  0  0  0  0  0
   45.8990   35.7650   42.5630 H   0  0  0  0  0  0  0  0  0  0  0  0
   47.5160   35.8770   40.6310 H   0  0  0  0  0  0  0  0  0  0  0  0
   49.7500   32.1830   42.2610 C   0  0  0  0  0  0  0  0  0  0  0  0
   51.1080   32.1210   41.6110 C   0  0  0  0  0  0  0  0  0  0  0  0
   51.1760   33.1950   41.0390 H   0  0  0  0  0  0  0  0  0  0  0  0
   51.6080   30.4000   42.2230 S   0  0  0  0  0  0  0  0  0  0  0  0
   49.9830   30.1510   43.1620 C   0  0  0  0  0  0  0  0  0  0  0  0
   50.0660   29.1740   43.6090 H   0  0  0  0  0  0  0  0  0  0  0  0
   49.2590   31.1930   43.0040 N   0  0  0  0  0  0  0  0  0  0  0  0
  1  2  2  0  0  0  0
  2 12  1  0  0  0  0
  2  3  1  0  0  0  0
  3 13  1  0  0  0  0
  4  6  1  0  0  0  0
  4  3  1  0  0  0  0
  5  1  1  0  0  0  0
  5  4  2  0  0  0  0
  6  7  1  0  0  0  0
  7 15  1  0  0  0  0
  7  8  1  0  0  0  0
  8 17  1  0  0  0  0
  8 16  1  0  0  0  0
  9  8  1  0  0  0  0
  9 18  1  0  0  0  0
  9 19  1  0  0  0  0
 10  9  1  0  0  0  0
 11 23  1  0  0  0  0
 11  6  1  0  0  0  0
 11 10  1  0  0  0  0
 14  7  1  0  0  0  0
 20 10  1  0  0  0  0
 21 10  1  0  0  0  0
 22 11  1  0  0  0  0
 24 25  1  0  0  0  0
 24  1  1  0  0  0  0
 26 24  1  0  0  0  0
 27 28  2  0  0  0  0
 28 24  1  0  0  0  0
 29 27  1  0  0  0  0
 30 35  1  0  0  0  0
 30 29  2  0  0  0  0
 31 30  1  0  0  0  0
 32 31  2  0  0  0  0
 32 33  1  0  0  0  0
 33 34  2  0  0  0  0
 34 29  1  0  0  0  0
 36 31  1  0  0  0  0
 37 33  1  0  0  0  0
 37 43  1  0  0  0  0
 38 40  1  0  0  0  0
 38 37  2  0  0  0  0
 39 38  1  0  0  0  0
 40 41  1  0  0  0  0
 41 42  1  0  0  0  0
 43 41  2  0  0  0  0
M  END
>  <minimizedAffinity>
-5.86056519

>  <minimizedRMSD>
0.510214567

$$$$
