
 OpenBabel03252508253D

 39 43  0  0  1  0  0  0  0  0999 V2000
   46.7780   32.2510   45.6290 C   0  0  1  0  0  0  0  0  0  0  0  0
   46.9310   32.7360   47.0090 C   0  0  0  0  0  0  0  0  0  0  0  0
   45.6560   31.9550   46.5020 C   0  0  2  0  0  0  0  0  0  0  0  0
   47.6850   31.5690   45.4570 H   0  0  0  0  0  0  0  0  0  0  0  0
   46.8180   33.8020   47.2610 H   0  0  0  0  0  0  0  0  0  0  0  0
   47.3920   32.1590   47.8220 H   0  0  0  0  0  0  0  0  0  0  0  0
   44.8410   32.7020   46.7470 H   0  0  0  0  0  0  0  0  0  0  0  0
   45.3410   30.6360   47.0580 C   0  0  0  0  0  0  0  0  0  0  0  0
   45.2600   30.2930   48.3710 C   0  0  0  0  0  0  0  0  0  0  0  0
   45.0870   29.0100   48.8690 C   0  0  0  0  0  0  0  0  0  0  0  0
   44.9890   27.9810   47.9110 C   0  0  0  0  0  0  0  0  0  0  0  0
   45.0650   28.3030   46.5610 C   0  0  0  0  0  0  0  0  0  0  0  0
   44.9040   27.2720   45.6550 C   0  0  0  0  0  0  0  0  0  0  0  0
   44.9030   27.5570   44.2970 C   0  0  0  0  0  0  0  0  0  0  0  0
   45.0590   28.8530   43.8470 C   0  0  0  0  0  0  0  0  0  0  0  0
   45.2190   29.8450   44.7910 C   0  0  0  0  0  0  0  0  0  0  0  0
   45.2360   29.6110   46.1520 C   0  0  0  0  0  0  0  0  0  0  0  0
   45.3410   31.1210   49.0720 H   0  0  0  0  0  0  0  0  0  0  0  0
   45.0300   28.8090   49.9320 H   0  0  0  0  0  0  0  0  0  0  0  0
   44.8570   26.9670   48.2560 H   0  0  0  0  0  0  0  0  0  0  0  0
   44.7810   26.2620   46.0360 H   0  0  0  0  0  0  0  0  0  0  0  0
   44.7690   26.6580   43.6730 H   0  0  0  0  0  0  0  0  0  0  0  0
   45.0280   28.8700   42.7840 H   0  0  0  0  0  0  0  0  0  0  0  0
   45.2300   30.7280   44.2200 H   0  0  0  0  0  0  0  0  0  0  0  0
   45.6210   35.1400   43.6520 C   0  0  0  0  0  0  0  0  0  0  0  0
   46.2220   34.9040   42.3710 C   0  0  0  0  0  0  0  0  0  0  0  0
   47.0310   33.7230   42.2400 C   0  0  0  0  0  0  0  0  0  0  0  0
   47.1820   32.9260   43.2890 N   0  0  0  0  0  0  0  0  0  0  0  0
   46.5870   33.1950   44.4950 C   0  0  0  0  0  0  0  0  0  0  0  0
   45.8290   34.2720   44.6640 N   0  0  0  0  0  0  0  0  0  0  0  0
   45.0430   36.0350   43.6420 H   0  0  0  0  0  0  0  0  0  0  0  0
   46.0980   35.5490   41.5300 H   0  0  0  0  0  0  0  0  0  0  0  0
   47.6360   33.4840   40.9400 C   0  0  0  0  0  0  0  0  0  0  0  0
   48.3640   32.2190   40.7420 C   0  0  0  0  0  0  0  0  0  0  0  0
   48.4980   31.4250   41.4890 H   0  0  0  0  0  0  0  0  0  0  0  0
   48.9420   32.3830   38.9560 S   0  0  0  0  0  0  0  0  0  0  0  0
   48.1080   34.0810   38.8370 C   0  0  0  0  0  0  0  0  0  0  0  0
   48.0680   34.7910   37.9570 H   0  0  0  0  0  0  0  0  0  0  0  0
   47.6200   34.2830   39.8720 N   0  0  0  0  0  0  0  0  0  0  0  0
  1  4  1  6  0  0  0
  1  3  1  0  0  0  0
  1  2  1  0  0  0  0
  2  5  1  0  0  0  0
  2  6  1  0  0  0  0
  3  7  1  6  0  0  0
  3  2  1  0  0  0  0
  3  8  1  0  0  0  0
  8  9  1  0  0  0  0
  9 10  2  0  0  0  0
  9 18  1  0  0  0  0
 10 19  1  0  0  0  0
 11 20  1  0  0  0  0
 11 10  1  0  0  0  0
 12 11  2  0  0  0  0
 13 21  1  0  0  0  0
 13 12  1  0  0  0  0
 14 13  2  0  0  0  0
 15 14  1  0  0  0  0
 15 16  2  0  0  0  0
 16 17  1  0  0  0  0
 17 12  1  0  0  0  0
 17  8  2  0  0  0  0
 22 14  1  0  0  0  0
 23 15  1  0  0  0  0
 24 16  1  0  0  0  0
 25 30  1  0  0  0  0
 26 25  2  0  0  0  0
 27 26  1  0  0  0  0
 27 28  2  0  0  0  0
 28 29  1  0  0  0  0
 29 30  2  0  0  0  0
 29  1  1  0  0  0  0
 31 25  1  0  0  0  0
 32 26  1  0  0  0  0
 33 27  1  0  0  0  0
 34 33  2  0  0  0  0
 34 35  1  0  0  0  0
 36 34  1  0  0  0  0
 37 36  1  0  0  0  0
 37 39  2  0  0  0  0
 38 37  1  0  0  0  0
 39 33  1  0  0  0  0
M  END
>  <minimizedAffinity>
-4.6736064

>  <minimizedRMSD>
1.45638597

$$$$
