
 OpenBabel03252506563D

 36 40  0  0  0  0  0  0  0  0999 V2000
   47.2330   31.3890   45.1500 C   0  0  0  0  0  0  0  0  0  0  0  0
   46.8700   32.7240   45.1300 C   0  0  0  0  0  0  0  0  0  0  0  0
   46.2570   33.3410   46.1930 C   0  0  0  0  0  0  0  0  0  0  0  0
   45.9760   32.6330   47.3490 C   0  0  0  0  0  0  0  0  0  0  0  0
   45.4000   32.8980   48.5570 N   0  0  0  0  0  0  0  0  0  0  0  0
   45.4080   31.7580   49.3020 C   0  0  0  0  0  0  0  0  0  0  0  0
   45.9900   30.8060   48.5390 N   0  0  0  0  0  0  0  0  0  0  0  0
   46.3460   31.3110   47.3420 C   0  0  0  0  0  0  0  0  0  0  0  0
   46.9540   30.6540   46.3170 C   0  0  0  0  0  0  0  0  0  0  0  0
   47.7150   30.9110   44.3070 H   0  0  0  0  0  0  0  0  0  0  0  0
   45.9780   34.3880   46.1650 H   0  0  0  0  0  0  0  0  0  0  0  0
   45.0290   33.8460   48.8160 H   0  0  0  0  0  0  0  0  0  0  0  0
   45.0100   31.6750   50.3180 H   0  0  0  0  0  0  0  0  0  0  0  0
   46.5250   35.1760   42.4080 C   0  0  0  0  0  0  0  0  0  0  0  0
   47.6920   34.9960   41.6810 C   0  0  0  0  0  0  0  0  0  0  0  0
   48.6000   34.0280   42.1270 C   0  0  0  0  0  0  0  0  0  0  0  0
   48.2940   33.3150   43.2520 N   0  0  0  0  0  0  0  0  0  0  0  0
   47.1440   33.5180   43.9350 C   0  0  0  0  0  0  0  0  0  0  0  0
   46.2630   34.4420   43.5180 N   0  0  0  0  0  0  0  0  0  0  0  0
   45.8040   35.9230   42.0780 H   0  0  0  0  0  0  0  0  0  0  0  0
   47.8790   35.5960   40.7930 H   0  0  0  0  0  0  0  0  0  0  0  0
   49.5230   33.8620   41.5830 H   0  0  0  0  0  0  0  0  0  0  0  0
   47.3110   29.2370   46.4100 C   0  0  0  0  0  0  0  0  0  0  0  0
   48.5930   28.7530   46.4700 C   0  0  0  0  0  0  0  0  0  0  0  0
   48.4110   27.3620   46.5460 C   0  0  0  0  0  0  0  0  0  0  0  0
   47.0480   27.0830   46.5280 C   0  0  0  0  0  0  0  0  0  0  0  0
   46.4640   28.2580   46.4440 O   0  0  0  0  0  0  0  0  0  0  0  0
   49.5030   29.3020   46.4610 H   0  0  0  0  0  0  0  0  0  0  0  0
   49.2050   26.6370   46.6090 H   0  0  0  0  0  0  0  0  0  0  0  0
   46.3910   25.7610   46.5890 C   0  0  0  0  0  0  0  0  0  0  0  0
   44.8970   25.7150   46.5920 C   0  0  0  0  0  0  0  0  0  0  0  0
   44.2670   26.5370   46.5560 H   0  0  0  0  0  0  0  0  0  0  0  0
   44.6890   23.8390   46.6770 S   0  0  0  0  0  0  0  0  0  0  0  0
   46.5590   23.5310   46.6890 C   0  0  0  0  0  0  0  0  0  0  0  0
   46.9650   22.5330   46.7350 H   0  0  0  0  0  0  0  0  0  0  0  0
   47.0740   24.6380   46.6390 N   0  0  0  0  0  0  0  0  0  0  0  0
  1  9  1  0  0  0  0
  2  1  2  0  0  0  0
  2  3  1  0  0  0  0
  3  4  2  0  0  0  0
  4  5  1  0  0  0  0
  5 12  1  0  0  0  0
  5  6  1  0  0  0  0
  6 13  1  0  0  0  0
  7  6  2  0  0  0  0
  8  4  1  0  0  0  0
  8  7  1  0  0  0  0
  9 23  1  0  0  0  0
  9  8  2  0  0  0  0
 10  1  1  0  0  0  0
 11  3  1  0  0  0  0
 14 19  1  0  0  0  0
 15 16  1  0  0  0  0
 15 14  2  0  0  0  0
 16 17  2  0  0  0  0
 17 18  1  0  0  0  0
 18  2  1  0  0  0  0
 19 18  2  0  0  0  0
 20 14  1  0  0  0  0
 21 15  1  0  0  0  0
 22 16  1  0  0  0  0
 23 27  1  0  0  0  0
 23 24  2  0  0  0  0
 24 25  1  0  0  0  0
 25 29  1  0  0  0  0
 26 25  2  0  0  0  0
 26 30  1  0  0  0  0
 27 26  1  0  0  0  0
 28 24  1  0  0  0  0
 30 31  2  0  0  0  0
 30 36  1  0  0  0  0
 31 33  1  0  0  0  0
 32 31  1  0  0  0  0
 33 34  1  0  0  0  0
 34 35  1  0  0  0  0
 36 34  2  0  0  0  0
M  END
>  <minimizedAffinity>
-5.37891436

>  <minimizedRMSD>
0.207107127

$$$$
