
     RDKit          3D

 36 38  0  0  0  0  0  0  0  0999 V2000
   44.7666   34.4874   40.4576 C   0  0  0  0  0  0  0  0  0  0  0  0
   45.9222   34.1204   41.0042 N   0  0  0  0  0  0  0  0  0  0  0  0
   46.8385   33.1338   40.5609 C   0  0  0  0  0  0  0  0  0  0  0  0
   47.9036   34.0707   39.9335 C   0  0  0  0  0  0  0  0  0  0  0  0
   48.5094   34.9839   40.9038 C   0  0  0  0  0  0  0  0  0  0  0  0
   47.7599   35.3118   42.1139 C   0  0  0  0  0  0  0  0  0  0  0  0
   46.3238   34.8702   42.2035 C   0  0  0  0  0  0  0  0  0  0  0  0
   45.3011   35.2766   43.5799 S   0  0  0  0  0  0  0  0  0  0  0  0
   43.6387   33.5505   40.7760 C   0  0  0  0  0  0  0  0  0  0  0  0
   42.3753   34.3000   40.5455 C   0  0  0  0  0  0  0  0  0  0  0  0
   41.6286   34.1201   39.3990 C   0  0  0  0  0  0  0  0  0  0  0  0
   40.4505   34.8786   39.2568 C   0  0  0  0  0  0  0  0  0  0  0  0
   40.1178   35.7445   40.2586 N   0  0  0  0  0  0  0  0  0  0  0  0
   40.8806   35.8747   41.3443 C   0  0  0  0  0  0  0  0  0  0  0  0
   41.9876   35.1578   41.4715 N   0  0  0  0  0  0  0  0  0  0  0  0
   44.3629   35.5300   40.6752 H   0  0  0  0  0  0  0  0  0  0  0  0
   44.8317   34.5082   39.3501 H   0  0  0  0  0  0  0  0  0  0  0  0
   46.4457   32.5172   39.7398 H   0  0  0  0  0  0  0  0  0  0  0  0
   47.3305   32.4884   41.2607 H   0  0  0  0  0  0  0  0  0  0  0  0
   47.3450   34.6415   39.1532 H   0  0  0  0  0  0  0  0  0  0  0  0
   48.6987   33.4308   39.4558 H   0  0  0  0  0  0  0  0  0  0  0  0
   49.4851   34.5363   41.2566 H   0  0  0  0  0  0  0  0  0  0  0  0
   48.8086   35.9303   40.3771 H   0  0  0  0  0  0  0  0  0  0  0  0
   48.1038   35.8560   42.9569 H   0  0  0  0  0  0  0  0  0  0  0  0
   44.8799   36.6085   43.5297 H   0  0  0  0  0  0  0  0  0  0  0  0
   43.6950   32.6504   40.1182 H   0  0  0  0  0  0  0  0  0  0  0  0
   43.6373   33.2181   41.8407 H   0  0  0  0  0  0  0  0  0  0  0  0
   41.9315   33.4215   38.6304 H   0  0  0  0  0  0  0  0  0  0  0  0
   39.8468   34.7532   38.3620 H   0  0  0  0  0  0  0  0  0  0  0  0
   40.3982   36.8450   42.3408 C   0  0  0  0  0  0  0  0  0  0  0  0
   40.9641   36.5971   43.5900 C   0  0  0  0  0  0  0  0  0  0  0  0
   41.6610   35.8984   44.0598 H   0  0  0  0  0  0  0  0  0  0  0  0
   40.2291   37.9178   44.6802 S   0  0  0  0  0  0  0  0  0  0  0  0
   39.2548   38.5785   43.1650 C   0  0  0  0  0  0  0  0  0  0  0  0
   38.4659   39.4126   42.7500 H   0  0  0  0  0  0  0  0  0  0  0  0
   39.5763   37.8757   42.3482 N   0  0  0  0  0  0  0  0  0  0  0  0
  1  9  1  0
  1  2  1  0
  2  7  1  0
  3  2  1  0
  4  3  1  0
  4  5  1  0
  5  6  1  0
  6  7  2  0
  7  8  1  0
 10  9  1  0
 10 15  1  0
 11 10  2  0
 12 11  1  0
 12 13  2  0
 13 14  1  0
 14 15  2  0
  1 16  1  0
  1 17  1  0
  3 18  1  0
  3 19  1  0
  4 20  1  0
  4 21  1  0
  5 22  1  0
  5 23  1  0
  6 24  1  0
  8 25  1  0
  9 26  1  0
  9 27  1  0
 11 28  1  0
 12 29  1  0
 30 31  2  0
 31 32  1  0
 31 33  1  0
 33 34  1  0
 34 35  1  0
 34 36  2  0
 36 30  1  0
 14 30  1  0
M  ISO  8  16   8  17   8  18  13  19  13  20  13  21  13  22  13  23  13
M  ISO  8  24  13  25  11  26   8  27   8  28  14  29  14  32  15  35  16
M  END
>  <DihAtoms>  (1) 
12,13,29,30

>  <DihDeg>  (1) 
84.77239208585226

$$$$
