
 OpenBabel03252507023D

 36 38  0  0  0  0  0  0  0  0999 V2000
   44.9500   33.2210   39.2330 C   0  0  0  0  0  0  0  0  0  0  0  0
   44.5610   34.1520   39.7610 H   0  0  0  0  0  0  0  0  0  0  0  0
   44.4510   33.3090   38.2460 H   0  0  0  0  0  0  0  0  0  0  0  0
   46.2630   33.0610   39.0990 N   0  0  0  0  0  0  0  0  0  0  0  0
   46.9680   32.2220   38.2000 C   0  0  0  0  0  0  0  0  0  0  0  0
   47.4080   33.2980   37.1740 C   0  0  0  0  0  0  0  0  0  0  0  0
   48.2730   34.3260   37.7540 C   0  0  0  0  0  0  0  0  0  0  0  0
   48.2010   34.5670   39.1920 C   0  0  0  0  0  0  0  0  0  0  0  0
   47.0970   33.9030   39.9700 C   0  0  0  0  0  0  0  0  0  0  0  0
   46.3130   31.5250   37.6580 H   0  0  0  0  0  0  0  0  0  0  0  0
   47.8390   31.6850   38.5180 H   0  0  0  0  0  0  0  0  0  0  0  0
   46.4500   33.7470   36.8150 H   0  0  0  0  0  0  0  0  0  0  0  0
   47.9380   32.7790   36.3250 H   0  0  0  0  0  0  0  0  0  0  0  0
   49.3480   34.0520   37.5400 H   0  0  0  0  0  0  0  0  0  0  0  0
   48.1140   35.2910   37.2010 H   0  0  0  0  0  0  0  0  0  0  0  0
   48.8370   35.1850   39.7740 H   0  0  0  0  0  0  0  0  0  0  0  0
   46.8660   34.1820   41.6950 S   0  0  0  0  0  0  0  0  0  0  0  0
   46.2790   35.4260   41.9390 H   0  0  0  0  0  0  0  0  0  0  0  0
   44.2820   32.0660   39.9200 C   0  0  0  0  0  0  0  0  0  0  0  0
   45.0220   31.2510   40.1020 H   0  0  0  0  0  0  0  0  0  0  0  0
   43.8130   32.3500   40.8910 H   0  0  0  0  0  0  0  0  0  0  0  0
   43.1900   31.6020   39.0220 C   0  0  0  0  0  0  0  0  0  0  0  0
   43.3840   31.4610   37.6630 C   0  0  0  0  0  0  0  0  0  0  0  0
   42.2930   31.0260   36.8860 C   0  0  0  0  0  0  0  0  0  0  0  0
   41.1110   30.7710   37.5210 N   0  0  0  0  0  0  0  0  0  0  0  0
   40.9850   30.9260   38.8390 C   0  0  0  0  0  0  0  0  0  0  0  0
   42.0160   31.3350   39.5640 N   0  0  0  0  0  0  0  0  0  0  0  0
   44.3390   31.6760   37.2020 H   0  0  0  0  0  0  0  0  0  0  0  0
   42.4240   30.9080   35.8130 H   0  0  0  0  0  0  0  0  0  0  0  0
   39.6540   30.6120   39.3850 C   0  0  0  0  0  0  0  0  0  0  0  0
   39.4780   31.2060   40.6340 C   0  0  0  0  0  0  0  0  0  0  0  0
   40.0290   31.8360   41.3370 H   0  0  0  0  0  0  0  0  0  0  0  0
   37.7580   30.6890   41.1310 S   0  0  0  0  0  0  0  0  0  0  0  0
   37.6060   29.7280   39.4780 C   0  0  0  0  0  0  0  0  0  0  0  0
   36.8980   29.0250   38.7730 H   0  0  0  0  0  0  0  0  0  0  0  0
   38.6020   29.9210   38.9940 N   0  0  0  0  0  0  0  0  0  0  0  0
  1  2  1  0  0  0  0
  1 19  1  0  0  0  0
  3  1  1  0  0  0  0
  4  1  1  0  0  0  0
  4  9  1  0  0  0  0
  5 11  1  0  0  0  0
  5  4  1  0  0  0  0
  6  7  1  0  0  0  0
  6  5  1  0  0  0  0
  7  8  1  0  0  0  0
  8 16  1  0  0  0  0
  8  9  2  0  0  0  0
  9 17  1  0  0  0  0
 10  5  1  0  0  0  0
 12  6  1  0  0  0  0
 13  6  1  0  0  0  0
 14  7  1  0  0  0  0
 15  7  1  0  0  0  0
 17 18  1  0  0  0  0
 19 20  1  0  0  0  0
 19 21  1  0  0  0  0
 22 27  1  0  0  0  0
 22 19  1  0  0  0  0
 23 22  2  0  0  0  0
 24 25  2  0  0  0  0
 24 23  1  0  0  0  0
 25 26  1  0  0  0  0
 26 30  1  0  0  0  0
 26 27  2  0  0  0  0
 28 23  1  0  0  0  0
 29 24  1  0  0  0  0
 30 31  2  0  0  0  0
 31 33  1  0  0  0  0
 31 32  1  0  0  0  0
 34 33  1  0  0  0  0
 35 34  1  0  0  0  0
 36 30  1  0  0  0  0
 36 34  2  0  0  0  0
M  END
>  <minimizedAffinity>
-3.33494234

>  <minimizedRMSD>
5.09135151

$$$$
