
 OpenBabel03252509113D

 29 32  0  0  0  0  0  0  0  0999 V2000
   45.4680   30.1230   44.4330 C   0  0  0  0  0  0  0  0  0  0  0  0
   45.3910   31.3940   43.8840 C   0  0  0  0  0  0  0  0  0  0  0  0
   45.8490   32.5100   44.5460 C   0  0  0  0  0  0  0  0  0  0  0  0
   46.4180   32.3960   45.8140 C   0  0  0  0  0  0  0  0  0  0  0  0
   46.9540   33.2510   46.7220 N   0  0  0  0  0  0  0  0  0  0  0  0
   47.3550   32.5430   47.8050 C   0  0  0  0  0  0  0  0  0  0  0  0
   47.0560   31.2380   47.5440 N   0  0  0  0  0  0  0  0  0  0  0  0
   46.4820   31.1280   46.3340 C   0  0  0  0  0  0  0  0  0  0  0  0
   46.0370   29.9910   45.7060 C   0  0  0  0  0  0  0  0  0  0  0  0
   45.0890   29.2790   43.8590 H   0  0  0  0  0  0  0  0  0  0  0  0
   47.0110   34.2790   46.5380 H   0  0  0  0  0  0  0  0  0  0  0  0
   47.8110   33.0440   48.6460 H   0  0  0  0  0  0  0  0  0  0  0  0
   46.0990   28.9990   46.1350 H   0  0  0  0  0  0  0  0  0  0  0  0
   42.9300   32.0230   41.2310 C   0  0  0  0  0  0  0  0  0  0  0  0
   43.7070   31.8470   40.0630 C   0  0  0  0  0  0  0  0  0  0  0  0
   45.0760   31.5110   40.1950 C   0  0  0  0  0  0  0  0  0  0  0  0
   45.5540   31.3800   41.4720 N   0  0  0  0  0  0  0  0  0  0  0  0
   44.8050   31.5510   42.5640 C   0  0  0  0  0  0  0  0  0  0  0  0
   43.4990   31.8710   42.4420 N   0  0  0  0  0  0  0  0  0  0  0  0
   41.8820   32.2800   41.1770 H   0  0  0  0  0  0  0  0  0  0  0  0
   43.2560   31.9680   39.0920 H   0  0  0  0  0  0  0  0  0  0  0  0
   45.6900   31.3710   39.3320 H   0  0  0  0  0  0  0  0  0  0  0  0
   45.7740   33.8640   43.9800 C   0  0  0  0  0  0  0  0  0  0  0  0
   44.7790   34.7950   44.2880 C   0  0  0  0  0  0  0  0  0  0  0  0
   43.9790   34.5640   44.9870 H   0  0  0  0  0  0  0  0  0  0  0  0
   45.2320   36.2320   43.2910 S   0  0  0  0  0  0  0  0  0  0  0  0
   46.7580   35.3040   42.5880 C   0  0  0  0  0  0  0  0  0  0  0  0
   47.5670   35.6490   41.8300 H   0  0  0  0  0  0  0  0  0  0  0  0
   46.7370   34.1510   43.1340 N   0  0  0  0  0  0  0  0  0  0  0  0
  1  9  1  0  0  0  0
  2  1  2  0  0  0  0
  2  3  1  0  0  0  0
  3  4  2  0  0  0  0
  4  8  1  0  0  0  0
  4  5  1  0  0  0  0
  5  6  1  0  0  0  0
  6 12  1  0  0  0  0
  7  6  2  0  0  0  0
  8  7  1  0  0  0  0
  9 13  1  0  0  0  0
  9  8  2  0  0  0  0
 10  1  1  0  0  0  0
 11  5  1  0  0  0  0
 14 19  1  0  0  0  0
 15 16  1  0  0  0  0
 15 14  2  0  0  0  0
 16 17  2  0  0  0  0
 17 18  1  0  0  0  0
 18  2  1  0  0  0  0
 19 18  2  0  0  0  0
 20 14  1  0  0  0  0
 21 15  1  0  0  0  0
 22 16  1  0  0  0  0
 23 24  2  0  0  0  0
 23  3  1  0  0  0  0
 24 25  1  0  0  0  0
 26 24  1  0  0  0  0
 27 29  2  0  0  0  0
 27 26  1  0  0  0  0
 28 27  1  0  0  0  0
 29 23  1  0  0  0  0
M  END
>  <minimizedAffinity>
-4.25982285

>  <minimizedRMSD>
3.11313558

$$$$
