
 OpenBabel03252506113D

 28 30  0  0  0  0  0  0  0  0999 V2000
   40.4180   30.6020   41.0270 F   0  0  0  0  0  0  0  0  0  0  0  0
   39.2800   31.1890   40.6870 C   0  0  0  0  0  0  0  0  0  0  0  0
   39.3200   32.4050   40.0190 C   0  0  0  0  0  0  0  0  0  0  0  0
   38.1840   33.0830   39.6310 C   0  0  0  0  0  0  0  0  0  0  0  0
   36.9340   32.5570   39.9040 C   0  0  0  0  0  0  0  0  0  0  0  0
   36.9420   31.3450   40.5710 C   0  0  0  0  0  0  0  0  0  0  0  0
   38.0650   30.6320   40.9780 C   0  0  0  0  0  0  0  0  0  0  0  0
   38.2110   34.0300   39.1100 H   0  0  0  0  0  0  0  0  0  0  0  0
   36.0080   33.0300   39.6320 H   0  0  0  0  0  0  0  0  0  0  0  0
   35.9400   30.9400   40.7810 H   0  0  0  0  0  0  0  0  0  0  0  0
   42.1320   33.8250   38.1030 C   0  0  0  0  0  0  0  0  0  0  0  0
   43.0460   34.1410   39.1360 C   0  0  0  0  0  0  0  0  0  0  0  0
   42.6960   33.8690   40.4650 C   0  0  0  0  0  0  0  0  0  0  0  0
   41.4700   33.3050   40.6750 N   0  0  0  0  0  0  0  0  0  0  0  0
   40.6210   33.0110   39.7000 C   0  0  0  0  0  0  0  0  0  0  0  0
   40.9590   33.2750   38.4250 N   0  0  0  0  0  0  0  0  0  0  0  0
   44.0020   34.5850   38.9260 H   0  0  0  0  0  0  0  0  0  0  0  0
   43.3590   34.0910   41.2910 H   0  0  0  0  0  0  0  0  0  0  0  0
   42.4930   34.1040   36.7670 N   0  0  0  0  0  0  0  0  0  0  0  0
   43.2520   34.7880   36.5690 H   0  0  0  0  0  0  0  0  0  0  0  0
   42.0030   33.6300   35.9750 H   0  0  0  0  0  0  0  0  0  0  0  0
   37.9100   29.3480   41.6820 C   0  0  0  0  0  0  0  0  0  0  0  0
   37.9360   28.1180   40.9610 C   0  0  0  0  0  0  0  0  0  0  0  0
   38.0400   27.8130   40.0130 H   0  0  0  0  0  0  0  0  0  0  0  0
   37.7030   26.8840   42.2950 S   0  0  0  0  0  0  0  0  0  0  0  0
   37.6080   28.2560   43.6150 C   0  0  0  0  0  0  0  0  0  0  0  0
   37.4670   28.1390   44.6890 H   0  0  0  0  0  0  0  0  0  0  0  0
   37.7390   29.2930   43.0080 N   0  0  0  0  0  0  0  0  0  0  0  0
  2  7  1  0  0  0  0
  2  1  1  0  0  0  0
  3  2  2  0  0  0  0
  4  5  2  0  0  0  0
  4  3  1  0  0  0  0
  5  6  1  0  0  0  0
  6 10  1  0  0  0  0
  6  7  2  0  0  0  0
  7 22  1  0  0  0  0
  8  4  1  0  0  0  0
  9  5  1  0  0  0  0
 11 16  2  0  0  0  0
 11 12  1  0  0  0  0
 12 13  2  0  0  0  0
 13 14  1  0  0  0  0
 13 18  1  0  0  0  0
 15  3  1  0  0  0  0
 15 14  2  0  0  0  0
 16 15  1  0  0  0  0
 17 12  1  0  0  0  0
 19 11  1  0  0  0  0
 20 19  1  0  0  0  0
 21 19  1  0  0  0  0
 22 28  1  0  0  0  0
 23 22  2  0  0  0  0
 23 25  1  0  0  0  0
 24 23  1  0  0  0  0
 25 26  1  0  0  0  0
 26 27  1  0  0  0  0
 28 26  2  0  0  0  0
M  END
>  <minimizedAffinity>
-5.49333286

$$$$

 OpenBabel03252506113D

 28 30  0  0  0  0  0  0  0  0999 V2000
   38.1930   28.2060   39.7380 F   0  0  0  0  0  0  0  0  0  0  0  0
   37.7970   28.0020   40.9850 C   0  0  0  0  0  0  0  0  0  0  0  0
   37.8310   29.0570   41.8870 C   0  0  0  0  0  0  0  0  0  0  0  0
   37.4390   28.9300   43.2020 C   0  0  0  0  0  0  0  0  0  0  0  0
   36.9860   27.7120   43.6770 C   0  0  0  0  0  0  0  0  0  0  0  0
   36.9680   26.6910   42.7450 C   0  0  0  0  0  0  0  0  0  0  0  0
   37.3550   26.7790   41.4120 C   0  0  0  0  0  0  0  0  0  0  0  0
   37.4650   29.7500   43.9070 H   0  0  0  0  0  0  0  0  0  0  0  0
   36.6650   27.5410   44.6890 H   0  0  0  0  0  0  0  0  0  0  0  0
   36.6050   25.7280   43.1380 H   0  0  0  0  0  0  0  0  0  0  0  0
   37.8430   32.4680   40.4860 C   0  0  0  0  0  0  0  0  0  0  0  0
   39.2070   32.8210   40.6140 C   0  0  0  0  0  0  0  0  0  0  0  0
   40.1020   31.8990   41.1720 C   0  0  0  0  0  0  0  0  0  0  0  0
   39.5830   30.6970   41.5620 N   0  0  0  0  0  0  0  0  0  0  0  0
   38.3030   30.3750   41.4380 C   0  0  0  0  0  0  0  0  0  0  0  0
   37.4460   31.2640   40.9030 N   0  0  0  0  0  0  0  0  0  0  0  0
   39.5740   33.7790   40.2930 H   0  0  0  0  0  0  0  0  0  0  0  0
   41.1540   32.1190   41.2910 H   0  0  0  0  0  0  0  0  0  0  0  0
   36.9480   33.4040   39.9240 N   0  0  0  0  0  0  0  0  0  0  0  0
   37.2080   34.4110   39.8900 H   0  0  0  0  0  0  0  0  0  0  0  0
   36.0270   33.0940   39.5420 H   0  0  0  0  0  0  0  0  0  0  0  0
   37.2780   25.5960   40.5390 C   0  0  0  0  0  0  0  0  0  0  0  0
   38.1590   24.4930   40.7330 C   0  0  0  0  0  0  0  0  0  0  0  0
   38.9050   24.2360   41.3510 H   0  0  0  0  0  0  0  0  0  0  0  0
   37.6350   23.3420   39.4080 S   0  0  0  0  0  0  0  0  0  0  0  0
   36.2980   24.5620   38.8090 C   0  0  0  0  0  0  0  0  0  0  0  0
   35.6000   24.4320   37.9840 H   0  0  0  0  0  0  0  0  0  0  0  0
   36.3860   25.5180   39.5430 N   0  0  0  0  0  0  0  0  0  0  0  0
  1  2  1  0  0  0  0
  2  7  2  0  0  0  0
  2  3  1  0  0  0  0
  3  4  2  0  0  0  0
  4  5  1  0  0  0  0
  4  8  1  0  0  0  0
  5  9  1  0  0  0  0
  6 10  1  0  0  0  0
  6  5  2  0  0  0  0
  7  6  1  0  0  0  0
 11 12  2  0  0  0  0
 11 16  1  0  0  0  0
 12 13  1  0  0  0  0
 13 18  1  0  0  0  0
 13 14  2  0  0  0  0
 15 14  1  0  0  0  0
 15  3  1  0  0  0  0
 16 15  2  0  0  0  0
 17 12  1  0  0  0  0
 19 11  1  0  0  0  0
 20 19  1  0  0  0  0
 21 19  1  0  0  0  0
 22 23  2  0  0  0  0
 22  7  1  0  0  0  0
 23 24  1  0  0  0  0
 25 23  1  0  0  0  0
 26 25  1  0  0  0  0
 26 28  2  0  0  0  0
 27 26  1  0  0  0  0
 28 22  1  0  0  0  0
M  END
>  <minimizedAffinity>
-5.43662357

$$$$

 OpenBabel03252506113D

 28 30  0  0  0  0  0  0  0  0999 V2000
   37.5650   27.9290   39.5620 F   0  0  0  0  0  0  0  0  0  0  0  0
   37.4180   27.9250   40.8780 C   0  0  0  0  0  0  0  0  0  0  0  0
   37.1440   26.7280   41.5240 C   0  0  0  0  0  0  0  0  0  0  0  0
   36.9740   26.6360   42.8890 C   0  0  0  0  0  0  0  0  0  0  0  0
   37.0770   27.7670   43.6800 C   0  0  0  0  0  0  0  0  0  0  0  0
   37.3510   28.9370   42.9940 C   0  0  0  0  0  0  0  0  0  0  0  0
   37.5280   29.0690   41.6210 C   0  0  0  0  0  0  0  0  0  0  0  0
   36.7610   25.7050   43.3960 H   0  0  0  0  0  0  0  0  0  0  0  0
   36.9570   27.7700   44.7480 H   0  0  0  0  0  0  0  0  0  0  0  0
   37.4290   29.8280   43.6360 H   0  0  0  0  0  0  0  0  0  0  0  0
   37.5720   23.2330   40.4290 C   0  0  0  0  0  0  0  0  0  0  0  0
   36.7870   23.2080   39.2520 C   0  0  0  0  0  0  0  0  0  0  0  0
   36.1250   24.3740   38.8480 C   0  0  0  0  0  0  0  0  0  0  0  0
   36.2870   25.4780   39.6350 N   0  0  0  0  0  0  0  0  0  0  0  0
   37.0260   25.4920   40.7370 C   0  0  0  0  0  0  0  0  0  0  0  0
   37.6590   24.3700   41.1220 N   0  0  0  0  0  0  0  0  0  0  0  0
   36.6860   22.3160   38.6600 H   0  0  0  0  0  0  0  0  0  0  0  0
   35.5130   24.4080   37.9560 H   0  0  0  0  0  0  0  0  0  0  0  0
   38.2350   22.0530   40.8290 N   0  0  0  0  0  0  0  0  0  0  0  0
   37.9190   21.1320   40.4600 H   0  0  0  0  0  0  0  0  0  0  0  0
   39.0400   22.0960   41.4940 H   0  0  0  0  0  0  0  0  0  0  0  0
   37.8170   30.3890   41.0360 C   0  0  0  0  0  0  0  0  0  0  0  0
   36.7570   31.2720   40.6780 C   0  0  0  0  0  0  0  0  0  0  0  0
   35.7550   31.2800   40.7020 H   0  0  0  0  0  0  0  0  0  0  0  0
   37.6650   32.7200   40.0210 S   0  0  0  0  0  0  0  0  0  0  0  0
   39.3440   31.8770   40.3440 C   0  0  0  0  0  0  0  0  0  0  0  0
   40.3380   32.2740   40.1450 H   0  0  0  0  0  0  0  0  0  0  0  0
   39.0740   30.8000   40.8230 N   0  0  0  0  0  0  0  0  0  0  0  0
  1  2  1  0  0  0  0
  2  3  2  0  0  0  0
  2  7  1  0  0  0  0
  3  4  1  0  0  0  0
  4  8  1  0  0  0  0
  4  5  2  0  0  0  0
  5  9  1  0  0  0  0
  6 10  1  0  0  0  0
  6  5  1  0  0  0  0
  7  6  2  0  0  0  0
 11 19  1  0  0  0  0
 11 16  1  0  0  0  0
 12 11  2  0  0  0  0
 13 12  1  0  0  0  0
 13 14  2  0  0  0  0
 14 15  1  0  0  0  0
 15 16  2  0  0  0  0
 15  3  1  0  0  0  0
 17 12  1  0  0  0  0
 18 13  1  0  0  0  0
 19 21  1  0  0  0  0
 20 19  1  0  0  0  0
 22  7  1  0  0  0  0
 23 24  1  0  0  0  0
 23 22  2  0  0  0  0
 25 26  1  0  0  0  0
 25 23  1  0  0  0  0
 26 28  2  0  0  0  0
 27 26  1  0  0  0  0
 28 22  1  0  0  0  0
M  END
>  <minimizedAffinity>
-5.18765783

$$$$

 OpenBabel03252506113D

 28 30  0  0  0  0  0  0  0  0999 V2000
   40.1840   28.8270   40.7820 F   0  0  0  0  0  0  0  0  0  0  0  0
   39.3050   28.5130   41.7220 C   0  0  0  0  0  0  0  0  0  0  0  0
   38.0390   29.0790   41.6820 C   0  0  0  0  0  0  0  0  0  0  0  0
   37.0680   28.8090   42.6220 C   0  0  0  0  0  0  0  0  0  0  0  0
   37.3330   27.9380   43.6630 C   0  0  0  0  0  0  0  0  0  0  0  0
   38.6060   27.3980   43.6640 C   0  0  0  0  0  0  0  0  0  0  0  0
   39.6120   27.6460   42.7360 C   0  0  0  0  0  0  0  0  0  0  0  0
   36.0790   29.2480   42.5930 H   0  0  0  0  0  0  0  0  0  0  0  0
   36.6250   27.6810   44.4310 H   0  0  0  0  0  0  0  0  0  0  0  0
   38.8020   26.7070   44.5000 H   0  0  0  0  0  0  0  0  0  0  0  0
   37.3000   32.2030   39.8660 C   0  0  0  0  0  0  0  0  0  0  0  0
   37.0650   31.7200   38.5580 C   0  0  0  0  0  0  0  0  0  0  0  0
   37.1600   30.3440   38.3100 C   0  0  0  0  0  0  0  0  0  0  0  0
   37.4810   29.5490   39.3720 N   0  0  0  0  0  0  0  0  0  0  0  0
   37.6990   30.0110   40.5960 C   0  0  0  0  0  0  0  0  0  0  0  0
   37.6080   31.3320   40.8300 N   0  0  0  0  0  0  0  0  0  0  0  0
   36.8150   32.3820   37.7480 H   0  0  0  0  0  0  0  0  0  0  0  0
   36.9890   29.9240   37.3280 H   0  0  0  0  0  0  0  0  0  0  0  0
   37.2040   33.5910   40.1070 N   0  0  0  0  0  0  0  0  0  0  0  0
   37.2640   34.2580   39.3100 H   0  0  0  0  0  0  0  0  0  0  0  0
   37.0720   33.9530   41.0780 H   0  0  0  0  0  0  0  0  0  0  0  0
   40.9230   26.9900   42.8720 C   0  0  0  0  0  0  0  0  0  0  0  0
   41.9440   27.5720   43.6790 C   0  0  0  0  0  0  0  0  0  0  0  0
   42.0680   28.3840   44.2520 H   0  0  0  0  0  0  0  0  0  0  0  0
   43.3150   26.3720   43.4900 S   0  0  0  0  0  0  0  0  0  0  0  0
   42.2630   25.2750   42.3400 C   0  0  0  0  0  0  0  0  0  0  0  0
   42.5520   24.3400   41.8630 H   0  0  0  0  0  0  0  0  0  0  0  0
   41.1970   25.8380   42.2490 N   0  0  0  0  0  0  0  0  0  0  0  0
  1  2  1  0  0  0  0
  2  7  1  0  0  0  0
  3  2  2  0  0  0  0
  3  4  1  0  0  0  0
  4  5  2  0  0  0  0
  5  6  1  0  0  0  0
  5  9  1  0  0  0  0
  6 10  1  0  0  0  0
  7 22  1  0  0  0  0
  7  6  2  0  0  0  0
  8  4  1  0  0  0  0
 11 19  1  0  0  0  0
 11 16  1  0  0  0  0
 12 11  2  0  0  0  0
 13 12  1  0  0  0  0
 13 14  2  0  0  0  0
 14 15  1  0  0  0  0
 15 16  2  0  0  0  0
 15  3  1  0  0  0  0
 17 12  1  0  0  0  0
 18 13  1  0  0  0  0
 19 21  1  0  0  0  0
 20 19  1  0  0  0  0
 22 23  2  0  0  0  0
 23 24  1  0  0  0  0
 25 23  1  0  0  0  0
 26 25  1  0  0  0  0
 27 26  1  0  0  0  0
 28 26  2  0  0  0  0
 28 22  1  0  0  0  0
M  END
>  <minimizedAffinity>
-5.18109274

$$$$

 OpenBabel03252506113D

 28 30  0  0  0  0  0  0  0  0999 V2000
   39.7480   29.2440   41.2340 F   0  0  0  0  0  0  0  0  0  0  0  0
   38.4310   29.1980   41.1000 C   0  0  0  0  0  0  0  0  0  0  0  0
   37.7670   30.2920   40.5620 C   0  0  0  0  0  0  0  0  0  0  0  0
   36.4000   30.3270   40.3900 C   0  0  0  0  0  0  0  0  0  0  0  0
   35.6250   29.2420   40.7590 C   0  0  0  0  0  0  0  0  0  0  0  0
   36.3280   28.1750   41.2900 C   0  0  0  0  0  0  0  0  0  0  0  0
   37.7040   28.1020   41.4790 C   0  0  0  0  0  0  0  0  0  0  0  0
   35.8800   31.1780   39.9700 H   0  0  0  0  0  0  0  0  0  0  0  0
   34.5560   29.2000   40.6540 H   0  0  0  0  0  0  0  0  0  0  0  0
   35.6980   27.3200   41.5790 H   0  0  0  0  0  0  0  0  0  0  0  0
   39.8250   32.5830   38.5340 C   0  0  0  0  0  0  0  0  0  0  0  0
   39.9670   33.6850   39.4090 C   0  0  0  0  0  0  0  0  0  0  0  0
   39.3630   33.6360   40.6730 C   0  0  0  0  0  0  0  0  0  0  0  0
   38.6650   32.5020   40.9770 N   0  0  0  0  0  0  0  0  0  0  0  0
   38.5390   31.4740   40.1500 C   0  0  0  0  0  0  0  0  0  0  0  0
   39.1190   31.5250   38.9370 N   0  0  0  0  0  0  0  0  0  0  0  0
   40.5260   34.5600   39.1300 H   0  0  0  0  0  0  0  0  0  0  0  0
   39.4410   34.4510   41.3800 H   0  0  0  0  0  0  0  0  0  0  0  0
   40.4360   32.6420   37.2630 N   0  0  0  0  0  0  0  0  0  0  0  0
   40.7120   33.5630   36.8640 H   0  0  0  0  0  0  0  0  0  0  0  0
   40.6130   31.7680   36.7180 H   0  0  0  0  0  0  0  0  0  0  0  0
   38.3080   26.8910   42.0590 C   0  0  0  0  0  0  0  0  0  0  0  0
   38.1210   25.6200   41.4400 C   0  0  0  0  0  0  0  0  0  0  0  0
   37.6540   25.2440   40.6380 H   0  0  0  0  0  0  0  0  0  0  0  0
   39.0600   24.5080   42.5520 S   0  0  0  0  0  0  0  0  0  0  0  0
   39.5510   25.9660   43.6780 C   0  0  0  0  0  0  0  0  0  0  0  0
   40.1580   25.9350   44.5800 H   0  0  0  0  0  0  0  0  0  0  0  0
   39.0430   26.9420   43.1760 N   0  0  0  0  0  0  0  0  0  0  0  0
  2  1  1  0  0  0  0
  2  7  1  0  0  0  0
  3  2  2  0  0  0  0
  4  3  1  0  0  0  0
  4  5  2  0  0  0  0
  5  6  1  0  0  0  0
  6  7  2  0  0  0  0
  6 10  1  0  0  0  0
  7 22  1  0  0  0  0
  8  4  1  0  0  0  0
  9  5  1  0  0  0  0
 11 16  2  0  0  0  0
 11 12  1  0  0  0  0
 12 13  2  0  0  0  0
 13 14  1  0  0  0  0
 13 18  1  0  0  0  0
 15  3  1  0  0  0  0
 15 14  2  0  0  0  0
 16 15  1  0  0  0  0
 17 12  1  0  0  0  0
 19 11  1  0  0  0  0
 20 19  1  0  0  0  0
 21 19  1  0  0  0  0
 22 28  1  0  0  0  0
 23 22  2  0  0  0  0
 23 25  1  0  0  0  0
 24 23  1  0  0  0  0
 25 26  1  0  0  0  0
 26 27  1  0  0  0  0
 28 26  2  0  0  0  0
M  END
>  <minimizedAffinity>
-5.0312314

$$$$

 OpenBabel03252506113D

 28 30  0  0  0  0  0  0  0  0999 V2000
   39.5260   27.9040   40.3500 F   0  0  0  0  0  0  0  0  0  0  0  0
   38.6240   27.8150   41.3160 C   0  0  0  0  0  0  0  0  0  0  0  0
   39.0470   27.5830   42.6170 C   0  0  0  0  0  0  0  0  0  0  0  0
   38.1750   27.4740   43.6790 C   0  0  0  0  0  0  0  0  0  0  0  0
   36.8130   27.5970   43.4750 C   0  0  0  0  0  0  0  0  0  0  0  0
   36.4360   27.8280   42.1640 C   0  0  0  0  0  0  0  0  0  0  0  0
   37.2840   27.9440   41.0680 C   0  0  0  0  0  0  0  0  0  0  0  0
   38.5020   27.2930   44.6950 H   0  0  0  0  0  0  0  0  0  0  0  0
   36.0760   27.5240   44.2550 H   0  0  0  0  0  0  0  0  0  0  0  0
   35.3490   27.9240   42.0180 H   0  0  0  0  0  0  0  0  0  0  0  0
   42.3450   26.0700   43.2790 C   0  0  0  0  0  0  0  0  0  0  0  0
   43.1600   27.2190   43.4120 C   0  0  0  0  0  0  0  0  0  0  0  0
   42.5810   28.4870   43.2760 C   0  0  0  0  0  0  0  0  0  0  0  0
   41.2410   28.5270   43.0190 N   0  0  0  0  0  0  0  0  0  0  0  0
   40.4840   27.4450   42.8960 C   0  0  0  0  0  0  0  0  0  0  0  0
   41.0430   26.2290   43.0260 N   0  0  0  0  0  0  0  0  0  0  0  0
   44.2130   27.1420   43.6160 H   0  0  0  0  0  0  0  0  0  0  0  0
   43.1600   29.3960   43.3700 H   0  0  0  0  0  0  0  0  0  0  0  0
   42.9360   24.7960   43.4160 N   0  0  0  0  0  0  0  0  0  0  0  0
   43.9670   24.6910   43.3110 H   0  0  0  0  0  0  0  0  0  0  0  0
   42.3480   23.9580   43.6220 H   0  0  0  0  0  0  0  0  0  0  0  0
   36.7290   28.1920   39.7270 C   0  0  0  0  0  0  0  0  0  0  0  0
   36.7740   29.4960   39.1530 C   0  0  0  0  0  0  0  0  0  0  0  0
   37.1050   30.4080   39.4030 H   0  0  0  0  0  0  0  0  0  0  0  0
   35.9680   29.2320   37.5300 S   0  0  0  0  0  0  0  0  0  0  0  0
   35.7030   27.3820   37.9060 C   0  0  0  0  0  0  0  0  0  0  0  0
   35.2350   26.6330   37.2700 H   0  0  0  0  0  0  0  0  0  0  0  0
   36.1680   27.2110   39.0090 N   0  0  0  0  0  0  0  0  0  0  0  0
  1  2  1  0  0  0  0
  2  3  1  0  0  0  0
  3 15  1  0  0  0  0
  3  4  2  0  0  0  0
  4  8  1  0  0  0  0
  5  4  1  0  0  0  0
  5  9  1  0  0  0  0
  6  5  2  0  0  0  0
  7  2  2  0  0  0  0
  7  6  1  0  0  0  0
 10  6  1  0  0  0  0
 11 12  1  0  0  0  0
 11 19  1  0  0  0  0
 12 17  1  0  0  0  0
 13 18  1  0  0  0  0
 13 12  2  0  0  0  0
 14 13  1  0  0  0  0
 15 14  2  0  0  0  0
 15 16  1  0  0  0  0
 16 11  2  0  0  0  0
 19 21  1  0  0  0  0
 20 19  1  0  0  0  0
 22  7  1  0  0  0  0
 23 24  1  0  0  0  0
 23 22  2  0  0  0  0
 25 26  1  0  0  0  0
 25 23  1  0  0  0  0
 26 28  2  0  0  0  0
 27 26  1  0  0  0  0
 28 22  1  0  0  0  0
M  END
>  <minimizedAffinity>
-4.99103785

$$$$

 OpenBabel03252506113D

 28 30  0  0  0  0  0  0  0  0999 V2000
   39.6580   28.2280   40.4860 F   0  0  0  0  0  0  0  0  0  0  0  0
   38.7130   28.0150   41.3890 C   0  0  0  0  0  0  0  0  0  0  0  0
   39.0770   27.6410   42.6750 C   0  0  0  0  0  0  0  0  0  0  0  0
   38.1580   27.3990   43.6720 C   0  0  0  0  0  0  0  0  0  0  0  0
   36.8040   27.5250   43.4160 C   0  0  0  0  0  0  0  0  0  0  0  0
   36.4870   27.9000   42.1220 C   0  0  0  0  0  0  0  0  0  0  0  0
   37.3840   28.1530   41.0900 C   0  0  0  0  0  0  0  0  0  0  0  0
   38.4380   27.1070   44.6760 H   0  0  0  0  0  0  0  0  0  0  0  0
   36.0330   27.3530   44.1440 H   0  0  0  0  0  0  0  0  0  0  0  0
   35.4070   27.9970   41.9340 H   0  0  0  0  0  0  0  0  0  0  0  0
   42.3550   26.1040   43.3760 C   0  0  0  0  0  0  0  0  0  0  0  0
   43.1540   27.2450   43.6270 C   0  0  0  0  0  0  0  0  0  0  0  0
   42.5700   28.5170   43.5540 C   0  0  0  0  0  0  0  0  0  0  0  0
   41.2430   28.5670   43.2400 N   0  0  0  0  0  0  0  0  0  0  0  0
   40.5020   27.4920   43.0070 C   0  0  0  0  0  0  0  0  0  0  0  0
   41.0650   26.2730   43.0760 N   0  0  0  0  0  0  0  0  0  0  0  0
   44.1970   27.1610   43.8710 H   0  0  0  0  0  0  0  0  0  0  0  0
   43.1360   29.4200   43.7380 H   0  0  0  0  0  0  0  0  0  0  0  0
   42.9510   24.8270   43.4500 N   0  0  0  0  0  0  0  0  0  0  0  0
   43.9870   24.7360   43.3840 H   0  0  0  0  0  0  0  0  0  0  0  0
   42.3630   23.9730   43.5690 H   0  0  0  0  0  0  0  0  0  0  0  0
   36.8900   28.5460   39.7600 C   0  0  0  0  0  0  0  0  0  0  0  0
   36.5120   27.5570   38.8060 C   0  0  0  0  0  0  0  0  0  0  0  0
   36.4700   26.5570   38.7460 H   0  0  0  0  0  0  0  0  0  0  0  0
   35.9920   28.5780   37.3760 S   0  0  0  0  0  0  0  0  0  0  0  0
   36.3800   30.1870   38.3220 C   0  0  0  0  0  0  0  0  0  0  0  0
   36.2660   31.2110   37.9690 H   0  0  0  0  0  0  0  0  0  0  0  0
   36.7810   29.8320   39.4060 N   0  0  0  0  0  0  0  0  0  0  0  0
  1  2  1  0  0  0  0
  2  3  1  0  0  0  0
  3 15  1  0  0  0  0
  3  4  2  0  0  0  0
  4  8  1  0  0  0  0
  5  4  1  0  0  0  0
  5  9  1  0  0  0  0
  6  5  2  0  0  0  0
  7  2  2  0  0  0  0
  7  6  1  0  0  0  0
 10  6  1  0  0  0  0
 11 19  1  0  0  0  0
 11 12  1  0  0  0  0
 12 17  1  0  0  0  0
 13 12  2  0  0  0  0
 13 18  1  0  0  0  0
 14 13  1  0  0  0  0
 15 16  1  0  0  0  0
 15 14  2  0  0  0  0
 16 11  2  0  0  0  0
 19 21  1  0  0  0  0
 20 19  1  0  0  0  0
 22  7  1  0  0  0  0
 23 22  2  0  0  0  0
 24 23  1  0  0  0  0
 25 26  1  0  0  0  0
 25 23  1  0  0  0  0
 26 28  2  0  0  0  0
 27 26  1  0  0  0  0
 28 22  1  0  0  0  0
M  END
>  <minimizedAffinity>
-4.98552465

$$$$

 OpenBabel03252506113D

 28 30  0  0  0  0  0  0  0  0999 V2000
   37.6520   27.6040   39.4420 F   0  0  0  0  0  0  0  0  0  0  0  0
   37.6740   27.7340   40.7600 C   0  0  0  0  0  0  0  0  0  0  0  0
   37.7440   29.0040   41.3140 C   0  0  0  0  0  0  0  0  0  0  0  0
   37.7740   29.2270   42.6740 C   0  0  0  0  0  0  0  0  0  0  0  0
   37.7330   28.1600   43.5530 C   0  0  0  0  0  0  0  0  0  0  0  0
   37.6640   26.9140   42.9580 C   0  0  0  0  0  0  0  0  0  0  0  0
   37.6320   26.6490   41.5930 C   0  0  0  0  0  0  0  0  0  0  0  0
   37.8270   30.2160   43.1090 H   0  0  0  0  0  0  0  0  0  0  0  0
   37.7530   28.2590   44.6240 H   0  0  0  0  0  0  0  0  0  0  0  0
   37.6320   26.0750   43.6710 H   0  0  0  0  0  0  0  0  0  0  0  0
   38.6630   31.2460   38.5330 C   0  0  0  0  0  0  0  0  0  0  0  0
   37.8470   32.3710   38.7970 C   0  0  0  0  0  0  0  0  0  0  0  0
   36.9990   32.3540   39.9120 C   0  0  0  0  0  0  0  0  0  0  0  0
   37.0190   31.2280   40.6830 N   0  0  0  0  0  0  0  0  0  0  0  0
   37.7870   30.1770   40.4280 C   0  0  0  0  0  0  0  0  0  0  0  0
   38.6000   30.1960   39.3560 N   0  0  0  0  0  0  0  0  0  0  0  0
   37.8630   33.2400   38.1640 H   0  0  0  0  0  0  0  0  0  0  0  0
   36.3570   33.1890   40.1580 H   0  0  0  0  0  0  0  0  0  0  0  0
   39.5130   31.2710   37.4070 N   0  0  0  0  0  0  0  0  0  0  0  0
   39.3290   31.9450   36.6360 H   0  0  0  0  0  0  0  0  0  0  0  0
   40.3260   30.6180   37.3420 H   0  0  0  0  0  0  0  0  0  0  0  0
   37.5570   25.2600   41.1110 C   0  0  0  0  0  0  0  0  0  0  0  0
   38.6610   24.3740   41.2770 C   0  0  0  0  0  0  0  0  0  0  0  0
   39.5840   24.3990   41.6660 H   0  0  0  0  0  0  0  0  0  0  0  0
   38.0340   22.8290   40.5160 S   0  0  0  0  0  0  0  0  0  0  0  0
   36.3670   23.6530   40.0970 C   0  0  0  0  0  0  0  0  0  0  0  0
   35.5100   23.2050   39.5980 H   0  0  0  0  0  0  0  0  0  0  0  0
   36.4600   24.7880   40.5050 N   0  0  0  0  0  0  0  0  0  0  0  0
  1  2  1  0  0  0  0
  2  3  2  0  0  0  0
  2  7  1  0  0  0  0
  3  4  1  0  0  0  0
  4  8  1  0  0  0  0
  4  5  2  0  0  0  0
  5  9  1  0  0  0  0
  6  5  1  0  0  0  0
  6 10  1  0  0  0  0
  7  6  2  0  0  0  0
 11 12  2  0  0  0  0
 11 16  1  0  0  0  0
 12 13  1  0  0  0  0
 13 18  1  0  0  0  0
 13 14  2  0  0  0  0
 15 14  1  0  0  0  0
 15  3  1  0  0  0  0
 16 15  2  0  0  0  0
 17 12  1  0  0  0  0
 19 11  1  0  0  0  0
 20 19  1  0  0  0  0
 21 19  1  0  0  0  0
 22 23  2  0  0  0  0
 22  7  1  0  0  0  0
 23 24  1  0  0  0  0
 25 23  1  0  0  0  0
 26 28  2  0  0  0  0
 26 25  1  0  0  0  0
 27 26  1  0  0  0  0
 28 22  1  0  0  0  0
M  END
>  <minimizedAffinity>
-4.98109102

$$$$

 OpenBabel03252506113D

 28 30  0  0  0  0  0  0  0  0999 V2000
   39.2890   27.5800   40.3590 F   0  0  0  0  0  0  0  0  0  0  0  0
   38.4820   27.6010   41.4100 C   0  0  0  0  0  0  0  0  0  0  0  0
   38.3970   28.7560   42.1750 C   0  0  0  0  0  0  0  0  0  0  0  0
   37.5850   28.8600   43.2840 C   0  0  0  0  0  0  0  0  0  0  0  0
   36.8080   27.7860   43.6790 C   0  0  0  0  0  0  0  0  0  0  0  0
   36.9250   26.6570   42.8890 C   0  0  0  0  0  0  0  0  0  0  0  0
   37.7310   26.5130   41.7650 C   0  0  0  0  0  0  0  0  0  0  0  0
   37.5160   29.7590   43.8820 H   0  0  0  0  0  0  0  0  0  0  0  0
   36.1530   27.7960   44.5320 H   0  0  0  0  0  0  0  0  0  0  0  0
   36.3000   25.8120   43.2170 H   0  0  0  0  0  0  0  0  0  0  0  0
   41.0040   31.3630   42.2320 C   0  0  0  0  0  0  0  0  0  0  0  0
   40.6730   32.1180   41.0820 C   0  0  0  0  0  0  0  0  0  0  0  0
   39.5720   31.7330   40.3060 C   0  0  0  0  0  0  0  0  0  0  0  0
   38.8810   30.6320   40.7220 N   0  0  0  0  0  0  0  0  0  0  0  0
   39.1990   29.9300   41.8010 C   0  0  0  0  0  0  0  0  0  0  0  0
   40.2570   30.3020   42.5440 N   0  0  0  0  0  0  0  0  0  0  0  0
   41.2440   32.9810   40.7900 H   0  0  0  0  0  0  0  0  0  0  0  0
   39.2760   32.2770   39.4190 H   0  0  0  0  0  0  0  0  0  0  0  0
   42.1150   31.7570   43.0080 N   0  0  0  0  0  0  0  0  0  0  0  0
   42.8400   32.3780   42.5930 H   0  0  0  0  0  0  0  0  0  0  0  0
   42.2160   31.4300   43.9940 H   0  0  0  0  0  0  0  0  0  0  0  0
   37.7460   25.2410   41.0230 C   0  0  0  0  0  0  0  0  0  0  0  0
   38.7560   24.2680   41.2740 C   0  0  0  0  0  0  0  0  0  0  0  0
   39.5560   24.1610   41.8670 H   0  0  0  0  0  0  0  0  0  0  0  0
   38.3020   22.9300   40.1070 S   0  0  0  0  0  0  0  0  0  0  0  0
   36.8060   23.9260   39.4710 C   0  0  0  0  0  0  0  0  0  0  0  0
   36.0870   23.6330   38.7080 H   0  0  0  0  0  0  0  0  0  0  0  0
   36.8210   24.9600   40.0970 N   0  0  0  0  0  0  0  0  0  0  0  0
  1  2  1  0  0  0  0
  2  7  2  0  0  0  0
  2  3  1  0  0  0  0
  3  4  2  0  0  0  0
  4  5  1  0  0  0  0
  4  8  1  0  0  0  0
  5  9  1  0  0  0  0
  6 10  1  0  0  0  0
  6  5  2  0  0  0  0
  7  6  1  0  0  0  0
 11 16  1  0  0  0  0
 11 19  1  0  0  0  0
 12 11  2  0  0  0  0
 13 14  2  0  0  0  0
 13 12  1  0  0  0  0
 14 15  1  0  0  0  0
 15  3  1  0  0  0  0
 15 16  2  0  0  0  0
 17 12  1  0  0  0  0
 18 13  1  0  0  0  0
 19 21  1  0  0  0  0
 20 19  1  0  0  0  0
 22 23  2  0  0  0  0
 22  7  1  0  0  0  0
 23 24  1  0  0  0  0
 25 23  1  0  0  0  0
 26 28  2  0  0  0  0
 26 25  1  0  0  0  0
 27 26  1  0  0  0  0
 28 22  1  0  0  0  0
M  END
>  <minimizedAffinity>
-4.90782595

$$$$
