
 OpenBabel03252508393D

 39 42  0  0  0  0  0  0  0  0999 V2000
   45.1610   33.9490   40.6950 C   0  0  0  0  0  0  0  0  0  0  0  0
   44.1080   33.6300   39.8760 C   0  0  0  0  0  0  0  0  0  0  0  0
   44.4060   33.1430   38.6350 C   0  0  0  0  0  0  0  0  0  0  0  0
   45.6850   32.9580   38.1770 C   0  0  0  0  0  0  0  0  0  0  0  0
   46.7110   33.2870   39.0230 C   0  0  0  0  0  0  0  0  0  0  0  0
   46.4750   33.7810   40.2770 C   0  0  0  0  0  0  0  0  0  0  0  0
   43.5800   32.8870   37.9790 H   0  0  0  0  0  0  0  0  0  0  0  0
   45.8930   32.5720   37.1940 H   0  0  0  0  0  0  0  0  0  0  0  0
   47.7240   33.1420   38.6630 H   0  0  0  0  0  0  0  0  0  0  0  0
   40.8190   35.2540   40.7940 C   0  0  0  0  0  0  0  0  0  0  0  0
   42.1190   35.0870   40.2700 C   0  0  0  0  0  0  0  0  0  0  0  0
   42.7730   33.8410   40.4000 C   0  0  0  0  0  0  0  0  0  0  0  0
   42.0670   32.8840   41.0400 N   0  0  0  0  0  0  0  0  0  0  0  0
   40.8350   33.0710   41.5250 C   0  0  0  0  0  0  0  0  0  0  0  0
   40.2190   34.2450   41.4030 N   0  0  0  0  0  0  0  0  0  0  0  0
   40.2200   36.5290   40.6300 N   0  0  0  0  0  0  0  0  0  0  0  0
   42.6460   35.8710   39.7710 H   0  0  0  0  0  0  0  0  0  0  0  0
   40.4300   32.1990   42.0000 H   0  0  0  0  0  0  0  0  0  0  0  0
   40.3980   37.1260   39.7900 H   0  0  0  0  0  0  0  0  0  0  0  0
   39.5910   36.8100   41.4230 H   0  0  0  0  0  0  0  0  0  0  0  0
   47.6250   34.0980   41.0960 C   0  0  0  0  0  0  0  0  0  0  0  0
   48.1370   35.3630   40.9470 C   0  0  0  0  0  0  0  0  0  0  0  0
   49.2420   35.8520   41.6520 C   0  0  0  0  0  0  0  0  0  0  0  0
   49.8460   34.9980   42.5490 C   0  0  0  0  0  0  0  0  0  0  0  0
   49.3560   33.7300   42.7180 C   0  0  0  0  0  0  0  0  0  0  0  0
   48.2590   33.2800   42.0040 C   0  0  0  0  0  0  0  0  0  0  0  0
   47.7050   36.0800   40.2550 H   0  0  0  0  0  0  0  0  0  0  0  0
   49.6160   36.8550   41.5050 H   0  0  0  0  0  0  0  0  0  0  0  0
   50.7060   35.2850   43.1390 H   0  0  0  0  0  0  0  0  0  0  0  0
   49.7540   32.9750   43.3990 H   0  0  0  0  0  0  0  0  0  0  0  0
   47.6910   31.9180   42.1490 C   0  0  0  0  0  0  0  0  0  0  0  0
   48.0920   30.8800   41.4170 C   0  0  0  0  0  0  0  0  0  0  0  0
   48.8220   30.7260   40.6350 H   0  0  0  0  0  0  0  0  0  0  0  0
   47.0390   29.5320   42.0520 S   0  0  0  0  0  0  0  0  0  0  0  0
   46.1900   30.7170   43.2810 C   0  0  0  0  0  0  0  0  0  0  0  0
   45.4090   30.3900   43.9640 H   0  0  0  0  0  0  0  0  0  0  0  0
   46.7430   31.6560   43.0200 N   0  0  0  0  0  0  0  0  0  0  0  0
   44.7520   34.8880   43.0980 N   0  0  0  0  0  0  0  0  0  0  0  0
   44.9320   34.4740   42.0230 C   0  0  0  0  0  0  0  0  0  0  0  0
  1 39  1  0  0  0  0
  2 12  1  0  0  0  0
  2  1  2  0  0  0  0
  3  2  1  0  0  0  0
  4  3  2  0  0  0  0
  4  5  1  0  0  0  0
  5  6  2  0  0  0  0
  6  1  1  0  0  0  0
  6 21  1  0  0  0  0
  7  3  1  0  0  0  0
  8  4  1  0  0  0  0
  9  5  1  0  0  0  0
 10 15  1  0  0  0  0
 11 12  1  0  0  0  0
 11 10  2  0  0  0  0
 12 13  2  0  0  0  0
 13 14  1  0  0  0  0
 14 18  1  0  0  0  0
 15 14  2  0  0  0  0
 16 10  1  0  0  0  0
 16 20  1  0  0  0  0
 17 11  1  0  0  0  0
 19 16  1  0  0  0  0
 21 26  1  0  0  0  0
 22 21  2  0  0  0  0
 22 23  1  0  0  0  0
 23 24  2  0  0  0  0
 24 25  1  0  0  0  0
 24 29  1  0  0  0  0
 25 30  1  0  0  0  0
 26 31  1  0  0  0  0
 26 25  2  0  0  0  0
 27 22  1  0  0  0  0
 28 23  1  0  0  0  0
 31 37  1  0  0  0  0
 32 34  1  0  0  0  0
 32 31  2  0  0  0  0
 33 32  1  0  0  0  0
 34 35  1  0  0  0  0
 35 36  1  0  0  0  0
 37 35  2  0  0  0  0
 39 38  3  0  0  0  0
M  END
>  <minimizedAffinity>
-5.93188477

>  <minimizedRMSD>
0.0755045488

$$$$
