
 OpenBabel03242515063D

 37 39  0  0  0  0  0  0  0  0999 V2000
   40.2190   30.1220   42.1200 C   0  0  0  0  0  0  0  0  0  0  0  0
   40.5670   31.4020   41.6830 C   0  0  0  0  0  0  0  0  0  0  0  0
   39.6170   32.1970   41.0320 C   0  0  0  0  0  0  0  0  0  0  0  0
   38.3870   31.6460   40.8650 N   0  0  0  0  0  0  0  0  0  0  0  0
   38.0540   30.4140   41.2840 C   0  0  0  0  0  0  0  0  0  0  0  0
   38.9780   29.6900   41.8980 N   0  0  0  0  0  0  0  0  0  0  0  0
   41.5590   31.7920   41.8420 H   0  0  0  0  0  0  0  0  0  0  0  0
   39.9270   33.5540   40.5510 C   0  0  0  0  0  0  0  0  0  0  0  0
   41.1920   33.8610   40.0440 C   0  0  0  0  0  0  0  0  0  0  0  0
   42.0760   33.1390   39.9520 H   0  0  0  0  0  0  0  0  0  0  0  0
   40.9970   35.6610   39.6090 S   0  0  0  0  0  0  0  0  0  0  0  0
   39.2000   35.6410   40.2120 C   0  0  0  0  0  0  0  0  0  0  0  0
   38.5200   36.5120   40.1970 H   0  0  0  0  0  0  0  0  0  0  0  0
   39.0570   34.5470   40.5650 N   0  0  0  0  0  0  0  0  0  0  0  0
   36.7010   29.9730   41.0300 C   0  0  0  0  0  0  0  0  0  0  0  0
   36.5530   28.8290   40.5160 O   0  0  0  0  0  0  0  0  0  0  0  0
   35.6310   30.8550   41.3750 N   0  0  0  0  0  0  0  0  0  0  0  0
   34.7820   31.1740   41.8680 H   0  0  0  0  0  0  0  0  0  0  0  0
   35.7320   31.7200   40.8000 H   0  0  0  0  0  0  0  0  0  0  0  0
   41.4940   29.1860   42.9350 S   0  0  0  0  0  0  0  0  0  0  0  0
   41.2160   27.4140   42.8510 C   0  0  0  0  0  0  0  0  0  0  0  0
   40.8740   27.2000   41.8050 H   0  0  0  0  0  0  0  0  0  0  0  0
   42.1850   26.8780   42.9460 H   0  0  0  0  0  0  0  0  0  0  0  0
   40.1410   26.9130   43.7460 C   0  0  0  0  0  0  0  0  0  0  0  0
   39.6130   27.7790   44.2050 H   0  0  0  0  0  0  0  0  0  0  0  0
   40.5830   26.2800   44.5470 H   0  0  0  0  0  0  0  0  0  0  0  0
   37.2530   27.8130   44.0290 Cl  0  0  0  0  0  0  0  0  0  0  0  0
   37.7550   26.4890   43.0360 C   0  0  0  0  0  0  0  0  0  0  0  0
   39.1090   26.1590   42.9780 C   0  0  0  0  0  0  0  0  0  0  0  0
   39.4440   25.0900   42.1670 C   0  0  0  0  0  0  0  0  0  0  0  0
   38.5640   24.3310   41.4180 C   0  0  0  0  0  0  0  0  0  0  0  0
   37.2420   24.6730   41.4900 C   0  0  0  0  0  0  0  0  0  0  0  0
   36.0630   23.7570   40.5680 Cl  0  0  0  0  0  0  0  0  0  0  0  0
   36.8550   25.7240   42.2800 C   0  0  0  0  0  0  0  0  0  0  0  0
   40.5130   24.8610   42.1470 H   0  0  0  0  0  0  0  0  0  0  0  0
   38.9450   23.5090   40.8120 H   0  0  0  0  0  0  0  0  0  0  0  0
   35.8080   26.0250   42.3620 H   0  0  0  0  0  0  0  0  0  0  0  0
  1 20  1  0  0  0  0
  2  7  1  0  0  0  0
  2  1  2  0  0  0  0
  3  2  1  0  0  0  0
  4  3  2  0  0  0  0
  4  5  1  0  0  0  0
  5  6  2  0  0  0  0
  6  1  1  0  0  0  0
  8 14  1  0  0  0  0
  8  3  1  0  0  0  0
  9  8  2  0  0  0  0
 10  9  1  0  0  0  0
 11  9  1  0  0  0  0
 11 12  1  0  0  0  0
 12 14  2  0  0  0  0
 13 12  1  0  0  0  0
 15  5  1  0  0  0  0
 15 17  1  0  0  0  0
 16 15  2  0  0  0  0
 17 18  1  0  0  0  0
 19 17  1  0  0  0  0
 21 20  1  0  0  0  0
 21 23  1  0  0  0  0
 21 24  1  0  0  0  0
 22 21  1  0  0  0  0
 24 25  1  0  0  0  0
 24 26  1  0  0  0  0
 28 27  1  0  0  0  0
 29 28  1  0  0  0  0
 29 24  1  0  0  0  0
 30 29  2  0  0  0  0
 31 32  2  0  0  0  0
 31 30  1  0  0  0  0
 32 34  1  0  0  0  0
 33 32  1  0  0  0  0
 34 37  1  0  0  0  0
 34 28  2  0  0  0  0
 35 30  1  0  0  0  0
 36 31  1  0  0  0  0
M  END
>  <minimizedAffinity>
-6.18072176

$$$$

 OpenBabel03242515063D

 37 39  0  0  0  0  0  0  0  0999 V2000
   37.8560   30.7060   40.5760 C   0  0  0  0  0  0  0  0  0  0  0  0
   38.8540   31.6150   40.9370 C   0  0  0  0  0  0  0  0  0  0  0  0
   39.4550   32.4140   39.9580 C   0  0  0  0  0  0  0  0  0  0  0  0
   39.0110   32.2390   38.6870 N   0  0  0  0  0  0  0  0  0  0  0  0
   38.0530   31.3650   38.3400 C   0  0  0  0  0  0  0  0  0  0  0  0
   37.5050   30.6260   39.2930 N   0  0  0  0  0  0  0  0  0  0  0  0
   39.1700   31.7140   41.9630 H   0  0  0  0  0  0  0  0  0  0  0  0
   40.5110   33.3880   40.2800 C   0  0  0  0  0  0  0  0  0  0  0  0
   41.6970   32.9790   40.8950 C   0  0  0  0  0  0  0  0  0  0  0  0
   41.9660   31.9090   41.1990 H   0  0  0  0  0  0  0  0  0  0  0  0
   42.6170   34.5920   41.0480 S   0  0  0  0  0  0  0  0  0  0  0  0
   41.1820   35.5210   40.2310 C   0  0  0  0  0  0  0  0  0  0  0  0
   41.1620   36.6090   40.0400 H   0  0  0  0  0  0  0  0  0  0  0  0
   40.4140   34.6790   40.0190 N   0  0  0  0  0  0  0  0  0  0  0  0
   37.6920   31.3000   36.9410 C   0  0  0  0  0  0  0  0  0  0  0  0
   37.0270   30.2950   36.5620 O   0  0  0  0  0  0  0  0  0  0  0  0
   38.1090   32.3690   36.0900 N   0  0  0  0  0  0  0  0  0  0  0  0
   38.0050   33.1700   35.4490 H   0  0  0  0  0  0  0  0  0  0  0  0
   39.1530   32.3860   36.0860 H   0  0  0  0  0  0  0  0  0  0  0  0
   37.1530   29.7340   41.8890 S   0  0  0  0  0  0  0  0  0  0  0  0
   38.3980   28.9160   42.8920 C   0  0  0  0  0  0  0  0  0  0  0  0
   39.1470   28.4890   42.1750 H   0  0  0  0  0  0  0  0  0  0  0  0
   38.9660   29.6730   43.4740 H   0  0  0  0  0  0  0  0  0  0  0  0
   37.8940   27.7700   43.6920 C   0  0  0  0  0  0  0  0  0  0  0  0
   36.8040   27.9020   43.8740 H   0  0  0  0  0  0  0  0  0  0  0  0
   38.4300   27.7260   44.6650 H   0  0  0  0  0  0  0  0  0  0  0  0
   40.5300   26.2830   43.9580 Cl  0  0  0  0  0  0  0  0  0  0  0  0
   39.2040   25.7260   42.9980 C   0  0  0  0  0  0  0  0  0  0  0  0
   38.0370   26.4880   42.9450 C   0  0  0  0  0  0  0  0  0  0  0  0
   37.0140   25.9880   42.1590 C   0  0  0  0  0  0  0  0  0  0  0  0
   37.0500   24.8130   41.4300 C   0  0  0  0  0  0  0  0  0  0  0  0
   38.2040   24.0830   41.4980 C   0  0  0  0  0  0  0  0  0  0  0  0
   38.3260   22.5790   40.6020 Cl  0  0  0  0  0  0  0  0  0  0  0  0
   39.2480   24.5330   42.2620 C   0  0  0  0  0  0  0  0  0  0  0  0
   36.1160   26.6110   42.1410 H   0  0  0  0  0  0  0  0  0  0  0  0
   36.1790   24.5180   40.8450 H   0  0  0  0  0  0  0  0  0  0  0  0
   40.1850   23.9760   42.3390 H   0  0  0  0  0  0  0  0  0  0  0  0
  1  2  1  0  0  0  0
  1 20  1  0  0  0  0
  2  7  1  0  0  0  0
  3  8  1  0  0  0  0
  3  2  2  0  0  0  0
  4  3  1  0  0  0  0
  5  4  2  0  0  0  0
  5  6  1  0  0  0  0
  6  1  2  0  0  0  0
  8  9  2  0  0  0  0
  9 11  1  0  0  0  0
  9 10  1  0  0  0  0
 12 11  1  0  0  0  0
 13 12  1  0  0  0  0
 14 12  2  0  0  0  0
 14  8  1  0  0  0  0
 15  5  1  0  0  0  0
 16 15  2  0  0  0  0
 17 15  1  0  0  0  0
 18 17  1  0  0  0  0
 19 17  1  0  0  0  0
 20 21  1  0  0  0  0
 21 23  1  0  0  0  0
 21 24  1  0  0  0  0
 22 21  1  0  0  0  0
 24 25  1  0  0  0  0
 24 26  1  0  0  0  0
 28 27  1  0  0  0  0
 29 28  1  0  0  0  0
 29 24  1  0  0  0  0
 30 29  2  0  0  0  0
 31 32  2  0  0  0  0
 31 30  1  0  0  0  0
 32 34  1  0  0  0  0
 33 32  1  0  0  0  0
 34 37  1  0  0  0  0
 34 28  2  0  0  0  0
 35 30  1  0  0  0  0
 36 31  1  0  0  0  0
M  END
>  <minimizedAffinity>
-6.15743065

$$$$

 OpenBabel03242515063D

 37 39  0  0  0  0  0  0  0  0999 V2000
   38.0410   31.1600   38.8050 C   0  0  0  0  0  0  0  0  0  0  0  0
   39.1310   30.6600   38.0890 C   0  0  0  0  0  0  0  0  0  0  0  0
   40.3340   31.3750   38.0640 C   0  0  0  0  0  0  0  0  0  0  0  0
   40.3530   32.5420   38.7580 N   0  0  0  0  0  0  0  0  0  0  0  0
   39.3040   33.0230   39.4460 C   0  0  0  0  0  0  0  0  0  0  0  0
   38.1810   32.3190   39.4490 N   0  0  0  0  0  0  0  0  0  0  0  0
   39.0630   29.7270   37.5540 H   0  0  0  0  0  0  0  0  0  0  0  0
   41.5150   30.8960   37.3270 C   0  0  0  0  0  0  0  0  0  0  0  0
   42.5840   31.7550   37.0550 C   0  0  0  0  0  0  0  0  0  0  0  0
   42.6570   32.8580   37.3540 H   0  0  0  0  0  0  0  0  0  0  0  0
   43.7450   30.6300   36.1300 S   0  0  0  0  0  0  0  0  0  0  0  0
   42.5270   29.1880   36.2990 C   0  0  0  0  0  0  0  0  0  0  0  0
   42.6960   28.1700   35.9040 H   0  0  0  0  0  0  0  0  0  0  0  0
   41.6450   29.6590   36.8840 N   0  0  0  0  0  0  0  0  0  0  0  0
   39.4850   34.2810   40.1340 C   0  0  0  0  0  0  0  0  0  0  0  0
   40.2750   35.1160   39.6120 O   0  0  0  0  0  0  0  0  0  0  0  0
   38.7630   34.4910   41.3490 N   0  0  0  0  0  0  0  0  0  0  0  0
   38.0900   34.9390   41.9910 H   0  0  0  0  0  0  0  0  0  0  0  0
   39.0800   33.7740   42.0380 H   0  0  0  0  0  0  0  0  0  0  0  0
   36.5550   30.1830   38.7770 S   0  0  0  0  0  0  0  0  0  0  0  0
   35.8180   29.9920   40.4030 C   0  0  0  0  0  0  0  0  0  0  0  0
   34.9180   30.6610   40.4200 H   0  0  0  0  0  0  0  0  0  0  0  0
   35.4060   28.9650   40.5090 H   0  0  0  0  0  0  0  0  0  0  0  0
   36.6810   30.4330   41.5290 C   0  0  0  0  0  0  0  0  0  0  0  0
   36.0390   30.8060   42.3590 H   0  0  0  0  0  0  0  0  0  0  0  0
   37.3570   31.2470   41.1880 H   0  0  0  0  0  0  0  0  0  0  0  0
   39.5390   30.9850   42.4010 Cl  0  0  0  0  0  0  0  0  0  0  0  0
   38.7780   29.4360   42.5200 C   0  0  0  0  0  0  0  0  0  0  0  0
   37.4600   29.2910   42.0900 C   0  0  0  0  0  0  0  0  0  0  0  0
   36.9110   28.0280   42.2110 C   0  0  0  0  0  0  0  0  0  0  0  0
   37.5490   26.9100   42.7170 C   0  0  0  0  0  0  0  0  0  0  0  0
   38.8410   27.0750   43.1320 C   0  0  0  0  0  0  0  0  0  0  0  0
   39.7180   25.7030   43.7870 Cl  0  0  0  0  0  0  0  0  0  0  0  0
   39.4330   28.3070   43.0340 C   0  0  0  0  0  0  0  0  0  0  0  0
   35.8770   27.9530   41.8640 H   0  0  0  0  0  0  0  0  0  0  0  0
   37.0130   25.9620   42.7650 H   0  0  0  0  0  0  0  0  0  0  0  0
   40.4640   28.4760   43.3560 H   0  0  0  0  0  0  0  0  0  0  0  0
  1  6  1  0  0  0  0
  2  1  2  0  0  0  0
  3  2  1  0  0  0  0
  3  4  2  0  0  0  0
  4  5  1  0  0  0  0
  5  6  2  0  0  0  0
  5 15  1  0  0  0  0
  7  2  1  0  0  0  0
  8  3  1  0  0  0  0
  9  8  2  0  0  0  0
  9 10  1  0  0  0  0
 11 12  1  0  0  0  0
 11  9  1  0  0  0  0
 12 14  2  0  0  0  0
 13 12  1  0  0  0  0
 14  8  1  0  0  0  0
 15 17  1  0  0  0  0
 16 15  2  0  0  0  0
 17 18  1  0  0  0  0
 17 19  1  0  0  0  0
 20  1  1  0  0  0  0
 20 21  1  0  0  0  0
 21 22  1  0  0  0  0
 21 23  1  0  0  0  0
 21 24  1  0  0  0  0
 24 29  1  0  0  0  0
 24 25  1  0  0  0  0
 26 24  1  0  0  0  0
 27 28  1  0  0  0  0
 28 34  1  0  0  0  0
 29 30  1  0  0  0  0
 29 28  2  0  0  0  0
 30 31  2  0  0  0  0
 31 36  1  0  0  0  0
 31 32  1  0  0  0  0
 32 33  1  0  0  0  0
 34 32  2  0  0  0  0
 34 37  1  0  0  0  0
 35 30  1  0  0  0  0
M  END
>  <minimizedAffinity>
-6.01262712

$$$$

 OpenBabel03242515063D

 37 39  0  0  0  0  0  0  0  0999 V2000
   37.9890   30.5940   41.1810 C   0  0  0  0  0  0  0  0  0  0  0  0
   39.2840   30.4640   41.6880 C   0  0  0  0  0  0  0  0  0  0  0  0
   40.1610   31.5530   41.6460 C   0  0  0  0  0  0  0  0  0  0  0  0
   39.6730   32.6950   41.0970 N   0  0  0  0  0  0  0  0  0  0  0  0
   38.4280   32.8200   40.6090 C   0  0  0  0  0  0  0  0  0  0  0  0
   37.6240   31.7680   40.6650 N   0  0  0  0  0  0  0  0  0  0  0  0
   39.6220   29.5330   42.1140 H   0  0  0  0  0  0  0  0  0  0  0  0
   41.5360   31.4740   42.1660 C   0  0  0  0  0  0  0  0  0  0  0  0
   41.9380   30.3970   42.9610 C   0  0  0  0  0  0  0  0  0  0  0  0
   41.2860   29.5120   43.2790 H   0  0  0  0  0  0  0  0  0  0  0  0
   43.7170   30.8280   43.3070 S   0  0  0  0  0  0  0  0  0  0  0  0
   43.5610   32.4150   42.2840 C   0  0  0  0  0  0  0  0  0  0  0  0
   44.3760   33.1430   42.1190 H   0  0  0  0  0  0  0  0  0  0  0  0
   42.4600   32.3860   41.9250 N   0  0  0  0  0  0  0  0  0  0  0  0
   38.0600   34.1040   40.0560 C   0  0  0  0  0  0  0  0  0  0  0  0
   38.7570   35.1010   40.3960 O   0  0  0  0  0  0  0  0  0  0  0  0
   36.9410   34.1570   39.1680 N   0  0  0  0  0  0  0  0  0  0  0  0
   36.4360   34.3190   38.2830 H   0  0  0  0  0  0  0  0  0  0  0  0
   36.0960   33.8560   39.7010 H   0  0  0  0  0  0  0  0  0  0  0  0
   36.9490   29.1540   41.2750 S   0  0  0  0  0  0  0  0  0  0  0  0
   37.0280   28.3440   42.8750 C   0  0  0  0  0  0  0  0  0  0  0  0
   37.9660   28.7110   43.3660 H   0  0  0  0  0  0  0  0  0  0  0  0
   36.2070   28.7160   43.5240 H   0  0  0  0  0  0  0  0  0  0  0  0
   37.1480   26.8640   42.8140 C   0  0  0  0  0  0  0  0  0  0  0  0
   36.8300   26.5120   41.8070 H   0  0  0  0  0  0  0  0  0  0  0  0
   36.5000   26.4010   43.5910 H   0  0  0  0  0  0  0  0  0  0  0  0
   37.8550   24.0390   41.9450 Cl  0  0  0  0  0  0  0  0  0  0  0  0
   38.9970   25.1570   42.6080 C   0  0  0  0  0  0  0  0  0  0  0  0
   38.5660   26.4320   42.9750 C   0  0  0  0  0  0  0  0  0  0  0  0
   39.5270   27.2760   43.4990 C   0  0  0  0  0  0  0  0  0  0  0  0
   40.8630   26.9700   43.6870 C   0  0  0  0  0  0  0  0  0  0  0  0
   41.2630   25.7150   43.3200 C   0  0  0  0  0  0  0  0  0  0  0  0
   42.9420   25.2510   43.5270 Cl  0  0  0  0  0  0  0  0  0  0  0  0
   40.3500   24.8380   42.7960 C   0  0  0  0  0  0  0  0  0  0  0  0
   39.1520   28.2660   43.7760 H   0  0  0  0  0  0  0  0  0  0  0  0
   41.5310   27.7200   44.1100 H   0  0  0  0  0  0  0  0  0  0  0  0
   40.6340   23.8280   42.4920 H   0  0  0  0  0  0  0  0  0  0  0  0
  1 20  1  0  0  0  0
  1  2  1  0  0  0  0
  2  7  1  0  0  0  0
  3  2  2  0  0  0  0
  3  8  1  0  0  0  0
  4  3  1  0  0  0  0
  5  6  1  0  0  0  0
  5  4  2  0  0  0  0
  6  1  2  0  0  0  0
  8  9  2  0  0  0  0
  9 10  1  0  0  0  0
  9 11  1  0  0  0  0
 12 11  1  0  0  0  0
 13 12  1  0  0  0  0
 14  8  1  0  0  0  0
 14 12  2  0  0  0  0
 15 16  2  0  0  0  0
 15  5  1  0  0  0  0
 17 19  1  0  0  0  0
 17 15  1  0  0  0  0
 18 17  1  0  0  0  0
 20 21  1  0  0  0  0
 21 22  1  0  0  0  0
 21 23  1  0  0  0  0
 24 21  1  0  0  0  0
 24 29  1  0  0  0  0
 24 26  1  0  0  0  0
 25 24  1  0  0  0  0
 27 28  1  0  0  0  0
 28 34  2  0  0  0  0
 28 29  1  0  0  0  0
 29 30  2  0  0  0  0
 30 31  1  0  0  0  0
 30 35  1  0  0  0  0
 31 36  1  0  0  0  0
 32 33  1  0  0  0  0
 32 31  2  0  0  0  0
 34 32  1  0  0  0  0
 37 34  1  0  0  0  0
M  END
>  <minimizedAffinity>
-5.86779785

$$$$

 OpenBabel03242515063D

 37 39  0  0  0  0  0  0  0  0999 V2000
   36.9410   28.9690   39.0680 C   0  0  0  0  0  0  0  0  0  0  0  0
   37.4710   30.1520   39.5890 C   0  0  0  0  0  0  0  0  0  0  0  0
   37.8120   31.2000   38.7280 C   0  0  0  0  0  0  0  0  0  0  0  0
   37.5980   30.9840   37.4050 N   0  0  0  0  0  0  0  0  0  0  0  0
   37.0890   29.8460   36.9040 C   0  0  0  0  0  0  0  0  0  0  0  0
   36.7760   28.8750   37.7480 N   0  0  0  0  0  0  0  0  0  0  0  0
   37.6210   30.2730   40.6500 H   0  0  0  0  0  0  0  0  0  0  0  0
   38.3740   32.4690   39.2210 C   0  0  0  0  0  0  0  0  0  0  0  0
   37.5430   33.4610   39.7490 C   0  0  0  0  0  0  0  0  0  0  0  0
   36.4040   33.4040   39.8510 H   0  0  0  0  0  0  0  0  0  0  0  0
   38.7730   34.7870   40.1920 S   0  0  0  0  0  0  0  0  0  0  0  0
   40.2010   33.7120   39.5610 C   0  0  0  0  0  0  0  0  0  0  0  0
   41.2660   34.0080   39.5710 H   0  0  0  0  0  0  0  0  0  0  0  0
   39.6640   32.7520   39.2000 N   0  0  0  0  0  0  0  0  0  0  0  0
   36.9220   29.7720   35.4700 C   0  0  0  0  0  0  0  0  0  0  0  0
   36.3890   30.7640   34.8980 O   0  0  0  0  0  0  0  0  0  0  0  0
   37.3690   28.5900   34.8020 N   0  0  0  0  0  0  0  0  0  0  0  0
   37.9310   28.0200   34.1510 H   0  0  0  0  0  0  0  0  0  0  0  0
   36.8120   27.7860   35.1680 H   0  0  0  0  0  0  0  0  0  0  0  0
   36.5390   27.6930   40.2400 S   0  0  0  0  0  0  0  0  0  0  0  0
   36.5450   28.2810   41.9370 C   0  0  0  0  0  0  0  0  0  0  0  0
   37.4570   28.9250   42.0420 H   0  0  0  0  0  0  0  0  0  0  0  0
   35.6920   28.9730   42.0960 H   0  0  0  0  0  0  0  0  0  0  0  0
   36.6760   27.2120   42.9610 C   0  0  0  0  0  0  0  0  0  0  0  0
   36.0280   26.3520   42.6780 H   0  0  0  0  0  0  0  0  0  0  0  0
   36.3620   27.6020   43.9540 H   0  0  0  0  0  0  0  0  0  0  0  0
   37.1310   24.3810   41.9560 Cl  0  0  0  0  0  0  0  0  0  0  0  0
   38.3870   25.3960   42.5750 C   0  0  0  0  0  0  0  0  0  0  0  0
   38.0680   26.6820   43.0110 C   0  0  0  0  0  0  0  0  0  0  0  0
   39.1180   27.4420   43.4950 C   0  0  0  0  0  0  0  0  0  0  0  0
   40.4390   27.0420   43.5820 C   0  0  0  0  0  0  0  0  0  0  0  0
   40.7270   25.7780   43.1490 C   0  0  0  0  0  0  0  0  0  0  0  0
   42.3820   25.1970   43.2260 Cl  0  0  0  0  0  0  0  0  0  0  0  0
   39.7250   24.9820   42.6600 C   0  0  0  0  0  0  0  0  0  0  0  0
   38.8300   28.4430   43.8280 H   0  0  0  0  0  0  0  0  0  0  0  0
   41.1830   27.7310   43.9820 H   0  0  0  0  0  0  0  0  0  0  0  0
   39.9190   23.9670   42.3050 H   0  0  0  0  0  0  0  0  0  0  0  0
  1  2  1  0  0  0  0
  1 20  1  0  0  0  0
  2  7  1  0  0  0  0
  3  8  1  0  0  0  0
  3  2  2  0  0  0  0
  4  3  1  0  0  0  0
  5  4  2  0  0  0  0
  5  6  1  0  0  0  0
  6  1  2  0  0  0  0
  8  9  2  0  0  0  0
  9 10  1  0  0  0  0
  9 11  1  0  0  0  0
 12 13  1  0  0  0  0
 12 11  1  0  0  0  0
 14  8  1  0  0  0  0
 14 12  2  0  0  0  0
 15  5  1  0  0  0  0
 16 15  2  0  0  0  0
 17 19  1  0  0  0  0
 17 15  1  0  0  0  0
 18 17  1  0  0  0  0
 20 21  1  0  0  0  0
 21 22  1  0  0  0  0
 21 23  1  0  0  0  0
 21 24  1  0  0  0  0
 24 29  1  0  0  0  0
 24 26  1  0  0  0  0
 25 24  1  0  0  0  0
 27 28  1  0  0  0  0
 28 34  2  0  0  0  0
 28 29  1  0  0  0  0
 29 30  2  0  0  0  0
 30 31  1  0  0  0  0
 30 35  1  0  0  0  0
 31 36  1  0  0  0  0
 32 33  1  0  0  0  0
 32 31  2  0  0  0  0
 34 32  1  0  0  0  0
 37 34  1  0  0  0  0
M  END
>  <minimizedAffinity>
-5.84902573

$$$$

 OpenBabel03242515063D

 37 39  0  0  0  0  0  0  0  0999 V2000
   37.4500   30.2110   40.1060 C   0  0  0  0  0  0  0  0  0  0  0  0
   36.6750   29.6530   39.0860 C   0  0  0  0  0  0  0  0  0  0  0  0
   36.9560   29.9630   37.7500 C   0  0  0  0  0  0  0  0  0  0  0  0
   37.9940   30.8120   37.5370 N   0  0  0  0  0  0  0  0  0  0  0  0
   38.7380   31.3490   38.5180 C   0  0  0  0  0  0  0  0  0  0  0  0
   38.4450   31.0330   39.7710 N   0  0  0  0  0  0  0  0  0  0  0  0
   35.8620   28.9830   39.3100 H   0  0  0  0  0  0  0  0  0  0  0  0
   36.1740   29.4050   36.6340 C   0  0  0  0  0  0  0  0  0  0  0  0
   36.7630   29.1920   35.3850 C   0  0  0  0  0  0  0  0  0  0  0  0
   37.8500   29.4150   35.1050 H   0  0  0  0  0  0  0  0  0  0  0  0
   35.3370   28.4960   34.4100 S   0  0  0  0  0  0  0  0  0  0  0  0
   34.2000   28.6320   35.9210 C   0  0  0  0  0  0  0  0  0  0  0  0
   33.1360   28.3380   35.9380 H   0  0  0  0  0  0  0  0  0  0  0  0
   34.8990   29.0750   36.7320 N   0  0  0  0  0  0  0  0  0  0  0  0
   39.8090   32.2360   38.1250 C   0  0  0  0  0  0  0  0  0  0  0  0
   40.4130   32.8560   39.0450 O   0  0  0  0  0  0  0  0  0  0  0  0
   40.1090   32.3510   36.7330 N   0  0  0  0  0  0  0  0  0  0  0  0
   40.6750   32.2810   35.8730 H   0  0  0  0  0  0  0  0  0  0  0  0
   39.2660   32.7380   36.2550 H   0  0  0  0  0  0  0  0  0  0  0  0
   37.0170   29.7600   41.7710 S   0  0  0  0  0  0  0  0  0  0  0  0
   36.3240   28.1070   41.8850 C   0  0  0  0  0  0  0  0  0  0  0  0
   35.2100   28.2330   41.8780 H   0  0  0  0  0  0  0  0  0  0  0  0
   36.5490   27.5420   40.9560 H   0  0  0  0  0  0  0  0  0  0  0  0
   36.6480   27.3860   43.1430 C   0  0  0  0  0  0  0  0  0  0  0  0
   35.9490   26.5290   43.2660 H   0  0  0  0  0  0  0  0  0  0  0  0
   36.5460   28.0750   44.0100 H   0  0  0  0  0  0  0  0  0  0  0  0
   36.9370   24.6260   41.9050 Cl  0  0  0  0  0  0  0  0  0  0  0  0
   38.2620   25.5390   42.5410 C   0  0  0  0  0  0  0  0  0  0  0  0
   38.0180   26.7980   43.0890 C   0  0  0  0  0  0  0  0  0  0  0  0
   39.1190   27.4750   43.5810 C   0  0  0  0  0  0  0  0  0  0  0  0
   40.4240   27.0170   43.5760 C   0  0  0  0  0  0  0  0  0  0  0  0
   40.6380   25.7800   43.0340 C   0  0  0  0  0  0  0  0  0  0  0  0
   42.2670   25.1290   42.9900 Cl  0  0  0  0  0  0  0  0  0  0  0  0
   39.5820   25.0660   42.5320 C   0  0  0  0  0  0  0  0  0  0  0  0
   38.8890   28.4580   44.0020 H   0  0  0  0  0  0  0  0  0  0  0  0
   41.2140   27.6420   43.9920 H   0  0  0  0  0  0  0  0  0  0  0  0
   39.7160   24.0750   42.0920 H   0  0  0  0  0  0  0  0  0  0  0  0
  1 20  1  0  0  0  0
  2  7  1  0  0  0  0
  2  1  2  0  0  0  0
  3  2  1  0  0  0  0
  4  3  2  0  0  0  0
  4  5  1  0  0  0  0
  5  6  2  0  0  0  0
  6  1  1  0  0  0  0
  8 14  1  0  0  0  0
  8  3  1  0  0  0  0
  9  8  2  0  0  0  0
 10  9  1  0  0  0  0
 11  9  1  0  0  0  0
 11 12  1  0  0  0  0
 12 13  1  0  0  0  0
 12 14  2  0  0  0  0
 15  5  1  0  0  0  0
 15 16  2  0  0  0  0
 17 15  1  0  0  0  0
 18 17  1  0  0  0  0
 19 17  1  0  0  0  0
 20 21  1  0  0  0  0
 21 24  1  0  0  0  0
 22 21  1  0  0  0  0
 23 21  1  0  0  0  0
 24 25  1  0  0  0  0
 24 26  1  0  0  0  0
 27 28  1  0  0  0  0
 28 29  1  0  0  0  0
 29 24  1  0  0  0  0
 29 30  2  0  0  0  0
 30 35  1  0  0  0  0
 31 30  1  0  0  0  0
 31 36  1  0  0  0  0
 32 31  2  0  0  0  0
 33 32  1  0  0  0  0
 34 28  2  0  0  0  0
 34 32  1  0  0  0  0
 37 34  1  0  0  0  0
M  END
>  <minimizedAffinity>
-5.80872726

$$$$

 OpenBabel03242515063D

 37 39  0  0  0  0  0  0  0  0999 V2000
   40.0880   31.2120   41.5890 C   0  0  0  0  0  0  0  0  0  0  0  0
   41.4070   31.6570   41.4710 C   0  0  0  0  0  0  0  0  0  0  0  0
   41.6690   32.9180   40.9250 C   0  0  0  0  0  0  0  0  0  0  0  0
   40.5870   33.6400   40.5370 N   0  0  0  0  0  0  0  0  0  0  0  0
   39.3190   33.2120   40.6500 C   0  0  0  0  0  0  0  0  0  0  0  0
   39.1080   32.0130   41.1710 N   0  0  0  0  0  0  0  0  0  0  0  0
   42.2310   31.0430   41.7960 H   0  0  0  0  0  0  0  0  0  0  0  0
   43.0390   33.4390   40.7770 C   0  0  0  0  0  0  0  0  0  0  0  0
   43.7760   33.8380   41.8950 C   0  0  0  0  0  0  0  0  0  0  0  0
   43.4220   33.8090   42.9830 H   0  0  0  0  0  0  0  0  0  0  0  0
   45.3760   34.3860   41.1140 S   0  0  0  0  0  0  0  0  0  0  0  0
   44.7150   33.9560   39.3910 C   0  0  0  0  0  0  0  0  0  0  0  0
   45.2790   34.0840   38.4490 H   0  0  0  0  0  0  0  0  0  0  0  0
   43.6490   33.5610   39.6120 N   0  0  0  0  0  0  0  0  0  0  0  0
   38.2770   34.1020   40.1890 C   0  0  0  0  0  0  0  0  0  0  0  0
   38.5690   35.3260   40.0800 O   0  0  0  0  0  0  0  0  0  0  0  0
   36.9980   33.5390   39.8890 N   0  0  0  0  0  0  0  0  0  0  0  0
   36.1860   33.2790   39.3080 H   0  0  0  0  0  0  0  0  0  0  0  0
   36.6150   33.1290   40.7690 H   0  0  0  0  0  0  0  0  0  0  0  0
   39.8530   29.5950   42.2920 S   0  0  0  0  0  0  0  0  0  0  0  0
   38.2540   29.4070   43.0860 C   0  0  0  0  0  0  0  0  0  0  0  0
   38.3400   28.5130   43.7570 H   0  0  0  0  0  0  0  0  0  0  0  0
   38.0760   30.2600   43.7750 H   0  0  0  0  0  0  0  0  0  0  0  0
   37.1320   29.1170   42.1560 C   0  0  0  0  0  0  0  0  0  0  0  0
   37.2530   29.7270   41.2330 H   0  0  0  0  0  0  0  0  0  0  0  0
   36.1640   29.3700   42.6430 H   0  0  0  0  0  0  0  0  0  0  0  0
   37.4560   28.5750   39.1840 Cl  0  0  0  0  0  0  0  0  0  0  0  0
   37.2950   27.3330   40.3770 C   0  0  0  0  0  0  0  0  0  0  0  0
   37.1510   27.6930   41.7170 C   0  0  0  0  0  0  0  0  0  0  0  0
   37.0270   26.6530   42.6200 C   0  0  0  0  0  0  0  0  0  0  0  0
   37.0330   25.3040   42.3120 C   0  0  0  0  0  0  0  0  0  0  0  0
   37.1760   24.9760   40.9930 C   0  0  0  0  0  0  0  0  0  0  0  0
   37.1940   23.2850   40.5220 Cl  0  0  0  0  0  0  0  0  0  0  0  0
   37.3030   25.9680   40.0560 C   0  0  0  0  0  0  0  0  0  0  0  0
   36.9150   26.9720   43.6600 H   0  0  0  0  0  0  0  0  0  0  0  0
   36.9280   24.5710   43.1120 H   0  0  0  0  0  0  0  0  0  0  0  0
   37.4180   25.7420   38.9930 H   0  0  0  0  0  0  0  0  0  0  0  0
  1 20  1  0  0  0  0
  2  1  1  0  0  0  0
  2  7  1  0  0  0  0
  3  2  2  0  0  0  0
  4  5  2  0  0  0  0
  4  3  1  0  0  0  0
  5  6  1  0  0  0  0
  6  1  2  0  0  0  0
  8  3  1  0  0  0  0
  8  9  2  0  0  0  0
  9 10  1  0  0  0  0
 11  9  1  0  0  0  0
 12 14  2  0  0  0  0
 12 11  1  0  0  0  0
 13 12  1  0  0  0  0
 14  8  1  0  0  0  0
 15  5  1  0  0  0  0
 16 15  2  0  0  0  0
 17 15  1  0  0  0  0
 17 19  1  0  0  0  0
 18 17  1  0  0  0  0
 20 21  1  0  0  0  0
 21 22  1  0  0  0  0
 21 23  1  0  0  0  0
 24 26  1  0  0  0  0
 24 21  1  0  0  0  0
 25 24  1  0  0  0  0
 27 28  1  0  0  0  0
 28 29  1  0  0  0  0
 29 24  1  0  0  0  0
 29 30  2  0  0  0  0
 30 35  1  0  0  0  0
 31 30  1  0  0  0  0
 31 36  1  0  0  0  0
 32 31  2  0  0  0  0
 33 32  1  0  0  0  0
 34 28  2  0  0  0  0
 34 32  1  0  0  0  0
 37 34  1  0  0  0  0
M  END
>  <minimizedAffinity>
-5.77593613

$$$$

 OpenBabel03242515063D

 37 39  0  0  0  0  0  0  0  0999 V2000
   38.7290   30.2440   40.7980 C   0  0  0  0  0  0  0  0  0  0  0  0
   37.6090   29.7330   40.1380 C   0  0  0  0  0  0  0  0  0  0  0  0
   37.3670   30.0820   38.8050 C   0  0  0  0  0  0  0  0  0  0  0  0
   38.2690   30.9200   38.2310 N   0  0  0  0  0  0  0  0  0  0  0  0
   39.3460   31.4110   38.8660 C   0  0  0  0  0  0  0  0  0  0  0  0
   39.5440   31.0600   40.1280 N   0  0  0  0  0  0  0  0  0  0  0  0
   36.9230   29.0710   40.6410 H   0  0  0  0  0  0  0  0  0  0  0  0
   36.2030   29.5740   38.0600 C   0  0  0  0  0  0  0  0  0  0  0  0
   36.2350   29.4740   36.6660 C   0  0  0  0  0  0  0  0  0  0  0  0
   37.1130   29.7590   35.9890 H   0  0  0  0  0  0  0  0  0  0  0  0
   34.5410   28.7930   36.2990 S   0  0  0  0  0  0  0  0  0  0  0  0
   34.1160   28.7760   38.1450 C   0  0  0  0  0  0  0  0  0  0  0  0
   33.1530   28.4390   38.5680 H   0  0  0  0  0  0  0  0  0  0  0  0
   35.0810   29.1870   38.6380 N   0  0  0  0  0  0  0  0  0  0  0  0
   40.2110   32.2930   38.1150 C   0  0  0  0  0  0  0  0  0  0  0  0
   41.0980   32.9190   38.7590 O   0  0  0  0  0  0  0  0  0  0  0  0
   40.0050   32.3930   36.7040 N   0  0  0  0  0  0  0  0  0  0  0  0
   40.2340   32.3140   35.7010 H   0  0  0  0  0  0  0  0  0  0  0  0
   39.0470   32.7780   36.5480 H   0  0  0  0  0  0  0  0  0  0  0  0
   38.9510   29.7470   42.4910 S   0  0  0  0  0  0  0  0  0  0  0  0
   37.5000   28.9390   43.1740 C   0  0  0  0  0  0  0  0  0  0  0  0
   37.0300   29.6790   43.8740 H   0  0  0  0  0  0  0  0  0  0  0  0
   36.7440   28.7890   42.3740 H   0  0  0  0  0  0  0  0  0  0  0  0
   37.7900   27.7300   43.9870 C   0  0  0  0  0  0  0  0  0  0  0  0
   36.9070   27.4940   44.6230 H   0  0  0  0  0  0  0  0  0  0  0  0
   38.6750   27.9150   44.6340 H   0  0  0  0  0  0  0  0  0  0  0  0
   40.5470   26.4520   44.0210 Cl  0  0  0  0  0  0  0  0  0  0  0  0
   39.2300   25.8740   43.0600 C   0  0  0  0  0  0  0  0  0  0  0  0
   38.0040   26.5360   43.1190 C   0  0  0  0  0  0  0  0  0  0  0  0
   36.9930   26.0240   42.3260 C   0  0  0  0  0  0  0  0  0  0  0  0
   37.0920   24.9260   41.4910 C   0  0  0  0  0  0  0  0  0  0  0  0
   38.3030   24.2940   41.4490 C   0  0  0  0  0  0  0  0  0  0  0  0
   38.5090   22.8920   40.4140 Cl  0  0  0  0  0  0  0  0  0  0  0  0
   39.3390   24.7600   42.2150 C   0  0  0  0  0  0  0  0  0  0  0  0
   36.0470   26.5690   42.3980 H   0  0  0  0  0  0  0  0  0  0  0  0
   36.2240   24.6130   40.9110 H   0  0  0  0  0  0  0  0  0  0  0  0
   40.3210   24.2790   42.2070 H   0  0  0  0  0  0  0  0  0  0  0  0
  1 20  1  0  0  0  0
  2  7  1  0  0  0  0
  2  1  1  0  0  0  0
  3  2  2  0  0  0  0
  4  3  1  0  0  0  0
  4  5  2  0  0  0  0
  5  6  1  0  0  0  0
  6  1  2  0  0  0  0
  8 14  1  0  0  0  0
  8  3  1  0  0  0  0
  9  8  2  0  0  0  0
 10  9  1  0  0  0  0
 11  9  1  0  0  0  0
 11 12  1  0  0  0  0
 12 13  1  0  0  0  0
 12 14  2  0  0  0  0
 15 16  2  0  0  0  0
 15  5  1  0  0  0  0
 17 15  1  0  0  0  0
 18 17  1  0  0  0  0
 19 17  1  0  0  0  0
 20 21  1  0  0  0  0
 21 22  1  0  0  0  0
 21 24  1  0  0  0  0
 23 21  1  0  0  0  0
 24 25  1  0  0  0  0
 24 26  1  0  0  0  0
 28 29  1  0  0  0  0
 28 27  1  0  0  0  0
 29 24  1  0  0  0  0
 30 35  1  0  0  0  0
 30 29  2  0  0  0  0
 31 30  1  0  0  0  0
 32 31  2  0  0  0  0
 32 34  1  0  0  0  0
 33 32  1  0  0  0  0
 34 28  2  0  0  0  0
 36 31  1  0  0  0  0
 37 34  1  0  0  0  0
M  END
>  <minimizedAffinity>
-5.73642015

$$$$

 OpenBabel03242515063D

 37 39  0  0  0  0  0  0  0  0999 V2000
   39.7670   29.4870   39.4280 C   0  0  0  0  0  0  0  0  0  0  0  0
   40.2020   30.8140   39.4380 C   0  0  0  0  0  0  0  0  0  0  0  0
   39.3360   31.8270   39.8630 C   0  0  0  0  0  0  0  0  0  0  0  0
   38.0940   31.4320   40.2470 N   0  0  0  0  0  0  0  0  0  0  0  0
   37.6760   30.1560   40.2370 C   0  0  0  0  0  0  0  0  0  0  0  0
   38.5230   29.2230   39.8290 N   0  0  0  0  0  0  0  0  0  0  0  0
   41.2000   31.0740   39.1230 H   0  0  0  0  0  0  0  0  0  0  0  0
   39.7400   33.2430   39.8940 C   0  0  0  0  0  0  0  0  0  0  0  0
   40.9730   33.6460   39.3740 C   0  0  0  0  0  0  0  0  0  0  0  0
   41.7590   32.9640   38.8950 H   0  0  0  0  0  0  0  0  0  0  0  0
   40.9300   35.4820   39.6830 S   0  0  0  0  0  0  0  0  0  0  0  0
   39.2130   35.3380   40.4730 C   0  0  0  0  0  0  0  0  0  0  0  0
   38.6340   36.1850   40.8810 H   0  0  0  0  0  0  0  0  0  0  0  0
   38.9880   34.2030   40.4010 N   0  0  0  0  0  0  0  0  0  0  0  0
   36.3230   29.9000   40.6760 C   0  0  0  0  0  0  0  0  0  0  0  0
   35.8360   28.7640   40.4160 O   0  0  0  0  0  0  0  0  0  0  0  0
   35.6350   30.9420   41.3700 N   0  0  0  0  0  0  0  0  0  0  0  0
   35.1510   31.4030   42.1560 H   0  0  0  0  0  0  0  0  0  0  0  0
   35.5450   31.7540   40.7200 H   0  0  0  0  0  0  0  0  0  0  0  0
   40.9380   28.2700   38.8690 S   0  0  0  0  0  0  0  0  0  0  0  0
   40.3920   26.5870   39.1770 C   0  0  0  0  0  0  0  0  0  0  0  0
   39.2730   26.6050   39.1160 H   0  0  0  0  0  0  0  0  0  0  0  0
   40.7090   25.9310   38.3390 H   0  0  0  0  0  0  0  0  0  0  0  0
   40.7220   26.0670   40.5290 C   0  0  0  0  0  0  0  0  0  0  0  0
   41.7090   26.4720   40.8470 H   0  0  0  0  0  0  0  0  0  0  0  0
   40.7670   24.9560   40.5050 H   0  0  0  0  0  0  0  0  0  0  0  0
   41.6750   28.1220   42.5560 Cl  0  0  0  0  0  0  0  0  0  0  0  0
   40.0690   27.4800   42.5170 C   0  0  0  0  0  0  0  0  0  0  0  0
   39.7360   26.5390   41.5430 C   0  0  0  0  0  0  0  0  0  0  0  0
   38.4370   26.0660   41.5680 C   0  0  0  0  0  0  0  0  0  0  0  0
   37.4520   26.4410   42.4640 C   0  0  0  0  0  0  0  0  0  0  0  0
   37.8010   27.3640   43.4090 C   0  0  0  0  0  0  0  0  0  0  0  0
   36.6070   27.8920   44.5820 Cl  0  0  0  0  0  0  0  0  0  0  0  0
   39.0760   27.8660   43.4300 C   0  0  0  0  0  0  0  0  0  0  0  0
   38.2130   25.3310   40.7900 H   0  0  0  0  0  0  0  0  0  0  0  0
   36.4590   25.9990   42.3850 H   0  0  0  0  0  0  0  0  0  0  0  0
   39.3900   28.6040   44.1720 H   0  0  0  0  0  0  0  0  0  0  0  0
  1  2  2  0  0  0  0
  1  6  1  0  0  0  0
  2  3  1  0  0  0  0
  3  8  1  0  0  0  0
  3  4  2  0  0  0  0
  5  4  1  0  0  0  0
  5 15  1  0  0  0  0
  6  5  2  0  0  0  0
  7  2  1  0  0  0  0
  8 14  1  0  0  0  0
  9 11  1  0  0  0  0
  9  8  2  0  0  0  0
 10  9  1  0  0  0  0
 11 12  1  0  0  0  0
 12 13  1  0  0  0  0
 14 12  2  0  0  0  0
 15 17  1  0  0  0  0
 16 15  2  0  0  0  0
 17 18  1  0  0  0  0
 19 17  1  0  0  0  0
 20 21  1  0  0  0  0
 20  1  1  0  0  0  0
 21 24  1  0  0  0  0
 22 21  1  0  0  0  0
 23 21  1  0  0  0  0
 24 25  1  0  0  0  0
 24 29  1  0  0  0  0
 26 24  1  0  0  0  0
 28 27  1  0  0  0  0
 28 34  1  0  0  0  0
 29 30  1  0  0  0  0
 29 28  2  0  0  0  0
 30 31  2  0  0  0  0
 31 32  1  0  0  0  0
 32 34  2  0  0  0  0
 32 33  1  0  0  0  0
 34 37  1  0  0  0  0
 35 30  1  0  0  0  0
 36 31  1  0  0  0  0
M  END
>  <minimizedAffinity>
-5.7315836

$$$$
