
 OpenBabel03252508273D

 39 43  0  0  1  0  0  0  0  0999 V2000
   38.4260   29.2630   42.7200 C   0  0  1  0  0  0  0  0  0  0  0  0
   37.3980   28.8340   43.6790 C   0  0  0  0  0  0  0  0  0  0  0  0
   37.8740   27.9450   42.4640 C   0  0  2  0  0  0  0  0  0  0  0  0
   39.3520   29.4840   43.3620 H   0  0  0  0  0  0  0  0  0  0  0  0
   36.3760   29.2440   43.6510 H   0  0  0  0  0  0  0  0  0  0  0  0
   37.6070   28.2900   44.6100 H   0  0  0  0  0  0  0  0  0  0  0  0
   36.8890   27.7730   41.9310 H   0  0  0  0  0  0  0  0  0  0  0  0
   38.5620   26.6760   42.7150 C   0  0  0  0  0  0  0  0  0  0  0  0
   39.6280   26.4630   43.5320 C   0  0  0  0  0  0  0  0  0  0  0  0
   40.3380   25.2780   43.6520 C   0  0  0  0  0  0  0  0  0  0  0  0
   39.9020   24.2080   42.8460 C   0  0  0  0  0  0  0  0  0  0  0  0
   38.8120   24.3960   42.0020 C   0  0  0  0  0  0  0  0  0  0  0  0
   38.3810   23.3040   41.2750 C   0  0  0  0  0  0  0  0  0  0  0  0
   37.2550   23.4260   40.4730 C   0  0  0  0  0  0  0  0  0  0  0  0
   36.5660   24.6210   40.4000 C   0  0  0  0  0  0  0  0  0  0  0  0
   37.0390   25.6800   41.1420 C   0  0  0  0  0  0  0  0  0  0  0  0
   38.1590   25.6120   41.9480 C   0  0  0  0  0  0  0  0  0  0  0  0
   39.9270   27.3180   44.1350 H   0  0  0  0  0  0  0  0  0  0  0  0
   41.1800   25.1790   44.3260 H   0  0  0  0  0  0  0  0  0  0  0  0
   40.4300   23.2690   42.9060 H   0  0  0  0  0  0  0  0  0  0  0  0
   38.9400   22.3750   41.3520 H   0  0  0  0  0  0  0  0  0  0  0  0
   37.0070   22.4930   39.9400 H   0  0  0  0  0  0  0  0  0  0  0  0
   35.7370   24.5160   39.7420 H   0  0  0  0  0  0  0  0  0  0  0  0
   36.3160   26.4290   40.9910 H   0  0  0  0  0  0  0  0  0  0  0  0
   36.6580   31.5560   40.4370 C   0  0  0  0  0  0  0  0  0  0  0  0
   37.7210   32.3730   39.9280 C   0  0  0  0  0  0  0  0  0  0  0  0
   39.0460   32.0930   40.4110 C   0  0  0  0  0  0  0  0  0  0  0  0
   39.2170   31.1140   41.2900 N   0  0  0  0  0  0  0  0  0  0  0  0
   38.1670   30.3610   41.7490 C   0  0  0  0  0  0  0  0  0  0  0  0
   36.9260   30.5810   41.3300 N   0  0  0  0  0  0  0  0  0  0  0  0
   35.7220   31.8440   40.0160 H   0  0  0  0  0  0  0  0  0  0  0  0
   37.5780   33.1600   39.2220 H   0  0  0  0  0  0  0  0  0  0  0  0
   40.1220   32.9200   39.8900 C   0  0  0  0  0  0  0  0  0  0  0  0
   40.5450   32.6990   38.4960 C   0  0  0  0  0  0  0  0  0  0  0  0
   40.1220   31.9630   37.8010 H   0  0  0  0  0  0  0  0  0  0  0  0
   41.9200   33.9730   38.3070 S   0  0  0  0  0  0  0  0  0  0  0  0
   41.6570   34.5340   40.0980 C   0  0  0  0  0  0  0  0  0  0  0  0
   42.2010   35.3380   40.6770 H   0  0  0  0  0  0  0  0  0  0  0  0
   40.7960   33.8770   40.5260 N   0  0  0  0  0  0  0  0  0  0  0  0
  1  4  1  1  0  0  0
  1  2  1  0  0  0  0
  2  6  1  0  0  0  0
  3  7  1  6  0  0  0
  3  8  1  0  0  0  0
  3  1  1  0  0  0  0
  3  2  1  0  0  0  0
  5  2  1  0  0  0  0
  8  9  1  0  0  0  0
  9 10  2  0  0  0  0
  9 18  1  0  0  0  0
 10 19  1  0  0  0  0
 11 20  1  0  0  0  0
 11 10  1  0  0  0  0
 12 11  2  0  0  0  0
 13 21  1  0  0  0  0
 13 12  1  0  0  0  0
 14 13  2  0  0  0  0
 15 14  1  0  0  0  0
 15 16  2  0  0  0  0
 16 17  1  0  0  0  0
 17 12  1  0  0  0  0
 17  8  2  0  0  0  0
 22 14  1  0  0  0  0
 23 15  1  0  0  0  0
 24 16  1  0  0  0  0
 25 30  1  0  0  0  0
 26 27  1  0  0  0  0
 26 25  2  0  0  0  0
 27 28  2  0  0  0  0
 28 29  1  0  0  0  0
 29  1  1  0  0  0  0
 30 29  2  0  0  0  0
 31 25  1  0  0  0  0
 32 26  1  0  0  0  0
 33 27  1  0  0  0  0
 33 39  1  0  0  0  0
 34 33  2  0  0  0  0
 35 34  1  0  0  0  0
 36 34  1  0  0  0  0
 36 37  1  0  0  0  0
 37 39  2  0  0  0  0
 37 38  1  0  0  0  0
M  END
>  <minimizedAffinity>
-6.6000247

$$$$

 OpenBabel03252508273D

 39 43  0  0  1  0  0  0  0  0999 V2000
   38.4750   29.3410   42.0940 C   0  0  1  0  0  0  0  0  0  0  0  0
   37.7070   29.2160   43.3420 C   0  0  0  0  0  0  0  0  0  0  0  0
   37.8070   28.0640   42.2670 C   0  0  2  0  0  0  0  0  0  0  0  0
   39.5450   29.5850   42.4320 H   0  0  0  0  0  0  0  0  0  0  0  0
   36.7350   29.7170   43.4740 H   0  0  0  0  0  0  0  0  0  0  0  0
   38.1210   28.8450   44.2900 H   0  0  0  0  0  0  0  0  0  0  0  0
   36.7110   27.8950   42.0380 H   0  0  0  0  0  0  0  0  0  0  0  0
   38.4700   26.8030   42.6120 C   0  0  0  0  0  0  0  0  0  0  0  0
   39.4960   26.6220   43.4860 C   0  0  0  0  0  0  0  0  0  0  0  0
   40.1890   25.4390   43.6960 C   0  0  0  0  0  0  0  0  0  0  0  0
   39.7770   24.3330   42.9240 C   0  0  0  0  0  0  0  0  0  0  0  0
   38.7280   24.4880   42.0240 C   0  0  0  0  0  0  0  0  0  0  0  0
   38.3180   23.3650   41.3330 C   0  0  0  0  0  0  0  0  0  0  0  0
   37.2300   23.4560   40.4760 C   0  0  0  0  0  0  0  0  0  0  0  0
   36.5580   24.6520   40.3130 C   0  0  0  0  0  0  0  0  0  0  0  0
   37.0090   25.7430   41.0230 C   0  0  0  0  0  0  0  0  0  0  0  0
   38.0910   25.7050   41.8810 C   0  0  0  0  0  0  0  0  0  0  0  0
   39.7780   27.5030   44.0580 H   0  0  0  0  0  0  0  0  0  0  0  0
   40.9990   25.3660   44.4110 H   0  0  0  0  0  0  0  0  0  0  0  0
   40.2920   23.3950   43.0540 H   0  0  0  0  0  0  0  0  0  0  0  0
   38.8630   22.4360   41.4810 H   0  0  0  0  0  0  0  0  0  0  0  0
   36.9970   22.5000   39.9800 H   0  0  0  0  0  0  0  0  0  0  0  0
   35.7580   24.5220   39.6250 H   0  0  0  0  0  0  0  0  0  0  0  0
   36.3010   26.4890   40.8030 H   0  0  0  0  0  0  0  0  0  0  0  0
   37.7590   32.4160   40.1890 C   0  0  0  0  0  0  0  0  0  0  0  0
   37.1710   31.9080   38.9840 C   0  0  0  0  0  0  0  0  0  0  0  0
   37.0450   30.4800   38.8730 C   0  0  0  0  0  0  0  0  0  0  0  0
   37.4730   29.7170   39.8690 N   0  0  0  0  0  0  0  0  0  0  0  0
   38.0310   30.2500   41.0020 C   0  0  0  0  0  0  0  0  0  0  0  0
   38.1660   31.5620   41.1510 N   0  0  0  0  0  0  0  0  0  0  0  0
   37.8040   33.4810   40.1710 H   0  0  0  0  0  0  0  0  0  0  0  0
   36.8280   32.5260   38.1840 H   0  0  0  0  0  0  0  0  0  0  0  0
   36.4450   29.9680   37.6510 C   0  0  0  0  0  0  0  0  0  0  0  0
   35.1840   29.2160   37.7690 C   0  0  0  0  0  0  0  0  0  0  0  0
   34.6430   29.0000   38.6990 H   0  0  0  0  0  0  0  0  0  0  0  0
   34.8280   28.7820   35.9700 S   0  0  0  0  0  0  0  0  0  0  0  0
   36.4090   29.6780   35.4340 C   0  0  0  0  0  0  0  0  0  0  0  0
   36.8320   29.8090   34.3930 H   0  0  0  0  0  0  0  0  0  0  0  0
   36.8980   30.0920   36.4050 N   0  0  0  0  0  0  0  0  0  0  0  0
  1  3  1  0  0  0  0
  1  4  1  1  0  0  0
  1  2  1  0  0  0  0
  2  5  1  0  0  0  0
  2  6  1  0  0  0  0
  3  7  1  6  0  0  0
  3  8  1  0  0  0  0
  3  2  1  0  0  0  0
  8  9  1  0  0  0  0
  9 10  2  0  0  0  0
  9 18  1  0  0  0  0
 10 19  1  0  0  0  0
 11 20  1  0  0  0  0
 11 10  1  0  0  0  0
 12 11  2  0  0  0  0
 13 21  1  0  0  0  0
 13 12  1  0  0  0  0
 14 13  2  0  0  0  0
 15 14  1  0  0  0  0
 15 16  2  0  0  0  0
 16 17  1  0  0  0  0
 17 12  1  0  0  0  0
 17  8  2  0  0  0  0
 22 14  1  0  0  0  0
 23 15  1  0  0  0  0
 24 16  1  0  0  0  0
 25 30  1  0  0  0  0
 26 25  2  0  0  0  0
 27 26  1  0  0  0  0
 27 28  2  0  0  0  0
 28 29  1  0  0  0  0
 29 30  2  0  0  0  0
 29  1  1  0  0  0  0
 31 25  1  0  0  0  0
 32 26  1  0  0  0  0
 33 34  2  0  0  0  0
 33 27  1  0  0  0  0
 34 35  1  0  0  0  0
 36 34  1  0  0  0  0
 37 36  1  0  0  0  0
 37 39  2  0  0  0  0
 38 37  1  0  0  0  0
 39 33  1  0  0  0  0
M  END
>  <minimizedAffinity>
-6.34582043

$$$$

 OpenBabel03252508273D

 39 43  0  0  1  0  0  0  0  0999 V2000
   38.3110   29.3150   41.5060 C   0  0  1  0  0  0  0  0  0  0  0  0
   37.8390   29.1570   42.8900 C   0  0  0  0  0  0  0  0  0  0  0  0
   37.0750   28.5660   41.6410 C   0  0  2  0  0  0  0  0  0  0  0  0
   39.3660   28.8640   41.5030 H   0  0  0  0  0  0  0  0  0  0  0  0
   37.3690   29.9890   43.4370 H   0  0  0  0  0  0  0  0  0  0  0  0
   38.1220   28.3260   43.5500 H   0  0  0  0  0  0  0  0  0  0  0  0
   36.0590   29.0510   41.7670 H   0  0  0  0  0  0  0  0  0  0  0  0
   36.9440   27.1140   41.4880 C   0  0  0  0  0  0  0  0  0  0  0  0
   37.2430   26.1570   42.4070 C   0  0  0  0  0  0  0  0  0  0  0  0
   37.2320   24.7870   42.1900 C   0  0  0  0  0  0  0  0  0  0  0  0
   36.8760   24.3670   40.8930 C   0  0  0  0  0  0  0  0  0  0  0  0
   36.5620   25.3230   39.9340 C   0  0  0  0  0  0  0  0  0  0  0  0
   36.1600   24.8660   38.6940 C   0  0  0  0  0  0  0  0  0  0  0  0
   35.7690   25.7820   37.7270 C   0  0  0  0  0  0  0  0  0  0  0  0
   35.7780   27.1370   37.9940 C   0  0  0  0  0  0  0  0  0  0  0  0
   36.1900   27.5420   39.2450 C   0  0  0  0  0  0  0  0  0  0  0  0
   36.5950   26.6710   40.2370 C   0  0  0  0  0  0  0  0  0  0  0  0
   37.5120   26.5300   43.3930 H   0  0  0  0  0  0  0  0  0  0  0  0
   37.4820   24.0800   42.9720 H   0  0  0  0  0  0  0  0  0  0  0  0
   36.8580   23.3100   40.6820 H   0  0  0  0  0  0  0  0  0  0  0  0
   36.1600   23.7950   38.5110 H   0  0  0  0  0  0  0  0  0  0  0  0
   35.4720   25.3020   36.7800 H   0  0  0  0  0  0  0  0  0  0  0  0
   35.4460   27.6730   37.1380 H   0  0  0  0  0  0  0  0  0  0  0  0
   36.0290   28.5810   39.2330 H   0  0  0  0  0  0  0  0  0  0  0  0
   37.0740   32.4850   40.0860 C   0  0  0  0  0  0  0  0  0  0  0  0
   38.2650   33.0690   39.5400 C   0  0  0  0  0  0  0  0  0  0  0  0
   39.4840   32.3240   39.6930 C   0  0  0  0  0  0  0  0  0  0  0  0
   39.4510   31.1570   40.3220 N   0  0  0  0  0  0  0  0  0  0  0  0
   38.2860   30.6400   40.8280 C   0  0  0  0  0  0  0  0  0  0  0  0
   37.1350   31.2900   40.7100 N   0  0  0  0  0  0  0  0  0  0  0  0
   36.2300   33.1140   39.9190 H   0  0  0  0  0  0  0  0  0  0  0  0
   38.2870   34.0100   39.0360 H   0  0  0  0  0  0  0  0  0  0  0  0
   40.6890   32.9170   39.1350 C   0  0  0  0  0  0  0  0  0  0  0  0
   40.9680   32.6900   37.7070 C   0  0  0  0  0  0  0  0  0  0  0  0
   40.3490   32.1110   37.0100 H   0  0  0  0  0  0  0  0  0  0  0  0
   42.5850   33.6310   37.4790 S   0  0  0  0  0  0  0  0  0  0  0  0
   42.5610   34.1280   39.3070 C   0  0  0  0  0  0  0  0  0  0  0  0
   43.3080   34.7540   39.8810 H   0  0  0  0  0  0  0  0  0  0  0  0
   41.6000   33.6580   39.7640 N   0  0  0  0  0  0  0  0  0  0  0  0
  1  4  1  6  0  0  0
  1  3  1  0  0  0  0
  1  2  1  0  0  0  0
  2  5  1  0  0  0  0
  2  6  1  0  0  0  0
  3  7  1  6  0  0  0
  3  2  1  0  0  0  0
  8  3  1  0  0  0  0
  8  9  1  0  0  0  0
  9 18  1  0  0  0  0
 10  9  2  0  0  0  0
 10 19  1  0  0  0  0
 11 10  1  0  0  0  0
 12 17  1  0  0  0  0
 12 11  2  0  0  0  0
 13 12  1  0  0  0  0
 14 15  1  0  0  0  0
 14 13  2  0  0  0  0
 15 16  2  0  0  0  0
 16 17  1  0  0  0  0
 17  8  2  0  0  0  0
 20 11  1  0  0  0  0
 21 13  1  0  0  0  0
 22 14  1  0  0  0  0
 23 15  1  0  0  0  0
 24 16  1  0  0  0  0
 25 30  1  0  0  0  0
 26 27  1  0  0  0  0
 26 25  2  0  0  0  0
 27 28  2  0  0  0  0
 28 29  1  0  0  0  0
 29  1  1  0  0  0  0
 30 29  2  0  0  0  0
 31 25  1  0  0  0  0
 32 26  1  0  0  0  0
 33 27  1  0  0  0  0
 33 39  1  0  0  0  0
 34 33  2  0  0  0  0
 35 34  1  0  0  0  0
 36 34  1  0  0  0  0
 36 37  1  0  0  0  0
 37 39  2  0  0  0  0
 37 38  1  0  0  0  0
M  END
>  <minimizedAffinity>
-6.18439817

$$$$

 OpenBabel03252508273D

 39 43  0  0  1  0  0  0  0  0999 V2000
   37.5610   31.4080   40.8520 C   0  0  1  0  0  0  0  0  0  0  0  0
   36.5540   30.8390   39.9440 C   0  0  0  0  0  0  0  0  0  0  0  0
   37.7150   29.9880   40.5940 C   0  0  2  0  0  0  0  0  0  0  0  0
   36.9540   31.8670   41.7120 H   0  0  0  0  0  0  0  0  0  0  0  0
   36.5900   31.0180   38.8580 H   0  0  0  0  0  0  0  0  0  0  0  0
   35.5920   30.4200   40.2690 H   0  0  0  0  0  0  0  0  0  0  0  0
   38.2150   29.5720   39.6660 H   0  0  0  0  0  0  0  0  0  0  0  0
   37.3910   28.9160   41.5390 C   0  0  0  0  0  0  0  0  0  0  0  0
   37.3210   29.0050   42.8940 C   0  0  0  0  0  0  0  0  0  0  0  0
   37.1390   27.9460   43.7710 C   0  0  0  0  0  0  0  0  0  0  0  0
   37.0180   26.6690   43.1870 C   0  0  0  0  0  0  0  0  0  0  0  0
   37.0830   26.5490   41.8030 C   0  0  0  0  0  0  0  0  0  0  0  0
   36.9000   25.2880   41.2690 C   0  0  0  0  0  0  0  0  0  0  0  0
   36.8870   25.1310   39.8910 C   0  0  0  0  0  0  0  0  0  0  0  0
   37.0520   26.2180   39.0550 C   0  0  0  0  0  0  0  0  0  0  0  0
   37.2350   27.4530   39.6370 C   0  0  0  0  0  0  0  0  0  0  0  0
   37.2640   27.6590   41.0020 C   0  0  0  0  0  0  0  0  0  0  0  0
   37.4190   30.0100   43.2980 H   0  0  0  0  0  0  0  0  0  0  0  0
   37.0920   28.0900   44.8440 H   0  0  0  0  0  0  0  0  0  0  0  0
   36.8780   25.8180   43.8350 H   0  0  0  0  0  0  0  0  0  0  0  0
   36.7690   24.4500   41.9500 H   0  0  0  0  0  0  0  0  0  0  0  0
   36.7350   24.0830   39.5820 H   0  0  0  0  0  0  0  0  0  0  0  0
   37.0100   25.8990   38.0410 H   0  0  0  0  0  0  0  0  0  0  0  0
   37.2500   28.1120   38.8170 H   0  0  0  0  0  0  0  0  0  0  0  0
   39.4420   34.5220   40.2500 C   0  0  0  0  0  0  0  0  0  0  0  0
   40.5120   34.0830   39.4030 C   0  0  0  0  0  0  0  0  0  0  0  0
   40.5450   32.6860   39.0680 C   0  0  0  0  0  0  0  0  0  0  0  0
   39.6040   31.8860   39.5500 N   0  0  0  0  0  0  0  0  0  0  0  0
   38.6000   32.3530   40.3580 C   0  0  0  0  0  0  0  0  0  0  0  0
   38.5260   33.6350   40.6940 N   0  0  0  0  0  0  0  0  0  0  0  0
   39.5080   35.5700   40.4360 H   0  0  0  0  0  0  0  0  0  0  0  0
   41.2680   34.7310   39.0190 H   0  0  0  0  0  0  0  0  0  0  0  0
   41.6300   32.2440   38.2070 C   0  0  0  0  0  0  0  0  0  0  0  0
   41.4270   31.0130   37.4240 C   0  0  0  0  0  0  0  0  0  0  0  0
   40.5260   30.3860   37.4240 H   0  0  0  0  0  0  0  0  0  0  0  0
   43.0650   30.8720   36.5020 S   0  0  0  0  0  0  0  0  0  0  0  0
   43.6790   32.4590   37.3350 C   0  0  0  0  0  0  0  0  0  0  0  0
   44.6730   32.9840   37.2150 H   0  0  0  0  0  0  0  0  0  0  0  0
   42.8180   32.8220   38.0280 N   0  0  0  0  0  0  0  0  0  0  0  0
  1  4  1  1  0  0  0
  2  6  1  0  0  0  0
  2  3  1  0  0  0  0
  2  1  1  0  0  0  0
  3  7  1  6  0  0  0
  3  1  1  0  0  0  0
  3  8  1  0  0  0  0
  5  2  1  0  0  0  0
  8  9  1  0  0  0  0
  9 18  1  0  0  0  0
  9 10  2  0  0  0  0
 10 19  1  0  0  0  0
 11 10  1  0  0  0  0
 11 20  1  0  0  0  0
 12 11  2  0  0  0  0
 13 12  1  0  0  0  0
 13 21  1  0  0  0  0
 14 13  2  0  0  0  0
 15 16  2  0  0  0  0
 15 14  1  0  0  0  0
 16 17  1  0  0  0  0
 17  8  2  0  0  0  0
 17 12  1  0  0  0  0
 22 14  1  0  0  0  0
 23 15  1  0  0  0  0
 24 16  1  0  0  0  0
 25 31  1  0  0  0  0
 25 30  1  0  0  0  0
 26 25  2  0  0  0  0
 27 26  1  0  0  0  0
 27 28  2  0  0  0  0
 28 29  1  0  0  0  0
 29 30  2  0  0  0  0
 29  1  1  0  0  0  0
 32 26  1  0  0  0  0
 33 27  1  0  0  0  0
 34 33  2  0  0  0  0
 35 34  1  0  0  0  0
 36 37  1  0  0  0  0
 36 34  1  0  0  0  0
 37 39  2  0  0  0  0
 38 37  1  0  0  0  0
 39 33  1  0  0  0  0
M  END
>  <minimizedAffinity>
-6.09252501

$$$$

 OpenBabel03252508273D

 39 43  0  0  1  0  0  0  0  0999 V2000
   39.1160   27.7370   42.7550 C   0  0  1  0  0  0  0  0  0  0  0  0
   37.9920   27.6370   43.6980 C   0  0  0  0  0  0  0  0  0  0  0  0
   37.8300   27.4700   42.1360 C   0  0  2  0  0  0  0  0  0  0  0  0
   39.8640   26.9400   43.1060 H   0  0  0  0  0  0  0  0  0  0  0  0
   37.5540   28.5300   44.1700 H   0  0  0  0  0  0  0  0  0  0  0  0
   37.6700   26.7050   44.1820 H   0  0  0  0  0  0  0  0  0  0  0  0
   37.0630   28.2730   41.9170 H   0  0  0  0  0  0  0  0  0  0  0  0
   37.4100   26.1800   41.5810 C   0  0  0  0  0  0  0  0  0  0  0  0
   37.6490   24.9440   42.0950 C   0  0  0  0  0  0  0  0  0  0  0  0
   37.3510   23.7360   41.4820 C   0  0  0  0  0  0  0  0  0  0  0  0
   36.7460   23.8160   40.2120 C   0  0  0  0  0  0  0  0  0  0  0  0
   36.4860   25.0670   39.6640 C   0  0  0  0  0  0  0  0  0  0  0  0
   35.8370   25.1010   38.4450 C   0  0  0  0  0  0  0  0  0  0  0  0
   35.4950   26.3270   37.8920 C   0  0  0  0  0  0  0  0  0  0  0  0
   35.7940   27.5050   38.5480 C   0  0  0  0  0  0  0  0  0  0  0  0
   36.4450   27.4170   39.7590 C   0  0  0  0  0  0  0  0  0  0  0  0
   36.8140   26.2230   40.3460 C   0  0  0  0  0  0  0  0  0  0  0  0
   38.1180   24.9330   43.0760 H   0  0  0  0  0  0  0  0  0  0  0  0
   37.5710   22.7840   41.9510 H   0  0  0  0  0  0  0  0  0  0  0  0
   36.5010   22.8990   39.7000 H   0  0  0  0  0  0  0  0  0  0  0  0
   35.6110   24.1590   37.9510 H   0  0  0  0  0  0  0  0  0  0  0  0
   34.9840   26.2290   36.9200 H   0  0  0  0  0  0  0  0  0  0  0  0
   35.4530   28.3320   37.9720 H   0  0  0  0  0  0  0  0  0  0  0  0
   36.4820   28.4150   40.0910 H   0  0  0  0  0  0  0  0  0  0  0  0
   41.6750   30.3900   42.7060 C   0  0  0  0  0  0  0  0  0  0  0  0
   41.0040   31.4620   42.0300 C   0  0  0  0  0  0  0  0  0  0  0  0
   39.6540   31.2150   41.6010 C   0  0  0  0  0  0  0  0  0  0  0  0
   39.1070   30.0320   41.8440 N   0  0  0  0  0  0  0  0  0  0  0  0
   39.7920   29.0370   42.4940 C   0  0  0  0  0  0  0  0  0  0  0  0
   41.0390   29.2180   42.9110 N   0  0  0  0  0  0  0  0  0  0  0  0
   42.6650   30.6750   42.9820 H   0  0  0  0  0  0  0  0  0  0  0  0
   41.4480   32.4120   41.8350 H   0  0  0  0  0  0  0  0  0  0  0  0
   38.9740   32.3040   40.9190 C   0  0  0  0  0  0  0  0  0  0  0  0
   37.7590   31.9810   40.1510 C   0  0  0  0  0  0  0  0  0  0  0  0
   37.3070   30.9870   40.0420 H   0  0  0  0  0  0  0  0  0  0  0  0
   37.2700   33.6730   39.4790 S   0  0  0  0  0  0  0  0  0  0  0  0
   38.7630   34.4550   40.3440 C   0  0  0  0  0  0  0  0  0  0  0  0
   39.0910   35.5380   40.3520 H   0  0  0  0  0  0  0  0  0  0  0  0
   39.3150   33.5920   40.8940 N   0  0  0  0  0  0  0  0  0  0  0  0
  1  4  1  1  0  0  0
  1  2  1  0  0  0  0
  2  5  1  0  0  0  0
  2  6  1  0  0  0  0
  3  7  1  6  0  0  0
  3  1  1  0  0  0  0
  3  2  1  0  0  0  0
  8  9  1  0  0  0  0
  8  3  1  0  0  0  0
  9 18  1  0  0  0  0
 10 19  1  0  0  0  0
 10  9  2  0  0  0  0
 11 10  1  0  0  0  0
 12 11  2  0  0  0  0
 12 17  1  0  0  0  0
 13 12  1  0  0  0  0
 14 13  2  0  0  0  0
 14 15  1  0  0  0  0
 15 16  2  0  0  0  0
 16 24  1  0  0  0  0
 16 17  1  0  0  0  0
 17  8  2  0  0  0  0
 20 11  1  0  0  0  0
 21 13  1  0  0  0  0
 22 14  1  0  0  0  0
 23 15  1  0  0  0  0
 25 30  1  0  0  0  0
 25 31  1  0  0  0  0
 26 25  2  0  0  0  0
 27 28  2  0  0  0  0
 27 26  1  0  0  0  0
 28 29  1  0  0  0  0
 29  1  1  0  0  0  0
 29 30  2  0  0  0  0
 32 26  1  0  0  0  0
 33 27  1  0  0  0  0
 34 33  2  0  0  0  0
 35 34  1  0  0  0  0
 36 34  1  0  0  0  0
 36 37  1  0  0  0  0
 37 38  1  0  0  0  0
 37 39  2  0  0  0  0
 39 33  1  0  0  0  0
M  END
>  <minimizedAffinity>
-6.08347368

$$$$

 OpenBabel03252508273D

 39 43  0  0  1  0  0  0  0  0999 V2000
   34.3510   28.5640   37.3070 C   0  0  1  0  0  0  0  0  0  0  0  0
   33.5710   27.4530   36.7420 C   0  0  0  0  0  0  0  0  0  0  0  0
   32.9140   28.7700   37.3140 C   0  0  2  0  0  0  0  0  0  0  0  0
   35.0650   28.8790   36.4660 H   0  0  0  0  0  0  0  0  0  0  0  0
   33.4170   26.5160   37.2990 H   0  0  0  0  0  0  0  0  0  0  0  0
   33.3010   27.3620   35.6820 H   0  0  0  0  0  0  0  0  0  0  0  0
   32.2240   28.3370   38.1000 H   0  0  0  0  0  0  0  0  0  0  0  0
   32.1840   29.6690   36.4160 C   0  0  0  0  0  0  0  0  0  0  0  0
   32.5240   30.0210   35.1470 C   0  0  0  0  0  0  0  0  0  0  0  0
   31.8840   30.9730   34.3660 C   0  0  0  0  0  0  0  0  0  0  0  0
   30.7840   31.6240   34.9590 C   0  0  0  0  0  0  0  0  0  0  0  0
   30.4120   31.2820   36.2550 C   0  0  0  0  0  0  0  0  0  0  0  0
   29.2920   31.9010   36.7750 C   0  0  0  0  0  0  0  0  0  0  0  0
   28.8430   31.5400   38.0380 C   0  0  0  0  0  0  0  0  0  0  0  0
   29.5010   30.5720   38.7710 C   0  0  0  0  0  0  0  0  0  0  0  0
   30.6140   29.9880   38.2090 C   0  0  0  0  0  0  0  0  0  0  0  0
   31.1050   30.3180   36.9610 C   0  0  0  0  0  0  0  0  0  0  0  0
   33.3780   29.4920   34.7320 H   0  0  0  0  0  0  0  0  0  0  0  0
   32.2090   31.2030   33.3590 H   0  0  0  0  0  0  0  0  0  0  0  0
   30.2600   32.3740   34.3880 H   0  0  0  0  0  0  0  0  0  0  0  0
   28.7920   32.6580   36.1760 H   0  0  0  0  0  0  0  0  0  0  0  0
   27.9450   32.1010   38.3470 H   0  0  0  0  0  0  0  0  0  0  0  0
   29.0080   30.4330   39.7040 H   0  0  0  0  0  0  0  0  0  0  0  0
   30.8780   29.2430   38.9030 H   0  0  0  0  0  0  0  0  0  0  0  0
   35.6220   29.2960   40.6910 C   0  0  0  0  0  0  0  0  0  0  0  0
   36.4390   28.1520   40.9730 C   0  0  0  0  0  0  0  0  0  0  0  0
   36.5160   27.1400   39.9540 C   0  0  0  0  0  0  0  0  0  0  0  0
   35.8400   27.3100   38.8260 N   0  0  0  0  0  0  0  0  0  0  0  0
   35.0700   28.4230   38.6030 C   0  0  0  0  0  0  0  0  0  0  0  0
   34.9700   29.3840   39.5130 N   0  0  0  0  0  0  0  0  0  0  0  0
   35.6340   29.9830   41.5060 H   0  0  0  0  0  0  0  0  0  0  0  0
   36.9800   28.0190   41.8830 H   0  0  0  0  0  0  0  0  0  0  0  0
   37.3470   25.9830   40.2420 C   0  0  0  0  0  0  0  0  0  0  0  0
   36.6850   24.6700   40.3420 C   0  0  0  0  0  0  0  0  0  0  0  0
   35.6130   24.4750   40.2190 H   0  0  0  0  0  0  0  0  0  0  0  0
   38.1430   23.5350   40.7150 S   0  0  0  0  0  0  0  0  0  0  0  0
   39.3210   25.0180   40.6630 C   0  0  0  0  0  0  0  0  0  0  0  0
   40.4410   25.0400   40.8180 H   0  0  0  0  0  0  0  0  0  0  0  0
   38.6650   25.9510   40.4340 N   0  0  0  0  0  0  0  0  0  0  0  0
  1  4  1  6  0  0  0
  1  3  1  0  0  0  0
  1 29  1  0  0  0  0
  2  5  1  0  0  0  0
  2  1  1  0  0  0  0
  2  3  1  0  0  0  0
  3  7  1  1  0  0  0
  6  2  1  0  0  0  0
  8 17  1  0  0  0  0
  8  3  1  0  0  0  0
  9  8  2  0  0  0  0
 10 11  2  0  0  0  0
 10  9  1  0  0  0  0
 11 12  1  0  0  0  0
 12 13  2  0  0  0  0
 12 17  1  0  0  0  0
 13 14  1  0  0  0  0
 14 22  1  0  0  0  0
 14 15  2  0  0  0  0
 15 23  1  0  0  0  0
 16 15  1  0  0  0  0
 16 24  1  0  0  0  0
 17 16  2  0  0  0  0
 18  9  1  0  0  0  0
 19 10  1  0  0  0  0
 20 11  1  0  0  0  0
 21 13  1  0  0  0  0
 25 26  1  0  0  0  0
 25 31  1  0  0  0  0
 26 32  1  0  0  0  0
 27 33  1  0  0  0  0
 27 26  2  0  0  0  0
 28 27  1  0  0  0  0
 29 28  2  0  0  0  0
 29 30  1  0  0  0  0
 30 25  2  0  0  0  0
 33 34  2  0  0  0  0
 33 39  1  0  0  0  0
 34 36  1  0  0  0  0
 35 34  1  0  0  0  0
 37 36  1  0  0  0  0
 37 38  1  0  0  0  0
 39 37  2  0  0  0  0
M  END
>  <minimizedAffinity>
-6.01880789

$$$$

 OpenBabel03252508273D

 39 43  0  0  1  0  0  0  0  0999 V2000
   34.2320   28.8090   36.2840 C   0  0  1  0  0  0  0  0  0  0  0  0
   33.2500   27.7250   36.1310 C   0  0  0  0  0  0  0  0  0  0  0  0
   32.8940   29.1370   36.7420 C   0  0  2  0  0  0  0  0  0  0  0  0
   34.6360   28.9900   35.2250 H   0  0  0  0  0  0  0  0  0  0  0  0
   33.2440   26.8540   36.8050 H   0  0  0  0  0  0  0  0  0  0  0  0
   32.6340   27.5690   35.2350 H   0  0  0  0  0  0  0  0  0  0  0  0
   32.4870   28.8310   37.7540 H   0  0  0  0  0  0  0  0  0  0  0  0
   31.9520   30.0160   36.0440 C   0  0  0  0  0  0  0  0  0  0  0  0
   32.0670   30.5120   34.7830 C   0  0  0  0  0  0  0  0  0  0  0  0
   31.2240   31.4440   34.1940 C   0  0  0  0  0  0  0  0  0  0  0  0
   30.1590   31.9080   34.9910 C   0  0  0  0  0  0  0  0  0  0  0  0
   30.0150   31.4160   36.2830 C   0  0  0  0  0  0  0  0  0  0  0  0
   28.9220   31.8510   37.0080 C   0  0  0  0  0  0  0  0  0  0  0  0
   28.6990   31.3340   38.2760 C   0  0  0  0  0  0  0  0  0  0  0  0
   29.5540   30.3920   38.8140 C   0  0  0  0  0  0  0  0  0  0  0  0
   30.6310   29.9930   38.0520 C   0  0  0  0  0  0  0  0  0  0  0  0
   30.9000   30.4840   36.7900 C   0  0  0  0  0  0  0  0  0  0  0  0
   32.9040   30.1250   34.2070 H   0  0  0  0  0  0  0  0  0  0  0  0
   31.3760   31.7960   33.1810 H   0  0  0  0  0  0  0  0  0  0  0  0
   29.4820   32.6370   34.5720 H   0  0  0  0  0  0  0  0  0  0  0  0
   28.2640   32.5920   36.5590 H   0  0  0  0  0  0  0  0  0  0  0  0
   27.8020   31.7560   38.7570 H   0  0  0  0  0  0  0  0  0  0  0  0
   29.2180   30.1170   39.7850 H   0  0  0  0  0  0  0  0  0  0  0  0
   31.0690   29.2290   38.6270 H   0  0  0  0  0  0  0  0  0  0  0  0
   36.7880   27.4010   38.5370 C   0  0  0  0  0  0  0  0  0  0  0  0
   37.3550   28.5720   39.1390 C   0  0  0  0  0  0  0  0  0  0  0  0
   36.8180   29.8400   38.7260 C   0  0  0  0  0  0  0  0  0  0  0  0
   35.8460   29.8650   37.8250 N   0  0  0  0  0  0  0  0  0  0  0  0
   35.3370   28.7160   37.2760 C   0  0  0  0  0  0  0  0  0  0  0  0
   35.7990   27.5220   37.6270 N   0  0  0  0  0  0  0  0  0  0  0  0
   37.2530   26.5170   38.9110 H   0  0  0  0  0  0  0  0  0  0  0  0
   38.1390   28.5480   39.8630 H   0  0  0  0  0  0  0  0  0  0  0  0
   37.3930   31.0260   39.3410 C   0  0  0  0  0  0  0  0  0  0  0  0
   38.5110   30.8390   40.2810 C   0  0  0  0  0  0  0  0  0  0  0  0
   38.9620   29.8810   40.5680 H   0  0  0  0  0  0  0  0  0  0  0  0
   38.8870   32.6150   40.7870 S   0  0  0  0  0  0  0  0  0  0  0  0
   37.4970   33.2380   39.6590 C   0  0  0  0  0  0  0  0  0  0  0  0
   37.1560   34.3000   39.4750 H   0  0  0  0  0  0  0  0  0  0  0  0
   37.0300   32.2960   39.1620 N   0  0  0  0  0  0  0  0  0  0  0  0
  1  4  1  6  0  0  0
  1  3  1  0  0  0  0
  1 29  1  0  0  0  0
  2  1  1  0  0  0  0
  2  3  1  0  0  0  0
  2  5  1  0  0  0  0
  3  7  1  1  0  0  0
  6  2  1  0  0  0  0
  8  3  1  0  0  0  0
  8 17  1  0  0  0  0
  9  8  2  0  0  0  0
 10  9  1  0  0  0  0
 10 11  2  0  0  0  0
 11 12  1  0  0  0  0
 12 17  2  0  0  0  0
 12 13  1  0  0  0  0
 13 14  2  0  0  0  0
 14 22  1  0  0  0  0
 14 15  1  0  0  0  0
 15 23  1  0  0  0  0
 16 24  1  0  0  0  0
 16 15  2  0  0  0  0
 17 16  1  0  0  0  0
 18  9  1  0  0  0  0
 19 10  1  0  0  0  0
 20 11  1  0  0  0  0
 21 13  1  0  0  0  0
 25 31  1  0  0  0  0
 25 26  1  0  0  0  0
 26 32  1  0  0  0  0
 27 26  2  0  0  0  0
 27 33  1  0  0  0  0
 28 27  1  0  0  0  0
 29 30  1  0  0  0  0
 29 28  2  0  0  0  0
 30 25  2  0  0  0  0
 33 34  2  0  0  0  0
 34 35  1  0  0  0  0
 34 36  1  0  0  0  0
 37 36  1  0  0  0  0
 38 37  1  0  0  0  0
 39 33  1  0  0  0  0
 39 37  2  0  0  0  0
M  END
>  <minimizedAffinity>
-5.8697753

$$$$

 OpenBabel03252508273D

 39 43  0  0  1  0  0  0  0  0999 V2000
   36.0860   28.7110   39.4780 C   0  0  1  0  0  0  0  0  0  0  0  0
   35.7590   29.8400   40.3610 C   0  0  0  0  0  0  0  0  0  0  0  0
   35.8240   28.3430   40.8580 C   0  0  2  0  0  0  0  0  0  0  0  0
   37.1160   28.9690   39.0420 H   0  0  0  0  0  0  0  0  0  0  0  0
   34.7740   30.3310   40.3280 H   0  0  0  0  0  0  0  0  0  0  0  0
   36.5020   30.4250   40.9210 H   0  0  0  0  0  0  0  0  0  0  0  0
   34.7830   28.2170   41.2850 H   0  0  0  0  0  0  0  0  0  0  0  0
   36.8410   27.9430   41.8350 C   0  0  0  0  0  0  0  0  0  0  0  0
   37.4690   28.7370   42.7430 C   0  0  0  0  0  0  0  0  0  0  0  0
   38.5190   28.3590   43.5670 C   0  0  0  0  0  0  0  0  0  0  0  0
   38.9610   27.0270   43.4380 C   0  0  0  0  0  0  0  0  0  0  0  0
   38.3350   26.1910   42.5200 C   0  0  0  0  0  0  0  0  0  0  0  0
   38.7590   24.8780   42.4680 C   0  0  0  0  0  0  0  0  0  0  0  0
   38.1160   23.9900   41.6170 C   0  0  0  0  0  0  0  0  0  0  0  0
   37.0620   24.4070   40.8280 C   0  0  0  0  0  0  0  0  0  0  0  0
   36.6790   25.7280   40.9140 C   0  0  0  0  0  0  0  0  0  0  0  0
   37.2920   26.6510   41.7390 C   0  0  0  0  0  0  0  0  0  0  0  0
   37.0930   29.7550   42.8060 H   0  0  0  0  0  0  0  0  0  0  0  0
   38.9740   29.0460   44.2700 H   0  0  0  0  0  0  0  0  0  0  0  0
   39.7780   26.6940   44.0580 H   0  0  0  0  0  0  0  0  0  0  0  0
   39.5900   24.5760   43.1010 H   0  0  0  0  0  0  0  0  0  0  0  0
   38.5420   22.9740   41.6600 H   0  0  0  0  0  0  0  0  0  0  0  0
   36.7010   23.5890   40.2520 H   0  0  0  0  0  0  0  0  0  0  0  0
   35.8250   25.7770   40.3020 H   0  0  0  0  0  0  0  0  0  0  0  0
   34.5590   26.7000   36.7920 C   0  0  0  0  0  0  0  0  0  0  0  0
   33.4090   27.4780   36.4330 C   0  0  0  0  0  0  0  0  0  0  0  0
   33.1990   28.7010   37.1590 C   0  0  0  0  0  0  0  0  0  0  0  0
   34.0590   29.0420   38.1080 N   0  0  0  0  0  0  0  0  0  0  0  0
   35.1450   28.2630   38.4160 C   0  0  0  0  0  0  0  0  0  0  0  0
   35.3820   27.1270   37.7720 N   0  0  0  0  0  0  0  0  0  0  0  0
   34.6230   25.8180   36.1960 H   0  0  0  0  0  0  0  0  0  0  0  0
   32.7180   27.1980   35.6690 H   0  0  0  0  0  0  0  0  0  0  0  0
   32.0340   29.4890   36.7910 C   0  0  0  0  0  0  0  0  0  0  0  0
   31.8740   29.8560   35.3730 C   0  0  0  0  0  0  0  0  0  0  0  0
   32.5530   29.5890   34.5540 H   0  0  0  0  0  0  0  0  0  0  0  0
   30.2670   30.8410   35.4120 S   0  0  0  0  0  0  0  0  0  0  0  0
   30.1380   30.5690   37.2830 C   0  0  0  0  0  0  0  0  0  0  0  0
   29.3390   30.9280   37.9980 H   0  0  0  0  0  0  0  0  0  0  0  0
   31.0660   29.9380   37.5890 N   0  0  0  0  0  0  0  0  0  0  0  0
  1  4  1  6  0  0  0
  1  2  1  0  0  0  0
  1  3  1  0  0  0  0
  2  3  1  0  0  0  0
  2  6  1  0  0  0  0
  3  7  1  1  0  0  0
  3  8  1  0  0  0  0
  5  2  1  0  0  0  0
  8  9  1  0  0  0  0
  9 18  1  0  0  0  0
  9 10  2  0  0  0  0
 10 19  1  0  0  0  0
 11 10  1  0  0  0  0
 11 20  1  0  0  0  0
 12 11  2  0  0  0  0
 13 12  1  0  0  0  0
 13 21  1  0  0  0  0
 14 22  1  0  0  0  0
 14 13  2  0  0  0  0
 15 16  2  0  0  0  0
 15 14  1  0  0  0  0
 16 17  1  0  0  0  0
 17  8  2  0  0  0  0
 17 12  1  0  0  0  0
 23 15  1  0  0  0  0
 24 16  1  0  0  0  0
 25 30  1  0  0  0  0
 26 25  2  0  0  0  0
 26 27  1  0  0  0  0
 27 28  2  0  0  0  0
 28 29  1  0  0  0  0
 29  1  1  0  0  0  0
 30 29  2  0  0  0  0
 31 25  1  0  0  0  0
 32 26  1  0  0  0  0
 33 27  1  0  0  0  0
 33 39  1  0  0  0  0
 34 36  1  0  0  0  0
 34 33  2  0  0  0  0
 35 34  1  0  0  0  0
 36 37  1  0  0  0  0
 37 39  2  0  0  0  0
 37 38  1  0  0  0  0
M  END
>  <minimizedAffinity>
-5.86263132

$$$$

 OpenBabel03252508273D

 39 43  0  0  1  0  0  0  0  0999 V2000
   36.4630   29.4390   39.4750 C   0  0  1  0  0  0  0  0  0  0  0  0
   35.7530   30.1710   40.5340 C   0  0  0  0  0  0  0  0  0  0  0  0
   35.9790   28.6090   40.5630 C   0  0  2  0  0  0  0  0  0  0  0  0
   37.4990   29.9310   39.4230 H   0  0  0  0  0  0  0  0  0  0  0  0
   34.7260   30.5420   40.3890 H   0  0  0  0  0  0  0  0  0  0  0  0
   36.2370   30.6090   41.4170 H   0  0  0  0  0  0  0  0  0  0  0  0
   34.9100   28.2440   40.6430 H   0  0  0  0  0  0  0  0  0  0  0  0
   36.8140   28.0130   41.6100 C   0  0  0  0  0  0  0  0  0  0  0  0
   37.3520   28.6390   42.6910 C   0  0  0  0  0  0  0  0  0  0  0  0
   38.2440   28.0800   43.5950 C   0  0  0  0  0  0  0  0  0  0  0  0
   38.6140   26.7420   43.3550 C   0  0  0  0  0  0  0  0  0  0  0  0
   38.0770   26.0760   42.2590 C   0  0  0  0  0  0  0  0  0  0  0  0
   38.4190   24.7480   42.0960 C   0  0  0  0  0  0  0  0  0  0  0  0
   37.8520   24.0240   41.0560 C   0  0  0  0  0  0  0  0  0  0  0  0
   36.9530   24.6170   40.1910 C   0  0  0  0  0  0  0  0  0  0  0  0
   36.6470   25.9450   40.3950 C   0  0  0  0  0  0  0  0  0  0  0  0
   37.1910   26.7090   41.4090 C   0  0  0  0  0  0  0  0  0  0  0  0
   37.0370   29.6700   42.8340 H   0  0  0  0  0  0  0  0  0  0  0  0
   38.6340   28.6390   44.4370 H   0  0  0  0  0  0  0  0  0  0  0  0
   39.3080   26.2710   44.0330 H   0  0  0  0  0  0  0  0  0  0  0  0
   39.1270   24.3050   42.7920 H   0  0  0  0  0  0  0  0  0  0  0  0
   38.2010   22.9790   41.0250 H   0  0  0  0  0  0  0  0  0  0  0  0
   36.6290   23.9060   39.4690 H   0  0  0  0  0  0  0  0  0  0  0  0
   35.8970   26.1370   39.6830 H   0  0  0  0  0  0  0  0  0  0  0  0
   36.1630   29.1680   35.8100 C   0  0  0  0  0  0  0  0  0  0  0  0
   34.7500   29.0080   35.6220 C   0  0  0  0  0  0  0  0  0  0  0  0
   33.9340   28.9940   36.8060 C   0  0  0  0  0  0  0  0  0  0  0  0
   34.5160   29.1260   37.9900 N   0  0  0  0  0  0  0  0  0  0  0  0
   35.8730   29.2760   38.1190 C   0  0  0  0  0  0  0  0  0  0  0  0
   36.6670   29.2960   37.0550 N   0  0  0  0  0  0  0  0  0  0  0  0
   36.6740   29.1660   34.8750 H   0  0  0  0  0  0  0  0  0  0  0  0
   34.2870   28.9010   34.6670 H   0  0  0  0  0  0  0  0  0  0  0  0
   32.5020   28.8350   36.6120 C   0  0  0  0  0  0  0  0  0  0  0  0
   32.0430   27.7090   35.7810 C   0  0  0  0  0  0  0  0  0  0  0  0
   32.6820   26.9660   35.2860 H   0  0  0  0  0  0  0  0  0  0  0  0
   30.1720   27.9310   35.8350 S   0  0  0  0  0  0  0  0  0  0  0  0
   30.3790   29.4580   36.9390 C   0  0  0  0  0  0  0  0  0  0  0  0
   29.5810   30.1300   37.3750 H   0  0  0  0  0  0  0  0  0  0  0  0
   31.5220   29.5950   37.1000 N   0  0  0  0  0  0  0  0  0  0  0  0
  1  4  1  1  0  0  0
  1  2  1  0  0  0  0
  1  3  1  0  0  0  0
  2  3  1  0  0  0  0
  2  6  1  0  0  0  0
  3  7  1  6  0  0  0
  3  8  1  0  0  0  0
  5  2  1  0  0  0  0
  8  9  1  0  0  0  0
  9 18  1  0  0  0  0
  9 10  2  0  0  0  0
 10 19  1  0  0  0  0
 11 10  1  0  0  0  0
 11 20  1  0  0  0  0
 12 11  2  0  0  0  0
 13 12  1  0  0  0  0
 13 21  1  0  0  0  0
 14 13  2  0  0  0  0
 15 16  2  0  0  0  0
 15 14  1  0  0  0  0
 16 17  1  0  0  0  0
 17  8  2  0  0  0  0
 17 12  1  0  0  0  0
 22 14  1  0  0  0  0
 23 15  1  0  0  0  0
 24 16  1  0  0  0  0
 25 30  1  0  0  0  0
 26 25  2  0  0  0  0
 26 27  1  0  0  0  0
 27 28  2  0  0  0  0
 28 29  1  0  0  0  0
 29  1  1  0  0  0  0
 30 29  2  0  0  0  0
 31 25  1  0  0  0  0
 32 26  1  0  0  0  0
 33 27  1  0  0  0  0
 33 39  1  0  0  0  0
 34 36  1  0  0  0  0
 34 33  2  0  0  0  0
 35 34  1  0  0  0  0
 36 37  1  0  0  0  0
 37 39  2  0  0  0  0
 37 38  1  0  0  0  0
M  END
>  <minimizedAffinity>
-5.8217206

$$$$
