
 OpenBabel03252504423D

 43 46  0  0  0  0  0  0  0  0999 V2000
   46.4580   32.1880   47.8470 C   0  0  0  0  0  0  0  0  0  0  0  0
   45.9950   31.6750   49.0280 C   0  0  0  0  0  0  0  0  0  0  0  0
   47.0420   31.0780   49.6090 N   0  0  0  0  0  0  0  0  0  0  0  0
   48.1400   31.1920   48.8510 C   0  0  0  0  0  0  0  0  0  0  0  0
   47.7540   31.8940   47.7450 N   0  0  0  0  0  0  0  0  0  0  0  0
   49.4640   30.7310   49.0430 N   0  0  0  0  0  0  0  0  0  0  0  0
   50.3950   31.5950   49.7890 C   0  0  0  0  0  0  0  0  0  0  0  0
   50.5110   30.9430   51.1640 C   0  0  0  0  0  0  0  0  0  0  0  0
   50.7680   29.4640   51.0200 C   0  0  0  0  0  0  0  0  0  0  0  0
   51.2180   29.1510   49.6090 C   0  0  0  0  0  0  0  0  0  0  0  0
   50.1340   29.5210   48.6360 C   0  0  0  0  0  0  0  0  0  0  0  0
   44.9880   31.7260   49.4360 H   0  0  0  0  0  0  0  0  0  0  0  0
   47.0360   30.5820   50.5300 H   0  0  0  0  0  0  0  0  0  0  0  0
   51.3720   31.6670   49.2970 H   0  0  0  0  0  0  0  0  0  0  0  0
   49.9720   32.6160   49.9190 H   0  0  0  0  0  0  0  0  0  0  0  0
   49.6530   31.1910   51.7960 H   0  0  0  0  0  0  0  0  0  0  0  0
   51.4020   31.3530   51.6920 H   0  0  0  0  0  0  0  0  0  0  0  0
   49.8740   28.8580   51.3140 H   0  0  0  0  0  0  0  0  0  0  0  0
   51.5980   29.0970   51.6880 H   0  0  0  0  0  0  0  0  0  0  0  0
   51.4640   28.0560   49.5600 H   0  0  0  0  0  0  0  0  0  0  0  0
   52.1550   29.6950   49.4340 H   0  0  0  0  0  0  0  0  0  0  0  0
   50.5110   29.5790   47.6070 H   0  0  0  0  0  0  0  0  0  0  0  0
   49.3660   28.6990   48.7150 H   0  0  0  0  0  0  0  0  0  0  0  0
   45.6630   32.9520   46.8340 C   0  0  0  0  0  0  0  0  0  0  0  0
   45.3560   33.9490   47.2140 H   0  0  0  0  0  0  0  0  0  0  0  0
   44.7160   32.3680   46.7090 H   0  0  0  0  0  0  0  0  0  0  0  0
   46.0780   33.9990   44.6510 C   0  0  0  0  0  3  0  0  0  0  0  0
   46.4110   33.1100   45.5790 C   0  0  0  0  0  3  0  0  0  0  0  0
   46.9130   34.0520   43.4420 C   0  0  0  0  0  0  0  0  0  0  0  0
   46.7540   35.0290   42.4340 C   0  0  0  0  0  0  0  0  0  0  0  0
   47.5840   34.9990   41.3400 C   0  0  0  0  0  0  0  0  0  0  0  0
   48.5280   34.0410   41.2570 N   0  0  0  0  0  0  0  0  0  0  0  0
   48.6670   33.1140   42.2270 C   0  0  0  0  0  0  0  0  0  0  0  0
   47.8860   33.1120   43.2930 N   0  0  0  0  0  0  0  0  0  0  0  0
   45.9750   35.7600   42.5830 H   0  0  0  0  0  0  0  0  0  0  0  0
   47.4790   35.7390   40.5600 H   0  0  0  0  0  0  0  0  0  0  0  0
   49.6760   32.0300   42.2060 C   0  0  0  0  0  0  0  0  0  0  0  0
   49.7610   30.7210   42.9470 C   0  0  0  0  0  0  0  0  0  0  0  0
   48.7460   30.7340   43.6240 H   0  0  0  0  0  0  0  0  0  0  0  0
   51.3970   30.1150   42.2130 S   0  0  0  0  0  0  0  0  0  0  0  0
   51.6020   31.6570   41.1340 C   0  0  0  0  0  0  0  0  0  0  0  0
   52.5270   31.5060   40.6020 H   0  0  0  0  0  0  0  0  0  0  0  0
   50.6030   32.4300   41.3380 N   0  0  0  0  0  0  0  0  0  0  0  0
  1  2  2  0  0  0  0
  2 12  1  0  0  0  0
  2  3  1  0  0  0  0
  3 13  1  0  0  0  0
  4  6  1  0  0  0  0
  4  3  1  0  0  0  0
  5  1  1  0  0  0  0
  5  4  2  0  0  0  0
  6  7  1  0  0  0  0
  7 15  1  0  0  0  0
  7  8  1  0  0  0  0
  8 17  1  0  0  0  0
  8 16  1  0  0  0  0
  9  8  1  0  0  0  0
  9 18  1  0  0  0  0
  9 19  1  0  0  0  0
 10  9  1  0  0  0  0
 11 23  1  0  0  0  0
 11  6  1  0  0  0  0
 11 10  1  0  0  0  0
 14  7  1  0  0  0  0
 20 10  1  0  0  0  0
 21 10  1  0  0  0  0
 22 11  1  0  0  0  0
 24 25  1  0  0  0  0
 24  1  1  0  0  0  0
 26 24  1  0  0  0  0
 27 28  2  0  0  0  0
 28 24  1  0  0  0  0
 29 27  1  0  0  0  0
 30 35  1  0  0  0  0
 30 29  2  0  0  0  0
 31 30  1  0  0  0  0
 32 31  2  0  0  0  0
 32 33  1  0  0  0  0
 33 34  2  0  0  0  0
 34 29  1  0  0  0  0
 36 31  1  0  0  0  0
 37 33  1  0  0  0  0
 37 38  2  0  0  0  0
 38 39  1  0  0  0  0
 40 38  1  0  0  0  0
 41 43  2  0  0  0  0
 41 40  1  0  0  0  0
 42 41  1  0  0  0  0
 43 37  1  0  0  0  0
M  END
>  <minimizedAffinity>
-5.85789347

>  <minimizedRMSD>
0.665075302

$$$$
