REMARK  Name = 
REMARK  3 active torsions:
REMARK  status: ('A' for Active; 'I' for Inactive)
REMARK    1  A    between atoms: C_2  and  C_14
REMARK    2  A    between atoms: C_9  and  C_16
REMARK    3  A    between atoms: C_19  and  C_30
REMARK                            x       y       z     vdW  Elec       q    Type
REMARK                         _______ _______ _______ _____ _____    ______ ____
ROOT
ATOM      1  C   UNL     1      47.268  31.394  45.152  0.00  0.00    +0.000 A 
ATOM      2  C   UNL     1      46.871  32.720  45.135  0.00  0.00    +0.000 A 
ATOM      3  C   UNL     1      46.237  33.317  46.197  0.00  0.00    +0.000 A 
ATOM      4  C   UNL     1      45.967  32.597  47.349  0.00  0.00    +0.000 A 
ATOM      5  N   UNL     1      45.378  32.843  48.554  0.00  0.00    +0.000 N 
ATOM      6  C   UNL     1      45.411  31.701  49.295  0.00  0.00    +0.000 A 
ATOM      7  N   UNL     1      46.021  30.767  48.532  0.00  0.00    +0.000 NA
ATOM      8  C   UNL     1      46.371  31.285  47.339  0.00  0.00    +0.000 A 
ATOM      9  C   UNL     1      47.001  30.648  46.315  0.00  0.00    +0.000 A 
ATOM     10  H   UNL     1      47.767  30.932  44.310  0.00  0.00    +0.000 HD
ATOM     11  H   UNL     1      45.931  34.356  46.171  0.00  0.00    +0.000 HD
ATOM     12  H   UNL     1      44.981  33.780  48.815  0.00  0.00    +0.000 HD
ATOM     13  H   UNL     1      45.009  31.603  50.308  0.00  0.00    +0.000 HD
ENDROOT
BRANCH   2  18
ATOM     14  C   UNL     1      46.488  35.186  42.431  0.00  0.00    +0.000 A 
ATOM     15  C   UNL     1      47.654  35.025  41.699  0.00  0.00    +0.000 A 
ATOM     16  C   UNL     1      48.575  34.065  42.135  0.00  0.00    +0.000 A 
ATOM     17  N   UNL     1      48.281  33.340  43.256  0.00  0.00    +0.000 NA
ATOM     18  C   UNL     1      47.131  33.525  43.945  0.00  0.00    +0.000 A 
ATOM     19  N   UNL     1      46.238  34.442  43.537  0.00  0.00    +0.000 NA
ATOM     20  H   UNL     1      45.757  35.927  42.109  0.00  0.00    +0.000 HD
ATOM     21  H   UNL     1      47.831  35.633  40.815  0.00  0.00    +0.000 HD
ATOM     22  H   UNL     1      49.498  33.913  41.587  0.00  0.00    +0.000 HD
ENDBRANCH   2  18
BRANCH   9  23
ATOM     23  C   UNL     1      47.393  29.240  46.404  0.00  0.00    +0.000 A 
ATOM     24  C   UNL     1      48.674  28.794  46.608  0.00  0.00    +0.000 A 
ATOM     25  C   UNL     1      48.533  27.396  46.615  0.00  0.00    +0.000 A 
ATOM     26  C   UNL     1      47.194  27.076  46.417  0.00  0.00    +0.000 A 
ATOM     27  O   UNL     1      46.584  28.235  46.300  0.00  0.00    +0.000 OA
ATOM     28  H   UNL     1      49.558  29.370  46.732  0.00  0.00    +0.000 HD
ATOM     29  H   UNL     1      49.338  26.694  46.752  0.00  0.00    +0.000 HD
BRANCH  26  30
ATOM     30  C   UNL     1      46.581  25.733  46.351  0.00  0.00    +0.000 A 
ATOM     31  C   UNL     1      45.165  25.581  46.805  0.00  0.00    +0.000 A 
ATOM     32  H   UNL     1      44.561  26.340  47.167  0.00  0.00    +0.000 HD
ATOM     33  S   UNL     1      44.983  23.726  46.486  0.00  0.00    +0.000 S 
ATOM     34  C   UNL     1      46.757  23.560  45.844  0.00  0.00    +0.000 A 
ATOM     35  H   UNL     1      47.151  22.612  45.515  0.00  0.00    +0.000 HD
ATOM     36  N   UNL     1      47.237  24.682  45.911  0.00  0.00    +0.000 NA
ENDBRANCH  26  30
ENDBRANCH   9  23
TORSDOF 3
