
 OpenBabel03252507433D

 29 31  0  0  0  0  0  0  0  0999 V2000
   45.8820   34.6480   41.7580 C   0  0  0  0  0  0  0  0  0  0  0  0
   45.9950   33.9820   42.6560 H   0  0  0  0  0  0  0  0  0  0  0  0
   46.1230   35.6730   42.1330 H   0  0  0  0  0  0  0  0  0  0  0  0
   44.4880   34.6130   41.2580 C   0  0  0  0  0  0  0  0  0  0  0  0
   43.5880   35.6940   41.5110 C   0  0  0  0  0  0  0  0  0  0  0  0
   42.0350   35.1090   40.6690 S   0  0  0  0  0  0  0  0  0  0  0  0
   42.8890   33.5150   40.1330 C   0  0  0  0  0  0  0  0  0  0  0  0
   43.9420   33.6470   40.5650 N   0  0  0  0  0  0  0  0  0  0  0  0
   43.7920   36.5950   42.0500 H   0  0  0  0  0  0  0  0  0  0  0  0
   42.1940   32.4630   39.3440 C   0  0  0  0  0  0  0  0  0  0  0  0
   41.3970   32.8190   38.2730 C   0  0  0  0  0  0  0  0  0  0  0  0
   41.2160   33.8980   37.9250 H   0  0  0  0  0  0  0  0  0  0  0  0
   40.7990   31.1980   37.6690 S   0  0  0  0  0  0  0  0  0  0  0  0
   41.7690   30.2900   39.0210 C   0  0  0  0  0  0  0  0  0  0  0  0
   41.8210   29.1930   39.2040 H   0  0  0  0  0  0  0  0  0  0  0  0
   42.2730   31.1680   39.5800 N   0  0  0  0  0  0  0  0  0  0  0  0
   46.9230   34.2660   40.7590 C   0  0  0  0  0  0  0  0  0  0  0  0
   47.0160   35.1530   40.0650 H   0  0  0  0  0  0  0  0  0  0  0  0
   46.6220   33.4400   40.1270 H   0  0  0  0  0  0  0  0  0  0  0  0
   48.2730   34.0730   41.3350 C   0  0  0  0  0  0  0  0  0  0  0  0
   48.9210   32.8720   41.0450 C   0  0  0  0  0  0  0  0  0  0  0  0
   50.1820   32.6230   41.5490 C   0  0  0  0  0  0  0  0  0  0  0  0
   50.7540   33.5950   42.3320 N   0  0  0  0  0  0  0  0  0  0  0  0
   50.1000   34.7450   42.5920 C   0  0  0  0  0  0  0  0  0  0  0  0
   48.8830   34.9720   42.0990 N   0  0  0  0  0  0  0  0  0  0  0  0
   50.6600   31.6800   41.3060 H   0  0  0  0  0  0  0  0  0  0  0  0
   50.6580   35.4370   43.2230 H   0  0  0  0  0  0  0  0  0  0  0  0
   48.1220   31.6310   40.0120 S   0  0  0  0  0  0  0  0  0  0  0  0
   47.1910   30.9400   40.7960 H   0  0  0  0  0  0  0  0  0  0  0  0
  1  3  1  0  0  0  0
  1  2  1  0  0  0  0
  4  5  2  0  0  0  0
  4  1  1  0  0  0  0
  5  9  1  0  0  0  0
  6  5  1  0  0  0  0
  7  8  2  0  0  0  0
  7  6  1  0  0  0  0
  8  4  1  0  0  0  0
 10 16  1  0  0  0  0
 10  7  1  0  0  0  0
 11 10  2  0  0  0  0
 12 11  1  0  0  0  0
 13 11  1  0  0  0  0
 13 14  1  0  0  0  0
 14 15  1  0  0  0  0
 14 16  2  0  0  0  0
 17 20  1  0  0  0  0
 17  1  1  0  0  0  0
 18 17  1  0  0  0  0
 19 17  1  0  0  0  0
 20 25  1  0  0  0  0
 21 20  2  0  0  0  0
 21 22  1  0  0  0  0
 22 23  2  0  0  0  0
 23 24  1  0  0  0  0
 24 27  1  0  0  0  0
 25 24  2  0  0  0  0
 26 22  1  0  0  0  0
 28 29  1  0  0  0  0
 28 21  1  0  0  0  0
M  END
>  <minimizedAffinity>
-3.99890471

>  <minimizedRMSD>
1.21233213

$$$$
