
 OpenBabel03242511033D

 44 47  0  0  0  0  0  0  0  0999 V2000
   40.1220   33.8370   40.3910 C   0  0  0  0  0  0  0  0  0  0  0  0
   39.3700   34.9770   40.1230 C   0  0  0  0  0  0  0  0  0  0  0  0
   38.0320   34.9460   39.7920 C   0  0  0  0  0  0  0  0  0  0  0  0
   37.4220   33.7150   39.7290 C   0  0  0  0  0  0  0  0  0  0  0  0
   38.1780   32.5740   39.9990 C   0  0  0  0  0  0  0  0  0  0  0  0
   39.4760   32.6670   40.3150 N   0  0  0  0  0  0  0  0  0  0  0  0
   39.8850   35.9270   40.1830 H   0  0  0  0  0  0  0  0  0  0  0  0
   37.5200   35.8810   39.5980 H   0  0  0  0  0  0  0  0  0  0  0  0
   36.3800   33.7030   39.4710 H   0  0  0  0  0  0  0  0  0  0  0  0
   44.9260   36.0310   43.3440 C   0  0  0  0  0  0  0  0  0  0  0  0
   45.9120   35.3770   42.5900 C   0  0  0  0  0  0  0  0  0  0  0  0
   45.5140   34.5970   41.5100 C   0  0  0  0  0  0  0  0  0  0  0  0
   44.1740   34.4900   41.2130 N   0  0  0  0  0  0  0  0  0  0  0  0
   43.2530   35.1470   41.9780 C   0  0  0  0  0  0  0  0  0  0  0  0
   43.6330   35.9100   43.0330 N   0  0  0  0  0  0  0  0  0  0  0  0
   41.5370   33.9700   40.7340 C   0  0  0  0  0  0  0  0  0  0  0  0
   42.3560   33.1730   40.2180 O   0  0  0  0  0  0  0  0  0  0  0  0
   41.8800   35.0140   41.6430 N   0  0  0  0  0  0  0  0  0  0  0  0
   45.0890   36.6650   44.2040 H   0  0  0  0  0  0  0  0  0  0  0  0
   46.9190   35.5240   42.9010 H   0  0  0  0  0  0  0  0  0  0  0  0
   46.2670   34.0950   40.9300 H   0  0  0  0  0  0  0  0  0  0  0  0
   41.1710   35.6520   42.0470 H   0  0  0  0  0  0  0  0  0  0  0  0
   37.5330   31.2740   39.9320 C   0  0  0  0  0  3  0  0  0  0  0  0
   36.6330   30.9280   40.8240 C   0  0  0  0  0  3  0  0  0  0  0  0
   35.8990   29.6250   40.8700 C   0  0  0  0  0  0  0  0  0  0  0  0
   34.9590   29.8570   41.3640 H   0  0  0  0  0  0  0  0  0  0  0  0
   35.6450   29.3100   39.8370 H   0  0  0  0  0  0  0  0  0  0  0  0
   36.2990   27.2050   39.2590 Cl  0  0  0  0  0  0  0  0  0  0  0  0
   36.9190   27.4290   40.8930 C   0  0  0  0  0  0  0  0  0  0  0  0
   36.6840   28.5970   41.5960 C   0  0  0  0  0  0  0  0  0  0  0  0
   37.1650   28.7530   42.8860 C   0  0  0  0  0  0  0  0  0  0  0  0
   37.8850   27.7310   43.4740 C   0  0  0  0  0  0  0  0  0  0  0  0
   38.1080   26.5910   42.7720 C   0  0  0  0  0  0  0  0  0  0  0  0
   37.6310   26.4080   41.4580 C   0  0  0  0  0  0  0  0  0  0  0  0
   36.9230   29.6890   43.3260 H   0  0  0  0  0  0  0  0  0  0  0  0
   38.2480   27.8730   44.4710 H   0  0  0  0  0  0  0  0  0  0  0  0
   38.6810   25.8370   43.3000 H   0  0  0  0  0  0  0  0  0  0  0  0
   37.9710   25.1110   40.9210 C   0  0  0  0  0  0  0  0  0  0  0  0
   37.2110   23.9170   41.3260 C   0  0  0  0  0  0  0  0  0  0  0  0
   36.3640   23.6840   42.0040 H   0  0  0  0  0  0  0  0  0  0  0  0
   37.9870   22.5250   40.3240 S   0  0  0  0  0  0  0  0  0  0  0  0
   39.1710   23.7920   39.5580 C   0  0  0  0  0  0  0  0  0  0  0  0
   40.0450   23.7210   38.7670 H   0  0  0  0  0  0  0  0  0  0  0  0
   38.8780   24.7710   40.0380 N   0  0  0  0  0  0  0  0  0  0  0  0
  1 16  1  0  0  0  0
  2  7  1  0  0  0  0
  2  1  2  0  0  0  0
  3  2  1  0  0  0  0
  4  3  2  0  0  0  0
  4  5  1  0  0  0  0
  5  6  2  0  0  0  0
  6  1  1  0  0  0  0
  8  3  1  0  0  0  0
  9  4  1  0  0  0  0
 10 19  1  0  0  0  0
 11 20  1  0  0  0  0
 11 10  2  0  0  0  0
 12 11  1  0  0  0  0
 13 12  2  0  0  0  0
 13 14  1  0  0  0  0
 14 15  2  0  0  0  0
 15 10  1  0  0  0  0
 16 18  1  0  0  0  0
 17 16  2  0  0  0  0
 18 14  1  0  0  0  0
 18 22  1  0  0  0  0
 21 12  1  0  0  0  0
 23  5  1  0  0  0  0
 23 24  2  0  0  0  0
 24 25  1  0  0  0  0
 25 26  1  0  0  0  0
 25 30  1  0  0  0  0
 27 25  1  0  0  0  0
 28 29  1  0  0  0  0
 29 34  2  0  0  0  0
 29 30  1  0  0  0  0
 30 31  2  0  0  0  0
 31 35  1  0  0  0  0
 31 32  1  0  0  0  0
 32 36  1  0  0  0  0
 33 37  1  0  0  0  0
 33 32  2  0  0  0  0
 34 33  1  0  0  0  0
 38 39  2  0  0  0  0
 38 34  1  0  0  0  0
 39 40  1  0  0  0  0
 41 39  1  0  0  0  0
 42 44  2  0  0  0  0
 42 41  1  0  0  0  0
 43 42  1  0  0  0  0
 44 38  1  0  0  0  0
M  END
>  <minimizedAffinity>
-7.54555178

$$$$

 OpenBabel03242511033D

 44 47  0  0  0  0  0  0  0  0999 V2000
   39.7790   32.5560   40.5320 C   0  0  0  0  0  0  0  0  0  0  0  0
   38.8920   33.3320   39.7910 C   0  0  0  0  0  0  0  0  0  0  0  0
   37.5530   33.0360   39.6540 C   0  0  0  0  0  0  0  0  0  0  0  0
   37.0840   31.9100   40.2890 C   0  0  0  0  0  0  0  0  0  0  0  0
   37.9750   31.1330   41.0310 C   0  0  0  0  0  0  0  0  0  0  0  0
   39.2670   31.4720   41.1280 N   0  0  0  0  0  0  0  0  0  0  0  0
   39.2990   34.2110   39.3070 H   0  0  0  0  0  0  0  0  0  0  0  0
   36.9310   33.6930   39.0600 H   0  0  0  0  0  0  0  0  0  0  0  0
   36.0390   31.6890   40.1750 H   0  0  0  0  0  0  0  0  0  0  0  0
   44.5110   35.8100   42.4370 C   0  0  0  0  0  0  0  0  0  0  0  0
   45.4720   35.2400   41.5890 C   0  0  0  0  0  0  0  0  0  0  0  0
   45.0590   34.2890   40.6620 C   0  0  0  0  0  0  0  0  0  0  0  0
   43.7310   33.9370   40.6040 N   0  0  0  0  0  0  0  0  0  0  0  0
   42.8330   34.5210   41.4530 C   0  0  0  0  0  0  0  0  0  0  0  0
   43.2270   35.4490   42.3590 N   0  0  0  0  0  0  0  0  0  0  0  0
   41.1850   32.9510   40.6200 C   0  0  0  0  0  0  0  0  0  0  0  0
   42.0440   32.2420   40.0450 O   0  0  0  0  0  0  0  0  0  0  0  0
   41.4710   34.1330   41.3650 N   0  0  0  0  0  0  0  0  0  0  0  0
   44.6870   36.5560   43.2000 H   0  0  0  0  0  0  0  0  0  0  0  0
   46.4730   35.5800   41.7130 H   0  0  0  0  0  0  0  0  0  0  0  0
   45.7940   33.8500   40.0100 H   0  0  0  0  0  0  0  0  0  0  0  0
   40.7300   34.6920   41.8250 H   0  0  0  0  0  0  0  0  0  0  0  0
   37.4790   29.9440   41.7000 C   0  0  0  0  0  3  0  0  0  0  0  0
   38.1190   29.4400   42.7310 C   0  0  0  0  0  3  0  0  0  0  0  0
   37.7180   28.2250   43.5050 C   0  0  0  0  0  0  0  0  0  0  0  0
   37.7160   28.5490   44.5430 H   0  0  0  0  0  0  0  0  0  0  0  0
   36.6710   27.9580   43.2530 H   0  0  0  0  0  0  0  0  0  0  0  0
   36.8170   26.4850   41.3210 Cl  0  0  0  0  0  0  0  0  0  0  0  0
   38.3020   26.2450   42.2380 C   0  0  0  0  0  0  0  0  0  0  0  0
   38.6590   27.1040   43.2620 C   0  0  0  0  0  0  0  0  0  0  0  0
   39.8220   26.8940   43.9860 C   0  0  0  0  0  0  0  0  0  0  0  0
   40.6310   25.8170   43.6800 C   0  0  0  0  0  0  0  0  0  0  0  0
   40.2670   24.9830   42.6730 C   0  0  0  0  0  0  0  0  0  0  0  0
   39.0900   25.1750   41.9210 C   0  0  0  0  0  0  0  0  0  0  0  0
   39.9930   27.6170   44.7460 H   0  0  0  0  0  0  0  0  0  0  0  0
   41.5240   25.6740   44.2510 H   0  0  0  0  0  0  0  0  0  0  0  0
   40.9530   24.1620   42.4930 H   0  0  0  0  0  0  0  0  0  0  0  0
   38.9000   24.1530   40.9190 C   0  0  0  0  0  0  0  0  0  0  0  0
   39.6590   24.2000   39.6570 C   0  0  0  0  0  0  0  0  0  0  0  0
   40.4120   24.8640   39.1870 H   0  0  0  0  0  0  0  0  0  0  0  0
   39.1080   22.6510   38.7400 S   0  0  0  0  0  0  0  0  0  0  0  0
   37.9770   22.2350   40.2040 C   0  0  0  0  0  0  0  0  0  0  0  0
   37.2280   21.3520   40.4350 H   0  0  0  0  0  0  0  0  0  0  0  0
   38.1460   23.0810   40.9330 N   0  0  0  0  0  0  0  0  0  0  0  0
  1 16  1  0  0  0  0
  1  6  1  0  0  0  0
  2  1  2  0  0  0  0
  3  2  1  0  0  0  0
  3  4  2  0  0  0  0
  4  5  1  0  0  0  0
  5  6  2  0  0  0  0
  5 23  1  0  0  0  0
  7  2  1  0  0  0  0
  8  3  1  0  0  0  0
  9  4  1  0  0  0  0
 10 19  1  0  0  0  0
 11 20  1  0  0  0  0
 11 10  2  0  0  0  0
 12 11  1  0  0  0  0
 13 12  2  0  0  0  0
 13 14  1  0  0  0  0
 14 15  2  0  0  0  0
 15 10  1  0  0  0  0
 16 18  1  0  0  0  0
 17 16  2  0  0  0  0
 18 14  1  0  0  0  0
 18 22  1  0  0  0  0
 21 12  1  0  0  0  0
 23 24  2  0  0  0  0
 24 25  1  0  0  0  0
 25 26  1  0  0  0  0
 27 25  1  0  0  0  0
 28 29  1  0  0  0  0
 29 30  1  0  0  0  0
 30 25  1  0  0  0  0
 30 31  2  0  0  0  0
 31 35  1  0  0  0  0
 32 31  1  0  0  0  0
 32 36  1  0  0  0  0
 33 32  2  0  0  0  0
 34 29  2  0  0  0  0
 34 33  1  0  0  0  0
 37 33  1  0  0  0  0
 38 44  1  0  0  0  0
 38 34  1  0  0  0  0
 39 38  2  0  0  0  0
 40 39  1  0  0  0  0
 41 39  1  0  0  0  0
 41 42  1  0  0  0  0
 42 43  1  0  0  0  0
 42 44  2  0  0  0  0
M  END
>  <minimizedAffinity>
-7.48612642

$$$$

 OpenBabel03242511033D

 44 47  0  0  0  0  0  0  0  0999 V2000
   40.8500   33.7590   39.0160 C   0  0  0  0  0  0  0  0  0  0  0  0
   40.8510   35.0570   39.5190 C   0  0  0  0  0  0  0  0  0  0  0  0
   39.7980   35.6000   40.2230 C   0  0  0  0  0  0  0  0  0  0  0  0
   38.6960   34.8050   40.4330 C   0  0  0  0  0  0  0  0  0  0  0  0
   38.6980   33.5030   39.9280 C   0  0  0  0  0  0  0  0  0  0  0  0
   39.7520   33.0300   39.2500 N   0  0  0  0  0  0  0  0  0  0  0  0
   41.7360   35.6510   39.3340 H   0  0  0  0  0  0  0  0  0  0  0  0
   39.8790   36.6190   40.5800 H   0  0  0  0  0  0  0  0  0  0  0  0
   37.8830   35.2390   40.9830 H   0  0  0  0  0  0  0  0  0  0  0  0
   43.9380   30.0610   35.3550 C   0  0  0  0  0  0  0  0  0  0  0  0
   45.2020   30.6380   35.5440 C   0  0  0  0  0  0  0  0  0  0  0  0
   45.3240   31.6880   36.4470 C   0  0  0  0  0  0  0  0  0  0  0  0
   44.2100   32.1280   37.1240 N   0  0  0  0  0  0  0  0  0  0  0  0
   43.0000   31.5330   36.9040 C   0  0  0  0  0  0  0  0  0  0  0  0
   42.8730   30.5080   36.0260 N   0  0  0  0  0  0  0  0  0  0  0  0
   42.0150   33.2690   38.2790 C   0  0  0  0  0  0  0  0  0  0  0  0
   43.0550   33.9680   38.2700 O   0  0  0  0  0  0  0  0  0  0  0  0
   41.8720   32.0120   37.6200 N   0  0  0  0  0  0  0  0  0  0  0  0
   43.6960   29.2430   34.6900 H   0  0  0  0  0  0  0  0  0  0  0  0
   46.0000   30.2250   34.9730 H   0  0  0  0  0  0  0  0  0  0  0  0
   46.2930   32.1330   36.5950 H   0  0  0  0  0  0  0  0  0  0  0  0
   40.9940   31.4650   37.6530 H   0  0  0  0  0  0  0  0  0  0  0  0
   37.5340   32.6640   40.1490 C   0  0  0  0  0  3  0  0  0  0  0  0
   37.6370   31.5420   40.8240 C   0  0  0  0  0  3  0  0  0  0  0  0
   36.5220   30.5890   41.1190 C   0  0  0  0  0  0  0  0  0  0  0  0
   35.8730   31.1310   41.8030 H   0  0  0  0  0  0  0  0  0  0  0  0
   35.9340   30.4150   40.1940 H   0  0  0  0  0  0  0  0  0  0  0  0
   36.2280   28.3220   39.2810 Cl  0  0  0  0  0  0  0  0  0  0  0  0
   36.9400   28.2160   40.8890 C   0  0  0  0  0  0  0  0  0  0  0  0
   37.0390   29.3290   41.7050 C   0  0  0  0  0  0  0  0  0  0  0  0
   37.5870   29.2270   42.9730 C   0  0  0  0  0  0  0  0  0  0  0  0
   38.0390   28.0020   43.4260 C   0  0  0  0  0  0  0  0  0  0  0  0
   37.9350   26.9190   42.6140 C   0  0  0  0  0  0  0  0  0  0  0  0
   37.3830   26.9960   41.3190 C   0  0  0  0  0  0  0  0  0  0  0  0
   37.6110   30.1450   43.5070 H   0  0  0  0  0  0  0  0  0  0  0  0
   38.4590   27.9470   44.4080 H   0  0  0  0  0  0  0  0  0  0  0  0
   38.3120   25.9950   43.0390 H   0  0  0  0  0  0  0  0  0  0  0  0
   37.3580   25.7160   40.6510 C   0  0  0  0  0  0  0  0  0  0  0  0
   38.3830   25.3820   39.6470 C   0  0  0  0  0  0  0  0  0  0  0  0
   39.2650   25.8770   39.1910 H   0  0  0  0  0  0  0  0  0  0  0  0
   37.9540   23.6240   39.1300 S   0  0  0  0  0  0  0  0  0  0  0  0
   36.4970   23.6660   40.3430 C   0  0  0  0  0  0  0  0  0  0  0  0
   35.6600   22.8890   40.6440 H   0  0  0  0  0  0  0  0  0  0  0  0
   36.5520   24.6940   40.8060 N   0  0  0  0  0  0  0  0  0  0  0  0
  1  6  2  0  0  0  0
  1  2  1  0  0  0  0
  2  3  2  0  0  0  0
  3  4  1  0  0  0  0
  3  8  1  0  0  0  0
  4  9  1  0  0  0  0
  5 23  1  0  0  0  0
  5  4  2  0  0  0  0
  6  5  1  0  0  0  0
  7  2  1  0  0  0  0
 10 11  2  0  0  0  0
 10 15  1  0  0  0  0
 11 12  1  0  0  0  0
 12 21  1  0  0  0  0
 12 13  2  0  0  0  0
 14 13  1  0  0  0  0
 14 18  1  0  0  0  0
 15 14  2  0  0  0  0
 16  1  1  0  0  0  0
 17 16  2  0  0  0  0
 18 22  1  0  0  0  0
 18 16  1  0  0  0  0
 19 10  1  0  0  0  0
 20 11  1  0  0  0  0
 23 24  2  0  0  0  0
 24 25  1  0  0  0  0
 25 30  1  0  0  0  0
 25 26  1  0  0  0  0
 27 25  1  0  0  0  0
 28 29  1  0  0  0  0
 29 34  2  0  0  0  0
 29 30  1  0  0  0  0
 30 31  2  0  0  0  0
 31 32  1  0  0  0  0
 31 35  1  0  0  0  0
 32 36  1  0  0  0  0
 33 37  1  0  0  0  0
 33 32  2  0  0  0  0
 34 33  1  0  0  0  0
 38 44  1  0  0  0  0
 38 34  1  0  0  0  0
 39 38  2  0  0  0  0
 40 39  1  0  0  0  0
 41 39  1  0  0  0  0
 41 42  1  0  0  0  0
 42 43  1  0  0  0  0
 42 44  2  0  0  0  0
M  END
>  <minimizedAffinity>
-7.1312418

$$$$

 OpenBabel03242511033D

 44 47  0  0  0  0  0  0  0  0999 V2000
   39.6060   25.8060   42.9240 C   0  0  0  0  0  0  0  0  0  0  0  0
   39.2650   24.4680   42.7500 C   0  0  0  0  0  0  0  0  0  0  0  0
   38.0730   24.0510   42.1970 C   0  0  0  0  0  0  0  0  0  0  0  0
   37.1840   25.0220   41.8000 C   0  0  0  0  0  0  0  0  0  0  0  0
   37.5280   26.3630   41.9740 C   0  0  0  0  0  0  0  0  0  0  0  0
   38.7020   26.7070   42.5190 N   0  0  0  0  0  0  0  0  0  0  0  0
   39.9920   23.7340   43.0750 H   0  0  0  0  0  0  0  0  0  0  0  0
   37.8870   22.9890   42.0970 H   0  0  0  0  0  0  0  0  0  0  0  0
   36.2600   24.6850   41.3700 H   0  0  0  0  0  0  0  0  0  0  0  0
   45.6050   25.5750   43.6730 C   0  0  0  0  0  0  0  0  0  0  0  0
   45.6730   26.3870   44.8150 C   0  0  0  0  0  0  0  0  0  0  0  0
   44.4870   26.8580   45.3670 C   0  0  0  0  0  0  0  0  0  0  0  0
   43.2890   26.5170   44.7810 N   0  0  0  0  0  0  0  0  0  0  0  0
   43.2760   25.7230   43.6690 C   0  0  0  0  0  0  0  0  0  0  0  0
   44.4280   25.2590   43.1260 N   0  0  0  0  0  0  0  0  0  0  0  0
   40.8950   26.1520   43.5210 C   0  0  0  0  0  0  0  0  0  0  0  0
   40.9360   27.0810   44.3620 O   0  0  0  0  0  0  0  0  0  0  0  0
   42.0230   25.3920   43.0920 N   0  0  0  0  0  0  0  0  0  0  0  0
   46.4410   25.1400   43.1420 H   0  0  0  0  0  0  0  0  0  0  0  0
   46.6480   26.5930   45.1910 H   0  0  0  0  0  0  0  0  0  0  0  0
   44.5360   27.4810   46.2420 H   0  0  0  0  0  0  0  0  0  0  0  0
   41.9460   24.6300   42.3940 H   0  0  0  0  0  0  0  0  0  0  0  0
   36.5880   27.3870   41.5550 C   0  0  0  0  0  3  0  0  0  0  0  0
   36.5310   27.7690   40.2990 C   0  0  0  0  0  3  0  0  0  0  0  0
   35.6150   28.8100   39.7390 C   0  0  0  0  0  0  0  0  0  0  0  0
   34.8620   28.2480   39.1920 H   0  0  0  0  0  0  0  0  0  0  0  0
   35.0870   29.3210   40.5710 H   0  0  0  0  0  0  0  0  0  0  0  0
   36.9110   30.9350   41.2920 Cl  0  0  0  0  0  0  0  0  0  0  0  0
   36.9990   30.7870   39.5380 C   0  0  0  0  0  0  0  0  0  0  0  0
   36.3540   29.7600   38.8720 C   0  0  0  0  0  0  0  0  0  0  0  0
   36.4190   29.6650   37.4910 C   0  0  0  0  0  0  0  0  0  0  0  0
   37.1350   30.6040   36.7750 C   0  0  0  0  0  0  0  0  0  0  0  0
   37.7630   31.6060   37.4430 C   0  0  0  0  0  0  0  0  0  0  0  0
   37.7140   31.7250   38.8470 C   0  0  0  0  0  0  0  0  0  0  0  0
   35.8860   28.8370   37.0910 H   0  0  0  0  0  0  0  0  0  0  0  0
   37.1730   30.5120   35.7100 H   0  0  0  0  0  0  0  0  0  0  0  0
   38.3040   32.3030   36.8120 H   0  0  0  0  0  0  0  0  0  0  0  0
   38.4360   32.8770   39.3310 C   0  0  0  0  0  0  0  0  0  0  0  0
   39.9020   32.9460   39.1970 C   0  0  0  0  0  0  0  0  0  0  0  0
   40.7110   32.3010   38.7970 H   0  0  0  0  0  0  0  0  0  0  0  0
   40.3430   34.6310   39.9090 S   0  0  0  0  0  0  0  0  0  0  0  0
   38.5020   34.9250   40.2490 C   0  0  0  0  0  0  0  0  0  0  0  0
   37.8890   35.8170   40.7210 H   0  0  0  0  0  0  0  0  0  0  0  0
   37.9980   33.9840   39.8800 N   0  0  0  0  0  0  0  0  0  0  0  0
  1 16  1  0  0  0  0
  2  1  1  0  0  0  0
  2  7  1  0  0  0  0
  3  2  2  0  0  0  0
  4  5  2  0  0  0  0
  4  3  1  0  0  0  0
  5  6  1  0  0  0  0
  6  1  2  0  0  0  0
  8  3  1  0  0  0  0
  9  4  1  0  0  0  0
 10 11  1  0  0  0  0
 11 20  1  0  0  0  0
 11 12  2  0  0  0  0
 12 21  1  0  0  0  0
 13 12  1  0  0  0  0
 14 13  2  0  0  0  0
 15 14  1  0  0  0  0
 15 10  2  0  0  0  0
 16 17  2  0  0  0  0
 18 16  1  0  0  0  0
 18 14  1  0  0  0  0
 19 10  1  0  0  0  0
 22 18  1  0  0  0  0
 23  5  1  0  0  0  0
 24 23  2  0  0  0  0
 25 24  1  0  0  0  0
 25 27  1  0  0  0  0
 26 25  1  0  0  0  0
 29 28  1  0  0  0  0
 30 29  1  0  0  0  0
 30 25  1  0  0  0  0
 31 30  2  0  0  0  0
 32 33  2  0  0  0  0
 32 31  1  0  0  0  0
 33 34  1  0  0  0  0
 34 38  1  0  0  0  0
 34 29  2  0  0  0  0
 35 31  1  0  0  0  0
 36 32  1  0  0  0  0
 37 33  1  0  0  0  0
 38 44  1  0  0  0  0
 39 38  2  0  0  0  0
 39 41  1  0  0  0  0
 40 39  1  0  0  0  0
 41 42  1  0  0  0  0
 42 43  1  0  0  0  0
 44 42  2  0  0  0  0
M  END
>  <minimizedAffinity>
-6.80245209

$$$$

 OpenBabel03242511033D

 44 47  0  0  0  0  0  0  0  0999 V2000
   39.5870   32.3770   40.5130 C   0  0  0  0  0  0  0  0  0  0  0  0
   38.7690   33.2320   39.7800 C   0  0  0  0  0  0  0  0  0  0  0  0
   37.4250   33.0080   39.5710 C   0  0  0  0  0  0  0  0  0  0  0  0
   36.8780   31.8750   40.1250 C   0  0  0  0  0  0  0  0  0  0  0  0
   37.6990   31.0190   40.8600 C   0  0  0  0  0  0  0  0  0  0  0  0
   38.9990   31.2900   41.0280 N   0  0  0  0  0  0  0  0  0  0  0  0
   39.2380   34.1140   39.3610 H   0  0  0  0  0  0  0  0  0  0  0  0
   36.8610   33.7250   38.9880 H   0  0  0  0  0  0  0  0  0  0  0  0
   35.8300   31.7110   39.9560 H   0  0  0  0  0  0  0  0  0  0  0  0
   44.3520   35.6660   42.2700 C   0  0  0  0  0  0  0  0  0  0  0  0
   45.3430   34.8810   41.6630 C   0  0  0  0  0  0  0  0  0  0  0  0
   44.9490   33.7880   40.8990 C   0  0  0  0  0  0  0  0  0  0  0  0
   43.6090   33.5100   40.7610 N   0  0  0  0  0  0  0  0  0  0  0  0
   42.6820   34.3050   41.3720 C   0  0  0  0  0  0  0  0  0  0  0  0
   43.0570   35.3730   42.1190 N   0  0  0  0  0  0  0  0  0  0  0  0
   41.0040   32.6980   40.6810 C   0  0  0  0  0  0  0  0  0  0  0  0
   41.8560   31.8380   40.3560 O   0  0  0  0  0  0  0  0  0  0  0  0
   41.3080   33.9880   41.2090 N   0  0  0  0  0  0  0  0  0  0  0  0
   44.5100   36.5400   42.8870 H   0  0  0  0  0  0  0  0  0  0  0  0
   46.3510   35.1800   41.8300 H   0  0  0  0  0  0  0  0  0  0  0  0
   45.7080   33.1840   40.4320 H   0  0  0  0  0  0  0  0  0  0  0  0
   40.5730   34.6710   41.4640 H   0  0  0  0  0  0  0  0  0  0  0  0
   37.1190   29.8220   41.4440 C   0  0  0  0  0  3  0  0  0  0  0  0
   37.6500   29.2750   42.5140 C   0  0  0  0  0  3  0  0  0  0  0  0
   37.1550   28.0470   43.2090 C   0  0  0  0  0  0  0  0  0  0  0  0
   37.3220   28.2440   44.2660 H   0  0  0  0  0  0  0  0  0  0  0  0
   36.0570   27.9640   43.0710 H   0  0  0  0  0  0  0  0  0  0  0  0
   40.0660   28.4020   43.2920 Cl  0  0  0  0  0  0  0  0  0  0  0  0
   39.2560   26.9330   42.7560 C   0  0  0  0  0  0  0  0  0  0  0  0
   37.8760   26.8400   42.7370 C   0  0  0  0  0  0  0  0  0  0  0  0
   37.2520   25.6830   42.2970 C   0  0  0  0  0  0  0  0  0  0  0  0
   38.0180   24.6140   41.8750 C   0  0  0  0  0  0  0  0  0  0  0  0
   39.3710   24.7190   41.8990 C   0  0  0  0  0  0  0  0  0  0  0  0
   40.0300   25.8840   42.3420 C   0  0  0  0  0  0  0  0  0  0  0  0
   36.1920   25.7280   42.3270 H   0  0  0  0  0  0  0  0  0  0  0  0
   37.5160   23.7300   41.5400 H   0  0  0  0  0  0  0  0  0  0  0  0
   39.9020   23.8380   41.5530 H   0  0  0  0  0  0  0  0  0  0  0  0
   41.4670   25.7730   42.2600 C   0  0  0  0  0  0  0  0  0  0  0  0
   42.2750   25.6530   43.4850 C   0  0  0  0  0  0  0  0  0  0  0  0
   42.0930   25.6280   44.5790 H   0  0  0  0  0  0  0  0  0  0  0  0
   44.0380   25.4820   42.8500 S   0  0  0  0  0  0  0  0  0  0  0  0
   43.3700   25.6000   41.0800 C   0  0  0  0  0  0  0  0  0  0  0  0
   43.8720   25.5760   40.0120 H   0  0  0  0  0  0  0  0  0  0  0  0
   42.2540   25.7170   41.2130 N   0  0  0  0  0  0  0  0  0  0  0  0
  1 16  1  0  0  0  0
  1  6  1  0  0  0  0
  2  1  2  0  0  0  0
  3  2  1  0  0  0  0
  3  4  2  0  0  0  0
  4  5  1  0  0  0  0
  5  6  2  0  0  0  0
  5 23  1  0  0  0  0
  7  2  1  0  0  0  0
  8  3  1  0  0  0  0
  9  4  1  0  0  0  0
 10 19  1  0  0  0  0
 11 20  1  0  0  0  0
 11 10  2  0  0  0  0
 12 11  1  0  0  0  0
 13 12  2  0  0  0  0
 13 14  1  0  0  0  0
 14 15  2  0  0  0  0
 15 10  1  0  0  0  0
 16 18  1  0  0  0  0
 17 16  2  0  0  0  0
 18 14  1  0  0  0  0
 18 22  1  0  0  0  0
 21 12  1  0  0  0  0
 23 24  2  0  0  0  0
 24 25  1  0  0  0  0
 25 26  1  0  0  0  0
 27 25  1  0  0  0  0
 29 28  1  0  0  0  0
 30 29  1  0  0  0  0
 30 25  1  0  0  0  0
 31 35  1  0  0  0  0
 31 30  2  0  0  0  0
 32 33  2  0  0  0  0
 32 31  1  0  0  0  0
 33 34  1  0  0  0  0
 34 29  2  0  0  0  0
 36 32  1  0  0  0  0
 37 33  1  0  0  0  0
 38 34  1  0  0  0  0
 38 39  2  0  0  0  0
 39 40  1  0  0  0  0
 41 39  1  0  0  0  0
 42 44  2  0  0  0  0
 42 41  1  0  0  0  0
 43 42  1  0  0  0  0
 44 38  1  0  0  0  0
M  END
>  <minimizedAffinity>
-6.76337671

$$$$

 OpenBabel03242511033D

 44 47  0  0  0  0  0  0  0  0999 V2000
   39.9310   34.1330   40.5910 C   0  0  0  0  0  0  0  0  0  0  0  0
   39.1000   35.0850   40.0060 C   0  0  0  0  0  0  0  0  0  0  0  0
   37.8020   34.8270   39.6170 C   0  0  0  0  0  0  0  0  0  0  0  0
   37.3180   33.5570   39.8260 C   0  0  0  0  0  0  0  0  0  0  0  0
   38.1520   32.6050   40.4130 C   0  0  0  0  0  0  0  0  0  0  0  0
   39.4050   32.9150   40.7690 N   0  0  0  0  0  0  0  0  0  0  0  0
   39.5170   36.0720   39.8590 H   0  0  0  0  0  0  0  0  0  0  0  0
   37.2230   35.6250   39.1700 H   0  0  0  0  0  0  0  0  0  0  0  0
   36.3070   33.3680   39.5200 H   0  0  0  0  0  0  0  0  0  0  0  0
   45.4740   33.2700   42.8590 C   0  0  0  0  0  0  0  0  0  0  0  0
   45.9080   34.6010   42.7780 C   0  0  0  0  0  0  0  0  0  0  0  0
   45.0130   35.5660   42.3280 C   0  0  0  0  0  0  0  0  0  0  0  0
   43.7370   35.1900   41.9770 N   0  0  0  0  0  0  0  0  0  0  0  0
   43.3620   33.8790   42.0730 C   0  0  0  0  0  0  0  0  0  0  0  0
   44.2280   32.9330   42.5110 N   0  0  0  0  0  0  0  0  0  0  0  0
   41.2950   34.5000   40.9700 C   0  0  0  0  0  0  0  0  0  0  0  0
   41.7260   35.6290   40.6370 O   0  0  0  0  0  0  0  0  0  0  0  0
   42.0380   33.5280   41.7020 N   0  0  0  0  0  0  0  0  0  0  0  0
   46.0560   32.4210   43.1890 H   0  0  0  0  0  0  0  0  0  0  0  0
   46.9130   34.7890   43.0730 H   0  0  0  0  0  0  0  0  0  0  0  0
   45.3430   36.5880   42.2660 H   0  0  0  0  0  0  0  0  0  0  0  0
   41.6440   32.6050   41.9580 H   0  0  0  0  0  0  0  0  0  0  0  0
   37.6400   31.2640   40.6320 C   0  0  0  0  0  3  0  0  0  0  0  0
   37.9510   30.2860   39.8120 C   0  0  0  0  0  3  0  0  0  0  0  0
   37.4910   28.8670   39.9220 C   0  0  0  0  0  0  0  0  0  0  0  0
   36.4270   28.9070   39.7000 H   0  0  0  0  0  0  0  0  0  0  0  0
   37.9610   28.2650   39.1180 H   0  0  0  0  0  0  0  0  0  0  0  0
   40.3090   28.1220   40.2470 Cl  0  0  0  0  0  0  0  0  0  0  0  0
   39.0830   27.9540   41.5010 C   0  0  0  0  0  0  0  0  0  0  0  0
   37.7690   28.3210   41.2730 C   0  0  0  0  0  0  0  0  0  0  0  0
   36.8120   28.1690   42.2630 C   0  0  0  0  0  0  0  0  0  0  0  0
   37.1750   27.6460   43.4890 C   0  0  0  0  0  0  0  0  0  0  0  0
   38.4690   27.2910   43.6990 C   0  0  0  0  0  0  0  0  0  0  0  0
   39.4620   27.4370   42.7090 C   0  0  0  0  0  0  0  0  0  0  0  0
   35.8390   28.4830   41.9740 H   0  0  0  0  0  0  0  0  0  0  0  0
   36.4210   27.5380   44.2400 H   0  0  0  0  0  0  0  0  0  0  0  0
   38.6750   26.8900   44.6850 H   0  0  0  0  0  0  0  0  0  0  0  0
   40.7560   26.9740   43.1500 C   0  0  0  0  0  0  0  0  0  0  0  0
   41.2660   25.6630   42.7130 C   0  0  0  0  0  0  0  0  0  0  0  0
   40.9100   24.8230   42.0820 H   0  0  0  0  0  0  0  0  0  0  0  0
   42.9750   25.5590   43.4940 S   0  0  0  0  0  0  0  0  0  0  0  0
   42.6900   27.2740   44.2500 C   0  0  0  0  0  0  0  0  0  0  0  0
   43.3370   27.9830   44.9380 H   0  0  0  0  0  0  0  0  0  0  0  0
   41.6570   27.5640   43.8970 N   0  0  0  0  0  0  0  0  0  0  0  0
  1  6  1  0  0  0  0
  1 16  1  0  0  0  0
  2  1  2  0  0  0  0
  3  4  2  0  0  0  0
  3  2  1  0  0  0  0
  4  5  1  0  0  0  0
  5 23  1  0  0  0  0
  5  6  2  0  0  0  0
  7  2  1  0  0  0  0
  8  3  1  0  0  0  0
  9  4  1  0  0  0  0
 10 19  1  0  0  0  0
 11 10  1  0  0  0  0
 11 20  1  0  0  0  0
 12 11  2  0  0  0  0
 13 14  2  0  0  0  0
 13 12  1  0  0  0  0
 14 15  1  0  0  0  0
 15 10  2  0  0  0  0
 16 18  1  0  0  0  0
 17 16  2  0  0  0  0
 18 22  1  0  0  0  0
 18 14  1  0  0  0  0
 21 12  1  0  0  0  0
 24 25  1  0  0  0  0
 24 23  2  0  0  0  0
 25 30  1  0  0  0  0
 26 25  1  0  0  0  0
 27 25  1  0  0  0  0
 28 29  1  0  0  0  0
 29 34  1  0  0  0  0
 30 29  2  0  0  0  0
 30 31  1  0  0  0  0
 31 32  2  0  0  0  0
 32 33  1  0  0  0  0
 32 36  1  0  0  0  0
 33 37  1  0  0  0  0
 34 38  1  0  0  0  0
 34 33  2  0  0  0  0
 35 31  1  0  0  0  0
 38 44  1  0  0  0  0
 39 38  2  0  0  0  0
 39 41  1  0  0  0  0
 40 39  1  0  0  0  0
 41 42  1  0  0  0  0
 42 43  1  0  0  0  0
 44 42  2  0  0  0  0
M  END
>  <minimizedAffinity>
-6.57653189

$$$$

 OpenBabel03242511033D

 44 47  0  0  0  0  0  0  0  0999 V2000
   38.3130   25.1080   42.1450 C   0  0  0  0  0  0  0  0  0  0  0  0
   39.2880   24.7810   43.0840 C   0  0  0  0  0  0  0  0  0  0  0  0
   39.9460   25.7160   43.8550 C   0  0  0  0  0  0  0  0  0  0  0  0
   39.6100   27.0370   43.6740 C   0  0  0  0  0  0  0  0  0  0  0  0
   38.6330   27.3620   42.7320 C   0  0  0  0  0  0  0  0  0  0  0  0
   38.0280   26.4090   42.0120 N   0  0  0  0  0  0  0  0  0  0  0  0
   39.5230   23.7310   43.1970 H   0  0  0  0  0  0  0  0  0  0  0  0
   40.6910   25.3770   44.5630 H   0  0  0  0  0  0  0  0  0  0  0  0
   40.1290   27.7560   44.2800 H   0  0  0  0  0  0  0  0  0  0  0  0
   37.9970   19.9110   39.0610 C   0  0  0  0  0  0  0  0  0  0  0  0
   36.6690   20.0420   38.6280 C   0  0  0  0  0  0  0  0  0  0  0  0
   35.9770   21.2050   38.9500 C   0  0  0  0  0  0  0  0  0  0  0  0
   36.6090   22.1860   39.6780 N   0  0  0  0  0  0  0  0  0  0  0  0
   37.9040   22.0110   40.0770 C   0  0  0  0  0  0  0  0  0  0  0  0
   38.5860   20.8810   39.7670 N   0  0  0  0  0  0  0  0  0  0  0  0
   37.6690   24.0460   41.3730 C   0  0  0  0  0  0  0  0  0  0  0  0
   36.4230   24.0750   41.2360 O   0  0  0  0  0  0  0  0  0  0  0  0
   38.5250   23.0430   40.8280 N   0  0  0  0  0  0  0  0  0  0  0  0
   38.6520   19.0690   38.8850 H   0  0  0  0  0  0  0  0  0  0  0  0
   36.2710   19.2280   38.0700 H   0  0  0  0  0  0  0  0  0  0  0  0
   34.9590   21.3080   38.6190 H   0  0  0  0  0  0  0  0  0  0  0  0
   39.5510   23.0560   40.9640 H   0  0  0  0  0  0  0  0  0  0  0  0
   38.2800   28.7580   42.5420 C   0  0  0  0  0  3  0  0  0  0  0  0
   37.3520   29.1010   41.6770 C   0  0  0  0  0  3  0  0  0  0  0  0
   36.8980   30.4960   41.3850 C   0  0  0  0  0  0  0  0  0  0  0  0
   35.8130   30.4500   41.4480 H   0  0  0  0  0  0  0  0  0  0  0  0
   37.2350   31.1700   42.2000 H   0  0  0  0  0  0  0  0  0  0  0  0
   39.3500   32.0970   41.5670 Cl  0  0  0  0  0  0  0  0  0  0  0  0
   38.5300   31.6970   40.0600 C   0  0  0  0  0  0  0  0  0  0  0  0
   37.3710   30.9420   40.0520 C   0  0  0  0  0  0  0  0  0  0  0  0
   36.7280   30.6480   38.8600 C   0  0  0  0  0  0  0  0  0  0  0  0
   37.2510   31.1150   37.6700 C   0  0  0  0  0  0  0  0  0  0  0  0
   38.3900   31.8540   37.6930 C   0  0  0  0  0  0  0  0  0  0  0  0
   39.0630   32.1660   38.8920 C   0  0  0  0  0  0  0  0  0  0  0  0
   35.8490   30.0630   38.9780 H   0  0  0  0  0  0  0  0  0  0  0  0
   36.7400   30.8760   36.7610 H   0  0  0  0  0  0  0  0  0  0  0  0
   38.7380   32.1820   36.7200 H   0  0  0  0  0  0  0  0  0  0  0  0
   40.2360   32.9790   38.6730 C   0  0  0  0  0  0  0  0  0  0  0  0
   41.2050   32.6180   37.6240 C   0  0  0  0  0  0  0  0  0  0  0  0
   41.3240   31.8130   36.8700 H   0  0  0  0  0  0  0  0  0  0  0  0
   42.4890   33.9920   37.7010 S   0  0  0  0  0  0  0  0  0  0  0  0
   41.4960   34.7850   39.1090 C   0  0  0  0  0  0  0  0  0  0  0  0
   41.6390   35.7560   39.7650 H   0  0  0  0  0  0  0  0  0  0  0  0
   40.6170   34.0910   39.2520 N   0  0  0  0  0  0  0  0  0  0  0  0
  1  2  1  0  0  0  0
  2  7  1  0  0  0  0
  2  3  2  0  0  0  0
  3  8  1  0  0  0  0
  4  3  1  0  0  0  0
  4  9  1  0  0  0  0
  5  4  2  0  0  0  0
  6  1  2  0  0  0  0
  6  5  1  0  0  0  0
 10 15  1  0  0  0  0
 11 12  1  0  0  0  0
 11 10  2  0  0  0  0
 12 13  2  0  0  0  0
 13 14  1  0  0  0  0
 14 18  1  0  0  0  0
 15 14  2  0  0  0  0
 16  1  1  0  0  0  0
 17 16  2  0  0  0  0
 18 22  1  0  0  0  0
 18 16  1  0  0  0  0
 19 10  1  0  0  0  0
 20 11  1  0  0  0  0
 21 12  1  0  0  0  0
 23  5  1  0  0  0  0
 24 23  2  0  0  0  0
 25 26  1  0  0  0  0
 25 24  1  0  0  0  0
 25 27  1  0  0  0  0
 29 28  1  0  0  0  0
 30 29  1  0  0  0  0
 30 25  1  0  0  0  0
 31 35  1  0  0  0  0
 31 30  2  0  0  0  0
 32 33  2  0  0  0  0
 32 31  1  0  0  0  0
 33 34  1  0  0  0  0
 34 29  2  0  0  0  0
 36 32  1  0  0  0  0
 37 33  1  0  0  0  0
 38 34  1  0  0  0  0
 38 44  1  0  0  0  0
 39 41  1  0  0  0  0
 39 38  2  0  0  0  0
 40 39  1  0  0  0  0
 41 42  1  0  0  0  0
 42 44  2  0  0  0  0
 42 43  1  0  0  0  0
M  END
>  <minimizedAffinity>
-6.53655958

$$$$

 OpenBabel03242511033D

 44 47  0  0  0  0  0  0  0  0999 V2000
   40.1210   33.2910   40.4350 C   0  0  0  0  0  0  0  0  0  0  0  0
   39.2590   34.3310   40.1000 C   0  0  0  0  0  0  0  0  0  0  0  0
   37.9150   34.1540   39.8470 C   0  0  0  0  0  0  0  0  0  0  0  0
   37.4160   32.8760   39.9340 C   0  0  0  0  0  0  0  0  0  0  0  0
   38.2830   31.8350   40.2690 C   0  0  0  0  0  0  0  0  0  0  0  0
   39.5800   32.0680   40.5040 N   0  0  0  0  0  0  0  0  0  0  0  0
   39.6900   35.3220   40.0430 H   0  0  0  0  0  0  0  0  0  0  0  0
   37.3140   35.0180   39.5930 H   0  0  0  0  0  0  0  0  0  0  0  0
   36.3690   32.7500   39.7340 H   0  0  0  0  0  0  0  0  0  0  0  0
   44.8410   36.0170   43.0620 C   0  0  0  0  0  0  0  0  0  0  0  0
   45.8420   35.4600   42.2530 C   0  0  0  0  0  0  0  0  0  0  0  0
   45.4620   34.6280   41.2050 C   0  0  0  0  0  0  0  0  0  0  0  0
   44.1250   34.3770   40.9950 N   0  0  0  0  0  0  0  0  0  0  0  0
   43.1880   34.9440   41.8110 C   0  0  0  0  0  0  0  0  0  0  0  0
   43.5500   35.7570   42.8350 N   0  0  0  0  0  0  0  0  0  0  0  0
   41.5340   33.5760   40.6860 C   0  0  0  0  0  0  0  0  0  0  0  0
   42.3980   32.8630   40.1250 O   0  0  0  0  0  0  0  0  0  0  0  0
   41.8190   34.6630   41.5650 N   0  0  0  0  0  0  0  0  0  0  0  0
   44.9880   36.6770   43.9060 H   0  0  0  0  0  0  0  0  0  0  0  0
   46.8450   35.7160   42.4980 H   0  0  0  0  0  0  0  0  0  0  0  0
   46.2270   34.1990   40.5820 H   0  0  0  0  0  0  0  0  0  0  0  0
   41.0740   35.2290   42.0080 H   0  0  0  0  0  0  0  0  0  0  0  0
   37.7540   30.4850   40.3600 C   0  0  0  0  0  3  0  0  0  0  0  0
   37.0050   30.1270   41.3790 C   0  0  0  0  0  3  0  0  0  0  0  0
   36.4030   28.7750   41.5930 C   0  0  0  0  0  0  0  0  0  0  0  0
   36.8760   28.4050   42.5000 H   0  0  0  0  0  0  0  0  0  0  0  0
   35.3230   28.8850   41.8210 H   0  0  0  0  0  0  0  0  0  0  0  0
   34.3560   29.1080   39.5180 Cl  0  0  0  0  0  0  0  0  0  0  0  0
   35.7220   28.0020   39.4020 C   0  0  0  0  0  0  0  0  0  0  0  0
   36.6460   27.8930   40.4260 C   0  0  0  0  0  0  0  0  0  0  0  0
   37.7070   27.0070   40.3270 C   0  0  0  0  0  0  0  0  0  0  0  0
   37.8420   26.2270   39.1950 C   0  0  0  0  0  0  0  0  0  0  0  0
   36.9280   26.3460   38.1980 C   0  0  0  0  0  0  0  0  0  0  0  0
   35.8400   27.2390   38.2730 C   0  0  0  0  0  0  0  0  0  0  0  0
   38.3510   27.0100   41.1730 H   0  0  0  0  0  0  0  0  0  0  0  0
   38.6690   25.5510   39.1390 H   0  0  0  0  0  0  0  0  0  0  0  0
   37.1020   25.7010   37.3430 H   0  0  0  0  0  0  0  0  0  0  0  0
   34.9900   27.1770   37.1080 C   0  0  0  0  0  0  0  0  0  0  0  0
   33.8760   26.2160   37.0510 C   0  0  0  0  0  0  0  0  0  0  0  0
   33.4490   25.4290   37.7060 H   0  0  0  0  0  0  0  0  0  0  0  0
   33.0590   26.5670   35.3930 S   0  0  0  0  0  0  0  0  0  0  0  0
   34.3500   27.9220   35.0890 C   0  0  0  0  0  0  0  0  0  0  0  0
   34.5500   28.6780   34.2050 H   0  0  0  0  0  0  0  0  0  0  0  0
   34.9980   27.8990   36.0140 N   0  0  0  0  0  0  0  0  0  0  0  0
  1  6  1  0  0  0  0
  1 16  1  0  0  0  0
  2  1  2  0  0  0  0
  3  4  2  0  0  0  0
  3  2  1  0  0  0  0
  4  5  1  0  0  0  0
  5 23  1  0  0  0  0
  5  6  2  0  0  0  0
  7  2  1  0  0  0  0
  8  3  1  0  0  0  0
  9  4  1  0  0  0  0
 10 19  1  0  0  0  0
 11 20  1  0  0  0  0
 11 10  2  0  0  0  0
 12 11  1  0  0  0  0
 13 12  2  0  0  0  0
 13 14  1  0  0  0  0
 14 15  2  0  0  0  0
 15 10  1  0  0  0  0
 16 18  1  0  0  0  0
 17 16  2  0  0  0  0
 18 14  1  0  0  0  0
 18 22  1  0  0  0  0
 21 12  1  0  0  0  0
 23 24  2  0  0  0  0
 24 25  1  0  0  0  0
 25 27  1  0  0  0  0
 25 26  1  0  0  0  0
 29 28  1  0  0  0  0
 29 30  1  0  0  0  0
 30 25  1  0  0  0  0
 31 30  2  0  0  0  0
 31 35  1  0  0  0  0
 32 31  1  0  0  0  0
 33 34  1  0  0  0  0
 33 32  2  0  0  0  0
 34 29  2  0  0  0  0
 36 32  1  0  0  0  0
 37 33  1  0  0  0  0
 38 34  1  0  0  0  0
 39 38  2  0  0  0  0
 39 40  1  0  0  0  0
 41 39  1  0  0  0  0
 42 41  1  0  0  0  0
 42 44  2  0  0  0  0
 43 42  1  0  0  0  0
 44 38  1  0  0  0  0
M  END
>  <minimizedAffinity>
-6.42091751

$$$$

 OpenBabel03242511033D

 44 47  0  0  0  0  0  0  0  0999 V2000
   40.2320   32.8550   38.9000 C   0  0  0  0  0  0  0  0  0  0  0  0
   40.0370   34.0220   39.6330 C   0  0  0  0  0  0  0  0  0  0  0  0
   38.8570   34.3290   40.2770 C   0  0  0  0  0  0  0  0  0  0  0  0
   37.8280   33.4220   40.1820 C   0  0  0  0  0  0  0  0  0  0  0  0
   38.0260   32.2520   39.4470 C   0  0  0  0  0  0  0  0  0  0  0  0
   39.1960   32.0090   38.8420 N   0  0  0  0  0  0  0  0  0  0  0  0
   40.8710   34.7100   39.6850 H   0  0  0  0  0  0  0  0  0  0  0  0
   38.7890   35.2590   40.8260 H   0  0  0  0  0  0  0  0  0  0  0  0
   36.9140   33.6710   40.6870 H   0  0  0  0  0  0  0  0  0  0  0  0
   44.1540   30.0750   35.2250 C   0  0  0  0  0  0  0  0  0  0  0  0
   45.2990   30.7830   35.6190 C   0  0  0  0  0  0  0  0  0  0  0  0
   45.1820   31.7190   36.6400 C   0  0  0  0  0  0  0  0  0  0  0  0
   43.9560   31.9230   37.2310 N   0  0  0  0  0  0  0  0  0  0  0  0
   42.8700   31.2080   36.8120 C   0  0  0  0  0  0  0  0  0  0  0  0
   42.9760   30.2920   35.8170 N   0  0  0  0  0  0  0  0  0  0  0  0
   41.5200   32.6160   38.2510 C   0  0  0  0  0  0  0  0  0  0  0  0
   42.4460   33.4400   38.4360 O   0  0  0  0  0  0  0  0  0  0  0  0
   41.6220   31.4440   37.4440 N   0  0  0  0  0  0  0  0  0  0  0  0
   44.0960   29.3220   34.4510 H   0  0  0  0  0  0  0  0  0  0  0  0
   46.1990   30.5520   35.1000 H   0  0  0  0  0  0  0  0  0  0  0  0
   46.0590   32.2640   36.9450 H   0  0  0  0  0  0  0  0  0  0  0  0
   40.8310   30.7870   37.3180 H   0  0  0  0  0  0  0  0  0  0  0  0
   36.9380   31.2950   39.3470 C   0  0  0  0  0  3  0  0  0  0  0  0
   36.4000   30.7790   40.4290 C   0  0  0  0  0  3  0  0  0  0  0  0
   35.2810   29.7860   40.4640 C   0  0  0  0  0  0  0  0  0  0  0  0
   35.2050   29.4960   41.5100 H   0  0  0  0  0  0  0  0  0  0  0  0
   34.3300   30.2950   40.2060 H   0  0  0  0  0  0  0  0  0  0  0  0
   36.7550   27.6620   41.8520 Cl  0  0  0  0  0  0  0  0  0  0  0  0
   36.2500   27.5880   40.1660 C   0  0  0  0  0  0  0  0  0  0  0  0
   35.5640   28.6330   39.5750 C   0  0  0  0  0  0  0  0  0  0  0  0
   35.1870   28.5670   38.2430 C   0  0  0  0  0  0  0  0  0  0  0  0
   35.5010   27.4460   37.5000 C   0  0  0  0  0  0  0  0  0  0  0  0
   36.1760   26.4280   38.0930 C   0  0  0  0  0  0  0  0  0  0  0  0
   36.5690   26.4700   39.4460 C   0  0  0  0  0  0  0  0  0  0  0  0
   34.6660   29.4270   37.9000 H   0  0  0  0  0  0  0  0  0  0  0  0
   35.2010   27.4160   36.4740 H   0  0  0  0  0  0  0  0  0  0  0  0
   36.3840   25.5830   37.4450 H   0  0  0  0  0  0  0  0  0  0  0  0
   37.2900   25.2860   39.8500 C   0  0  0  0  0  0  0  0  0  0  0  0
   36.5920   23.9940   39.9640 C   0  0  0  0  0  0  0  0  0  0  0  0
   35.5600   23.6140   39.8260 H   0  0  0  0  0  0  0  0  0  0  0  0
   37.9520   22.7870   40.4510 S   0  0  0  0  0  0  0  0  0  0  0  0
   39.1870   24.2240   40.4100 C   0  0  0  0  0  0  0  0  0  0  0  0
   40.3470   24.3120   40.6130 H   0  0  0  0  0  0  0  0  0  0  0  0
   38.5610   25.1190   40.1220 N   0  0  0  0  0  0  0  0  0  0  0  0
  1  2  1  0  0  0  0
  2  7  1  0  0  0  0
  2  3  2  0  0  0  0
  3  8  1  0  0  0  0
  4  3  1  0  0  0  0
  4  9  1  0  0  0  0
  5  4  2  0  0  0  0
  6  1  2  0  0  0  0
  6  5  1  0  0  0  0
 10 11  2  0  0  0  0
 10 15  1  0  0  0  0
 11 12  1  0  0  0  0
 12 21  1  0  0  0  0
 12 13  2  0  0  0  0
 14 13  1  0  0  0  0
 14 18  1  0  0  0  0
 15 14  2  0  0  0  0
 16 17  2  0  0  0  0
 16  1  1  0  0  0  0
 18 16  1  0  0  0  0
 19 10  1  0  0  0  0
 20 11  1  0  0  0  0
 22 18  1  0  0  0  0
 23  5  1  0  0  0  0
 23 24  2  0  0  0  0
 24 25  1  0  0  0  0
 25 26  1  0  0  0  0
 27 25  1  0  0  0  0
 29 28  1  0  0  0  0
 30 29  1  0  0  0  0
 30 25  1  0  0  0  0
 31 30  2  0  0  0  0
 32 33  2  0  0  0  0
 32 31  1  0  0  0  0
 33 34  1  0  0  0  0
 34 38  1  0  0  0  0
 34 29  2  0  0  0  0
 35 31  1  0  0  0  0
 36 32  1  0  0  0  0
 37 33  1  0  0  0  0
 38 39  2  0  0  0  0
 38 44  1  0  0  0  0
 39 41  1  0  0  0  0
 40 39  1  0  0  0  0
 42 41  1  0  0  0  0
 42 43  1  0  0  0  0
 44 42  2  0  0  0  0
M  END
>  <minimizedAffinity>
-6.4003191

$$$$
