
 OpenBabel03242516013D

 26 28  0  0  0  0  0  0  0  0999 V2000
   38.0630   28.3030   39.3470 Cl  0  0  0  0  0  0  0  0  0  0  0  0
   37.6660   28.1130   41.0500 C   0  0  0  0  0  0  0  0  0  0  0  0
   37.6750   29.1660   41.8950 C   0  0  0  0  0  0  0  0  0  0  0  0
   37.3410   28.8750   43.1960 C   0  0  0  0  0  0  0  0  0  0  0  0
   37.0230   27.6350   43.6310 C   0  0  0  0  0  0  0  0  0  0  0  0
   37.0210   26.5860   42.7580 C   0  0  0  0  0  0  0  0  0  0  0  0
   37.3520   26.8330   41.4320 C   0  0  0  0  0  0  0  0  0  0  0  0
   37.3340   29.6920   43.9170 H   0  0  0  0  0  0  0  0  0  0  0  0
   36.7710   27.4840   44.6750 H   0  0  0  0  0  0  0  0  0  0  0  0
   36.7600   25.6180   43.1570 H   0  0  0  0  0  0  0  0  0  0  0  0
   37.4790   32.5740   40.2620 C   0  0  0  0  0  0  0  0  0  0  0  0
   37.1160   31.3090   40.7450 C   0  0  0  0  0  0  0  0  0  0  0  0
   38.0220   30.4750   41.3870 C   0  0  0  0  0  0  0  0  0  0  0  0
   39.2850   30.9770   41.5130 N   0  0  0  0  0  0  0  0  0  0  0  0
   39.6200   32.1910   41.0460 C   0  0  0  0  0  0  0  0  0  0  0  0
   38.7380   32.9790   40.4320 N   0  0  0  0  0  0  0  0  0  0  0  0
   36.6670   33.1120   39.7830 H   0  0  0  0  0  0  0  0  0  0  0  0
   36.1130   30.9340   40.6340 H   0  0  0  0  0  0  0  0  0  0  0  0
   40.6470   32.5650   41.1640 H   0  0  0  0  0  0  0  0  0  0  0  0
   37.3530   25.7010   40.4740 C   0  0  0  0  0  0  0  0  0  0  0  0
   38.4580   24.8580   40.2910 C   0  0  0  0  0  0  0  0  0  0  0  0
   39.5570   24.9310   40.8800 H   0  0  0  0  0  0  0  0  0  0  0  0
   37.9090   23.6800   39.0290 S   0  0  0  0  0  0  0  0  0  0  0  0
   36.2100   24.5330   38.9360 C   0  0  0  0  0  0  0  0  0  0  0  0
   35.4530   24.1350   38.2350 H   0  0  0  0  0  0  0  0  0  0  0  0
   36.3790   25.3360   39.6950 N   0  0  0  0  0  0  0  0  0  0  0  0
  1  2  1  0  0  0  0
  2  7  2  0  0  0  0
  2  3  1  0  0  0  0
  3  4  2  0  0  0  0
  4  5  1  0  0  0  0
  4  8  1  0  0  0  0
  5  9  1  0  0  0  0
  6 10  1  0  0  0  0
  6  5  2  0  0  0  0
  7  6  1  0  0  0  0
 11 16  2  0  0  0  0
 11 12  1  0  0  0  0
 12 13  2  0  0  0  0
 13 14  1  0  0  0  0
 13  3  1  0  0  0  0
 15 19  1  0  0  0  0
 15 14  2  0  0  0  0
 16 15  1  0  0  0  0
 17 11  1  0  0  0  0
 18 12  1  0  0  0  0
 20  7  1  0  0  0  0
 21 20  2  0  0  0  0
 21 22  1  0  0  0  0
 23 21  1  0  0  0  0
 24 23  1  0  0  0  0
 24 26  2  0  0  0  0
 25 24  1  0  0  0  0
 26 20  1  0  0  0  0
M  END
>  <minimizedAffinity>
-4.74854898

$$$$

 OpenBabel03242516013D

 26 28  0  0  0  0  0  0  0  0999 V2000
   37.4340   30.9110   37.0110 Cl  0  0  0  0  0  0  0  0  0  0  0  0
   36.5220   30.3000   38.3860 C   0  0  0  0  0  0  0  0  0  0  0  0
   36.7220   30.7820   39.6300 C   0  0  0  0  0  0  0  0  0  0  0  0
   35.9400   30.2170   40.6090 C   0  0  0  0  0  0  0  0  0  0  0  0
   35.0270   29.2480   40.3750 C   0  0  0  0  0  0  0  0  0  0  0  0
   34.8430   28.7760   39.1080 C   0  0  0  0  0  0  0  0  0  0  0  0
   35.6120   29.3180   38.0870 C   0  0  0  0  0  0  0  0  0  0  0  0
   36.0640   30.5730   41.6320 H   0  0  0  0  0  0  0  0  0  0  0  0
   34.4460   28.8500   41.2010 H   0  0  0  0  0  0  0  0  0  0  0  0
   34.1020   28.0020   38.9760 H   0  0  0  0  0  0  0  0  0  0  0  0
   38.3830   34.1600   40.0190 C   0  0  0  0  0  0  0  0  0  0  0  0
   37.4070   33.1740   39.8170 C   0  0  0  0  0  0  0  0  0  0  0  0
   37.7090   31.8190   39.8360 C   0  0  0  0  0  0  0  0  0  0  0  0
   39.0220   31.5200   40.0640 N   0  0  0  0  0  0  0  0  0  0  0  0
   39.9470   32.4740   40.2560 C   0  0  0  0  0  0  0  0  0  0  0  0
   39.6400   33.7700   40.2350 N   0  0  0  0  0  0  0  0  0  0  0  0
   38.0000   35.1740   39.9770 H   0  0  0  0  0  0  0  0  0  0  0  0
   36.3770   33.4340   39.6380 H   0  0  0  0  0  0  0  0  0  0  0  0
   40.9950   32.1980   40.4380 H   0  0  0  0  0  0  0  0  0  0  0  0
   35.4210   28.8130   36.7040 C   0  0  0  0  0  0  0  0  0  0  0  0
   36.1910   27.7770   36.1570 C   0  0  0  0  0  0  0  0  0  0  0  0
   37.1110   27.1530   36.7250 H   0  0  0  0  0  0  0  0  0  0  0  0
   35.5370   27.5830   34.4800 S   0  0  0  0  0  0  0  0  0  0  0  0
   34.2780   28.9770   34.7810 C   0  0  0  0  0  0  0  0  0  0  0  0
   33.5850   29.2530   33.9640 H   0  0  0  0  0  0  0  0  0  0  0  0
   34.5540   29.2340   35.8330 N   0  0  0  0  0  0  0  0  0  0  0  0
  1  2  1  0  0  0  0
  2  3  1  0  0  0  0
  3 13  1  0  0  0  0
  3  4  2  0  0  0  0
  4  8  1  0  0  0  0
  5  4  1  0  0  0  0
  5  9  1  0  0  0  0
  6  5  2  0  0  0  0
  7  2  2  0  0  0  0
  7  6  1  0  0  0  0
 10  6  1  0  0  0  0
 11 16  1  0  0  0  0
 12 13  1  0  0  0  0
 12 11  2  0  0  0  0
 13 14  2  0  0  0  0
 14 15  1  0  0  0  0
 15 19  1  0  0  0  0
 16 15  2  0  0  0  0
 17 11  1  0  0  0  0
 18 12  1  0  0  0  0
 20  7  1  0  0  0  0
 21 20  2  0  0  0  0
 21 22  1  0  0  0  0
 23 24  1  0  0  0  0
 23 21  1  0  0  0  0
 24 26  2  0  0  0  0
 25 24  1  0  0  0  0
 26 20  1  0  0  0  0
M  END
>  <minimizedAffinity>
-4.7229414

$$$$

 OpenBabel03242516013D

 26 28  0  0  0  0  0  0  0  0999 V2000
   38.0410   28.0900   39.3170 Cl  0  0  0  0  0  0  0  0  0  0  0  0
   37.6940   27.8960   41.0300 C   0  0  0  0  0  0  0  0  0  0  0  0
   37.5450   26.6730   41.5810 C   0  0  0  0  0  0  0  0  0  0  0  0
   37.2810   26.6670   42.9300 C   0  0  0  0  0  0  0  0  0  0  0  0
   37.1700   27.7870   43.6780 C   0  0  0  0  0  0  0  0  0  0  0  0
   37.3240   29.0130   43.0980 C   0  0  0  0  0  0  0  0  0  0  0  0
   37.5930   29.0670   41.7370 C   0  0  0  0  0  0  0  0  0  0  0  0
   37.1530   25.7030   43.4220 H   0  0  0  0  0  0  0  0  0  0  0  0
   36.9590   27.7030   44.7390 H   0  0  0  0  0  0  0  0  0  0  0  0
   37.2260   29.8750   43.7400 H   0  0  0  0  0  0  0  0  0  0  0  0
   36.7390   23.7320   39.3410 C   0  0  0  0  0  0  0  0  0  0  0  0
   36.5880   24.8670   40.1490 C   0  0  0  0  0  0  0  0  0  0  0  0
   37.6720   25.5000   40.7430 C   0  0  0  0  0  0  0  0  0  0  0  0
   38.8870   24.9370   40.4820 N   0  0  0  0  0  0  0  0  0  0  0  0
   39.0180   23.8500   39.7070 C   0  0  0  0  0  0  0  0  0  0  0  0
   37.9670   23.2530   39.1430 N   0  0  0  0  0  0  0  0  0  0  0  0
   35.8040   23.3460   38.9460 H   0  0  0  0  0  0  0  0  0  0  0  0
   35.6180   25.2940   40.3410 H   0  0  0  0  0  0  0  0  0  0  0  0
   40.0130   23.4220   39.5170 H   0  0  0  0  0  0  0  0  0  0  0  0
   37.7620   30.3940   41.0940 C   0  0  0  0  0  0  0  0  0  0  0  0
   36.6870   31.1430   40.5950 C   0  0  0  0  0  0  0  0  0  0  0  0
   35.4810   30.8190   40.6160 H   0  0  0  0  0  0  0  0  0  0  0  0
   37.4620   32.6410   39.9380 S   0  0  0  0  0  0  0  0  0  0  0  0
   39.1810   32.0090   40.4540 C   0  0  0  0  0  0  0  0  0  0  0  0
   40.0650   32.6400   40.2430 H   0  0  0  0  0  0  0  0  0  0  0  0
   38.8780   31.0330   40.9050 N   0  0  0  0  0  0  0  0  0  0  0  0
  1  2  1  0  0  0  0
  2  3  2  0  0  0  0
  2  7  1  0  0  0  0
  3  4  1  0  0  0  0
  4  8  1  0  0  0  0
  4  5  2  0  0  0  0
  5  9  1  0  0  0  0
  6  5  1  0  0  0  0
  6 10  1  0  0  0  0
  7  6  2  0  0  0  0
 11 12  1  0  0  0  0
 12 18  1  0  0  0  0
 12 13  2  0  0  0  0
 13  3  1  0  0  0  0
 14 13  1  0  0  0  0
 15 14  2  0  0  0  0
 16 11  2  0  0  0  0
 16 15  1  0  0  0  0
 17 11  1  0  0  0  0
 19 15  1  0  0  0  0
 20  7  1  0  0  0  0
 21 22  1  0  0  0  0
 21 20  2  0  0  0  0
 23 24  1  0  0  0  0
 23 21  1  0  0  0  0
 24 26  2  0  0  0  0
 25 24  1  0  0  0  0
 26 20  1  0  0  0  0
M  END
>  <minimizedAffinity>
-4.55644083

$$$$

 OpenBabel03242516013D

 26 28  0  0  0  0  0  0  0  0999 V2000
   37.5220   26.9480   39.7540 Cl  0  0  0  0  0  0  0  0  0  0  0  0
   38.3460   26.9390   41.3080 C   0  0  0  0  0  0  0  0  0  0  0  0
   38.5290   28.0760   42.0120 C   0  0  0  0  0  0  0  0  0  0  0  0
   39.1850   27.9230   43.2100 C   0  0  0  0  0  0  0  0  0  0  0  0
   39.6270   26.7340   43.6780 C   0  0  0  0  0  0  0  0  0  0  0  0
   39.4310   25.5980   42.9480 C   0  0  0  0  0  0  0  0  0  0  0  0
   38.7730   25.7050   41.7300 C   0  0  0  0  0  0  0  0  0  0  0  0
   39.3560   28.8120   43.8160 H   0  0  0  0  0  0  0  0  0  0  0  0
   40.1380   26.6930   44.6350 H   0  0  0  0  0  0  0  0  0  0  0  0
   39.8040   24.6760   43.3670 H   0  0  0  0  0  0  0  0  0  0  0  0
   38.3430   31.4370   40.2840 C   0  0  0  0  0  0  0  0  0  0  0  0
   38.8440   30.2320   40.7960 C   0  0  0  0  0  0  0  0  0  0  0  0
   38.0390   29.3260   41.4740 C   0  0  0  0  0  0  0  0  0  0  0  0
   36.7310   29.6950   41.6040 N   0  0  0  0  0  0  0  0  0  0  0  0
   36.2640   30.8520   41.1090 C   0  0  0  0  0  0  0  0  0  0  0  0
   37.0500   31.7120   40.4600 N   0  0  0  0  0  0  0  0  0  0  0  0
   39.0880   32.0440   39.7790 H   0  0  0  0  0  0  0  0  0  0  0  0
   39.8800   29.9620   40.6810 H   0  0  0  0  0  0  0  0  0  0  0  0
   35.2050   31.1190   41.2320 H   0  0  0  0  0  0  0  0  0  0  0  0
   38.5530   24.4770   40.9270 C   0  0  0  0  0  0  0  0  0  0  0  0
   37.4930   23.5900   41.1640 C   0  0  0  0  0  0  0  0  0  0  0  0
   36.6160   23.6960   42.0460 H   0  0  0  0  0  0  0  0  0  0  0  0
   37.7120   22.3000   39.9120 S   0  0  0  0  0  0  0  0  0  0  0  0
   39.2540   23.1830   39.2330 C   0  0  0  0  0  0  0  0  0  0  0  0
   39.7920   22.7320   38.3780 H   0  0  0  0  0  0  0  0  0  0  0  0
   39.2730   24.0560   39.9300 N   0  0  0  0  0  0  0  0  0  0  0  0
  1  2  1  0  0  0  0
  2  7  2  0  0  0  0
  2  3  1  0  0  0  0
  3  4  2  0  0  0  0
  4  5  1  0  0  0  0
  4  8  1  0  0  0  0
  5  9  1  0  0  0  0
  6 10  1  0  0  0  0
  6  5  2  0  0  0  0
  7  6  1  0  0  0  0
 11 16  2  0  0  0  0
 11 12  1  0  0  0  0
 12 13  2  0  0  0  0
 13 14  1  0  0  0  0
 13  3  1  0  0  0  0
 15 19  1  0  0  0  0
 15 14  2  0  0  0  0
 16 15  1  0  0  0  0
 17 11  1  0  0  0  0
 18 12  1  0  0  0  0
 20 21  2  0  0  0  0
 20  7  1  0  0  0  0
 21 22  1  0  0  0  0
 23 21  1  0  0  0  0
 24 23  1  0  0  0  0
 24 26  2  0  0  0  0
 25 24  1  0  0  0  0
 26 20  1  0  0  0  0
M  END
>  <minimizedAffinity>
-4.53724146

$$$$

 OpenBabel03242516013D

 26 28  0  0  0  0  0  0  0  0999 V2000
   40.4650   29.8560   40.3660 Cl  0  0  0  0  0  0  0  0  0  0  0  0
   39.0350   30.8710   40.2230 C   0  0  0  0  0  0  0  0  0  0  0  0
   37.8660   30.5210   40.7980 C   0  0  0  0  0  0  0  0  0  0  0  0
   36.8330   31.4080   40.6100 C   0  0  0  0  0  0  0  0  0  0  0  0
   36.9470   32.5560   39.9050 C   0  0  0  0  0  0  0  0  0  0  0  0
   38.1400   32.8880   39.3320 C   0  0  0  0  0  0  0  0  0  0  0  0
   39.2130   32.0210   39.4960 C   0  0  0  0  0  0  0  0  0  0  0  0
   35.8670   31.1700   41.0560 H   0  0  0  0  0  0  0  0  0  0  0  0
   36.0850   33.2060   39.7990 H   0  0  0  0  0  0  0  0  0  0  0  0
   38.1770   33.8140   38.7800 H   0  0  0  0  0  0  0  0  0  0  0  0
   37.9200   27.9920   43.6130 C   0  0  0  0  0  0  0  0  0  0  0  0
   38.0020   29.2050   42.9140 C   0  0  0  0  0  0  0  0  0  0  0  0
   37.7880   29.2840   41.5440 C   0  0  0  0  0  0  0  0  0  0  0  0
   37.4940   28.1000   40.9330 N   0  0  0  0  0  0  0  0  0  0  0  0
   37.4180   26.9450   41.6130 C   0  0  0  0  0  0  0  0  0  0  0  0
   37.6260   26.8860   42.9290 N   0  0  0  0  0  0  0  0  0  0  0  0
   38.1120   28.0840   44.6770 H   0  0  0  0  0  0  0  0  0  0  0  0
   38.2360   30.1270   43.4180 H   0  0  0  0  0  0  0  0  0  0  0  0
   37.1790   26.0090   41.0900 H   0  0  0  0  0  0  0  0  0  0  0  0
   40.5150   32.3710   38.8780 C   0  0  0  0  0  0  0  0  0  0  0  0
   40.8130   32.1190   37.5320 C   0  0  0  0  0  0  0  0  0  0  0  0
   40.0600   31.5860   36.6890 H   0  0  0  0  0  0  0  0  0  0  0  0
   42.5030   32.7390   37.3310 S   0  0  0  0  0  0  0  0  0  0  0  0
   42.5540   33.2650   39.1590 C   0  0  0  0  0  0  0  0  0  0  0  0
   43.4730   33.7400   39.5500 H   0  0  0  0  0  0  0  0  0  0  0  0
   41.5290   32.9370   39.4620 N   0  0  0  0  0  0  0  0  0  0  0  0
  2  1  1  0  0  0  0
  2  3  1  0  0  0  0
  3 13  1  0  0  0  0
  4  3  2  0  0  0  0
  4  8  1  0  0  0  0
  5  4  1  0  0  0  0
  6  7  1  0  0  0  0
  6  5  2  0  0  0  0
  7  2  2  0  0  0  0
  9  5  1  0  0  0  0
 10  6  1  0  0  0  0
 11 17  1  0  0  0  0
 12 18  1  0  0  0  0
 12 11  2  0  0  0  0
 13 12  1  0  0  0  0
 14 13  2  0  0  0  0
 14 15  1  0  0  0  0
 15 16  2  0  0  0  0
 16 11  1  0  0  0  0
 19 15  1  0  0  0  0
 20 26  1  0  0  0  0
 20  7  1  0  0  0  0
 21 20  2  0  0  0  0
 22 21  1  0  0  0  0
 23 21  1  0  0  0  0
 23 24  1  0  0  0  0
 24 26  2  0  0  0  0
 24 25  1  0  0  0  0
M  END
>  <minimizedAffinity>
-4.50143337

$$$$

 OpenBabel03242516013D

 26 28  0  0  0  0  0  0  0  0999 V2000
   40.6610   29.7460   40.9020 Cl  0  0  0  0  0  0  0  0  0  0  0  0
   38.9560   30.1770   40.9350 C   0  0  0  0  0  0  0  0  0  0  0  0
   38.0270   29.3280   41.4230 C   0  0  0  0  0  0  0  0  0  0  0  0
   36.7350   29.7950   41.3910 C   0  0  0  0  0  0  0  0  0  0  0  0
   36.3860   31.0100   40.9130 C   0  0  0  0  0  0  0  0  0  0  0  0
   37.3440   31.8510   40.4240 C   0  0  0  0  0  0  0  0  0  0  0  0
   38.6640   31.4210   40.4360 C   0  0  0  0  0  0  0  0  0  0  0  0
   35.9480   29.1460   41.7750 H   0  0  0  0  0  0  0  0  0  0  0  0
   35.3430   31.3090   40.9210 H   0  0  0  0  0  0  0  0  0  0  0  0
   37.0120   32.8090   40.0540 H   0  0  0  0  0  0  0  0  0  0  0  0
   39.3160   26.5750   43.6770 C   0  0  0  0  0  0  0  0  0  0  0  0
   38.9180   27.8380   43.2150 C   0  0  0  0  0  0  0  0  0  0  0  0
   38.4450   28.0370   41.9250 C   0  0  0  0  0  0  0  0  0  0  0  0
   38.3960   26.9190   41.1440 N   0  0  0  0  0  0  0  0  0  0  0  0
   38.7800   25.7150   41.5990 C   0  0  0  0  0  0  0  0  0  0  0  0
   39.2320   25.5400   42.8400 N   0  0  0  0  0  0  0  0  0  0  0  0
   39.6630   26.5720   44.7050 H   0  0  0  0  0  0  0  0  0  0  0  0
   38.9650   28.7070   43.8490 H   0  0  0  0  0  0  0  0  0  0  0  0
   38.7280   24.8350   40.9430 H   0  0  0  0  0  0  0  0  0  0  0  0
   39.7140   32.3260   39.9070 C   0  0  0  0  0  0  0  0  0  0  0  0
   40.0990   32.3430   38.5590 C   0  0  0  0  0  0  0  0  0  0  0  0
   39.6360   31.6310   37.6430 H   0  0  0  0  0  0  0  0  0  0  0  0
   41.3890   33.6120   38.4860 S   0  0  0  0  0  0  0  0  0  0  0  0
   41.2080   33.9400   40.3510 C   0  0  0  0  0  0  0  0  0  0  0  0
   41.8500   34.7100   40.8200 H   0  0  0  0  0  0  0  0  0  0  0  0
   40.4040   33.1980   40.5800 N   0  0  0  0  0  0  0  0  0  0  0  0
  1  2  1  0  0  0  0
  2  3  1  0  0  0  0
  3 13  1  0  0  0  0
  4  3  2  0  0  0  0
  4  8  1  0  0  0  0
  5  9  1  0  0  0  0
  5  4  1  0  0  0  0
  6  7  1  0  0  0  0
  6  5  2  0  0  0  0
  7  2  2  0  0  0  0
 10  6  1  0  0  0  0
 11 17  1  0  0  0  0
 12 11  1  0  0  0  0
 12 18  1  0  0  0  0
 13 12  2  0  0  0  0
 14 15  2  0  0  0  0
 14 13  1  0  0  0  0
 15 16  1  0  0  0  0
 16 11  2  0  0  0  0
 19 15  1  0  0  0  0
 20  7  1  0  0  0  0
 20 26  1  0  0  0  0
 21 20  2  0  0  0  0
 22 21  1  0  0  0  0
 23 21  1  0  0  0  0
 23 24  1  0  0  0  0
 24 26  2  0  0  0  0
 24 25  1  0  0  0  0
M  END
>  <minimizedAffinity>
-4.48530054

$$$$

 OpenBabel03242516013D

 26 28  0  0  0  0  0  0  0  0999 V2000
   40.2040   29.1960   40.8130 Cl  0  0  0  0  0  0  0  0  0  0  0  0
   38.7350   28.5640   41.5470 C   0  0  0  0  0  0  0  0  0  0  0  0
   37.5230   29.0740   41.2430 C   0  0  0  0  0  0  0  0  0  0  0  0
   36.4620   28.4830   41.8860 C   0  0  0  0  0  0  0  0  0  0  0  0
   36.5890   27.4640   42.7650 C   0  0  0  0  0  0  0  0  0  0  0  0
   37.8260   26.9660   43.0570 C   0  0  0  0  0  0  0  0  0  0  0  0
   38.9280   27.5320   42.4300 C   0  0  0  0  0  0  0  0  0  0  0  0
   35.4620   28.8600   41.6740 H   0  0  0  0  0  0  0  0  0  0  0  0
   35.7030   27.0500   43.2350 H   0  0  0  0  0  0  0  0  0  0  0  0
   37.8710   26.1530   43.7650 H   0  0  0  0  0  0  0  0  0  0  0  0
   37.2860   32.5370   39.7360 C   0  0  0  0  0  0  0  0  0  0  0  0
   37.3730   31.4990   40.6740 C   0  0  0  0  0  0  0  0  0  0  0  0
   37.4330   30.1640   40.2960 C   0  0  0  0  0  0  0  0  0  0  0  0
   37.4020   29.9400   38.9500 N   0  0  0  0  0  0  0  0  0  0  0  0
   37.3180   30.9430   38.0620 C   0  0  0  0  0  0  0  0  0  0  0  0
   37.2610   32.2190   38.4410 N   0  0  0  0  0  0  0  0  0  0  0  0
   37.2460   33.5270   40.1780 H   0  0  0  0  0  0  0  0  0  0  0  0
   37.3960   31.7000   41.7320 H   0  0  0  0  0  0  0  0  0  0  0  0
   37.2950   30.7270   36.9850 H   0  0  0  0  0  0  0  0  0  0  0  0
   40.2770   26.9990   42.7390 C   0  0  0  0  0  0  0  0  0  0  0  0
   40.6920   25.7120   42.3670 C   0  0  0  0  0  0  0  0  0  0  0  0
   40.0180   24.8610   41.7490 H   0  0  0  0  0  0  0  0  0  0  0  0
   42.3900   25.6010   42.9880 S   0  0  0  0  0  0  0  0  0  0  0  0
   42.2800   27.3700   43.6800 C   0  0  0  0  0  0  0  0  0  0  0  0
   43.1590   27.7930   44.2010 H   0  0  0  0  0  0  0  0  0  0  0  0
   41.2340   27.6120   43.3700 N   0  0  0  0  0  0  0  0  0  0  0  0
  1  2  1  0  0  0  0
  2  7  1  0  0  0  0
  3  2  2  0  0  0  0
  3  4  1  0  0  0  0
  4  5  2  0  0  0  0
  5  6  1  0  0  0  0
  5  9  1  0  0  0  0
  6 10  1  0  0  0  0
  7 20  1  0  0  0  0
  7  6  2  0  0  0  0
  8  4  1  0  0  0  0
 11 17  1  0  0  0  0
 11 12  1  0  0  0  0
 12 18  1  0  0  0  0
 13 12  2  0  0  0  0
 13  3  1  0  0  0  0
 14 13  1  0  0  0  0
 15 16  1  0  0  0  0
 15 14  2  0  0  0  0
 16 11  2  0  0  0  0
 19 15  1  0  0  0  0
 20 26  1  0  0  0  0
 21 20  2  0  0  0  0
 21 23  1  0  0  0  0
 22 21  1  0  0  0  0
 23 24  1  0  0  0  0
 24 25  1  0  0  0  0
 26 24  2  0  0  0  0
M  END
>  <minimizedAffinity>
-4.48167229

$$$$

 OpenBabel03242516013D

 26 28  0  0  0  0  0  0  0  0999 V2000
   39.4420   27.1390   40.1820 Cl  0  0  0  0  0  0  0  0  0  0  0  0
   38.3580   27.3740   41.5470 C   0  0  0  0  0  0  0  0  0  0  0  0
   37.4480   26.4390   41.8910 C   0  0  0  0  0  0  0  0  0  0  0  0
   36.6700   26.7510   42.9800 C   0  0  0  0  0  0  0  0  0  0  0  0
   36.7820   27.9030   43.6780 C   0  0  0  0  0  0  0  0  0  0  0  0
   37.7100   28.8350   43.3110 C   0  0  0  0  0  0  0  0  0  0  0  0
   38.5190   28.5620   42.2160 C   0  0  0  0  0  0  0  0  0  0  0  0
   35.9200   26.0270   43.2970 H   0  0  0  0  0  0  0  0  0  0  0  0
   36.1310   28.0790   44.5270 H   0  0  0  0  0  0  0  0  0  0  0  0
   37.7580   29.7370   43.9020 H   0  0  0  0  0  0  0  0  0  0  0  0
   37.9550   22.8930   40.6680 C   0  0  0  0  0  0  0  0  0  0  0  0
   38.0570   24.0620   41.4360 C   0  0  0  0  0  0  0  0  0  0  0  0
   37.3620   25.2200   41.1160 C   0  0  0  0  0  0  0  0  0  0  0  0
   36.5760   25.1370   40.0030 N   0  0  0  0  0  0  0  0  0  0  0  0
   36.4880   24.0120   39.2750 C   0  0  0  0  0  0  0  0  0  0  0  0
   37.1620   22.9080   39.5970 N   0  0  0  0  0  0  0  0  0  0  0  0
   38.5550   22.0690   41.0390 H   0  0  0  0  0  0  0  0  0  0  0  0
   38.6840   24.1040   42.3110 H   0  0  0  0  0  0  0  0  0  0  0  0
   35.8450   23.9790   38.3840 H   0  0  0  0  0  0  0  0  0  0  0  0
   39.5320   29.5660   41.8080 C   0  0  0  0  0  0  0  0  0  0  0  0
   40.8140   29.6290   42.3710 C   0  0  0  0  0  0  0  0  0  0  0  0
   41.2750   28.8820   43.2610 H   0  0  0  0  0  0  0  0  0  0  0  0
   41.6030   31.0150   41.5150 S   0  0  0  0  0  0  0  0  0  0  0  0
   40.0280   31.3110   40.4890 C   0  0  0  0  0  0  0  0  0  0  0  0
   40.0220   32.1350   39.7500 H   0  0  0  0  0  0  0  0  0  0  0  0
   39.3920   30.4960   40.9110 N   0  0  0  0  0  0  0  0  0  0  0  0
  1  2  1  0  0  0  0
  2  3  2  0  0  0  0
  2  7  1  0  0  0  0
  3  4  1  0  0  0  0
  4  8  1  0  0  0  0
  4  5  2  0  0  0  0
  5  9  1  0  0  0  0
  6  5  1  0  0  0  0
  6 10  1  0  0  0  0
  7  6  2  0  0  0  0
 11 17  1  0  0  0  0
 11 12  1  0  0  0  0
 12 18  1  0  0  0  0
 13 12  2  0  0  0  0
 13  3  1  0  0  0  0
 14 13  1  0  0  0  0
 15 16  1  0  0  0  0
 15 14  2  0  0  0  0
 16 11  2  0  0  0  0
 19 15  1  0  0  0  0
 20  7  1  0  0  0  0
 20 21  2  0  0  0  0
 21 22  1  0  0  0  0
 23 21  1  0  0  0  0
 24 26  2  0  0  0  0
 24 23  1  0  0  0  0
 25 24  1  0  0  0  0
 26 20  1  0  0  0  0
M  END
>  <minimizedAffinity>
-4.42269945

$$$$

 OpenBabel03242516013D

 26 28  0  0  0  0  0  0  0  0999 V2000
   39.1860   29.7070   40.5460 Cl  0  0  0  0  0  0  0  0  0  0  0  0
   38.7640   31.4010   40.3370 C   0  0  0  0  0  0  0  0  0  0  0  0
   37.5610   31.7700   39.8480 C   0  0  0  0  0  0  0  0  0  0  0  0
   37.3640   33.1260   39.7410 C   0  0  0  0  0  0  0  0  0  0  0  0
   38.2880   34.0490   40.0900 C   0  0  0  0  0  0  0  0  0  0  0  0
   39.4970   33.6520   40.5820 C   0  0  0  0  0  0  0  0  0  0  0  0
   39.7410   32.2910   40.7080 C   0  0  0  0  0  0  0  0  0  0  0  0
   36.4080   33.4740   39.3510 H   0  0  0  0  0  0  0  0  0  0  0  0
   38.0590   35.1040   39.9760 H   0  0  0  0  0  0  0  0  0  0  0  0
   40.1980   34.4290   40.8450 H   0  0  0  0  0  0  0  0  0  0  0  0
   35.5230   29.2690   37.8710 C   0  0  0  0  0  0  0  0  0  0  0  0
   36.4600   30.2600   38.1950 C   0  0  0  0  0  0  0  0  0  0  0  0
   36.6030   30.7490   39.4860 C   0  0  0  0  0  0  0  0  0  0  0  0
   35.7670   30.1950   40.4130 N   0  0  0  0  0  0  0  0  0  0  0  0
   34.8730   29.2470   40.0900 C   0  0  0  0  0  0  0  0  0  0  0  0
   34.7480   28.7880   38.8450 N   0  0  0  0  0  0  0  0  0  0  0  0
   35.5250   28.9860   36.8240 H   0  0  0  0  0  0  0  0  0  0  0  0
   37.1090   30.6820   37.4470 H   0  0  0  0  0  0  0  0  0  0  0  0
   34.2150   28.8220   40.8610 H   0  0  0  0  0  0  0  0  0  0  0  0
   41.0520   31.8460   41.2410 C   0  0  0  0  0  0  0  0  0  0  0  0
   42.1910   31.6970   40.4380 C   0  0  0  0  0  0  0  0  0  0  0  0
   42.2690   31.9060   39.2090 H   0  0  0  0  0  0  0  0  0  0  0  0
   43.4730   31.1440   41.5910 S   0  0  0  0  0  0  0  0  0  0  0  0
   42.2350   31.2010   43.0350 C   0  0  0  0  0  0  0  0  0  0  0  0
   42.5840   30.9200   44.0460 H   0  0  0  0  0  0  0  0  0  0  0  0
   41.3310   31.5420   42.4730 N   0  0  0  0  0  0  0  0  0  0  0  0
  2  1  1  0  0  0  0
  2  7  1  0  0  0  0
  3  2  2  0  0  0  0
  4  3  1  0  0  0  0
  4  5  2  0  0  0  0
  5  6  1  0  0  0  0
  6  7  2  0  0  0  0
  6 10  1  0  0  0  0
  7 20  1  0  0  0  0
  8  4  1  0  0  0  0
  9  5  1  0  0  0  0
 11 12  2  0  0  0  0
 11 16  1  0  0  0  0
 12 13  1  0  0  0  0
 13  3  1  0  0  0  0
 13 14  2  0  0  0  0
 15 14  1  0  0  0  0
 15 19  1  0  0  0  0
 16 15  2  0  0  0  0
 17 11  1  0  0  0  0
 18 12  1  0  0  0  0
 20 26  1  0  0  0  0
 21 20  2  0  0  0  0
 21 23  1  0  0  0  0
 22 21  1  0  0  0  0
 23 24  1  0  0  0  0
 24 25  1  0  0  0  0
 26 24  2  0  0  0  0
M  END
>  <minimizedAffinity>
-4.38586426

$$$$
