
 OpenBabel03252505253D

 41 44  0  0  1  0  0  0  0  0999 V2000
   47.1560   31.3440   44.9320 F   0  0  0  0  0  0  0  0  0  0  0  0
   47.7560   30.3150   45.5900 C   0  0  0  0  0  0  0  0  0  0  0  0
   48.7760   29.6530   44.9510 C   0  0  0  0  0  0  0  0  0  0  0  0
   49.3810   28.6130   45.6170 C   0  0  0  0  0  0  0  0  0  0  0  0
   48.9540   28.2720   46.8860 C   0  0  0  0  0  0  0  0  0  0  0  0
   47.9410   28.9280   47.5240 C   0  0  0  0  0  0  0  0  0  0  0  0
   47.3290   29.9870   46.8380 C   0  0  0  0  0  0  0  0  0  0  0  0
   50.1900   28.0560   45.1600 H   0  0  0  0  0  0  0  0  0  0  0  0
   49.4350   27.4510   47.4060 H   0  0  0  0  0  0  0  0  0  0  0  0
   47.6220   28.6460   48.5150 H   0  0  0  0  0  0  0  0  0  0  0  0
   46.2860   30.6370   47.5380 N   0  0  0  0  0  0  0  0  0  0  0  0
   44.9740   30.1910   47.9250 C   0  0  0  0  0  0  0  0  0  0  0  0
   44.9200   30.5710   49.4210 C   0  0  0  0  0  0  0  0  0  0  0  0
   45.9230   31.6860   49.5410 C   0  0  0  0  0  0  0  0  0  0  0  0
   46.2360   31.9960   48.0910 C   0  0  2  0  0  0  0  0  0  0  0  0
   44.2370   30.7660   47.3470 H   0  0  0  0  0  0  0  0  0  0  0  0
   44.8360   29.1000   47.8230 H   0  0  0  0  0  0  0  0  0  0  0  0
   43.8790   30.9100   49.5960 H   0  0  0  0  0  0  0  0  0  0  0  0
   45.1870   29.6740   50.0110 H   0  0  0  0  0  0  0  0  0  0  0  0
   46.8080   31.4260   50.1280 H   0  0  0  0  0  0  0  0  0  0  0  0
   45.3790   32.5740   49.9590 H   0  0  0  0  0  0  0  0  0  0  0  0
   47.2880   32.3640   48.0650 H   0  0  0  0  0  0  0  0  0  0  0  0
   45.2550   32.8860   47.4330 C   0  0  0  0  0  0  0  0  0  0  0  0
   44.3200   32.9510   48.0240 H   0  0  0  0  0  0  0  0  0  0  0  0
   45.6770   33.9150   47.3980 H   0  0  0  0  0  0  0  0  0  0  0  0
   45.0850   32.5970   46.3790 H   0  0  0  0  0  0  0  0  0  0  0  0
   50.0740   29.5190   41.5190 C   0  0  0  0  0  0  0  0  0  0  0  0
   49.9660   30.8500   41.1020 C   0  0  0  0  0  0  0  0  0  0  0  0
   49.4450   31.7800   42.0140 C   0  0  0  0  0  0  0  0  0  0  0  0
   49.0950   31.2960   43.2150 N   0  0  0  0  0  0  0  0  0  0  0  0
   49.1930   30.0510   43.6110 C   0  0  0  0  0  0  0  0  0  0  0  0
   49.6850   29.1640   42.7570 N   0  0  0  0  0  0  0  0  0  0  0  0
   50.4750   28.7850   40.8230 H   0  0  0  0  0  0  0  0  0  0  0  0
   50.2590   31.1910   40.1330 H   0  0  0  0  0  0  0  0  0  0  0  0
   49.2860   33.2150   41.6830 C   0  0  0  0  0  0  0  0  0  0  0  0
   48.6000   33.6130   40.5460 C   0  0  0  0  0  0  0  0  0  0  0  0
   48.1170   32.9480   39.7940 H   0  0  0  0  0  0  0  0  0  0  0  0
   48.7180   35.4480   40.6450 S   0  0  0  0  0  0  0  0  0  0  0  0
   49.7090   35.3320   42.2630 C   0  0  0  0  0  0  0  0  0  0  0  0
   50.1300   36.1500   42.9050 H   0  0  0  0  0  0  0  0  0  0  0  0
   49.7720   34.1910   42.4230 N   0  0  0  0  0  0  0  0  0  0  0  0
  1  2  1  0  0  0  0
  2  7  1  0  0  0  0
  3  2  2  0  0  0  0
  3  4  1  0  0  0  0
  4  5  2  0  0  0  0
  5  9  1  0  0  0  0
  5  6  1  0  0  0  0
  6 10  1  0  0  0  0
  7  6  2  0  0  0  0
  7 11  1  0  0  0  0
  8  4  1  0  0  0  0
 11 12  1  0  0  0  0
 11 15  1  0  0  0  0
 12 13  1  0  0  0  0
 13 14  1  0  0  0  0
 13 18  1  0  0  0  0
 13 19  1  0  0  0  0
 14 21  1  0  0  0  0
 14 20  1  0  0  0  0
 15 22  1  6  0  0  0
 15 14  1  0  0  0  0
 16 12  1  0  0  0  0
 17 12  1  0  0  0  0
 23 24  1  0  0  0  0
 23 15  1  0  0  0  0
 25 23  1  0  0  0  0
 26 23  1  0  0  0  0
 27 32  1  0  0  0  0
 28 27  2  0  0  0  0
 28 29  1  0  0  0  0
 29 30  2  0  0  0  0
 30 31  1  0  0  0  0
 31  3  1  0  0  0  0
 32 31  2  0  0  0  0
 33 27  1  0  0  0  0
 34 28  1  0  0  0  0
 35 29  1  0  0  0  0
 35 41  1  0  0  0  0
 36 38  1  0  0  0  0
 36 35  2  0  0  0  0
 37 36  1  0  0  0  0
 38 39  1  0  0  0  0
 39 41  2  0  0  0  0
 39 40  1  0  0  0  0
M  END
>  <minimizedAffinity>
-4.39189005

>  <minimizedRMSD>
3.3927784

$$$$
