
 OpenBabel03252506563D

 36 40  0  0  0  0  0  0  0  0999 V2000
   47.1740   31.3220   45.1250 C   0  0  0  0  0  0  0  0  0  0  0  0
   46.8750   32.6740   45.1220 C   0  0  0  0  0  0  0  0  0  0  0  0
   46.3100   33.3100   46.2000 C   0  0  0  0  0  0  0  0  0  0  0  0
   46.0130   32.6060   47.3550 C   0  0  0  0  0  0  0  0  0  0  0  0
   45.4700   32.8880   48.5730 N   0  0  0  0  0  0  0  0  0  0  0  0
   45.4350   31.7420   49.3090 C   0  0  0  0  0  0  0  0  0  0  0  0
   45.9580   30.7700   48.5290 N   0  0  0  0  0  0  0  0  0  0  0  0
   46.3190   31.2680   47.3310 C   0  0  0  0  0  0  0  0  0  0  0  0
   46.8780   30.5920   46.2910 C   0  0  0  0  0  0  0  0  0  0  0  0
   47.6190   30.8290   44.2710 H   0  0  0  0  0  0  0  0  0  0  0  0
   46.0800   34.3690   46.1840 H   0  0  0  0  0  0  0  0  0  0  0  0
   45.1480   33.8500   48.8470 H   0  0  0  0  0  0  0  0  0  0  0  0
   45.0490   31.6690   50.3300 H   0  0  0  0  0  0  0  0  0  0  0  0
   46.5900   35.1420   42.4080 C   0  0  0  0  0  0  0  0  0  0  0  0
   47.7510   34.9350   41.6790 C   0  0  0  0  0  0  0  0  0  0  0  0
   48.6340   33.9420   42.1200 C   0  0  0  0  0  0  0  0  0  0  0  0
   48.3110   33.2330   43.2430 N   0  0  0  0  0  0  0  0  0  0  0  0
   47.1670   33.4640   43.9290 C   0  0  0  0  0  0  0  0  0  0  0  0
   46.3100   34.4120   43.5160 N   0  0  0  0  0  0  0  0  0  0  0  0
   45.8880   35.9090   42.0820 H   0  0  0  0  0  0  0  0  0  0  0  0
   47.9520   35.5320   40.7930 H   0  0  0  0  0  0  0  0  0  0  0  0
   49.5520   33.7540   41.5750 H   0  0  0  0  0  0  0  0  0  0  0  0
   47.1680   29.1580   46.3660 C   0  0  0  0  0  0  0  0  0  0  0  0
   48.4170   28.6030   46.2460 C   0  0  0  0  0  0  0  0  0  0  0  0
   48.1740   27.2260   46.3860 C   0  0  0  0  0  0  0  0  0  0  0  0
   46.8110   27.0250   46.5790 C   0  0  0  0  0  0  0  0  0  0  0  0
   46.2850   28.2300   46.5530 O   0  0  0  0  0  0  0  0  0  0  0  0
   49.3430   29.0980   46.0870 H   0  0  0  0  0  0  0  0  0  0  0  0
   48.9280   26.4580   46.3470 H   0  0  0  0  0  0  0  0  0  0  0  0
   46.1000   25.7440   46.7730 C   0  0  0  0  0  0  0  0  0  0  0  0
   46.9180   24.5140   47.0020 C   0  0  0  0  0  0  0  0  0  0  0  0
   47.9510   24.4720   47.0400 H   0  0  0  0  0  0  0  0  0  0  0  0
   45.4950   23.2780   47.1670 S   0  0  0  0  0  0  0  0  0  0  0  0
   44.1750   24.6120   46.9060 C   0  0  0  0  0  0  0  0  0  0  0  0
   43.1230   24.3730   46.9150 H   0  0  0  0  0  0  0  0  0  0  0  0
   44.7890   25.6560   46.7490 N   0  0  0  0  0  0  0  0  0  0  0  0
  1  9  1  0  0  0  0
  2  1  2  0  0  0  0
  2  3  1  0  0  0  0
  3  4  2  0  0  0  0
  4  5  1  0  0  0  0
  5 12  1  0  0  0  0
  5  6  1  0  0  0  0
  6 13  1  0  0  0  0
  7  6  2  0  0  0  0
  8  4  1  0  0  0  0
  8  7  1  0  0  0  0
  9 23  1  0  0  0  0
  9  8  2  0  0  0  0
 10  1  1  0  0  0  0
 11  3  1  0  0  0  0
 14 19  1  0  0  0  0
 15 16  1  0  0  0  0
 15 14  2  0  0  0  0
 16 17  2  0  0  0  0
 17 18  1  0  0  0  0
 18  2  1  0  0  0  0
 19 18  2  0  0  0  0
 20 14  1  0  0  0  0
 21 15  1  0  0  0  0
 22 16  1  0  0  0  0
 23 27  1  0  0  0  0
 24 23  2  0  0  0  0
 24 25  1  0  0  0  0
 25 26  2  0  0  0  0
 26 30  1  0  0  0  0
 27 26  1  0  0  0  0
 28 24  1  0  0  0  0
 29 25  1  0  0  0  0
 30 31  2  0  0  0  0
 31 32  1  0  0  0  0
 31 33  1  0  0  0  0
 34 35  1  0  0  0  0
 34 33  1  0  0  0  0
 36 30  1  0  0  0  0
 36 34  2  0  0  0  0
M  END
>  <minimizedAffinity>
-5.49316502

>  <minimizedRMSD>
0.47323069

$$$$
