
 OpenBabel03252502493D

 43 46  0  0  1  0  0  0  0  0999 V2000
   36.8400   29.0190   41.2150 C   0  0  1  0  0  0  0  0  0  0  0  0
   35.6650   29.6360   40.5130 C   0  0  0  0  0  0  0  0  0  0  0  0
   36.6400   30.4590   41.2680 C   0  0  2  0  0  0  0  0  0  0  0  0
   37.5720   28.5600   40.5570 H   0  0  0  0  0  0  0  0  0  0  0  0
   35.6390   29.6410   39.4110 H   0  0  0  0  0  0  0  0  0  0  0  0
   34.6650   29.3970   40.9480 H   0  0  0  0  0  0  0  0  0  0  0  0
   36.2140   31.0100   42.1040 H   0  0  0  0  0  0  0  0  0  0  0  0
   37.5610   31.2010   40.4040 N   0  0  0  0  0  0  0  0  0  0  0  0
   38.7010   31.7180   41.0580 C   0  0  0  0  0  0  0  0  0  0  0  0
   39.4880   32.4350   39.9720 C   0  0  0  0  0  0  0  0  0  0  0  0
   38.7730   33.5430   39.4470 N   0  0  0  0  0  0  0  0  0  0  0  0
   37.3310   33.3860   39.4870 C   0  0  0  0  0  0  0  0  0  0  0  0
   36.9720   31.9020   39.3450 C   0  0  0  0  0  0  0  0  0  0  0  0
   39.3390   30.8590   41.3970 H   0  0  0  0  0  0  0  0  0  0  0  0
   38.4810   32.4280   41.8820 H   0  0  0  0  0  0  0  0  0  0  0  0
   40.4720   32.7260   40.3720 H   0  0  0  0  0  0  0  0  0  0  0  0
   39.5690   31.6820   39.1390 H   0  0  0  0  0  0  0  0  0  0  0  0
   39.1200   33.8400   38.5260 H   0  0  0  0  0  0  0  0  0  0  0  0
   36.8760   33.7510   40.4130 H   0  0  0  0  0  0  0  0  0  0  0  0
   36.8840   33.9000   38.6280 H   0  0  0  0  0  0  0  0  0  0  0  0
   35.8530   31.8440   39.4190 H   0  0  0  0  0  0  0  0  0  0  0  0
   37.2590   31.5530   38.3330 H   0  0  0  0  0  0  0  0  0  0  0  0
   36.5680   28.2330   42.4530 C   0  0  0  0  0  0  0  0  0  0  0  0
   36.1480   27.2080   42.2320 H   0  0  0  0  0  0  0  0  0  0  0  0
   35.7880   28.7190   43.0660 H   0  0  0  0  0  0  0  0  0  0  0  0
   37.8640   28.1680   43.2170 C   0  0  0  0  0  0  0  0  0  0  0  0
   38.5730   28.8640   42.6910 H   0  0  0  0  0  0  0  0  0  0  0  0
   37.8470   28.4960   44.2430 H   0  0  0  0  0  0  0  0  0  0  0  0
   40.1470   25.1900   43.4270 C   0  0  0  0  0  0  0  0  0  0  0  0
   39.5910   26.4710   43.6790 C   0  0  0  0  0  0  0  0  0  0  0  0
   38.4720   26.8190   42.9870 C   0  0  0  0  0  0  0  0  0  0  0  0
   37.9350   25.9340   42.0910 N   0  0  0  0  0  0  0  0  0  0  0  0
   38.4580   24.7560   41.8690 C   0  0  0  0  0  0  0  0  0  0  0  0
   39.5660   24.3610   42.5270 N   0  0  0  0  0  0  0  0  0  0  0  0
   41.0360   24.9110   43.9760 H   0  0  0  0  0  0  0  0  0  0  0  0
   40.0560   27.1310   44.3980 H   0  0  0  0  0  0  0  0  0  0  0  0
   37.8520   23.8280   40.8950 C   0  0  0  0  0  0  0  0  0  0  0  0
   36.8180   24.2660   40.0540 C   0  0  0  0  0  0  0  0  0  0  0  0
   36.3760   25.2570   40.0210 H   0  0  0  0  0  0  0  0  0  0  0  0
   36.4230   22.7800   39.0610 S   0  0  0  0  0  0  0  0  0  0  0  0
   37.7640   21.7870   39.9780 C   0  0  0  0  0  0  0  0  0  0  0  0
   38.0540   20.7450   39.8400 H   0  0  0  0  0  0  0  0  0  0  0  0
   38.1790   22.5690   40.7050 N   0  0  0  0  0  0  0  0  0  0  0  0
  1  4  1  6  0  0  0
  1  3  1  0  0  0  0
  1 23  1  0  0  0  0
  2  6  1  0  0  0  0
  2  1  1  0  0  0  0
  2  3  1  0  0  0  0
  3  7  1  1  0  0  0
  5  2  1  0  0  0  0
  8  9  1  0  0  0  0
  8  3  1  0  0  0  0
  9 14  1  0  0  0  0
  9 15  1  0  0  0  0
 10 16  1  0  0  0  0
 10  9  1  0  0  0  0
 11 12  1  0  0  0  0
 11 10  1  0  0  0  0
 12 19  1  0  0  0  0
 13 21  1  0  0  0  0
 13 12  1  0  0  0  0
 13  8  1  0  0  0  0
 17 10  1  0  0  0  0
 18 11  1  0  0  0  0
 20 12  1  0  0  0  0
 22 13  1  0  0  0  0
 23 25  1  0  0  0  0
 23 26  1  0  0  0  0
 24 23  1  0  0  0  0
 26 28  1  0  0  0  0
 27 26  1  0  0  0  0
 29 30  1  0  0  0  0
 29 35  1  0  0  0  0
 30 36  1  0  0  0  0
 31 26  1  0  0  0  0
 31 30  2  0  0  0  0
 32 31  1  0  0  0  0
 33 32  2  0  0  0  0
 33 34  1  0  0  0  0
 34 29  2  0  0  0  0
 37 33  1  0  0  0  0
 38 37  2  0  0  0  0
 39 38  1  0  0  0  0
 40 41  1  0  0  0  0
 40 38  1  0  0  0  0
 41 43  2  0  0  0  0
 42 41  1  0  0  0  0
 43 37  1  0  0  0  0
M  END
>  <minimizedAffinity>
-5.33192062

$$$$

 OpenBabel03252502493D

 43 46  0  0  1  0  0  0  0  0999 V2000
   39.0320   30.0080   42.5850 C   0  0  1  0  0  0  0  0  0  0  0  0
   40.2970   30.8150   42.6280 C   0  0  0  0  0  0  0  0  0  0  0  0
   39.7340   30.3180   41.3490 C   0  0  2  0  0  0  0  0  0  0  0  0
   38.1400   30.5450   42.8940 H   0  0  0  0  0  0  0  0  0  0  0  0
   40.2460   31.8820   42.9030 H   0  0  0  0  0  0  0  0  0  0  0  0
   41.1740   30.3100   43.0980 H   0  0  0  0  0  0  0  0  0  0  0  0
   40.3870   29.6400   40.8030 H   0  0  0  0  0  0  0  0  0  0  0  0
   39.0800   31.3640   40.5610 N   0  0  0  0  0  0  0  0  0  0  0  0
   39.0210   32.6290   41.1870 C   0  0  0  0  0  0  0  0  0  0  0  0
   38.3080   33.5300   40.1910 C   0  0  0  0  0  0  0  0  0  0  0  0
   36.9690   33.1140   39.9670 N   0  0  0  0  0  0  0  0  0  0  0  0
   36.7630   31.6860   40.1170 C   0  0  0  0  0  0  0  0  0  0  0  0
   38.0420   30.9380   39.7230 C   0  0  0  0  0  0  0  0  0  0  0  0
   40.0650   33.0280   41.2870 H   0  0  0  0  0  0  0  0  0  0  0  0
   38.4720   32.6420   42.1520 H   0  0  0  0  0  0  0  0  0  0  0  0
   38.3670   34.5730   40.5410 H   0  0  0  0  0  0  0  0  0  0  0  0
   38.8590   33.3700   39.2220 H   0  0  0  0  0  0  0  0  0  0  0  0
   36.5790   33.4880   39.0920 H   0  0  0  0  0  0  0  0  0  0  0  0
   36.5040   31.3860   41.1380 H   0  0  0  0  0  0  0  0  0  0  0  0
   35.9800   31.3550   39.4250 H   0  0  0  0  0  0  0  0  0  0  0  0
   37.8310   29.8480   39.8940 H   0  0  0  0  0  0  0  0  0  0  0  0
   38.2260   31.0770   38.6390 H   0  0  0  0  0  0  0  0  0  0  0  0
   39.0930   28.6050   43.0860 C   0  0  0  0  0  0  0  0  0  0  0  0
   39.7080   28.5070   44.0280 H   0  0  0  0  0  0  0  0  0  0  0  0
   39.6040   27.9480   42.3600 H   0  0  0  0  0  0  0  0  0  0  0  0
   37.6690   28.1540   43.2820 C   0  0  0  0  0  0  0  0  0  0  0  0
   37.6930   27.3940   44.1110 H   0  0  0  0  0  0  0  0  0  0  0  0
   36.9570   28.8980   43.5960 H   0  0  0  0  0  0  0  0  0  0  0  0
   37.0390   25.2670   40.9610 C   0  0  0  0  0  0  0  0  0  0  0  0
   37.4190   25.9970   42.1170 C   0  0  0  0  0  0  0  0  0  0  0  0
   37.2670   27.3480   42.0860 C   0  0  0  0  0  0  0  0  0  0  0  0
   36.7600   27.9410   40.9600 N   0  0  0  0  0  0  0  0  0  0  0  0
   36.4130   27.2560   39.9020 C   0  0  0  0  0  0  0  0  0  0  0  0
   36.5430   25.9140   39.8800 N   0  0  0  0  0  0  0  0  0  0  0  0
   37.1580   24.1920   40.9830 H   0  0  0  0  0  0  0  0  0  0  0  0
   37.8140   25.4770   42.9790 H   0  0  0  0  0  0  0  0  0  0  0  0
   35.8710   27.9290   38.7060 C   0  0  0  0  0  0  0  0  0  0  0  0
   36.6710   28.0890   37.5650 C   0  0  0  0  0  0  0  0  0  0  0  0
   37.6990   27.7650   37.4350 H   0  0  0  0  0  0  0  0  0  0  0  0
   35.5660   28.9570   36.3930 S   0  0  0  0  0  0  0  0  0  0  0  0
   34.1650   28.9560   37.6830 C   0  0  0  0  0  0  0  0  0  0  0  0
   33.1560   29.3600   37.5940 H   0  0  0  0  0  0  0  0  0  0  0  0
   34.6620   28.4250   38.5680 N   0  0  0  0  0  0  0  0  0  0  0  0
  1  2  1  0  0  0  0
  1  4  1  1  0  0  0
  1 23  1  0  0  0  0
  2  5  1  0  0  0  0
  2  6  1  0  0  0  0
  3  7  1  6  0  0  0
  3  1  1  0  0  0  0
  3  2  1  0  0  0  0
  8  9  1  0  0  0  0
  8  3  1  0  0  0  0
  9 14  1  0  0  0  0
  9 15  1  0  0  0  0
 10 16  1  0  0  0  0
 10  9  1  0  0  0  0
 11 12  1  0  0  0  0
 11 10  1  0  0  0  0
 12 19  1  0  0  0  0
 13 21  1  0  0  0  0
 13 12  1  0  0  0  0
 13  8  1  0  0  0  0
 17 10  1  0  0  0  0
 18 11  1  0  0  0  0
 20 12  1  0  0  0  0
 22 13  1  0  0  0  0
 23 26  1  0  0  0  0
 23 24  1  0  0  0  0
 25 23  1  0  0  0  0
 26 28  1  0  0  0  0
 26 27  1  0  0  0  0
 29 35  1  0  0  0  0
 29 30  1  0  0  0  0
 30 36  1  0  0  0  0
 31 30  2  0  0  0  0
 31 26  1  0  0  0  0
 32 31  1  0  0  0  0
 33 32  2  0  0  0  0
 34 33  1  0  0  0  0
 34 29  2  0  0  0  0
 37 33  1  0  0  0  0
 38 37  2  0  0  0  0
 39 38  1  0  0  0  0
 40 38  1  0  0  0  0
 40 41  1  0  0  0  0
 41 43  2  0  0  0  0
 42 41  1  0  0  0  0
 43 37  1  0  0  0  0
M  END
>  <minimizedAffinity>
-5.20946169

$$$$

 OpenBabel03252502493D

 43 46  0  0  1  0  0  0  0  0999 V2000
   39.4680   26.4860   42.4630 C   0  0  1  0  0  0  0  0  0  0  0  0
   40.3320   25.3750   42.9830 C   0  0  0  0  0  0  0  0  0  0  0  0
   38.8550   25.2590   42.9490 C   0  0  2  0  0  0  0  0  0  0  0  0
   39.5840   26.6940   41.4040 H   0  0  0  0  0  0  0  0  0  0  0  0
   40.9700   24.8150   42.2790 H   0  0  0  0  0  0  0  0  0  0  0  0
   40.8650   25.5860   43.9410 H   0  0  0  0  0  0  0  0  0  0  0  0
   38.3900   25.1240   43.9240 H   0  0  0  0  0  0  0  0  0  0  0  0
   38.3680   24.3920   41.8730 N   0  0  0  0  0  0  0  0  0  0  0  0
   39.2480   24.2590   40.7760 C   0  0  0  0  0  0  0  0  0  0  0  0
   38.5330   23.3300   39.8070 C   0  0  0  0  0  0  0  0  0  0  0  0
   37.3340   23.9060   39.3110 N   0  0  0  0  0  0  0  0  0  0  0  0
   36.6940   24.8230   40.2350 C   0  0  0  0  0  0  0  0  0  0  0  0
   36.9820   24.3840   41.6760 C   0  0  0  0  0  0  0  0  0  0  0  0
   40.1670   23.7140   41.1190 H   0  0  0  0  0  0  0  0  0  0  0  0
   39.4920   25.2110   40.2600 H   0  0  0  0  0  0  0  0  0  0  0  0
   39.2260   23.0490   38.9980 H   0  0  0  0  0  0  0  0  0  0  0  0
   38.2270   22.4480   40.4370 H   0  0  0  0  0  0  0  0  0  0  0  0
   36.6870   23.2060   38.9250 H   0  0  0  0  0  0  0  0  0  0  0  0
   37.0330   25.8590   40.1300 H   0  0  0  0  0  0  0  0  0  0  0  0
   35.6080   24.7750   40.1040 H   0  0  0  0  0  0  0  0  0  0  0  0
   36.4940   25.1480   42.3380 H   0  0  0  0  0  0  0  0  0  0  0  0
   36.4860   23.4110   41.8660 H   0  0  0  0  0  0  0  0  0  0  0  0
   39.3370   27.7090   43.3060 C   0  0  0  0  0  0  0  0  0  0  0  0
   39.7790   28.6240   42.8140 H   0  0  0  0  0  0  0  0  0  0  0  0
   39.9090   27.6040   44.2450 H   0  0  0  0  0  0  0  0  0  0  0  0
   37.8700   27.8720   43.6070 C   0  0  0  0  0  0  0  0  0  0  0  0
   37.4140   26.8500   43.5070 H   0  0  0  0  0  0  0  0  0  0  0  0
   37.6050   28.2090   44.5950 H   0  0  0  0  0  0  0  0  0  0  0  0
   35.6200   28.8560   40.7620 C   0  0  0  0  0  0  0  0  0  0  0  0
   36.1780   28.1070   41.8310 C   0  0  0  0  0  0  0  0  0  0  0  0
   37.2470   28.6390   42.4820 C   0  0  0  0  0  0  0  0  0  0  0  0
   37.7360   29.8560   42.0870 N   0  0  0  0  0  0  0  0  0  0  0  0
   37.2120   30.5360   41.1000 C   0  0  0  0  0  0  0  0  0  0  0  0
   36.1510   30.0540   40.4210 N   0  0  0  0  0  0  0  0  0  0  0  0
   34.7690   28.4360   40.2430 H   0  0  0  0  0  0  0  0  0  0  0  0
   35.7510   27.1510   42.1020 H   0  0  0  0  0  0  0  0  0  0  0  0
   37.7660   31.8440   40.7010 C   0  0  0  0  0  0  0  0  0  0  0  0
   39.0570   32.2140   41.1050 C   0  0  0  0  0  0  0  0  0  0  0  0
   39.7470   31.6320   41.7080 H   0  0  0  0  0  0  0  0  0  0  0  0
   39.2680   33.8780   40.3720 S   0  0  0  0  0  0  0  0  0  0  0  0
   37.5200   33.7890   39.6210 C   0  0  0  0  0  0  0  0  0  0  0  0
   37.0010   34.5320   39.0150 H   0  0  0  0  0  0  0  0  0  0  0  0
   37.1660   32.7590   39.9730 N   0  0  0  0  0  0  0  0  0  0  0  0
  1  4  1  6  0  0  0
  1  3  1  0  0  0  0
  1  2  1  0  0  0  0
  1 23  1  0  0  0  0
  2  6  1  0  0  0  0
  3  2  1  0  0  0  0
  3  7  1  1  0  0  0
  5  2  1  0  0  0  0
  8  3  1  0  0  0  0
  9 14  1  0  0  0  0
  9  8  1  0  0  0  0
 10 17  1  0  0  0  0
 10  9  1  0  0  0  0
 11 10  1  0  0  0  0
 11 12  1  0  0  0  0
 12 13  1  0  0  0  0
 13 22  1  0  0  0  0
 13  8  1  0  0  0  0
 13 21  1  0  0  0  0
 15  9  1  0  0  0  0
 16 10  1  0  0  0  0
 18 11  1  0  0  0  0
 19 12  1  0  0  0  0
 20 12  1  0  0  0  0
 23 26  1  0  0  0  0
 23 25  1  0  0  0  0
 24 23  1  0  0  0  0
 26 28  1  0  0  0  0
 27 26  1  0  0  0  0
 29 30  1  0  0  0  0
 30 36  1  0  0  0  0
 30 31  2  0  0  0  0
 31 26  1  0  0  0  0
 32 31  1  0  0  0  0
 33 32  2  0  0  0  0
 34 29  2  0  0  0  0
 34 33  1  0  0  0  0
 35 29  1  0  0  0  0
 37 33  1  0  0  0  0
 37 38  2  0  0  0  0
 38 39  1  0  0  0  0
 40 38  1  0  0  0  0
 41 43  2  0  0  0  0
 41 40  1  0  0  0  0
 42 41  1  0  0  0  0
 43 37  1  0  0  0  0
M  END
>  <minimizedAffinity>
-5.20450449

$$$$

 OpenBabel03252502493D

 43 46  0  0  1  0  0  0  0  0999 V2000
   37.6060   29.6890   42.4420 C   0  0  1  0  0  0  0  0  0  0  0  0
   38.9110   30.3880   42.1990 C   0  0  0  0  0  0  0  0  0  0  0  0
   38.2540   29.5790   41.1440 C   0  0  2  0  0  0  0  0  0  0  0  0
   36.7610   30.3500   42.6130 H   0  0  0  0  0  0  0  0  0  0  0  0
   38.9310   31.4900   42.1510 H   0  0  0  0  0  0  0  0  0  0  0  0
   39.7860   29.9850   42.7630 H   0  0  0  0  0  0  0  0  0  0  0  0
   38.8390   28.7300   40.7980 H   0  0  0  0  0  0  0  0  0  0  0  0
   37.6130   30.3910   40.1080 N   0  0  0  0  0  0  0  0  0  0  0  0
   38.3270   30.4740   38.8930 C   0  0  0  0  0  0  0  0  0  0  0  0
   37.4760   31.3570   37.9940 C   0  0  0  0  0  0  0  0  0  0  0  0
   37.3660   32.6770   38.5020 N   0  0  0  0  0  0  0  0  0  0  0  0
   37.4380   32.7600   39.9490 C   0  0  0  0  0  0  0  0  0  0  0  0
   36.8610   31.4810   40.5660 C   0  0  0  0  0  0  0  0  0  0  0  0
   38.3440   29.4580   38.4180 H   0  0  0  0  0  0  0  0  0  0  0  0
   39.3430   30.9130   38.9820 H   0  0  0  0  0  0  0  0  0  0  0  0
   37.8890   31.3360   36.9720 H   0  0  0  0  0  0  0  0  0  0  0  0
   36.4460   30.9050   38.0500 H   0  0  0  0  0  0  0  0  0  0  0  0
   36.5640   33.1880   38.1090 H   0  0  0  0  0  0  0  0  0  0  0  0
   38.4570   32.8830   40.3300 H   0  0  0  0  0  0  0  0  0  0  0  0
   36.8110   33.5880   40.2990 H   0  0  0  0  0  0  0  0  0  0  0  0
   36.9780   31.5910   41.6770 H   0  0  0  0  0  0  0  0  0  0  0  0
   35.7760   31.4280   40.3470 H   0  0  0  0  0  0  0  0  0  0  0  0
   37.6210   28.4910   43.3310 C   0  0  0  0  0  0  0  0  0  0  0  0
   37.2750   28.7250   44.3800 H   0  0  0  0  0  0  0  0  0  0  0  0
   38.6490   28.1110   43.4630 H   0  0  0  0  0  0  0  0  0  0  0  0
   36.7620   27.4480   42.6650 C   0  0  0  0  0  0  0  0  0  0  0  0
   36.0580   27.0710   43.4550 H   0  0  0  0  0  0  0  0  0  0  0  0
   36.1340   27.7740   41.8520 H   0  0  0  0  0  0  0  0  0  0  0  0
   37.8700   23.9600   41.8120 C   0  0  0  0  0  0  0  0  0  0  0  0
   37.0260   25.0700   42.0730 C   0  0  0  0  0  0  0  0  0  0  0  0
   37.6210   26.2570   42.3710 C   0  0  0  0  0  0  0  0  0  0  0  0
   38.9870   26.3320   42.4080 N   0  0  0  0  0  0  0  0  0  0  0  0
   39.7540   25.3000   42.1650 C   0  0  0  0  0  0  0  0  0  0  0  0
   39.2160   24.1010   41.8640 N   0  0  0  0  0  0  0  0  0  0  0  0
   37.4000   23.0150   41.5730 H   0  0  0  0  0  0  0  0  0  0  0  0
   35.9510   24.9550   42.0300 H   0  0  0  0  0  0  0  0  0  0  0  0
   41.2240   25.4180   42.2140 C   0  0  0  0  0  0  0  0  0  0  0  0
   41.8760   25.5810   43.4450 C   0  0  0  0  0  0  0  0  0  0  0  0
   41.4180   25.6360   44.4270 H   0  0  0  0  0  0  0  0  0  0  0  0
   43.6440   25.6740   42.9770 S   0  0  0  0  0  0  0  0  0  0  0  0
   43.1870   25.4710   41.1390 C   0  0  0  0  0  0  0  0  0  0  0  0
   43.8480   25.4420   40.2730 H   0  0  0  0  0  0  0  0  0  0  0  0
   42.0460   25.3880   41.1890 N   0  0  0  0  0  0  0  0  0  0  0  0
  1  4  1  1  0  0  0
  1 23  1  0  0  0  0
  2  1  1  0  0  0  0
  2  6  1  0  0  0  0
  3  7  1  6  0  0  0
  3  2  1  0  0  0  0
  3  1  1  0  0  0  0
  5  2  1  0  0  0  0
  8 13  1  0  0  0  0
  8  3  1  0  0  0  0
  9 15  1  0  0  0  0
  9  8  1  0  0  0  0
 10 17  1  0  0  0  0
 10 11  1  0  0  0  0
 10  9  1  0  0  0  0
 11 12  1  0  0  0  0
 12 20  1  0  0  0  0
 12 19  1  0  0  0  0
 12 13  1  0  0  0  0
 13 21  1  0  0  0  0
 14  9  1  0  0  0  0
 16 10  1  0  0  0  0
 18 11  1  0  0  0  0
 22 13  1  0  0  0  0
 23 25  1  0  0  0  0
 23 24  1  0  0  0  0
 26 23  1  0  0  0  0
 26 27  1  0  0  0  0
 28 26  1  0  0  0  0
 29 34  2  0  0  0  0
 29 30  1  0  0  0  0
 30 31  2  0  0  0  0
 31 32  1  0  0  0  0
 31 26  1  0  0  0  0
 33 37  1  0  0  0  0
 33 32  2  0  0  0  0
 34 33  1  0  0  0  0
 35 29  1  0  0  0  0
 36 30  1  0  0  0  0
 37 38  2  0  0  0  0
 38 39  1  0  0  0  0
 40 38  1  0  0  0  0
 41 43  2  0  0  0  0
 41 40  1  0  0  0  0
 42 41  1  0  0  0  0
 43 37  1  0  0  0  0
M  END
>  <minimizedAffinity>
-5.14431

$$$$

 OpenBabel03252502493D

 43 46  0  0  1  0  0  0  0  0999 V2000
   37.4970   31.8090   39.8740 C   0  0  1  0  0  0  0  0  0  0  0  0
   37.3480   33.2890   39.6790 C   0  0  0  0  0  0  0  0  0  0  0  0
   38.4990   32.7140   40.4140 C   0  0  2  0  0  0  0  0  0  0  0  0
   37.6600   31.2440   38.9610 H   0  0  0  0  0  0  0  0  0  0  0  0
   37.4640   33.7130   38.6670 H   0  0  0  0  0  0  0  0  0  0  0  0
   36.5010   33.7650   40.2290 H   0  0  0  0  0  0  0  0  0  0  0  0
   38.5750   33.0310   41.4530 H   0  0  0  0  0  0  0  0  0  0  0  0
   39.7430   32.7260   39.6410 N   0  0  0  0  0  0  0  0  0  0  0  0
   40.2500   34.0130   39.3540 C   0  0  0  0  0  0  0  0  0  0  0  0
   41.5210   33.7680   38.5550 C   0  0  0  0  0  0  0  0  0  0  0  0
   41.2490   33.1410   37.3110 N   0  0  0  0  0  0  0  0  0  0  0  0
   40.0770   32.2850   37.3250 C   0  0  0  0  0  0  0  0  0  0  0  0
   39.9000   31.6800   38.7230 C   0  0  0  0  0  0  0  0  0  0  0  0
   40.5680   34.4950   40.3160 H   0  0  0  0  0  0  0  0  0  0  0  0
   39.5660   34.6600   38.7660 H   0  0  0  0  0  0  0  0  0  0  0  0
   42.0600   34.7200   38.4330 H   0  0  0  0  0  0  0  0  0  0  0  0
   42.0990   33.0220   39.1690 H   0  0  0  0  0  0  0  0  0  0  0  0
   42.0770   32.6840   36.9070 H   0  0  0  0  0  0  0  0  0  0  0  0
   39.1500   32.8080   37.0690 H   0  0  0  0  0  0  0  0  0  0  0  0
   40.2300   31.4460   36.6370 H   0  0  0  0  0  0  0  0  0  0  0  0
   38.9640   31.0620   38.6780 H   0  0  0  0  0  0  0  0  0  0  0  0
   40.7450   30.9950   38.9320 H   0  0  0  0  0  0  0  0  0  0  0  0
   36.5710   31.1440   40.8350 C   0  0  0  0  0  0  0  0  0  0  0  0
   35.5610   31.6470   40.8830 H   0  0  0  0  0  0  0  0  0  0  0  0
   36.9560   31.2130   41.8680 H   0  0  0  0  0  0  0  0  0  0  0  0
   36.4730   29.7010   40.4130 C   0  0  0  0  0  0  0  0  0  0  0  0
   35.3840   29.4290   40.4790 H   0  0  0  0  0  0  0  0  0  0  0  0
   36.7670   29.4630   39.4050 H   0  0  0  0  0  0  0  0  0  0  0  0
   36.9500   27.2540   43.2240 C   0  0  0  0  0  0  0  0  0  0  0  0
   36.3200   28.0270   42.2150 C   0  0  0  0  0  0  0  0  0  0  0  0
   37.1040   28.8600   41.4790 C   0  0  0  0  0  0  0  0  0  0  0  0
   38.4470   28.9190   41.7360 N   0  0  0  0  0  0  0  0  0  0  0  0
   39.0160   28.2010   42.6700 C   0  0  0  0  0  0  0  0  0  0  0  0
   38.2850   27.3580   43.4280 N   0  0  0  0  0  0  0  0  0  0  0  0
   36.3290   26.5890   43.8100 H   0  0  0  0  0  0  0  0  0  0  0  0
   35.2540   27.9410   42.0540 H   0  0  0  0  0  0  0  0  0  0  0  0
   40.4670   28.2910   42.9200 C   0  0  0  0  0  0  0  0  0  0  0  0
   41.1200   27.2830   43.6450 C   0  0  0  0  0  0  0  0  0  0  0  0
   40.6740   26.3910   44.0740 H   0  0  0  0  0  0  0  0  0  0  0  0
   42.8610   27.8470   43.6770 S   0  0  0  0  0  0  0  0  0  0  0  0
   42.3970   29.3970   42.6730 C   0  0  0  0  0  0  0  0  0  0  0  0
   43.0440   30.2070   42.3340 H   0  0  0  0  0  0  0  0  0  0  0  0
   41.2710   29.2520   42.5250 N   0  0  0  0  0  0  0  0  0  0  0  0
  1  4  1  6  0  0  0
  1  3  1  0  0  0  0
  1 23  1  0  0  0  0
  2  1  1  0  0  0  0
  2  6  1  0  0  0  0
  2  3  1  0  0  0  0
  3  7  1  1  0  0  0
  5  2  1  0  0  0  0
  8  3  1  0  0  0  0
  9  8  1  0  0  0  0
  9 14  1  0  0  0  0
 10 17  1  0  0  0  0
 10  9  1  0  0  0  0
 11 12  1  0  0  0  0
 11 10  1  0  0  0  0
 12 13  1  0  0  0  0
 13 22  1  0  0  0  0
 13  8  1  0  0  0  0
 15  9  1  0  0  0  0
 16 10  1  0  0  0  0
 18 11  1  0  0  0  0
 19 12  1  0  0  0  0
 20 12  1  0  0  0  0
 21 13  1  0  0  0  0
 23 24  1  0  0  0  0
 23 25  1  0  0  0  0
 26 27  1  0  0  0  0
 26 23  1  0  0  0  0
 26 31  1  0  0  0  0
 28 26  1  0  0  0  0
 29 34  1  0  0  0  0
 29 35  1  0  0  0  0
 30 29  2  0  0  0  0
 31 32  2  0  0  0  0
 31 30  1  0  0  0  0
 32 33  1  0  0  0  0
 33 37  1  0  0  0  0
 33 34  2  0  0  0  0
 36 30  1  0  0  0  0
 37 38  2  0  0  0  0
 38 40  1  0  0  0  0
 38 39  1  0  0  0  0
 41 40  1  0  0  0  0
 42 41  1  0  0  0  0
 43 41  2  0  0  0  0
 43 37  1  0  0  0  0
M  END
>  <minimizedAffinity>
-5.09459591

$$$$

 OpenBabel03252502493D

 43 46  0  0  1  0  0  0  0  0999 V2000
   39.8250   33.8000   39.8370 C   0  0  1  0  0  0  0  0  0  0  0  0
   41.0770   34.1610   40.5800 C   0  0  0  0  0  0  0  0  0  0  0  0
   40.8230   32.7780   40.1120 C   0  0  2  0  0  0  0  0  0  0  0  0
   39.7260   34.2640   38.8600 H   0  0  0  0  0  0  0  0  0  0  0  0
   41.8270   34.8060   40.0910 H   0  0  0  0  0  0  0  0  0  0  0  0
   40.9390   34.4340   41.6540 H   0  0  0  0  0  0  0  0  0  0  0  0
   40.7690   32.0360   40.9060 H   0  0  0  0  0  0  0  0  0  0  0  0
   41.6130   32.4120   38.9340 N   0  0  0  0  0  0  0  0  0  0  0  0
   42.9570   32.0750   39.2040 C   0  0  0  0  0  0  0  0  0  0  0  0
   43.5610   31.7400   37.8490 C   0  0  0  0  0  0  0  0  0  0  0  0
   43.5800   32.8680   36.9870 N   0  0  0  0  0  0  0  0  0  0  0  0
   42.5040   33.8110   37.2270 C   0  0  0  0  0  0  0  0  0  0  0  0
   41.2690   33.0630   37.7430 C   0  0  0  0  0  0  0  0  0  0  0  0
   42.9760   31.1260   39.8030 H   0  0  0  0  0  0  0  0  0  0  0  0
   43.5510   32.8830   39.6810 H   0  0  0  0  0  0  0  0  0  0  0  0
   44.5650   31.3110   37.9970 H   0  0  0  0  0  0  0  0  0  0  0  0
   42.8410   31.0020   37.3960 H   0  0  0  0  0  0  0  0  0  0  0  0
   43.6750   32.6090   35.9960 H   0  0  0  0  0  0  0  0  0  0  0  0
   42.7550   34.5840   37.9610 H   0  0  0  0  0  0  0  0  0  0  0  0
   42.2130   34.2810   36.2810 H   0  0  0  0  0  0  0  0  0  0  0  0
   40.4900   33.8460   37.9430 H   0  0  0  0  0  0  0  0  0  0  0  0
   40.8830   32.4020   36.9420 H   0  0  0  0  0  0  0  0  0  0  0  0
   38.5520   33.7560   40.6130 C   0  0  0  0  0  0  0  0  0  0  0  0
   38.3830   34.6920   41.2230 H   0  0  0  0  0  0  0  0  0  0  0  0
   38.5750   32.9450   41.3630 H   0  0  0  0  0  0  0  0  0  0  0  0
   37.4470   33.5130   39.6190 C   0  0  0  0  0  0  0  0  0  0  0  0
   36.4880   33.7580   40.1500 H   0  0  0  0  0  0  0  0  0  0  0  0
   37.4450   34.1200   38.7280 H   0  0  0  0  0  0  0  0  0  0  0  0
   37.1450   30.1700   37.9290 C   0  0  0  0  0  0  0  0  0  0  0  0
   37.2520   31.5730   38.1110 C   0  0  0  0  0  0  0  0  0  0  0  0
   37.3460   32.0370   39.3860 C   0  0  0  0  0  0  0  0  0  0  0  0
   37.3360   31.1470   40.4270 N   0  0  0  0  0  0  0  0  0  0  0  0
   37.2370   29.8560   40.2450 C   0  0  0  0  0  0  0  0  0  0  0  0
   37.1410   29.3430   39.0020 N   0  0  0  0  0  0  0  0  0  0  0  0
   37.0700   29.7980   36.9160 H   0  0  0  0  0  0  0  0  0  0  0  0
   37.2550   32.2310   37.2530 H   0  0  0  0  0  0  0  0  0  0  0  0
   37.2290   28.9260   41.3910 C   0  0  0  0  0  0  0  0  0  0  0  0
   36.9930   27.5590   41.1850 C   0  0  0  0  0  0  0  0  0  0  0  0
   36.8040   27.0610   40.2390 H   0  0  0  0  0  0  0  0  0  0  0  0
   37.0840   26.8570   42.8730 S   0  0  0  0  0  0  0  0  0  0  0  0
   37.4370   28.5840   43.5930 C   0  0  0  0  0  0  0  0  0  0  0  0
   37.6030   28.8670   44.6330 H   0  0  0  0  0  0  0  0  0  0  0  0
   37.4260   29.2370   42.6530 N   0  0  0  0  0  0  0  0  0  0  0  0
  1  4  1  6  0  0  0
  1  3  1  0  0  0  0
  1  2  1  0  0  0  0
  1 23  1  0  0  0  0
  2  6  1  0  0  0  0
  3  2  1  0  0  0  0
  3  7  1  1  0  0  0
  5  2  1  0  0  0  0
  8  9  1  0  0  0  0
  8  3  1  0  0  0  0
  9 15  1  0  0  0  0
  9 14  1  0  0  0  0
 10 16  1  0  0  0  0
 10  9  1  0  0  0  0
 11 12  1  0  0  0  0
 11 10  1  0  0  0  0
 12 13  1  0  0  0  0
 12 19  1  0  0  0  0
 13 21  1  0  0  0  0
 13  8  1  0  0  0  0
 17 10  1  0  0  0  0
 18 11  1  0  0  0  0
 20 12  1  0  0  0  0
 22 13  1  0  0  0  0
 23 24  1  0  0  0  0
 23 25  1  0  0  0  0
 26 27  1  0  0  0  0
 26 23  1  0  0  0  0
 28 26  1  0  0  0  0
 29 30  2  0  0  0  0
 29 34  1  0  0  0  0
 30 31  1  0  0  0  0
 31 26  1  0  0  0  0
 31 32  2  0  0  0  0
 33 32  1  0  0  0  0
 33 37  1  0  0  0  0
 34 33  2  0  0  0  0
 35 29  1  0  0  0  0
 36 30  1  0  0  0  0
 37 43  1  0  0  0  0
 38 37  2  0  0  0  0
 38 40  1  0  0  0  0
 39 38  1  0  0  0  0
 40 41  1  0  0  0  0
 41 42  1  0  0  0  0
 43 41  2  0  0  0  0
M  END
>  <minimizedAffinity>
-5.07038498

$$$$

 OpenBabel03252502493D

 43 46  0  0  1  0  0  0  0  0999 V2000
   37.4640   30.7810   39.4690 C   0  0  1  0  0  0  0  0  0  0  0  0
   37.3320   31.9640   38.5550 C   0  0  0  0  0  0  0  0  0  0  0  0
   37.2140   32.1010   40.0270 C   0  0  2  0  0  0  0  0  0  0  0  0
   38.4500   30.3250   39.4810 H   0  0  0  0  0  0  0  0  0  0  0  0
   38.2200   32.3270   38.0120 H   0  0  0  0  0  0  0  0  0  0  0  0
   36.4220   31.9740   37.9080 H   0  0  0  0  0  0  0  0  0  0  0  0
   36.2510   32.4730   40.3700 H   0  0  0  0  0  0  0  0  0  0  0  0
   38.3990   32.6990   40.6470 N   0  0  0  0  0  0  0  0  0  0  0  0
   39.0270   33.7040   39.8800 C   0  0  0  0  0  0  0  0  0  0  0  0
   40.2100   34.1610   40.7180 C   0  0  0  0  0  0  0  0  0  0  0  0
   41.1600   33.1220   40.9000 N   0  0  0  0  0  0  0  0  0  0  0  0
   40.5850   31.7900   40.8990 C   0  0  0  0  0  0  0  0  0  0  0  0
   39.1580   31.8460   41.4580 C   0  0  0  0  0  0  0  0  0  0  0  0
   38.3330   34.5830   39.8050 H   0  0  0  0  0  0  0  0  0  0  0  0
   39.3890   33.3690   38.8850 H   0  0  0  0  0  0  0  0  0  0  0  0
   40.6550   35.0570   40.2580 H   0  0  0  0  0  0  0  0  0  0  0  0
   39.7700   34.3730   41.7330 H   0  0  0  0  0  0  0  0  0  0  0  0
   41.7850   33.2900   41.6990 H   0  0  0  0  0  0  0  0  0  0  0  0
   40.5340   31.3360   39.9030 H   0  0  0  0  0  0  0  0  0  0  0  0
   41.1600   31.1430   41.5710 H   0  0  0  0  0  0  0  0  0  0  0  0
   38.7580   30.7980   41.3970 H   0  0  0  0  0  0  0  0  0  0  0  0
   39.1980   32.1280   42.5290 H   0  0  0  0  0  0  0  0  0  0  0  0
   36.3450   29.7960   39.4870 C   0  0  0  0  0  0  0  0  0  0  0  0
   36.6460   28.7900   39.0690 H   0  0  0  0  0  0  0  0  0  0  0  0
   35.5190   30.1240   38.8310 H   0  0  0  0  0  0  0  0  0  0  0  0
   35.8720   29.7050   40.9140 C   0  0  0  0  0  0  0  0  0  0  0  0
   36.2390   30.6360   41.4250 H   0  0  0  0  0  0  0  0  0  0  0  0
   34.8070   29.6880   41.0780 H   0  0  0  0  0  0  0  0  0  0  0  0
   38.0390   27.8350   43.3480 C   0  0  0  0  0  0  0  0  0  0  0  0
   37.3110   28.8900   42.7400 C   0  0  0  0  0  0  0  0  0  0  0  0
   36.6400   28.6120   41.5900 C   0  0  0  0  0  0  0  0  0  0  0  0
   36.6920   27.3460   41.0730 N   0  0  0  0  0  0  0  0  0  0  0  0
   37.3660   26.3810   41.6430 C   0  0  0  0  0  0  0  0  0  0  0  0
   38.0490   26.6030   42.7850 N   0  0  0  0  0  0  0  0  0  0  0  0
   38.5730   28.0520   44.2630 H   0  0  0  0  0  0  0  0  0  0  0  0
   37.3040   29.8730   43.1930 H   0  0  0  0  0  0  0  0  0  0  0  0
   37.4000   25.0280   41.0560 C   0  0  0  0  0  0  0  0  0  0  0  0
   38.5440   24.2290   41.1960 C   0  0  0  0  0  0  0  0  0  0  0  0
   39.4650   24.4870   41.7090 H   0  0  0  0  0  0  0  0  0  0  0  0
   38.0920   22.6880   40.3170 S   0  0  0  0  0  0  0  0  0  0  0  0
   36.3800   23.4070   39.8970 C   0  0  0  0  0  0  0  0  0  0  0  0
   35.5650   22.9440   39.3400 H   0  0  0  0  0  0  0  0  0  0  0  0
   36.4360   24.4440   40.3810 N   0  0  0  0  0  0  0  0  0  0  0  0
  1  4  1  1  0  0  0
  1 23  1  0  0  0  0
  1  3  1  0  0  0  0
  2  1  1  0  0  0  0
  2  3  1  0  0  0  0
  3  7  1  1  0  0  0
  3  8  1  0  0  0  0
  5  2  1  0  0  0  0
  6  2  1  0  0  0  0
  8 13  1  0  0  0  0
  9  8  1  0  0  0  0
  9 10  1  0  0  0  0
 10 11  1  0  0  0  0
 10 17  1  0  0  0  0
 11 18  1  0  0  0  0
 12 11  1  0  0  0  0
 12 13  1  0  0  0  0
 12 20  1  0  0  0  0
 13 22  1  0  0  0  0
 14  9  1  0  0  0  0
 15  9  1  0  0  0  0
 16 10  1  0  0  0  0
 19 12  1  0  0  0  0
 21 13  1  0  0  0  0
 23 26  1  0  0  0  0
 24 23  1  0  0  0  0
 25 23  1  0  0  0  0
 26 28  1  0  0  0  0
 26 27  1  0  0  0  0
 26 31  1  0  0  0  0
 29 35  1  0  0  0  0
 30 36  1  0  0  0  0
 30 29  2  0  0  0  0
 31 30  1  0  0  0  0
 32 31  2  0  0  0  0
 32 33  1  0  0  0  0
 33 34  2  0  0  0  0
 34 29  1  0  0  0  0
 37 38  2  0  0  0  0
 37 33  1  0  0  0  0
 38 39  1  0  0  0  0
 40 38  1  0  0  0  0
 41 40  1  0  0  0  0
 41 43  2  0  0  0  0
 42 41  1  0  0  0  0
 43 37  1  0  0  0  0
M  END
>  <minimizedAffinity>
-5.02428198

$$$$

 OpenBabel03252502493D

 43 46  0  0  1  0  0  0  0  0999 V2000
   39.2520   30.5050   42.4080 C   0  0  1  0  0  0  0  0  0  0  0  0
   40.6340   31.0520   42.2040 C   0  0  0  0  0  0  0  0  0  0  0  0
   39.7740   30.6680   41.0600 C   0  0  2  0  0  0  0  0  0  0  0  0
   38.5450   31.2070   42.8430 H   0  0  0  0  0  0  0  0  0  0  0  0
   40.8350   32.1100   42.4440 H   0  0  0  0  0  0  0  0  0  0  0  0
   41.4680   30.3900   42.5380 H   0  0  0  0  0  0  0  0  0  0  0  0
   40.1810   29.8740   40.4370 H   0  0  0  0  0  0  0  0  0  0  0  0
   39.2030   31.8180   40.3540 N   0  0  0  0  0  0  0  0  0  0  0  0
   39.0440   32.9780   41.1440 C   0  0  0  0  0  0  0  0  0  0  0  0
   38.4440   34.0140   40.2070 C   0  0  0  0  0  0  0  0  0  0  0  0
   37.1510   33.6350   39.7600 N   0  0  0  0  0  0  0  0  0  0  0  0
   36.9530   32.2000   39.6760 C   0  0  0  0  0  0  0  0  0  0  0  0
   38.2850   31.5170   39.3410 C   0  0  0  0  0  0  0  0  0  0  0  0
   40.0600   33.3590   41.4300 H   0  0  0  0  0  0  0  0  0  0  0  0
   38.3800   32.8510   42.0250 H   0  0  0  0  0  0  0  0  0  0  0  0
   38.4400   34.9950   40.7080 H   0  0  0  0  0  0  0  0  0  0  0  0
   39.1140   33.9960   39.3020 H   0  0  0  0  0  0  0  0  0  0  0  0
   36.8650   34.1320   38.9060 H   0  0  0  0  0  0  0  0  0  0  0  0
   36.5750   31.7550   40.6020 H   0  0  0  0  0  0  0  0  0  0  0  0
   36.2680   31.9740   38.8510 H   0  0  0  0  0  0  0  0  0  0  0  0
   38.0740   30.4140   39.3260 H   0  0  0  0  0  0  0  0  0  0  0  0
   38.5980   31.8120   38.3200 H   0  0  0  0  0  0  0  0  0  0  0  0
   39.1310   29.1190   42.9440 C   0  0  0  0  0  0  0  0  0  0  0  0
   39.7080   28.9740   43.9040 H   0  0  0  0  0  0  0  0  0  0  0  0
   39.5750   28.3860   42.2480 H   0  0  0  0  0  0  0  0  0  0  0  0
   37.6590   28.8480   43.1150 C   0  0  0  0  0  0  0  0  0  0  0  0
   37.5780   28.0300   43.8810 H   0  0  0  0  0  0  0  0  0  0  0  0
   37.0510   29.6540   43.4910 H   0  0  0  0  0  0  0  0  0  0  0  0
   35.8130   28.2230   39.9020 C   0  0  0  0  0  0  0  0  0  0  0  0
   36.2770   28.8730   41.0750 C   0  0  0  0  0  0  0  0  0  0  0  0
   37.1570   28.1990   41.8620 C   0  0  0  0  0  0  0  0  0  0  0  0
   37.5550   26.9410   41.4980 N   0  0  0  0  0  0  0  0  0  0  0  0
   37.1200   26.3520   40.4140 C   0  0  0  0  0  0  0  0  0  0  0  0
   36.2460   26.9770   39.5980 N   0  0  0  0  0  0  0  0  0  0  0  0
   35.1130   28.7570   39.2730 H   0  0  0  0  0  0  0  0  0  0  0  0
   35.9300   29.8690   41.3150 H   0  0  0  0  0  0  0  0  0  0  0  0
   37.5710   24.9940   40.0540 C   0  0  0  0  0  0  0  0  0  0  0  0
   38.1150   24.7480   38.7850 C   0  0  0  0  0  0  0  0  0  0  0  0
   38.2580   25.4650   37.9820 H   0  0  0  0  0  0  0  0  0  0  0  0
   38.5070   22.9600   38.8350 S   0  0  0  0  0  0  0  0  0  0  0  0
   37.8490   22.8460   40.6180 C   0  0  0  0  0  0  0  0  0  0  0  0
   37.7990   21.9740   41.2710 H   0  0  0  0  0  0  0  0  0  0  0  0
   37.5240   23.9260   40.8170 N   0  0  0  0  0  0  0  0  0  0  0  0
  1  4  1  1  0  0  0
  1 23  1  0  0  0  0
  2  1  1  0  0  0  0
  2  5  1  0  0  0  0
  2  6  1  0  0  0  0
  3  7  1  6  0  0  0
  3  2  1  0  0  0  0
  3  1  1  0  0  0  0
  8  3  1  0  0  0  0
  8  9  1  0  0  0  0
  9 14  1  0  0  0  0
  9 15  1  0  0  0  0
 10 16  1  0  0  0  0
 10  9  1  0  0  0  0
 11 10  1  0  0  0  0
 12 11  1  0  0  0  0
 12 19  1  0  0  0  0
 13 12  1  0  0  0  0
 13  8  1  0  0  0  0
 17 10  1  0  0  0  0
 18 11  1  0  0  0  0
 20 12  1  0  0  0  0
 21 13  1  0  0  0  0
 22 13  1  0  0  0  0
 23 26  1  0  0  0  0
 23 24  1  0  0  0  0
 25 23  1  0  0  0  0
 26 28  1  0  0  0  0
 26 27  1  0  0  0  0
 29 30  1  0  0  0  0
 30 36  1  0  0  0  0
 30 31  2  0  0  0  0
 31 26  1  0  0  0  0
 32 31  1  0  0  0  0
 33 32  2  0  0  0  0
 34 29  2  0  0  0  0
 34 33  1  0  0  0  0
 35 29  1  0  0  0  0
 37 33  1  0  0  0  0
 37 43  1  0  0  0  0
 38 40  1  0  0  0  0
 38 37  2  0  0  0  0
 39 38  1  0  0  0  0
 40 41  1  0  0  0  0
 41 43  2  0  0  0  0
 41 42  1  0  0  0  0
M  END
>  <minimizedAffinity>
-4.98208809

$$$$

 OpenBabel03252502493D

 43 46  0  0  1  0  0  0  0  0999 V2000
   37.1040   27.7840   41.2510 C   0  0  1  0  0  0  0  0  0  0  0  0
   37.8400   28.2630   42.4680 C   0  0  0  0  0  0  0  0  0  0  0  0
   36.8720   27.1420   42.5350 C   0  0  2  0  0  0  0  0  0  0  0  0
   37.7330   27.3380   40.4860 H   0  0  0  0  0  0  0  0  0  0  0  0
   38.9270   28.0900   42.5420 H   0  0  0  0  0  0  0  0  0  0  0  0
   37.5590   29.2800   42.8320 H   0  0  0  0  0  0  0  0  0  0  0  0
   36.0200   27.3200   43.1890 H   0  0  0  0  0  0  0  0  0  0  0  0
   37.5130   25.8300   42.6490 N   0  0  0  0  0  0  0  0  0  0  0  0
   38.9200   25.8460   42.5230 C   0  0  0  0  0  0  0  0  0  0  0  0
   39.3460   24.3940   42.6710 C   0  0  0  0  0  0  0  0  0  0  0  0
   38.8440   23.5860   41.6180 N   0  0  0  0  0  0  0  0  0  0  0  0
   37.5810   24.0480   41.0720 C   0  0  0  0  0  0  0  0  0  0  0  0
   36.7700   24.7440   42.1710 C   0  0  0  0  0  0  0  0  0  0  0  0
   39.3520   26.3950   43.4010 H   0  0  0  0  0  0  0  0  0  0  0  0
   39.2940   26.2410   41.5550 H   0  0  0  0  0  0  0  0  0  0  0  0
   40.4440   24.3460   42.7460 H   0  0  0  0  0  0  0  0  0  0  0  0
   38.8360   24.0460   43.6130 H   0  0  0  0  0  0  0  0  0  0  0  0
   38.8390   22.5850   41.8530 H   0  0  0  0  0  0  0  0  0  0  0  0
   37.6950   24.7560   40.2440 H   0  0  0  0  0  0  0  0  0  0  0  0
   36.9890   23.1870   40.7420 H   0  0  0  0  0  0  0  0  0  0  0  0
   35.8280   25.1080   41.6800 H   0  0  0  0  0  0  0  0  0  0  0  0
   36.4820   23.9980   42.9380 H   0  0  0  0  0  0  0  0  0  0  0  0
   36.0270   28.6620   40.7080 C   0  0  0  0  0  0  0  0  0  0  0  0
   35.8410   29.5700   41.3530 H   0  0  0  0  0  0  0  0  0  0  0  0
   35.0570   28.1350   40.6960 H   0  0  0  0  0  0  0  0  0  0  0  0
   36.4360   29.0300   39.3060 C   0  0  0  0  0  0  0  0  0  0  0  0
   37.2090   28.2750   38.9970 H   0  0  0  0  0  0  0  0  0  0  0  0
   35.6750   28.9880   38.5450 H   0  0  0  0  0  0  0  0  0  0  0  0
   37.4490   32.5620   40.0900 C   0  0  0  0  0  0  0  0  0  0  0  0
   36.6950   31.3610   40.0630 C   0  0  0  0  0  0  0  0  0  0  0  0
   37.2090   30.3110   39.3670 C   0  0  0  0  0  0  0  0  0  0  0  0
   38.4140   30.4520   38.7320 N   0  0  0  0  0  0  0  0  0  0  0  0
   39.0990   31.5650   38.7650 C   0  0  0  0  0  0  0  0  0  0  0  0
   38.6350   32.6370   39.4400 N   0  0  0  0  0  0  0  0  0  0  0  0
   37.0430   33.3990   40.6430 H   0  0  0  0  0  0  0  0  0  0  0  0
   35.7490   31.3040   40.5830 H   0  0  0  0  0  0  0  0  0  0  0  0
   40.3940   31.6810   38.0670 C   0  0  0  0  0  0  0  0  0  0  0  0
   41.0670   30.5280   37.6370 C   0  0  0  0  0  0  0  0  0  0  0  0
   40.7440   29.4990   37.7540 H   0  0  0  0  0  0  0  0  0  0  0  0
   42.5810   31.1930   36.8500 S   0  0  0  0  0  0  0  0  0  0  0  0
   42.0300   32.9710   37.2490 C   0  0  0  0  0  0  0  0  0  0  0  0
   42.5400   33.9080   37.0240 H   0  0  0  0  0  0  0  0  0  0  0  0
   41.0320   32.7940   37.7820 N   0  0  0  0  0  0  0  0  0  0  0  0
  1  4  1  6  0  0  0
  1  2  1  0  0  0  0
  1  3  1  0  0  0  0
  2  3  1  0  0  0  0
  2  5  1  0  0  0  0
  2  6  1  0  0  0  0
  3  8  1  0  0  0  0
  3  7  1  1  0  0  0
  9  8  1  0  0  0  0
  9 10  1  0  0  0  0
  9 14  1  0  0  0  0
 10 16  1  0  0  0  0
 10 17  1  0  0  0  0
 11 18  1  0  0  0  0
 11 10  1  0  0  0  0
 12 11  1  0  0  0  0
 12 13  1  0  0  0  0
 13  8  1  0  0  0  0
 13 22  1  0  0  0  0
 15  9  1  0  0  0  0
 19 12  1  0  0  0  0
 20 12  1  0  0  0  0
 21 13  1  0  0  0  0
 23  1  1  0  0  0  0
 23 24  1  0  0  0  0
 25 23  1  0  0  0  0
 26 31  1  0  0  0  0
 26 23  1  0  0  0  0
 27 26  1  0  0  0  0
 28 26  1  0  0  0  0
 29 35  1  0  0  0  0
 30 29  1  0  0  0  0
 30 36  1  0  0  0  0
 31 30  2  0  0  0  0
 32 33  2  0  0  0  0
 32 31  1  0  0  0  0
 33 34  1  0  0  0  0
 34 29  2  0  0  0  0
 37 33  1  0  0  0  0
 38 39  1  0  0  0  0
 38 37  2  0  0  0  0
 40 41  1  0  0  0  0
 40 38  1  0  0  0  0
 41 43  2  0  0  0  0
 42 41  1  0  0  0  0
 43 37  1  0  0  0  0
M  END
>  <minimizedAffinity>
-4.96461391

$$$$
