
 OpenBabel03242521263D

 40 43  0  0  0  0  0  0  0  0999 V2000
   37.6300   31.2740   39.5060 C   0  0  0  0  0  0  0  0  0  0  0  0
   37.0250   32.4980   39.4320 C   0  0  0  0  0  0  0  0  0  0  0  0
   37.6080   33.6760   39.8250 C   0  0  0  0  0  0  0  0  0  0  0  0
   38.8680   33.5690   40.3140 N   0  0  0  0  0  0  0  0  0  0  0  0
   39.4690   32.3710   40.3910 C   0  0  0  0  0  0  0  0  0  0  0  0
   38.8870   31.2140   40.0010 N   0  0  0  0  0  0  0  0  0  0  0  0
   36.0190   32.5300   39.0340 H   0  0  0  0  0  0  0  0  0  0  0  0
   37.0830   34.6020   39.7410 H   0  0  0  0  0  0  0  0  0  0  0  0
   40.8420   32.2730   40.9260 C   0  0  0  0  0  0  0  0  0  0  0  0
   41.0680   31.5570   42.0860 C   0  0  0  0  0  0  0  0  0  0  0  0
   42.3140   31.4040   42.6710 C   0  0  0  0  0  0  0  0  0  0  0  0
   43.3810   32.0130   42.0340 C   0  0  0  0  0  0  0  0  0  0  0  0
   43.1600   32.7160   40.8950 C   0  0  0  0  0  0  0  0  0  0  0  0
   41.9200   32.8640   40.3220 C   0  0  0  0  0  0  0  0  0  0  0  0
   40.2360   31.0720   42.5980 H   0  0  0  0  0  0  0  0  0  0  0  0
   42.4130   30.8270   43.5820 H   0  0  0  0  0  0  0  0  0  0  0  0
   44.3490   31.8850   42.5010 H   0  0  0  0  0  0  0  0  0  0  0  0
   44.0100   33.1900   40.4060 H   0  0  0  0  0  0  0  0  0  0  0  0
   41.6640   33.5720   39.1650 O   0  0  0  0  0  0  0  0  0  0  0  0
   42.7410   31.7840   37.5910 O   0  0  0  0  0  0  0  0  0  0  0  0
   41.7760   32.9710   37.5890 P   0  0  0  0  0  0  0  0  0  0  0  0
   40.3230   32.5390   36.9060 O   0  0  0  0  0  0  0  0  0  0  0  0
   40.0030   33.1180   36.1800 H   0  0  0  0  0  0  0  0  0  0  0  0
   42.4840   34.1610   36.6080 O   0  0  0  0  0  0  0  0  0  0  0  0
   43.4590   34.1630   36.6690 H   0  0  0  0  0  0  0  0  0  0  0  0
   35.5550   28.9680   37.5610 C   0  0  0  0  0  0  0  0  0  0  0  0
   35.7080   27.7790   38.2790 C   0  0  0  0  0  0  0  0  0  0  0  0
   36.5040   27.7540   39.4090 C   0  0  0  0  0  0  0  0  0  0  0  0
   37.1140   28.9300   39.7700 N   0  0  0  0  0  0  0  0  0  0  0  0
   36.9590   30.0670   39.0740 C   0  0  0  0  0  0  0  0  0  0  0  0
   36.1860   30.0700   37.9820 N   0  0  0  0  0  0  0  0  0  0  0  0
   34.9400   28.9860   36.6850 H   0  0  0  0  0  0  0  0  0  0  0  0
   35.2190   26.8680   37.9730 H   0  0  0  0  0  0  0  0  0  0  0  0
   36.7160   26.5350   40.2220 C   0  0  0  0  0  0  0  0  0  0  0  0
   36.5380   25.2560   39.6760 C   0  0  0  0  0  0  0  0  0  0  0  0
   36.2490   25.0080   38.6820 H   0  0  0  0  0  0  0  0  0  0  0  0
   36.9230   24.1620   41.0900 S   0  0  0  0  0  0  0  0  0  0  0  0
   37.2680   25.6660   42.2010 C   0  0  0  0  0  0  0  0  0  0  0  0
   37.5860   25.7680   43.3060 H   0  0  0  0  0  0  0  0  0  0  0  0
   37.0830   26.5530   41.5010 N   0  0  0  0  0  0  0  0  0  0  0  0
  1  6  1  0  0  0  0
  2  1  2  0  0  0  0
  2  3  1  0  0  0  0
  3  4  2  0  0  0  0
  4  5  1  0  0  0  0
  5  9  1  0  0  0  0
  6  5  2  0  0  0  0
  7  2  1  0  0  0  0
  8  3  1  0  0  0  0
  9 10  1  0  0  0  0
 10 15  1  0  0  0  0
 10 11  2  0  0  0  0
 11 16  1  0  0  0  0
 12 17  1  0  0  0  0
 12 11  1  0  0  0  0
 13 12  2  0  0  0  0
 14 13  1  0  0  0  0
 14  9  2  0  0  0  0
 18 13  1  0  0  0  0
 19 14  1  0  0  0  0
 21 20  2  0  0  0  0
 21 19  1  0  0  0  0
 22 21  1  0  0  0  0
 23 22  1  0  0  0  0
 24 25  1  0  0  0  0
 24 21  1  0  0  0  0
 26 31  2  0  0  0  0
 26 27  1  0  0  0  0
 27 28  2  0  0  0  0
 28 29  1  0  0  0  0
 28 34  1  0  0  0  0
 30  1  1  0  0  0  0
 30 29  2  0  0  0  0
 31 30  1  0  0  0  0
 32 26  1  0  0  0  0
 33 27  1  0  0  0  0
 34 40  1  0  0  0  0
 35 34  2  0  0  0  0
 35 37  1  0  0  0  0
 36 35  1  0  0  0  0
 37 38  1  0  0  0  0
 38 39  1  0  0  0  0
 40 38  2  0  0  0  0
M  END
>  <minimizedAffinity>
-6.43702364

$$$$

 OpenBabel03242521263D

 40 43  0  0  0  0  0  0  0  0999 V2000
   35.8300   28.0330   37.5790 C   0  0  0  0  0  0  0  0  0  0  0  0
   36.9580   28.1770   36.8200 C   0  0  0  0  0  0  0  0  0  0  0  0
   38.2290   28.2630   37.3280 C   0  0  0  0  0  0  0  0  0  0  0  0
   38.3240   28.1950   38.6790 N   0  0  0  0  0  0  0  0  0  0  0  0
   37.2210   28.0520   39.4320 C   0  0  0  0  0  0  0  0  0  0  0  0
   35.9710   27.9690   38.9220 N   0  0  0  0  0  0  0  0  0  0  0  0
   36.8300   28.2270   35.7470 H   0  0  0  0  0  0  0  0  0  0  0  0
   39.0720   28.3750   36.6820 H   0  0  0  0  0  0  0  0  0  0  0  0
   37.3420   27.9790   40.9030 C   0  0  0  0  0  0  0  0  0  0  0  0
   36.9950   26.8110   41.5540 C   0  0  0  0  0  0  0  0  0  0  0  0
   37.0700   26.6380   42.9260 C   0  0  0  0  0  0  0  0  0  0  0  0
   37.5250   27.7150   43.6660 C   0  0  0  0  0  0  0  0  0  0  0  0
   37.8660   28.8630   43.0280 C   0  0  0  0  0  0  0  0  0  0  0  0
   37.7870   29.0260   41.6650 C   0  0  0  0  0  0  0  0  0  0  0  0
   36.6360   25.9540   40.9820 H   0  0  0  0  0  0  0  0  0  0  0  0
   36.7810   25.6920   43.3650 H   0  0  0  0  0  0  0  0  0  0  0  0
   37.5790   27.5670   44.7370 H   0  0  0  0  0  0  0  0  0  0  0  0
   38.2210   29.7010   43.6250 H   0  0  0  0  0  0  0  0  0  0  0  0
   38.1260   30.1800   40.9870 O   0  0  0  0  0  0  0  0  0  0  0  0
   37.6330   32.7240   40.6440 O   0  0  0  0  0  0  0  0  0  0  0  0
   37.0450   31.3340   40.3930 P   0  0  0  0  0  0  0  0  0  0  0  0
   36.6480   31.1520   38.7880 O   0  0  0  0  0  0  0  0  0  0  0  0
   35.7300   30.8560   38.6050 H   0  0  0  0  0  0  0  0  0  0  0  0
   35.6130   31.2500   41.2990 O   0  0  0  0  0  0  0  0  0  0  0  0
   35.6720   31.7470   42.1380 H   0  0  0  0  0  0  0  0  0  0  0  0
   32.9750   26.8030   35.6450 C   0  0  0  0  0  0  0  0  0  0  0  0
   32.0330   27.8110   35.8640 C   0  0  0  0  0  0  0  0  0  0  0  0
   32.3560   28.8960   36.6580 C   0  0  0  0  0  0  0  0  0  0  0  0
   33.6170   28.9210   37.1980 N   0  0  0  0  0  0  0  0  0  0  0  0
   34.5160   27.9480   36.9800 C   0  0  0  0  0  0  0  0  0  0  0  0
   34.1830   26.9050   36.2100 N   0  0  0  0  0  0  0  0  0  0  0  0
   32.7230   25.9630   35.0300 H   0  0  0  0  0  0  0  0  0  0  0  0
   31.0470   27.7670   35.4290 H   0  0  0  0  0  0  0  0  0  0  0  0
   31.4130   30.0020   36.9380 C   0  0  0  0  0  0  0  0  0  0  0  0
   30.7020   30.0650   38.1450 C   0  0  0  0  0  0  0  0  0  0  0  0
   30.7410   29.3810   38.9590 H   0  0  0  0  0  0  0  0  0  0  0  0
   29.7200   31.5950   37.9490 S   0  0  0  0  0  0  0  0  0  0  0  0
   30.4610   31.8890   36.2230 C   0  0  0  0  0  0  0  0  0  0  0  0
   30.3070   32.7170   35.4350 H   0  0  0  0  0  0  0  0  0  0  0  0
   31.1690   31.0000   36.0910 N   0  0  0  0  0  0  0  0  0  0  0  0
  1  6  1  0  0  0  0
  2  3  1  0  0  0  0
  2  1  2  0  0  0  0
  3  4  2  0  0  0  0
  4  5  1  0  0  0  0
  5  9  1  0  0  0  0
  6  5  2  0  0  0  0
  7  2  1  0  0  0  0
  8  3  1  0  0  0  0
  9 10  2  0  0  0  0
  9 14  1  0  0  0  0
 10 11  1  0  0  0  0
 11 16  1  0  0  0  0
 11 12  2  0  0  0  0
 12 17  1  0  0  0  0
 13 18  1  0  0  0  0
 13 12  1  0  0  0  0
 14 13  2  0  0  0  0
 15 10  1  0  0  0  0
 19 14  1  0  0  0  0
 21 20  2  0  0  0  0
 21 19  1  0  0  0  0
 21 24  1  0  0  0  0
 22 21  1  0  0  0  0
 23 22  1  0  0  0  0
 24 25  1  0  0  0  0
 26 27  2  0  0  0  0
 26 31  1  0  0  0  0
 27 28  1  0  0  0  0
 28 34  1  0  0  0  0
 28 29  2  0  0  0  0
 30 29  1  0  0  0  0
 30  1  1  0  0  0  0
 31 30  2  0  0  0  0
 32 26  1  0  0  0  0
 33 27  1  0  0  0  0
 34 35  2  0  0  0  0
 35 36  1  0  0  0  0
 37 35  1  0  0  0  0
 38 37  1  0  0  0  0
 39 38  1  0  0  0  0
 40 38  2  0  0  0  0
 40 34  1  0  0  0  0
M  END
>  <minimizedAffinity>
-6.19402885

$$$$

 OpenBabel03242521263D

 40 43  0  0  0  0  0  0  0  0999 V2000
   39.9790   32.6500   39.6450 C   0  0  0  0  0  0  0  0  0  0  0  0
   39.4520   33.8810   39.9200 C   0  0  0  0  0  0  0  0  0  0  0  0
   38.1090   34.1610   39.9490 C   0  0  0  0  0  0  0  0  0  0  0  0
   37.2890   33.1160   39.6790 N   0  0  0  0  0  0  0  0  0  0  0  0
   37.7990   31.9030   39.4070 C   0  0  0  0  0  0  0  0  0  0  0  0
   39.1240   31.6360   39.3810 N   0  0  0  0  0  0  0  0  0  0  0  0
   40.1480   34.6830   40.1280 H   0  0  0  0  0  0  0  0  0  0  0  0
   37.7590   35.1450   40.1710 H   0  0  0  0  0  0  0  0  0  0  0  0
   36.8910   30.7750   39.1160 C   0  0  0  0  0  0  0  0  0  0  0  0
   36.5540   30.4970   37.8060 C   0  0  0  0  0  0  0  0  0  0  0  0
   35.7130   29.4640   37.4250 C   0  0  0  0  0  0  0  0  0  0  0  0
   35.1930   28.6780   38.4380 C   0  0  0  0  0  0  0  0  0  0  0  0
   35.5230   28.9500   39.7250 C   0  0  0  0  0  0  0  0  0  0  0  0
   36.3580   29.9780   40.0940 C   0  0  0  0  0  0  0  0  0  0  0  0
   36.9580   31.1080   36.9980 H   0  0  0  0  0  0  0  0  0  0  0  0
   35.4950   29.3080   36.3760 H   0  0  0  0  0  0  0  0  0  0  0  0
   34.5370   27.8750   38.1270 H   0  0  0  0  0  0  0  0  0  0  0  0
   35.1040   28.3230   40.5110 H   0  0  0  0  0  0  0  0  0  0  0  0
   36.7120   30.2800   41.3940 O   0  0  0  0  0  0  0  0  0  0  0  0
   38.8250   30.1680   42.9290 O   0  0  0  0  0  0  0  0  0  0  0  0
   37.6610   29.3200   42.4110 P   0  0  0  0  0  0  0  0  0  0  0  0
   36.8380   28.6280   43.6790 O   0  0  0  0  0  0  0  0  0  0  0  0
   36.7120   27.6550   43.6270 H   0  0  0  0  0  0  0  0  0  0  0  0
   38.3500   28.0740   41.4890 O   0  0  0  0  0  0  0  0  0  0  0  0
   39.1560   28.3600   41.0180 H   0  0  0  0  0  0  0  0  0  0  0  0
   43.4680   32.4460   40.7360 C   0  0  0  0  0  0  0  0  0  0  0  0
   44.0970   31.9780   39.5790 C   0  0  0  0  0  0  0  0  0  0  0  0
   43.3520   31.7330   38.4410 C   0  0  0  0  0  0  0  0  0  0  0  0
   42.0020   31.9700   38.5140 N   0  0  0  0  0  0  0  0  0  0  0  0
   41.4070   32.4210   39.6300 C   0  0  0  0  0  0  0  0  0  0  0  0
   42.1460   32.6500   40.7230 N   0  0  0  0  0  0  0  0  0  0  0  0
   44.0460   32.6340   41.6170 H   0  0  0  0  0  0  0  0  0  0  0  0
   45.1600   31.7990   39.5470 H   0  0  0  0  0  0  0  0  0  0  0  0
   43.9440   31.2370   37.1780 C   0  0  0  0  0  0  0  0  0  0  0  0
   45.2520   31.5780   36.8040 C   0  0  0  0  0  0  0  0  0  0  0  0
   45.9410   32.1920   37.3350 H   0  0  0  0  0  0  0  0  0  0  0  0
   45.4470   30.7120   35.2050 S   0  0  0  0  0  0  0  0  0  0  0  0
   43.6800   30.0220   35.3250 C   0  0  0  0  0  0  0  0  0  0  0  0
   43.0560   29.3410   34.6340 H   0  0  0  0  0  0  0  0  0  0  0  0
   43.3030   30.4490   36.3180 N   0  0  0  0  0  0  0  0  0  0  0  0
  1  2  1  0  0  0  0
  2  3  2  0  0  0  0
  2  7  1  0  0  0  0
  3  8  1  0  0  0  0
  4  3  1  0  0  0  0
  5  4  2  0  0  0  0
  6  5  1  0  0  0  0
  6  1  2  0  0  0  0
  9  5  1  0  0  0  0
  9 14  1  0  0  0  0
 10  9  2  0  0  0  0
 11 10  1  0  0  0  0
 11 12  2  0  0  0  0
 12 13  1  0  0  0  0
 13 14  2  0  0  0  0
 13 18  1  0  0  0  0
 14 19  1  0  0  0  0
 15 10  1  0  0  0  0
 16 11  1  0  0  0  0
 17 12  1  0  0  0  0
 19 21  1  0  0  0  0
 21 20  2  0  0  0  0
 21 22  1  0  0  0  0
 23 22  1  0  0  0  0
 24 21  1  0  0  0  0
 25 24  1  0  0  0  0
 26 32  1  0  0  0  0
 27 26  2  0  0  0  0
 28 29  2  0  0  0  0
 28 27  1  0  0  0  0
 29 30  1  0  0  0  0
 30  1  1  0  0  0  0
 30 31  2  0  0  0  0
 31 26  1  0  0  0  0
 33 27  1  0  0  0  0
 34 28  1  0  0  0  0
 35 34  2  0  0  0  0
 35 36  1  0  0  0  0
 37 38  1  0  0  0  0
 37 35  1  0  0  0  0
 38 40  2  0  0  0  0
 39 38  1  0  0  0  0
 40 34  1  0  0  0  0
M  END
>  <minimizedAffinity>
-6.03888845

$$$$

 OpenBabel03242521263D

 40 43  0  0  0  0  0  0  0  0999 V2000
   36.8900   30.0080   39.2210 C   0  0  0  0  0  0  0  0  0  0  0  0
   36.0270   30.0220   38.1600 C   0  0  0  0  0  0  0  0  0  0  0  0
   35.3470   28.9240   37.6990 C   0  0  0  0  0  0  0  0  0  0  0  0
   35.5780   27.7690   38.3710 N   0  0  0  0  0  0  0  0  0  0  0  0
   36.4230   27.7460   39.4140 C   0  0  0  0  0  0  0  0  0  0  0  0
   37.0900   28.8340   39.8620 N   0  0  0  0  0  0  0  0  0  0  0  0
   35.8780   30.9680   37.6570 H   0  0  0  0  0  0  0  0  0  0  0  0
   34.6860   28.9990   36.8640 H   0  0  0  0  0  0  0  0  0  0  0  0
   36.6620   26.4800   40.1360 C   0  0  0  0  0  0  0  0  0  0  0  0
   36.4810   25.2790   39.4770 C   0  0  0  0  0  0  0  0  0  0  0  0
   36.6770   24.0380   40.0600 C   0  0  0  0  0  0  0  0  0  0  0  0
   37.0810   24.0290   41.3830 C   0  0  0  0  0  0  0  0  0  0  0  0
   37.2600   25.2070   42.0320 C   0  0  0  0  0  0  0  0  0  0  0  0
   37.0610   26.4340   41.4450 C   0  0  0  0  0  0  0  0  0  0  0  0
   36.1640   25.2730   38.4330 H   0  0  0  0  0  0  0  0  0  0  0  0
   36.5150   23.1400   39.4790 H   0  0  0  0  0  0  0  0  0  0  0  0
   37.2310   23.0530   41.8270 H   0  0  0  0  0  0  0  0  0  0  0  0
   37.5760   25.1820   43.0730 H   0  0  0  0  0  0  0  0  0  0  0  0
   37.2340   27.6490   42.0780 O   0  0  0  0  0  0  0  0  0  0  0  0
   39.2960   27.4290   43.6690 O   0  0  0  0  0  0  0  0  0  0  0  0
   38.7110   28.3110   42.5650 P   0  0  0  0  0  0  0  0  0  0  0  0
   39.8160   28.5200   41.3400 O   0  0  0  0  0  0  0  0  0  0  0  0
   39.9990   29.4500   41.0840 H   0  0  0  0  0  0  0  0  0  0  0  0
   38.4160   29.8260   43.2690 O   0  0  0  0  0  0  0  0  0  0  0  0
   38.1460   29.7560   44.2050 H   0  0  0  0  0  0  0  0  0  0  0  0
   37.6580   33.5330   39.8420 C   0  0  0  0  0  0  0  0  0  0  0  0
   38.8910   33.4410   40.4950 C   0  0  0  0  0  0  0  0  0  0  0  0
   39.4580   32.2010   40.7230 C   0  0  0  0  0  0  0  0  0  0  0  0
   38.7600   31.1040   40.2850 N   0  0  0  0  0  0  0  0  0  0  0  0
   37.5770   31.2030   39.6580 C   0  0  0  0  0  0  0  0  0  0  0  0
   37.0440   32.4120   39.4480 N   0  0  0  0  0  0  0  0  0  0  0  0
   37.2200   34.4940   39.6670 H   0  0  0  0  0  0  0  0  0  0  0  0
   39.4190   34.3180   40.8300 H   0  0  0  0  0  0  0  0  0  0  0  0
   40.7590   32.0210   41.4070 C   0  0  0  0  0  0  0  0  0  0  0  0
   41.8930   32.7460   41.0160 C   0  0  0  0  0  0  0  0  0  0  0  0
   41.9680   33.4670   40.2370 H   0  0  0  0  0  0  0  0  0  0  0  0
   43.1730   32.1360   42.1720 S   0  0  0  0  0  0  0  0  0  0  0  0
   41.9170   30.9770   43.0040 C   0  0  0  0  0  0  0  0  0  0  0  0
   42.0010   30.2260   43.8760 H   0  0  0  0  0  0  0  0  0  0  0  0
   40.9530   31.1790   42.4200 N   0  0  0  0  0  0  0  0  0  0  0  0
  1 30  1  0  0  0  0
  1  6  1  0  0  0  0
  2  1  2  0  0  0  0
  3  2  1  0  0  0  0
  3  4  2  0  0  0  0
  4  5  1  0  0  0  0
  5  6  2  0  0  0  0
  5  9  1  0  0  0  0
  7  2  1  0  0  0  0
  8  3  1  0  0  0  0
  9 14  1  0  0  0  0
 10 11  1  0  0  0  0
 10  9  2  0  0  0  0
 11 12  2  0  0  0  0
 12 17  1  0  0  0  0
 12 13  1  0  0  0  0
 13 18  1  0  0  0  0
 14 13  2  0  0  0  0
 14 19  1  0  0  0  0
 15 10  1  0  0  0  0
 16 11  1  0  0  0  0
 19 21  1  0  0  0  0
 21 24  1  0  0  0  0
 21 20  2  0  0  0  0
 22 21  1  0  0  0  0
 23 22  1  0  0  0  0
 24 25  1  0  0  0  0
 26 27  1  0  0  0  0
 27 28  2  0  0  0  0
 27 33  1  0  0  0  0
 28 34  1  0  0  0  0
 29 28  1  0  0  0  0
 30 29  2  0  0  0  0
 31 30  1  0  0  0  0
 31 26  2  0  0  0  0
 32 26  1  0  0  0  0
 34 40  1  0  0  0  0
 35 34  2  0  0  0  0
 35 37  1  0  0  0  0
 36 35  1  0  0  0  0
 37 38  1  0  0  0  0
 38 39  1  0  0  0  0
 40 38  2  0  0  0  0
M  END
>  <minimizedAffinity>
-6.02582026

$$$$

 OpenBabel03242521263D

 40 43  0  0  0  0  0  0  0  0999 V2000
   37.0370   29.6330   38.5140 C   0  0  0  0  0  0  0  0  0  0  0  0
   36.2830   29.5170   37.3790 C   0  0  0  0  0  0  0  0  0  0  0  0
   35.6540   28.3650   36.9800 C   0  0  0  0  0  0  0  0  0  0  0  0
   35.8200   27.2960   37.7980 N   0  0  0  0  0  0  0  0  0  0  0  0
   36.5580   27.4010   38.9140 C   0  0  0  0  0  0  0  0  0  0  0  0
   37.1750   28.5410   39.3000 N   0  0  0  0  0  0  0  0  0  0  0  0
   36.1810   30.3980   36.7600 H   0  0  0  0  0  0  0  0  0  0  0  0
   35.0780   28.3380   36.0820 H   0  0  0  0  0  0  0  0  0  0  0  0
   36.7280   26.2270   39.7940 C   0  0  0  0  0  0  0  0  0  0  0  0
   36.2720   24.9930   39.3730 C   0  0  0  0  0  0  0  0  0  0  0  0
   36.3810   23.8310   40.1190 C   0  0  0  0  0  0  0  0  0  0  0  0
   36.9890   23.9400   41.3570 C   0  0  0  0  0  0  0  0  0  0  0  0
   37.4380   25.1520   41.7720 C   0  0  0  0  0  0  0  0  0  0  0  0
   37.3250   26.3000   41.0240 C   0  0  0  0  0  0  0  0  0  0  0  0
   35.7920   24.8920   38.3990 H   0  0  0  0  0  0  0  0  0  0  0  0
   35.9990   22.8990   39.7220 H   0  0  0  0  0  0  0  0  0  0  0  0
   37.0690   23.0250   41.9300 H   0  0  0  0  0  0  0  0  0  0  0  0
   37.9140   25.2210   42.7490 H   0  0  0  0  0  0  0  0  0  0  0  0
   37.7700   27.5450   41.4190 O   0  0  0  0  0  0  0  0  0  0  0  0
   36.1330   27.6470   43.4540 O   0  0  0  0  0  0  0  0  0  0  0  0
   37.0750   28.5140   42.6170 P   0  0  0  0  0  0  0  0  0  0  0  0
   38.1680   29.2980   43.5960 O   0  0  0  0  0  0  0  0  0  0  0  0
   38.2250   30.2710   43.4770 H   0  0  0  0  0  0  0  0  0  0  0  0
   36.1060   29.6870   41.8670 O   0  0  0  0  0  0  0  0  0  0  0  0
   35.2200   29.3470   41.6370 H   0  0  0  0  0  0  0  0  0  0  0  0
   37.5450   33.0100   39.8330 C   0  0  0  0  0  0  0  0  0  0  0  0
   38.9000   33.2170   39.5600 C   0  0  0  0  0  0  0  0  0  0  0  0
   39.6360   32.2260   38.9370 C   0  0  0  0  0  0  0  0  0  0  0  0
   38.9770   31.0670   38.6130 N   0  0  0  0  0  0  0  0  0  0  0  0
   37.6750   30.8790   38.8790 C   0  0  0  0  0  0  0  0  0  0  0  0
   36.9790   31.8490   39.4840 N   0  0  0  0  0  0  0  0  0  0  0  0
   36.9760   33.7780   40.3160 H   0  0  0  0  0  0  0  0  0  0  0  0
   39.3950   34.1370   39.8240 H   0  0  0  0  0  0  0  0  0  0  0  0
   41.0740   32.3690   38.6140 C   0  0  0  0  0  0  0  0  0  0  0  0
   41.5180   33.3000   37.6640 C   0  0  0  0  0  0  0  0  0  0  0  0
   40.9290   33.9760   37.0910 H   0  0  0  0  0  0  0  0  0  0  0  0
   43.3300   33.0460   37.6740 S   0  0  0  0  0  0  0  0  0  0  0  0
   43.1650   31.6900   38.9970 C   0  0  0  0  0  0  0  0  0  0  0  0
   43.9370   31.0240   39.5370 H   0  0  0  0  0  0  0  0  0  0  0  0
   42.0360   31.6470   39.1840 N   0  0  0  0  0  0  0  0  0  0  0  0
  1 30  1  0  0  0  0
  1  6  1  0  0  0  0
  2  1  2  0  0  0  0
  3  2  1  0  0  0  0
  3  4  2  0  0  0  0
  4  5  1  0  0  0  0
  5  6  2  0  0  0  0
  5  9  1  0  0  0  0
  7  2  1  0  0  0  0
  8  3  1  0  0  0  0
  9 14  1  0  0  0  0
 10  9  2  0  0  0  0
 10 11  1  0  0  0  0
 11 12  2  0  0  0  0
 12 13  1  0  0  0  0
 12 17  1  0  0  0  0
 13 18  1  0  0  0  0
 14 19  1  0  0  0  0
 14 13  2  0  0  0  0
 15 10  1  0  0  0  0
 16 11  1  0  0  0  0
 19 21  1  0  0  0  0
 21 20  2  0  0  0  0
 21 22  1  0  0  0  0
 23 22  1  0  0  0  0
 24 21  1  0  0  0  0
 25 24  1  0  0  0  0
 26 32  1  0  0  0  0
 27 33  1  0  0  0  0
 27 26  1  0  0  0  0
 28 27  2  0  0  0  0
 29 30  2  0  0  0  0
 29 28  1  0  0  0  0
 30 31  1  0  0  0  0
 31 26  2  0  0  0  0
 34 28  1  0  0  0  0
 34 40  1  0  0  0  0
 35 37  1  0  0  0  0
 35 34  2  0  0  0  0
 36 35  1  0  0  0  0
 37 38  1  0  0  0  0
 38 40  2  0  0  0  0
 38 39  1  0  0  0  0
M  END
>  <minimizedAffinity>
-5.94123268

$$$$

 OpenBabel03242521263D

 40 43  0  0  0  0  0  0  0  0999 V2000
   37.0950   28.4750   40.9750 C   0  0  0  0  0  0  0  0  0  0  0  0
   36.0190   29.2980   40.7910 C   0  0  0  0  0  0  0  0  0  0  0  0
   36.0830   30.6680   40.7780 C   0  0  0  0  0  0  0  0  0  0  0  0
   37.3180   31.1970   40.9650 N   0  0  0  0  0  0  0  0  0  0  0  0
   38.3800   30.3960   41.1470 C   0  0  0  0  0  0  0  0  0  0  0  0
   38.3080   29.0450   41.1580 N   0  0  0  0  0  0  0  0  0  0  0  0
   35.0550   28.8280   40.6460 H   0  0  0  0  0  0  0  0  0  0  0  0
   35.2050   31.2570   40.6290 H   0  0  0  0  0  0  0  0  0  0  0  0
   39.7190   30.9880   41.3480 C   0  0  0  0  0  0  0  0  0  0  0  0
   40.4000   30.7380   42.5240 C   0  0  0  0  0  0  0  0  0  0  0  0
   41.6570   31.2430   42.8130 C   0  0  0  0  0  0  0  0  0  0  0  0
   42.2440   32.0430   41.8480 C   0  0  0  0  0  0  0  0  0  0  0  0
   41.5760   32.2890   40.6930 C   0  0  0  0  0  0  0  0  0  0  0  0
   40.3280   31.7830   40.4150 C   0  0  0  0  0  0  0  0  0  0  0  0
   39.9490   30.1090   43.2920 H   0  0  0  0  0  0  0  0  0  0  0  0
   42.1290   31.0030   43.7570 H   0  0  0  0  0  0  0  0  0  0  0  0
   43.2260   32.4310   42.0860 H   0  0  0  0  0  0  0  0  0  0  0  0
   42.0510   32.9210   39.9440 H   0  0  0  0  0  0  0  0  0  0  0  0
   39.6230   32.0160   39.2510 O   0  0  0  0  0  0  0  0  0  0  0  0
   41.3340   32.9520   37.5110 O   0  0  0  0  0  0  0  0  0  0  0  0
   40.2380   31.9000   37.6810 P   0  0  0  0  0  0  0  0  0  0  0  0
   40.8090   30.3930   37.2690 O   0  0  0  0  0  0  0  0  0  0  0  0
   40.2730   29.8980   36.6120 H   0  0  0  0  0  0  0  0  0  0  0  0
   39.0070   32.3110   36.5880 O   0  0  0  0  0  0  0  0  0  0  0  0
   38.9160   33.2770   36.4740 H   0  0  0  0  0  0  0  0  0  0  0  0
   37.0770   24.9980   42.1200 C   0  0  0  0  0  0  0  0  0  0  0  0
   36.6960   24.3220   40.9580 C   0  0  0  0  0  0  0  0  0  0  0  0
   36.4470   25.0320   39.7980 C   0  0  0  0  0  0  0  0  0  0  0  0
   36.5920   26.3950   39.8560 N   0  0  0  0  0  0  0  0  0  0  0  0
   36.9600   27.0350   40.9780 C   0  0  0  0  0  0  0  0  0  0  0  0
   37.1950   26.3300   42.0910 N   0  0  0  0  0  0  0  0  0  0  0  0
   37.2680   24.4470   43.0180 H   0  0  0  0  0  0  0  0  0  0  0  0
   36.5880   23.2490   40.9390 H   0  0  0  0  0  0  0  0  0  0  0  0
   36.0400   24.3890   38.5290 C   0  0  0  0  0  0  0  0  0  0  0  0
   35.2100   25.0490   37.6110 C   0  0  0  0  0  0  0  0  0  0  0  0
   34.7930   26.0250   37.6970 H   0  0  0  0  0  0  0  0  0  0  0  0
   35.0410   23.8180   36.2690 S   0  0  0  0  0  0  0  0  0  0  0  0
   36.1520   22.5940   37.2080 C   0  0  0  0  0  0  0  0  0  0  0  0
   36.5230   21.5280   36.9660 H   0  0  0  0  0  0  0  0  0  0  0  0
   36.4170   23.1650   38.1640 N   0  0  0  0  0  0  0  0  0  0  0  0
  1 30  1  0  0  0  0
  1  6  1  0  0  0  0
  2  1  2  0  0  0  0
  3  2  1  0  0  0  0
  3  4  2  0  0  0  0
  4  5  1  0  0  0  0
  5  6  2  0  0  0  0
  5  9  1  0  0  0  0
  7  2  1  0  0  0  0
  8  3  1  0  0  0  0
  9 10  1  0  0  0  0
 10 11  2  0  0  0  0
 10 15  1  0  0  0  0
 11 16  1  0  0  0  0
 12 17  1  0  0  0  0
 12 11  1  0  0  0  0
 13 12  2  0  0  0  0
 14 13  1  0  0  0  0
 14  9  2  0  0  0  0
 18 13  1  0  0  0  0
 19 14  1  0  0  0  0
 20 21  2  0  0  0  0
 21 19  1  0  0  0  0
 22 21  1  0  0  0  0
 23 22  1  0  0  0  0
 24 21  1  0  0  0  0
 25 24  1  0  0  0  0
 26 32  1  0  0  0  0
 27 26  2  0  0  0  0
 28 29  2  0  0  0  0
 28 27  1  0  0  0  0
 29 30  1  0  0  0  0
 30 31  2  0  0  0  0
 31 26  1  0  0  0  0
 33 27  1  0  0  0  0
 34 28  1  0  0  0  0
 35 36  1  0  0  0  0
 35 34  2  0  0  0  0
 37 38  1  0  0  0  0
 37 35  1  0  0  0  0
 38 40  2  0  0  0  0
 39 38  1  0  0  0  0
 40 34  1  0  0  0  0
M  END
>  <minimizedAffinity>
-5.93208694

$$$$

 OpenBabel03242521263D

 40 43  0  0  0  0  0  0  0  0999 V2000
   38.0880   30.9680   38.7250 C   0  0  0  0  0  0  0  0  0  0  0  0
   37.1270   31.8890   39.0340 C   0  0  0  0  0  0  0  0  0  0  0  0
   37.2970   32.9180   39.9250 C   0  0  0  0  0  0  0  0  0  0  0  0
   38.5160   32.9850   40.5140 N   0  0  0  0  0  0  0  0  0  0  0  0
   39.4670   32.0840   40.2160 C   0  0  0  0  0  0  0  0  0  0  0  0
   39.2900   31.0720   39.3360 N   0  0  0  0  0  0  0  0  0  0  0  0
   36.1700   31.7920   38.5380 H   0  0  0  0  0  0  0  0  0  0  0  0
   36.5060   33.6070   40.1240 H   0  0  0  0  0  0  0  0  0  0  0  0
   40.7900   32.1720   40.8660 C   0  0  0  0  0  0  0  0  0  0  0  0
   41.0150   31.4810   42.0410 C   0  0  0  0  0  0  0  0  0  0  0  0
   42.2160   31.4960   42.7300 C   0  0  0  0  0  0  0  0  0  0  0  0
   43.2370   32.2550   42.1860 C   0  0  0  0  0  0  0  0  0  0  0  0
   43.0180   32.9340   41.0320 C   0  0  0  0  0  0  0  0  0  0  0  0
   41.8210   32.9140   40.3550 C   0  0  0  0  0  0  0  0  0  0  0  0
   40.2190   30.8790   42.4800 H   0  0  0  0  0  0  0  0  0  0  0  0
   42.3180   30.9280   43.6460 H   0  0  0  0  0  0  0  0  0  0  0  0
   44.1710   32.2580   42.7340 H   0  0  0  0  0  0  0  0  0  0  0  0
   43.8310   33.5280   40.6180 H   0  0  0  0  0  0  0  0  0  0  0  0
   41.5670   33.5940   39.1810 O   0  0  0  0  0  0  0  0  0  0  0  0
   42.7210   31.7830   37.6890 O   0  0  0  0  0  0  0  0  0  0  0  0
   41.7770   32.9850   37.6180 P   0  0  0  0  0  0  0  0  0  0  0  0
   40.3660   32.5710   36.8400 O   0  0  0  0  0  0  0  0  0  0  0  0
   40.1040   33.1510   36.0930 H   0  0  0  0  0  0  0  0  0  0  0  0
   42.5660   34.1590   36.6830 O   0  0  0  0  0  0  0  0  0  0  0  0
   43.5350   34.1480   36.8100 H   0  0  0  0  0  0  0  0  0  0  0  0
   36.4800   28.9210   36.1500 C   0  0  0  0  0  0  0  0  0  0  0  0
   37.4100   27.8910   35.9890 C   0  0  0  0  0  0  0  0  0  0  0  0
   38.5700   27.8860   36.7410 C   0  0  0  0  0  0  0  0  0  0  0  0
   38.7450   28.9190   37.6270 N   0  0  0  0  0  0  0  0  0  0  0  0
   37.8450   29.9040   37.7750 C   0  0  0  0  0  0  0  0  0  0  0  0
   36.7290   29.8920   37.0350 N   0  0  0  0  0  0  0  0  0  0  0  0
   35.5830   28.9250   35.5650 H   0  0  0  0  0  0  0  0  0  0  0  0
   37.2500   27.0900   35.2850 H   0  0  0  0  0  0  0  0  0  0  0  0
   39.6020   26.8310   36.6280 C   0  0  0  0  0  0  0  0  0  0  0  0
   39.2530   25.4760   36.5410 C   0  0  0  0  0  0  0  0  0  0  0  0
   38.2740   25.0550   36.5440 H   0  0  0  0  0  0  0  0  0  0  0  0
   40.8810   24.6510   36.4250 S   0  0  0  0  0  0  0  0  0  0  0  0
   41.7730   26.3260   36.5180 C   0  0  0  0  0  0  0  0  0  0  0  0
   42.8880   26.6220   36.5010 H   0  0  0  0  0  0  0  0  0  0  0  0
   40.9110   27.0750   36.6020 N   0  0  0  0  0  0  0  0  0  0  0  0
  1  2  2  0  0  0  0
  1  6  1  0  0  0  0
  2  3  1  0  0  0  0
  3  8  1  0  0  0  0
  3  4  2  0  0  0  0
  5  4  1  0  0  0  0
  5  9  1  0  0  0  0
  6  5  2  0  0  0  0
  7  2  1  0  0  0  0
  9 10  1  0  0  0  0
 10 15  1  0  0  0  0
 10 11  2  0  0  0  0
 11 16  1  0  0  0  0
 12 11  1  0  0  0  0
 12 17  1  0  0  0  0
 13 12  2  0  0  0  0
 14  9  2  0  0  0  0
 14 13  1  0  0  0  0
 18 13  1  0  0  0  0
 19 14  1  0  0  0  0
 21 20  2  0  0  0  0
 21 19  1  0  0  0  0
 22 21  1  0  0  0  0
 23 22  1  0  0  0  0
 24 25  1  0  0  0  0
 24 21  1  0  0  0  0
 26 31  1  0  0  0  0
 27 26  2  0  0  0  0
 27 28  1  0  0  0  0
 28 29  2  0  0  0  0
 29 30  1  0  0  0  0
 30  1  1  0  0  0  0
 31 30  2  0  0  0  0
 32 26  1  0  0  0  0
 33 27  1  0  0  0  0
 34 28  1  0  0  0  0
 35 36  1  0  0  0  0
 35 34  2  0  0  0  0
 37 38  1  0  0  0  0
 37 35  1  0  0  0  0
 38 40  2  0  0  0  0
 39 38  1  0  0  0  0
 40 34  1  0  0  0  0
M  END
>  <minimizedAffinity>
-5.85979986

$$$$

 OpenBabel03242521263D

 40 43  0  0  0  0  0  0  0  0999 V2000
   37.2450   28.2220   41.0400 C   0  0  0  0  0  0  0  0  0  0  0  0
   37.0520   29.3450   41.7950 C   0  0  0  0  0  0  0  0  0  0  0  0
   36.3980   30.4690   41.3600 C   0  0  0  0  0  0  0  0  0  0  0  0
   35.9300   30.4170   40.0890 N   0  0  0  0  0  0  0  0  0  0  0  0
   36.1160   29.3180   39.3400 C   0  0  0  0  0  0  0  0  0  0  0  0
   36.7620   28.2130   39.7770 N   0  0  0  0  0  0  0  0  0  0  0  0
   37.4450   29.3370   42.8040 H   0  0  0  0  0  0  0  0  0  0  0  0
   36.2790   31.3160   42.0000 H   0  0  0  0  0  0  0  0  0  0  0  0
   35.5990   29.2780   37.9570 C   0  0  0  0  0  0  0  0  0  0  0  0
   34.3050   28.8510   37.7290 C   0  0  0  0  0  0  0  0  0  0  0  0
   33.7230   28.7750   36.4740 C   0  0  0  0  0  0  0  0  0  0  0  0
   34.5080   29.1570   35.4000 C   0  0  0  0  0  0  0  0  0  0  0  0
   35.7790   29.5770   35.6220 C   0  0  0  0  0  0  0  0  0  0  0  0
   36.3480   29.6480   36.8720 C   0  0  0  0  0  0  0  0  0  0  0  0
   33.6750   28.5480   38.5670 H   0  0  0  0  0  0  0  0  0  0  0  0
   32.7020   28.4300   36.3740 H   0  0  0  0  0  0  0  0  0  0  0  0
   34.0430   29.0940   34.4250 H   0  0  0  0  0  0  0  0  0  0  0  0
   36.3840   29.8730   34.7670 H   0  0  0  0  0  0  0  0  0  0  0  0
   37.6360   30.0700   37.1300 O   0  0  0  0  0  0  0  0  0  0  0  0
   39.6150   31.6980   37.6470 O   0  0  0  0  0  0  0  0  0  0  0  0
   38.1710   31.6730   37.1420 P   0  0  0  0  0  0  0  0  0  0  0  0
   38.0530   32.4550   35.6790 O   0  0  0  0  0  0  0  0  0  0  0  0
   37.3700   33.1580   35.6240 H   0  0  0  0  0  0  0  0  0  0  0  0
   37.2530   32.5390   38.2750 O   0  0  0  0  0  0  0  0  0  0  0  0
   37.5840   32.4280   39.1870 H   0  0  0  0  0  0  0  0  0  0  0  0
   37.9140   24.8390   42.2700 C   0  0  0  0  0  0  0  0  0  0  0  0
   39.2850   24.9030   42.5360 C   0  0  0  0  0  0  0  0  0  0  0  0
   39.9780   26.0760   42.3030 C   0  0  0  0  0  0  0  0  0  0  0  0
   39.2610   27.1380   41.8110 N   0  0  0  0  0  0  0  0  0  0  0  0
   37.9440   27.0670   41.5590 C   0  0  0  0  0  0  0  0  0  0  0  0
   37.2910   25.9210   41.7910 N   0  0  0  0  0  0  0  0  0  0  0  0
   37.3790   23.9290   42.4510 H   0  0  0  0  0  0  0  0  0  0  0  0
   39.8250   24.0540   42.9220 H   0  0  0  0  0  0  0  0  0  0  0  0
   41.4280   26.2230   42.5590 C   0  0  0  0  0  0  0  0  0  0  0  0
   42.1520   27.3100   42.0490 C   0  0  0  0  0  0  0  0  0  0  0  0
   41.7850   28.1150   41.4560 H   0  0  0  0  0  0  0  0  0  0  0  0
   43.8450   26.9840   42.6590 S   0  0  0  0  0  0  0  0  0  0  0  0
   43.2630   25.3920   43.5200 C   0  0  0  0  0  0  0  0  0  0  0  0
   43.8110   24.5970   44.1510 H   0  0  0  0  0  0  0  0  0  0  0  0
   42.1460   25.3580   43.2730 N   0  0  0  0  0  0  0  0  0  0  0  0
  1 30  1  0  0  0  0
  1  2  1  0  0  0  0
  2  7  1  0  0  0  0
  3  2  2  0  0  0  0
  3  8  1  0  0  0  0
  4  3  1  0  0  0  0
  5  6  1  0  0  0  0
  5  4  2  0  0  0  0
  6  1  2  0  0  0  0
  9  5  1  0  0  0  0
 10  9  1  0  0  0  0
 10 15  1  0  0  0  0
 11 10  2  0  0  0  0
 12 13  2  0  0  0  0
 12 11  1  0  0  0  0
 13 14  1  0  0  0  0
 14 19  1  0  0  0  0
 14  9  2  0  0  0  0
 16 11  1  0  0  0  0
 17 12  1  0  0  0  0
 18 13  1  0  0  0  0
 19 21  1  0  0  0  0
 21 20  2  0  0  0  0
 21 24  1  0  0  0  0
 22 21  1  0  0  0  0
 23 22  1  0  0  0  0
 24 25  1  0  0  0  0
 26 32  1  0  0  0  0
 26 27  1  0  0  0  0
 27 33  1  0  0  0  0
 28 27  2  0  0  0  0
 28 34  1  0  0  0  0
 29 28  1  0  0  0  0
 30 31  1  0  0  0  0
 30 29  2  0  0  0  0
 31 26  2  0  0  0  0
 34 40  1  0  0  0  0
 35 34  2  0  0  0  0
 35 37  1  0  0  0  0
 36 35  1  0  0  0  0
 37 38  1  0  0  0  0
 38 39  1  0  0  0  0
 40 38  2  0  0  0  0
M  END
>  <minimizedAffinity>
-5.84022856

$$$$

 OpenBabel03242521263D

 40 43  0  0  0  0  0  0  0  0999 V2000
   37.7960   29.1530   41.5130 C   0  0  0  0  0  0  0  0  0  0  0  0
   37.5430   29.2590   42.8520 C   0  0  0  0  0  0  0  0  0  0  0  0
   37.2850   28.1970   43.6800 C   0  0  0  0  0  0  0  0  0  0  0  0
   37.2910   26.9780   43.0850 N   0  0  0  0  0  0  0  0  0  0  0  0
   37.5390   26.8640   41.7700 C   0  0  0  0  0  0  0  0  0  0  0  0
   37.7930   27.9180   40.9610 N   0  0  0  0  0  0  0  0  0  0  0  0
   37.5490   30.2540   43.2790 H   0  0  0  0  0  0  0  0  0  0  0  0
   37.0950   28.3460   44.7200 H   0  0  0  0  0  0  0  0  0  0  0  0
   37.5430   25.5290   41.1380 C   0  0  0  0  0  0  0  0  0  0  0  0
   36.6000   25.2340   40.1720 C   0  0  0  0  0  0  0  0  0  0  0  0
   36.5150   24.0150   39.5190 C   0  0  0  0  0  0  0  0  0  0  0  0
   37.4450   23.0530   39.8730 C   0  0  0  0  0  0  0  0  0  0  0  0
   38.3720   23.3420   40.8200 C   0  0  0  0  0  0  0  0  0  0  0  0
   38.4470   24.5550   41.4640 C   0  0  0  0  0  0  0  0  0  0  0  0
   35.8620   25.9840   39.8840 H   0  0  0  0  0  0  0  0  0  0  0  0
   35.7480   23.8580   38.7720 H   0  0  0  0  0  0  0  0  0  0  0  0
   37.3690   22.1060   39.3550 H   0  0  0  0  0  0  0  0  0  0  0  0
   39.0960   22.5740   41.0880 H   0  0  0  0  0  0  0  0  0  0  0  0
   39.3770   24.8780   42.4320 O   0  0  0  0  0  0  0  0  0  0  0  0
   40.9980   26.9280   42.3870 O   0  0  0  0  0  0  0  0  0  0  0  0
   40.9540   25.4180   42.1510 P   0  0  0  0  0  0  0  0  0  0  0  0
   42.1210   24.6530   43.0560 O   0  0  0  0  0  0  0  0  0  0  0  0
   42.7200   24.0540   42.5620 H   0  0  0  0  0  0  0  0  0  0  0  0
   41.3210   25.1790   40.5120 O   0  0  0  0  0  0  0  0  0  0  0  0
   40.9810   25.8980   39.9450 H   0  0  0  0  0  0  0  0  0  0  0  0
   37.3500   32.3460   39.7780 C   0  0  0  0  0  0  0  0  0  0  0  0
   38.5880   32.4980   39.1470 C   0  0  0  0  0  0  0  0  0  0  0  0
   39.5650   31.5320   39.3050 C   0  0  0  0  0  0  0  0  0  0  0  0
   39.2550   30.4520   40.0930 N   0  0  0  0  0  0  0  0  0  0  0  0
   38.0620   30.3150   40.6940 C   0  0  0  0  0  0  0  0  0  0  0  0
   37.1300   31.2610   40.5290 N   0  0  0  0  0  0  0  0  0  0  0  0
   36.5950   33.0950   39.6550 H   0  0  0  0  0  0  0  0  0  0  0  0
   38.8070   33.3570   38.5330 H   0  0  0  0  0  0  0  0  0  0  0  0
   40.8990   31.6210   38.6710 C   0  0  0  0  0  0  0  0  0  0  0  0
   42.0000   32.1500   39.3600 C   0  0  0  0  0  0  0  0  0  0  0  0
   42.0230   32.5290   40.3550 H   0  0  0  0  0  0  0  0  0  0  0  0
   43.3440   32.0180   38.1270 S   0  0  0  0  0  0  0  0  0  0  0  0
   42.1510   31.2500   36.8610 C   0  0  0  0  0  0  0  0  0  0  0  0
   42.2910   30.8770   35.7780 H   0  0  0  0  0  0  0  0  0  0  0  0
   41.1570   31.2190   37.4280 N   0  0  0  0  0  0  0  0  0  0  0  0
  1  2  1  0  0  0  0
  2  7  1  0  0  0  0
  2  3  2  0  0  0  0
  3  8  1  0  0  0  0
  4  3  1  0  0  0  0
  5  4  2  0  0  0  0
  6  1  2  0  0  0  0
  6  5  1  0  0  0  0
  9 14  1  0  0  0  0
  9  5  1  0  0  0  0
 10  9  2  0  0  0  0
 11 12  2  0  0  0  0
 11 10  1  0  0  0  0
 12 13  1  0  0  0  0
 13 18  1  0  0  0  0
 13 14  2  0  0  0  0
 14 19  1  0  0  0  0
 15 10  1  0  0  0  0
 16 11  1  0  0  0  0
 17 12  1  0  0  0  0
 21 20  2  0  0  0  0
 21 19  1  0  0  0  0
 21 22  1  0  0  0  0
 23 22  1  0  0  0  0
 24 21  1  0  0  0  0
 25 24  1  0  0  0  0
 26 31  1  0  0  0  0
 27 28  1  0  0  0  0
 27 26  2  0  0  0  0
 28 29  2  0  0  0  0
 29 30  1  0  0  0  0
 30  1  1  0  0  0  0
 31 30  2  0  0  0  0
 32 26  1  0  0  0  0
 33 27  1  0  0  0  0
 34 28  1  0  0  0  0
 34 35  2  0  0  0  0
 35 36  1  0  0  0  0
 37 35  1  0  0  0  0
 38 40  2  0  0  0  0
 38 37  1  0  0  0  0
 39 38  1  0  0  0  0
 40 34  1  0  0  0  0
M  END
>  <minimizedAffinity>
-5.82172441

$$$$
