
 OpenBabel03252508393D

 39 42  0  0  0  0  0  0  0  0999 V2000
   45.1780   33.9750   40.7370 C   0  0  0  0  0  0  0  0  0  0  0  0
   44.1140   33.6630   39.9280 C   0  0  0  0  0  0  0  0  0  0  0  0
   44.3960   33.1660   38.6880 C   0  0  0  0  0  0  0  0  0  0  0  0
   45.6690   32.9640   38.2200 C   0  0  0  0  0  0  0  0  0  0  0  0
   46.7060   33.2860   39.0550 C   0  0  0  0  0  0  0  0  0  0  0  0
   46.4870   33.7900   40.3090 C   0  0  0  0  0  0  0  0  0  0  0  0
   43.5620   32.9160   38.0410 H   0  0  0  0  0  0  0  0  0  0  0  0
   45.8650   32.5700   37.2380 H   0  0  0  0  0  0  0  0  0  0  0  0
   47.7140   33.1290   38.6880 H   0  0  0  0  0  0  0  0  0  0  0  0
   40.9280   35.3710   41.0360 C   0  0  0  0  0  0  0  0  0  0  0  0
   42.2240   35.1880   40.5090 C   0  0  0  0  0  0  0  0  0  0  0  0
   42.7860   33.8920   40.4620 C   0  0  0  0  0  0  0  0  0  0  0  0
   42.0010   32.9060   40.9480 N   0  0  0  0  0  0  0  0  0  0  0  0
   40.7760   33.1090   41.4410 C   0  0  0  0  0  0  0  0  0  0  0  0
   40.2460   34.3300   41.4850 N   0  0  0  0  0  0  0  0  0  0  0  0
   40.4230   36.6960   41.0530 N   0  0  0  0  0  0  0  0  0  0  0  0
   42.8150   35.9960   40.1350 H   0  0  0  0  0  0  0  0  0  0  0  0
   40.3010   32.2090   41.7800 H   0  0  0  0  0  0  0  0  0  0  0  0
   40.6600   37.3940   40.3110 H   0  0  0  0  0  0  0  0  0  0  0  0
   39.7970   36.9030   41.8710 H   0  0  0  0  0  0  0  0  0  0  0  0
   47.6460   34.0990   41.1170 C   0  0  0  0  0  0  0  0  0  0  0  0
   48.1620   35.3620   40.9680 C   0  0  0  0  0  0  0  0  0  0  0  0
   49.2760   35.8440   41.6620 C   0  0  0  0  0  0  0  0  0  0  0  0
   49.8870   34.9830   42.5490 C   0  0  0  0  0  0  0  0  0  0  0  0
   49.3940   33.7160   42.7170 C   0  0  0  0  0  0  0  0  0  0  0  0
   48.2880   33.2730   42.0130 C   0  0  0  0  0  0  0  0  0  0  0  0
   47.7240   36.0850   40.2850 H   0  0  0  0  0  0  0  0  0  0  0  0
   49.6520   36.8470   41.5170 H   0  0  0  0  0  0  0  0  0  0  0  0
   50.7550   35.2640   43.1300 H   0  0  0  0  0  0  0  0  0  0  0  0
   49.7970   32.9560   43.3890 H   0  0  0  0  0  0  0  0  0  0  0  0
   47.7160   31.9130   42.1580 C   0  0  0  0  0  0  0  0  0  0  0  0
   46.8610   31.5820   43.1230 C   0  0  0  0  0  0  0  0  0  0  0  0
   46.3970   32.1000   43.9510 H   0  0  0  0  0  0  0  0  0  0  0  0
   46.5410   29.8220   42.7670 S   0  0  0  0  0  0  0  0  0  0  0  0
   47.7140   29.8690   41.2650 C   0  0  0  0  0  0  0  0  0  0  0  0
   47.9000   28.9980   40.6410 H   0  0  0  0  0  0  0  0  0  0  0  0
   48.0280   30.9430   41.3280 N   0  0  0  0  0  0  0  0  0  0  0  0
   44.8000   34.9320   43.1380 N   0  0  0  0  0  0  0  0  0  0  0  0
   44.9660   34.5090   42.0640 C   0  0  0  0  0  0  0  0  0  0  0  0
  1 39  1  0  0  0  0
  2 12  1  0  0  0  0
  2  1  2  0  0  0  0
  3  2  1  0  0  0  0
  4  3  2  0  0  0  0
  4  5  1  0  0  0  0
  5  6  2  0  0  0  0
  6  1  1  0  0  0  0
  6 21  1  0  0  0  0
  7  3  1  0  0  0  0
  8  4  1  0  0  0  0
  9  5  1  0  0  0  0
 10 16  1  0  0  0  0
 10 15  1  0  0  0  0
 11 10  2  0  0  0  0
 12 11  1  0  0  0  0
 12 13  2  0  0  0  0
 13 14  1  0  0  0  0
 14 15  2  0  0  0  0
 14 18  1  0  0  0  0
 16 20  1  0  0  0  0
 17 11  1  0  0  0  0
 19 16  1  0  0  0  0
 21 26  1  0  0  0  0
 22 21  2  0  0  0  0
 22 23  1  0  0  0  0
 23 24  2  0  0  0  0
 24 25  1  0  0  0  0
 24 29  1  0  0  0  0
 25 30  1  0  0  0  0
 26 31  1  0  0  0  0
 26 25  2  0  0  0  0
 27 22  1  0  0  0  0
 28 23  1  0  0  0  0
 31 32  2  0  0  0  0
 32 33  1  0  0  0  0
 34 32  1  0  0  0  0
 35 37  2  0  0  0  0
 35 34  1  0  0  0  0
 36 35  1  0  0  0  0
 37 31  1  0  0  0  0
 39 38  3  0  0  0  0
M  END
>  <minimizedAffinity>
-5.89983082

>  <minimizedRMSD>
0.55449152

$$$$
