
 OpenBabel03242514303D

 36 39  0  0  0  0  0  0  0  0999 V2000
   48.8060   35.4120   40.9890 C   0  0  0  0  0  0  0  0  0  0  0  0
   48.2500   34.8550   39.8270 C   0  0  0  0  0  0  0  0  0  0  0  0
   47.2060   33.9460   39.9570 C   0  0  0  0  0  0  0  0  0  0  0  0
   46.7810   33.6580   41.1980 N   0  0  0  0  0  0  0  0  0  0  0  0
   47.3090   34.1950   42.3100 C   0  0  0  0  0  0  0  0  0  0  0  0
   48.3270   35.0730   42.2090 N   0  0  0  0  0  0  0  0  0  0  0  0
   49.6190   36.1210   41.0470 H   0  0  0  0  0  0  0  0  0  0  0  0
   48.7410   35.2910   39.0210 H   0  0  0  0  0  0  0  0  0  0  0  0
   45.0530   36.0020   43.3030 Cl  0  0  0  0  0  0  0  0  0  0  0  0
   45.7460   34.6550   44.1760 C   0  0  0  0  0  0  0  0  0  0  0  0
   46.7750   33.8980   43.6220 C   0  0  0  0  0  0  0  0  0  0  0  0
   47.2330   32.8780   44.3880 C   0  0  0  0  0  0  0  0  0  0  0  0
   46.7420   32.5670   45.6470 C   0  0  0  0  0  0  0  0  0  0  0  0
   45.7280   33.3280   46.1680 C   0  0  0  0  0  0  0  0  0  0  0  0
   45.1990   32.8410   47.7650 Cl  0  0  0  0  0  0  0  0  0  0  0  0
   45.2330   34.3650   45.4380 C   0  0  0  0  0  0  0  0  0  0  0  0
   48.0370   32.2780   43.9710 H   0  0  0  0  0  0  0  0  0  0  0  0
   47.1980   31.7240   46.1510 H   0  0  0  0  0  0  0  0  0  0  0  0
   44.4390   34.9320   45.8900 H   0  0  0  0  0  0  0  0  0  0  0  0
   49.1360   32.9080   37.9190 Cl  0  0  0  0  0  0  0  0  0  0  0  0
   47.3880   32.8900   37.7630 C   0  0  0  0  0  0  0  0  0  0  0  0
   46.6320   33.3140   38.7980 C   0  0  0  0  0  0  0  0  0  0  0  0
   45.2730   33.1140   38.6210 C   0  0  0  0  0  0  0  0  0  0  0  0
   44.6840   32.5470   37.5120 C   0  0  0  0  0  0  0  0  0  0  0  0
   45.4970   32.1370   36.4810 C   0  0  0  0  0  0  0  0  0  0  0  0
   46.8680   32.3160   36.6170 C   0  0  0  0  0  0  0  0  0  0  0  0
   44.6380   33.4500   39.4580 H   0  0  0  0  0  0  0  0  0  0  0  0
   43.6150   32.4670   37.5380 H   0  0  0  0  0  0  0  0  0  0  0  0
   45.0590   31.6980   35.6090 H   0  0  0  0  0  0  0  0  0  0  0  0
   47.7830   31.8890   35.5290 C   0  0  0  0  0  0  0  0  0  0  0  0
   48.1500   30.5520   35.4050 C   0  0  0  0  0  0  0  0  0  0  0  0
   47.9120   29.6310   35.9630 H   0  0  0  0  0  0  0  0  0  0  0  0
   49.2720   30.5240   33.9370 S   0  0  0  0  0  0  0  0  0  0  0  0
   49.0360   32.3980   33.7480 C   0  0  0  0  0  0  0  0  0  0  0  0
   49.3740   33.3690   33.0440 H   0  0  0  0  0  0  0  0  0  0  0  0
   48.3420   32.6320   34.5970 N   0  0  0  0  0  0  0  0  0  0  0  0
  1  7  1  0  0  0  0
  1  6  1  0  0  0  0
  2  3  1  0  0  0  0
  2  1  2  0  0  0  0
  3  4  2  0  0  0  0
  4  5  1  0  0  0  0
  5 11  1  0  0  0  0
  6  5  2  0  0  0  0
  8  2  1  0  0  0  0
  9 10  1  0  0  0  0
 10 16  1  0  0  0  0
 11 10  2  0  0  0  0
 11 12  1  0  0  0  0
 12 13  2  0  0  0  0
 13 18  1  0  0  0  0
 13 14  1  0  0  0  0
 14 15  1  0  0  0  0
 16 19  1  0  0  0  0
 16 14  2  0  0  0  0
 17 12  1  0  0  0  0
 21 20  1  0  0  0  0
 21 22  1  0  0  0  0
 22  3  1  0  0  0  0
 23 22  2  0  0  0  0
 23 27  1  0  0  0  0
 24 28  1  0  0  0  0
 24 23  1  0  0  0  0
 25 26  1  0  0  0  0
 25 24  2  0  0  0  0
 26 21  2  0  0  0  0
 29 25  1  0  0  0  0
 30 26  1  0  0  0  0
 31 30  2  0  0  0  0
 31 32  1  0  0  0  0
 33 31  1  0  0  0  0
 34 33  1  0  0  0  0
 34 36  2  0  0  0  0
 35 34  1  0  0  0  0
 36 30  1  0  0  0  0
M  END
>  <minimizedAffinity>
-6.20448732

>  <minimizedRMSD>
1.14361489

$$$$
