
 OpenBabel03242514313D

 36 39  0  0  0  0  0  0  0  0999 V2000
   37.3460   27.8800   43.7630 C   0  0  0  0  0  0  0  0  0  0  0  0
   37.0930   28.7820   42.7190 C   0  0  0  0  0  0  0  0  0  0  0  0
   38.1300   29.1100   41.8540 C   0  0  0  0  0  0  0  0  0  0  0  0
   39.3240   28.5330   42.0650 N   0  0  0  0  0  0  0  0  0  0  0  0
   39.5660   27.6650   43.0620 C   0  0  0  0  0  0  0  0  0  0  0  0
   38.5770   27.3380   43.9170 N   0  0  0  0  0  0  0  0  0  0  0  0
   36.6480   27.5370   44.5130 H   0  0  0  0  0  0  0  0  0  0  0  0
   36.0830   29.0260   42.7730 H   0  0  0  0  0  0  0  0  0  0  0  0
   39.9340   24.9960   41.6180 Cl  0  0  0  0  0  0  0  0  0  0  0  0
   41.1350   25.8050   42.5990 C   0  0  0  0  0  0  0  0  0  0  0  0
   40.8540   27.0240   43.2110 C   0  0  0  0  0  0  0  0  0  0  0  0
   41.8610   27.5580   43.9460 C   0  0  0  0  0  0  0  0  0  0  0  0
   43.1060   26.9700   44.1070 C   0  0  0  0  0  0  0  0  0  0  0  0
   43.3550   25.7700   43.4920 C   0  0  0  0  0  0  0  0  0  0  0  0
   44.9600   25.1260   43.7760 Cl  0  0  0  0  0  0  0  0  0  0  0  0
   42.3770   25.1910   42.7430 C   0  0  0  0  0  0  0  0  0  0  0  0
   41.6590   28.5090   44.4310 H   0  0  0  0  0  0  0  0  0  0  0  0
   43.8200   27.5050   44.7200 H   0  0  0  0  0  0  0  0  0  0  0  0
   42.6210   24.2510   42.2820 H   0  0  0  0  0  0  0  0  0  0  0  0
   39.8310   31.5710   41.9460 Cl  0  0  0  0  0  0  0  0  0  0  0  0
   38.5660   31.2550   40.7710 C   0  0  0  0  0  0  0  0  0  0  0  0
   37.9310   30.0630   40.7930 C   0  0  0  0  0  0  0  0  0  0  0  0
   37.0630   29.8690   39.7330 C   0  0  0  0  0  0  0  0  0  0  0  0
   36.8190   30.7700   38.7200 C   0  0  0  0  0  0  0  0  0  0  0  0
   37.4850   31.9740   38.7460 C   0  0  0  0  0  0  0  0  0  0  0  0
   38.3700   32.2100   39.7910 C   0  0  0  0  0  0  0  0  0  0  0  0
   36.5380   28.8990   39.7300 H   0  0  0  0  0  0  0  0  0  0  0  0
   36.1140   30.4590   37.9740 H   0  0  0  0  0  0  0  0  0  0  0  0
   37.3080   32.6900   37.9710 H   0  0  0  0  0  0  0  0  0  0  0  0
   39.1090   33.4950   39.8600 C   0  0  0  0  0  0  0  0  0  0  0  0
   40.3910   33.5970   39.3270 C   0  0  0  0  0  0  0  0  0  0  0  0
   41.0720   32.8960   38.8130 H   0  0  0  0  0  0  0  0  0  0  0  0
   40.8800   35.3490   39.6490 S   0  0  0  0  0  0  0  0  0  0  0  0
   39.1980   35.6420   40.4800 C   0  0  0  0  0  0  0  0  0  0  0  0
   38.5180   36.5180   41.0480 H   0  0  0  0  0  0  0  0  0  0  0  0
   38.7130   34.6360   40.3840 N   0  0  0  0  0  0  0  0  0  0  0  0
  1  6  1  0  0  0  0
  1  7  1  0  0  0  0
  2  8  1  0  0  0  0
  2  1  2  0  0  0  0
  3  4  2  0  0  0  0
  3  2  1  0  0  0  0
  4  5  1  0  0  0  0
  5 11  1  0  0  0  0
  5  6  2  0  0  0  0
  9 10  1  0  0  0  0
 10 16  2  0  0  0  0
 10 11  1  0  0  0  0
 11 12  2  0  0  0  0
 12 13  1  0  0  0  0
 12 17  1  0  0  0  0
 13 18  1  0  0  0  0
 14 15  1  0  0  0  0
 14 13  2  0  0  0  0
 16 14  1  0  0  0  0
 19 16  1  0  0  0  0
 21 22  1  0  0  0  0
 21 20  1  0  0  0  0
 22  3  1  0  0  0  0
 23 22  2  0  0  0  0
 24 25  2  0  0  0  0
 24 23  1  0  0  0  0
 25 26  1  0  0  0  0
 26 30  1  0  0  0  0
 26 21  2  0  0  0  0
 27 23  1  0  0  0  0
 28 24  1  0  0  0  0
 29 25  1  0  0  0  0
 30 36  1  0  0  0  0
 31 33  1  0  0  0  0
 31 30  2  0  0  0  0
 32 31  1  0  0  0  0
 33 34  1  0  0  0  0
 34 35  1  0  0  0  0
 36 34  2  0  0  0  0
M  END
>  <minimizedAffinity>
-6.46000481

$$$$

 OpenBabel03242514313D

 36 39  0  0  0  0  0  0  0  0999 V2000
   36.2190   31.1280   40.4840 C   0  0  0  0  0  0  0  0  0  0  0  0
   37.0460   32.2310   40.2210 C   0  0  0  0  0  0  0  0  0  0  0  0
   38.4000   32.1370   40.5210 C   0  0  0  0  0  0  0  0  0  0  0  0
   38.8440   30.9820   41.0430 N   0  0  0  0  0  0  0  0  0  0  0  0
   38.0540   29.9240   41.2910 C   0  0  0  0  0  0  0  0  0  0  0  0
   36.7370   29.9950   41.0140 N   0  0  0  0  0  0  0  0  0  0  0  0
   35.1550   31.0550   40.3120 H   0  0  0  0  0  0  0  0  0  0  0  0
   36.4440   32.9570   39.7810 H   0  0  0  0  0  0  0  0  0  0  0  0
   39.2840   28.0310   39.2290 Cl  0  0  0  0  0  0  0  0  0  0  0  0
   39.1750   27.7420   40.9500 C   0  0  0  0  0  0  0  0  0  0  0  0
   38.5920   28.6800   41.7970 C   0  0  0  0  0  0  0  0  0  0  0  0
   38.5650   28.3490   43.1120 C   0  0  0  0  0  0  0  0  0  0  0  0
   39.0720   27.1670   43.6290 C   0  0  0  0  0  0  0  0  0  0  0  0
   39.6420   26.2620   42.7730 C   0  0  0  0  0  0  0  0  0  0  0  0
   40.2410   24.8060   43.5440 Cl  0  0  0  0  0  0  0  0  0  0  0  0
   39.6940   26.5460   41.4420 C   0  0  0  0  0  0  0  0  0  0  0  0
   38.1120   29.0700   43.7870 H   0  0  0  0  0  0  0  0  0  0  0  0
   38.9860   27.0300   44.7000 H   0  0  0  0  0  0  0  0  0  0  0  0
   40.1500   25.8040   40.8120 H   0  0  0  0  0  0  0  0  0  0  0  0
   41.0420   31.5240   39.2560 Cl  0  0  0  0  0  0  0  0  0  0  0  0
   40.5360   33.1020   39.8350 C   0  0  0  0  0  0  0  0  0  0  0  0
   39.2810   33.2560   40.3090 C   0  0  0  0  0  0  0  0  0  0  0  0
   38.9450   34.5680   40.5960 C   0  0  0  0  0  0  0  0  0  0  0  0
   39.7720   35.6590   40.4410 C   0  0  0  0  0  0  0  0  0  0  0  0
   41.0440   35.4490   39.9620 C   0  0  0  0  0  0  0  0  0  0  0  0
   41.4220   34.1480   39.6580 C   0  0  0  0  0  0  0  0  0  0  0  0
   37.9210   34.7160   40.9790 H   0  0  0  0  0  0  0  0  0  0  0  0
   39.3520   36.6080   40.7120 H   0  0  0  0  0  0  0  0  0  0  0  0
   41.7030   36.2830   39.8380 H   0  0  0  0  0  0  0  0  0  0  0  0
   42.7860   33.8740   39.1390 C   0  0  0  0  0  0  0  0  0  0  0  0
   43.0580   34.0010   37.7800 C   0  0  0  0  0  0  0  0  0  0  0  0
   42.4610   34.2820   36.8950 H   0  0  0  0  0  0  0  0  0  0  0  0
   44.8480   33.5650   37.6320 S   0  0  0  0  0  0  0  0  0  0  0  0
   44.9090   33.2770   39.5080 C   0  0  0  0  0  0  0  0  0  0  0  0
   45.6790   32.9470   40.4300 H   0  0  0  0  0  0  0  0  0  0  0  0
   43.8540   33.5030   39.8120 N   0  0  0  0  0  0  0  0  0  0  0  0
  1  6  1  0  0  0  0
  2  1  2  0  0  0  0
  2  3  1  0  0  0  0
  3  4  2  0  0  0  0
  4  5  1  0  0  0  0
  5 11  1  0  0  0  0
  6  5  2  0  0  0  0
  7  1  1  0  0  0  0
  8  2  1  0  0  0  0
  9 10  1  0  0  0  0
 10 16  2  0  0  0  0
 10 11  1  0  0  0  0
 11 12  2  0  0  0  0
 12 13  1  0  0  0  0
 12 17  1  0  0  0  0
 13 18  1  0  0  0  0
 14 15  1  0  0  0  0
 14 13  2  0  0  0  0
 16 14  1  0  0  0  0
 19 16  1  0  0  0  0
 20 21  1  0  0  0  0
 21 22  1  0  0  0  0
 22  3  1  0  0  0  0
 22 23  2  0  0  0  0
 23 27  1  0  0  0  0
 24 23  1  0  0  0  0
 24 28  1  0  0  0  0
 25 24  2  0  0  0  0
 26 21  2  0  0  0  0
 26 25  1  0  0  0  0
 29 25  1  0  0  0  0
 30 26  1  0  0  0  0
 30 36  1  0  0  0  0
 31 30  2  0  0  0  0
 32 31  1  0  0  0  0
 33 31  1  0  0  0  0
 33 34  1  0  0  0  0
 34 36  2  0  0  0  0
 34 35  1  0  0  0  0
M  END
>  <minimizedAffinity>
-6.32126045

$$$$

 OpenBabel03242514313D

 36 39  0  0  0  0  0  0  0  0999 V2000
   35.7530   29.7000   37.8800 C   0  0  0  0  0  0  0  0  0  0  0  0
   35.7950   28.5890   38.7360 C   0  0  0  0  0  0  0  0  0  0  0  0
   36.7000   28.5920   39.7910 C   0  0  0  0  0  0  0  0  0  0  0  0
   37.4840   29.6730   39.9360 N   0  0  0  0  0  0  0  0  0  0  0  0
   37.4410   30.7400   39.1200 C   0  0  0  0  0  0  0  0  0  0  0  0
   36.5760   30.7550   38.0870 N   0  0  0  0  0  0  0  0  0  0  0  0
   35.1140   29.8380   37.0210 H   0  0  0  0  0  0  0  0  0  0  0  0
   35.0540   27.9350   38.4120 H   0  0  0  0  0  0  0  0  0  0  0  0
   40.3730   30.5300   38.2800 Cl  0  0  0  0  0  0  0  0  0  0  0  0
   39.6130   31.9250   39.0140 C   0  0  0  0  0  0  0  0  0  0  0  0
   38.2640   31.9060   39.3560 C   0  0  0  0  0  0  0  0  0  0  0  0
   37.7840   33.0440   39.9160 C   0  0  0  0  0  0  0  0  0  0  0  0
   38.5460   34.1780   40.1530 C   0  0  0  0  0  0  0  0  0  0  0  0
   39.8710   34.1690   39.8060 C   0  0  0  0  0  0  0  0  0  0  0  0
   40.7280   35.6560   40.1610 Cl  0  0  0  0  0  0  0  0  0  0  0  0
   40.4030   33.0500   39.2410 C   0  0  0  0  0  0  0  0  0  0  0  0
   36.7320   33.0460   40.1890 H   0  0  0  0  0  0  0  0  0  0  0  0
   38.0350   35.0190   40.6060 H   0  0  0  0  0  0  0  0  0  0  0  0
   41.4460   33.0920   38.9860 H   0  0  0  0  0  0  0  0  0  0  0  0
   37.2910   25.9620   38.4930 Cl  0  0  0  0  0  0  0  0  0  0  0  0
   36.9800   26.2020   40.2030 C   0  0  0  0  0  0  0  0  0  0  0  0
   36.8110   27.4580   40.6700 C   0  0  0  0  0  0  0  0  0  0  0  0
   36.7220   27.5380   42.0490 C   0  0  0  0  0  0  0  0  0  0  0  0
   36.7870   26.4720   42.9200 C   0  0  0  0  0  0  0  0  0  0  0  0
   36.9530   25.2120   42.3950 C   0  0  0  0  0  0  0  0  0  0  0  0
   37.0500   25.0850   41.0150 C   0  0  0  0  0  0  0  0  0  0  0  0
   36.5880   28.5570   42.4510 H   0  0  0  0  0  0  0  0  0  0  0  0
   36.7000   26.7120   43.9620 H   0  0  0  0  0  0  0  0  0  0  0  0
   37.0020   24.3700   43.0540 H   0  0  0  0  0  0  0  0  0  0  0  0
   37.2290   23.7440   40.4050 C   0  0  0  0  0  0  0  0  0  0  0  0
   38.4560   23.0920   40.4910 C   0  0  0  0  0  0  0  0  0  0  0  0
   39.4320   23.3390   40.9420 H   0  0  0  0  0  0  0  0  0  0  0  0
   38.1850   21.4950   39.6020 S   0  0  0  0  0  0  0  0  0  0  0  0
   36.3910   22.0150   39.2590 C   0  0  0  0  0  0  0  0  0  0  0  0
   35.3400   21.6300   38.7130 H   0  0  0  0  0  0  0  0  0  0  0  0
   36.3450   23.0240   39.7480 N   0  0  0  0  0  0  0  0  0  0  0  0
  1  6  2  0  0  0  0
  1  2  1  0  0  0  0
  2  3  2  0  0  0  0
  3  4  1  0  0  0  0
  3 22  1  0  0  0  0
  5 11  1  0  0  0  0
  5  4  2  0  0  0  0
  6  5  1  0  0  0  0
  7  1  1  0  0  0  0
  8  2  1  0  0  0  0
  9 10  1  0  0  0  0
 10 16  2  0  0  0  0
 10 11  1  0  0  0  0
 11 12  2  0  0  0  0
 12 13  1  0  0  0  0
 12 17  1  0  0  0  0
 13 18  1  0  0  0  0
 14 13  2  0  0  0  0
 14 15  1  0  0  0  0
 16 14  1  0  0  0  0
 19 16  1  0  0  0  0
 20 21  1  0  0  0  0
 21 22  2  0  0  0  0
 21 26  1  0  0  0  0
 22 23  1  0  0  0  0
 23 27  1  0  0  0  0
 23 24  2  0  0  0  0
 24 28  1  0  0  0  0
 25 24  1  0  0  0  0
 25 29  1  0  0  0  0
 26 25  2  0  0  0  0
 30 31  2  0  0  0  0
 30 26  1  0  0  0  0
 31 32  1  0  0  0  0
 33 31  1  0  0  0  0
 34 33  1  0  0  0  0
 34 36  2  0  0  0  0
 35 34  1  0  0  0  0
 36 30  1  0  0  0  0
M  END
>  <minimizedAffinity>
-6.16821861

$$$$

 OpenBabel03242514313D

 36 39  0  0  0  0  0  0  0  0999 V2000
   36.6200   30.3320   38.6200 C   0  0  0  0  0  0  0  0  0  0  0  0
   37.3010   31.5550   38.7160 C   0  0  0  0  0  0  0  0  0  0  0  0
   38.3770   31.6530   39.5910 C   0  0  0  0  0  0  0  0  0  0  0  0
   38.7100   30.5580   40.2940 N   0  0  0  0  0  0  0  0  0  0  0  0
   38.0610   29.3850   40.1990 C   0  0  0  0  0  0  0  0  0  0  0  0
   37.0110   29.2700   39.3620 N   0  0  0  0  0  0  0  0  0  0  0  0
   35.7680   30.1080   37.9950 H   0  0  0  0  0  0  0  0  0  0  0  0
   36.8570   32.1990   38.0310 H   0  0  0  0  0  0  0  0  0  0  0  0
   37.3250   29.2860   43.1640 Cl  0  0  0  0  0  0  0  0  0  0  0  0
   38.2190   28.0650   42.2880 C   0  0  0  0  0  0  0  0  0  0  0  0
   38.4980   28.2170   40.9330 C   0  0  0  0  0  0  0  0  0  0  0  0
   39.1960   27.2070   40.3580 C   0  0  0  0  0  0  0  0  0  0  0  0
   39.6260   26.0740   41.0330 C   0  0  0  0  0  0  0  0  0  0  0  0
   39.3380   25.9500   42.3670 C   0  0  0  0  0  0  0  0  0  0  0  0
   39.9400   24.4810   43.1090 Cl  0  0  0  0  0  0  0  0  0  0  0  0
   38.6400   26.9380   42.9920 C   0  0  0  0  0  0  0  0  0  0  0  0
   39.4220   27.3100   39.3010 H   0  0  0  0  0  0  0  0  0  0  0  0
   40.1740   25.3430   40.4530 H   0  0  0  0  0  0  0  0  0  0  0  0
   38.4380   26.7940   44.0380 H   0  0  0  0  0  0  0  0  0  0  0  0
   41.3040   31.6140   38.9700 Cl  0  0  0  0  0  0  0  0  0  0  0  0
   40.4190   32.9920   39.6010 C   0  0  0  0  0  0  0  0  0  0  0  0
   39.0810   32.8980   39.7570 C   0  0  0  0  0  0  0  0  0  0  0  0
   38.4710   34.0870   40.1170 C   0  0  0  0  0  0  0  0  0  0  0  0
   39.1150   35.2880   40.3200 C   0  0  0  0  0  0  0  0  0  0  0  0
   40.4800   35.3320   40.1570 C   0  0  0  0  0  0  0  0  0  0  0  0
   41.1330   34.1600   39.7920 C   0  0  0  0  0  0  0  0  0  0  0  0
   37.3770   34.0320   40.2450 H   0  0  0  0  0  0  0  0  0  0  0  0
   38.4900   36.1150   40.5970 H   0  0  0  0  0  0  0  0  0  0  0  0
   41.0000   36.2530   40.3130 H   0  0  0  0  0  0  0  0  0  0  0  0
   42.6050   34.1600   39.6050 C   0  0  0  0  0  0  0  0  0  0  0  0
   43.4530   34.1610   40.7090 C   0  0  0  0  0  0  0  0  0  0  0  0
   43.2990   34.1600   41.8010 H   0  0  0  0  0  0  0  0  0  0  0  0
   45.1500   34.1600   39.9780 S   0  0  0  0  0  0  0  0  0  0  0  0
   44.3790   34.1610   38.2430 C   0  0  0  0  0  0  0  0  0  0  0  0
   44.6740   34.1610   37.0320 H   0  0  0  0  0  0  0  0  0  0  0  0
   43.2830   34.1610   38.4760 N   0  0  0  0  0  0  0  0  0  0  0  0
  1  2  2  0  0  0  0
  1  6  1  0  0  0  0
  2  3  1  0  0  0  0
  3 22  1  0  0  0  0
  3  4  2  0  0  0  0
  5  4  1  0  0  0  0
  5 11  1  0  0  0  0
  6  5  2  0  0  0  0
  7  1  1  0  0  0  0
  8  2  1  0  0  0  0
 10 16  1  0  0  0  0
 10  9  1  0  0  0  0
 11 10  2  0  0  0  0
 12 11  1  0  0  0  0
 12 13  2  0  0  0  0
 13 14  1  0  0  0  0
 14 16  2  0  0  0  0
 14 15  1  0  0  0  0
 16 19  1  0  0  0  0
 17 12  1  0  0  0  0
 18 13  1  0  0  0  0
 20 21  1  0  0  0  0
 21 22  2  0  0  0  0
 21 26  1  0  0  0  0
 22 23  1  0  0  0  0
 23 27  1  0  0  0  0
 23 24  2  0  0  0  0
 24 28  1  0  0  0  0
 25 29  1  0  0  0  0
 25 24  1  0  0  0  0
 26 25  2  0  0  0  0
 30 26  1  0  0  0  0
 30 31  2  0  0  0  0
 31 32  1  0  0  0  0
 33 31  1  0  0  0  0
 34 36  2  0  0  0  0
 34 33  1  0  0  0  0
 35 34  1  0  0  0  0
 36 30  1  0  0  0  0
M  END
>  <minimizedAffinity>
-6.1585989

$$$$

 OpenBabel03242514313D

 36 39  0  0  0  0  0  0  0  0999 V2000
   35.8290   29.5840   40.9070 C   0  0  0  0  0  0  0  0  0  0  0  0
   36.3940   28.4050   41.4170 C   0  0  0  0  0  0  0  0  0  0  0  0
   37.7780   28.3070   41.4940 C   0  0  0  0  0  0  0  0  0  0  0  0
   38.5020   29.3590   41.0790 N   0  0  0  0  0  0  0  0  0  0  0  0
   37.9610   30.4910   40.5950 C   0  0  0  0  0  0  0  0  0  0  0  0
   36.6220   30.6050   40.5050 N   0  0  0  0  0  0  0  0  0  0  0  0
   34.7790   29.8020   40.7810 H   0  0  0  0  0  0  0  0  0  0  0  0
   35.6020   27.7910   41.6980 H   0  0  0  0  0  0  0  0  0  0  0  0
   39.5840   30.1970   38.0210 Cl  0  0  0  0  0  0  0  0  0  0  0  0
   39.5640   31.5990   39.0660 C   0  0  0  0  0  0  0  0  0  0  0  0
   38.7830   31.6210   40.2180 C   0  0  0  0  0  0  0  0  0  0  0  0
   38.8450   32.7600   40.9500 C   0  0  0  0  0  0  0  0  0  0  0  0
   39.6200   33.8600   40.6150 C   0  0  0  0  0  0  0  0  0  0  0  0
   40.3790   33.8120   39.4750 C   0  0  0  0  0  0  0  0  0  0  0  0
   41.3180   35.2580   39.1640 Cl  0  0  0  0  0  0  0  0  0  0  0  0
   40.3530   32.6890   38.7050 C   0  0  0  0  0  0  0  0  0  0  0  0
   38.2420   32.7940   41.8530 H   0  0  0  0  0  0  0  0  0  0  0  0
   39.5770   34.7080   41.2880 H   0  0  0  0  0  0  0  0  0  0  0  0
   40.9650   32.7010   37.8220 H   0  0  0  0  0  0  0  0  0  0  0  0
   40.4900   28.6200   42.7220 Cl  0  0  0  0  0  0  0  0  0  0  0  0
   39.6660   27.0930   42.4570 C   0  0  0  0  0  0  0  0  0  0  0  0
   38.4060   27.1020   41.9700 C   0  0  0  0  0  0  0  0  0  0  0  0
   37.8050   25.8550   41.9440 C   0  0  0  0  0  0  0  0  0  0  0  0
   38.3850   24.6760   42.3560 C   0  0  0  0  0  0  0  0  0  0  0  0
   39.6730   24.7180   42.8370 C   0  0  0  0  0  0  0  0  0  0  0  0
   40.3150   25.9490   42.8840 C   0  0  0  0  0  0  0  0  0  0  0  0
   36.7730   25.8420   41.5540 H   0  0  0  0  0  0  0  0  0  0  0  0
   37.7770   23.7970   42.2670 H   0  0  0  0  0  0  0  0  0  0  0  0
   40.1440   23.8130   43.1590 H   0  0  0  0  0  0  0  0  0  0  0  0
   41.7050   26.0420   43.3960 C   0  0  0  0  0  0  0  0  0  0  0  0
   42.7630   25.5310   42.6500 C   0  0  0  0  0  0  0  0  0  0  0  0
   42.8460   25.0230   41.6740 H   0  0  0  0  0  0  0  0  0  0  0  0
   44.2560   25.8770   43.6820 S   0  0  0  0  0  0  0  0  0  0  0  0
   43.1380   26.6800   44.9900 C   0  0  0  0  0  0  0  0  0  0  0  0
   43.1680   27.2440   46.1010 H   0  0  0  0  0  0  0  0  0  0  0  0
   42.1230   26.5680   44.5280 N   0  0  0  0  0  0  0  0  0  0  0  0
  1  2  1  0  0  0  0
  2  3  2  0  0  0  0
  2  8  1  0  0  0  0
  3 22  1  0  0  0  0
  4  3  1  0  0  0  0
  5  4  2  0  0  0  0
  6  5  1  0  0  0  0
  6  1  2  0  0  0  0
  7  1  1  0  0  0  0
  9 10  1  0  0  0  0
 10 11  1  0  0  0  0
 11  5  1  0  0  0  0
 11 12  2  0  0  0  0
 12 17  1  0  0  0  0
 13 12  1  0  0  0  0
 13 18  1  0  0  0  0
 14 13  2  0  0  0  0
 15 14  1  0  0  0  0
 16 10  2  0  0  0  0
 16 14  1  0  0  0  0
 19 16  1  0  0  0  0
 21 20  1  0  0  0  0
 21 26  1  0  0  0  0
 22 21  2  0  0  0  0
 23 22  1  0  0  0  0
 23 24  2  0  0  0  0
 24 25  1  0  0  0  0
 25 26  2  0  0  0  0
 25 29  1  0  0  0  0
 26 30  1  0  0  0  0
 27 23  1  0  0  0  0
 28 24  1  0  0  0  0
 30 36  1  0  0  0  0
 31 30  2  0  0  0  0
 31 33  1  0  0  0  0
 32 31  1  0  0  0  0
 33 34  1  0  0  0  0
 34 35  1  0  0  0  0
 36 34  2  0  0  0  0
M  END
>  <minimizedAffinity>
-6.07517433

$$$$

 OpenBabel03242514313D

 36 39  0  0  0  0  0  0  0  0999 V2000
   38.5450   29.7540   42.1750 C   0  0  0  0  0  0  0  0  0  0  0  0
   39.2120   30.9730   41.9820 C   0  0  0  0  0  0  0  0  0  0  0  0
   38.8930   31.7390   40.8650 C   0  0  0  0  0  0  0  0  0  0  0  0
   37.9510   31.2650   40.0340 N   0  0  0  0  0  0  0  0  0  0  0  0
   37.3080   30.1000   40.2210 C   0  0  0  0  0  0  0  0  0  0  0  0
   37.6060   29.3390   41.2930 N   0  0  0  0  0  0  0  0  0  0  0  0
   38.6880   29.0540   42.9850 H   0  0  0  0  0  0  0  0  0  0  0  0
   39.8440   31.1010   42.7970 H   0  0  0  0  0  0  0  0  0  0  0  0
   38.0750   29.7480   37.2830 Cl  0  0  0  0  0  0  0  0  0  0  0  0
   36.4910   29.4700   37.9700 C   0  0  0  0  0  0  0  0  0  0  0  0
   36.2570   29.6630   39.3280 C   0  0  0  0  0  0  0  0  0  0  0  0
   34.9920   29.4160   39.7490 C   0  0  0  0  0  0  0  0  0  0  0  0
   33.9630   28.9950   38.9190 C   0  0  0  0  0  0  0  0  0  0  0  0
   34.2220   28.8120   37.5860 C   0  0  0  0  0  0  0  0  0  0  0  0
   32.8420   28.2860   36.6420 Cl  0  0  0  0  0  0  0  0  0  0  0  0
   35.4770   29.0480   37.1130 C   0  0  0  0  0  0  0  0  0  0  0  0
   34.7920   29.5620   40.8060 H   0  0  0  0  0  0  0  0  0  0  0  0
   32.9990   28.8330   39.3860 H   0  0  0  0  0  0  0  0  0  0  0  0
   35.6290   28.8900   36.0610 H   0  0  0  0  0  0  0  0  0  0  0  0
   41.7270   31.5080   39.9320 Cl  0  0  0  0  0  0  0  0  0  0  0  0
   40.8880   33.0130   40.2660 C   0  0  0  0  0  0  0  0  0  0  0  0
   39.5800   32.9760   40.6000 C   0  0  0  0  0  0  0  0  0  0  0  0
   38.9880   34.2230   40.6930 C   0  0  0  0  0  0  0  0  0  0  0  0
   39.6200   35.4290   40.4810 C   0  0  0  0  0  0  0  0  0  0  0  0
   40.9550   35.4140   40.1500 C   0  0  0  0  0  0  0  0  0  0  0  0
   41.5900   34.1830   40.0430 C   0  0  0  0  0  0  0  0  0  0  0  0
   37.9180   34.2140   40.9600 H   0  0  0  0  0  0  0  0  0  0  0  0
   39.0110   36.3040   40.5950 H   0  0  0  0  0  0  0  0  0  0  0  0
   41.4660   36.3400   39.9860 H   0  0  0  0  0  0  0  0  0  0  0  0
   43.0290   34.1200   39.6880 C   0  0  0  0  0  0  0  0  0  0  0  0
   43.4240   34.1150   38.3530 C   0  0  0  0  0  0  0  0  0  0  0  0
   42.8880   34.1510   37.3900 H   0  0  0  0  0  0  0  0  0  0  0  0
   45.2680   34.0290   38.4250 S   0  0  0  0  0  0  0  0  0  0  0  0
   45.1720   34.0130   40.3210 C   0  0  0  0  0  0  0  0  0  0  0  0
   45.8820   33.9690   41.3440 H   0  0  0  0  0  0  0  0  0  0  0  0
   44.0660   34.0620   40.4980 N   0  0  0  0  0  0  0  0  0  0  0  0
  1  7  1  0  0  0  0
  2  1  1  0  0  0  0
  2  8  1  0  0  0  0
  3  2  2  0  0  0  0
  4  5  2  0  0  0  0
  4  3  1  0  0  0  0
  5  6  1  0  0  0  0
  6  1  2  0  0  0  0
  9 10  1  0  0  0  0
 10 11  1  0  0  0  0
 11 12  2  0  0  0  0
 11  5  1  0  0  0  0
 12 17  1  0  0  0  0
 13 18  1  0  0  0  0
 13 12  1  0  0  0  0
 14 13  2  0  0  0  0
 15 14  1  0  0  0  0
 16 14  1  0  0  0  0
 16 10  2  0  0  0  0
 19 16  1  0  0  0  0
 20 21  1  0  0  0  0
 21 22  1  0  0  0  0
 22 23  2  0  0  0  0
 22  3  1  0  0  0  0
 23 27  1  0  0  0  0
 24 28  1  0  0  0  0
 24 23  1  0  0  0  0
 25 24  2  0  0  0  0
 26 25  1  0  0  0  0
 26 21  2  0  0  0  0
 29 25  1  0  0  0  0
 30 26  1  0  0  0  0
 30 36  1  0  0  0  0
 31 33  1  0  0  0  0
 31 30  2  0  0  0  0
 32 31  1  0  0  0  0
 33 34  1  0  0  0  0
 34 36  2  0  0  0  0
 34 35  1  0  0  0  0
M  END
>  <minimizedAffinity>
-6.04488802

$$$$

 OpenBabel03242514313D

 36 39  0  0  0  0  0  0  0  0999 V2000
   36.4260   30.8470   41.1760 C   0  0  0  0  0  0  0  0  0  0  0  0
   36.8200   29.6140   41.7160 C   0  0  0  0  0  0  0  0  0  0  0  0
   38.1390   29.2050   41.5540 C   0  0  0  0  0  0  0  0  0  0  0  0
   38.9690   30.0270   40.8900 N   0  0  0  0  0  0  0  0  0  0  0  0
   38.5920   31.2100   40.3760 C   0  0  0  0  0  0  0  0  0  0  0  0
   37.3170   31.6230   40.5160 N   0  0  0  0  0  0  0  0  0  0  0  0
   35.4420   31.2910   41.2160 H   0  0  0  0  0  0  0  0  0  0  0  0
   35.9910   29.2230   42.2080 H   0  0  0  0  0  0  0  0  0  0  0  0
   39.6760   30.2720   37.6760 Cl  0  0  0  0  0  0  0  0  0  0  0  0
   40.0980   31.7620   38.4890 C   0  0  0  0  0  0  0  0  0  0  0  0
   39.5390   32.0870   39.7220 C   0  0  0  0  0  0  0  0  0  0  0  0
   39.9390   33.2670   40.2570 C   0  0  0  0  0  0  0  0  0  0  0  0
   40.8430   34.1290   39.6540 C   0  0  0  0  0  0  0  0  0  0  0  0
   41.3770   33.7850   38.4410 C   0  0  0  0  0  0  0  0  0  0  0  0
   42.5100   34.9510   37.7860 Cl  0  0  0  0  0  0  0  0  0  0  0  0
   41.0090   32.6090   37.8610 C   0  0  0  0  0  0  0  0  0  0  0  0
   39.5130   33.5350   41.2190 H   0  0  0  0  0  0  0  0  0  0  0  0
   41.0750   35.0410   40.1910 H   0  0  0  0  0  0  0  0  0  0  0  0
   41.4550   32.3840   36.9090 H   0  0  0  0  0  0  0  0  0  0  0  0
   37.8850   26.8880   39.6780 Cl  0  0  0  0  0  0  0  0  0  0  0  0
   38.4330   26.7900   41.3420 C   0  0  0  0  0  0  0  0  0  0  0  0
   38.5820   27.9290   42.0520 C   0  0  0  0  0  0  0  0  0  0  0  0
   39.1610   27.7450   43.2960 C   0  0  0  0  0  0  0  0  0  0  0  0
   39.5640   26.5370   43.8220 C   0  0  0  0  0  0  0  0  0  0  0  0
   39.3840   25.4040   43.0630 C   0  0  0  0  0  0  0  0  0  0  0  0
   38.8100   25.5430   41.8050 C   0  0  0  0  0  0  0  0  0  0  0  0
   39.2950   28.6640   43.8910 H   0  0  0  0  0  0  0  0  0  0  0  0
   39.9950   26.5720   44.8030 H   0  0  0  0  0  0  0  0  0  0  0  0
   39.6870   24.4550   43.4530 H   0  0  0  0  0  0  0  0  0  0  0  0
   38.5970   24.3480   40.9510 C   0  0  0  0  0  0  0  0  0  0  0  0
   37.4970   23.5210   41.1620 C   0  0  0  0  0  0  0  0  0  0  0  0
   36.6540   23.5250   41.8740 H   0  0  0  0  0  0  0  0  0  0  0  0
   37.6670   22.2030   39.8790 S   0  0  0  0  0  0  0  0  0  0  0  0
   39.2580   23.0370   39.2640 C   0  0  0  0  0  0  0  0  0  0  0  0
   40.1620   22.9310   38.4130 H   0  0  0  0  0  0  0  0  0  0  0  0
   39.3400   23.9160   39.9540 N   0  0  0  0  0  0  0  0  0  0  0  0
  1  7  1  0  0  0  0
  1  2  1  0  0  0  0
  2  8  1  0  0  0  0
  3  2  2  0  0  0  0
  3 22  1  0  0  0  0
  4  3  1  0  0  0  0
  5  6  1  0  0  0  0
  5  4  2  0  0  0  0
  6  1  2  0  0  0  0
  9 10  1  0  0  0  0
 10 11  1  0  0  0  0
 11 12  2  0  0  0  0
 11  5  1  0  0  0  0
 12 17  1  0  0  0  0
 13 18  1  0  0  0  0
 13 12  1  0  0  0  0
 14 13  2  0  0  0  0
 15 14  1  0  0  0  0
 16 14  1  0  0  0  0
 16 10  2  0  0  0  0
 19 16  1  0  0  0  0
 20 21  1  0  0  0  0
 21 26  2  0  0  0  0
 21 22  1  0  0  0  0
 22 23  2  0  0  0  0
 23 24  1  0  0  0  0
 23 27  1  0  0  0  0
 24 28  1  0  0  0  0
 25 29  1  0  0  0  0
 25 24  2  0  0  0  0
 26 25  1  0  0  0  0
 30 31  2  0  0  0  0
 30 26  1  0  0  0  0
 31 32  1  0  0  0  0
 33 31  1  0  0  0  0
 34 33  1  0  0  0  0
 34 36  2  0  0  0  0
 35 34  1  0  0  0  0
 36 30  1  0  0  0  0
M  END
>  <minimizedAffinity>
-6.0267086

$$$$

 OpenBabel03242514313D

 36 39  0  0  0  0  0  0  0  0999 V2000
   36.9760   31.8880   39.0460 C   0  0  0  0  0  0  0  0  0  0  0  0
   36.7860   30.8230   39.9400 C   0  0  0  0  0  0  0  0  0  0  0  0
   37.8940   30.2970   40.5950 C   0  0  0  0  0  0  0  0  0  0  0  0
   39.0910   30.8480   40.3370 N   0  0  0  0  0  0  0  0  0  0  0  0
   39.2730   31.8700   39.4840 C   0  0  0  0  0  0  0  0  0  0  0  0
   38.2140   32.3920   38.8330 N   0  0  0  0  0  0  0  0  0  0  0  0
   36.2200   32.3920   38.4630 H   0  0  0  0  0  0  0  0  0  0  0  0
   35.7630   30.6390   39.9740 H   0  0  0  0  0  0  0  0  0  0  0  0
   39.6650   34.6830   40.6160 Cl  0  0  0  0  0  0  0  0  0  0  0  0
   40.8670   33.7450   39.7580 C   0  0  0  0  0  0  0  0  0  0  0  0
   40.5750   32.4690   39.2870 C   0  0  0  0  0  0  0  0  0  0  0  0
   41.5840   31.8350   38.6390 C   0  0  0  0  0  0  0  0  0  0  0  0
   42.8420   32.3800   38.4350 C   0  0  0  0  0  0  0  0  0  0  0  0
   43.1030   33.6390   38.9100 C   0  0  0  0  0  0  0  0  0  0  0  0
   44.7240   34.2190   38.5850 Cl  0  0  0  0  0  0  0  0  0  0  0  0
   42.1230   34.3180   39.5680 C   0  0  0  0  0  0  0  0  0  0  0  0
   41.3720   30.8380   38.2640 H   0  0  0  0  0  0  0  0  0  0  0  0
   43.5570   31.7650   37.9010 H   0  0  0  0  0  0  0  0  0  0  0  0
   42.3770   35.3010   39.9220 H   0  0  0  0  0  0  0  0  0  0  0  0
   38.1100   27.5790   39.3610 Cl  0  0  0  0  0  0  0  0  0  0  0  0
   37.7390   27.9020   41.0460 C   0  0  0  0  0  0  0  0  0  0  0  0
   37.7570   29.1770   41.4900 C   0  0  0  0  0  0  0  0  0  0  0  0
   37.5980   29.2980   42.8600 C   0  0  0  0  0  0  0  0  0  0  0  0
   37.4290   28.2540   43.7430 C   0  0  0  0  0  0  0  0  0  0  0  0
   37.4110   26.9730   43.2410 C   0  0  0  0  0  0  0  0  0  0  0  0
   37.5690   26.8050   41.8700 C   0  0  0  0  0  0  0  0  0  0  0  0
   37.6140   30.3320   43.2430 H   0  0  0  0  0  0  0  0  0  0  0  0
   37.3200   28.5250   44.7750 H   0  0  0  0  0  0  0  0  0  0  0  0
   37.2770   26.1480   43.9080 H   0  0  0  0  0  0  0  0  0  0  0  0
   37.5560   25.4410   41.2850 C   0  0  0  0  0  0  0  0  0  0  0  0
   38.6900   24.6370   41.3530 C   0  0  0  0  0  0  0  0  0  0  0  0
   39.7020   24.7630   41.7740 H   0  0  0  0  0  0  0  0  0  0  0  0
   38.1900   23.0730   40.5060 S   0  0  0  0  0  0  0  0  0  0  0  0
   36.4700   23.8160   40.1980 C   0  0  0  0  0  0  0  0  0  0  0  0
   35.3620   23.5610   39.6880 H   0  0  0  0  0  0  0  0  0  0  0  0
   36.5680   24.8300   40.6660 N   0  0  0  0  0  0  0  0  0  0  0  0
  1  2  1  0  0  0  0
  2  8  1  0  0  0  0
  2  3  2  0  0  0  0
  3 22  1  0  0  0  0
  4  3  1  0  0  0  0
  5  4  2  0  0  0  0
  6  1  2  0  0  0  0
  6  5  1  0  0  0  0
  7  1  1  0  0  0  0
 10  9  1  0  0  0  0
 11  5  1  0  0  0  0
 11 10  2  0  0  0  0
 12 11  1  0  0  0  0
 13 12  2  0  0  0  0
 13 14  1  0  0  0  0
 14 16  2  0  0  0  0
 15 14  1  0  0  0  0
 16 10  1  0  0  0  0
 16 19  1  0  0  0  0
 17 12  1  0  0  0  0
 18 13  1  0  0  0  0
 20 21  1  0  0  0  0
 21 22  2  0  0  0  0
 21 26  1  0  0  0  0
 22 23  1  0  0  0  0
 23 27  1  0  0  0  0
 23 24  2  0  0  0  0
 24 28  1  0  0  0  0
 25 24  1  0  0  0  0
 25 29  1  0  0  0  0
 26 25  2  0  0  0  0
 30 31  2  0  0  0  0
 30 26  1  0  0  0  0
 31 32  1  0  0  0  0
 33 31  1  0  0  0  0
 34 33  1  0  0  0  0
 34 36  2  0  0  0  0
 35 34  1  0  0  0  0
 36 30  1  0  0  0  0
M  END
>  <minimizedAffinity>
-5.9964242

$$$$

 OpenBabel03242514313D

 36 39  0  0  0  0  0  0  0  0999 V2000
   37.4530   32.3470   39.8210 C   0  0  0  0  0  0  0  0  0  0  0  0
   37.3390   31.2900   40.7360 C   0  0  0  0  0  0  0  0  0  0  0  0
   38.4990   30.6880   41.2090 C   0  0  0  0  0  0  0  0  0  0  0  0
   39.6740   31.1640   40.7640 N   0  0  0  0  0  0  0  0  0  0  0  0
   39.7840   32.1800   39.8910 C   0  0  0  0  0  0  0  0  0  0  0  0
   38.6720   32.7730   39.4150 N   0  0  0  0  0  0  0  0  0  0  0  0
   36.6480   32.9040   39.3640 H   0  0  0  0  0  0  0  0  0  0  0  0
   36.3240   31.1710   40.9310 H   0  0  0  0  0  0  0  0  0  0  0  0
   41.0790   30.8620   37.4570 Cl  0  0  0  0  0  0  0  0  0  0  0  0
   41.7580   32.1720   38.3960 C   0  0  0  0  0  0  0  0  0  0  0  0
   41.0740   32.6960   39.4890 C   0  0  0  0  0  0  0  0  0  0  0  0
   41.6950   33.7100   40.1410 C   0  0  0  0  0  0  0  0  0  0  0  0
   42.9300   34.2280   39.7800 C   0  0  0  0  0  0  0  0  0  0  0  0
   43.5810   33.6940   38.6980 C   0  0  0  0  0  0  0  0  0  0  0  0
   45.1330   34.4270   38.3470 Cl  0  0  0  0  0  0  0  0  0  0  0  0
   43.0000   32.6730   38.0100 C   0  0  0  0  0  0  0  0  0  0  0  0
   41.1760   34.1300   40.9970 H   0  0  0  0  0  0  0  0  0  0  0  0
   43.3120   35.0400   40.3870 H   0  0  0  0  0  0  0  0  0  0  0  0
   43.5490   32.2880   37.1700 H   0  0  0  0  0  0  0  0  0  0  0  0
   41.0990   29.3640   41.8720 Cl  0  0  0  0  0  0  0  0  0  0  0  0
   39.5200   28.8300   42.4210 C   0  0  0  0  0  0  0  0  0  0  0  0
   38.4340   29.5720   42.1160 C   0  0  0  0  0  0  0  0  0  0  0  0
   37.2680   29.1390   42.7240 C   0  0  0  0  0  0  0  0  0  0  0  0
   37.1590   28.0550   43.5680 C   0  0  0  0  0  0  0  0  0  0  0  0
   38.2930   27.3270   43.8420 C   0  0  0  0  0  0  0  0  0  0  0  0
   39.4870   27.7280   43.2550 C   0  0  0  0  0  0  0  0  0  0  0  0
   36.3700   29.7350   42.4920 H   0  0  0  0  0  0  0  0  0  0  0  0
   36.1780   27.8580   43.9540 H   0  0  0  0  0  0  0  0  0  0  0  0
   38.2300   26.4790   44.4920 H   0  0  0  0  0  0  0  0  0  0  0  0
   40.7350   26.9710   43.5220 C   0  0  0  0  0  0  0  0  0  0  0  0
   41.1420   25.9590   42.6570 C   0  0  0  0  0  0  0  0  0  0  0  0
   40.7340   25.5290   41.7270 H   0  0  0  0  0  0  0  0  0  0  0  0
   42.7140   25.3320   43.3980 S   0  0  0  0  0  0  0  0  0  0  0  0
   42.5330   26.5990   44.8000 C   0  0  0  0  0  0  0  0  0  0  0  0
   43.0850   27.0050   45.8410 H   0  0  0  0  0  0  0  0  0  0  0  0
   41.5780   27.1180   44.5220 N   0  0  0  0  0  0  0  0  0  0  0  0
  1  2  1  0  0  0  0
  2  8  1  0  0  0  0
  2  3  2  0  0  0  0
  3 22  1  0  0  0  0
  4  3  1  0  0  0  0
  5  4  2  0  0  0  0
  6  1  2  0  0  0  0
  6  5  1  0  0  0  0
  7  1  1  0  0  0  0
  9 10  1  0  0  0  0
 10 11  1  0  0  0  0
 11  5  1  0  0  0  0
 11 12  2  0  0  0  0
 12 17  1  0  0  0  0
 13 12  1  0  0  0  0
 13 18  1  0  0  0  0
 14 13  2  0  0  0  0
 15 14  1  0  0  0  0
 16 10  2  0  0  0  0
 16 14  1  0  0  0  0
 19 16  1  0  0  0  0
 20 21  1  0  0  0  0
 21 26  1  0  0  0  0
 22 21  2  0  0  0  0
 22 23  1  0  0  0  0
 23 24  2  0  0  0  0
 24 25  1  0  0  0  0
 24 28  1  0  0  0  0
 25 29  1  0  0  0  0
 26 30  1  0  0  0  0
 26 25  2  0  0  0  0
 27 23  1  0  0  0  0
 30 36  1  0  0  0  0
 31 33  1  0  0  0  0
 31 30  2  0  0  0  0
 32 31  1  0  0  0  0
 33 34  1  0  0  0  0
 34 35  1  0  0  0  0
 36 34  2  0  0  0  0
M  END
>  <minimizedAffinity>
-5.93714714

$$$$
