
 OpenBabel03252502133D

 35 38  0  0  0  0  0  0  0  0999 V2000
   41.0780   35.5180   42.0260 Cl  0  0  0  0  0  0  0  0  0  0  0  0
   41.7220   34.7600   40.5860 C   0  0  0  0  0  0  0  0  0  0  0  0
   43.0110   34.3360   40.5270 C   0  0  0  0  0  0  0  0  0  0  0  0
   43.4020   33.7540   39.3400 C   0  0  0  0  0  0  0  0  0  0  0  0
   42.5820   33.5960   38.2740 C   0  0  0  0  0  0  0  0  0  0  0  0
   41.2790   34.0290   38.3440 C   0  0  0  0  0  0  0  0  0  0  0  0
   40.8620   34.6130   39.5160 C   0  0  0  0  0  0  0  0  0  0  0  0
   42.8930   33.1360   37.3360 H   0  0  0  0  0  0  0  0  0  0  0  0
   40.5770   33.9300   37.5240 H   0  0  0  0  0  0  0  0  0  0  0  0
   39.8320   34.9520   39.5660 H   0  0  0  0  0  0  0  0  0  0  0  0
   45.2640   35.8610   43.1500 C   0  0  0  0  0  0  0  0  0  0  0  0
   44.4420   35.7160   42.0280 C   0  0  0  0  0  0  0  0  0  0  0  0
   43.8610   34.5150   41.6730 C   0  0  0  0  0  0  0  0  0  0  0  0
   44.1540   33.4650   42.5120 N   0  0  0  0  0  0  0  0  0  0  0  0
   44.9400   33.5970   43.5860 C   0  0  0  0  0  0  0  0  0  0  0  0
   45.4960   34.7740   43.9150 N   0  0  0  0  0  0  0  0  0  0  0  0
   45.7040   36.8200   43.3980 H   0  0  0  0  0  0  0  0  0  0  0  0
   44.2410   36.5730   41.3980 H   0  0  0  0  0  0  0  0  0  0  0  0
   45.0540   32.6530   44.1250 H   0  0  0  0  0  0  0  0  0  0  0  0
   44.7890   33.2820   39.2420 C   0  0  0  0  0  0  0  0  0  0  0  0
   45.0790   32.2650   38.3470 C   0  0  0  0  0  0  0  0  0  0  0  0
   46.3900   31.8900   38.3220 C   0  0  0  0  0  0  0  0  0  0  0  0
   47.3880   32.4370   39.0960 C   0  0  0  0  0  0  0  0  0  0  0  0
   47.0260   33.4500   39.9690 C   0  0  0  0  0  0  0  0  0  0  0  0
   45.7410   33.8070   39.9830 N   0  0  0  0  0  0  0  0  0  0  0  0
   44.3230   31.8290   37.7390 H   0  0  0  0  0  0  0  0  0  0  0  0
   46.7220   31.0740   37.6290 H   0  0  0  0  0  0  0  0  0  0  0  0
   48.4180   32.1160   39.0510 H   0  0  0  0  0  0  0  0  0  0  0  0
   48.0510   34.0500   40.8000 C   0  0  0  0  0  0  0  0  0  0  0  0
   48.9450   33.1790   41.5660 C   0  0  0  0  0  0  0  0  0  0  0  0
   48.8870   31.9760   41.5540 H   0  0  0  0  0  0  0  0  0  0  0  0
   50.0850   34.3770   42.4730 S   0  0  0  0  0  0  0  0  0  0  0  0
   49.1450   35.8040   41.6540 C   0  0  0  0  0  0  0  0  0  0  0  0
   49.2280   36.9890   41.6870 H   0  0  0  0  0  0  0  0  0  0  0  0
   48.3560   35.3070   41.0150 N   0  0  0  0  0  0  0  0  0  0  0  0
  2  1  1  0  0  0  0
  3  2  1  0  0  0  0
  3 13  1  0  0  0  0
  4  3  2  0  0  0  0
  5  6  2  0  0  0  0
  5  4  1  0  0  0  0
  6  7  1  0  0  0  0
  7 10  1  0  0  0  0
  7  2  2  0  0  0  0
  8  5  1  0  0  0  0
  9  6  1  0  0  0  0
 11 17  1  0  0  0  0
 11 16  1  0  0  0  0
 12 11  2  0  0  0  0
 13 12  1  0  0  0  0
 13 14  2  0  0  0  0
 14 15  1  0  0  0  0
 15 16  2  0  0  0  0
 15 19  1  0  0  0  0
 18 12  1  0  0  0  0
 20  4  1  0  0  0  0
 20 25  1  0  0  0  0
 21 20  2  0  0  0  0
 22 21  1  0  0  0  0
 22 23  2  0  0  0  0
 23 24  1  0  0  0  0
 24 25  2  0  0  0  0
 24 29  1  0  0  0  0
 26 21  1  0  0  0  0
 27 22  1  0  0  0  0
 28 23  1  0  0  0  0
 29 35  1  0  0  0  0
 29 30  2  0  0  0  0
 30 32  1  0  0  0  0
 31 30  1  0  0  0  0
 33 34  1  0  0  0  0
 33 32  1  0  0  0  0
 35 33  2  0  0  0  0
M  END
>  <minimizedAffinity>
-5.54887342

>  <minimizedRMSD>
3.53789377

$$$$
