
 OpenBabel03252502103D

 46 50  0  0  0  0  0  0  0  0999 V2000
   37.7480   27.2720   36.5800 C   0  0  0  0  0  0  0  0  0  0  0  0
   36.5960   27.8270   36.0150 C   0  0  0  0  0  0  0  0  0  0  0  0
   35.5680   28.1050   36.8640 C   0  0  0  0  0  0  0  0  0  0  0  0
   35.6890   27.8530   38.1700 N   0  0  0  0  0  0  0  0  0  0  0  0
   36.7620   27.3350   38.7250 C   0  0  0  0  0  0  0  0  0  0  0  0
   37.7960   27.0460   37.9010 N   0  0  0  0  0  0  0  0  0  0  0  0
   34.3950   28.6310   36.3740 N   0  0  0  0  0  0  0  0  0  0  0  0
   33.1480   28.8000   37.1640 C   0  0  0  0  0  0  0  0  0  0  0  0
   32.2450   29.6670   36.3370 C   0  0  0  0  0  0  0  0  0  0  0  0
   32.6910   29.4040   34.9480 C   0  0  0  0  0  0  0  0  0  0  0  0
   34.1430   29.0990   35.0390 C   0  0  0  0  0  0  0  0  0  0  0  0
   38.5990   27.0290   35.9410 H   0  0  0  0  0  0  0  0  0  0  0  0
   33.3790   29.2190   38.1640 H   0  0  0  0  0  0  0  0  0  0  0  0
   32.6990   27.7790   37.2430 H   0  0  0  0  0  0  0  0  0  0  0  0
   32.2500   30.7200   36.6370 H   0  0  0  0  0  0  0  0  0  0  0  0
   31.1920   29.2960   36.4250 H   0  0  0  0  0  0  0  0  0  0  0  0
   32.5970   30.3620   34.3740 H   0  0  0  0  0  0  0  0  0  0  0  0
   32.0760   28.6750   34.3970 H   0  0  0  0  0  0  0  0  0  0  0  0
   34.7750   29.9800   34.8680 H   0  0  0  0  0  0  0  0  0  0  0  0
   34.2970   28.3000   34.2760 H   0  0  0  0  0  0  0  0  0  0  0  0
   37.1080   27.0150   40.1370 C   0  0  0  0  0  0  0  0  0  0  0  0
   36.9330   25.8110   40.6870 N   0  0  0  0  0  0  0  0  0  0  0  0
   37.2340   25.4900   41.9380 C   0  0  0  0  0  0  0  0  0  0  0  0
   37.7640   26.4260   42.7610 N   0  0  0  0  0  0  0  0  0  0  0  0
   37.9870   27.6790   42.3230 C   0  0  0  0  0  0  0  0  0  0  0  0
   38.5230   28.6240   43.1630 C   0  0  0  0  0  0  0  0  0  0  0  0
   38.7530   29.8930   42.7390 C   0  0  0  0  0  0  0  0  0  0  0  0
   38.4300   30.2170   41.4240 C   0  0  0  0  0  0  0  0  0  0  0  0
   37.8910   29.2110   40.6230 C   0  0  0  0  0  0  0  0  0  0  0  0
   37.6520   27.9430   41.0170 C   0  0  0  0  0  0  0  0  0  0  0  0
   37.0760   24.4990   42.3420 H   0  0  0  0  0  0  0  0  0  0  0  0
   38.7470   28.3000   44.1700 H   0  0  0  0  0  0  0  0  0  0  0  0
   39.1740   30.5890   43.4440 H   0  0  0  0  0  0  0  0  0  0  0  0
   38.6750   31.5990   40.9480 C   0  0  0  0  0  0  0  0  0  0  0  0
   39.9360   32.1660   40.9930 C   0  0  0  0  0  0  0  0  0  0  0  0
   40.8890   31.7370   41.3530 H   0  0  0  0  0  0  0  0  0  0  0  0
   39.6170   33.8580   40.2840 S   0  0  0  0  0  0  0  0  0  0  0  0
   37.7770   33.4590   40.0560 C   0  0  0  0  0  0  0  0  0  0  0  0
   37.0000   34.1090   39.6480 H   0  0  0  0  0  0  0  0  0  0  0  0
   37.7060   32.3670   40.4560 N   0  0  0  0  0  0  0  0  0  0  0  0
   37.6240   29.7000   39.3080 N   0  0  0  0  0  0  0  0  0  0  0  0
   36.6520   30.1060   39.4230 H   0  0  0  0  0  0  0  0  0  0  0  0
   38.1490   29.7240   38.4100 H   0  0  0  0  0  0  0  0  0  0  0  0
   36.6050   28.0820   34.6680 N   0  0  0  0  0  0  0  0  0  0  0  0
   36.7840   28.9450   34.1080 H   0  0  0  0  0  0  0  0  0  0  0  0
   36.3750   27.1270   34.2620 H   0  0  0  0  0  0  0  0  0  0  0  0
  1  6  1  0  0  0  0
  2  1  2  0  0  0  0
  2  3  1  0  0  0  0
  3  4  2  0  0  0  0
  4  5  1  0  0  0  0
  5 21  1  0  0  0  0
  6  5  2  0  0  0  0
  7  3  1  0  0  0  0
  7  8  1  0  0  0  0
  8 14  1  0  0  0  0
  8 13  1  0  0  0  0
  9 16  1  0  0  0  0
  9 15  1  0  0  0  0
  9  8  1  0  0  0  0
 10 11  1  0  0  0  0
 10  9  1  0  0  0  0
 11  7  1  0  0  0  0
 12  1  1  0  0  0  0
 17 10  1  0  0  0  0
 18 10  1  0  0  0  0
 19 11  1  0  0  0  0
 20 11  1  0  0  0  0
 21 22  2  0  0  0  0
 21 30  1  0  0  0  0
 22 23  1  0  0  0  0
 23 31  1  0  0  0  0
 23 24  2  0  0  0  0
 25 24  1  0  0  0  0
 25 26  1  0  0  0  0
 26 32  1  0  0  0  0
 27 26  2  0  0  0  0
 27 33  1  0  0  0  0
 28 27  1  0  0  0  0
 29 30  1  0  0  0  0
 29 28  2  0  0  0  0
 30 25  2  0  0  0  0
 34 35  2  0  0  0  0
 34 28  1  0  0  0  0
 35 36  1  0  0  0  0
 37 35  1  0  0  0  0
 38 37  1  0  0  0  0
 38 40  2  0  0  0  0
 39 38  1  0  0  0  0
 40 34  1  0  0  0  0
 41 42  1  0  0  0  0
 41 29  1  0  0  0  0
 43 41  1  0  0  0  0
 44  2  1  0  0  0  0
 45 44  1  0  0  0  0
 46 44  1  0  0  0  0
M  END
>  <minimizedAffinity>
-6.28941584

$$$$

 OpenBabel03252502103D

 46 50  0  0  0  0  0  0  0  0999 V2000
   36.1360   30.7300   41.0560 C   0  0  0  0  0  0  0  0  0  0  0  0
   37.1890   31.4720   40.5120 C   0  0  0  0  0  0  0  0  0  0  0  0
   38.2890   30.7760   40.1130 C   0  0  0  0  0  0  0  0  0  0  0  0
   38.3280   29.4480   40.2440 N   0  0  0  0  0  0  0  0  0  0  0  0
   37.3510   28.7280   40.7490 C   0  0  0  0  0  0  0  0  0  0  0  0
   36.2480   29.3970   41.1570 N   0  0  0  0  0  0  0  0  0  0  0  0
   39.3710   31.4450   39.5890 N   0  0  0  0  0  0  0  0  0  0  0  0
   40.6890   30.8220   39.2960 C   0  0  0  0  0  0  0  0  0  0  0  0
   41.4490   31.8230   38.4760 C   0  0  0  0  0  0  0  0  0  0  0  0
   40.8650   33.1220   38.8880 C   0  0  0  0  0  0  0  0  0  0  0  0
   39.4500   32.8370   39.2410 C   0  0  0  0  0  0  0  0  0  0  0  0
   35.2330   31.2410   41.3940 H   0  0  0  0  0  0  0  0  0  0  0  0
   40.5500   29.8450   38.7930 H   0  0  0  0  0  0  0  0  0  0  0  0
   41.1960   30.7040   40.2850 H   0  0  0  0  0  0  0  0  0  0  0  0
   41.4240   31.6220   37.4010 H   0  0  0  0  0  0  0  0  0  0  0  0
   42.5220   31.8250   38.7940 H   0  0  0  0  0  0  0  0  0  0  0  0
   40.8450   33.7880   37.9860 H   0  0  0  0  0  0  0  0  0  0  0  0
   41.4500   33.6730   39.6410 H   0  0  0  0  0  0  0  0  0  0  0  0
   38.7580   33.0110   38.4070 H   0  0  0  0  0  0  0  0  0  0  0  0
   39.2520   33.5010   40.1150 H   0  0  0  0  0  0  0  0  0  0  0  0
   37.1810   27.2620   40.9470 C   0  0  0  0  0  0  0  0  0  0  0  0
   37.4850   26.6290   42.0810 N   0  0  0  0  0  0  0  0  0  0  0  0
   37.3430   25.3270   42.2940 C   0  0  0  0  0  0  0  0  0  0  0  0
   36.8530   24.5370   41.3090 N   0  0  0  0  0  0  0  0  0  0  0  0
   36.5100   25.0590   40.1160 C   0  0  0  0  0  0  0  0  0  0  0  0
   36.0160   24.2530   39.1200 C   0  0  0  0  0  0  0  0  0  0  0  0
   35.6670   24.7610   37.9110 C   0  0  0  0  0  0  0  0  0  0  0  0
   35.8240   26.1290   37.7020 C   0  0  0  0  0  0  0  0  0  0  0  0
   36.3300   26.8910   38.7540 C   0  0  0  0  0  0  0  0  0  0  0  0
   36.6840   26.4140   39.9650 C   0  0  0  0  0  0  0  0  0  0  0  0
   37.6020   24.8550   43.2320 H   0  0  0  0  0  0  0  0  0  0  0  0
   35.9230   23.2010   39.3550 H   0  0  0  0  0  0  0  0  0  0  0  0
   35.2860   24.0800   37.1710 H   0  0  0  0  0  0  0  0  0  0  0  0
   35.4480   26.6970   36.3850 C   0  0  0  0  0  0  0  0  0  0  0  0
   36.1760   26.4190   35.2430 C   0  0  0  0  0  0  0  0  0  0  0  0
   37.0750   25.7890   35.1180 H   0  0  0  0  0  0  0  0  0  0  0  0
   35.2450   27.3870   33.9540 S   0  0  0  0  0  0  0  0  0  0  0  0
   34.0080   28.0040   35.2520 C   0  0  0  0  0  0  0  0  0  0  0  0
   33.1530   28.6640   35.0960 H   0  0  0  0  0  0  0  0  0  0  0  0
   34.3980   27.5010   36.2290 N   0  0  0  0  0  0  0  0  0  0  0  0
   36.4210   28.2680   38.3830 N   0  0  0  0  0  0  0  0  0  0  0  0
   37.3760   28.3030   37.9210 H   0  0  0  0  0  0  0  0  0  0  0  0
   35.8010   29.0980   38.4710 H   0  0  0  0  0  0  0  0  0  0  0  0
   37.0160   32.8260   40.3880 N   0  0  0  0  0  0  0  0  0  0  0  0
   36.7330   33.4380   39.5900 H   0  0  0  0  0  0  0  0  0  0  0  0
   37.2470   33.1680   41.3670 H   0  0  0  0  0  0  0  0  0  0  0  0
  1  6  1  0  0  0  0
  1 12  1  0  0  0  0
  2  1  2  0  0  0  0
  3  4  2  0  0  0  0
  3  2  1  0  0  0  0
  4  5  1  0  0  0  0
  5 21  1  0  0  0  0
  5  6  2  0  0  0  0
  7  3  1  0  0  0  0
  8  7  1  0  0  0  0
  8 14  1  0  0  0  0
  9 16  1  0  0  0  0
  9 10  1  0  0  0  0
  9  8  1  0  0  0  0
 10 11  1  0  0  0  0
 10 18  1  0  0  0  0
 11  7  1  0  0  0  0
 11 20  1  0  0  0  0
 13  8  1  0  0  0  0
 15  9  1  0  0  0  0
 17 10  1  0  0  0  0
 19 11  1  0  0  0  0
 21 22  1  0  0  0  0
 22 23  2  0  0  0  0
 23 31  1  0  0  0  0
 24 23  1  0  0  0  0
 25 24  2  0  0  0  0
 26 32  1  0  0  0  0
 26 25  1  0  0  0  0
 27 26  2  0  0  0  0
 28 27  1  0  0  0  0
 28 29  2  0  0  0  0
 29 30  1  0  0  0  0
 30 25  1  0  0  0  0
 30 21  2  0  0  0  0
 33 27  1  0  0  0  0
 34 28  1  0  0  0  0
 35 34  2  0  0  0  0
 36 35  1  0  0  0  0
 37 35  1  0  0  0  0
 37 38  1  0  0  0  0
 38 40  2  0  0  0  0
 39 38  1  0  0  0  0
 40 34  1  0  0  0  0
 41 43  1  0  0  0  0
 41 29  1  0  0  0  0
 42 41  1  0  0  0  0
 44  2  1  0  0  0  0
 44 46  1  0  0  0  0
 45 44  1  0  0  0  0
M  END
>  <minimizedAffinity>
-6.12961531

$$$$

 OpenBabel03252502103D

 46 50  0  0  0  0  0  0  0  0999 V2000
   37.8320   31.3800   38.5700 C   0  0  0  0  0  0  0  0  0  0  0  0
   39.1080   31.5180   38.0140 C   0  0  0  0  0  0  0  0  0  0  0  0
   40.1200   30.8400   38.6240 C   0  0  0  0  0  0  0  0  0  0  0  0
   39.8720   30.0840   39.6960 N   0  0  0  0  0  0  0  0  0  0  0  0
   38.6820   29.9370   40.2350 C   0  0  0  0  0  0  0  0  0  0  0  0
   37.6600   30.6040   39.6490 N   0  0  0  0  0  0  0  0  0  0  0  0
   41.4050   30.9480   38.1440 N   0  0  0  0  0  0  0  0  0  0  0  0
   42.6110   30.4130   38.8290 C   0  0  0  0  0  0  0  0  0  0  0  0
   43.7260   30.4880   37.8270 C   0  0  0  0  0  0  0  0  0  0  0  0
   43.3160   31.6010   36.9370 C   0  0  0  0  0  0  0  0  0  0  0  0
   41.8300   31.5880   36.9300 C   0  0  0  0  0  0  0  0  0  0  0  0
   36.9890   31.9050   38.1200 H   0  0  0  0  0  0  0  0  0  0  0  0
   42.4170   29.3890   39.2070 H   0  0  0  0  0  0  0  0  0  0  0  0
   42.8250   31.1230   39.6650 H   0  0  0  0  0  0  0  0  0  0  0  0
   43.9300   29.5390   37.3230 H   0  0  0  0  0  0  0  0  0  0  0  0
   44.6670   30.8040   38.3440 H   0  0  0  0  0  0  0  0  0  0  0  0
   43.6470   31.3430   35.8970 H   0  0  0  0  0  0  0  0  0  0  0  0
   43.7910   32.5690   37.1610 H   0  0  0  0  0  0  0  0  0  0  0  0
   41.4120   31.0190   36.0890 H   0  0  0  0  0  0  0  0  0  0  0  0
   41.5530   32.6680   36.9040 H   0  0  0  0  0  0  0  0  0  0  0  0
   38.1930   29.1280   41.3860 C   0  0  0  0  0  0  0  0  0  0  0  0
   38.0880   29.6000   42.6290 N   0  0  0  0  0  0  0  0  0  0  0  0
   37.6530   28.9110   43.6760 C   0  0  0  0  0  0  0  0  0  0  0  0
   37.2730   27.6210   43.5170 N   0  0  0  0  0  0  0  0  0  0  0  0
   37.3340   27.0300   42.3090 C   0  0  0  0  0  0  0  0  0  0  0  0
   36.9500   25.7210   42.1550 C   0  0  0  0  0  0  0  0  0  0  0  0
   37.0070   25.1080   40.9450 C   0  0  0  0  0  0  0  0  0  0  0  0
   37.4670   25.8430   39.8560 C   0  0  0  0  0  0  0  0  0  0  0  0
   37.8410   27.1680   40.0800 C   0  0  0  0  0  0  0  0  0  0  0  0
   37.7950   27.8020   41.2700 C   0  0  0  0  0  0  0  0  0  0  0  0
   37.5840   29.3350   44.6690 H   0  0  0  0  0  0  0  0  0  0  0  0
   36.6040   25.2140   43.0460 H   0  0  0  0  0  0  0  0  0  0  0  0
   36.6920   24.0810   40.8870 H   0  0  0  0  0  0  0  0  0  0  0  0
   37.5350   25.1870   38.5290 C   0  0  0  0  0  0  0  0  0  0  0  0
   36.3970   24.7240   37.8920 C   0  0  0  0  0  0  0  0  0  0  0  0
   35.3430   24.7570   38.2220 H   0  0  0  0  0  0  0  0  0  0  0  0
   37.1020   24.0230   36.3180 S   0  0  0  0  0  0  0  0  0  0  0  0
   38.8590   24.5070   36.8420 C   0  0  0  0  0  0  0  0  0  0  0  0
   39.7870   24.3470   36.2880 H   0  0  0  0  0  0  0  0  0  0  0  0
   38.6830   25.0060   37.8800 N   0  0  0  0  0  0  0  0  0  0  0  0
   38.2800   27.7810   38.8670 N   0  0  0  0  0  0  0  0  0  0  0  0
   39.3060   27.5130   38.8500 H   0  0  0  0  0  0  0  0  0  0  0  0
   37.8260   28.3460   38.1200 H   0  0  0  0  0  0  0  0  0  0  0  0
   39.2320   32.2860   36.8860 N   0  0  0  0  0  0  0  0  0  0  0  0
   39.2760   32.0550   35.8690 H   0  0  0  0  0  0  0  0  0  0  0  0
   39.2750   33.2680   37.2920 H   0  0  0  0  0  0  0  0  0  0  0  0
  1  6  1  0  0  0  0
  2  1  2  0  0  0  0
  2  3  1  0  0  0  0
  3  4  2  0  0  0  0
  4  5  1  0  0  0  0
  5 21  1  0  0  0  0
  6  5  2  0  0  0  0
  7  3  1  0  0  0  0
  7  8  1  0  0  0  0
  8 13  1  0  0  0  0
  8 14  1  0  0  0  0
  9 16  1  0  0  0  0
  9  8  1  0  0  0  0
 10 18  1  0  0  0  0
 10  9  1  0  0  0  0
 11 10  1  0  0  0  0
 11  7  1  0  0  0  0
 12  1  1  0  0  0  0
 15  9  1  0  0  0  0
 17 10  1  0  0  0  0
 19 11  1  0  0  0  0
 20 11  1  0  0  0  0
 21 22  1  0  0  0  0
 22 23  2  0  0  0  0
 23 31  1  0  0  0  0
 24 23  1  0  0  0  0
 25 24  2  0  0  0  0
 26 25  1  0  0  0  0
 26 32  1  0  0  0  0
 27 26  2  0  0  0  0
 28 29  2  0  0  0  0
 28 27  1  0  0  0  0
 29 30  1  0  0  0  0
 30 21  2  0  0  0  0
 30 25  1  0  0  0  0
 33 27  1  0  0  0  0
 34 28  1  0  0  0  0
 35 36  1  0  0  0  0
 35 34  2  0  0  0  0
 37 38  1  0  0  0  0
 37 35  1  0  0  0  0
 38 40  2  0  0  0  0
 39 38  1  0  0  0  0
 40 34  1  0  0  0  0
 41 29  1  0  0  0  0
 42 41  1  0  0  0  0
 43 41  1  0  0  0  0
 44 46  1  0  0  0  0
 44  2  1  0  0  0  0
 45 44  1  0  0  0  0
M  END
>  <minimizedAffinity>
-5.9786644

$$$$

 OpenBabel03252502103D

 46 50  0  0  0  0  0  0  0  0999 V2000
   37.3800   26.6880   36.1860 C   0  0  0  0  0  0  0  0  0  0  0  0
   36.3040   27.4480   35.7160 C   0  0  0  0  0  0  0  0  0  0  0  0
   35.3030   27.7070   36.6030 C   0  0  0  0  0  0  0  0  0  0  0  0
   35.3770   27.2470   37.8540 N   0  0  0  0  0  0  0  0  0  0  0  0
   36.3790   26.5330   38.3190 C   0  0  0  0  0  0  0  0  0  0  0  0
   37.3850   26.2590   37.4560 N   0  0  0  0  0  0  0  0  0  0  0  0
   34.2030   28.4300   36.2030 N   0  0  0  0  0  0  0  0  0  0  0  0
   32.9720   28.6140   37.0150 C   0  0  0  0  0  0  0  0  0  0  0  0
   32.1820   29.6930   36.3330 C   0  0  0  0  0  0  0  0  0  0  0  0
   32.6140   29.5970   34.9180 C   0  0  0  0  0  0  0  0  0  0  0  0
   34.0210   29.1210   34.9560 C   0  0  0  0  0  0  0  0  0  0  0  0
   38.2070   26.4510   35.5140 H   0  0  0  0  0  0  0  0  0  0  0  0
   33.2340   28.8480   38.0660 H   0  0  0  0  0  0  0  0  0  0  0  0
   32.4110   27.6510   36.9380 H   0  0  0  0  0  0  0  0  0  0  0  0
   32.3000   30.6810   36.7900 H   0  0  0  0  0  0  0  0  0  0  0  0
   31.0930   29.4330   36.3680 H   0  0  0  0  0  0  0  0  0  0  0  0
   32.6350   30.6360   34.4980 H   0  0  0  0  0  0  0  0  0  0  0  0
   31.9290   29.0340   34.2650 H   0  0  0  0  0  0  0  0  0  0  0  0
   34.7510   29.9410   34.9200 H   0  0  0  0  0  0  0  0  0  0  0  0
   34.0960   28.4350   34.0800 H   0  0  0  0  0  0  0  0  0  0  0  0
   36.6680   25.9650   39.6640 C   0  0  0  0  0  0  0  0  0  0  0  0
   36.3730   24.7120   40.0170 N   0  0  0  0  0  0  0  0  0  0  0  0
   36.6200   24.1720   41.2030 C   0  0  0  0  0  0  0  0  0  0  0  0
   37.2190   24.9140   42.1650 N   0  0  0  0  0  0  0  0  0  0  0  0
   37.5650   26.1930   41.9300 C   0  0  0  0  0  0  0  0  0  0  0  0
   38.1700   26.9410   42.9110 C   0  0  0  0  0  0  0  0  0  0  0  0
   38.5240   28.2330   42.6930 C   0  0  0  0  0  0  0  0  0  0  0  0
   38.2560   28.7880   41.4440 C   0  0  0  0  0  0  0  0  0  0  0  0
   37.6410   27.9750   40.4930 C   0  0  0  0  0  0  0  0  0  0  0  0
   37.2790   26.6890   40.6810 C   0  0  0  0  0  0  0  0  0  0  0  0
   36.3640   23.1490   41.4450 H   0  0  0  0  0  0  0  0  0  0  0  0
   38.3450   26.4430   43.8550 H   0  0  0  0  0  0  0  0  0  0  0  0
   38.9950   28.7670   43.5000 H   0  0  0  0  0  0  0  0  0  0  0  0
   38.6360   30.1980   41.1930 C   0  0  0  0  0  0  0  0  0  0  0  0
   39.9490   30.6230   41.2960 C   0  0  0  0  0  0  0  0  0  0  0  0
   40.8560   30.0480   41.5560 H   0  0  0  0  0  0  0  0  0  0  0  0
   39.7970   32.4310   40.8790 S   0  0  0  0  0  0  0  0  0  0  0  0
   37.9230   32.2590   40.6380 C   0  0  0  0  0  0  0  0  0  0  0  0
   37.2130   33.0410   40.3620 H   0  0  0  0  0  0  0  0  0  0  0  0
   37.7450   31.1280   40.8580 N   0  0  0  0  0  0  0  0  0  0  0  0
   37.4450   28.6860   39.2700 N   0  0  0  0  0  0  0  0  0  0  0  0
   36.5120   29.1590   39.4440 H   0  0  0  0  0  0  0  0  0  0  0  0
   37.9860   28.8020   38.3890 H   0  0  0  0  0  0  0  0  0  0  0  0
   36.3610   27.9020   34.4250 N   0  0  0  0  0  0  0  0  0  0  0  0
   36.6410   28.8150   34.0020 H   0  0  0  0  0  0  0  0  0  0  0  0
   36.0310   27.0520   33.8780 H   0  0  0  0  0  0  0  0  0  0  0  0
  1  6  1  0  0  0  0
  2  1  2  0  0  0  0
  2  3  1  0  0  0  0
  3  4  2  0  0  0  0
  4  5  1  0  0  0  0
  5 21  1  0  0  0  0
  6  5  2  0  0  0  0
  7  3  1  0  0  0  0
  7  8  1  0  0  0  0
  8 13  1  0  0  0  0
  9 16  1  0  0  0  0
  9 15  1  0  0  0  0
  9  8  1  0  0  0  0
 10 11  1  0  0  0  0
 10  9  1  0  0  0  0
 11  7  1  0  0  0  0
 12  1  1  0  0  0  0
 14  8  1  0  0  0  0
 17 10  1  0  0  0  0
 18 10  1  0  0  0  0
 19 11  1  0  0  0  0
 20 11  1  0  0  0  0
 21 22  2  0  0  0  0
 21 30  1  0  0  0  0
 22 23  1  0  0  0  0
 23 31  1  0  0  0  0
 23 24  2  0  0  0  0
 25 24  1  0  0  0  0
 25 26  1  0  0  0  0
 26 32  1  0  0  0  0
 27 26  2  0  0  0  0
 27 33  1  0  0  0  0
 28 27  1  0  0  0  0
 29 30  1  0  0  0  0
 29 28  2  0  0  0  0
 30 25  2  0  0  0  0
 34 35  2  0  0  0  0
 34 28  1  0  0  0  0
 35 36  1  0  0  0  0
 37 35  1  0  0  0  0
 38 40  2  0  0  0  0
 38 37  1  0  0  0  0
 39 38  1  0  0  0  0
 40 34  1  0  0  0  0
 41 42  1  0  0  0  0
 41 29  1  0  0  0  0
 43 41  1  0  0  0  0
 44  2  1  0  0  0  0
 45 44  1  0  0  0  0
 46 44  1  0  0  0  0
M  END
>  <minimizedAffinity>
-5.8686347

$$$$

 OpenBabel03252502103D

 46 50  0  0  0  0  0  0  0  0999 V2000
   38.0720   28.6830   36.1730 C   0  0  0  0  0  0  0  0  0  0  0  0
   36.7410   28.4130   35.8370 C   0  0  0  0  0  0  0  0  0  0  0  0
   35.7840   28.9320   36.6570 C   0  0  0  0  0  0  0  0  0  0  0  0
   36.1330   29.6630   37.7180 N   0  0  0  0  0  0  0  0  0  0  0  0
   37.3760   29.9320   38.0520 C   0  0  0  0  0  0  0  0  0  0  0  0
   38.3460   29.4240   37.2560 N   0  0  0  0  0  0  0  0  0  0  0  0
   34.4550   28.6890   36.4000 N   0  0  0  0  0  0  0  0  0  0  0  0
   33.3390   29.0380   37.3160 C   0  0  0  0  0  0  0  0  0  0  0  0
   32.0780   28.8710   36.5200 C   0  0  0  0  0  0  0  0  0  0  0  0
   32.4460   27.8600   35.4990 C   0  0  0  0  0  0  0  0  0  0  0  0
   33.8950   28.0570   35.2370 C   0  0  0  0  0  0  0  0  0  0  0  0
   38.8750   28.2870   35.5490 H   0  0  0  0  0  0  0  0  0  0  0  0
   33.4790   30.0590   37.7230 H   0  0  0  0  0  0  0  0  0  0  0  0
   33.3600   28.2690   38.1270 H   0  0  0  0  0  0  0  0  0  0  0  0
   31.6810   29.8110   36.1230 H   0  0  0  0  0  0  0  0  0  0  0  0
   31.2870   28.4180   37.1690 H   0  0  0  0  0  0  0  0  0  0  0  0
   31.9060   28.1220   34.5520 H   0  0  0  0  0  0  0  0  0  0  0  0
   32.1310   26.8320   35.7360 H   0  0  0  0  0  0  0  0  0  0  0  0
   34.0880   28.7110   34.3760 H   0  0  0  0  0  0  0  0  0  0  0  0
   34.2840   27.0220   35.0910 H   0  0  0  0  0  0  0  0  0  0  0  0
   37.9680   30.7410   39.1530 C   0  0  0  0  0  0  0  0  0  0  0  0
   38.1590   32.0600   39.0810 N   0  0  0  0  0  0  0  0  0  0  0  0
   38.6780   32.8120   40.0420 C   0  0  0  0  0  0  0  0  0  0  0  0
   39.0590   32.2390   41.2090 N   0  0  0  0  0  0  0  0  0  0  0  0
   38.9180   30.9150   41.4020 C   0  0  0  0  0  0  0  0  0  0  0  0
   39.3080   30.3390   42.5870 C   0  0  0  0  0  0  0  0  0  0  0  0
   39.1760   29.0050   42.7980 C   0  0  0  0  0  0  0  0  0  0  0  0
   38.6310   28.2270   41.7790 C   0  0  0  0  0  0  0  0  0  0  0  0
   38.2540   28.8740   40.6030 C   0  0  0  0  0  0  0  0  0  0  0  0
   38.3740   30.1960   40.3650 C   0  0  0  0  0  0  0  0  0  0  0  0
   38.8140   33.8810   39.9410 H   0  0  0  0  0  0  0  0  0  0  0  0
   39.7230   31.0060   43.3310 H   0  0  0  0  0  0  0  0  0  0  0  0
   39.4990   28.6130   43.7470 H   0  0  0  0  0  0  0  0  0  0  0  0
   38.4810   26.7690   41.9970 C   0  0  0  0  0  0  0  0  0  0  0  0
   39.5810   25.9460   42.1630 C   0  0  0  0  0  0  0  0  0  0  0  0
   40.6560   26.2000   42.1640 H   0  0  0  0  0  0  0  0  0  0  0  0
   38.7790   24.2810   42.3880 S   0  0  0  0  0  0  0  0  0  0  0  0
   37.0520   25.0440   42.2080 C   0  0  0  0  0  0  0  0  0  0  0  0
   36.0890   24.5310   42.2510 H   0  0  0  0  0  0  0  0  0  0  0  0
   37.2920   26.1730   42.0440 N   0  0  0  0  0  0  0  0  0  0  0  0
   37.7100   27.9420   39.6670 N   0  0  0  0  0  0  0  0  0  0  0  0
   38.5840   27.5950   39.1760 H   0  0  0  0  0  0  0  0  0  0  0  0
   36.7550   27.6020   39.4360 H   0  0  0  0  0  0  0  0  0  0  0  0
   36.5050   27.6890   34.6980 N   0  0  0  0  0  0  0  0  0  0  0  0
   36.2530   27.9590   33.7220 H   0  0  0  0  0  0  0  0  0  0  0  0
   36.6470   26.6920   35.0390 H   0  0  0  0  0  0  0  0  0  0  0  0
  1  6  1  0  0  0  0
  2  1  2  0  0  0  0
  2  3  1  0  0  0  0
  3  4  2  0  0  0  0
  4  5  1  0  0  0  0
  5 21  1  0  0  0  0
  6  5  2  0  0  0  0
  7  3  1  0  0  0  0
  7  8  1  0  0  0  0
  8 13  1  0  0  0  0
  8 14  1  0  0  0  0
  9 16  1  0  0  0  0
  9  8  1  0  0  0  0
 10 18  1  0  0  0  0
 10  9  1  0  0  0  0
 11 10  1  0  0  0  0
 11  7  1  0  0  0  0
 12  1  1  0  0  0  0
 15  9  1  0  0  0  0
 17 10  1  0  0  0  0
 19 11  1  0  0  0  0
 20 11  1  0  0  0  0
 21 30  1  0  0  0  0
 22 21  2  0  0  0  0
 22 23  1  0  0  0  0
 23 24  2  0  0  0  0
 24 25  1  0  0  0  0
 25 26  1  0  0  0  0
 26 27  2  0  0  0  0
 26 32  1  0  0  0  0
 27 33  1  0  0  0  0
 28 34  1  0  0  0  0
 28 27  1  0  0  0  0
 29 28  2  0  0  0  0
 30 29  1  0  0  0  0
 30 25  2  0  0  0  0
 31 23  1  0  0  0  0
 34 40  1  0  0  0  0
 34 35  2  0  0  0  0
 35 36  1  0  0  0  0
 35 37  1  0  0  0  0
 38 39  1  0  0  0  0
 38 37  1  0  0  0  0
 40 38  2  0  0  0  0
 41 29  1  0  0  0  0
 42 41  1  0  0  0  0
 43 41  1  0  0  0  0
 44 46  1  0  0  0  0
 44  2  1  0  0  0  0
 45 44  1  0  0  0  0
M  END
>  <minimizedAffinity>
-5.82279348

$$$$

 OpenBabel03252502103D

 46 50  0  0  0  0  0  0  0  0999 V2000
   42.0660   33.0080   40.5440 C   0  0  0  0  0  0  0  0  0  0  0  0
   42.7940   32.5920   39.4250 C   0  0  0  0  0  0  0  0  0  0  0  0
   42.2060   31.6620   38.6210 C   0  0  0  0  0  0  0  0  0  0  0  0
   40.9900   31.1950   38.9120 N   0  0  0  0  0  0  0  0  0  0  0  0
   40.2850   31.5730   39.9560 C   0  0  0  0  0  0  0  0  0  0  0  0
   40.8490   32.4930   40.7730 N   0  0  0  0  0  0  0  0  0  0  0  0
   42.8750   31.1910   37.5150 N   0  0  0  0  0  0  0  0  0  0  0  0
   42.4220   30.0510   36.6760 C   0  0  0  0  0  0  0  0  0  0  0  0
   43.2710   30.0810   35.4390 C   0  0  0  0  0  0  0  0  0  0  0  0
   44.5180   30.7420   35.8930 C   0  0  0  0  0  0  0  0  0  0  0  0
   44.1110   31.6800   36.9710 C   0  0  0  0  0  0  0  0  0  0  0  0
   42.4940   33.7490   41.2210 H   0  0  0  0  0  0  0  0  0  0  0  0
   41.3340   30.1280   36.4740 H   0  0  0  0  0  0  0  0  0  0  0  0
   42.6640   29.1290   37.2600 H   0  0  0  0  0  0  0  0  0  0  0  0
   42.7810   30.5500   34.5800 H   0  0  0  0  0  0  0  0  0  0  0  0
   43.5360   29.0340   35.1460 H   0  0  0  0  0  0  0  0  0  0  0  0
   44.8990   31.3690   35.0450 H   0  0  0  0  0  0  0  0  0  0  0  0
   45.3420   30.0530   36.1360 H   0  0  0  0  0  0  0  0  0  0  0  0
   43.9340   32.7000   36.6060 H   0  0  0  0  0  0  0  0  0  0  0  0
   44.9470   31.6210   37.7070 H   0  0  0  0  0  0  0  0  0  0  0  0
   38.9220   31.2100   40.4330 C   0  0  0  0  0  0  0  0  0  0  0  0
   37.8310   31.9330   40.1730 N   0  0  0  0  0  0  0  0  0  0  0  0
   36.6020   31.6380   40.5770 C   0  0  0  0  0  0  0  0  0  0  0  0
   36.3890   30.5210   41.3130 N   0  0  0  0  0  0  0  0  0  0  0  0
   37.4120   29.7090   41.6410 C   0  0  0  0  0  0  0  0  0  0  0  0
   37.1900   28.5800   42.3890 C   0  0  0  0  0  0  0  0  0  0  0  0
   38.2090   27.7500   42.7310 C   0  0  0  0  0  0  0  0  0  0  0  0
   39.4940   28.0740   42.3030 C   0  0  0  0  0  0  0  0  0  0  0  0
   39.6500   29.2340   41.5450 C   0  0  0  0  0  0  0  0  0  0  0  0
   38.6570   30.0760   41.1910 C   0  0  0  0  0  0  0  0  0  0  0  0
   35.7450   32.2540   40.3420 H   0  0  0  0  0  0  0  0  0  0  0  0
   36.1670   28.3930   42.6870 H   0  0  0  0  0  0  0  0  0  0  0  0
   37.9730   26.8810   43.3190 H   0  0  0  0  0  0  0  0  0  0  0  0
   40.6160   27.1780   42.6700 C   0  0  0  0  0  0  0  0  0  0  0  0
   40.6090   25.8360   42.3330 C   0  0  0  0  0  0  0  0  0  0  0  0
   39.8470   25.2510   41.7870 H   0  0  0  0  0  0  0  0  0  0  0  0
   42.2310   25.2590   43.0420 S   0  0  0  0  0  0  0  0  0  0  0  0
   42.6190   27.0030   43.6790 C   0  0  0  0  0  0  0  0  0  0  0  0
   43.5060   27.3300   44.2270 H   0  0  0  0  0  0  0  0  0  0  0  0
   41.6830   27.6090   43.3380 N   0  0  0  0  0  0  0  0  0  0  0  0
   41.0190   29.4190   41.1800 N   0  0  0  0  0  0  0  0  0  0  0  0
   41.3980   29.9390   42.0230 H   0  0  0  0  0  0  0  0  0  0  0  0
   41.6040   29.1590   40.3610 H   0  0  0  0  0  0  0  0  0  0  0  0
   44.0140   33.1760   39.2060 N   0  0  0  0  0  0  0  0  0  0  0  0
   44.3290   33.9590   38.5910 H   0  0  0  0  0  0  0  0  0  0  0  0
   44.6450   32.6180   39.8550 H   0  0  0  0  0  0  0  0  0  0  0  0
  1  6  1  0  0  0  0
  1 12  1  0  0  0  0
  2  1  2  0  0  0  0
  3  4  2  0  0  0  0
  3  2  1  0  0  0  0
  4  5  1  0  0  0  0
  5 21  1  0  0  0  0
  5  6  2  0  0  0  0
  7  3  1  0  0  0  0
  8 14  1  0  0  0  0
  8  7  1  0  0  0  0
  9 10  1  0  0  0  0
  9  8  1  0  0  0  0
 10 18  1  0  0  0  0
 10 11  1  0  0  0  0
 11  7  1  0  0  0  0
 11 20  1  0  0  0  0
 13  8  1  0  0  0  0
 15  9  1  0  0  0  0
 16  9  1  0  0  0  0
 17 10  1  0  0  0  0
 19 11  1  0  0  0  0
 21 30  1  0  0  0  0
 22 21  2  0  0  0  0
 22 23  1  0  0  0  0
 23 24  2  0  0  0  0
 24 25  1  0  0  0  0
 25 26  1  0  0  0  0
 26 32  1  0  0  0  0
 26 27  2  0  0  0  0
 27 33  1  0  0  0  0
 28 34  1  0  0  0  0
 28 27  1  0  0  0  0
 29 28  2  0  0  0  0
 30 29  1  0  0  0  0
 30 25  2  0  0  0  0
 31 23  1  0  0  0  0
 34 40  1  0  0  0  0
 35 34  2  0  0  0  0
 35 37  1  0  0  0  0
 36 35  1  0  0  0  0
 37 38  1  0  0  0  0
 38 39  1  0  0  0  0
 40 38  2  0  0  0  0
 41 29  1  0  0  0  0
 41 42  1  0  0  0  0
 43 41  1  0  0  0  0
 44  2  1  0  0  0  0
 44 46  1  0  0  0  0
 45 44  1  0  0  0  0
M  END
>  <minimizedAffinity>
-5.82078362

$$$$

 OpenBabel03252502103D

 46 50  0  0  0  0  0  0  0  0999 V2000
   38.1100   30.7850   38.1390 C   0  0  0  0  0  0  0  0  0  0  0  0
   39.2030   31.6340   37.9350 C   0  0  0  0  0  0  0  0  0  0  0  0
   40.1180   31.7090   38.9420 C   0  0  0  0  0  0  0  0  0  0  0  0
   39.9530   30.9900   40.0540 N   0  0  0  0  0  0  0  0  0  0  0  0
   38.9370   30.1830   40.2670 C   0  0  0  0  0  0  0  0  0  0  0  0
   38.0110   30.0940   39.2830 N   0  0  0  0  0  0  0  0  0  0  0  0
   41.2060   32.5420   38.8190 N   0  0  0  0  0  0  0  0  0  0  0  0
   42.1620   32.8500   39.9140 C   0  0  0  0  0  0  0  0  0  0  0  0
   43.3280   33.5380   39.2670 C   0  0  0  0  0  0  0  0  0  0  0  0
   42.7350   34.1600   38.0590 C   0  0  0  0  0  0  0  0  0  0  0  0
   41.6190   33.2680   37.6500 C   0  0  0  0  0  0  0  0  0  0  0  0
   37.3480   30.6920   37.3630 H   0  0  0  0  0  0  0  0  0  0  0  0
   42.4360   31.9240   40.4590 H   0  0  0  0  0  0  0  0  0  0  0  0
   41.6370   33.5760   40.5820 H   0  0  0  0  0  0  0  0  0  0  0  0
   44.1810   32.8780   39.0800 H   0  0  0  0  0  0  0  0  0  0  0  0
   43.6830   34.3680   39.9290 H   0  0  0  0  0  0  0  0  0  0  0  0
   43.5010   34.1150   37.2420 H   0  0  0  0  0  0  0  0  0  0  0  0
   42.4880   35.2290   38.1650 H   0  0  0  0  0  0  0  0  0  0  0  0
   41.9150   32.5350   36.8890 H   0  0  0  0  0  0  0  0  0  0  0  0
   40.8310   33.9720   37.2920 H   0  0  0  0  0  0  0  0  0  0  0  0
   38.5900   29.2810   41.4000 C   0  0  0  0  0  0  0  0  0  0  0  0
   37.7870   29.6330   42.4060 N   0  0  0  0  0  0  0  0  0  0  0  0
   37.4530   28.8550   43.4270 C   0  0  0  0  0  0  0  0  0  0  0  0
   37.9430   27.5940   43.4970 N   0  0  0  0  0  0  0  0  0  0  0  0
   38.7650   27.1230   42.5410 C   0  0  0  0  0  0  0  0  0  0  0  0
   39.2600   25.8440   42.6180 C   0  0  0  0  0  0  0  0  0  0  0  0
   40.0920   25.3520   41.6650 C   0  0  0  0  0  0  0  0  0  0  0  0
   40.4350   26.1810   40.6000 C   0  0  0  0  0  0  0  0  0  0  0  0
   39.8980   27.4670   40.5810 C   0  0  0  0  0  0  0  0  0  0  0  0
   39.0700   27.9820   41.5130 C   0  0  0  0  0  0  0  0  0  0  0  0
   36.7970   29.1820   44.2230 H   0  0  0  0  0  0  0  0  0  0  0  0
   38.9500   25.2600   43.4740 H   0  0  0  0  0  0  0  0  0  0  0  0
   40.4470   24.3430   41.7800 H   0  0  0  0  0  0  0  0  0  0  0  0
   41.3440   25.6570   39.5520 C   0  0  0  0  0  0  0  0  0  0  0  0
   40.9660   24.6170   38.7220 C   0  0  0  0  0  0  0  0  0  0  0  0
   40.0200   24.0480   38.6920 H   0  0  0  0  0  0  0  0  0  0  0  0
   42.4780   24.4160   37.6540 S   0  0  0  0  0  0  0  0  0  0  0  0
   43.3600   25.8260   38.5670 C   0  0  0  0  0  0  0  0  0  0  0  0
   44.3640   26.2140   38.3820 H   0  0  0  0  0  0  0  0  0  0  0  0
   42.5630   26.1530   39.3520 N   0  0  0  0  0  0  0  0  0  0  0  0
   40.3380   28.1820   39.4250 N   0  0  0  0  0  0  0  0  0  0  0  0
   41.2570   28.5900   39.7620 H   0  0  0  0  0  0  0  0  0  0  0  0
   39.9670   28.3330   38.4660 H   0  0  0  0  0  0  0  0  0  0  0  0
   39.2870   32.2880   36.7340 N   0  0  0  0  0  0  0  0  0  0  0  0
   39.8130   32.0950   35.8530 H   0  0  0  0  0  0  0  0  0  0  0  0
   38.6390   33.1170   36.8890 H   0  0  0  0  0  0  0  0  0  0  0  0
  1  6  1  0  0  0  0
  2  1  2  0  0  0  0
  2  3  1  0  0  0  0
  3  4  2  0  0  0  0
  4  5  1  0  0  0  0
  5 21  1  0  0  0  0
  6  5  2  0  0  0  0
  7  3  1  0  0  0  0
  7  8  1  0  0  0  0
  8 13  1  0  0  0  0
  8 14  1  0  0  0  0
  9  8  1  0  0  0  0
  9 16  1  0  0  0  0
 10 18  1  0  0  0  0
 10  9  1  0  0  0  0
 11 10  1  0  0  0  0
 11  7  1  0  0  0  0
 12  1  1  0  0  0  0
 15  9  1  0  0  0  0
 17 10  1  0  0  0  0
 19 11  1  0  0  0  0
 20 11  1  0  0  0  0
 21 30  2  0  0  0  0
 21 22  1  0  0  0  0
 22 23  2  0  0  0  0
 23 24  1  0  0  0  0
 23 31  1  0  0  0  0
 25 26  1  0  0  0  0
 25 24  2  0  0  0  0
 26 32  1  0  0  0  0
 27 33  1  0  0  0  0
 27 26  2  0  0  0  0
 28 27  1  0  0  0  0
 29 28  2  0  0  0  0
 29 30  1  0  0  0  0
 30 25  1  0  0  0  0
 34 28  1  0  0  0  0
 35 34  2  0  0  0  0
 36 35  1  0  0  0  0
 37 38  1  0  0  0  0
 37 35  1  0  0  0  0
 38 40  2  0  0  0  0
 39 38  1  0  0  0  0
 40 34  1  0  0  0  0
 41 42  1  0  0  0  0
 41 29  1  0  0  0  0
 43 41  1  0  0  0  0
 44 46  1  0  0  0  0
 44  2  1  0  0  0  0
 45 44  1  0  0  0  0
M  END
>  <minimizedAffinity>
-5.78384542

$$$$

 OpenBabel03252502103D

 46 50  0  0  0  0  0  0  0  0999 V2000
   37.8060   29.2520   36.7540 C   0  0  0  0  0  0  0  0  0  0  0  0
   36.5710   29.3230   36.1010 C   0  0  0  0  0  0  0  0  0  0  0  0
   35.4580   29.2190   36.8800 C   0  0  0  0  0  0  0  0  0  0  0  0
   35.5740   29.0620   38.2000 N   0  0  0  0  0  0  0  0  0  0  0  0
   36.7230   28.9950   38.8370 C   0  0  0  0  0  0  0  0  0  0  0  0
   37.8430   29.0920   38.0850 N   0  0  0  0  0  0  0  0  0  0  0  0
   34.2100   29.2580   36.3010 N   0  0  0  0  0  0  0  0  0  0  0  0
   32.9390   28.9690   37.0140 C   0  0  0  0  0  0  0  0  0  0  0  0
   31.8370   29.4170   36.0990 C   0  0  0  0  0  0  0  0  0  0  0  0
   32.4420   29.3050   34.7500 C   0  0  0  0  0  0  0  0  0  0  0  0
   33.8940   29.5660   34.9340 C   0  0  0  0  0  0  0  0  0  0  0  0
   38.7270   29.3270   36.1750 H   0  0  0  0  0  0  0  0  0  0  0  0
   32.9290   29.4690   38.0040 H   0  0  0  0  0  0  0  0  0  0  0  0
   32.8950   27.8570   37.1180 H   0  0  0  0  0  0  0  0  0  0  0  0
   31.4310   30.4030   36.3470 H   0  0  0  0  0  0  0  0  0  0  0  0
   30.9930   28.6830   36.1470 H   0  0  0  0  0  0  0  0  0  0  0  0
   32.0400   30.1450   34.1260 H   0  0  0  0  0  0  0  0  0  0  0  0
   32.1800   28.3870   34.2020 H   0  0  0  0  0  0  0  0  0  0  0  0
   34.1660   30.6140   34.7560 H   0  0  0  0  0  0  0  0  0  0  0  0
   34.3840   28.8630   34.2200 H   0  0  0  0  0  0  0  0  0  0  0  0
   37.0650   28.8610   40.2800 C   0  0  0  0  0  0  0  0  0  0  0  0
   37.3400   29.8980   41.0730 N   0  0  0  0  0  0  0  0  0  0  0  0
   37.6430   29.8170   42.3620 C   0  0  0  0  0  0  0  0  0  0  0  0
   37.6900   28.6050   42.9640 N   0  0  0  0  0  0  0  0  0  0  0  0
   37.4320   27.4820   42.2680 C   0  0  0  0  0  0  0  0  0  0  0  0
   37.4830   26.2550   42.8840 C   0  0  0  0  0  0  0  0  0  0  0  0
   37.2290   25.1120   42.1970 C   0  0  0  0  0  0  0  0  0  0  0  0
   36.9130   25.2130   40.8440 C   0  0  0  0  0  0  0  0  0  0  0  0
   36.8780   26.4870   40.2810 C   0  0  0  0  0  0  0  0  0  0  0  0
   37.1260   27.6390   40.9380 C   0  0  0  0  0  0  0  0  0  0  0  0
   37.8590   30.6860   42.9690 H   0  0  0  0  0  0  0  0  0  0  0  0
   37.7350   26.2550   43.9360 H   0  0  0  0  0  0  0  0  0  0  0  0
   37.2840   24.1810   42.7340 H   0  0  0  0  0  0  0  0  0  0  0  0
   36.6350   23.9720   40.0830 C   0  0  0  0  0  0  0  0  0  0  0  0
   37.6540   23.1320   39.6710 C   0  0  0  0  0  0  0  0  0  0  0  0
   38.7440   23.2230   39.8200 H   0  0  0  0  0  0  0  0  0  0  0  0
   36.7080   21.7910   38.7920 S   0  0  0  0  0  0  0  0  0  0  0  0
   35.0600   22.6550   39.1620 C   0  0  0  0  0  0  0  0  0  0  0  0
   34.0580   22.3260   38.8790 H   0  0  0  0  0  0  0  0  0  0  0  0
   35.4000   23.5990   39.7540 N   0  0  0  0  0  0  0  0  0  0  0  0
   36.5330   26.4190   38.8970 N   0  0  0  0  0  0  0  0  0  0  0  0
   37.4810   26.2650   38.4470 H   0  0  0  0  0  0  0  0  0  0  0  0
   35.6480   26.4760   38.3530 H   0  0  0  0  0  0  0  0  0  0  0  0
   36.5780   29.5300   34.7470 N   0  0  0  0  0  0  0  0  0  0  0  0
   36.4610   30.3830   34.1560 H   0  0  0  0  0  0  0  0  0  0  0  0
   36.7460   28.5490   34.3750 H   0  0  0  0  0  0  0  0  0  0  0  0
  1  6  1  0  0  0  0
  2  1  2  0  0  0  0
  2  3  1  0  0  0  0
  3  4  2  0  0  0  0
  4  5  1  0  0  0  0
  5 21  1  0  0  0  0
  6  5  2  0  0  0  0
  7  3  1  0  0  0  0
  7  8  1  0  0  0  0
  8 14  1  0  0  0  0
  8 13  1  0  0  0  0
  9 16  1  0  0  0  0
  9 15  1  0  0  0  0
  9  8  1  0  0  0  0
 10 11  1  0  0  0  0
 10  9  1  0  0  0  0
 11  7  1  0  0  0  0
 12  1  1  0  0  0  0
 17 10  1  0  0  0  0
 18 10  1  0  0  0  0
 19 11  1  0  0  0  0
 20 11  1  0  0  0  0
 21 30  2  0  0  0  0
 21 22  1  0  0  0  0
 22 23  2  0  0  0  0
 23 24  1  0  0  0  0
 23 31  1  0  0  0  0
 25 26  1  0  0  0  0
 25 24  2  0  0  0  0
 26 32  1  0  0  0  0
 27 33  1  0  0  0  0
 27 26  2  0  0  0  0
 28 27  1  0  0  0  0
 29 28  2  0  0  0  0
 29 30  1  0  0  0  0
 30 25  1  0  0  0  0
 34 28  1  0  0  0  0
 35 36  1  0  0  0  0
 35 34  2  0  0  0  0
 37 38  1  0  0  0  0
 37 35  1  0  0  0  0
 38 40  2  0  0  0  0
 39 38  1  0  0  0  0
 40 34  1  0  0  0  0
 41 29  1  0  0  0  0
 42 41  1  0  0  0  0
 43 41  1  0  0  0  0
 44  2  1  0  0  0  0
 45 44  1  0  0  0  0
 46 44  1  0  0  0  0
M  END
>  <minimizedAffinity>
-5.73831654

$$$$

 OpenBabel03252502103D

 46 50  0  0  0  0  0  0  0  0999 V2000
   38.6750   28.8870   36.7090 C   0  0  0  0  0  0  0  0  0  0  0  0
   37.4020   28.9090   36.1310 C   0  0  0  0  0  0  0  0  0  0  0  0
   36.3410   28.9670   36.9830 C   0  0  0  0  0  0  0  0  0  0  0  0
   36.5410   29.0050   38.3030 N   0  0  0  0  0  0  0  0  0  0  0  0
   37.7270   28.9890   38.8700 C   0  0  0  0  0  0  0  0  0  0  0  0
   38.7980   28.9270   38.0440 N   0  0  0  0  0  0  0  0  0  0  0  0
   35.0590   28.9680   36.4840 N   0  0  0  0  0  0  0  0  0  0  0  0
   33.8300   28.8390   37.3100 C   0  0  0  0  0  0  0  0  0  0  0  0
   32.6840   29.1880   36.4070 C   0  0  0  0  0  0  0  0  0  0  0  0
   33.1930   28.8510   35.0560 C   0  0  0  0  0  0  0  0  0  0  0  0
   34.6610   29.0790   35.1080 C   0  0  0  0  0  0  0  0  0  0  0  0
   39.5570   28.8390   36.0690 H   0  0  0  0  0  0  0  0  0  0  0  0
   33.9020   29.4820   38.2100 H   0  0  0  0  0  0  0  0  0  0  0  0
   33.7610   27.7580   37.5840 H   0  0  0  0  0  0  0  0  0  0  0  0
   32.3250   30.2150   36.5270 H   0  0  0  0  0  0  0  0  0  0  0  0
   31.8240   28.5030   36.6190 H   0  0  0  0  0  0  0  0  0  0  0  0
   32.7750   29.6030   34.3380 H   0  0  0  0  0  0  0  0  0  0  0  0
   32.8680   27.8720   34.6710 H   0  0  0  0  0  0  0  0  0  0  0  0
   34.9510   30.0770   34.7560 H   0  0  0  0  0  0  0  0  0  0  0  0
   35.0820   28.2580   34.4810 H   0  0  0  0  0  0  0  0  0  0  0  0
   38.1620   29.0600   40.2920 C   0  0  0  0  0  0  0  0  0  0  0  0
   38.3370   30.2050   40.9550 N   0  0  0  0  0  0  0  0  0  0  0  0
   38.7180   30.3050   42.2220 C   0  0  0  0  0  0  0  0  0  0  0  0
   38.9590   29.1820   42.9400 N   0  0  0  0  0  0  0  0  0  0  0  0
   38.8170   27.9660   42.3810 C   0  0  0  0  0  0  0  0  0  0  0  0
   39.0660   26.8310   43.1140 C   0  0  0  0  0  0  0  0  0  0  0  0
   38.9310   25.5960   42.5670 C   0  0  0  0  0  0  0  0  0  0  0  0
   38.5320   25.5060   41.2350 C   0  0  0  0  0  0  0  0  0  0  0  0
   38.2950   26.6960   40.5480 C   0  0  0  0  0  0  0  0  0  0  0  0
   38.4210   27.9350   41.0660 C   0  0  0  0  0  0  0  0  0  0  0  0
   38.8470   31.2560   42.7210 H   0  0  0  0  0  0  0  0  0  0  0  0
   39.3720   26.9790   44.1410 H   0  0  0  0  0  0  0  0  0  0  0  0
   39.1390   24.7450   43.1910 H   0  0  0  0  0  0  0  0  0  0  0  0
   38.3820   24.1640   40.6250 C   0  0  0  0  0  0  0  0  0  0  0  0
   37.3830   23.2950   41.0260 C   0  0  0  0  0  0  0  0  0  0  0  0
   36.6000   23.4290   41.7940 H   0  0  0  0  0  0  0  0  0  0  0  0
   37.6990   21.8220   39.9310 S   0  0  0  0  0  0  0  0  0  0  0  0
   39.1710   22.6950   39.1140 C   0  0  0  0  0  0  0  0  0  0  0  0
   39.8200   22.3090   38.3250 H   0  0  0  0  0  0  0  0  0  0  0  0
   39.1910   23.7220   39.6650 N   0  0  0  0  0  0  0  0  0  0  0  0
   37.8890   26.4320   39.2050 N   0  0  0  0  0  0  0  0  0  0  0  0
   38.8240   26.3520   38.7100 H   0  0  0  0  0  0  0  0  0  0  0  0
   36.9770   26.3160   38.7200 H   0  0  0  0  0  0  0  0  0  0  0  0
   37.3240   28.9100   34.7630 N   0  0  0  0  0  0  0  0  0  0  0  0
   37.1940   29.6690   34.0570 H   0  0  0  0  0  0  0  0  0  0  0  0
   37.4380   27.8780   34.5350 H   0  0  0  0  0  0  0  0  0  0  0  0
  1  6  1  0  0  0  0
  2  1  2  0  0  0  0
  2  3  1  0  0  0  0
  3  4  2  0  0  0  0
  4  5  1  0  0  0  0
  5 21  1  0  0  0  0
  6  5  2  0  0  0  0
  7  3  1  0  0  0  0
  7  8  1  0  0  0  0
  8 14  1  0  0  0  0
  8 13  1  0  0  0  0
  9 15  1  0  0  0  0
  9 16  1  0  0  0  0
  9  8  1  0  0  0  0
 10 11  1  0  0  0  0
 10  9  1  0  0  0  0
 11  7  1  0  0  0  0
 12  1  1  0  0  0  0
 17 10  1  0  0  0  0
 18 10  1  0  0  0  0
 19 11  1  0  0  0  0
 20 11  1  0  0  0  0
 21 22  2  0  0  0  0
 21 30  1  0  0  0  0
 22 23  1  0  0  0  0
 23 31  1  0  0  0  0
 23 24  2  0  0  0  0
 25 24  1  0  0  0  0
 25 26  1  0  0  0  0
 26 32  1  0  0  0  0
 27 26  2  0  0  0  0
 27 33  1  0  0  0  0
 28 27  1  0  0  0  0
 29 30  1  0  0  0  0
 29 28  2  0  0  0  0
 30 25  2  0  0  0  0
 34 35  2  0  0  0  0
 34 28  1  0  0  0  0
 35 36  1  0  0  0  0
 37 35  1  0  0  0  0
 38 40  2  0  0  0  0
 38 37  1  0  0  0  0
 39 38  1  0  0  0  0
 40 34  1  0  0  0  0
 41 29  1  0  0  0  0
 42 41  1  0  0  0  0
 43 41  1  0  0  0  0
 44  2  1  0  0  0  0
 45 44  1  0  0  0  0
 46 44  1  0  0  0  0
M  END
>  <minimizedAffinity>
-5.72628975

$$$$
