REMARK  Name = 
REMARK  4 active torsions:
REMARK  status: ('A' for Active; 'I' for Inactive)
REMARK    1  A    between atoms: C_1  and  C_2
REMARK    2  A    between atoms: C_1  and  C_14
REMARK    3  A    between atoms: C_13  and  C_15
REMARK    4  A    between atoms: C_19  and  C_39
REMARK                            x       y       z     vdW  Elec       q    Type
REMARK                         _______ _______ _______ _____ _____    ______ ____
ROOT
ATOM      1  C   UNL     1      46.405  32.163  47.791  0.00  0.00    +0.000 A 
ATOM      2  C   UNL     1      45.945  31.861  49.044  0.00  0.00    +0.000 A 
ATOM      3  N   UNL     1      46.922  31.167  49.641  0.00  0.00    +0.000 N 
ATOM      4  C   UNL     1      47.972  31.020  48.824  0.00  0.00    +0.000 A 
ATOM      5  N   UNL     1      47.630  31.653  47.663  0.00  0.00    +0.000 NA
ATOM      6  N   UNL     1      49.218  30.373  49.005  0.00  0.00    +0.000 N 
ATOM      7  C   UNL     1      50.319  31.149  49.601  0.00  0.00    +0.000 C 
ATOM      8  C   UNL     1      50.421  30.638  51.035  0.00  0.00    +0.000 C 
ATOM      9  C   UNL     1      50.434  29.130  51.052  0.00  0.00    +0.000 C 
ATOM     10  C   UNL     1      50.737  28.599  49.667  0.00  0.00    +0.000 C 
ATOM     11  C   UNL     1      49.663  29.034  48.710  0.00  0.00    +0.000 C 
ATOM     12  H   UNL     1      44.987  32.118  49.491  0.00  0.00    +0.000 HD
ATOM     13  H   UNL     1      46.898  30.780  50.612  0.00  0.00    +0.000 HD
ATOM     14  H   UNL     1      51.261  31.009  49.059  0.00  0.00    +0.000 HD
ATOM     15  H   UNL     1      50.070  32.233  49.632  0.00  0.00    +0.000 HD
ATOM     16  H   UNL     1      49.655  31.088  51.674  0.00  0.00    +0.000 HD
ATOM     17  H   UNL     1      51.398  30.952  51.470  0.00  0.00    +0.000 HD
ATOM     18  H   UNL     1      49.478  28.712  51.456  0.00  0.00    +0.000 HD
ATOM     19  H   UNL     1      51.238  28.707  51.718  0.00  0.00    +0.000 HD
ATOM     20  H   UNL     1      50.805  27.480  49.734  0.00  0.00    +0.000 HD
ATOM     21  H   UNL     1      51.734  28.962  49.386  0.00  0.00    +0.000 HD
ATOM     22  H   UNL     1      49.977  28.920  47.665  0.00  0.00    +0.000 HD
ATOM     23  H   UNL     1      48.783  28.361  48.920  0.00  0.00    +0.000 HD
ENDROOT
BRANCH   1  24
ATOM     24  C   UNL     1      45.674  32.933  46.735  0.00  0.00    +0.000 C 
ATOM     25  H   UNL     1      45.262  33.886  47.128  0.00  0.00    +0.000 HD
ATOM     26  H   UNL     1      44.788  32.300  46.476  0.00  0.00    +0.000 HD
BRANCH  24  28
ATOM     27  C   UNL     1      46.096  33.773  44.466  0.00  0.00    +0.000 C 
ATOM     28  C   UNL     1      46.541  33.208  45.581  0.00  0.00    +0.000 C 
BRANCH  27  29
ATOM     29  C   UNL     1      47.071  33.992  43.388  0.00  0.00    +0.000 A 
ATOM     30  C   UNL     1      46.919  34.987  42.396  0.00  0.00    +0.000 A 
ATOM     31  C   UNL     1      47.885  35.117  41.429  0.00  0.00    +0.000 A 
ATOM     32  N   UNL     1      48.952  34.294  41.450  0.00  0.00    +0.000 NA
ATOM     33  C   UNL     1      49.083  33.348  42.403  0.00  0.00    +0.000 A 
ATOM     34  N   UNL     1      48.173  33.194  43.349  0.00  0.00    +0.000 NA
ATOM     35  H   UNL     1      46.035  35.602  42.456  0.00  0.00    +0.000 HD
ATOM     36  H   UNL     1      47.787  35.873  40.663  0.00  0.00    +0.000 HD
BRANCH  33  37
ATOM     37  C   UNL     1      50.223  32.407  42.492  0.00  0.00    +0.000 A 
ATOM     38  C   UNL     1      51.297  32.032  41.504  0.00  0.00    +0.000 A 
ATOM     39  H   UNL     1      51.015  32.715  40.535  0.00  0.00    +0.000 HD
ATOM     40  S   UNL     1      52.223  30.788  42.591  0.00  0.00    +0.000 S 
ATOM     41  C   UNL     1      51.039  31.026  44.049  0.00  0.00    +0.000 A 
ATOM     42  H   UNL     1      51.408  30.369  44.819  0.00  0.00    +0.000 HD
ATOM     43  N   UNL     1      50.151  31.884  43.714  0.00  0.00    +0.000 NA
ENDBRANCH  33  37
ENDBRANCH  27  29
ENDBRANCH  24  28
ENDBRANCH   1  24
TORSDOF 4
