
 OpenBabel03252505073D

 41 44  0  0  1  0  0  0  0  0999 V2000
   44.5790   35.5890   44.6140 C   0  0  0  0  0  0  0  0  0  0  0  0
   45.2250   35.5990   43.3560 C   0  0  0  0  0  0  0  0  0  0  0  0
   46.3040   34.6860   43.1750 C   0  0  0  0  0  0  0  0  0  0  0  0
   46.6590   33.8640   44.1960 N   0  0  0  0  0  0  0  0  0  0  0  0
   46.0100   33.8940   45.3770 C   0  0  0  0  0  0  0  0  0  0  0  0
   44.9670   34.7540   45.5940 N   0  0  0  0  0  0  0  0  0  0  0  0
   43.7530   36.2630   44.8000 H   0  0  0  0  0  0  0  0  0  0  0  0
   44.9020   36.2780   42.5750 H   0  0  0  0  0  0  0  0  0  0  0  0
   46.4370   32.9750   46.4640 C   0  0  2  0  0  0  0  0  0  0  0  0
   46.9770   31.7520   45.7800 C   0  0  0  0  0  0  0  0  0  0  0  0
   46.1220   30.5590   45.7920 C   0  0  0  0  0  0  0  0  0  0  0  0
   45.7810   30.2900   47.2470 C   0  0  0  0  0  0  0  0  0  0  0  0
   45.0000   31.3680   47.8510 C   0  0  0  0  0  0  0  0  0  0  0  0
   45.3750   32.7360   47.4160 C   0  0  0  0  0  0  0  0  0  0  0  0
   47.2680   33.5130   46.9820 H   0  0  0  0  0  0  0  0  0  0  0  0
   47.2640   31.9510   44.7140 H   0  0  0  0  0  0  0  0  0  0  0  0
   47.9430   31.4890   46.2690 H   0  0  0  0  0  0  0  0  0  0  0  0
   46.7370   29.6940   45.4690 H   0  0  0  0  0  0  0  0  0  0  0  0
   45.2090   30.6320   45.1690 H   0  0  0  0  0  0  0  0  0  0  0  0
   45.1300   29.4100   47.2350 H   0  0  0  0  0  0  0  0  0  0  0  0
   46.7120   30.1530   47.8060 H   0  0  0  0  0  0  0  0  0  0  0  0
   44.2010   31.3770   48.5540 H   0  0  0  0  0  0  0  0  0  0  0  0
   44.6850   33.8710   47.9360 N   0  0  0  0  0  0  0  0  0  0  0  0
   45.2370   34.5210   48.5390 H   0  0  0  0  0  0  0  0  0  0  0  0
   43.6620   33.9710   47.6690 H   0  0  0  0  0  0  0  0  0  0  0  0
   46.9940   34.6660   41.8920 C   0  0  0  0  0  0  0  0  0  0  0  0
   48.1470   35.3680   41.7680 C   0  0  0  0  0  0  0  0  0  0  0  0
   48.7750   35.3160   40.5090 C   0  0  0  0  0  0  0  0  0  0  0  0
   48.1510   34.5590   39.5430 C   0  0  0  0  0  0  0  0  0  0  0  0
   46.9990   33.8560   39.6660 C   0  0  0  0  0  0  0  0  0  0  0  0
   46.4500   33.9540   40.9130 N   0  0  0  0  0  0  0  0  0  0  0  0
   48.6180   35.9570   42.5470 H   0  0  0  0  0  0  0  0  0  0  0  0
   49.6870   35.8300   40.2940 H   0  0  0  0  0  0  0  0  0  0  0  0
   48.6530   34.5260   38.5630 H   0  0  0  0  0  0  0  0  0  0  0  0
   46.3710   33.0610   38.6040 C   0  0  0  0  0  0  0  0  0  0  0  0
   45.6480   31.9570   38.9420 C   0  0  0  0  0  0  0  0  0  0  0  0
   45.3590   31.4210   39.8480 H   0  0  0  0  0  0  0  0  0  0  0  0
   45.0630   31.2930   37.3200 S   0  0  0  0  0  0  0  0  0  0  0  0
   45.9590   32.7170   36.4400 C   0  0  0  0  0  0  0  0  0  0  0  0
   46.1990   33.2090   35.3020 H   0  0  0  0  0  0  0  0  0  0  0  0
   46.4050   33.2670   37.3080 N   0  0  0  0  0  0  0  0  0  0  0  0
  1  7  1  0  0  0  0
  1  6  1  0  0  0  0
  2  1  2  0  0  0  0
  3  2  1  0  0  0  0
  3  4  2  0  0  0  0
  4  5  1  0  0  0  0
  5  6  2  0  0  0  0
  5  9  1  0  0  0  0
  8  2  1  0  0  0  0
  9 15  1  1  0  0  0
  9 14  1  0  0  0  0
 10 11  1  0  0  0  0
 10 17  1  0  0  0  0
 10  9  1  0  0  0  0
 11 12  1  0  0  0  0
 12 21  1  0  0  0  0
 12 13  1  0  0  0  0
 13 22  1  0  0  0  0
 14 13  2  0  0  0  0
 14 23  1  0  0  0  0
 16 10  1  0  0  0  0
 18 11  1  0  0  0  0
 19 11  1  0  0  0  0
 20 12  1  0  0  0  0
 23 24  1  0  0  0  0
 25 23  1  0  0  0  0
 26  3  1  0  0  0  0
 27 26  1  0  0  0  0
 27 32  1  0  0  0  0
 28 27  2  0  0  0  0
 29 30  2  0  0  0  0
 29 28  1  0  0  0  0
 30 31  1  0  0  0  0
 31 26  2  0  0  0  0
 33 28  1  0  0  0  0
 34 29  1  0  0  0  0
 35 36  2  0  0  0  0
 35 30  1  0  0  0  0
 36 37  1  0  0  0  0
 38 36  1  0  0  0  0
 39 41  2  0  0  0  0
 39 38  1  0  0  0  0
 40 39  1  0  0  0  0
 41 35  1  0  0  0  0
M  END
>  <minimizedAffinity>
-7.21573353

>  <minimizedRMSD>
0.0665844157

$$$$
