
 OpenBabel03242515053D

 37 39  0  0  0  0  0  0  0  0999 V2000
   44.8430   34.7030   42.1860 C   0  0  0  0  0  0  0  0  0  0  0  0
   46.0870   34.2640   41.7280 C   0  0  0  0  0  0  0  0  0  0  0  0
   47.0580   33.8470   42.6450 C   0  0  0  0  0  0  0  0  0  0  0  0
   46.7080   33.9030   43.9560 N   0  0  0  0  0  0  0  0  0  0  0  0
   45.5120   34.3260   44.3960 C   0  0  0  0  0  0  0  0  0  0  0  0
   44.6160   34.7120   43.4990 N   0  0  0  0  0  0  0  0  0  0  0  0
   46.3140   34.2390   40.6750 H   0  0  0  0  0  0  0  0  0  0  0  0
   48.3870   33.3730   42.2200 C   0  0  0  0  0  0  0  0  0  0  0  0
   48.5130   32.3100   41.3220 C   0  0  0  0  0  0  0  0  0  0  0  0
   47.6530   31.7230   40.8460 H   0  0  0  0  0  0  0  0  0  0  0  0
   50.3630   32.1670   41.1660 S   0  0  0  0  0  0  0  0  0  0  0  0
   50.6050   33.6080   42.3730 C   0  0  0  0  0  0  0  0  0  0  0  0
   51.5850   34.0070   42.6900 H   0  0  0  0  0  0  0  0  0  0  0  0
   49.5180   33.9040   42.6450 N   0  0  0  0  0  0  0  0  0  0  0  0
   45.2950   34.3260   45.8250 C   0  0  0  0  0  0  0  0  0  0  0  0
   44.4100   35.1060   46.2750 O   0  0  0  0  0  0  0  0  0  0  0  0
   46.0900   33.4480   46.6240 N   0  0  0  0  0  0  0  0  0  0  0  0
   46.2900   32.6700   47.2720 H   0  0  0  0  0  0  0  0  0  0  0  0
   47.0880   33.7330   46.5160 H   0  0  0  0  0  0  0  0  0  0  0  0
   43.6750   35.2150   40.9460 S   0  0  0  0  0  0  0  0  0  0  0  0
   41.9740   35.1350   41.5170 C   0  0  0  0  0  0  0  0  0  0  0  0
   41.6250   34.0890   41.3140 H   0  0  0  0  0  0  0  0  0  0  0  0
   41.9470   35.2310   42.6240 H   0  0  0  0  0  0  0  0  0  0  0  0
   41.0350   36.0310   40.7940 C   0  0  0  0  0  0  0  0  0  0  0  0
   41.6180   36.7850   40.2180 H   0  0  0  0  0  0  0  0  0  0  0  0
   40.3740   36.5500   41.5220 H   0  0  0  0  0  0  0  0  0  0  0  0
   41.9000   36.2130   37.8870 Cl  0  0  0  0  0  0  0  0  0  0  0  0
   40.5440   35.2880   38.4310 C   0  0  0  0  0  0  0  0  0  0  0  0
   40.2330   35.2730   39.7910 C   0  0  0  0  0  0  0  0  0  0  0  0
   39.1370   34.5150   40.1600 C   0  0  0  0  0  0  0  0  0  0  0  0
   38.3330   33.7800   39.3090 C   0  0  0  0  0  0  0  0  0  0  0  0
   38.6570   33.8090   37.9810 C   0  0  0  0  0  0  0  0  0  0  0  0
   37.6850   32.9010   36.8360 Cl  0  0  0  0  0  0  0  0  0  0  0  0
   39.7330   34.5450   37.5600 C   0  0  0  0  0  0  0  0  0  0  0  0
   38.9250   34.5280   41.2330 H   0  0  0  0  0  0  0  0  0  0  0  0
   37.4930   33.2170   39.7160 H   0  0  0  0  0  0  0  0  0  0  0  0
   40.0210   34.5920   36.5070 H   0  0  0  0  0  0  0  0  0  0  0  0
  1  6  1  0  0  0  0
  2  1  2  0  0  0  0
  2  3  1  0  0  0  0
  3  4  2  0  0  0  0
  4  5  1  0  0  0  0
  5 15  1  0  0  0  0
  6  5  2  0  0  0  0
  7  2  1  0  0  0  0
  8 14  1  0  0  0  0
  8  3  1  0  0  0  0
  9  8  2  0  0  0  0
 10  9  1  0  0  0  0
 11  9  1  0  0  0  0
 11 12  1  0  0  0  0
 12 14  2  0  0  0  0
 12 13  1  0  0  0  0
 15 16  2  0  0  0  0
 15 17  1  0  0  0  0
 17 18  1  0  0  0  0
 19 17  1  0  0  0  0
 20 21  1  0  0  0  0
 20  1  1  0  0  0  0
 21 23  1  0  0  0  0
 22 21  1  0  0  0  0
 24 21  1  0  0  0  0
 24 26  1  0  0  0  0
 25 24  1  0  0  0  0
 27 28  1  0  0  0  0
 28 29  1  0  0  0  0
 29 30  2  0  0  0  0
 29 24  1  0  0  0  0
 30 35  1  0  0  0  0
 31 36  1  0  0  0  0
 31 30  1  0  0  0  0
 32 31  2  0  0  0  0
 33 32  1  0  0  0  0
 34 32  1  0  0  0  0
 34 28  2  0  0  0  0
 37 34  1  0  0  0  0
M  END
>  <minimizedAffinity>
-6.82233667

>  <minimizedRMSD>
0.485470504

$$$$
