REMARK  Name = 
REMARK  4 active torsions:
REMARK  status: ('A' for Active; 'I' for Inactive)
REMARK    1  A    between atoms: C_2  and  C_14
REMARK    2  A    between atoms: C_3  and  S_16
REMARK    3  A    between atoms: S_16  and  C_18
REMARK    4  A    between atoms: C_22  and  C_37
REMARK                            x       y       z     vdW  Elec       q    Type
REMARK                         _______ _______ _______ _____ _____    ______ ____
ROOT
ATOM      1  C   UNL     1      47.534  32.674  44.273  0.00  0.00    +0.000 A 
ATOM      2  C   UNL     1      46.838  33.649  43.552  0.00  0.00    +0.000 A 
ATOM      3  C   UNL     1      45.784  34.370  44.089  0.00  0.00    +0.000 A 
ATOM      4  C   UNL     1      45.393  34.114  45.413  0.00  0.00    +0.000 A 
ATOM      5  N   UNL     1      44.448  34.595  46.247  0.00  0.00    +0.000 N 
ATOM      6  C   UNL     1      44.525  33.970  47.440  0.00  0.00    +0.000 A 
ATOM      7  N   UNL     1      45.535  33.096  47.320  0.00  0.00    +0.000 NA
ATOM      8  C   UNL     1      46.090  33.154  46.099  0.00  0.00    +0.000 A 
ATOM      9  C   UNL     1      47.148  32.417  45.588  0.00  0.00    +0.000 A 
ATOM     10  H   UNL     1      48.359  32.133  43.803  0.00  0.00    +0.000 HD
ATOM     11  H   UNL     1      43.816  35.349  45.877  0.00  0.00    +0.000 HD
ATOM     12  H   UNL     1      43.856  34.212  48.245  0.00  0.00    +0.000 HD
ATOM     13  H   UNL     1      47.677  31.668  46.154  0.00  0.00    +0.000 HD
ENDROOT
BRANCH   2  18
ATOM     14  C   UNL     1      47.060  33.416  39.905  0.00  0.00    +0.000 A 
ATOM     15  C   UNL     1      47.975  34.436  39.583  0.00  0.00    +0.000 A 
ATOM     16  C   UNL     1      48.500  35.190  40.641  0.00  0.00    +0.000 A 
ATOM     17  N   UNL     1      48.115  34.915  41.929  0.00  0.00    +0.000 NA
ATOM     18  C   UNL     1      47.234  33.925  42.177  0.00  0.00    +0.000 A 
ATOM     19  N   UNL     1      46.690  33.159  41.196  0.00  0.00    +0.000 NA
ATOM     20  H   UNL     1      46.614  32.794  39.143  0.00  0.00    +0.000 HD
ATOM     21  H   UNL     1      48.244  34.610  38.549  0.00  0.00    +0.000 HD
ATOM     22  H   UNL     1      49.206  35.980  40.416  0.00  0.00    +0.000 HD
ENDBRANCH   2  18
BRANCH   3  23
ATOM     23  S   UNL     1      44.914  35.598  43.169  0.00  0.00    +0.000 S 
BRANCH  23  25
ATOM     24  N   UNL     1      42.328  35.594  42.699  0.00  0.00    +0.000 NA
ATOM     25  C   UNL     1      43.522  34.950  42.213  0.00  0.00    +0.000 C 
ATOM     26  C   UNL     1      43.806  35.308  40.757  0.00  0.00    +0.000 C 
ATOM     27  O   UNL     1      42.676  35.318  39.966  0.00  0.00    +0.000 OA
ATOM     28  C   UNL     1      41.556  34.778  40.526  0.00  0.00    +0.000 C 
ATOM     29  C   UNL     1      41.211  35.505  41.785  0.00  0.00    +0.000 C 
ATOM     30  H   UNL     1      42.559  36.595  42.886  0.00  0.00    +0.000 HD
ATOM     31  H   UNL     1      43.469  33.841  42.313  0.00  0.00    +0.000 HD
ATOM     32  H   UNL     1      44.305  36.312  40.706  0.00  0.00    +0.000 HD
ATOM     33  H   UNL     1      44.425  34.512  40.323  0.00  0.00    +0.000 HD
ATOM     34  H   UNL     1      40.720  34.944  39.818  0.00  0.00    +0.000 HD
ATOM     35  H   UNL     1      41.610  33.674  40.668  0.00  0.00    +0.000 HD
ATOM     36  H   UNL     1      40.850  36.520  41.547  0.00  0.00    +0.000 HD
BRANCH  29  37
ATOM     37  C   UNL     1      40.096  34.785  42.447  0.00  0.00    +0.000 A 
ATOM     38  C   UNL     1      40.167  34.599  43.922  0.00  0.00    +0.000 A 
ATOM     39  H   UNL     1      41.155  35.053  44.541  0.00  0.00    +0.000 HD
ATOM     40  S   UNL     1      38.588  33.664  44.316  0.00  0.00    +0.000 S 
ATOM     41  C   UNL     1      38.141  33.697  42.475  0.00  0.00    +0.000 A 
ATOM     42  H   UNL     1      37.169  33.189  42.274  0.00  0.00    +0.000 HD
ATOM     43  N   UNL     1      38.987  34.244  41.964  0.00  0.00    +0.000 NA
ENDBRANCH  29  37
ENDBRANCH  23  25
ENDBRANCH   3  23
TORSDOF 4
