
 OpenBabel03252504493D

 22 23  0  0  0  0  0  0  0  0999 V2000
   47.6650   34.0030   42.6520 C   0  0  0  0  0  0  0  0  0  0  0  0
   48.3080   32.9130   42.0690 C   0  0  0  0  0  0  0  0  0  0  0  0
   48.3640   31.7330   42.8100 C   0  0  0  0  0  0  0  0  0  0  0  0
   47.7910   31.7100   44.0520 N   0  0  0  0  0  0  0  0  0  0  0  0
   47.1760   32.7860   44.5830 C   0  0  0  0  0  0  0  0  0  0  0  0
   47.1110   33.9440   43.8790 N   0  0  0  0  0  0  0  0  0  0  0  0
   47.5920   34.9510   42.1170 H   0  0  0  0  0  0  0  0  0  0  0  0
   48.8510   30.8650   42.3980 H   0  0  0  0  0  0  0  0  0  0  0  0
   46.5710   32.7400   45.9110 C   0  0  0  0  0  0  0  0  0  0  0  0
   47.0750   31.8480   46.9090 C   0  0  0  0  0  0  0  0  0  0  0  0
   47.8780   31.1800   46.8030 H   0  0  0  0  0  0  0  0  0  0  0  0
   45.9540   32.2240   48.3300 S   0  0  0  0  0  0  0  0  0  0  0  0
   45.0100   33.5210   47.2990 C   0  0  0  0  0  0  0  0  0  0  0  0
   44.1620   34.1160   47.6670 H   0  0  0  0  0  0  0  0  0  0  0  0
   45.5520   33.4790   46.2990 N   0  0  0  0  0  0  0  0  0  0  0  0
   48.8700   33.0600   40.7490 C   0  0  0  0  0  0  0  0  0  0  0  0
   49.1920   34.0840   40.5520 H   0  0  0  0  0  0  0  0  0  0  0  0
   48.0850   32.7710   39.9950 H   0  0  0  0  0  0  0  0  0  0  0  0
   50.0090   32.0690   40.5930 C   0  0  0  0  0  0  0  0  0  0  0  0
   50.0070   31.6600   39.5430 H   0  0  0  0  0  0  0  0  0  0  0  0
   49.9650   31.2960   41.3600 H   0  0  0  0  0  0  0  0  0  0  0  0
   50.9750   32.6470   40.6930 H   0  0  0  0  0  0  0  0  0  0  0  0
  1  6  1  0  0  0  0
  2  1  2  0  0  0  0
  2  3  1  0  0  0  0
  3  4  2  0  0  0  0
  4  5  1  0  0  0  0
  5  9  1  0  0  0  0
  6  5  2  0  0  0  0
  7  1  1  0  0  0  0
  8  3  1  0  0  0  0
  9 15  1  0  0  0  0
  9 10  2  0  0  0  0
 10 12  1  0  0  0  0
 11 10  1  0  0  0  0
 13 14  1  0  0  0  0
 13 12  1  0  0  0  0
 15 13  2  0  0  0  0
 16  2  1  0  0  0  0
 17 16  1  0  0  0  0
 18 16  1  0  0  0  0
 19 22  1  0  0  0  0
 19 16  1  0  0  0  0
 19 21  1  0  0  0  0
 20 19  1  0  0  0  0
M  END
>  <minimizedAffinity>
-2.99312162

>  <minimizedRMSD>
2.67563343

$$$$
