
     RDKit          3D

 22 23  0  0  0  0  0  0  0  0999 V2000
   45.1934   35.2166   44.0451 C   0  0  0  0  0  0  0  0  0  0  0  0
   46.2340   34.5784   43.3744 C   0  0  0  0  0  0  0  0  0  0  0  0
   46.9095   33.5672   44.0564 C   0  0  0  0  0  0  0  0  0  0  0  0
   46.5180   33.2607   45.3311 N   0  0  0  0  0  0  0  0  0  0  0  0
   45.5050   33.9009   45.9482 C   0  0  0  0  0  0  0  0  0  0  0  0
   44.8349   34.8879   45.3023 N   0  0  0  0  0  0  0  0  0  0  0  0
   46.5502   34.9887   42.0284 C   0  0  0  0  0  0  0  0  0  0  0  0
   48.0510   35.1856   41.9201 C   0  0  0  0  0  0  0  0  0  0  0  0
   44.6311   36.0150   43.5591 H   0  0  0  0  0  0  0  0  0  0  0  0
   47.7214   33.0469   43.5753 H   0  0  0  0  0  0  0  0  0  0  0  0
   46.0001   35.8841   41.7320 H   0  0  0  0  0  0  0  0  0  0  0  0
   46.2827   34.1465   41.3285 H   0  0  0  0  0  0  0  0  0  0  0  0
   48.4025   34.8299   40.9096 H   0  0  0  0  0  0  0  0  0  0  0  0
   48.5696   34.7097   42.7520 H   0  0  0  0  0  0  0  0  0  0  0  0
   48.2466   36.2979   41.9373 H   0  0  0  0  0  0  0  0  0  0  0  0
   45.1032   33.5579   47.3095 C   0  0  0  0  0  0  0  0  0  0  0  0
   44.3653   32.3607   47.5692 C   0  0  0  0  0  0  0  0  0  0  0  0
   44.0552   31.6508   46.8603 H   0  0  0  0  0  0  0  0  0  0  0  0
   44.1510   32.4582   49.4028 S   0  0  0  0  0  0  0  0  0  0  0  0
   45.1055   34.1084   49.4702 C   0  0  0  0  0  0  0  0  0  0  0  0
   45.3030   34.6789   50.3885 H   0  0  0  0  0  0  0  0  0  0  0  0
   45.3684   34.2817   48.3765 N   0  0  0  0  0  0  0  0  0  0  0  0
  1  6  2  0
  2  1  1  0
  2  3  2  0
  3  4  1  0
  4  5  2  0
  6  5  1  0
  7  2  1  0
  8  7  1  0
  1  9  1  0
  3 10  1  0
  7 11  1  0
  7 12  1  0
  8 13  1  0
  8 14  1  0
  8 15  1  0
 16 17  2  0
 17 18  1  0
 17 19  1  0
 19 20  1  0
 20 21  1  0
 20 22  2  0
 22 16  1  0
  5 16  1  0
M  ISO  8   9  14  10  14  11   8  12   8  13   8  14   8  15   8  18  15
M  ISO  1  21  16
M  END
>  <DihAtoms>  (1) 
3,4,15,16

>  <DihDeg>  (1) 
105.13500497018347

$$$$
