
     RDKit          3D

 45 48  0  0  0  0  0  0  0  0999 V2000
   45.6736   32.9326   46.7354 C   0  0  0  0  0  0  0  0  0  0  0  0
   46.4050   32.1635   47.7913 C   0  0  0  0  0  0  0  0  0  0  0  0
   45.9451   31.8611   49.0437 C   0  0  0  0  0  0  0  0  0  0  0  0
   46.9220   31.1672   49.6412 N   0  0  0  0  0  0  0  0  0  0  0  0
   47.9718   31.0200   48.8243 C   0  0  0  0  0  0  0  0  0  0  0  0
   47.6300   31.6531   47.6634 N   0  0  0  0  0  0  0  0  0  0  0  0
   49.2183   30.3732   49.0048 N   0  0  0  0  0  0  0  0  0  0  0  0
   50.3187   31.1493   49.6008 C   0  0  0  0  0  0  0  0  0  0  0  0
   50.4207   30.6379   51.0353 C   0  0  0  0  0  0  0  0  0  0  0  0
   50.4338   29.1303   51.0517 C   0  0  0  0  0  0  0  0  0  0  0  0
   50.7372   28.5991   49.6670 C   0  0  0  0  0  0  0  0  0  0  0  0
   49.6629   29.0341   48.7097 C   0  0  0  0  0  0  0  0  0  0  0  0
   46.0962   33.7728   44.4656 C   0  0  0  0  0  0  0  0  0  0  0  0
   46.5408   33.2084   45.5809 C   0  0  0  0  0  0  0  0  0  0  0  0
   47.0705   33.9920   43.3878 C   0  0  0  0  0  0  0  0  0  0  0  0
   46.9189   34.9875   42.3964 C   0  0  0  0  0  0  0  0  0  0  0  0
   47.8854   35.1172   41.4295 C   0  0  0  0  0  0  0  0  0  0  0  0
   48.9523   34.2936   41.4496 N   0  0  0  0  0  0  0  0  0  0  0  0
   49.0827   33.3481   42.4026 C   0  0  0  0  0  0  0  0  0  0  0  0
   48.1730   33.1937   43.3493 N   0  0  0  0  0  0  0  0  0  0  0  0
   45.2624   33.8860   47.1277 H   0  0  0  0  0  0  0  0  0  0  0  0
   44.7884   32.2995   46.4764 H   0  0  0  0  0  0  0  0  0  0  0  0
   44.9868   32.1180   49.4907 H   0  0  0  0  0  0  0  0  0  0  0  0
   46.8982   30.7798   50.6125 H   0  0  0  0  0  0  0  0  0  0  0  0
   51.2605   31.0093   49.0586 H   0  0  0  0  0  0  0  0  0  0  0  0
   50.0696   32.2331   49.6321 H   0  0  0  0  0  0  0  0  0  0  0  0
   49.6547   31.0884   51.6739 H   0  0  0  0  0  0  0  0  0  0  0  0
   51.3982   30.9516   51.4702 H   0  0  0  0  0  0  0  0  0  0  0  0
   49.4782   28.7119   51.4556 H   0  0  0  0  0  0  0  0  0  0  0  0
   51.2377   28.7075   51.7179 H   0  0  0  0  0  0  0  0  0  0  0  0
   50.8047   27.4797   49.7340 H   0  0  0  0  0  0  0  0  0  0  0  0
   51.7339   28.9616   49.3863 H   0  0  0  0  0  0  0  0  0  0  0  0
   49.9770   28.9203   47.6648 H   0  0  0  0  0  0  0  0  0  0  0  0
   48.7834   28.3609   48.9201 H   0  0  0  0  0  0  0  0  0  0  0  0
   45.0524   34.0514   44.3781 H   0  0  0  0  0  0  0  0  0  0  0  0
   47.5929   32.9344   45.6525 H   0  0  0  0  0  0  0  0  0  0  0  0
   46.0347   35.6020   42.4561 H   0  0  0  0  0  0  0  0  0  0  0  0
   47.7868   35.8730   40.6630 H   0  0  0  0  0  0  0  0  0  0  0  0
   50.2234   32.4074   42.4921 C   0  0  0  0  0  0  0  0  0  0  0  0
   51.5823   32.4099   41.8412 C   0  0  0  0  0  0  0  0  0  0  0  0
   51.5513   33.4267   41.1693 H   0  0  0  0  0  0  0  0  0  0  0  0
   52.2381   30.8083   42.6096 S   0  0  0  0  0  0  0  0  0  0  0  0
   50.6426   30.5000   43.5800 C   0  0  0  0  0  0  0  0  0  0  0  0
   50.8144   29.5821   44.1179 H   0  0  0  0  0  0  0  0  0  0  0  0
   49.8243   31.4513   43.3284 N   0  0  0  0  0  0  0  0  0  0  0  0
  1  2  1  0
  2  3  2  0
  3  4  1  0
  5  7  1  0
  5  4  1  0
  6  2  1  0
  6  5  2  0
  7  8  1  0
  8  9  1  0
  9 10  1  0
 11 10  1  0
 12  7  1  0
 12 11  1  0
 13 14  2  0
 14  1  1  0
 15 13  1  0
 16 15  2  0
 17 18  2  0
 17 16  1  0
 18 19  1  0
 19 20  2  0
 20 15  1  0
  1 21  1  0
  1 22  1  0
  3 23  1  0
  4 24  1  0
  8 25  1  0
  8 26  1  0
  9 27  1  0
  9 28  1  0
 10 29  1  0
 10 30  1  0
 11 31  1  0
 11 32  1  0
 12 33  1  0
 12 34  1  0
 13 35  1  0
 14 36  1  0
 16 37  1  0
 17 38  1  0
 39 40  2  0
 40 41  1  0
 40 42  1  0
 42 43  1  0
 43 44  1  0
 43 45  2  0
 45 39  1  0
 19 39  1  0
M  ISO  8  21   8  22   8  23  14  24   9  25  13  26  13  27  13  28  13
M  ISO  8  29  13  30  13  31  13  32  13  33  13  34  13  37  14  38  14
M  ISO  2  41  15  44  16
M  END
>  <DihAtoms>  (1) 
17,18,38,39

>  <DihDeg>  (1) 
105.12754108977208

$$$$
