
     RDKit          3D

 41 44  0  0  0  0  0  0  0  0999 V2000
   46.7194   33.4748   44.9062 F   0  0  0  0  0  0  0  0  0  0  0  0
   47.2923   32.2685   44.6449 C   0  0  0  0  0  0  0  0  0  0  0  0
   48.0912   32.1655   43.5328 C   0  0  0  0  0  0  0  0  0  0  0  0
   48.6689   30.9463   43.2704 C   0  0  0  0  0  0  0  0  0  0  0  0
   48.4336   29.8796   44.1172 C   0  0  0  0  0  0  0  0  0  0  0  0
   47.6399   29.9794   45.2233 C   0  0  0  0  0  0  0  0  0  0  0  0
   47.0538   31.2273   45.4842 C   0  0  0  0  0  0  0  0  0  0  0  0
   46.2410   31.2817   46.6398 N   0  0  0  0  0  0  0  0  0  0  0  0
   45.1632   30.4410   47.0889 C   0  0  0  0  0  0  0  0  0  0  0  0
   45.5602   30.1423   48.5510 C   0  0  0  0  0  0  0  0  0  0  0  0
   46.4536   31.2935   48.9198 C   0  0  0  0  0  0  0  0  0  0  0  0
   46.2598   32.2400   47.7517 C   0  0  2  0  0  0  0  0  0  0  0  0
   45.0512   33.0859   47.8480 C   0  0  0  0  0  0  0  0  0  0  0  0
   49.4791   35.2698   42.1482 C   0  0  0  0  0  0  0  0  0  0  0  0
   48.6871   35.4758   41.0129 C   0  0  0  0  0  0  0  0  0  0  0  0
   47.6805   34.5367   40.7395 C   0  0  0  0  0  0  0  0  0  0  0  0
   47.5741   33.5184   41.6055 N   0  0  0  0  0  0  0  0  0  0  0  0
   48.3120   33.3200   42.6695 C   0  0  0  0  0  0  0  0  0  0  0  0
   49.2662   34.2015   42.9372 N   0  0  0  0  0  0  0  0  0  0  0  0
   49.3079   30.8083   42.4072 H   0  0  0  0  0  0  0  0  0  0  0  0
   48.8922   28.9204   43.9048 H   0  0  0  0  0  0  0  0  0  0  0  0
   47.4682   29.1354   45.8724 H   0  0  0  0  0  0  0  0  0  0  0  0
   44.2348   31.0301   47.0472 H   0  0  0  0  0  0  0  0  0  0  0  0
   45.0893   29.4905   46.5323 H   0  0  0  0  0  0  0  0  0  0  0  0
   44.6058   30.1415   49.1159 H   0  0  0  0  0  0  0  0  0  0  0  0
   46.0740   29.1615   48.5717 H   0  0  0  0  0  0  0  0  0  0  0  0
   47.4990   31.0115   49.0787 H   0  0  0  0  0  0  0  0  0  0  0  0
   46.0034   31.7853   49.8224 H   0  0  0  0  0  0  0  0  0  0  0  0
   47.2154   32.8039   47.6388 H   0  0  0  0  0  0  0  0  0  0  0  0
   44.3533   32.6943   48.6139 H   0  0  0  0  0  0  0  0  0  0  0  0
   45.3552   34.1006   48.1899 H   0  0  0  0  0  0  0  0  0  0  0  0
   44.5771   33.2328   46.8603 H   0  0  0  0  0  0  0  0  0  0  0  0
   50.2640   35.9895   42.3736 H   0  0  0  0  0  0  0  0  0  0  0  0
   48.8091   36.3046   40.3497 H   0  0  0  0  0  0  0  0  0  0  0  0
   46.7831   34.6531   39.5671 C   0  0  0  0  0  0  0  0  0  0  0  0
   47.2349   34.3567   38.2902 C   0  0  0  0  0  0  0  0  0  0  0  0
   48.2576   34.0181   38.0092 H   0  0  0  0  0  0  0  0  0  0  0  0
   45.7355   34.6704   37.2667 S   0  0  0  0  0  0  0  0  0  0  0  0
   44.7421   35.1612   38.8107 C   0  0  0  0  0  0  0  0  0  0  0  0
   43.6733   35.4890   38.9004 H   0  0  0  0  0  0  0  0  0  0  0  0
   45.5247   35.0362   39.6493 N   0  0  0  0  0  0  0  0  0  0  0  0
  2  1  1  0
  2  7  2  0
  3  2  1  0
  4  3  2  0
  4  5  1  0
  5  6  2  0
  6  7  1  0
  7  8  1  0
  8  9  1  0
  8 12  1  0
  9 10  1  0
 10 11  1  0
 12 13  1  0
 12 11  1  0
 14 19  2  0
 15 14  1  0
 16 15  2  0
 16 17  1  0
 17 18  2  0
 18 19  1  0
 18  3  1  0
  4 20  1  0
  5 21  1  0
  6 22  1  0
  9 23  1  0
  9 24  1  0
 10 25  1  0
 10 26  1  0
 11 27  1  0
 11 28  1  0
 12 29  1  6
 13 30  1  0
 13 31  1  0
 13 32  1  0
 14 33  1  0
 15 34  1  0
 35 36  2  0
 36 37  1  0
 36 38  1  0
 38 39  1  0
 39 40  1  0
 39 41  2  0
 41 35  1  0
 16 35  1  0
M  ISO  8  20  14  21  14  22  14  23  13  24  13  25  13  26  13  27  13
M  ISO  8  28  13  29  13  30   8  31   8  32   8  33  14  34  14  37  15
M  ISO  1  40  16
M  END
>  <DihAtoms>  (1) 
14,15,34,35

>  <DihDeg>  (1) 
-179.99979619222964

$$$$
