REMARK  Name = 
REMARK  3 active torsions:
REMARK  status: ('A' for Active; 'I' for Inactive)
REMARK    1  A    between atoms: C_1  and  C_18
REMARK    2  A    between atoms: C_3  and  C_4
REMARK    3  A    between atoms: C_16  and  C_33
REMARK                            x       y       z     vdW  Elec       q    Type
REMARK                         _______ _______ _______ _____ _____    ______ ____
ROOT
ATOM      1  C   UNL     1      46.386  32.667  45.864  0.00  0.00    +0.000 C 
ATOM      2  C   UNL     1      46.972  32.836  47.202  0.00  0.00    +0.000 C 
ATOM      3  C   UNL     1      45.545  32.207  46.954  0.00  0.00    +0.000 C 
ATOM      4  H   UNL     1      47.145  32.024  45.291  0.00  0.00    +0.000 HD
ATOM      5  H   UNL     1      47.024  33.823  47.688  0.00  0.00    +0.000 HD
ATOM      6  H   UNL     1      47.600  32.087  47.703  0.00  0.00    +0.000 HD
ATOM      7  H   UNL     1      44.900  32.896  47.580  0.00  0.00    +0.000 HD
ENDROOT
BRANCH   3   8
ATOM      8  C   UNL     1      45.298  30.804  47.298  0.00  0.00    +0.000 A 
ATOM      9  C   UNL     1      45.164  30.271  48.542  0.00  0.00    +0.000 A 
ATOM     10  C   UNL     1      45.059  28.921  48.843  0.00  0.00    +0.000 A 
ATOM     11  C   UNL     1      45.097  28.036  47.747  0.00  0.00    +0.000 A 
ATOM     12  C   UNL     1      45.230  28.553  46.463  0.00  0.00    +0.000 A 
ATOM     13  C   UNL     1      45.202  27.655  45.414  0.00  0.00    +0.000 A 
ATOM     14  C   UNL     1      45.261  28.131  44.112  0.00  0.00    +0.000 A 
ATOM     15  C   UNL     1      45.345  29.486  43.859  0.00  0.00    +0.000 A 
ATOM     16  C   UNL     1      45.373  30.340  44.940  0.00  0.00    +0.000 A 
ATOM     17  C   UNL     1      45.325  29.915  46.253  0.00  0.00    +0.000 A 
ATOM     18  H   UNL     1      45.140  30.993  49.355  0.00  0.00    +0.000 HD
ATOM     19  H   UNL     1      44.954  28.566  49.861  0.00  0.00    +0.000 HD
ATOM     20  H   UNL     1      45.022  26.977  47.938  0.00  0.00    +0.000 HD
ATOM     21  H   UNL     1      45.133  26.594  45.641  0.00  0.00    +0.000 HD
ATOM     22  H   UNL     1      45.233  27.324  43.361  0.00  0.00    +0.000 HD
ATOM     23  H   UNL     1      45.377  29.653  42.809  0.00  0.00    +0.000 HD
ATOM     24  H   UNL     1      45.351  31.295  44.500  0.00  0.00    +0.000 HD
ENDBRANCH   3   8
BRANCH   1  29
ATOM     25  C   UNL     1      44.628  35.745  44.848  0.00  0.00    +0.000 A 
ATOM     26  C   UNL     1      45.142  35.979  43.530  0.00  0.00    +0.000 A 
ATOM     27  C   UNL     1      46.108  35.038  43.032  0.00  0.00    +0.000 A 
ATOM     28  N   UNL     1      46.472  34.021  43.801  0.00  0.00    +0.000 NA
ATOM     29  C   UNL     1      45.952  33.840  45.057  0.00  0.00    +0.000 A 
ATOM     30  N   UNL     1      45.056  34.681  45.559  0.00  0.00    +0.000 NA
ATOM     31  H   UNL     1      43.921  36.495  45.120  0.00  0.00    +0.000 HD
ATOM     32  H   UNL     1      44.847  36.800  42.915  0.00  0.00    +0.000 HD
BRANCH  27  33
ATOM     33  C   UNL     1      46.625  35.276  41.694  0.00  0.00    +0.000 A 
ATOM     34  C   UNL     1      45.662  35.294  40.579  0.00  0.00    +0.000 A 
ATOM     35  H   UNL     1      44.578  35.144  40.657  0.00  0.00    +0.000 HD
ATOM     36  S   UNL     1      46.789  35.629  39.106  0.00  0.00    +0.000 S 
ATOM     37  C   UNL     1      48.293  35.676  40.259  0.00  0.00    +0.000 A 
ATOM     38  H   UNL     1      49.380  35.850  39.999  0.00  0.00    +0.000 HD
ATOM     39  N   UNL     1      47.891  35.487  41.333  0.00  0.00    +0.000 NA
ENDBRANCH  27  33
ENDBRANCH   1  29
TORSDOF 3
