
 OpenBabel03252506563D

 36 40  0  0  0  0  0  0  0  0999 V2000
   47.1580   31.3230   45.1100 C   0  0  0  0  0  0  0  0  0  0  0  0
   46.8740   32.6780   45.1120 C   0  0  0  0  0  0  0  0  0  0  0  0
   46.3200   33.3160   46.1950 C   0  0  0  0  0  0  0  0  0  0  0  0
   46.0190   32.6110   47.3480 C   0  0  0  0  0  0  0  0  0  0  0  0
   45.4840   32.8950   48.5700 N   0  0  0  0  0  0  0  0  0  0  0  0
   45.4380   31.7480   49.3010 C   0  0  0  0  0  0  0  0  0  0  0  0
   45.9480   30.7720   48.5160 N   0  0  0  0  0  0  0  0  0  0  0  0
   46.3100   31.2700   47.3180 C   0  0  0  0  0  0  0  0  0  0  0  0
   46.8580   30.5910   46.2740 C   0  0  0  0  0  0  0  0  0  0  0  0
   47.5940   30.8280   44.2520 H   0  0  0  0  0  0  0  0  0  0  0  0
   46.1030   34.3780   46.1840 H   0  0  0  0  0  0  0  0  0  0  0  0
   45.1740   33.8600   48.8470 H   0  0  0  0  0  0  0  0  0  0  0  0
   45.0550   31.6750   50.3240 H   0  0  0  0  0  0  0  0  0  0  0  0
   46.6000   35.1480   42.3980 C   0  0  0  0  0  0  0  0  0  0  0  0
   47.7650   34.9410   41.6750 C   0  0  0  0  0  0  0  0  0  0  0  0
   48.6470   33.9500   42.1200 C   0  0  0  0  0  0  0  0  0  0  0  0
   48.3190   33.2400   43.2410 N   0  0  0  0  0  0  0  0  0  0  0  0
   47.1720   33.4690   43.9220 C   0  0  0  0  0  0  0  0  0  0  0  0
   46.3160   34.4170   43.5050 N   0  0  0  0  0  0  0  0  0  0  0  0
   45.8990   35.9140   42.0690 H   0  0  0  0  0  0  0  0  0  0  0  0
   47.9700   35.5400   40.7900 H   0  0  0  0  0  0  0  0  0  0  0  0
   49.5670   33.7620   41.5790 H   0  0  0  0  0  0  0  0  0  0  0  0
   47.1310   29.1540   46.3430 C   0  0  0  0  0  0  0  0  0  0  0  0
   48.3740   28.5860   46.2300 C   0  0  0  0  0  0  0  0  0  0  0  0
   48.1150   27.2110   46.3590 C   0  0  0  0  0  0  0  0  0  0  0  0
   46.7490   27.0240   46.5400 C   0  0  0  0  0  0  0  0  0  0  0  0
   46.2370   28.2350   46.5160 O   0  0  0  0  0  0  0  0  0  0  0  0
   49.3070   29.0720   46.0820 H   0  0  0  0  0  0  0  0  0  0  0  0
   48.8610   26.4350   46.3230 H   0  0  0  0  0  0  0  0  0  0  0  0
   46.0220   25.7500   46.7190 C   0  0  0  0  0  0  0  0  0  0  0  0
   46.8220   24.4890   46.7980 C   0  0  0  0  0  0  0  0  0  0  0  0
   47.8530   24.4210   46.7370 H   0  0  0  0  0  0  0  0  0  0  0  0
   45.3850   23.2790   47.0160 S   0  0  0  0  0  0  0  0  0  0  0  0
   44.0850   24.6550   46.9580 C   0  0  0  0  0  0  0  0  0  0  0  0
   43.0320   24.4400   47.0490 H   0  0  0  0  0  0  0  0  0  0  0  0
   44.7120   25.6940   46.8100 N   0  0  0  0  0  0  0  0  0  0  0  0
  1  2  2  0  0  0  0
  1  9  1  0  0  0  0
  2  3  1  0  0  0  0
  3  4  2  0  0  0  0
  4  5  1  0  0  0  0
  5 12  1  0  0  0  0
  5  6  1  0  0  0  0
  6 13  1  0  0  0  0
  7  6  2  0  0  0  0
  8  4  1  0  0  0  0
  8  7  1  0  0  0  0
  9 23  1  0  0  0  0
  9  8  2  0  0  0  0
 10  1  1  0  0  0  0
 11  3  1  0  0  0  0
 14 19  1  0  0  0  0
 15 16  1  0  0  0  0
 15 14  2  0  0  0  0
 16 17  2  0  0  0  0
 17 18  1  0  0  0  0
 18  2  1  0  0  0  0
 19 18  2  0  0  0  0
 20 14  1  0  0  0  0
 21 15  1  0  0  0  0
 22 16  1  0  0  0  0
 23 27  1  0  0  0  0
 24 23  2  0  0  0  0
 24 25  1  0  0  0  0
 25 26  2  0  0  0  0
 26 30  1  0  0  0  0
 27 26  1  0  0  0  0
 28 24  1  0  0  0  0
 29 25  1  0  0  0  0
 30 31  2  0  0  0  0
 30 36  1  0  0  0  0
 31 33  1  0  0  0  0
 32 31  1  0  0  0  0
 34 33  1  0  0  0  0
 34 35  1  0  0  0  0
 36 34  2  0  0  0  0
M  END
>  <minimizedAffinity>
-5.49675131

>  <minimizedRMSD>
0.450631768

$$$$
