REMARK  Name = 
REMARK  2 active torsions:
REMARK  status: ('A' for Active; 'I' for Inactive)
REMARK    1  A    between atoms: C_2  and  C_14
REMARK    2  A    between atoms: C_3  and  C_23
REMARK                            x       y       z     vdW  Elec       q    Type
REMARK                         _______ _______ _______ _____ _____    ______ ____
ROOT
ATOM      1  C   UNL     1      47.227  31.372  45.080  0.00  0.00    +0.000 A 
ATOM      2  C   UNL     1      46.884  32.715  45.098  0.00  0.00    +0.000 A 
ATOM      3  C   UNL     1      46.286  33.307  46.187  0.00  0.00    +0.000 A 
ATOM      4  C   UNL     1      46.000  32.561  47.330  0.00  0.00    +0.000 A 
ATOM      5  N   UNL     1      45.438  32.809  48.540  0.00  0.00    +0.000 N 
ATOM      6  C   UNL     1      45.427  31.661  49.260  0.00  0.00    +0.000 A 
ATOM      7  N   UNL     1      45.994  30.705  48.468  0.00  0.00    +0.000 NA
ATOM      8  C   UNL     1      46.349  31.235  47.286  0.00  0.00    +0.000 A 
ATOM      9  C   UNL     1      46.947  30.608  46.220  0.00  0.00    +0.000 A 
ATOM     10  H   UNL     1      47.699  30.962  44.189  0.00  0.00    +0.000 HD
ATOM     11  H   UNL     1      45.093  33.761  48.798  0.00  0.00    +0.000 HD
ATOM     12  H   UNL     1      45.017  31.647  50.259  0.00  0.00    +0.000 HD
ATOM     13  H   UNL     1      47.215  29.559  46.208  0.00  0.00    +0.000 HD
ENDROOT
BRANCH   2  18
ATOM     14  C   UNL     1      46.504  35.207  42.427  0.00  0.00    +0.000 A 
ATOM     15  C   UNL     1      47.711  35.052  41.707  0.00  0.00    +0.000 A 
ATOM     16  C   UNL     1      48.651  34.088  42.146  0.00  0.00    +0.000 A 
ATOM     17  N   UNL     1      48.312  33.364  43.258  0.00  0.00    +0.000 NA
ATOM     18  C   UNL     1      47.167  33.525  43.926  0.00  0.00    +0.000 A 
ATOM     19  N   UNL     1      46.268  34.443  43.510  0.00  0.00    +0.000 NA
ATOM     20  H   UNL     1      45.759  35.930  42.127  0.00  0.00    +0.000 HD
ATOM     21  H   UNL     1      47.904  35.661  40.840  0.00  0.00    +0.000 HD
ATOM     22  H   UNL     1      49.572  33.946  41.624  0.00  0.00    +0.000 HD
ENDBRANCH   2  18
BRANCH   3  23
ATOM     23  C   UNL     1      45.915  34.729  46.222  0.00  0.00    +0.000 A 
ATOM     24  C   UNL     1      45.290  35.356  47.303  0.00  0.00    +0.000 A 
ATOM     25  H   UNL     1      45.035  34.812  48.209  0.00  0.00    +0.000 HD
ATOM     26  S   UNL     1      45.105  37.064  46.740  0.00  0.00    +0.000 S 
ATOM     27  C   UNL     1      45.938  36.636  45.065  0.00  0.00    +0.000 A 
ATOM     28  H   UNL     1      46.167  37.307  44.146  0.00  0.00    +0.000 HD
ATOM     29  N   UNL     1      46.220  35.394  45.131  0.00  0.00    +0.000 NA
ENDBRANCH   3  23
TORSDOF 2
