
 OpenBabel03252509113D

 29 32  0  0  0  0  0  0  0  0999 V2000
   40.1270   31.7950   41.6460 C   0  0  0  0  0  0  0  0  0  0  0  0
   41.2400   32.6000   41.4620 C   0  0  0  0  0  0  0  0  0  0  0  0
   42.4960   32.2260   41.8820 C   0  0  0  0  0  0  0  0  0  0  0  0
   42.6940   31.0010   42.5180 C   0  0  0  0  0  0  0  0  0  0  0  0
   43.7540   30.3350   43.0420 N   0  0  0  0  0  0  0  0  0  0  0  0
   43.3230   29.1510   43.5400 C   0  0  0  0  0  0  0  0  0  0  0  0
   41.9790   29.1030   43.3100 N   0  0  0  0  0  0  0  0  0  0  0  0
   41.5760   30.2240   42.6880 C   0  0  0  0  0  0  0  0  0  0  0  0
   40.3080   30.5610   42.2830 C   0  0  0  0  0  0  0  0  0  0  0  0
   39.1590   32.1460   41.2910 H   0  0  0  0  0  0  0  0  0  0  0  0
   44.7170   30.7410   43.0260 H   0  0  0  0  0  0  0  0  0  0  0  0
   44.0190   28.4690   44.0050 H   0  0  0  0  0  0  0  0  0  0  0  0
   39.4390   29.9300   42.4270 H   0  0  0  0  0  0  0  0  0  0  0  0
   40.5720   36.1740   40.9410 C   0  0  0  0  0  0  0  0  0  0  0  0
   40.7600   36.3070   39.5460 C   0  0  0  0  0  0  0  0  0  0  0  0
   41.1160   35.1630   38.7910 C   0  0  0  0  0  0  0  0  0  0  0  0
   41.2540   33.9900   39.4840 N   0  0  0  0  0  0  0  0  0  0  0  0
   41.0730   33.8840   40.8030 C   0  0  0  0  0  0  0  0  0  0  0  0
   40.7330   34.9720   41.5260 N   0  0  0  0  0  0  0  0  0  0  0  0
   40.2990   37.0200   41.5550 H   0  0  0  0  0  0  0  0  0  0  0  0
   40.6320   37.2660   39.0730 H   0  0  0  0  0  0  0  0  0  0  0  0
   41.2650   35.2300   37.7350 H   0  0  0  0  0  0  0  0  0  0  0  0
   43.6860   33.0680   41.6950 C   0  0  0  0  0  0  0  0  0  0  0  0
   44.0470   34.1240   42.5370 C   0  0  0  0  0  0  0  0  0  0  0  0
   43.4490   34.3910   43.4040 H   0  0  0  0  0  0  0  0  0  0  0  0
   45.5690   34.7470   41.7880 S   0  0  0  0  0  0  0  0  0  0  0  0
   45.4680   33.4250   40.4010 C   0  0  0  0  0  0  0  0  0  0  0  0
   46.1740   33.2220   39.5030 H   0  0  0  0  0  0  0  0  0  0  0  0
   44.4140   32.7510   40.6490 N   0  0  0  0  0  0  0  0  0  0  0  0
  1  9  1  0  0  0  0
  2  1  2  0  0  0  0
  2  3  1  0  0  0  0
  3  4  2  0  0  0  0
  4  8  1  0  0  0  0
  4  5  1  0  0  0  0
  5  6  1  0  0  0  0
  6 12  1  0  0  0  0
  7  6  2  0  0  0  0
  8  7  1  0  0  0  0
  9 13  1  0  0  0  0
  9  8  2  0  0  0  0
 10  1  1  0  0  0  0
 11  5  1  0  0  0  0
 14 19  1  0  0  0  0
 14 20  1  0  0  0  0
 15 14  2  0  0  0  0
 16 17  2  0  0  0  0
 16 15  1  0  0  0  0
 17 18  1  0  0  0  0
 18  2  1  0  0  0  0
 18 19  2  0  0  0  0
 21 15  1  0  0  0  0
 22 16  1  0  0  0  0
 23  3  1  0  0  0  0
 23 24  2  0  0  0  0
 24 25  1  0  0  0  0
 26 24  1  0  0  0  0
 27 29  2  0  0  0  0
 27 26  1  0  0  0  0
 28 27  1  0  0  0  0
 29 23  1  0  0  0  0
M  END
>  <minimizedAffinity>
-4.0333271

>  <minimizedRMSD>
6.60025167

$$$$
