
 OpenBabel03242515003D

 35 37  0  0  0  0  0  0  0  0999 V2000
   43.8860   34.7170   40.7650 S   0  0  0  0  0  0  0  0  0  0  0  0
   45.1480   34.4710   42.0130 C   0  0  0  0  0  0  0  0  0  0  0  0
   46.4780   34.4950   41.5700 C   0  0  0  0  0  0  0  0  0  0  0  0
   47.4950   34.3090   42.5090 C   0  0  0  0  0  0  0  0  0  0  0  0
   47.1410   34.1140   43.7980 N   0  0  0  0  0  0  0  0  0  0  0  0
   45.8740   34.0930   44.2140 C   0  0  0  0  0  0  0  0  0  0  0  0
   44.8880   34.2720   43.3170 N   0  0  0  0  0  0  0  0  0  0  0  0
   46.7870   34.6500   40.5440 H   0  0  0  0  0  0  0  0  0  0  0  0
   48.5350   34.3240   42.1930 H   0  0  0  0  0  0  0  0  0  0  0  0
   45.5860   33.8780   45.6180 C   0  0  0  0  0  0  0  0  0  0  0  0
   44.7740   34.6470   46.1780 O   0  0  0  0  0  0  0  0  0  0  0  0
   46.2800   32.7710   46.2600 C   0  0  0  0  0  0  0  0  0  0  0  0
   45.8330   31.5620   45.4560 C   0  0  0  0  0  0  0  0  0  0  0  0
   45.2670   31.0940   44.6520 H   0  0  0  0  0  0  0  0  0  0  0  0
   46.7980   30.2300   46.3920 S   0  0  0  0  0  0  0  0  0  0  0  0
   47.5580   31.4860   47.5980 C   0  0  0  0  0  0  0  0  0  0  0  0
   48.2620   31.8070   48.5460 H   0  0  0  0  0  0  0  0  0  0  0  0
   47.0940   32.6940   47.2640 N   0  0  0  0  0  0  0  0  0  0  0  0
   42.2420   34.8060   41.4610 C   0  0  0  0  0  0  0  0  0  0  0  0
   42.2970   34.9470   42.5680 H   0  0  0  0  0  0  0  0  0  0  0  0
   41.7640   33.8030   41.3290 H   0  0  0  0  0  0  0  0  0  0  0  0
   41.3570   35.8050   40.7950 C   0  0  0  0  0  0  0  0  0  0  0  0
   41.8990   36.6370   40.2950 H   0  0  0  0  0  0  0  0  0  0  0  0
   40.7270   36.2800   41.5950 H   0  0  0  0  0  0  0  0  0  0  0  0
   42.0550   36.0740   37.8540 Cl  0  0  0  0  0  0  0  0  0  0  0  0
   40.6650   35.2270   38.4600 C   0  0  0  0  0  0  0  0  0  0  0  0
   40.4350   35.1640   39.8410 C   0  0  0  0  0  0  0  0  0  0  0  0
   39.3150   34.4760   40.2280 C   0  0  0  0  0  0  0  0  0  0  0  0
   38.3950   33.8440   39.4100 C   0  0  0  0  0  0  0  0  0  0  0  0
   38.6440   33.9220   38.0460 C   0  0  0  0  0  0  0  0  0  0  0  0
   37.5380   33.1540   36.9190 Cl  0  0  0  0  0  0  0  0  0  0  0  0
   39.7610   34.6040   37.5970 C   0  0  0  0  0  0  0  0  0  0  0  0
   39.1020   34.4030   41.3000 H   0  0  0  0  0  0  0  0  0  0  0  0
   37.5410   33.3260   39.8210 H   0  0  0  0  0  0  0  0  0  0  0  0
   39.9270   34.6460   36.5220 H   0  0  0  0  0  0  0  0  0  0  0  0
  1 19  1  0  0  0  0
  1  2  1  0  0  0  0
  2  7  1  0  0  0  0
  3  2  2  0  0  0  0
  3  4  1  0  0  0  0
  4  5  2  0  0  0  0
  5  6  1  0  0  0  0
  6 10  1  0  0  0  0
  7  6  2  0  0  0  0
  8  3  1  0  0  0  0
  9  4  1  0  0  0  0
 10 11  2  0  0  0  0
 10 12  1  0  0  0  0
 12 18  1  0  0  0  0
 13 12  2  0  0  0  0
 13 15  1  0  0  0  0
 14 13  1  0  0  0  0
 15 16  1  0  0  0  0
 16 17  1  0  0  0  0
 18 16  2  0  0  0  0
 19 20  1  0  0  0  0
 21 19  1  0  0  0  0
 22 19  1  0  0  0  0
 22 24  1  0  0  0  0
 23 22  1  0  0  0  0
 25 26  1  0  0  0  0
 26 27  1  0  0  0  0
 27 28  2  0  0  0  0
 27 22  1  0  0  0  0
 28 33  1  0  0  0  0
 29 34  1  0  0  0  0
 29 28  1  0  0  0  0
 30 29  2  0  0  0  0
 31 30  1  0  0  0  0
 32 30  1  0  0  0  0
 32 26  2  0  0  0  0
 35 32  1  0  0  0  0
M  END
>  <minimizedAffinity>
-6.3706398

>  <minimizedRMSD>
0.49947983

$$$$
