REMARK  Name = 
REMARK  4 active torsions:
REMARK  status: ('A' for Active; 'I' for Inactive)
REMARK    1  A    between atoms: C_1  and  C_10
REMARK    2  A    between atoms: C_6  and  C_18
REMARK    3  A    between atoms: C_7  and  C_16
REMARK    4  A    between atoms: C_18  and  C_35
REMARK                            x       y       z     vdW  Elec       q    Type
REMARK                         _______ _______ _______ _____ _____    ______ ____
ROOT
ATOM      1  C   UNL     1      47.567  29.992  48.266  0.00  0.00    +0.000 C 
ATOM      2  C   UNL     1      47.442  28.780  47.392  0.00  0.00    +0.000 C 
ATOM      3  C   UNL     1      48.732  28.031  47.175  0.00  0.00    +0.000 C 
ATOM      4  C   UNL     1      49.540  27.859  48.425  0.00  0.00    +0.000 C 
ATOM      5  C   UNL     1      49.578  29.104  49.275  0.00  0.00    +0.000 C 
ATOM      6  C   UNL     1      49.057  30.295  48.458  0.00  0.00    +0.000 C 
ATOM      7  H   UNL     1      47.190  29.771  49.288  0.00  0.00    +0.000 HD
ATOM      8  H   UNL     1      46.733  28.079  47.879  0.00  0.00    +0.000 HD
ATOM      9  H   UNL     1      47.009  28.989  46.392  0.00  0.00    +0.000 HD
ATOM     10  H   UNL     1      48.457  27.033  46.815  0.00  0.00    +0.000 HD
ATOM     11  H   UNL     1      49.295  28.571  46.379  0.00  0.00    +0.000 HD
ATOM     12  H   UNL     1      50.569  27.559  48.084  0.00  0.00    +0.000 HD
ATOM     13  H   UNL     1      49.099  27.014  48.988  0.00  0.00    +0.000 HD
ATOM     14  H   UNL     1      48.965  29.044  50.180  0.00  0.00    +0.000 HD
ATOM     15  H   UNL     1      50.646  29.347  49.490  0.00  0.00    +0.000 HD
ATOM     16  H   UNL     1      49.560  30.298  47.452  0.00  0.00    +0.000 HD
ENDROOT
BRANCH   1  20
ATOM     17  C   UNL     1      45.904  33.130  46.242  0.00  0.00    +0.000 A 
ATOM     18  C   UNL     1      45.327  32.948  47.495  0.00  0.00    +0.000 A 
ATOM     19  C   UNL     1      45.809  31.934  48.247  0.00  0.00    +0.000 A 
ATOM     20  C   UNL     1      46.844  31.112  47.769  0.00  0.00    +0.000 A 
ATOM     21  S   UNL     1      47.183  31.805  46.123  0.00  0.00    +0.000 S 
ATOM     22  H   UNL     1      44.532  33.585  47.852  0.00  0.00    +0.000 HD
ATOM     23  H   UNL     1      45.479  31.655  49.235  0.00  0.00    +0.000 HD
BRANCH  17  28
ATOM     24  C   UNL     1      44.453  36.122  44.552  0.00  0.00    +0.000 A 
ATOM     25  C   UNL     1      45.068  36.019  43.306  0.00  0.00    +0.000 A 
ATOM     26  C   UNL     1      45.941  34.951  43.076  0.00  0.00    +0.000 A 
ATOM     27  N   UNL     1      46.139  34.063  44.102  0.00  0.00    +0.000 NA
ATOM     28  C   UNL     1      45.530  34.193  45.289  0.00  0.00    +0.000 A 
ATOM     29  N   UNL     1      44.680  35.234  45.510  0.00  0.00    +0.000 NA
ATOM     30  H   UNL     1      43.775  36.939  44.750  0.00  0.00    +0.000 HD
ATOM     31  H   UNL     1      44.905  36.722  42.510  0.00  0.00    +0.000 HD
ATOM     32  H   UNL     1      46.469  34.781  42.145  0.00  0.00    +0.000 HD
ENDBRANCH  17  28
ENDBRANCH   1  20
BRANCH   6  33
ATOM     33  C   UNL     1      49.268  31.541  49.186  0.00  0.00    +0.000 C 
ATOM     34  O   UNL     1      49.897  31.552  50.267  0.00  0.00    +0.000 OA
BRANCH  33  35
ATOM     35  C   UNL     1      48.893  32.913  48.925  0.00  0.00    +0.000 A 
ATOM     36  C   UNL     1      49.679  33.838  49.911  0.00  0.00    +0.000 A 
ATOM     37  H   UNL     1      50.437  33.887  50.787  0.00  0.00    +0.000 HD
ATOM     38  S   UNL     1      49.153  35.465  49.463  0.00  0.00    +0.000 S 
ATOM     39  C   UNL     1      48.009  34.863  48.098  0.00  0.00    +0.000 A 
ATOM     40  H   UNL     1      47.316  35.316  47.347  0.00  0.00    +0.000 HD
ATOM     41  N   UNL     1      48.263  33.820  48.289  0.00  0.00    +0.000 NA
ENDBRANCH  33  35
ENDBRANCH   6  33
TORSDOF 4
