
 OpenBabel03252501323D

 22 23  0  0  0  0  0  0  0  0999 V2000
   45.2360   34.6850   43.1620 C   0  0  0  0  0  0  0  0  0  0  0  0
   45.1330   34.7040   44.5410 C   0  0  0  0  0  0  0  0  0  0  0  0
   46.0920   33.9620   45.2280 C   0  0  0  0  0  0  0  0  0  0  0  0
   47.0230   33.3000   44.5300 N   0  0  0  0  0  0  0  0  0  0  0  0
   47.0870   33.3090   43.1790 C   0  0  0  0  0  0  0  0  0  0  0  0
   46.1790   34.0140   42.4710 N   0  0  0  0  0  0  0  0  0  0  0  0
   46.0060   33.9820   46.3010 H   0  0  0  0  0  0  0  0  0  0  0  0
   47.8370   32.7750   42.6120 H   0  0  0  0  0  0  0  0  0  0  0  0
   43.3790   34.4520   41.7350 C   0  0  0  0  0  0  0  0  0  0  0  0
   43.5820   33.2790   42.1970 O   0  0  0  0  0  0  0  0  0  0  0  0
   44.3430   35.3870   42.2630 N   0  0  0  0  0  0  0  0  0  0  0  0
   44.3640   36.3940   42.0170 H   0  0  0  0  0  0  0  0  0  0  0  0
   42.3600   34.9630   40.7950 C   0  0  0  0  0  0  0  0  0  0  0  0
   42.4200   34.7980   39.3910 C   0  0  0  0  0  0  0  0  0  0  0  0
   43.2030   34.2970   38.9300 H   0  0  0  0  0  0  0  0  0  0  0  0
   40.9120   35.6350   38.8590 S   0  0  0  0  0  0  0  0  0  0  0  0
   40.4300   36.0810   40.6430 C   0  0  0  0  0  0  0  0  0  0  0  0
   39.6310   36.6050   41.2420 H   0  0  0  0  0  0  0  0  0  0  0  0
   41.3800   35.5940   41.4120 N   0  0  0  0  0  0  0  0  0  0  0  0
   44.0800   35.4620   45.1030 N   0  0  0  0  0  0  0  0  0  0  0  0
   44.0000   36.4250   44.7490 H   0  0  0  0  0  0  0  0  0  0  0  0
   43.4700   35.0130   45.8190 H   0  0  0  0  0  0  0  0  0  0  0  0
  1  2  1  0  0  0  0
  2 20  1  0  0  0  0
  2  3  2  0  0  0  0
  3  7  1  0  0  0  0
  4  3  1  0  0  0  0
  5  4  2  0  0  0  0
  6  1  2  0  0  0  0
  6  5  1  0  0  0  0
  8  5  1  0  0  0  0
  9 10  2  0  0  0  0
  9 11  1  0  0  0  0
 11  1  1  0  0  0  0
 12 11  1  0  0  0  0
 13 19  1  0  0  0  0
 13  9  1  0  0  0  0
 14 13  2  0  0  0  0
 15 14  1  0  0  0  0
 16 14  1  0  0  0  0
 16 17  1  0  0  0  0
 17 18  1  0  0  0  0
 17 19  2  0  0  0  0
 20 22  1  0  0  0  0
 21 20  1  0  0  0  0
M  END
>  <minimizedAffinity>
-4.38975286

>  <minimizedRMSD>
2.21818089

$$$$
