
 OpenBabel03242510503D

 20 21  0  0  0  0  0  0  0  0999 V2000
   45.1300   36.0500   43.4730 C   0  0  0  0  0  0  0  0  0  0  0  0
   46.2460   35.8320   42.6200 C   0  0  0  0  0  0  0  0  0  0  0  0
   46.9940   34.6740   42.8010 C   0  0  0  0  0  0  0  0  0  0  0  0
   46.6170   33.8160   43.7840 N   0  0  0  0  0  0  0  0  0  0  0  0
   45.5630   34.0490   44.5700 C   0  0  0  0  0  0  0  0  0  0  0  0
   44.8050   35.1620   44.4300 N   0  0  0  0  0  0  0  0  0  0  0  0
   46.2240   32.1450   45.9150 C   0  0  0  0  0  0  0  0  0  0  0  0
   47.3510   32.0710   45.3980 O   0  0  0  0  0  0  0  0  0  0  0  0
   45.2200   33.0950   45.5920 N   0  0  0  0  0  0  0  0  0  0  0  0
   44.5470   36.9580   43.3270 H   0  0  0  0  0  0  0  0  0  0  0  0
   46.5370   36.5110   41.8500 H   0  0  0  0  0  0  0  0  0  0  0  0
   47.8620   34.4020   42.2160 H   0  0  0  0  0  0  0  0  0  0  0  0
   44.2900   33.1270   46.0440 H   0  0  0  0  0  0  0  0  0  0  0  0
   45.8390   31.1950   46.9570 C   0  0  0  0  0  0  0  0  0  0  0  0
   45.6670   29.8570   46.3940 C   0  0  0  0  0  0  0  0  0  0  0  0
   45.7080   29.2770   45.5170 H   0  0  0  0  0  0  0  0  0  0  0  0
   45.1790   28.8270   47.9110 S   0  0  0  0  0  0  0  0  0  0  0  0
   45.3060   30.3970   48.9800 C   0  0  0  0  0  0  0  0  0  0  0  0
   45.2060   30.9280   50.1240 H   0  0  0  0  0  0  0  0  0  0  0  0
   45.6040   31.2050   48.2510 N   0  0  0  0  0  0  0  0  0  0  0  0
  1  6  1  0  0  0  0
  2  3  1  0  0  0  0
  2  1  2  0  0  0  0
  3  4  2  0  0  0  0
  4  5  1  0  0  0  0
  5  9  1  0  0  0  0
  6  5  2  0  0  0  0
  7 14  1  0  0  0  0
  8  7  2  0  0  0  0
  9  7  1  0  0  0  0
  9 13  1  0  0  0  0
 10  1  1  0  0  0  0
 11  2  1  0  0  0  0
 12  3  1  0  0  0  0
 14 20  1  0  0  0  0
 15 14  2  0  0  0  0
 15 17  1  0  0  0  0
 16 15  1  0  0  0  0
 17 18  1  0  0  0  0
 18 19  1  0  0  0  0
 20 18  2  0  0  0  0
M  END
>  <minimizedAffinity>
-3.89446521

>  <minimizedRMSD>
1.49240005

$$$$
