
 OpenBabel03252501323D

 22 23  0  0  0  0  0  0  0  0999 V2000
   45.2370   34.8030   43.1900 C   0  0  0  0  0  0  0  0  0  0  0  0
   46.4700   34.3550   42.7510 C   0  0  0  0  0  0  0  0  0  0  0  0
   47.2560   33.7150   43.7080 C   0  0  0  0  0  0  0  0  0  0  0  0
   46.7810   33.5800   44.9520 N   0  0  0  0  0  0  0  0  0  0  0  0
   45.5670   34.0330   45.3400 C   0  0  0  0  0  0  0  0  0  0  0  0
   44.7710   34.6590   44.4470 N   0  0  0  0  0  0  0  0  0  0  0  0
   48.2130   33.3690   43.3590 H   0  0  0  0  0  0  0  0  0  0  0  0
   45.1810   33.9260   46.3440 H   0  0  0  0  0  0  0  0  0  0  0  0
   43.4330   34.5130   41.7070 C   0  0  0  0  0  0  0  0  0  0  0  0
   43.7760   33.3280   42.0360 O   0  0  0  0  0  0  0  0  0  0  0  0
   44.2710   35.4900   42.3590 N   0  0  0  0  0  0  0  0  0  0  0  0
   44.1690   36.5140   42.2310 H   0  0  0  0  0  0  0  0  0  0  0  0
   42.3660   35.0010   40.8100 C   0  0  0  0  0  0  0  0  0  0  0  0
   42.3610   34.8190   39.4070 C   0  0  0  0  0  0  0  0  0  0  0  0
   43.1270   34.3190   38.9160 H   0  0  0  0  0  0  0  0  0  0  0  0
   40.8210   35.6340   38.9370 S   0  0  0  0  0  0  0  0  0  0  0  0
   40.4190   36.0990   40.7360 C   0  0  0  0  0  0  0  0  0  0  0  0
   39.6440   36.6230   41.3650 H   0  0  0  0  0  0  0  0  0  0  0  0
   41.4100   35.6320   41.4660 N   0  0  0  0  0  0  0  0  0  0  0  0
   46.8010   34.5900   41.3960 N   0  0  0  0  0  0  0  0  0  0  0  0
   46.0810   34.3060   40.7170 H   0  0  0  0  0  0  0  0  0  0  0  0
   47.7240   35.0210   41.1760 H   0  0  0  0  0  0  0  0  0  0  0  0
  1  6  1  0  0  0  0
  2  1  2  0  0  0  0
  2  3  1  0  0  0  0
  3  4  2  0  0  0  0
  4  5  1  0  0  0  0
  5  8  1  0  0  0  0
  6  5  2  0  0  0  0
  7  3  1  0  0  0  0
  9 10  2  0  0  0  0
  9 11  1  0  0  0  0
 11  1  1  0  0  0  0
 12 11  1  0  0  0  0
 13 19  1  0  0  0  0
 13  9  1  0  0  0  0
 14 13  2  0  0  0  0
 15 14  1  0  0  0  0
 16 14  1  0  0  0  0
 16 17  1  0  0  0  0
 17 18  1  0  0  0  0
 17 19  2  0  0  0  0
 20  2  1  0  0  0  0
 21 20  1  0  0  0  0
 22 20  1  0  0  0  0
M  END
>  <minimizedAffinity>
-4.17424822

>  <minimizedRMSD>
2.90540528

$$$$
