
 OpenBabel03252501323D

 22 23  0  0  0  0  0  0  0  0999 V2000
   45.8790   33.4320   43.5390 C   0  0  0  0  0  0  0  0  0  0  0  0
   44.6450   33.1910   42.9630 C   0  0  0  0  0  0  0  0  0  0  0  0
   44.0940   34.2540   42.2510 C   0  0  0  0  0  0  0  0  0  0  0  0
   44.7730   35.4050   42.1720 N   0  0  0  0  0  0  0  0  0  0  0  0
   45.9790   35.5980   42.7520 C   0  0  0  0  0  0  0  0  0  0  0  0
   46.5530   34.5970   43.4520 N   0  0  0  0  0  0  0  0  0  0  0  0
   43.1330   34.0590   41.8050 H   0  0  0  0  0  0  0  0  0  0  0  0
   46.5300   36.5260   42.6910 H   0  0  0  0  0  0  0  0  0  0  0  0
   46.4000   32.7200   45.7210 C   0  0  0  0  0  0  0  0  0  0  0  0
   45.6210   33.7190   45.8840 O   0  0  0  0  0  0  0  0  0  0  0  0
   46.6240   32.4650   44.3190 N   0  0  0  0  0  0  0  0  0  0  0  0
   47.2280   31.7020   43.9610 H   0  0  0  0  0  0  0  0  0  0  0  0
   47.0650   31.8380   46.7020 C   0  0  0  0  0  0  0  0  0  0  0  0
   47.2870   30.4550   46.5060 C   0  0  0  0  0  0  0  0  0  0  0  0
   46.9860   29.9680   45.6400 H   0  0  0  0  0  0  0  0  0  0  0  0
   48.1190   29.9950   48.0400 S   0  0  0  0  0  0  0  0  0  0  0  0
   48.0360   31.7700   48.7150 C   0  0  0  0  0  0  0  0  0  0  0  0
   48.3200   32.3930   49.6120 H   0  0  0  0  0  0  0  0  0  0  0  0
   47.4340   32.4870   47.7900 N   0  0  0  0  0  0  0  0  0  0  0  0
   44.0790   31.9090   43.1540 N   0  0  0  0  0  0  0  0  0  0  0  0
   44.7060   31.1210   42.9430 H   0  0  0  0  0  0  0  0  0  0  0  0
   43.0930   31.8450   43.4860 H   0  0  0  0  0  0  0  0  0  0  0  0
  1 11  1  0  0  0  0
  2 20  1  0  0  0  0
  2  1  2  0  0  0  0
  3  2  1  0  0  0  0
  4  3  2  0  0  0  0
  4  5  1  0  0  0  0
  5  6  2  0  0  0  0
  6  1  1  0  0  0  0
  7  3  1  0  0  0  0
  8  5  1  0  0  0  0
  9 10  2  0  0  0  0
  9 13  1  0  0  0  0
 11  9  1  0  0  0  0
 12 11  1  0  0  0  0
 13 19  1  0  0  0  0
 14 13  2  0  0  0  0
 14 16  1  0  0  0  0
 15 14  1  0  0  0  0
 16 17  1  0  0  0  0
 17 18  1  0  0  0  0
 19 17  2  0  0  0  0
 20 22  1  0  0  0  0
 21 20  1  0  0  0  0
M  END
>  <minimizedAffinity>
-4.01243258

>  <minimizedRMSD>
6.364851

$$$$
