
 OpenBabel03242520193D

 33 35  0  0  0  0  0  0  0  0999 V2000
   41.0890   35.7220   39.1210 C   0  0  0  0  0  0  0  0  0  0  0  0
   40.8400   35.3730   38.1150 H   0  0  0  0  0  0  0  0  0  0  0  0
   41.3280   36.8030   39.0340 H   0  0  0  0  0  0  0  0  0  0  0  0
   43.9910   34.6130   41.2780 C   0  0  0  0  0  0  0  0  0  0  0  0
   42.8310   35.2920   40.8520 C   0  0  0  0  0  0  0  0  0  0  0  0
   42.3170   35.0310   39.5930 C   0  0  0  0  0  0  0  0  0  0  0  0
   42.9890   34.1060   38.8280 N   0  0  0  0  0  0  0  0  0  0  0  0
   44.1020   33.4800   39.2820 C   0  0  0  0  0  0  0  0  0  0  0  0
   44.5970   33.7280   40.4890 N   0  0  0  0  0  0  0  0  0  0  0  0
   42.3680   36.0090   41.5320 H   0  0  0  0  0  0  0  0  0  0  0  0
   44.5530   32.7670   38.5890 H   0  0  0  0  0  0  0  0  0  0  0  0
   44.5390   34.9100   42.6260 C   0  0  0  0  0  0  0  0  0  0  0  0
   46.0660   35.2710   42.5710 C   0  0  0  0  0  0  0  0  0  0  0  0
   45.0140   36.1780   43.0420 C   0  0  0  0  0  0  0  0  0  0  0  0
   44.3400   34.0610   43.3340 H   0  0  0  0  0  0  0  0  0  0  0  0
   46.7070   34.7130   43.2780 H   0  0  0  0  0  0  0  0  0  0  0  0
   46.5240   35.3490   41.5720 H   0  0  0  0  0  0  0  0  0  0  0  0
   44.8110   37.0760   42.4000 H   0  0  0  0  0  0  0  0  0  0  0  0
   44.9740   36.4720   44.1190 H   0  0  0  0  0  0  0  0  0  0  0  0
   39.9660   35.5510   40.1240 C   0  0  0  0  0  0  0  0  0  0  0  0
   39.1780   36.3260   39.9010 H   0  0  0  0  0  0  0  0  0  0  0  0
   40.3600   35.8020   41.1110 H   0  0  0  0  0  0  0  0  0  0  0  0
   39.5040   33.4150   41.2520 C   0  0  0  0  0  0  0  0  0  0  0  0
   39.9100   33.8480   42.3700 O   0  0  0  0  0  0  0  0  0  0  0  0
   39.3930   34.2130   40.0870 N   0  0  0  0  0  0  0  0  0  0  0  0
   38.9360   33.9090   39.2210 H   0  0  0  0  0  0  0  0  0  0  0  0
   39.1280   31.9830   41.1810 C   0  0  0  0  0  0  0  0  0  0  0  0
   38.2330   31.6970   40.2170 C   0  0  0  0  0  0  0  0  0  0  0  0
   37.6190   32.1020   39.4010 H   0  0  0  0  0  0  0  0  0  0  0  0
   37.9880   29.8230   40.4100 S   0  0  0  0  0  0  0  0  0  0  0  0
   39.2310   29.8430   41.8470 C   0  0  0  0  0  0  0  0  0  0  0  0
   39.7860   29.1440   42.6700 H   0  0  0  0  0  0  0  0  0  0  0  0
   39.4910   30.9260   41.8720 N   0  0  0  0  0  0  0  0  0  0  0  0
  1  6  1  0  0  0  0
  1 20  1  0  0  0  0
  2  1  1  0  0  0  0
  3  1  1  0  0  0  0
  4 12  1  0  0  0  0
  5  4  1  0  0  0  0
  5 10  1  0  0  0  0
  6  5  2  0  0  0  0
  7  8  2  0  0  0  0
  7  6  1  0  0  0  0
  8  9  1  0  0  0  0
  9  4  2  0  0  0  0
 11  8  1  0  0  0  0
 12 14  1  0  0  0  0
 12 15  1  0  0  0  0
 13 12  1  0  0  0  0
 13 14  1  0  0  0  0
 13 16  1  0  0  0  0
 14 19  1  0  0  0  0
 17 13  1  0  0  0  0
 18 14  1  0  0  0  0
 20 22  1  0  0  0  0
 21 20  1  0  0  0  0
 23 24  2  0  0  0  0
 25 20  1  0  0  0  0
 25 23  1  0  0  0  0
 26 25  1  0  0  0  0
 27 23  1  0  0  0  0
 27 33  1  0  0  0  0
 28 30  1  0  0  0  0
 28 27  2  0  0  0  0
 29 28  1  0  0  0  0
 30 31  1  0  0  0  0
 31 33  2  0  0  0  0
 31 32  1  0  0  0  0
M  END
>  <minimizedAffinity>
-4.53274679

>  <minimizedRMSD>
0.966381848

$$$$
