
 OpenBabel03252508523D

 26 28  0  0  0  0  0  0  0  0999 V2000
   36.7690   25.8180   40.4040 C   0  0  0  0  0  0  0  0  0  0  0  0
   37.3530   25.8230   41.6670 C   0  0  0  0  0  0  0  0  0  0  0  0
   37.8320   24.5960   42.1310 C   0  0  0  0  0  0  0  0  0  0  0  0
   37.7020   23.4950   41.3380 N   0  0  0  0  0  0  0  0  0  0  0  0
   37.1350   23.5460   40.1370 C   0  0  0  0  0  0  0  0  0  0  0  0
   36.6630   24.7060   39.6570 N   0  0  0  0  0  0  0  0  0  0  0  0
   38.2940   24.5610   43.1120 H   0  0  0  0  0  0  0  0  0  0  0  0
   37.0120   22.6970   39.4750 H   0  0  0  0  0  0  0  0  0  0  0  0
   37.4370   27.0550   42.4210 C   0  0  0  0  0  0  0  0  0  0  0  0
   38.6080   27.7980   42.5230 C   0  0  0  0  0  0  0  0  0  0  0  0
   38.2310   28.8640   43.3190 C   0  0  0  0  0  0  0  0  0  0  0  0
   36.9230   28.7800   43.6790 N   0  0  0  0  0  0  0  0  0  0  0  0
   36.4710   27.6740   43.1200 N   0  0  0  0  0  0  0  0  0  0  0  0
   39.5740   27.6060   42.0940 H   0  0  0  0  0  0  0  0  0  0  0  0
   38.8530   29.6880   43.6450 H   0  0  0  0  0  0  0  0  0  0  0  0
   36.3250   29.3860   44.2540 H   0  0  0  0  0  0  0  0  0  0  0  0
   36.2800   27.0140   39.9030 O   0  0  0  0  0  0  0  0  0  0  0  0
   36.9520   27.9400   39.1600 C   0  0  0  0  0  0  0  0  0  0  0  0
   37.6860   27.7280   38.1290 O   0  0  0  0  0  0  0  0  0  0  0  0
   36.8940   29.3980   39.5060 C   0  0  0  0  0  0  0  0  0  0  0  0
   37.4130   30.2910   38.5760 C   0  0  0  0  0  0  0  0  0  0  0  0
   37.8920   30.3170   37.5880 H   0  0  0  0  0  0  0  0  0  0  0  0
   37.1680   31.9560   39.3480 S   0  0  0  0  0  0  0  0  0  0  0  0
   36.3750   31.1130   40.8530 C   0  0  0  0  0  0  0  0  0  0  0  0
   35.8320   31.2470   41.9960 H   0  0  0  0  0  0  0  0  0  0  0  0
   36.4340   30.0380   40.5590 N   0  0  0  0  0  0  0  0  0  0  0  0
  1  2  1  0  0  0  0
  2  3  2  0  0  0  0
  2  9  1  0  0  0  0
  3  7  1  0  0  0  0
  4  3  1  0  0  0  0
  5  4  2  0  0  0  0
  6  5  1  0  0  0  0
  6  1  2  0  0  0  0
  8  5  1  0  0  0  0
  9 10  1  0  0  0  0
  9 13  2  0  0  0  0
 10 11  2  0  0  0  0
 11 15  1  0  0  0  0
 11 12  1  0  0  0  0
 12 16  1  0  0  0  0
 13 12  1  0  0  0  0
 14 10  1  0  0  0  0
 17  1  1  0  0  0  0
 18 20  1  0  0  0  0
 18 17  1  0  0  0  0
 19 18  2  0  0  0  0
 20 26  1  0  0  0  0
 21 23  1  0  0  0  0
 21 20  2  0  0  0  0
 22 21  1  0  0  0  0
 23 24  1  0  0  0  0
 24 25  1  0  0  0  0
 26 24  2  0  0  0  0
M  END
>  <minimizedAffinity>
-4.64733171

$$$$

 OpenBabel03252508523D

 26 28  0  0  0  0  0  0  0  0999 V2000
   36.5340   27.8530   39.3400 C   0  0  0  0  0  0  0  0  0  0  0  0
   35.9810   29.0060   38.7920 C   0  0  0  0  0  0  0  0  0  0  0  0
   35.0590   28.8200   37.7600 C   0  0  0  0  0  0  0  0  0  0  0  0
   34.7640   27.5500   37.3620 N   0  0  0  0  0  0  0  0  0  0  0  0
   35.3220   26.4810   37.9200 C   0  0  0  0  0  0  0  0  0  0  0  0
   36.2120   26.6200   38.9140 N   0  0  0  0  0  0  0  0  0  0  0  0
   34.6080   29.6970   37.3080 H   0  0  0  0  0  0  0  0  0  0  0  0
   35.1160   25.4570   37.6350 H   0  0  0  0  0  0  0  0  0  0  0  0
   36.3700   30.3060   39.2960 C   0  0  0  0  0  0  0  0  0  0  0  0
   37.1510   31.1950   38.5660 C   0  0  0  0  0  0  0  0  0  0  0  0
   37.2700   32.2770   39.4180 C   0  0  0  0  0  0  0  0  0  0  0  0
   36.6070   32.0670   40.5870 N   0  0  0  0  0  0  0  0  0  0  0  0
   36.0750   30.8650   40.4820 N   0  0  0  0  0  0  0  0  0  0  0  0
   37.5680   31.0830   37.5820 H   0  0  0  0  0  0  0  0  0  0  0  0
   37.8060   33.1990   39.2330 H   0  0  0  0  0  0  0  0  0  0  0  0
   36.4880   32.6460   41.4260 H   0  0  0  0  0  0  0  0  0  0  0  0
   37.4540   27.9910   40.3670 O   0  0  0  0  0  0  0  0  0  0  0  0
   37.3170   27.5890   41.6640 C   0  0  0  0  0  0  0  0  0  0  0  0
   36.3840   27.9090   42.4840 O   0  0  0  0  0  0  0  0  0  0  0  0
   38.3200   26.6720   42.2980 C   0  0  0  0  0  0  0  0  0  0  0  0
   38.2690   25.3310   41.9370 C   0  0  0  0  0  0  0  0  0  0  0  0
   37.7100   24.6380   41.2950 H   0  0  0  0  0  0  0  0  0  0  0  0
   39.6310   24.5390   42.9100 S   0  0  0  0  0  0  0  0  0  0  0  0
   40.0430   26.2310   43.6630 C   0  0  0  0  0  0  0  0  0  0  0  0
   40.7810   26.9050   44.4520 H   0  0  0  0  0  0  0  0  0  0  0  0
   39.2830   26.8830   43.1690 N   0  0  0  0  0  0  0  0  0  0  0  0
  1 17  1  0  0  0  0
  2  9  1  0  0  0  0
  2  1  2  0  0  0  0
  3  2  1  0  0  0  0
  4  3  2  0  0  0  0
  4  5  1  0  0  0  0
  5  6  2  0  0  0  0
  6  1  1  0  0  0  0
  7  3  1  0  0  0  0
  8  5  1  0  0  0  0
  9 13  2  0  0  0  0
 10  9  1  0  0  0  0
 10 11  2  0  0  0  0
 11 12  1  0  0  0  0
 12 16  1  0  0  0  0
 13 12  1  0  0  0  0
 14 10  1  0  0  0  0
 15 11  1  0  0  0  0
 17 18  1  0  0  0  0
 18 20  1  0  0  0  0
 18 19  2  0  0  0  0
 20 26  1  0  0  0  0
 21 20  2  0  0  0  0
 21 23  1  0  0  0  0
 22 21  1  0  0  0  0
 23 24  1  0  0  0  0
 24 25  1  0  0  0  0
 26 24  2  0  0  0  0
M  END
>  <minimizedAffinity>
-4.61547089

$$$$

 OpenBabel03252508523D

 26 28  0  0  0  0  0  0  0  0999 V2000
   39.5190   31.5160   41.2510 C   0  0  0  0  0  0  0  0  0  0  0  0
   38.5840   31.5450   40.2200 C   0  0  0  0  0  0  0  0  0  0  0  0
   38.9110   32.3280   39.1120 C   0  0  0  0  0  0  0  0  0  0  0  0
   40.0970   33.0000   39.1050 N   0  0  0  0  0  0  0  0  0  0  0  0
   40.9550   32.9370   40.1180 C   0  0  0  0  0  0  0  0  0  0  0  0
   40.6770   32.1960   41.2010 N   0  0  0  0  0  0  0  0  0  0  0  0
   38.2060   32.3760   38.2890 H   0  0  0  0  0  0  0  0  0  0  0  0
   41.9070   33.4540   40.1550 H   0  0  0  0  0  0  0  0  0  0  0  0
   37.3550   30.7910   40.3360 C   0  0  0  0  0  0  0  0  0  0  0  0
   37.0820   29.6710   39.5580 C   0  0  0  0  0  0  0  0  0  0  0  0
   35.8290   29.2850   39.9970 C   0  0  0  0  0  0  0  0  0  0  0  0
   35.3670   30.1090   40.9760 N   0  0  0  0  0  0  0  0  0  0  0  0
   36.3140   31.0090   41.1570 N   0  0  0  0  0  0  0  0  0  0  0  0
   37.6850   29.2080   38.7980 H   0  0  0  0  0  0  0  0  0  0  0  0
   35.2430   28.4440   39.6460 H   0  0  0  0  0  0  0  0  0  0  0  0
   34.4940   30.1170   41.5160 H   0  0  0  0  0  0  0  0  0  0  0  0
   39.2350   30.7520   42.3720 O   0  0  0  0  0  0  0  0  0  0  0  0
   39.5930   29.4550   42.6050 C   0  0  0  0  0  0  0  0  0  0  0  0
   40.7740   28.9990   42.8130 O   0  0  0  0  0  0  0  0  0  0  0  0
   38.5650   28.3650   42.6370 C   0  0  0  0  0  0  0  0  0  0  0  0
   38.8800   27.1780   41.9850 C   0  0  0  0  0  0  0  0  0  0  0  0
   39.6840   26.7080   41.4040 H   0  0  0  0  0  0  0  0  0  0  0  0
   37.3930   26.1030   42.2390 S   0  0  0  0  0  0  0  0  0  0  0  0
   36.5780   27.5070   43.2210 C   0  0  0  0  0  0  0  0  0  0  0  0
   35.5630   27.9120   43.8750 H   0  0  0  0  0  0  0  0  0  0  0  0
   37.3680   28.2950   43.1770 N   0  0  0  0  0  0  0  0  0  0  0  0
  1 17  1  0  0  0  0
  2  9  1  0  0  0  0
  2  1  2  0  0  0  0
  3  2  1  0  0  0  0
  4  3  2  0  0  0  0
  4  5  1  0  0  0  0
  5  8  1  0  0  0  0
  5  6  2  0  0  0  0
  6  1  1  0  0  0  0
  7  3  1  0  0  0  0
  9 13  2  0  0  0  0
 10 11  2  0  0  0  0
 10  9  1  0  0  0  0
 11 12  1  0  0  0  0
 12 13  1  0  0  0  0
 12 16  1  0  0  0  0
 14 10  1  0  0  0  0
 15 11  1  0  0  0  0
 17 18  1  0  0  0  0
 18 20  1  0  0  0  0
 18 19  2  0  0  0  0
 20 26  1  0  0  0  0
 21 23  1  0  0  0  0
 21 20  2  0  0  0  0
 22 21  1  0  0  0  0
 23 24  1  0  0  0  0
 24 25  1  0  0  0  0
 26 24  2  0  0  0  0
M  END
>  <minimizedAffinity>
-4.59631538

$$$$

 OpenBabel03252508523D

 26 28  0  0  0  0  0  0  0  0999 V2000
   35.6720   27.3250   38.3090 C   0  0  0  0  0  0  0  0  0  0  0  0
   34.9960   28.5350   38.4350 C   0  0  0  0  0  0  0  0  0  0  0  0
   33.8460   28.6840   37.6570 C   0  0  0  0  0  0  0  0  0  0  0  0
   33.4640   27.6610   36.8420 N   0  0  0  0  0  0  0  0  0  0  0  0
   34.1480   26.5240   36.7590 C   0  0  0  0  0  0  0  0  0  0  0  0
   35.2580   26.3430   37.4910 N   0  0  0  0  0  0  0  0  0  0  0  0
   33.2930   29.6150   37.7290 H   0  0  0  0  0  0  0  0  0  0  0  0
   33.8800   25.6870   36.1260 H   0  0  0  0  0  0  0  0  0  0  0  0
   35.4950   29.5530   39.3340 C   0  0  0  0  0  0  0  0  0  0  0  0
   36.4870   30.4570   38.9740 C   0  0  0  0  0  0  0  0  0  0  0  0
   36.6420   31.2210   40.1150 C   0  0  0  0  0  0  0  0  0  0  0  0
   35.8030   30.8150   41.1050 N   0  0  0  0  0  0  0  0  0  0  0  0
   35.1230   29.8040   40.6010 N   0  0  0  0  0  0  0  0  0  0  0  0
   37.0140   30.5520   38.0410 H   0  0  0  0  0  0  0  0  0  0  0  0
   37.3250   32.0490   40.2610 H   0  0  0  0  0  0  0  0  0  0  0  0
   35.6540   31.1490   42.0650 H   0  0  0  0  0  0  0  0  0  0  0  0
   36.8190   27.1340   39.0620 O   0  0  0  0  0  0  0  0  0  0  0  0
   36.9270   26.4940   40.2630 C   0  0  0  0  0  0  0  0  0  0  0  0
   36.7640   25.2420   40.4960 O   0  0  0  0  0  0  0  0  0  0  0  0
   37.2660   27.2490   41.5130 C   0  0  0  0  0  0  0  0  0  0  0  0
   38.3000   28.1750   41.4320 C   0  0  0  0  0  0  0  0  0  0  0  0
   39.0220   28.5920   40.7180 H   0  0  0  0  0  0  0  0  0  0  0  0
   38.4180   28.8840   43.1390 S   0  0  0  0  0  0  0  0  0  0  0  0
   36.9910   27.7560   43.6790 C   0  0  0  0  0  0  0  0  0  0  0  0
   36.2200   27.3740   44.6180 H   0  0  0  0  0  0  0  0  0  0  0  0
   36.7660   27.2150   42.7290 N   0  0  0  0  0  0  0  0  0  0  0  0
  1  2  1  0  0  0  0
  1 17  1  0  0  0  0
  2  9  1  0  0  0  0
  3  7  1  0  0  0  0
  3  2  2  0  0  0  0
  4  3  1  0  0  0  0
  5  4  2  0  0  0  0
  5  6  1  0  0  0  0
  6  1  2  0  0  0  0
  8  5  1  0  0  0  0
  9 13  2  0  0  0  0
 10  9  1  0  0  0  0
 10 11  2  0  0  0  0
 11 15  1  0  0  0  0
 11 12  1  0  0  0  0
 12 16  1  0  0  0  0
 13 12  1  0  0  0  0
 14 10  1  0  0  0  0
 17 18  1  0  0  0  0
 18 19  2  0  0  0  0
 18 20  1  0  0  0  0
 20 26  1  0  0  0  0
 21 20  2  0  0  0  0
 21 23  1  0  0  0  0
 22 21  1  0  0  0  0
 23 24  1  0  0  0  0
 24 25  1  0  0  0  0
 26 24  2  0  0  0  0
M  END
>  <minimizedAffinity>
-4.55583525

$$$$

 OpenBabel03252508523D

 26 28  0  0  0  0  0  0  0  0999 V2000
   39.0660   28.7000   42.6900 C   0  0  0  0  0  0  0  0  0  0  0  0
   37.9800   28.3160   41.9090 C   0  0  0  0  0  0  0  0  0  0  0  0
   37.6940   26.9500   41.8780 C   0  0  0  0  0  0  0  0  0  0  0  0
   38.4760   26.0960   42.5960 N   0  0  0  0  0  0  0  0  0  0  0  0
   39.5040   26.5160   43.3270 C   0  0  0  0  0  0  0  0  0  0  0  0
   39.8100   27.8210   43.3820 N   0  0  0  0  0  0  0  0  0  0  0  0
   36.8540   26.6140   41.2790 H   0  0  0  0  0  0  0  0  0  0  0  0
   40.1500   25.8730   43.9120 H   0  0  0  0  0  0  0  0  0  0  0  0
   37.2190   29.3130   41.1880 C   0  0  0  0  0  0  0  0  0  0  0  0
   37.1860   29.3770   39.7990 C   0  0  0  0  0  0  0  0  0  0  0  0
   36.3570   30.4570   39.5570 C   0  0  0  0  0  0  0  0  0  0  0  0
   35.9120   31.0140   40.7150 N   0  0  0  0  0  0  0  0  0  0  0  0
   36.4520   30.2990   41.6830 N   0  0  0  0  0  0  0  0  0  0  0  0
   37.6780   28.7500   39.0780 H   0  0  0  0  0  0  0  0  0  0  0  0
   36.0630   30.8520   38.5930 H   0  0  0  0  0  0  0  0  0  0  0  0
   35.2950   31.8120   40.9040 H   0  0  0  0  0  0  0  0  0  0  0  0
   39.3870   30.0470   42.7510 O   0  0  0  0  0  0  0  0  0  0  0  0
   40.3590   30.7020   42.0500 C   0  0  0  0  0  0  0  0  0  0  0  0
   41.5920   30.3700   41.9340 O   0  0  0  0  0  0  0  0  0  0  0  0
   40.0520   31.9630   41.3000 C   0  0  0  0  0  0  0  0  0  0  0  0
   41.1340   32.7040   40.8380 C   0  0  0  0  0  0  0  0  0  0  0  0
   42.2320   32.6970   40.8220 H   0  0  0  0  0  0  0  0  0  0  0  0
   40.3680   34.1570   39.9840 S   0  0  0  0  0  0  0  0  0  0  0  0
   38.6510   33.4770   40.4220 C   0  0  0  0  0  0  0  0  0  0  0  0
   37.3880   33.6250   40.3570 H   0  0  0  0  0  0  0  0  0  0  0  0
   38.9180   32.5440   40.9740 N   0  0  0  0  0  0  0  0  0  0  0  0
  1 17  1  0  0  0  0
  1  6  1  0  0  0  0
  2  1  2  0  0  0  0
  3  2  1  0  0  0  0
  3  4  2  0  0  0  0
  4  5  1  0  0  0  0
  5  6  2  0  0  0  0
  5  8  1  0  0  0  0
  7  3  1  0  0  0  0
  9 13  2  0  0  0  0
  9  2  1  0  0  0  0
 10  9  1  0  0  0  0
 11 10  2  0  0  0  0
 11 12  1  0  0  0  0
 12 16  1  0  0  0  0
 12 13  1  0  0  0  0
 14 10  1  0  0  0  0
 15 11  1  0  0  0  0
 18 17  1  0  0  0  0
 19 18  2  0  0  0  0
 20 18  1  0  0  0  0
 21 20  2  0  0  0  0
 22 21  1  0  0  0  0
 23 24  1  0  0  0  0
 23 21  1  0  0  0  0
 24 26  2  0  0  0  0
 25 24  1  0  0  0  0
 26 20  1  0  0  0  0
M  END
>  <minimizedAffinity>
-4.47646284

$$$$

 OpenBabel03252508523D

 26 28  0  0  0  0  0  0  0  0999 V2000
   39.6070   28.7690   41.9870 C   0  0  0  0  0  0  0  0  0  0  0  0
   38.2980   28.4120   42.2970 C   0  0  0  0  0  0  0  0  0  0  0  0
   38.1430   27.3450   43.1840 C   0  0  0  0  0  0  0  0  0  0  0  0
   39.2550   26.7320   43.6790 N   0  0  0  0  0  0  0  0  0  0  0  0
   40.4840   27.1140   43.3490 C   0  0  0  0  0  0  0  0  0  0  0  0
   40.6740   28.1360   42.5010 N   0  0  0  0  0  0  0  0  0  0  0  0
   37.1370   27.0370   43.4480 H   0  0  0  0  0  0  0  0  0  0  0  0
   41.3940   26.6570   43.7200 H   0  0  0  0  0  0  0  0  0  0  0  0
   37.1910   29.1350   41.7090 C   0  0  0  0  0  0  0  0  0  0  0  0
   36.2540   28.5330   40.8780 C   0  0  0  0  0  0  0  0  0  0  0  0
   35.4050   29.5760   40.5590 C   0  0  0  0  0  0  0  0  0  0  0  0
   35.7940   30.7360   41.1540 N   0  0  0  0  0  0  0  0  0  0  0  0
   36.8780   30.4350   41.8420 N   0  0  0  0  0  0  0  0  0  0  0  0
   36.1910   27.5100   40.5530 H   0  0  0  0  0  0  0  0  0  0  0  0
   34.5280   29.5360   39.9250 H   0  0  0  0  0  0  0  0  0  0  0  0
   35.4030   31.6850   41.1360 H   0  0  0  0  0  0  0  0  0  0  0  0
   39.8090   29.8240   41.1110 O   0  0  0  0  0  0  0  0  0  0  0  0
   39.9840   29.7580   39.7590 C   0  0  0  0  0  0  0  0  0  0  0  0
   41.0440   29.4050   39.1280 O   0  0  0  0  0  0  0  0  0  0  0  0
   38.8760   30.1230   38.8180 C   0  0  0  0  0  0  0  0  0  0  0  0
   38.4730   29.1520   37.9080 C   0  0  0  0  0  0  0  0  0  0  0  0
   38.6930   28.1210   37.6020 H   0  0  0  0  0  0  0  0  0  0  0  0
   37.1180   29.9620   36.9390 S   0  0  0  0  0  0  0  0  0  0  0  0
   37.3470   31.5320   37.9800 C   0  0  0  0  0  0  0  0  0  0  0  0
   36.9780   32.7270   38.2160 H   0  0  0  0  0  0  0  0  0  0  0  0
   38.1730   31.2240   38.6650 N   0  0  0  0  0  0  0  0  0  0  0  0
  1  2  2  0  0  0  0
  1  6  1  0  0  0  0
  2  3  1  0  0  0  0
  3  7  1  0  0  0  0
  3  4  2  0  0  0  0
  5  4  1  0  0  0  0
  5  8  1  0  0  0  0
  6  5  2  0  0  0  0
  9 13  2  0  0  0  0
  9  2  1  0  0  0  0
 10  9  1  0  0  0  0
 11 10  2  0  0  0  0
 11 12  1  0  0  0  0
 12 13  1  0  0  0  0
 14 10  1  0  0  0  0
 15 11  1  0  0  0  0
 16 12  1  0  0  0  0
 17  1  1  0  0  0  0
 18 17  1  0  0  0  0
 19 18  2  0  0  0  0
 20 18  1  0  0  0  0
 21 20  2  0  0  0  0
 22 21  1  0  0  0  0
 23 21  1  0  0  0  0
 23 24  1  0  0  0  0
 24 25  1  0  0  0  0
 24 26  2  0  0  0  0
 26 20  1  0  0  0  0
M  END
>  <minimizedAffinity>
-4.39831352

$$$$

 OpenBabel03252508523D

 26 28  0  0  0  0  0  0  0  0999 V2000
   38.2180   27.9650   42.5640 C   0  0  0  0  0  0  0  0  0  0  0  0
   37.4400   27.3260   41.6040 C   0  0  0  0  0  0  0  0  0  0  0  0
   37.6160   25.9460   41.4850 C   0  0  0  0  0  0  0  0  0  0  0  0
   38.5170   25.3240   42.2960 N   0  0  0  0  0  0  0  0  0  0  0  0
   39.2370   25.9840   43.1980 C   0  0  0  0  0  0  0  0  0  0  0  0
   39.0950   27.3100   43.3420 N   0  0  0  0  0  0  0  0  0  0  0  0
   37.0270   25.4130   40.7460 H   0  0  0  0  0  0  0  0  0  0  0  0
   39.9620   25.5300   43.8620 H   0  0  0  0  0  0  0  0  0  0  0  0
   36.5130   28.0890   40.7970 C   0  0  0  0  0  0  0  0  0  0  0  0
   36.6270   28.1970   39.4160 C   0  0  0  0  0  0  0  0  0  0  0  0
   35.5540   29.0010   39.0760 C   0  0  0  0  0  0  0  0  0  0  0  0
   34.8330   29.3590   40.1720 N   0  0  0  0  0  0  0  0  0  0  0  0
   35.4390   28.7920   41.1970 N   0  0  0  0  0  0  0  0  0  0  0  0
   37.3620   27.7680   38.7590 H   0  0  0  0  0  0  0  0  0  0  0  0
   35.2740   29.3330   38.0850 H   0  0  0  0  0  0  0  0  0  0  0  0
   33.9920   29.9380   40.2850 H   0  0  0  0  0  0  0  0  0  0  0  0
   38.0760   29.3360   42.7170 O   0  0  0  0  0  0  0  0  0  0  0  0
   38.8740   30.3160   42.2010 C   0  0  0  0  0  0  0  0  0  0  0  0
   39.9750   30.7590   42.6880 O   0  0  0  0  0  0  0  0  0  0  0  0
   38.5080   31.0190   40.9280 C   0  0  0  0  0  0  0  0  0  0  0  0
   39.3240   30.7950   39.8250 C   0  0  0  0  0  0  0  0  0  0  0  0
   40.2190   30.2370   39.5210 H   0  0  0  0  0  0  0  0  0  0  0  0
   38.5670   31.8150   38.4770 S   0  0  0  0  0  0  0  0  0  0  0  0
   37.2290   32.3860   39.6960 C   0  0  0  0  0  0  0  0  0  0  0  0
   36.1860   33.0890   39.8940 H   0  0  0  0  0  0  0  0  0  0  0  0
   37.5310   31.8450   40.6250 N   0  0  0  0  0  0  0  0  0  0  0  0
  1 17  1  0  0  0  0
  1  6  1  0  0  0  0
  2  1  2  0  0  0  0
  3  2  1  0  0  0  0
  3  4  2  0  0  0  0
  4  5  1  0  0  0  0
  5  6  2  0  0  0  0
  5  8  1  0  0  0  0
  7  3  1  0  0  0  0
  9 13  2  0  0  0  0
  9  2  1  0  0  0  0
 10  9  1  0  0  0  0
 11 10  2  0  0  0  0
 11 12  1  0  0  0  0
 12 16  1  0  0  0  0
 12 13  1  0  0  0  0
 14 10  1  0  0  0  0
 15 11  1  0  0  0  0
 18 19  2  0  0  0  0
 18 17  1  0  0  0  0
 20 18  1  0  0  0  0
 21 20  2  0  0  0  0
 22 21  1  0  0  0  0
 23 24  1  0  0  0  0
 23 21  1  0  0  0  0
 24 25  1  0  0  0  0
 24 26  2  0  0  0  0
 26 20  1  0  0  0  0
M  END
>  <minimizedAffinity>
-4.37600708

$$$$

 OpenBabel03252508523D

 26 28  0  0  0  0  0  0  0  0999 V2000
   36.9610   26.7500   40.6770 C   0  0  0  0  0  0  0  0  0  0  0  0
   37.8890   25.7420   40.4300 C   0  0  0  0  0  0  0  0  0  0  0  0
   37.9880   25.3040   39.1080 C   0  0  0  0  0  0  0  0  0  0  0  0
   37.1900   25.8750   38.1630 N   0  0  0  0  0  0  0  0  0  0  0  0
   36.3190   26.8360   38.4530 C   0  0  0  0  0  0  0  0  0  0  0  0
   36.1940   27.2840   39.7110 N   0  0  0  0  0  0  0  0  0  0  0  0
   38.7010   24.5190   38.8780 H   0  0  0  0  0  0  0  0  0  0  0  0
   35.6670   27.3160   37.7340 H   0  0  0  0  0  0  0  0  0  0  0  0
   38.6840   25.2090   41.5150 C   0  0  0  0  0  0  0  0  0  0  0  0
   39.9610   25.6730   41.8120 C   0  0  0  0  0  0  0  0  0  0  0  0
   40.3310   24.8950   42.8940 C   0  0  0  0  0  0  0  0  0  0  0  0
   39.3500   24.0180   43.2360 N   0  0  0  0  0  0  0  0  0  0  0  0
   38.3680   24.2330   42.3820 N   0  0  0  0  0  0  0  0  0  0  0  0
   40.5330   26.4450   41.3300 H   0  0  0  0  0  0  0  0  0  0  0  0
   41.2650   24.9350   43.4390 H   0  0  0  0  0  0  0  0  0  0  0  0
   39.2870   23.3060   43.9730 H   0  0  0  0  0  0  0  0  0  0  0  0
   36.8280   27.2160   41.9750 O   0  0  0  0  0  0  0  0  0  0  0  0
   37.4310   28.3070   42.5320 C   0  0  0  0  0  0  0  0  0  0  0  0
   37.9990   28.3820   43.6800 O   0  0  0  0  0  0  0  0  0  0  0  0
   37.4850   29.6150   41.8010 C   0  0  0  0  0  0  0  0  0  0  0  0
   38.7380   30.1900   41.6250 C   0  0  0  0  0  0  0  0  0  0  0  0
   39.8000   30.0160   41.8480 H   0  0  0  0  0  0  0  0  0  0  0  0
   38.4000   31.7610   40.7040 S   0  0  0  0  0  0  0  0  0  0  0  0
   36.5490   31.3420   40.7210 C   0  0  0  0  0  0  0  0  0  0  0  0
   35.3680   31.6830   40.3910 H   0  0  0  0  0  0  0  0  0  0  0  0
   36.5480   30.3680   41.2680 N   0  0  0  0  0  0  0  0  0  0  0  0
  1 17  1  0  0  0  0
  2  1  1  0  0  0  0
  2  9  1  0  0  0  0
  3  2  2  0  0  0  0
  4  5  2  0  0  0  0
  4  3  1  0  0  0  0
  5  6  1  0  0  0  0
  6  1  2  0  0  0  0
  7  3  1  0  0  0  0
  8  5  1  0  0  0  0
  9 10  1  0  0  0  0
  9 13  2  0  0  0  0
 10 11  2  0  0  0  0
 11 12  1  0  0  0  0
 11 15  1  0  0  0  0
 12 16  1  0  0  0  0
 13 12  1  0  0  0  0
 14 10  1  0  0  0  0
 17 18  1  0  0  0  0
 18 19  2  0  0  0  0
 20 18  1  0  0  0  0
 21 20  2  0  0  0  0
 21 22  1  0  0  0  0
 23 24  1  0  0  0  0
 23 21  1  0  0  0  0
 24 26  2  0  0  0  0
 25 24  1  0  0  0  0
 26 20  1  0  0  0  0
M  END
>  <minimizedAffinity>
-4.36004591

$$$$

 OpenBabel03252508523D

 26 28  0  0  0  0  0  0  0  0999 V2000
   38.3120   28.5840   42.7990 C   0  0  0  0  0  0  0  0  0  0  0  0
   39.6520   28.8740   42.5560 C   0  0  0  0  0  0  0  0  0  0  0  0
   40.5710   27.8810   42.8990 C   0  0  0  0  0  0  0  0  0  0  0  0
   40.1120   26.7160   43.4380 N   0  0  0  0  0  0  0  0  0  0  0  0
   38.8190   26.4900   43.6500 C   0  0  0  0  0  0  0  0  0  0  0  0
   37.9060   27.4200   43.3330 N   0  0  0  0  0  0  0  0  0  0  0  0
   41.6240   28.0720   42.7250 H   0  0  0  0  0  0  0  0  0  0  0  0
   38.4120   25.5810   44.0740 H   0  0  0  0  0  0  0  0  0  0  0  0
   40.0240   30.1480   41.9790 C   0  0  0  0  0  0  0  0  0  0  0  0
   40.5190   30.2730   40.6860 C   0  0  0  0  0  0  0  0  0  0  0  0
   40.7340   31.6340   40.5660 C   0  0  0  0  0  0  0  0  0  0  0  0
   40.3930   32.2950   41.7040 N   0  0  0  0  0  0  0  0  0  0  0  0
   39.9680   31.3680   42.5390 N   0  0  0  0  0  0  0  0  0  0  0  0
   40.6970   29.5110   39.9500 H   0  0  0  0  0  0  0  0  0  0  0  0
   41.1200   32.1610   39.7030 H   0  0  0  0  0  0  0  0  0  0  0  0
   40.4230   33.2890   41.9600 H   0  0  0  0  0  0  0  0  0  0  0  0
   37.3650   29.5420   42.4740 O   0  0  0  0  0  0  0  0  0  0  0  0
   36.6140   29.6140   41.3370 C   0  0  0  0  0  0  0  0  0  0  0  0
   35.5990   28.8930   41.0260 O   0  0  0  0  0  0  0  0  0  0  0  0
   36.9300   30.6140   40.2650 C   0  0  0  0  0  0  0  0  0  0  0  0
   37.1840   30.1180   38.9910 C   0  0  0  0  0  0  0  0  0  0  0  0
   37.2400   29.1720   38.4360 H   0  0  0  0  0  0  0  0  0  0  0  0
   37.5290   31.6240   37.9700 S   0  0  0  0  0  0  0  0  0  0  0  0
   37.2580   32.6990   39.5100 C   0  0  0  0  0  0  0  0  0  0  0  0
   37.2300   33.8690   40.0120 H   0  0  0  0  0  0  0  0  0  0  0  0
   37.0240   31.9260   40.2810 N   0  0  0  0  0  0  0  0  0  0  0  0
  1  6  1  0  0  0  0
  2  1  2  0  0  0  0
  2  3  1  0  0  0  0
  3  4  2  0  0  0  0
  4  5  1  0  0  0  0
  5  8  1  0  0  0  0
  6  5  2  0  0  0  0
  7  3  1  0  0  0  0
  9 13  2  0  0  0  0
  9  2  1  0  0  0  0
 10  9  1  0  0  0  0
 11 10  2  0  0  0  0
 11 12  1  0  0  0  0
 12 16  1  0  0  0  0
 12 13  1  0  0  0  0
 14 10  1  0  0  0  0
 15 11  1  0  0  0  0
 17  1  1  0  0  0  0
 18 17  1  0  0  0  0
 19 18  2  0  0  0  0
 20 26  1  0  0  0  0
 20 18  1  0  0  0  0
 21 20  2  0  0  0  0
 22 21  1  0  0  0  0
 23 21  1  0  0  0  0
 23 24  1  0  0  0  0
 24 25  1  0  0  0  0
 24 26  2  0  0  0  0
M  END
>  <minimizedAffinity>
-4.32493496

$$$$
