
 OpenBabel03252508503D

 26 28  0  0  0  0  0  0  0  0999 V2000
   45.9710   34.2000   41.0440 C   0  0  0  0  0  0  0  0  0  0  0  0
   46.5530   34.8150   42.1480 C   0  0  0  0  0  0  0  0  0  0  0  0
   47.8970   35.1710   42.0200 C   0  0  0  0  0  0  0  0  0  0  0  0
   48.5410   34.9020   40.8490 N   0  0  0  0  0  0  0  0  0  0  0  0
   47.9360   34.3100   39.8240 C   0  0  0  0  0  0  0  0  0  0  0  0
   46.6460   33.9530   39.9090 N   0  0  0  0  0  0  0  0  0  0  0  0
   48.3850   35.6520   42.8600 H   0  0  0  0  0  0  0  0  0  0  0  0
   48.4090   34.0780   38.8770 H   0  0  0  0  0  0  0  0  0  0  0  0
   45.7700   35.0520   43.3420 C   0  0  0  0  0  0  0  0  0  0  0  0
   45.0810   36.2380   43.5690 C   0  0  0  0  0  0  0  0  0  0  0  0
   44.4920   36.0250   44.8010 C   0  0  0  0  0  0  0  0  0  0  0  0
   44.7980   34.7950   45.2940 N   0  0  0  0  0  0  0  0  0  0  0  0
   45.5730   34.2320   44.3880 N   0  0  0  0  0  0  0  0  0  0  0  0
   45.0130   37.1130   42.9480 H   0  0  0  0  0  0  0  0  0  0  0  0
   43.8580   36.7100   45.3500 H   0  0  0  0  0  0  0  0  0  0  0  0
   44.5370   34.3170   46.1650 H   0  0  0  0  0  0  0  0  0  0  0  0
   44.6380   33.8290   41.1280 O   0  0  0  0  0  0  0  0  0  0  0  0
   43.5600   34.4800   40.6000 C   0  0  0  0  0  0  0  0  0  0  0  0
   43.3030   35.7350   40.6600 O   0  0  0  0  0  0  0  0  0  0  0  0
   42.4980   33.7330   39.8510 C   0  0  0  0  0  0  0  0  0  0  0  0
   42.9060   32.9880   38.7500 C   0  0  0  0  0  0  0  0  0  0  0  0
   43.8070   32.7260   38.1800 H   0  0  0  0  0  0  0  0  0  0  0  0
   41.3450   32.2310   38.1010 S   0  0  0  0  0  0  0  0  0  0  0  0
   40.3800   33.0910   39.4920 C   0  0  0  0  0  0  0  0  0  0  0  0
   39.2540   33.3010   40.0460 H   0  0  0  0  0  0  0  0  0  0  0  0
   41.1990   33.6320   40.0260 N   0  0  0  0  0  0  0  0  0  0  0  0
  1 17  1  0  0  0  0
  1  2  1  0  0  0  0
  2  9  1  0  0  0  0
  3  2  2  0  0  0  0
  3  7  1  0  0  0  0
  4  3  1  0  0  0  0
  5  6  1  0  0  0  0
  5  4  2  0  0  0  0
  6  1  2  0  0  0  0
  8  5  1  0  0  0  0
  9 10  1  0  0  0  0
  9 13  2  0  0  0  0
 10 11  2  0  0  0  0
 11 12  1  0  0  0  0
 11 15  1  0  0  0  0
 12 16  1  0  0  0  0
 13 12  1  0  0  0  0
 14 10  1  0  0  0  0
 18 19  2  0  0  0  0
 18 17  1  0  0  0  0
 20 26  1  0  0  0  0
 20 18  1  0  0  0  0
 21 20  2  0  0  0  0
 22 21  1  0  0  0  0
 23 21  1  0  0  0  0
 23 24  1  0  0  0  0
 24 26  2  0  0  0  0
 24 25  1  0  0  0  0
M  END
>  <minimizedAffinity>
-4.98492193

>  <minimizedRMSD>
0.468644828

$$$$
