
     RDKit          3D

 26 28  0  0  0  0  0  0  0  0999 V2000
   46.0850   34.1609   41.0138 C   0  0  0  0  0  0  0  0  0  0  0  0
   46.6171   34.8350   42.1091 C   0  0  0  0  0  0  0  0  0  0  0  0
   47.9356   35.2746   41.9819 C   0  0  0  0  0  0  0  0  0  0  0  0
   48.6061   35.0240   40.8219 N   0  0  0  0  0  0  0  0  0  0  0  0
   48.0490   34.3744   39.8047 C   0  0  0  0  0  0  0  0  0  0  0  0
   46.7841   33.9362   39.8893 N   0  0  0  0  0  0  0  0  0  0  0  0
   45.8110   35.0448   43.2922 C   0  0  0  0  0  0  0  0  0  0  0  0
   45.0459   36.1888   43.4901 C   0  0  0  0  0  0  0  0  0  0  0  0
   44.4607   35.9630   44.7219 C   0  0  0  0  0  0  0  0  0  0  0  0
   44.8405   34.7653   45.2420 N   0  0  0  0  0  0  0  0  0  0  0  0
   45.6566   34.2353   44.3532 N   0  0  0  0  0  0  0  0  0  0  0  0
   44.7777   33.7059   41.0956 O   0  0  0  0  0  0  0  0  0  0  0  0
   43.6878   34.1871   40.4297 C   0  0  0  0  0  0  0  0  0  0  0  0
   43.2529   35.3936   40.4177 O   0  0  0  0  0  0  0  0  0  0  0  0
   48.3849   35.8042   42.8156 H   0  0  0  0  0  0  0  0  0  0  0  0
   48.5443   34.1543   38.8668 H   0  0  0  0  0  0  0  0  0  0  0  0
   44.9284   37.0460   42.8517 H   0  0  0  0  0  0  0  0  0  0  0  0
   43.7810   36.6171   45.2533 H   0  0  0  0  0  0  0  0  0  0  0  0
   44.6035   34.2876   46.1200 H   0  0  0  0  0  0  0  0  0  0  0  0
   42.8339   33.2827   39.5933 C   0  0  0  0  0  0  0  0  0  0  0  0
   41.4865   33.6092   39.4814 C   0  0  0  0  0  0  0  0  0  0  0  0
   40.7575   34.3594   39.8141 H   0  0  0  0  0  0  0  0  0  0  0  0
   40.7796   32.2848   38.3975 S   0  0  0  0  0  0  0  0  0  0  0  0
   42.5014   31.4938   38.2842 C   0  0  0  0  0  0  0  0  0  0  0  0
   43.2220   30.5534   37.8192 H   0  0  0  0  0  0  0  0  0  0  0  0
   43.1062   32.1914   38.9130 N   0  0  0  0  0  0  0  0  0  0  0  0
  1 12  1  0
  1  2  1  0
  2  7  1  0
  3  2  2  0
  4  3  1  0
  5  6  1  0
  5  4  2  0
  6  1  2  0
  7  8  1  0
  7 11  2  0
  8  9  2  0
  9 10  1  0
 11 10  1  0
 13 14  2  0
 13 12  1  0
  3 15  1  0
  5 16  1  0
  8 17  1  0
  9 18  1  0
 10 19  1  0
 20 21  2  0
 21 22  1  0
 21 23  1  0
 23 24  1  0
 24 25  1  0
 24 26  2  0
 26 20  1  0
 13 20  1  0
M  ISO  7  15  14  16  14  17  14  18  14  19   9  22  15  25  16
M  END
>  <DihAtoms>  (1) 
13,12,19,20

>  <DihDeg>  (1) 
0.20162254765022983

$$$$
