
 OpenBabel03252508503D

 26 28  0  0  0  0  0  0  0  0999 V2000
   45.9900   34.1780   41.0530 C   0  0  0  0  0  0  0  0  0  0  0  0
   46.5610   34.8180   42.1490 C   0  0  0  0  0  0  0  0  0  0  0  0
   47.8960   35.2020   42.0140 C   0  0  0  0  0  0  0  0  0  0  0  0
   48.5440   34.9340   40.8450 N   0  0  0  0  0  0  0  0  0  0  0  0
   47.9500   34.3180   39.8270 C   0  0  0  0  0  0  0  0  0  0  0  0
   46.6690   33.9340   39.9190 N   0  0  0  0  0  0  0  0  0  0  0  0
   48.3750   35.7040   42.8480 H   0  0  0  0  0  0  0  0  0  0  0  0
   48.4270   34.0860   38.8830 H   0  0  0  0  0  0  0  0  0  0  0  0
   45.7750   35.0510   43.3420 C   0  0  0  0  0  0  0  0  0  0  0  0
   45.0700   36.2290   43.5620 C   0  0  0  0  0  0  0  0  0  0  0  0
   44.4840   36.0140   44.7960 C   0  0  0  0  0  0  0  0  0  0  0  0
   44.8070   34.7920   45.2960 N   0  0  0  0  0  0  0  0  0  0  0  0
   45.5890   34.2350   44.3930 N   0  0  0  0  0  0  0  0  0  0  0  0
   44.9900   37.0990   42.9370 H   0  0  0  0  0  0  0  0  0  0  0  0
   43.8410   36.6940   45.3410 H   0  0  0  0  0  0  0  0  0  0  0  0
   44.5530   34.3150   46.1690 H   0  0  0  0  0  0  0  0  0  0  0  0
   44.6660   33.7780   41.1440 O   0  0  0  0  0  0  0  0  0  0  0  0
   43.5730   34.3970   40.6080 C   0  0  0  0  0  0  0  0  0  0  0  0
   43.3200   35.6550   40.5930 O   0  0  0  0  0  0  0  0  0  0  0  0
   42.4880   33.6070   39.9420 C   0  0  0  0  0  0  0  0  0  0  0  0
   42.0420   34.0590   38.7050 C   0  0  0  0  0  0  0  0  0  0  0  0
   42.2150   34.8590   37.9730 H   0  0  0  0  0  0  0  0  0  0  0  0
   40.7260   32.8510   38.2190 S   0  0  0  0  0  0  0  0  0  0  0  0
   41.0250   31.9100   39.8400 C   0  0  0  0  0  0  0  0  0  0  0  0
   40.7100   30.9280   40.5850 H   0  0  0  0  0  0  0  0  0  0  0  0
   41.8360   32.5230   40.3040 N   0  0  0  0  0  0  0  0  0  0  0  0
  1 17  1  0  0  0  0
  1  2  1  0  0  0  0
  2  9  1  0  0  0  0
  3  2  2  0  0  0  0
  3  7  1  0  0  0  0
  4  3  1  0  0  0  0
  5  6  1  0  0  0  0
  5  4  2  0  0  0  0
  6  1  2  0  0  0  0
  8  5  1  0  0  0  0
  9 10  1  0  0  0  0
  9 13  2  0  0  0  0
 10 11  2  0  0  0  0
 11 12  1  0  0  0  0
 11 15  1  0  0  0  0
 12 16  1  0  0  0  0
 13 12  1  0  0  0  0
 14 10  1  0  0  0  0
 18 17  1  0  0  0  0
 19 18  2  0  0  0  0
 20 26  1  0  0  0  0
 20 18  1  0  0  0  0
 21 20  2  0  0  0  0
 22 21  1  0  0  0  0
 23 21  1  0  0  0  0
 23 24  1  0  0  0  0
 24 26  2  0  0  0  0
 24 25  1  0  0  0  0
M  END
>  <minimizedAffinity>
-4.98872137

>  <minimizedRMSD>
0.455074847

$$$$
