
 OpenBabel03252508503D

 26 28  0  0  0  0  0  0  0  0999 V2000
   45.9730   34.1920   41.0610 C   0  0  0  0  0  0  0  0  0  0  0  0
   46.5520   34.8190   42.1600 C   0  0  0  0  0  0  0  0  0  0  0  0
   47.8910   35.1890   42.0250 C   0  0  0  0  0  0  0  0  0  0  0  0
   48.5350   34.9200   40.8540 N   0  0  0  0  0  0  0  0  0  0  0  0
   47.9340   34.3170   39.8340 C   0  0  0  0  0  0  0  0  0  0  0  0
   46.6480   33.9460   39.9250 N   0  0  0  0  0  0  0  0  0  0  0  0
   48.3770   35.6800   42.8620 H   0  0  0  0  0  0  0  0  0  0  0  0
   48.4070   34.0840   38.8880 H   0  0  0  0  0  0  0  0  0  0  0  0
   45.7700   35.0540   43.3540 C   0  0  0  0  0  0  0  0  0  0  0  0
   45.0810   36.2400   43.5830 C   0  0  0  0  0  0  0  0  0  0  0  0
   44.4920   36.0250   44.8160 C   0  0  0  0  0  0  0  0  0  0  0  0
   44.7990   34.7950   45.3070 N   0  0  0  0  0  0  0  0  0  0  0  0
   45.5740   34.2330   44.4000 N   0  0  0  0  0  0  0  0  0  0  0  0
   45.0120   37.1160   42.9640 H   0  0  0  0  0  0  0  0  0  0  0  0
   43.8590   36.7090   45.3660 H   0  0  0  0  0  0  0  0  0  0  0  0
   44.5390   34.3150   46.1770 H   0  0  0  0  0  0  0  0  0  0  0  0
   44.6440   33.8070   41.1500 O   0  0  0  0  0  0  0  0  0  0  0  0
   43.5550   34.4600   40.6500 C   0  0  0  0  0  0  0  0  0  0  0  0
   43.3390   35.7250   40.6490 O   0  0  0  0  0  0  0  0  0  0  0  0
   42.4280   33.7050   40.0120 C   0  0  0  0  0  0  0  0  0  0  0  0
   42.4680   33.5540   38.6310 C   0  0  0  0  0  0  0  0  0  0  0  0
   43.0840   33.8110   37.7590 H   0  0  0  0  0  0  0  0  0  0  0  0
   40.9380   32.5920   38.2270 S   0  0  0  0  0  0  0  0  0  0  0  0
   40.4990   32.5640   40.0730 C   0  0  0  0  0  0  0  0  0  0  0  0
   39.6840   32.1920   40.9780 H   0  0  0  0  0  0  0  0  0  0  0  0
   41.3560   33.1290   40.5120 N   0  0  0  0  0  0  0  0  0  0  0  0
  1 17  1  0  0  0  0
  1  2  1  0  0  0  0
  2  9  1  0  0  0  0
  3  2  2  0  0  0  0
  3  7  1  0  0  0  0
  4  3  1  0  0  0  0
  5  6  1  0  0  0  0
  5  4  2  0  0  0  0
  6  1  2  0  0  0  0
  8  5  1  0  0  0  0
  9 10  1  0  0  0  0
  9 13  2  0  0  0  0
 10 11  2  0  0  0  0
 11 12  1  0  0  0  0
 11 15  1  0  0  0  0
 12 16  1  0  0  0  0
 13 12  1  0  0  0  0
 14 10  1  0  0  0  0
 18 17  1  0  0  0  0
 19 18  2  0  0  0  0
 20 26  1  0  0  0  0
 20 18  1  0  0  0  0
 21 20  2  0  0  0  0
 22 21  1  0  0  0  0
 23 21  1  0  0  0  0
 23 24  1  0  0  0  0
 24 26  2  0  0  0  0
 24 25  1  0  0  0  0
M  END
>  <minimizedAffinity>
-5.01734543

>  <minimizedRMSD>
0.564983249

$$$$
