
 OpenBabel03252507153D

 27 29  0  0  0  0  0  0  0  0999 V2000
   45.1320   36.1440   43.4800 C   0  0  0  0  0  0  0  0  0  0  0  0
   45.7600   34.9240   43.1220 C   0  0  0  0  0  0  0  0  0  0  0  0
   45.7920   33.9260   44.0710 C   0  0  0  0  0  0  0  0  0  0  0  0
   45.2460   34.1190   45.2840 N   0  0  0  0  0  0  0  0  0  0  0  0
   44.6410   35.3130   45.6100 C   0  0  0  0  0  0  0  0  0  0  0  0
   44.6030   36.2860   44.7020 N   0  0  0  0  0  0  0  0  0  0  0  0
   45.0790   36.9640   42.7700 H   0  0  0  0  0  0  0  0  0  0  0  0
   44.2550   35.3010   46.6220 H   0  0  0  0  0  0  0  0  0  0  0  0
   46.4360   32.6610   43.7170 C   0  0  0  0  0  0  0  0  0  0  0  0
   45.6700   31.5700   43.3710 C   0  0  0  0  0  0  0  0  0  0  0  0
   46.3190   30.4000   43.0450 C   0  0  0  0  0  0  0  0  0  0  0  0
   47.7110   30.2580   43.0450 C   0  0  0  0  0  0  0  0  0  0  0  0
   48.4150   31.3970   43.4040 C   0  0  0  0  0  0  0  0  0  0  0  0
   47.7820   32.5430   43.7230 N   0  0  0  0  0  0  0  0  0  0  0  0
   44.5870   31.6350   43.3560 H   0  0  0  0  0  0  0  0  0  0  0  0
   45.6760   29.5690   42.7780 H   0  0  0  0  0  0  0  0  0  0  0  0
   48.1550   29.3080   42.7780 H   0  0  0  0  0  0  0  0  0  0  0  0
   49.5030   31.3380   43.4200 H   0  0  0  0  0  0  0  0  0  0  0  0
   46.3210   34.7770   41.8300 C   0  0  0  0  0  0  0  0  0  0  0  0
   47.4930   35.1630   41.6240 O   0  0  0  0  0  0  0  0  0  0  0  0
   45.5360   34.1810   40.7590 C   0  0  0  0  0  0  0  0  0  0  0  0
   46.3360   33.4590   39.8550 C   0  0  0  0  0  0  0  0  0  0  0  0
   47.3890   33.1420   39.6170 H   0  0  0  0  0  0  0  0  0  0  0  0
   45.1290   32.8070   38.6030 S   0  0  0  0  0  0  0  0  0  0  0  0
   43.7220   33.6550   39.5580 C   0  0  0  0  0  0  0  0  0  0  0  0
   42.5020   33.8760   39.6130 H   0  0  0  0  0  0  0  0  0  0  0  0
   44.2740   34.1360   40.4040 N   0  0  0  0  0  0  0  0  0  0  0  0
  1  6  1  0  0  0  0
  2  1  2  0  0  0  0
  2  3  1  0  0  0  0
  3  4  2  0  0  0  0
  4  5  1  0  0  0  0
  5  8  1  0  0  0  0
  6  5  2  0  0  0  0
  7  1  1  0  0  0  0
  9 14  1  0  0  0  0
  9  3  1  0  0  0  0
 10  9  2  0  0  0  0
 11 12  2  0  0  0  0
 11 10  1  0  0  0  0
 12 13  1  0  0  0  0
 13 18  1  0  0  0  0
 13 14  2  0  0  0  0
 15 10  1  0  0  0  0
 16 11  1  0  0  0  0
 17 12  1  0  0  0  0
 19  2  1  0  0  0  0
 20 19  2  0  0  0  0
 21 19  1  0  0  0  0
 22 21  2  0  0  0  0
 23 22  1  0  0  0  0
 24 25  1  0  0  0  0
 24 22  1  0  0  0  0
 25 26  1  0  0  0  0
 25 27  2  0  0  0  0
 27 21  1  0  0  0  0
M  END
>  <minimizedAffinity>
-4.31966925

>  <minimizedRMSD>
0.474515915

$$$$
