
 OpenBabel03252508503D

 26 28  0  0  0  0  0  0  0  0999 V2000
   45.9970   34.1960   41.0470 C   0  0  0  0  0  0  0  0  0  0  0  0
   46.5690   34.8210   42.1510 C   0  0  0  0  0  0  0  0  0  0  0  0
   47.9100   35.1920   42.0250 C   0  0  0  0  0  0  0  0  0  0  0  0
   48.5600   34.9250   40.8580 N   0  0  0  0  0  0  0  0  0  0  0  0
   47.9650   34.3240   39.8320 C   0  0  0  0  0  0  0  0  0  0  0  0
   46.6790   33.9530   39.9150 N   0  0  0  0  0  0  0  0  0  0  0  0
   48.3900   35.6810   42.8660 H   0  0  0  0  0  0  0  0  0  0  0  0
   48.4440   34.0940   38.8880 H   0  0  0  0  0  0  0  0  0  0  0  0
   45.7810   35.0540   43.3420 C   0  0  0  0  0  0  0  0  0  0  0  0
   45.0780   36.2330   43.5620 C   0  0  0  0  0  0  0  0  0  0  0  0
   44.4870   36.0180   44.7930 C   0  0  0  0  0  0  0  0  0  0  0  0
   44.8050   34.7930   45.2920 N   0  0  0  0  0  0  0  0  0  0  0  0
   45.5890   34.2360   44.3900 N   0  0  0  0  0  0  0  0  0  0  0  0
   45.0020   37.1050   42.9390 H   0  0  0  0  0  0  0  0  0  0  0  0
   43.8450   36.6980   45.3380 H   0  0  0  0  0  0  0  0  0  0  0  0
   44.5470   34.3150   46.1630 H   0  0  0  0  0  0  0  0  0  0  0  0
   44.6680   33.8110   41.1280 O   0  0  0  0  0  0  0  0  0  0  0  0
   43.5870   34.4360   40.5770 C   0  0  0  0  0  0  0  0  0  0  0  0
   43.2950   35.6840   40.6370 O   0  0  0  0  0  0  0  0  0  0  0  0
   42.5660   33.6660   39.7950 C   0  0  0  0  0  0  0  0  0  0  0  0
   41.6680   34.4010   39.0280 C   0  0  0  0  0  0  0  0  0  0  0  0
   41.4180   35.4360   38.7640 H   0  0  0  0  0  0  0  0  0  0  0  0
   40.5870   33.1250   38.2330 S   0  0  0  0  0  0  0  0  0  0  0  0
   41.5810   31.7700   39.1170 C   0  0  0  0  0  0  0  0  0  0  0  0
   41.7480   30.5260   39.3260 H   0  0  0  0  0  0  0  0  0  0  0  0
   42.3290   32.3780   39.6820 N   0  0  0  0  0  0  0  0  0  0  0  0
  1 17  1  0  0  0  0
  1  2  1  0  0  0  0
  2  9  1  0  0  0  0
  3  2  2  0  0  0  0
  3  7  1  0  0  0  0
  4  3  1  0  0  0  0
  5  6  1  0  0  0  0
  5  4  2  0  0  0  0
  6  1  2  0  0  0  0
  8  5  1  0  0  0  0
  9 10  1  0  0  0  0
  9 13  2  0  0  0  0
 10 11  2  0  0  0  0
 11 12  1  0  0  0  0
 11 15  1  0  0  0  0
 12 16  1  0  0  0  0
 13 12  1  0  0  0  0
 14 10  1  0  0  0  0
 18 19  2  0  0  0  0
 18 17  1  0  0  0  0
 20 18  1  0  0  0  0
 21 20  2  0  0  0  0
 22 21  1  0  0  0  0
 23 21  1  0  0  0  0
 23 24  1  0  0  0  0
 24 25  1  0  0  0  0
 24 26  2  0  0  0  0
 26 20  1  0  0  0  0
M  END
>  <minimizedAffinity>
-4.96923399

>  <minimizedRMSD>
0.383251905

$$$$
