
 OpenBabel03252508503D

 26 28  0  0  0  0  0  0  0  0999 V2000
   45.9550   34.1920   41.0330 C   0  0  0  0  0  0  0  0  0  0  0  0
   46.5410   34.8110   42.1330 C   0  0  0  0  0  0  0  0  0  0  0  0
   47.8840   35.1690   41.9980 C   0  0  0  0  0  0  0  0  0  0  0  0
   48.5240   34.8970   40.8250 N   0  0  0  0  0  0  0  0  0  0  0  0
   47.9160   34.3020   39.8040 C   0  0  0  0  0  0  0  0  0  0  0  0
   46.6260   33.9440   39.8960 N   0  0  0  0  0  0  0  0  0  0  0  0
   48.3750   35.6530   42.8350 H   0  0  0  0  0  0  0  0  0  0  0  0
   48.3850   34.0690   38.8560 H   0  0  0  0  0  0  0  0  0  0  0  0
   45.7630   35.0500   43.3290 C   0  0  0  0  0  0  0  0  0  0  0  0
   45.0720   36.2350   43.5550 C   0  0  0  0  0  0  0  0  0  0  0  0
   44.4880   36.0250   44.7900 C   0  0  0  0  0  0  0  0  0  0  0  0
   44.7990   34.7980   45.2860 N   0  0  0  0  0  0  0  0  0  0  0  0
   45.5720   34.2340   44.3790 N   0  0  0  0  0  0  0  0  0  0  0  0
   44.9990   37.1080   42.9320 H   0  0  0  0  0  0  0  0  0  0  0  0
   43.8560   36.7100   45.3400 H   0  0  0  0  0  0  0  0  0  0  0  0
   44.5440   34.3210   46.1590 H   0  0  0  0  0  0  0  0  0  0  0  0
   44.6230   33.8190   41.1230 O   0  0  0  0  0  0  0  0  0  0  0  0
   43.5480   34.4370   40.5520 C   0  0  0  0  0  0  0  0  0  0  0  0
   43.1580   35.6460   40.7330 O   0  0  0  0  0  0  0  0  0  0  0  0
   42.6550   33.7060   39.5950 C   0  0  0  0  0  0  0  0  0  0  0  0
   41.3400   34.1460   39.4940 C   0  0  0  0  0  0  0  0  0  0  0  0
   40.6590   34.9070   39.8970 H   0  0  0  0  0  0  0  0  0  0  0  0
   40.5700   33.0170   38.2450 S   0  0  0  0  0  0  0  0  0  0  0  0
   42.2310   32.1130   38.0770 C   0  0  0  0  0  0  0  0  0  0  0  0
   42.8930   31.1790   37.5200 H   0  0  0  0  0  0  0  0  0  0  0  0
   42.8670   32.6830   38.7970 N   0  0  0  0  0  0  0  0  0  0  0  0
  1 17  1  0  0  0  0
  1  2  1  0  0  0  0
  2  9  1  0  0  0  0
  3  2  2  0  0  0  0
  3  7  1  0  0  0  0
  4  3  1  0  0  0  0
  5  6  1  0  0  0  0
  5  4  2  0  0  0  0
  6  1  2  0  0  0  0
  8  5  1  0  0  0  0
  9 10  1  0  0  0  0
  9 13  2  0  0  0  0
 10 11  2  0  0  0  0
 11 12  1  0  0  0  0
 11 15  1  0  0  0  0
 12 16  1  0  0  0  0
 13 12  1  0  0  0  0
 14 10  1  0  0  0  0
 18 19  2  0  0  0  0
 18 17  1  0  0  0  0
 20 18  1  0  0  0  0
 21 20  2  0  0  0  0
 21 22  1  0  0  0  0
 23 21  1  0  0  0  0
 24 23  1  0  0  0  0
 24 26  2  0  0  0  0
 25 24  1  0  0  0  0
 26 20  1  0  0  0  0
M  END
>  <minimizedAffinity>
-4.99124527

>  <minimizedRMSD>
0.427597314

$$$$
