
 OpenBabel03252508503D

 26 28  0  0  0  0  0  0  0  0999 V2000
   45.9630   34.1930   41.0390 C   0  0  0  0  0  0  0  0  0  0  0  0
   46.5450   34.8160   42.1390 C   0  0  0  0  0  0  0  0  0  0  0  0
   47.8870   35.1780   42.0060 C   0  0  0  0  0  0  0  0  0  0  0  0
   48.5300   34.9060   40.8350 N   0  0  0  0  0  0  0  0  0  0  0  0
   47.9250   34.3080   39.8130 C   0  0  0  0  0  0  0  0  0  0  0  0
   46.6370   33.9460   39.9030 N   0  0  0  0  0  0  0  0  0  0  0  0
   48.3750   35.6650   42.8430 H   0  0  0  0  0  0  0  0  0  0  0  0
   48.3970   34.0740   38.8670 H   0  0  0  0  0  0  0  0  0  0  0  0
   45.7650   35.0540   43.3340 C   0  0  0  0  0  0  0  0  0  0  0  0
   45.0660   36.2350   43.5550 C   0  0  0  0  0  0  0  0  0  0  0  0
   44.4820   36.0260   44.7910 C   0  0  0  0  0  0  0  0  0  0  0  0
   44.8010   34.8020   45.2910 N   0  0  0  0  0  0  0  0  0  0  0  0
   45.5780   34.2400   44.3860 N   0  0  0  0  0  0  0  0  0  0  0  0
   44.9880   37.1060   42.9290 H   0  0  0  0  0  0  0  0  0  0  0  0
   43.8450   36.7090   45.3370 H   0  0  0  0  0  0  0  0  0  0  0  0
   44.5470   34.3270   46.1660 H   0  0  0  0  0  0  0  0  0  0  0  0
   44.6320   33.8160   41.1270 O   0  0  0  0  0  0  0  0  0  0  0  0
   43.5580   34.4200   40.5400 C   0  0  0  0  0  0  0  0  0  0  0  0
   43.1380   35.6170   40.7280 O   0  0  0  0  0  0  0  0  0  0  0  0
   42.7040   33.6830   39.5520 C   0  0  0  0  0  0  0  0  0  0  0  0
   43.1400   32.4230   39.1540 C   0  0  0  0  0  0  0  0  0  0  0  0
   43.9570   31.7100   39.3180 H   0  0  0  0  0  0  0  0  0  0  0  0
   41.8520   31.8480   37.9550 S   0  0  0  0  0  0  0  0  0  0  0  0
   40.9160   33.4780   38.2170 C   0  0  0  0  0  0  0  0  0  0  0  0
   39.9060   34.1950   37.9230 H   0  0  0  0  0  0  0  0  0  0  0  0
   41.5760   33.9950   38.9540 N   0  0  0  0  0  0  0  0  0  0  0  0
  1 17  1  0  0  0  0
  1  2  1  0  0  0  0
  2  9  1  0  0  0  0
  3  2  2  0  0  0  0
  3  7  1  0  0  0  0
  4  3  1  0  0  0  0
  5  6  1  0  0  0  0
  5  4  2  0  0  0  0
  6  1  2  0  0  0  0
  8  5  1  0  0  0  0
  9 10  1  0  0  0  0
  9 13  2  0  0  0  0
 10 11  2  0  0  0  0
 11 12  1  0  0  0  0
 11 15  1  0  0  0  0
 12 16  1  0  0  0  0
 13 12  1  0  0  0  0
 14 10  1  0  0  0  0
 18 19  2  0  0  0  0
 18 17  1  0  0  0  0
 20 18  1  0  0  0  0
 21 22  1  0  0  0  0
 21 20  2  0  0  0  0
 23 24  1  0  0  0  0
 23 21  1  0  0  0  0
 24 26  2  0  0  0  0
 25 24  1  0  0  0  0
 26 20  1  0  0  0  0
M  END
>  <minimizedAffinity>
-4.9914794

>  <minimizedRMSD>
0.338404357

$$$$
