
 OpenBabel03252503343D

 20 21  0  0  0  0  0  0  0  0999 V2000
   46.1820   33.9510   40.9010 C   0  0  0  0  0  0  0  0  0  0  0  0
   45.1410   33.3050   41.1860 O   0  0  0  0  0  0  0  0  0  0  0  0
   46.6820   34.7760   41.9380 N   0  0  0  0  0  0  0  0  0  0  0  0
   47.5670   35.2930   41.6580 H   0  0  0  0  0  0  0  0  0  0  0  0
   44.5010   35.9260   44.7140 C   0  0  0  0  0  0  0  0  0  0  0  0
   45.1150   35.8970   43.4550 C   0  0  0  0  0  0  0  0  0  0  0  0
   46.0330   34.8620   43.1850 C   0  0  0  0  0  0  0  0  0  0  0  0
   46.2880   33.9340   44.1530 N   0  0  0  0  0  0  0  0  0  0  0  0
   45.6650   34.0110   45.3540 C   0  0  0  0  0  0  0  0  0  0  0  0
   44.7860   34.9810   45.6450 N   0  0  0  0  0  0  0  0  0  0  0  0
   43.8020   36.7220   44.9060 H   0  0  0  0  0  0  0  0  0  0  0  0
   44.8920   36.6410   42.7170 H   0  0  0  0  0  0  0  0  0  0  0  0
   45.8870   33.2610   46.1010 H   0  0  0  0  0  0  0  0  0  0  0  0
   46.6820   33.7310   39.5530 C   0  0  0  0  0  0  0  0  0  0  0  0
   45.9950   32.9940   38.6350 C   0  0  0  0  0  0  0  0  0  0  0  0
   45.0480   32.4510   38.6340 H   0  0  0  0  0  0  0  0  0  0  0  0
   47.0900   33.0830   37.2070 S   0  0  0  0  0  0  0  0  0  0  0  0
   48.3350   34.1540   38.1650 C   0  0  0  0  0  0  0  0  0  0  0  0
   49.1790   34.2980   37.2570 H   0  0  0  0  0  0  0  0  0  0  0  0
   47.8200   34.2320   39.1550 N   0  0  0  0  0  0  0  0  0  0  0  0
  1  2  2  0  0  0  0
  1  3  1  0  0  0  0
  3  7  1  0  0  0  0
  4  3  1  0  0  0  0
  5 11  1  0  0  0  0
  5 10  1  0  0  0  0
  6  5  2  0  0  0  0
  7  6  1  0  0  0  0
  7  8  2  0  0  0  0
  8  9  1  0  0  0  0
  9 10  2  0  0  0  0
  9 13  1  0  0  0  0
 12  6  1  0  0  0  0
 14  1  1  0  0  0  0
 15 14  2  0  0  0  0
 16 15  1  0  0  0  0
 17 18  1  0  0  0  0
 17 15  1  0  0  0  0
 18 20  2  0  0  0  0
 19 18  1  0  0  0  0
 20 14  1  0  0  0  0
M  END
>  <minimizedAffinity>
-4.04804039

>  <minimizedRMSD>
0.468796194

$$$$
