
 OpenBabel03252503343D

 20 21  0  0  0  0  0  0  0  0999 V2000
   46.9730   33.4690   41.9700 C   0  0  0  0  0  0  0  0  0  0  0  0
   46.0740   33.1320   41.1580 O   0  0  0  0  0  0  0  0  0  0  0  0
   48.2480   33.6990   41.3960 N   0  0  0  0  0  0  0  0  0  0  0  0
   48.9730   33.9920   42.1150 H   0  0  0  0  0  0  0  0  0  0  0  0
   49.2130   32.2500   38.1170 C   0  0  0  0  0  0  0  0  0  0  0  0
   49.0180   32.3460   39.5010 C   0  0  0  0  0  0  0  0  0  0  0  0
   48.4700   33.5390   40.0140 C   0  0  0  0  0  0  0  0  0  0  0  0
   48.1510   34.5470   39.1500 N   0  0  0  0  0  0  0  0  0  0  0  0
   48.3620   34.3980   37.8200 C   0  0  0  0  0  0  0  0  0  0  0  0
   48.8810   33.2780   37.2980 N   0  0  0  0  0  0  0  0  0  0  0  0
   49.6340   31.3320   37.7400 H   0  0  0  0  0  0  0  0  0  0  0  0
   49.2790   31.5360   40.1520 H   0  0  0  0  0  0  0  0  0  0  0  0
   48.1000   35.2140   37.1600 H   0  0  0  0  0  0  0  0  0  0  0  0
   46.5370   33.5600   43.3540 C   0  0  0  0  0  0  0  0  0  0  0  0
   45.5490   34.4130   43.7490 C   0  0  0  0  0  0  0  0  0  0  0  0
   44.9110   35.1410   43.2450 H   0  0  0  0  0  0  0  0  0  0  0  0
   45.4660   34.0750   45.5170 S   0  0  0  0  0  0  0  0  0  0  0  0
   46.8530   32.7810   45.3870 C   0  0  0  0  0  0  0  0  0  0  0  0
   46.9010   32.4520   46.5890 H   0  0  0  0  0  0  0  0  0  0  0  0
   47.0740   32.8260   44.2910 N   0  0  0  0  0  0  0  0  0  0  0  0
  1 14  1  0  0  0  0
  2  1  2  0  0  0  0
  3  1  1  0  0  0  0
  3  4  1  0  0  0  0
  5  6  1  0  0  0  0
  6  7  2  0  0  0  0
  6 12  1  0  0  0  0
  7  3  1  0  0  0  0
  8  7  1  0  0  0  0
  9  8  2  0  0  0  0
 10  9  1  0  0  0  0
 10  5  2  0  0  0  0
 11  5  1  0  0  0  0
 13  9  1  0  0  0  0
 14 15  2  0  0  0  0
 14 20  1  0  0  0  0
 15 17  1  0  0  0  0
 16 15  1  0  0  0  0
 18 17  1  0  0  0  0
 18 19  1  0  0  0  0
 20 18  2  0  0  0  0
M  END
>  <minimizedAffinity>
-3.18736529

>  <minimizedRMSD>
6.22759914

$$$$
