
 OpenBabel03252503313D

 39 41  0  0  1  0  0  0  0  0999 V2000
   45.4200   34.4980   42.2270 C   0  0  0  0  0  0  0  0  0  0  0  0
   46.5190   35.2350   41.6950 C   0  0  0  0  0  0  0  0  0  0  0  0
   47.7970   34.8460   42.1410 C   0  0  0  0  0  0  0  0  0  0  0  0
   47.8810   33.8290   43.0180 N   0  0  0  0  0  0  0  0  0  0  0  0
   46.8040   33.1630   43.4920 C   0  0  0  0  0  0  0  0  0  0  0  0
   45.5650   33.5090   43.0860 N   0  0  0  0  0  0  0  0  0  0  0  0
   43.8140   34.3720   40.5230 C   0  0  0  0  0  0  0  0  0  0  0  0
   44.7400   33.7840   39.8670 O   0  0  0  0  0  0  0  0  0  0  0  0
   44.0840   34.8290   41.8270 N   0  0  0  0  0  0  0  0  0  0  0  0
   42.5600   34.5200   39.8760 N   0  0  0  0  0  0  0  0  0  0  0  0
   42.4650   34.3170   38.4180 C   0  0  0  0  0  0  0  0  0  0  0  0
   41.3550   35.2460   38.0350 C   0  0  0  0  0  0  0  0  0  0  0  0
   40.8470   35.8350   39.3190 C   0  0  0  0  0  0  0  0  0  0  0  0
   41.2530   34.8330   40.3740 C   0  0  1  0  0  0  0  0  0  0  0  0
   46.3260   36.0400   40.9900 H   0  0  0  0  0  0  0  0  0  0  0  0
   46.9440   32.3550   44.1970 H   0  0  0  0  0  0  0  0  0  0  0  0
   43.3420   35.3220   42.3270 H   0  0  0  0  0  0  0  0  0  0  0  0
   42.1560   33.2760   38.2320 H   0  0  0  0  0  0  0  0  0  0  0  0
   43.3990   34.6160   37.9210 H   0  0  0  0  0  0  0  0  0  0  0  0
   40.5160   34.6820   37.5680 H   0  0  0  0  0  0  0  0  0  0  0  0
   41.6990   36.0130   37.3150 H   0  0  0  0  0  0  0  0  0  0  0  0
   41.6350   36.6450   39.5110 H   0  0  0  0  0  0  0  0  0  0  0  0
   39.9580   36.3730   39.3430 H   0  0  0  0  0  0  0  0  0  0  0  0
   41.1750   35.4000   41.3090 H   0  0  0  0  0  0  0  0  0  0  0  0
   39.8080   33.0850   41.5920 C   0  0  0  0  0  0  0  0  0  0  0  0
   39.8410   33.9340   42.5140 O   0  0  0  0  0  0  0  0  0  0  0  0
   40.4440   33.6230   40.4070 N   0  0  0  0  0  0  0  0  0  0  0  0
   40.3180   33.1010   39.4850 H   0  0  0  0  0  0  0  0  0  0  0  0
   39.2440   31.7570   41.6310 C   0  0  0  0  0  0  0  0  0  0  0  0
   39.9350   30.6600   42.1450 C   0  0  0  0  0  0  0  0  0  0  0  0
   41.0050   30.7090   42.5800 H   0  0  0  0  0  0  0  0  0  0  0  0
   38.7040   29.2750   41.9180 S   0  0  0  0  0  0  0  0  0  0  0  0
   37.4670   30.4960   41.1520 C   0  0  0  0  0  0  0  0  0  0  0  0
   36.4070   30.2580   40.7590 H   0  0  0  0  0  0  0  0  0  0  0  0
   38.0370   31.4710   41.1870 N   0  0  0  0  0  0  0  0  0  0  0  0
   48.9040   35.6150   41.5800 C   0  0  0  0  0  0  0  0  0  0  0  0
   50.0970   35.0110   41.9590 F   0  0  0  0  0  0  0  0  0  0  0  0
   48.9100   36.8570   42.2360 F   0  0  0  0  0  0  0  0  0  0  0  0
   48.8690   35.7270   40.2240 F   0  0  0  0  0  0  0  0  0  0  0  0
  1  6  1  0  0  0  0
  2  3  1  0  0  0  0
  2  1  2  0  0  0  0
  3  4  2  0  0  0  0
  4  5  1  0  0  0  0
  5 16  1  0  0  0  0
  6  5  2  0  0  0  0
  7  9  1  0  0  0  0
  8  7  2  0  0  0  0
  9  1  1  0  0  0  0
  9 17  1  0  0  0  0
 10 14  1  0  0  0  0
 10  7  1  0  0  0  0
 11 10  1  0  0  0  0
 12 11  1  0  0  0  0
 12 13  1  0  0  0  0
 13 23  1  0  0  0  0
 13 22  1  0  0  0  0
 13 14  1  0  0  0  0
 14 27  1  0  0  0  0
 14 24  1  1  0  0  0
 15  2  1  0  0  0  0
 18 11  1  0  0  0  0
 19 11  1  0  0  0  0
 20 12  1  0  0  0  0
 21 12  1  0  0  0  0
 25 29  1  0  0  0  0
 25 26  2  0  0  0  0
 27 25  1  0  0  0  0
 28 27  1  0  0  0  0
 29 30  2  0  0  0  0
 30 31  1  0  0  0  0
 32 30  1  0  0  0  0
 33 35  2  0  0  0  0
 33 32  1  0  0  0  0
 34 33  1  0  0  0  0
 35 29  1  0  0  0  0
 36 37  1  0  0  0  0
 36  3  1  0  0  0  0
 36 38  1  0  0  0  0
 39 36  1  0  0  0  0
M  END
>  <minimizedAffinity>
-6.7323451

>  <minimizedRMSD>
1.12110746

$$$$
