
 OpenBabel03252503343D

 20 21  0  0  0  0  0  0  0  0999 V2000
   46.2120   33.9730   40.8140 C   0  0  0  0  0  0  0  0  0  0  0  0
   45.1360   33.3760   41.0780 O   0  0  0  0  0  0  0  0  0  0  0  0
   46.7270   34.7770   41.8590 N   0  0  0  0  0  0  0  0  0  0  0  0
   47.6400   35.2520   41.5970 H   0  0  0  0  0  0  0  0  0  0  0  0
   44.5240   36.0210   44.5760 C   0  0  0  0  0  0  0  0  0  0  0  0
   45.1610   35.9590   43.3300 C   0  0  0  0  0  0  0  0  0  0  0  0
   46.0550   34.8970   43.0920 C   0  0  0  0  0  0  0  0  0  0  0  0
   46.2650   33.9750   44.0760 N   0  0  0  0  0  0  0  0  0  0  0  0
   45.6210   34.0840   45.2630 C   0  0  0  0  0  0  0  0  0  0  0  0
   44.7640   35.0820   45.5240 N   0  0  0  0  0  0  0  0  0  0  0  0
   43.8430   36.8390   44.7440 H   0  0  0  0  0  0  0  0  0  0  0  0
   44.9730   36.7000   42.5780 H   0  0  0  0  0  0  0  0  0  0  0  0
   45.8080   33.3390   46.0240 H   0  0  0  0  0  0  0  0  0  0  0  0
   46.7300   33.7250   39.4770 C   0  0  0  0  0  0  0  0  0  0  0  0
   46.0740   32.9360   38.5790 C   0  0  0  0  0  0  0  0  0  0  0  0
   45.1450   32.3650   38.5880 H   0  0  0  0  0  0  0  0  0  0  0  0
   47.1770   33.0160   37.1570 S   0  0  0  0  0  0  0  0  0  0  0  0
   48.3800   34.1570   38.0880 C   0  0  0  0  0  0  0  0  0  0  0  0
   49.2270   34.2970   37.1830 H   0  0  0  0  0  0  0  0  0  0  0  0
   47.8540   34.2500   39.0710 N   0  0  0  0  0  0  0  0  0  0  0  0
  1  2  2  0  0  0  0
  1  3  1  0  0  0  0
  3  7  1  0  0  0  0
  4  3  1  0  0  0  0
  5 11  1  0  0  0  0
  5 10  1  0  0  0  0
  6  5  2  0  0  0  0
  7  6  1  0  0  0  0
  7  8  2  0  0  0  0
  8  9  1  0  0  0  0
  9 10  2  0  0  0  0
  9 13  1  0  0  0  0
 12  6  1  0  0  0  0
 14  1  1  0  0  0  0
 15 16  1  0  0  0  0
 15 14  2  0  0  0  0
 17 18  1  0  0  0  0
 17 15  1  0  0  0  0
 18 20  2  0  0  0  0
 19 18  1  0  0  0  0
 20 14  1  0  0  0  0
M  END
>  <minimizedAffinity>
-4.04996967

>  <minimizedRMSD>
0.363358408

$$$$
