
 OpenBabel03252503343D

 20 21  0  0  0  0  0  0  0  0999 V2000
   46.3300   33.9740   40.8420 C   0  0  0  0  0  0  0  0  0  0  0  0
   45.2550   33.3650   41.0810 O   0  0  0  0  0  0  0  0  0  0  0  0
   46.8070   34.7900   41.8970 N   0  0  0  0  0  0  0  0  0  0  0  0
   47.7220   35.2750   41.6570 H   0  0  0  0  0  0  0  0  0  0  0  0
   44.5210   36.0210   44.5500 C   0  0  0  0  0  0  0  0  0  0  0  0
   45.1920   35.9610   43.3210 C   0  0  0  0  0  0  0  0  0  0  0  0
   46.1020   34.9060   43.1110 C   0  0  0  0  0  0  0  0  0  0  0  0
   46.2950   33.9900   44.1030 N   0  0  0  0  0  0  0  0  0  0  0  0
   45.6180   34.0960   45.2730 C   0  0  0  0  0  0  0  0  0  0  0  0
   44.7450   35.0870   45.5070 N   0  0  0  0  0  0  0  0  0  0  0  0
   43.8280   36.8330   44.6970 H   0  0  0  0  0  0  0  0  0  0  0  0
   45.0170   36.6980   42.5630 H   0  0  0  0  0  0  0  0  0  0  0  0
   45.7920   33.3550   46.0410 H   0  0  0  0  0  0  0  0  0  0  0  0
   46.8860   33.7270   39.5210 C   0  0  0  0  0  0  0  0  0  0  0  0
   46.3380   32.8250   38.6600 C   0  0  0  0  0  0  0  0  0  0  0  0
   45.4830   32.1470   38.6920 H   0  0  0  0  0  0  0  0  0  0  0  0
   47.4360   32.9660   37.2390 S   0  0  0  0  0  0  0  0  0  0  0  0
   48.4870   34.2860   38.1180 C   0  0  0  0  0  0  0  0  0  0  0  0
   49.3190   34.4830   37.2110 H   0  0  0  0  0  0  0  0  0  0  0  0
   47.9440   34.3620   39.0930 N   0  0  0  0  0  0  0  0  0  0  0  0
  1  2  2  0  0  0  0
  1  3  1  0  0  0  0
  3  7  1  0  0  0  0
  4  3  1  0  0  0  0
  5 11  1  0  0  0  0
  5 10  1  0  0  0  0
  6  5  2  0  0  0  0
  7  6  1  0  0  0  0
  7  8  2  0  0  0  0
  8  9  1  0  0  0  0
  9 10  2  0  0  0  0
  9 13  1  0  0  0  0
 12  6  1  0  0  0  0
 14  1  1  0  0  0  0
 15 16  1  0  0  0  0
 15 14  2  0  0  0  0
 17 18  1  0  0  0  0
 17 15  1  0  0  0  0
 18 20  2  0  0  0  0
 19 18  1  0  0  0  0
 20 14  1  0  0  0  0
M  END
>  <minimizedAffinity>
-4.03752279

>  <minimizedRMSD>
0.51003021

$$$$
