
 OpenBabel03252503343D

 20 21  0  0  0  0  0  0  0  0999 V2000
   47.7310   32.8280   40.8490 C   0  0  0  0  0  0  0  0  0  0  0  0
   46.6160   32.2480   40.9180 O   0  0  0  0  0  0  0  0  0  0  0  0
   48.2980   33.1930   42.0940 N   0  0  0  0  0  0  0  0  0  0  0  0
   49.2430   33.6680   41.9890 H   0  0  0  0  0  0  0  0  0  0  0  0
   46.1560   33.5700   45.1030 C   0  0  0  0  0  0  0  0  0  0  0  0
   46.7880   33.8930   43.8950 C   0  0  0  0  0  0  0  0  0  0  0  0
   47.6340   32.9300   43.3090 C   0  0  0  0  0  0  0  0  0  0  0  0
   47.8050   31.7300   43.9340 N   0  0  0  0  0  0  0  0  0  0  0  0
   47.1680   31.4710   45.1020 C   0  0  0  0  0  0  0  0  0  0  0  0
   46.3560   32.3630   45.6870 N   0  0  0  0  0  0  0  0  0  0  0  0
   45.5120   34.3150   45.5390 H   0  0  0  0  0  0  0  0  0  0  0  0
   46.6320   34.8460   43.4290 H   0  0  0  0  0  0  0  0  0  0  0  0
   47.3230   30.5110   45.5740 H   0  0  0  0  0  0  0  0  0  0  0  0
   48.2330   33.0160   39.4970 C   0  0  0  0  0  0  0  0  0  0  0  0
   47.8460   34.0660   38.7190 C   0  0  0  0  0  0  0  0  0  0  0  0
   47.1750   34.9160   38.8480 H   0  0  0  0  0  0  0  0  0  0  0  0
   48.7800   33.7590   37.2080 S   0  0  0  0  0  0  0  0  0  0  0  0
   49.5570   32.1880   37.9470 C   0  0  0  0  0  0  0  0  0  0  0  0
   50.2550   31.8590   36.9670 H   0  0  0  0  0  0  0  0  0  0  0  0
   49.0830   32.1820   38.9600 N   0  0  0  0  0  0  0  0  0  0  0  0
  1  2  2  0  0  0  0
  1  3  1  0  0  0  0
  3  7  1  0  0  0  0
  4  3  1  0  0  0  0
  5 11  1  0  0  0  0
  5 10  1  0  0  0  0
  6  5  2  0  0  0  0
  7  6  1  0  0  0  0
  7  8  2  0  0  0  0
  8  9  1  0  0  0  0
  9 13  1  0  0  0  0
  9 10  2  0  0  0  0
 12  6  1  0  0  0  0
 14  1  1  0  0  0  0
 15 16  1  0  0  0  0
 15 14  2  0  0  0  0
 17 18  1  0  0  0  0
 17 15  1  0  0  0  0
 18 20  2  0  0  0  0
 19 18  1  0  0  0  0
 20 14  1  0  0  0  0
M  END
>  <minimizedAffinity>
-2.93812513

>  <minimizedRMSD>
2.27809882

$$$$
