
 OpenBabel03252509063D

 51 54  0  0  1  0  0  0  0  0999 V2000
   36.7800   29.3870   40.5350 N   0  0  0  0  0  0  0  0  0  0  0  0
   35.7370   28.4760   40.2560 C   0  0  0  0  0  0  0  0  0  0  0  0
   34.8390   28.8870   39.1040 C   0  0  0  0  0  0  0  0  0  0  0  0
   35.5660   29.5850   37.9870 C   0  0  0  0  0  0  0  0  0  0  0  0
   37.0490   29.6860   38.2560 C   0  0  0  0  0  0  0  0  0  0  0  0
   37.1260   30.3920   39.6660 C   0  0  2  0  0  0  0  0  0  0  0  0
   35.0700   28.2270   41.0870 H   0  0  0  0  0  0  0  0  0  0  0  0
   36.1950   27.4940   39.9490 H   0  0  0  0  0  0  0  0  0  0  0  0
   34.0060   29.5470   39.4560 H   0  0  0  0  0  0  0  0  0  0  0  0
   34.3370   27.9860   38.6880 H   0  0  0  0  0  0  0  0  0  0  0  0
   35.4550   29.0340   37.0080 H   0  0  0  0  0  0  0  0  0  0  0  0
   35.1860   30.6070   37.7890 H   0  0  0  0  0  0  0  0  0  0  0  0
   37.5470   28.7080   38.3040 H   0  0  0  0  0  0  0  0  0  0  0  0
   37.5020   30.4090   37.5600 H   0  0  0  0  0  0  0  0  0  0  0  0
   36.4610   31.2720   39.5950 H   0  0  0  0  0  0  0  0  0  0  0  0
   37.0540   29.5600   41.9410 C   0  0  0  0  0  0  0  0  0  0  0  0
   37.9970   30.1440   42.0020 H   0  0  0  0  0  0  0  0  0  0  0  0
   36.2980   30.1860   42.4730 H   0  0  0  0  0  0  0  0  0  0  0  0
   37.2570   28.2040   42.5360 C   0  0  0  0  0  0  0  0  0  0  0  0
   36.6360   28.0630   43.4200 H   0  0  0  0  0  0  0  0  0  0  0  0
   36.9960   27.3870   41.8150 H   0  0  0  0  0  0  0  0  0  0  0  0
   40.4210   26.7760   43.9730 C   0  0  0  0  0  0  0  0  0  0  0  0
   39.0630   26.9550   43.6480 C   0  0  0  0  0  0  0  0  0  0  0  0
   38.6940   28.0270   42.8730 C   0  0  0  0  0  0  0  0  0  0  0  0
   39.6570   28.8560   42.4630 N   0  0  0  0  0  0  0  0  0  0  0  0
   40.9480   28.6830   42.7750 C   0  0  0  0  0  0  0  0  0  0  0  0
   41.3520   27.6550   43.5260 N   0  0  0  0  0  0  0  0  0  0  0  0
   40.7260   25.9360   44.5840 H   0  0  0  0  0  0  0  0  0  0  0  0
   38.3540   26.2290   44.0270 H   0  0  0  0  0  0  0  0  0  0  0  0
   41.5960   29.4480   42.3600 H   0  0  0  0  0  0  0  0  0  0  0  0
   38.4660   30.7240   39.7230 O   0  0  0  0  0  0  0  0  0  0  0  0
   39.3360   32.3430   41.6530 O   0  0  0  0  0  0  0  0  0  0  0  0
   38.7160   32.3040   40.2590 P   0  0  2  0  0  0  0  0  0  0  0  0
   37.1470   32.9710   40.4620 O   0  0  0  0  0  0  0  0  0  0  0  0
   37.1070   33.5610   41.2350 H   0  0  0  0  0  0  0  0  0  0  0  0
   39.5260   33.2570   39.1730 O   0  0  0  0  0  0  0  0  0  0  0  0
   40.0760   34.3400   39.8390 C   0  0  0  0  0  0  0  0  0  0  0  0
   39.7500   35.2520   39.3140 H   0  0  0  0  0  0  0  0  0  0  0  0
   39.8280   34.3830   40.9030 H   0  0  0  0  0  0  0  0  0  0  0  0
   42.4060   34.2320   40.8150 C   0  0  0  0  0  3  0  0  0  0  0  0
   41.5690   34.1990   39.7170 C   0  0  0  0  0  0  0  0  0  0  0  0
   42.0820   34.0290   38.4300 C   0  0  0  0  0  0  0  0  0  0  0  0
   41.4120   34.0030   37.5610 H   0  0  0  0  0  0  0  0  0  0  0  0
   43.4380   33.8940   38.2540 C   0  0  0  0  0  0  0  0  0  0  0  0
   44.1240   33.7230   37.1040 N   0  0  0  0  0  0  0  0  0  0  0  0
   45.4310   33.6410   37.4350 C   0  0  0  0  0  0  0  0  0  0  0  0
   46.2530   33.5040   36.7540 H   0  0  0  0  0  0  0  0  0  0  0  0
   45.5290   33.7650   38.7900 N   0  0  0  0  0  0  0  0  0  0  0  0
   44.3090   33.9230   39.3260 C   0  0  0  0  0  0  0  0  0  0  0  0
   43.7810   34.0920   40.5980 C   0  0  0  0  0  3  0  0  0  0  0  0
   43.8010   33.6540   36.1050 H   0  0  0  0  0  0  0  0  0  0  0  0
  1 16  1  0  0  0  0
  2  1  1  0  0  0  0
  2  7  1  0  0  0  0
  3  9  1  0  0  0  0
  3  2  1  0  0  0  0
  4  5  1  0  0  0  0
  4  3  1  0  0  0  0
  5 13  1  0  0  0  0
  5  6  1  0  0  0  0
  6 15  1  1  0  0  0
  6 31  1  0  0  0  0
  6  1  1  0  0  0  0
  8  2  1  0  0  0  0
 10  3  1  0  0  0  0
 11  4  1  0  0  0  0
 12  4  1  0  0  0  0
 14  5  1  0  0  0  0
 16 17  1  0  0  0  0
 16 18  1  0  0  0  0
 16 19  1  0  0  0  0
 19 24  1  0  0  0  0
 19 20  1  0  0  0  0
 21 19  1  0  0  0  0
 22 28  1  0  0  0  0
 23 22  1  0  0  0  0
 23 29  1  0  0  0  0
 24 23  2  0  0  0  0
 25 26  2  0  0  0  0
 25 24  1  0  0  0  0
 26 27  1  0  0  0  0
 27 22  2  0  0  0  0
 30 26  1  0  0  0  0
 31 33  1  0  0  0  0
 33 34  1  0  0  0  0
 33 32  2  1  0  0  0
 34 35  1  0  0  0  0
 36 37  1  0  0  0  0
 36 33  1  0  0  0  0
 37 39  1  0  0  0  0
 38 37  1  0  0  0  0
 41 37  1  0  0  0  0
 41 40  2  0  0  0  0
 42 41  1  0  0  0  0
 43 42  1  0  0  0  0
 44 42  2  0  0  0  0
 44 49  1  0  0  0  0
 45 46  1  0  0  0  0
 45 44  1  0  0  0  0
 46 48  2  0  0  0  0
 47 46  1  0  0  0  0
 48 49  1  0  0  0  0
 49 50  2  0  0  0  0
 50 40  1  0  0  0  0
 51 45  1  0  0  0  0
M  END
>  <minimizedAffinity>
-6.04297924

$$$$

 OpenBabel03252509063D

 51 54  0  0  1  0  0  0  0  0999 V2000
   36.7690   29.0830   40.4840 N   0  0  0  0  0  0  0  0  0  0  0  0
   35.7750   28.2160   39.9790 C   0  0  0  0  0  0  0  0  0  0  0  0
   34.9600   28.7980   38.8370 C   0  0  0  0  0  0  0  0  0  0  0  0
   35.7550   29.6760   37.9100 C   0  0  0  0  0  0  0  0  0  0  0  0
   37.2090   29.7490   38.3120 C   0  0  0  0  0  0  0  0  0  0  0  0
   37.1570   30.2180   39.8190 C   0  0  2  0  0  0  0  0  0  0  0  0
   35.0500   27.8280   40.7010 H   0  0  0  0  0  0  0  0  0  0  0  0
   36.2800   27.3020   39.5550 H   0  0  0  0  0  0  0  0  0  0  0  0
   34.0850   29.3820   39.2220 H   0  0  0  0  0  0  0  0  0  0  0  0
   34.5140   27.9700   38.2430 H   0  0  0  0  0  0  0  0  0  0  0  0
   35.7340   29.2890   36.8490 H   0  0  0  0  0  0  0  0  0  0  0  0
   35.3650   30.7120   37.8490 H   0  0  0  0  0  0  0  0  0  0  0  0
   37.7260   28.7830   38.2430 H   0  0  0  0  0  0  0  0  0  0  0  0
   37.6960   30.5810   37.7800 H   0  0  0  0  0  0  0  0  0  0  0  0
   36.4770   31.0900   39.8360 H   0  0  0  0  0  0  0  0  0  0  0  0
   36.9280   29.0280   41.9170 C   0  0  0  0  0  0  0  0  0  0  0  0
   38.0120   29.1750   42.1130 H   0  0  0  0  0  0  0  0  0  0  0  0
   36.4260   29.8660   42.4570 H   0  0  0  0  0  0  0  0  0  0  0  0
   36.5100   27.6670   42.3710 C   0  0  0  0  0  0  0  0  0  0  0  0
   35.8050   27.7250   43.1990 H   0  0  0  0  0  0  0  0  0  0  0  0
   36.0100   27.0870   41.5520 H   0  0  0  0  0  0  0  0  0  0  0  0
   39.0270   24.8880   42.6030 C   0  0  0  0  0  0  0  0  0  0  0  0
   37.8890   25.6340   42.2390 C   0  0  0  0  0  0  0  0  0  0  0  0
   37.7150   26.8900   42.7640 C   0  0  0  0  0  0  0  0  0  0  0  0
   38.6470   27.3460   43.6050 N   0  0  0  0  0  0  0  0  0  0  0  0
   39.7280   26.6340   43.9490 C   0  0  0  0  0  0  0  0  0  0  0  0
   39.9380   25.4070   43.4630 N   0  0  0  0  0  0  0  0  0  0  0  0
   39.1780   23.8950   42.1980 H   0  0  0  0  0  0  0  0  0  0  0  0
   37.1890   25.1780   41.5500 H   0  0  0  0  0  0  0  0  0  0  0  0
   40.3820   27.1540   44.6400 H   0  0  0  0  0  0  0  0  0  0  0  0
   38.4800   30.5530   40.0370 O   0  0  0  0  0  0  0  0  0  0  0  0
   39.4510   32.5350   41.5310 O   0  0  0  0  0  0  0  0  0  0  0  0
   38.6980   32.2140   40.2430 P   0  0  2  0  0  0  0  0  0  0  0  0
   37.1250   32.8550   40.4880 O   0  0  0  0  0  0  0  0  0  0  0  0
   37.1320   33.5780   41.1390 H   0  0  0  0  0  0  0  0  0  0  0  0
   39.3450   32.9710   38.9200 O   0  0  0  0  0  0  0  0  0  0  0  0
   40.5330   33.5840   39.2810 C   0  0  0  0  0  0  0  0  0  0  0  0
   40.4470   34.6510   39.0240 H   0  0  0  0  0  0  0  0  0  0  0  0
   40.8050   33.4470   40.3310 H   0  0  0  0  0  0  0  0  0  0  0  0
   42.8830   33.4770   38.3530 C   0  0  0  0  0  3  0  0  0  0  0  0
   41.6090   32.9510   38.4390 C   0  0  0  0  0  0  0  0  0  0  0  0
   41.2610   31.7950   37.7400 C   0  0  0  0  0  0  0  0  0  0  0  0
   40.2470   31.3810   37.8120 H   0  0  0  0  0  0  0  0  0  0  0  0
   42.2000   31.1710   36.9530 C   0  0  0  0  0  0  0  0  0  0  0  0
   42.0650   30.0550   36.2060 N   0  0  0  0  0  0  0  0  0  0  0  0
   43.2580   29.8310   35.6140 C   0  0  0  0  0  0  0  0  0  0  0  0
   43.4970   29.0200   34.9480 H   0  0  0  0  0  0  0  0  0  0  0  0
   44.1140   30.8190   36.0090 N   0  0  0  0  0  0  0  0  0  0  0  0
   43.4860   31.6650   36.8400 C   0  0  0  0  0  0  0  0  0  0  0  0
   43.8130   32.8150   37.5440 C   0  0  0  0  0  3  0  0  0  0  0  0
   41.2420   29.4180   36.0490 H   0  0  0  0  0  0  0  0  0  0  0  0
  1 16  1  0  0  0  0
  2  1  1  0  0  0  0
  2  7  1  0  0  0  0
  3  9  1  0  0  0  0
  3  2  1  0  0  0  0
  4  5  1  0  0  0  0
  4  3  1  0  0  0  0
  5  6  1  0  0  0  0
  6 15  1  1  0  0  0
  6 31  1  0  0  0  0
  6  1  1  0  0  0  0
  8  2  1  0  0  0  0
 10  3  1  0  0  0  0
 11  4  1  0  0  0  0
 12  4  1  0  0  0  0
 13  5  1  0  0  0  0
 14  5  1  0  0  0  0
 16 17  1  0  0  0  0
 16 19  1  0  0  0  0
 16 18  1  0  0  0  0
 19 24  1  0  0  0  0
 19 20  1  0  0  0  0
 21 19  1  0  0  0  0
 22 27  1  0  0  0  0
 23 22  2  0  0  0  0
 23 24  1  0  0  0  0
 24 25  2  0  0  0  0
 25 26  1  0  0  0  0
 26 30  1  0  0  0  0
 27 26  2  0  0  0  0
 28 22  1  0  0  0  0
 29 23  1  0  0  0  0
 31 33  1  0  0  0  0
 33 34  1  0  0  0  0
 33 32  2  1  0  0  0
 34 35  1  0  0  0  0
 36 37  1  0  0  0  0
 36 33  1  0  0  0  0
 37 39  1  0  0  0  0
 38 37  1  0  0  0  0
 40 41  1  0  0  0  0
 41 37  1  0  0  0  0
 42 43  1  0  0  0  0
 42 41  2  0  0  0  0
 44 42  1  0  0  0  0
 45 44  1  0  0  0  0
 46 48  2  0  0  0  0
 46 45  1  0  0  0  0
 47 46  1  0  0  0  0
 48 49  1  0  0  0  0
 49 44  2  0  0  0  0
 49 50  1  0  0  0  0
 50 40  2  0  0  0  0
 51 45  1  0  0  0  0
M  END
>  <minimizedAffinity>
-5.96706772

$$$$

 OpenBabel03252509063D

 51 54  0  0  1  0  0  0  0  0999 V2000
   36.7330   29.6060   39.6360 N   0  0  0  0  0  0  0  0  0  0  0  0
   36.9120   29.4050   38.2490 C   0  0  0  0  0  0  0  0  0  0  0  0
   37.9010   28.3080   37.8990 C   0  0  0  0  0  0  0  0  0  0  0  0
   37.8700   27.1390   38.8450 C   0  0  0  0  0  0  0  0  0  0  0  0
   36.8230   27.3120   39.9200 C   0  0  0  0  0  0  0  0  0  0  0  0
   37.1800   28.7060   40.5690 C   0  0  2  0  0  0  0  0  0  0  0  0
   37.2090   30.2790   37.6620 H   0  0  0  0  0  0  0  0  0  0  0  0
   35.9290   29.0800   37.8060 H   0  0  0  0  0  0  0  0  0  0  0  0
   38.9470   28.7050   37.8540 H   0  0  0  0  0  0  0  0  0  0  0  0
   37.6900   27.9360   36.8730 H   0  0  0  0  0  0  0  0  0  0  0  0
   37.6250   26.1750   38.3100 H   0  0  0  0  0  0  0  0  0  0  0  0
   38.8430   26.9540   39.3430 H   0  0  0  0  0  0  0  0  0  0  0  0
   35.7990   27.3390   39.5260 H   0  0  0  0  0  0  0  0  0  0  0  0
   36.9970   26.5800   40.7240 H   0  0  0  0  0  0  0  0  0  0  0  0
   38.2650   28.6670   40.7790 H   0  0  0  0  0  0  0  0  0  0  0  0
   36.5880   30.9900   40.0180 C   0  0  0  0  0  0  0  0  0  0  0  0
   35.4970   31.1640   40.1370 H   0  0  0  0  0  0  0  0  0  0  0  0
   37.0230   31.2280   41.0180 H   0  0  0  0  0  0  0  0  0  0  0  0
   37.1180   31.8300   38.9020 C   0  0  0  0  0  0  0  0  0  0  0  0
   37.5390   31.2140   38.1080 H   0  0  0  0  0  0  0  0  0  0  0  0
   36.3170   32.4640   38.4380 H   0  0  0  0  0  0  0  0  0  0  0  0
   40.4280   33.2310   39.9940 C   0  0  0  0  0  0  0  0  0  0  0  0
   39.4490   32.3530   39.4900 C   0  0  0  0  0  0  0  0  0  0  0  0
   38.1410   32.7660   39.4360 C   0  0  0  0  0  0  0  0  0  0  0  0
   37.8620   33.9970   39.8720 N   0  0  0  0  0  0  0  0  0  0  0  0
   38.7960   34.8300   40.3500 C   0  0  0  0  0  0  0  0  0  0  0  0
   40.0800   34.4700   40.4210 N   0  0  0  0  0  0  0  0  0  0  0  0
   41.4640   32.9190   40.0420 H   0  0  0  0  0  0  0  0  0  0  0  0
   39.7730   31.3740   39.1610 H   0  0  0  0  0  0  0  0  0  0  0  0
   38.3960   35.7900   40.6600 H   0  0  0  0  0  0  0  0  0  0  0  0
   36.4030   28.6730   41.7110 O   0  0  0  0  0  0  0  0  0  0  0  0
   36.6490   26.5030   43.2380 O   0  0  0  0  0  0  0  0  0  0  0  0
   37.1830   27.9130   43.0000 P   0  0  2  0  0  0  0  0  0  0  0  0
   36.7220   28.7950   44.3990 O   0  0  0  0  0  0  0  0  0  0  0  0
   36.5970   28.2080   45.1650 H   0  0  0  0  0  0  0  0  0  0  0  0
   38.8360   27.9610   42.9020 O   0  0  0  0  0  0  0  0  0  0  0  0
   39.3360   26.6740   43.0040 C   0  0  0  0  0  0  0  0  0  0  0  0
   38.8770   26.2100   43.8910 H   0  0  0  0  0  0  0  0  0  0  0  0
   39.1830   26.0640   42.1100 H   0  0  0  0  0  0  0  0  0  0  0  0
   41.4330   28.0420   43.3620 C   0  0  0  0  0  3  0  0  0  0  0  0
   40.8190   26.8120   43.2220 C   0  0  0  0  0  0  0  0  0  0  0  0
   41.5590   25.6310   43.2790 C   0  0  0  0  0  0  0  0  0  0  0  0
   41.0660   24.6570   43.1670 H   0  0  0  0  0  0  0  0  0  0  0  0
   42.9180   25.6920   43.4760 C   0  0  0  0  0  0  0  0  0  0  0  0
   43.8030   24.6760   43.5600 N   0  0  0  0  0  0  0  0  0  0  0  0
   45.0190   25.2290   43.7580 C   0  0  0  0  0  0  0  0  0  0  0  0
   45.9490   24.6990   43.8680 H   0  0  0  0  0  0  0  0  0  0  0  0
   44.8630   26.5840   43.7920 N   0  0  0  0  0  0  0  0  0  0  0  0
   43.5700   26.9010   43.6200 C   0  0  0  0  0  0  0  0  0  0  0  0
   42.8170   28.0650   43.5610 C   0  0  0  0  0  3  0  0  0  0  0  0
   43.6730   23.6330   43.4980 H   0  0  0  0  0  0  0  0  0  0  0  0
  1 16  1  0  0  0  0
  1  6  1  0  0  0  0
  2  1  1  0  0  0  0
  3  2  1  0  0  0  0
  3  4  1  0  0  0  0
  4 12  1  0  0  0  0
  4  5  1  0  0  0  0
  5  6  1  0  0  0  0
  5 14  1  0  0  0  0
  6 15  1  1  0  0  0
  6 31  1  0  0  0  0
  7  2  1  0  0  0  0
  8  2  1  0  0  0  0
  9  3  1  0  0  0  0
 10  3  1  0  0  0  0
 11  4  1  0  0  0  0
 13  5  1  0  0  0  0
 16 17  1  0  0  0  0
 16 18  1  0  0  0  0
 19 24  1  0  0  0  0
 19 16  1  0  0  0  0
 20 19  1  0  0  0  0
 21 19  1  0  0  0  0
 22 28  1  0  0  0  0
 22 27  1  0  0  0  0
 23 22  2  0  0  0  0
 24 23  1  0  0  0  0
 24 25  2  0  0  0  0
 25 26  1  0  0  0  0
 26 27  2  0  0  0  0
 26 30  1  0  0  0  0
 29 23  1  0  0  0  0
 31 33  1  0  0  0  0
 33 32  2  1  0  0  0
 33 34  1  0  0  0  0
 34 35  1  0  0  0  0
 36 33  1  0  0  0  0
 36 37  1  0  0  0  0
 37 41  1  0  0  0  0
 37 38  1  0  0  0  0
 39 37  1  0  0  0  0
 40 50  1  0  0  0  0
 41 42  1  0  0  0  0
 41 40  2  0  0  0  0
 42 44  2  0  0  0  0
 43 42  1  0  0  0  0
 44 45  1  0  0  0  0
 44 49  1  0  0  0  0
 45 46  1  0  0  0  0
 46 48  2  0  0  0  0
 46 47  1  0  0  0  0
 49 48  1  0  0  0  0
 50 49  2  0  0  0  0
 51 45  1  0  0  0  0
M  END
>  <minimizedAffinity>
-5.96474218

$$$$

 OpenBabel03252509063D

 51 54  0  0  1  0  0  0  0  0999 V2000
   36.6120   26.0280   40.2940 N   0  0  0  0  0  0  0  0  0  0  0  0
   36.6120   24.8460   39.5210 C   0  0  0  0  0  0  0  0  0  0  0  0
   37.6480   23.8210   39.9450 C   0  0  0  0  0  0  0  0  0  0  0  0
   37.8730   23.7650   41.4320 C   0  0  0  0  0  0  0  0  0  0  0  0
   36.9770   24.7290   42.1740 C   0  0  0  0  0  0  0  0  0  0  0  0
   37.2780   26.1200   41.4900 C   0  0  2  0  0  0  0  0  0  0  0  0
   36.7310   24.9680   38.4400 H   0  0  0  0  0  0  0  0  0  0  0  0
   35.6140   24.3380   39.6460 H   0  0  0  0  0  0  0  0  0  0  0  0
   38.6310   24.0070   39.4410 H   0  0  0  0  0  0  0  0  0  0  0  0
   37.3330   22.8130   39.5980 H   0  0  0  0  0  0  0  0  0  0  0  0
   37.6540   22.7380   41.8480 H   0  0  0  0  0  0  0  0  0  0  0  0
   38.9200   23.9790   41.7240 H   0  0  0  0  0  0  0  0  0  0  0  0
   35.9100   24.4910   42.0750 H   0  0  0  0  0  0  0  0  0  0  0  0
   37.3380   24.8450   43.2070 H   0  0  0  0  0  0  0  0  0  0  0  0
   38.3790   26.2090   41.4690 H   0  0  0  0  0  0  0  0  0  0  0  0
   36.3810   27.2320   39.5330 C   0  0  0  0  0  0  0  0  0  0  0  0
   35.3020   27.2280   39.2690 H   0  0  0  0  0  0  0  0  0  0  0  0
   36.5260   28.1700   40.1200 H   0  0  0  0  0  0  0  0  0  0  0  0
   37.2070   27.1520   38.2900 C   0  0  0  0  0  0  0  0  0  0  0  0
   37.6900   26.1800   38.1980 H   0  0  0  0  0  0  0  0  0  0  0  0
   36.5890   27.3020   37.3660 H   0  0  0  0  0  0  0  0  0  0  0  0
   40.3510   29.0720   39.0240 C   0  0  0  0  0  0  0  0  0  0  0  0
   39.3840   28.0490   39.0050 C   0  0  0  0  0  0  0  0  0  0  0  0
   38.2190   28.2400   38.3030 C   0  0  0  0  0  0  0  0  0  0  0  0
   38.0630   29.4040   37.6670 N   0  0  0  0  0  0  0  0  0  0  0  0
   38.9850   30.3740   37.6880 C   0  0  0  0  0  0  0  0  0  0  0  0
   40.1320   30.2320   38.3580 N   0  0  0  0  0  0  0  0  0  0  0  0
   41.2740   28.9360   39.5740 H   0  0  0  0  0  0  0  0  0  0  0  0
   39.6020   27.1410   39.5520 H   0  0  0  0  0  0  0  0  0  0  0  0
   38.6960   31.2520   37.1190 H   0  0  0  0  0  0  0  0  0  0  0  0
   36.6780   26.9880   42.3820 O   0  0  0  0  0  0  0  0  0  0  0  0
   38.9410   27.2660   43.7620 O   0  0  0  0  0  0  0  0  0  0  0  0
   37.7870   28.0270   43.1150 P   0  0  2  0  0  0  0  0  0  0  0  0
   36.9460   28.7420   44.4300 O   0  0  0  0  0  0  0  0  0  0  0  0
   37.5270   28.8640   45.2000 H   0  0  0  0  0  0  0  0  0  0  0  0
   38.3040   29.2540   42.1290 O   0  0  0  0  0  0  0  0  0  0  0  0
   37.2040   29.9220   41.6180 C   0  0  0  0  0  0  0  0  0  0  0  0
   36.7900   29.3050   40.8050 H   0  0  0  0  0  0  0  0  0  0  0  0
   36.4420   30.1620   42.3630 H   0  0  0  0  0  0  0  0  0  0  0  0
   36.9510   32.0250   40.2370 C   0  0  0  0  0  3  0  0  0  0  0  0
   37.7210   31.2170   41.0510 C   0  0  0  0  0  0  0  0  0  0  0  0
   39.0270   31.5730   41.3850 C   0  0  0  0  0  0  0  0  0  0  0  0
   39.6340   30.9270   42.0320 H   0  0  0  0  0  0  0  0  0  0  0  0
   39.5560   32.7450   40.8980 C   0  0  0  0  0  0  0  0  0  0  0  0
   40.7850   33.2620   41.1020 N   0  0  0  0  0  0  0  0  0  0  0  0
   40.8400   34.4270   40.4200 C   0  0  0  0  0  0  0  0  0  0  0  0
   41.6820   35.0960   40.3680 H   0  0  0  0  0  0  0  0  0  0  0  0
   39.6360   34.6080   39.8020 N   0  0  0  0  0  0  0  0  0  0  0  0
   38.8190   33.5810   40.0810 C   0  0  0  0  0  0  0  0  0  0  0  0
   37.5210   33.2100   39.7590 C   0  0  0  0  0  3  0  0  0  0  0  0
   41.6050   32.9100   41.6610 H   0  0  0  0  0  0  0  0  0  0  0  0
  1  6  1  0  0  0  0
  2  8  1  0  0  0  0
  2  3  1  0  0  0  0
  2  1  1  0  0  0  0
  3  4  1  0  0  0  0
  4 12  1  0  0  0  0
  4 11  1  0  0  0  0
  4  5  1  0  0  0  0
  5 14  1  0  0  0  0
  6 15  1  6  0  0  0
  6  5  1  0  0  0  0
  6 31  1  0  0  0  0
  7  2  1  0  0  0  0
  9  3  1  0  0  0  0
 10  3  1  0  0  0  0
 13  5  1  0  0  0  0
 16 18  1  0  0  0  0
 16  1  1  0  0  0  0
 17 16  1  0  0  0  0
 19 24  1  0  0  0  0
 19 16  1  0  0  0  0
 20 19  1  0  0  0  0
 21 19  1  0  0  0  0
 22 28  1  0  0  0  0
 23 22  1  0  0  0  0
 23 29  1  0  0  0  0
 24 23  2  0  0  0  0
 25 26  2  0  0  0  0
 25 24  1  0  0  0  0
 26 27  1  0  0  0  0
 27 22  2  0  0  0  0
 30 26  1  0  0  0  0
 31 33  1  0  0  0  0
 33 32  2  1  0  0  0
 33 34  1  0  0  0  0
 34 35  1  0  0  0  0
 36 33  1  0  0  0  0
 37 36  1  0  0  0  0
 37 39  1  0  0  0  0
 38 37  1  0  0  0  0
 40 41  1  0  0  0  0
 41 42  2  0  0  0  0
 41 37  1  0  0  0  0
 42 43  1  0  0  0  0
 44 45  1  0  0  0  0
 44 42  1  0  0  0  0
 45 51  1  0  0  0  0
 46 45  1  0  0  0  0
 47 46  1  0  0  0  0
 48 49  1  0  0  0  0
 48 46  2  0  0  0  0
 49 44  2  0  0  0  0
 50 49  1  0  0  0  0
 50 40  2  0  0  0  0
M  END
>  <minimizedAffinity>
-5.95223188

$$$$

 OpenBabel03252509063D

 51 54  0  0  1  0  0  0  0  0999 V2000
   36.7420   25.7930   40.2130 N   0  0  0  0  0  0  0  0  0  0  0  0
   36.7820   24.5530   39.5380 C   0  0  0  0  0  0  0  0  0  0  0  0
   37.8980   23.6290   39.9930 C   0  0  0  0  0  0  0  0  0  0  0  0
   38.1910   23.7110   41.4660 C   0  0  0  0  0  0  0  0  0  0  0  0
   37.2700   24.6790   42.1710 C   0  0  0  0  0  0  0  0  0  0  0  0
   37.4530   26.0240   41.3630 C   0  0  2  0  0  0  0  0  0  0  0  0
   36.8450   24.5900   38.4460 H   0  0  0  0  0  0  0  0  0  0  0  0
   35.8250   23.9990   39.7530 H   0  0  0  0  0  0  0  0  0  0  0  0
   38.8440   23.8300   39.4280 H   0  0  0  0  0  0  0  0  0  0  0  0
   37.6320   22.5790   39.7440 H   0  0  0  0  0  0  0  0  0  0  0  0
   38.0560   22.7120   41.9740 H   0  0  0  0  0  0  0  0  0  0  0  0
   39.2350   24.0100   41.6880 H   0  0  0  0  0  0  0  0  0  0  0  0
   36.2170   24.3710   42.1440 H   0  0  0  0  0  0  0  0  0  0  0  0
   37.6690   24.9020   43.1730 H   0  0  0  0  0  0  0  0  0  0  0  0
   38.5450   26.1750   41.2800 H   0  0  0  0  0  0  0  0  0  0  0  0
   36.4030   26.9140   39.3690 C   0  0  0  0  0  0  0  0  0  0  0  0
   35.5890   26.5610   38.7000 H   0  0  0  0  0  0  0  0  0  0  0  0
   35.9610   27.7750   39.9230 H   0  0  0  0  0  0  0  0  0  0  0  0
   37.6110   27.2580   38.5600 C   0  0  0  0  0  0  0  0  0  0  0  0
   38.4190   27.6250   39.1910 H   0  0  0  0  0  0  0  0  0  0  0  0
   38.0070   26.3700   38.0000 H   0  0  0  0  0  0  0  0  0  0  0  0
   37.3320   30.5360   36.7460 C   0  0  0  0  0  0  0  0  0  0  0  0
   37.6730   29.5650   37.7080 C   0  0  0  0  0  0  0  0  0  0  0  0
   37.2440   28.2720   37.5380 C   0  0  0  0  0  0  0  0  0  0  0  0
   36.5140   28.0000   36.4530 N   0  0  0  0  0  0  0  0  0  0  0  0
   36.1920   28.9250   35.5410 C   0  0  0  0  0  0  0  0  0  0  0  0
   36.5870   30.1950   35.6660 N   0  0  0  0  0  0  0  0  0  0  0  0
   37.6620   31.5600   36.8680 H   0  0  0  0  0  0  0  0  0  0  0  0
   38.2680   29.8840   38.5550 H   0  0  0  0  0  0  0  0  0  0  0  0
   35.5950   28.5320   34.7240 H   0  0  0  0  0  0  0  0  0  0  0  0
   36.8400   26.9270   42.2110 O   0  0  0  0  0  0  0  0  0  0  0  0
   39.1390   27.6780   43.3300 O   0  0  0  0  0  0  0  0  0  0  0  0
   37.8670   28.1880   42.6590 P   0  0  2  0  0  0  0  0  0  0  0  0
   37.0340   29.0380   43.8970 O   0  0  0  0  0  0  0  0  0  0  0  0
   37.6440   29.3560   44.5840 H   0  0  0  0  0  0  0  0  0  0  0  0
   38.1760   29.2630   41.4380 O   0  0  0  0  0  0  0  0  0  0  0  0
   37.1420   30.1830   41.3680 C   0  0  0  0  0  0  0  0  0  0  0  0
   36.4190   29.8110   40.6250 H   0  0  0  0  0  0  0  0  0  0  0  0
   36.6590   30.3850   42.3270 H   0  0  0  0  0  0  0  0  0  0  0  0
   37.0480   32.3660   40.0960 C   0  0  0  0  0  3  0  0  0  0  0  0
   37.7510   31.4680   40.8750 C   0  0  0  0  0  0  0  0  0  0  0  0
   39.0730   31.7190   41.2430 C   0  0  0  0  0  0  0  0  0  0  0  0
   39.6270   31.0020   41.8620 H   0  0  0  0  0  0  0  0  0  0  0  0
   39.6850   32.8770   40.8230 C   0  0  0  0  0  0  0  0  0  0  0  0
   40.9420   33.3000   41.0690 N   0  0  0  0  0  0  0  0  0  0  0  0
   41.0840   34.4920   40.4490 C   0  0  0  0  0  0  0  0  0  0  0  0
   41.9680   35.1060   40.4420 H   0  0  0  0  0  0  0  0  0  0  0  0
   39.9040   34.7840   39.8280 N   0  0  0  0  0  0  0  0  0  0  0  0
   39.0170   33.8010   40.0430 C   0  0  0  0  0  0  0  0  0  0  0  0
   37.7020   33.5340   39.6880 C   0  0  0  0  0  3  0  0  0  0  0  0
   41.7290   32.8660   41.6180 H   0  0  0  0  0  0  0  0  0  0  0  0
  1  6  1  0  0  0  0
  2  8  1  0  0  0  0
  2  3  1  0  0  0  0
  2  1  1  0  0  0  0
  3  4  1  0  0  0  0
  4 12  1  0  0  0  0
  4 11  1  0  0  0  0
  4  5  1  0  0  0  0
  5 14  1  0  0  0  0
  6 15  1  6  0  0  0
  6  5  1  0  0  0  0
  6 31  1  0  0  0  0
  7  2  1  0  0  0  0
  9  3  1  0  0  0  0
 10  3  1  0  0  0  0
 13  5  1  0  0  0  0
 16 18  1  0  0  0  0
 16  1  1  0  0  0  0
 17 16  1  0  0  0  0
 19 20  1  0  0  0  0
 19 16  1  0  0  0  0
 21 19  1  0  0  0  0
 22 28  1  0  0  0  0
 22 23  1  0  0  0  0
 23 29  1  0  0  0  0
 24 23  2  0  0  0  0
 24 19  1  0  0  0  0
 25 24  1  0  0  0  0
 26 27  1  0  0  0  0
 26 25  2  0  0  0  0
 27 22  2  0  0  0  0
 30 26  1  0  0  0  0
 31 33  1  0  0  0  0
 33 32  2  1  0  0  0
 33 34  1  0  0  0  0
 34 35  1  0  0  0  0
 36 33  1  0  0  0  0
 37 36  1  0  0  0  0
 37 39  1  0  0  0  0
 38 37  1  0  0  0  0
 40 41  1  0  0  0  0
 41 42  2  0  0  0  0
 41 37  1  0  0  0  0
 42 43  1  0  0  0  0
 44 45  1  0  0  0  0
 44 42  1  0  0  0  0
 45 51  1  0  0  0  0
 46 45  1  0  0  0  0
 47 46  1  0  0  0  0
 48 49  1  0  0  0  0
 48 46  2  0  0  0  0
 49 44  2  0  0  0  0
 50 49  1  0  0  0  0
 50 40  2  0  0  0  0
M  END
>  <minimizedAffinity>
-5.93901253

$$$$

 OpenBabel03252509063D

 51 54  0  0  1  0  0  0  0  0999 V2000
   37.4550   26.2520   41.5310 N   0  0  0  0  0  0  0  0  0  0  0  0
   38.1230   25.1900   42.1800 C   0  0  0  0  0  0  0  0  0  0  0  0
   39.3770   25.6050   42.9290 C   0  0  0  0  0  0  0  0  0  0  0  0
   39.2750   26.9590   43.5790 C   0  0  0  0  0  0  0  0  0  0  0  0
   37.9180   27.5860   43.3640 C   0  0  0  0  0  0  0  0  0  0  0  0
   37.7420   27.5670   41.7950 C   0  0  2  0  0  0  0  0  0  0  0  0
   38.4110   24.3380   41.5570 H   0  0  0  0  0  0  0  0  0  0  0  0
   37.4340   24.7580   42.9590 H   0  0  0  0  0  0  0  0  0  0  0  0
   40.2710   25.5970   42.2560 H   0  0  0  0  0  0  0  0  0  0  0  0
   39.6020   24.8530   43.7170 H   0  0  0  0  0  0  0  0  0  0  0  0
   39.4270   26.8980   44.6960 H   0  0  0  0  0  0  0  0  0  0  0  0
   40.0420   27.6740   43.2200 H   0  0  0  0  0  0  0  0  0  0  0  0
   37.1020   27.0230   43.8350 H   0  0  0  0  0  0  0  0  0  0  0  0
   37.9620   28.6550   43.6240 H   0  0  0  0  0  0  0  0  0  0  0  0
   38.6780   27.9890   41.3850 H   0  0  0  0  0  0  0  0  0  0  0  0
   36.9070   25.9050   40.2420 C   0  0  0  0  0  0  0  0  0  0  0  0
   36.6960   24.8140   40.2800 H   0  0  0  0  0  0  0  0  0  0  0  0
   35.9190   26.3780   40.0320 H   0  0  0  0  0  0  0  0  0  0  0  0
   37.9530   26.1830   39.2120 C   0  0  0  0  0  0  0  0  0  0  0  0
   38.8490   26.6080   39.6620 H   0  0  0  0  0  0  0  0  0  0  0  0
   38.2660   25.2510   38.6710 H   0  0  0  0  0  0  0  0  0  0  0  0
   35.5070   28.2120   37.2080 C   0  0  0  0  0  0  0  0  0  0  0  0
   36.0460   27.3430   38.1770 C   0  0  0  0  0  0  0  0  0  0  0  0
   37.3980   27.1020   38.1840 C   0  0  0  0  0  0  0  0  0  0  0  0
   38.1410   27.7130   37.2590 N   0  0  0  0  0  0  0  0  0  0  0  0
   37.6260   28.5390   36.3400 C   0  0  0  0  0  0  0  0  0  0  0  0
   36.3170   28.8020   36.2950 N   0  0  0  0  0  0  0  0  0  0  0  0
   34.4430   28.4110   37.1900 H   0  0  0  0  0  0  0  0  0  0  0  0
   35.3620   26.8930   38.8850 H   0  0  0  0  0  0  0  0  0  0  0  0
   38.3710   28.9490   35.6660 H   0  0  0  0  0  0  0  0  0  0  0  0
   36.6530   28.4040   41.6410 O   0  0  0  0  0  0  0  0  0  0  0  0
   38.1240   30.5560   42.1930 O   0  0  0  0  0  0  0  0  0  0  0  0
   37.1020   29.9750   41.2200 P   0  0  2  0  0  0  0  0  0  0  0  0
   35.6940   30.9300   41.4460 O   0  0  0  0  0  0  0  0  0  0  0  0
   35.9130   31.8110   41.7950 H   0  0  0  0  0  0  0  0  0  0  0  0
   37.5640   30.1350   39.6370 O   0  0  0  0  0  0  0  0  0  0  0  0
   36.9780   31.2720   39.1050 C   0  0  0  0  0  0  0  0  0  0  0  0
   36.8640   31.1090   38.0220 H   0  0  0  0  0  0  0  0  0  0  0  0
   36.0270   31.5430   39.5690 H   0  0  0  0  0  0  0  0  0  0  0  0
   37.5640   33.5910   39.9260 C   0  0  0  0  0  3  0  0  0  0  0  0
   37.9470   32.3990   39.3420 C   0  0  0  0  0  0  0  0  0  0  0  0
   39.2670   32.1880   38.9440 C   0  0  0  0  0  0  0  0  0  0  0  0
   39.5660   31.2390   38.4810 H   0  0  0  0  0  0  0  0  0  0  0  0
   40.1990   33.1800   39.1340 C   0  0  0  0  0  0  0  0  0  0  0  0
   41.5120   33.1720   38.8220 N   0  0  0  0  0  0  0  0  0  0  0  0
   42.0130   34.3680   39.1990 C   0  0  0  0  0  0  0  0  0  0  0  0
   43.0340   34.6940   39.0930 H   0  0  0  0  0  0  0  0  0  0  0  0
   40.9940   35.0980   39.7410 N   0  0  0  0  0  0  0  0  0  0  0  0
   39.8570   34.3860   39.7140 C   0  0  0  0  0  0  0  0  0  0  0  0
   38.5390   34.5780   40.1050 C   0  0  0  0  0  3  0  0  0  0  0  0
   42.1170   32.4360   38.3750 H   0  0  0  0  0  0  0  0  0  0  0  0
  1  6  1  0  0  0  0
  1  2  1  0  0  0  0
  2  3  1  0  0  0  0
  2  8  1  0  0  0  0
  3  4  1  0  0  0  0
  3 10  1  0  0  0  0
  4 11  1  0  0  0  0
  5  4  1  0  0  0  0
  5 14  1  0  0  0  0
  5 13  1  0  0  0  0
  6 15  1  6  0  0  0
  6  5  1  0  0  0  0
  7  2  1  0  0  0  0
  9  3  1  0  0  0  0
 12  4  1  0  0  0  0
 16 17  1  0  0  0  0
 16  1  1  0  0  0  0
 18 16  1  0  0  0  0
 19 20  1  0  0  0  0
 19 16  1  0  0  0  0
 21 19  1  0  0  0  0
 22 23  1  0  0  0  0
 23 24  2  0  0  0  0
 23 29  1  0  0  0  0
 24 19  1  0  0  0  0
 25 24  1  0  0  0  0
 26 25  2  0  0  0  0
 27 26  1  0  0  0  0
 27 22  2  0  0  0  0
 28 22  1  0  0  0  0
 30 26  1  0  0  0  0
 31  6  1  0  0  0  0
 33 34  1  0  0  0  0
 33 31  1  0  0  0  0
 33 32  2  1  0  0  0
 34 35  1  0  0  0  0
 36 33  1  0  0  0  0
 37 41  1  0  0  0  0
 37 39  1  0  0  0  0
 37 36  1  0  0  0  0
 38 37  1  0  0  0  0
 40 50  1  0  0  0  0
 41 40  2  0  0  0  0
 42 44  2  0  0  0  0
 42 41  1  0  0  0  0
 43 42  1  0  0  0  0
 44 49  1  0  0  0  0
 45 44  1  0  0  0  0
 45 46  1  0  0  0  0
 46 48  2  0  0  0  0
 47 46  1  0  0  0  0
 49 48  1  0  0  0  0
 49 50  2  0  0  0  0
 51 45  1  0  0  0  0
M  END
>  <minimizedAffinity>
-5.87312841

$$$$

 OpenBabel03252509063D

 51 54  0  0  1  0  0  0  0  0999 V2000
   40.9990   30.0990   39.5420 N   0  0  0  0  0  0  0  0  0  0  0  0
   41.1540   29.0200   38.6440 C   0  0  0  0  0  0  0  0  0  0  0  0
   41.3060   29.4340   37.1910 C   0  0  0  0  0  0  0  0  0  0  0  0
   42.0840   30.7070   37.0010 C   0  0  0  0  0  0  0  0  0  0  0  0
   42.5710   31.2710   38.3150 C   0  0  0  0  0  0  0  0  0  0  0  0
   41.2560   31.3970   39.1790 C   0  0  2  0  0  0  0  0  0  0  0  0
   40.3740   28.2530   38.6600 H   0  0  0  0  0  0  0  0  0  0  0  0
   42.1030   28.4730   38.9040 H   0  0  0  0  0  0  0  0  0  0  0  0
   40.3090   29.5450   36.6950 H   0  0  0  0  0  0  0  0  0  0  0  0
   41.8170   28.6220   36.6290 H   0  0  0  0  0  0  0  0  0  0  0  0
   43.0000   30.5460   36.3610 H   0  0  0  0  0  0  0  0  0  0  0  0
   41.5050   31.4990   36.4840 H   0  0  0  0  0  0  0  0  0  0  0  0
   43.2890   30.6170   38.8260 H   0  0  0  0  0  0  0  0  0  0  0  0
   42.9060   32.3100   38.1670 H   0  0  0  0  0  0  0  0  0  0  0  0
   40.5230   31.9120   38.5310 H   0  0  0  0  0  0  0  0  0  0  0  0
   40.0590   29.8490   40.6090 C   0  0  0  0  0  0  0  0  0  0  0  0
   40.6610   29.7900   41.5420 H   0  0  0  0  0  0  0  0  0  0  0  0
   39.3460   30.6890   40.7850 H   0  0  0  0  0  0  0  0  0  0  0  0
   39.4060   28.5320   40.3420 C   0  0  0  0  0  0  0  0  0  0  0  0
   38.8330   28.5550   39.4160 H   0  0  0  0  0  0  0  0  0  0  0  0
   40.1560   27.7040   40.2470 H   0  0  0  0  0  0  0  0  0  0  0  0
   37.0700   26.6100   42.5710 C   0  0  0  0  0  0  0  0  0  0  0  0
   37.9030   26.9570   41.4890 C   0  0  0  0  0  0  0  0  0  0  0  0
   38.5300   28.1790   41.4900 C   0  0  0  0  0  0  0  0  0  0  0  0
   38.3140   28.9850   42.5320 N   0  0  0  0  0  0  0  0  0  0  0  0
   37.5220   28.6520   43.5590 C   0  0  0  0  0  0  0  0  0  0  0  0
   36.8920   27.4750   43.6000 N   0  0  0  0  0  0  0  0  0  0  0  0
   36.5690   25.6510   42.5840 H   0  0  0  0  0  0  0  0  0  0  0  0
   38.0150   26.2360   40.6890 H   0  0  0  0  0  0  0  0  0  0  0  0
   37.4590   29.4230   44.3190 H   0  0  0  0  0  0  0  0  0  0  0  0
   41.7020   32.1780   40.2270 O   0  0  0  0  0  0  0  0  0  0  0  0
   40.9640   34.4280   39.0050 O   0  0  0  0  0  0  0  0  0  0  0  0
   40.8920   33.6560   40.3200 P   0  0  2  0  0  0  0  0  0  0  0  0
   41.7950   34.6040   41.4300 O   0  0  0  0  0  0  0  0  0  0  0  0
   41.8210   35.5390   41.1630 H   0  0  0  0  0  0  0  0  0  0  0  0
   39.3480   33.5360   40.9070 O   0  0  0  0  0  0  0  0  0  0  0  0
   38.4520   33.8670   39.9040 C   0  0  0  0  0  0  0  0  0  0  0  0
   37.7270   34.5770   40.3300 H   0  0  0  0  0  0  0  0  0  0  0  0
   38.9210   34.2700   39.0020 H   0  0  0  0  0  0  0  0  0  0  0  0
   37.8490   32.0340   38.2700 C   0  0  0  0  0  3  0  0  0  0  0  0
   37.7450   32.5930   39.5290 C   0  0  0  0  0  0  0  0  0  0  0  0
   36.9700   31.9890   40.5190 C   0  0  0  0  0  0  0  0  0  0  0  0
   36.8920   32.4370   41.5180 H   0  0  0  0  0  0  0  0  0  0  0  0
   36.3000   30.8220   40.2380 C   0  0  0  0  0  0  0  0  0  0  0  0
   35.5070   30.0900   41.0490 N   0  0  0  0  0  0  0  0  0  0  0  0
   35.0760   29.0330   40.3270 C   0  0  0  0  0  0  0  0  0  0  0  0
   34.4230   28.2500   40.6720 H   0  0  0  0  0  0  0  0  0  0  0  0
   35.6130   29.1320   39.0760 N   0  0  0  0  0  0  0  0  0  0  0  0
   36.3770   30.2320   38.9910 C   0  0  0  0  0  0  0  0  0  0  0  0
   37.1530   30.8470   38.0190 C   0  0  0  0  0  3  0  0  0  0  0  0
   35.2210   30.2290   42.0520 H   0  0  0  0  0  0  0  0  0  0  0  0
  1 16  1  0  0  0  0
  2  7  1  0  0  0  0
  2  8  1  0  0  0  0
  2  1  1  0  0  0  0
  3  2  1  0  0  0  0
  4  3  1  0  0  0  0
  4  5  1  0  0  0  0
  5 13  1  0  0  0  0
  5  6  1  0  0  0  0
  6 15  1  6  0  0  0
  6  1  1  0  0  0  0
  6 31  1  0  0  0  0
  9  3  1  0  0  0  0
 10  3  1  0  0  0  0
 11  4  1  0  0  0  0
 12  4  1  0  0  0  0
 14  5  1  0  0  0  0
 16 18  1  0  0  0  0
 16 17  1  0  0  0  0
 19 16  1  0  0  0  0
 19 24  1  0  0  0  0
 20 19  1  0  0  0  0
 21 19  1  0  0  0  0
 22 28  1  0  0  0  0
 22 27  1  0  0  0  0
 23 24  1  0  0  0  0
 23 22  2  0  0  0  0
 24 25  2  0  0  0  0
 25 26  1  0  0  0  0
 26 27  2  0  0  0  0
 26 30  1  0  0  0  0
 29 23  1  0  0  0  0
 31 33  1  0  0  0  0
 33 32  2  6  0  0  0
 33 36  1  0  0  0  0
 33 34  1  0  0  0  0
 35 34  1  0  0  0  0
 37 38  1  0  0  0  0
 37 36  1  0  0  0  0
 39 37  1  0  0  0  0
 40 41  1  0  0  0  0
 41 37  1  0  0  0  0
 41 42  2  0  0  0  0
 42 43  1  0  0  0  0
 44 42  1  0  0  0  0
 44 45  1  0  0  0  0
 45 51  1  0  0  0  0
 46 47  1  0  0  0  0
 46 45  1  0  0  0  0
 48 46  2  0  0  0  0
 49 48  1  0  0  0  0
 49 44  2  0  0  0  0
 50 40  2  0  0  0  0
 50 49  1  0  0  0  0
M  END
>  <minimizedAffinity>
-5.82089233

$$$$

 OpenBabel03252509063D

 51 54  0  0  1  0  0  0  0  0999 V2000
   38.8390   28.3000   41.9090 N   0  0  0  0  0  0  0  0  0  0  0  0
   39.2440   27.5600   43.0420 C   0  0  0  0  0  0  0  0  0  0  0  0
   38.2450   27.5690   44.1840 C   0  0  0  0  0  0  0  0  0  0  0  0
   36.8090   27.5590   43.7350 C   0  0  0  0  0  0  0  0  0  0  0  0
   36.6900   27.5050   42.2300 C   0  0  0  0  0  0  0  0  0  0  0  0
   37.5490   28.7370   41.7430 C   0  0  2  0  0  0  0  0  0  0  0  0
   40.2100   27.8270   43.4810 H   0  0  0  0  0  0  0  0  0  0  0  0
   39.3510   26.4800   42.7410 H   0  0  0  0  0  0  0  0  0  0  0  0
   38.4040   28.4520   44.8540 H   0  0  0  0  0  0  0  0  0  0  0  0
   38.4170   26.6820   44.8320 H   0  0  0  0  0  0  0  0  0  0  0  0
   36.2530   26.6610   44.1330 H   0  0  0  0  0  0  0  0  0  0  0  0
   36.2340   28.4370   44.0920 H   0  0  0  0  0  0  0  0  0  0  0  0
   37.0920   26.5800   41.7970 H   0  0  0  0  0  0  0  0  0  0  0  0
   35.6590   27.7530   41.9340 H   0  0  0  0  0  0  0  0  0  0  0  0
   37.2070   29.5960   42.3490 H   0  0  0  0  0  0  0  0  0  0  0  0
   39.9070   29.0270   41.2650 C   0  0  0  0  0  0  0  0  0  0  0  0
   40.6750   28.2710   40.9950 H   0  0  0  0  0  0  0  0  0  0  0  0
   39.6130   29.4910   40.2940 H   0  0  0  0  0  0  0  0  0  0  0  0
   40.4690   29.9890   42.2600 C   0  0  0  0  0  0  0  0  0  0  0  0
   39.8650   30.0210   43.1660 H   0  0  0  0  0  0  0  0  0  0  0  0
   41.5110   29.7120   42.5690 H   0  0  0  0  0  0  0  0  0  0  0  0
   39.4630   33.2690   40.7290 C   0  0  0  0  0  0  0  0  0  0  0  0
   39.3940   31.9900   41.3150 C   0  0  0  0  0  0  0  0  0  0  0  0
   40.5570   31.3380   41.6430 C   0  0  0  0  0  0  0  0  0  0  0  0
   41.7100   31.9610   41.3850 N   0  0  0  0  0  0  0  0  0  0  0  0
   41.7720   33.1770   40.8290 C   0  0  0  0  0  0  0  0  0  0  0  0
   40.6670   33.8470   40.4930 N   0  0  0  0  0  0  0  0  0  0  0  0
   38.5550   33.7950   40.4650 H   0  0  0  0  0  0  0  0  0  0  0  0
   38.4110   31.5670   41.4840 H   0  0  0  0  0  0  0  0  0  0  0  0
   42.7870   33.5330   40.6900 H   0  0  0  0  0  0  0  0  0  0  0  0
   37.1670   28.8180   40.4170 O   0  0  0  0  0  0  0  0  0  0  0  0
   36.0770   31.0780   41.3170 O   0  0  0  0  0  0  0  0  0  0  0  0
   36.1610   30.1390   40.1160 P   0  0  2  0  0  0  0  0  0  0  0  0
   34.5810   29.4840   39.9660 O   0  0  0  0  0  0  0  0  0  0  0  0
   33.9120   30.0750   40.3530 H   0  0  0  0  0  0  0  0  0  0  0  0
   36.5070   30.9350   38.7060 O   0  0  0  0  0  0  0  0  0  0  0  0
   36.9850   30.0260   37.7760 C   0  0  0  0  0  0  0  0  0  0  0  0
   36.8040   29.0170   38.1770 H   0  0  0  0  0  0  0  0  0  0  0  0
   36.5560   30.1420   36.7780 H   0  0  0  0  0  0  0  0  0  0  0  0
   39.3850   29.2330   37.6970 C   0  0  0  0  0  3  0  0  0  0  0  0
   38.4680   30.2660   37.6730 C   0  0  0  0  0  0  0  0  0  0  0  0
   38.8830   31.5920   37.5490 C   0  0  0  0  0  0  0  0  0  0  0  0
   38.1500   32.4080   37.5300 H   0  0  0  0  0  0  0  0  0  0  0  0
   40.2250   31.8750   37.4510 C   0  0  0  0  0  0  0  0  0  0  0  0
   40.8240   33.0770   37.3250 N   0  0  0  0  0  0  0  0  0  0  0  0
   42.1540   32.8500   37.2660 C   0  0  0  0  0  0  0  0  0  0  0  0
   42.9240   33.5950   37.1660 H   0  0  0  0  0  0  0  0  0  0  0  0
   42.3530   31.5020   37.3560 N   0  0  0  0  0  0  0  0  0  0  0  0
   41.1750   30.8710   37.4710 C   0  0  0  0  0  0  0  0  0  0  0  0
   40.7420   29.5590   37.5940 C   0  0  0  0  0  3  0  0  0  0  0  0
   40.4270   34.0510   37.2760 H   0  0  0  0  0  0  0  0  0  0  0  0
  1  2  1  0  0  0  0
  2  7  1  0  0  0  0
  2  3  1  0  0  0  0
  3 10  1  0  0  0  0
  3  9  1  0  0  0  0
  4 12  1  0  0  0  0
  4 11  1  0  0  0  0
  4  3  1  0  0  0  0
  5  4  1  0  0  0  0
  6  1  1  0  0  0  0
  6  5  1  0  0  0  0
  6 15  1  1  0  0  0
  8  2  1  0  0  0  0
 13  5  1  0  0  0  0
 14  5  1  0  0  0  0
 16  1  1  0  0  0  0
 16 19  1  0  0  0  0
 17 16  1  0  0  0  0
 18 16  1  0  0  0  0
 19 21  1  0  0  0  0
 19 20  1  0  0  0  0
 22 23  1  0  0  0  0
 23 29  1  0  0  0  0
 23 24  2  0  0  0  0
 24 19  1  0  0  0  0
 25 24  1  0  0  0  0
 26 25  2  0  0  0  0
 27 22  2  0  0  0  0
 27 26  1  0  0  0  0
 28 22  1  0  0  0  0
 30 26  1  0  0  0  0
 31  6  1  0  0  0  0
 33 31  1  0  0  0  0
 33 32  2  1  0  0  0
 34 33  1  0  0  0  0
 34 35  1  0  0  0  0
 36 33  1  0  0  0  0
 37 38  1  0  0  0  0
 37 36  1  0  0  0  0
 39 37  1  0  0  0  0
 41 40  1  0  0  0  0
 41 37  1  0  0  0  0
 42 41  2  0  0  0  0
 43 42  1  0  0  0  0
 44 49  2  0  0  0  0
 44 42  1  0  0  0  0
 45 44  1  0  0  0  0
 46 45  1  0  0  0  0
 46 48  2  0  0  0  0
 47 46  1  0  0  0  0
 48 49  1  0  0  0  0
 49 50  1  0  0  0  0
 50 40  2  0  0  0  0
 51 45  1  0  0  0  0
M  END
>  <minimizedAffinity>
-5.8137598

$$$$

 OpenBabel03252509063D

 51 54  0  0  1  0  0  0  0  0999 V2000
   37.3160   30.7370   40.1160 N   0  0  0  0  0  0  0  0  0  0  0  0
   36.8360   31.0460   38.8240 C   0  0  0  0  0  0  0  0  0  0  0  0
   36.1680   29.8840   38.1110 C   0  0  0  0  0  0  0  0  0  0  0  0
   35.3850   28.9800   39.0240 C   0  0  0  0  0  0  0  0  0  0  0  0
   35.4140   29.4640   40.4550 C   0  0  0  0  0  0  0  0  0  0  0  0
   36.9550   29.5900   40.7760 C   0  0  2  0  0  0  0  0  0  0  0  0
   37.5620   31.4580   38.1170 H   0  0  0  0  0  0  0  0  0  0  0  0
   36.0420   31.8390   38.9190 H   0  0  0  0  0  0  0  0  0  0  0  0
   36.9180   29.2670   37.5540 H   0  0  0  0  0  0  0  0  0  0  0  0
   35.4810   30.2760   37.3300 H   0  0  0  0  0  0  0  0  0  0  0  0
   34.2980   28.9260   38.7260 H   0  0  0  0  0  0  0  0  0  0  0  0
   35.7420   27.9310   39.0120 H   0  0  0  0  0  0  0  0  0  0  0  0
   34.9260   30.4380   40.5920 H   0  0  0  0  0  0  0  0  0  0  0  0
   35.0570   28.6630   41.1210 H   0  0  0  0  0  0  0  0  0  0  0  0
   37.4060   28.6350   40.4490 H   0  0  0  0  0  0  0  0  0  0  0  0
   38.5770   31.3580   40.4420 C   0  0  0  0  0  0  0  0  0  0  0  0
   38.7610   31.1390   41.5160 H   0  0  0  0  0  0  0  0  0  0  0  0
   39.4490   30.9110   39.9080 H   0  0  0  0  0  0  0  0  0  0  0  0
   38.4240   32.8320   40.2440 C   0  0  0  0  0  0  0  0  0  0  0  0
   37.5370   33.0620   39.6570 H   0  0  0  0  0  0  0  0  0  0  0  0
   38.3260   33.3770   41.2190 H   0  0  0  0  0  0  0  0  0  0  0  0
   41.3360   33.1640   37.8930 C   0  0  0  0  0  0  0  0  0  0  0  0
   40.1820   32.6680   38.5290 C   0  0  0  0  0  0  0  0  0  0  0  0
   39.6430   33.3660   39.5820 C   0  0  0  0  0  0  0  0  0  0  0  0
   40.2510   34.4960   39.9520 N   0  0  0  0  0  0  0  0  0  0  0  0
   41.3480   34.9650   39.3450 C   0  0  0  0  0  0  0  0  0  0  0  0
   41.9070   34.3190   38.3180 N   0  0  0  0  0  0  0  0  0  0  0  0
   41.7720   32.6250   37.0620 H   0  0  0  0  0  0  0  0  0  0  0  0
   39.7610   31.7430   38.1570 H   0  0  0  0  0  0  0  0  0  0  0  0
   41.7110   35.8930   39.7730 H   0  0  0  0  0  0  0  0  0  0  0  0
   36.9270   29.7370   42.1500 O   0  0  0  0  0  0  0  0  0  0  0  0
   37.0660   28.3560   44.4250 O   0  0  0  0  0  0  0  0  0  0  0  0
   37.4840   28.3640   42.9570 P   0  0  2  0  0  0  0  0  0  0  0  0
   39.1930   28.5150   42.9910 O   0  0  0  0  0  0  0  0  0  0  0  0
   39.5640   28.1840   43.8280 H   0  0  0  0  0  0  0  0  0  0  0  0
   37.1240   26.9440   42.1830 O   0  0  0  0  0  0  0  0  0  0  0  0
   38.0500   25.9800   42.5470 C   0  0  0  0  0  0  0  0  0  0  0  0
   39.0520   26.3970   42.3620 H   0  0  0  0  0  0  0  0  0  0  0  0
   37.9480   25.6300   43.5770 H   0  0  0  0  0  0  0  0  0  0  0  0
   38.8110   23.8840   41.3540 C   0  0  0  0  0  3  0  0  0  0  0  0
   37.8200   24.8060   41.6340 C   0  0  0  0  0  0  0  0  0  0  0  0
   36.5490   24.6840   41.0740 C   0  0  0  0  0  0  0  0  0  0  0  0
   35.7660   25.4190   41.3000 H   0  0  0  0  0  0  0  0  0  0  0  0
   36.2770   23.6320   40.2310 C   0  0  0  0  0  0  0  0  0  0  0  0
   35.1230   23.3400   39.5950 N   0  0  0  0  0  0  0  0  0  0  0  0
   35.3420   22.2130   38.8830 C   0  0  0  0  0  0  0  0  0  0  0  0
   34.6270   21.7060   38.2580 H   0  0  0  0  0  0  0  0  0  0  0  0
   36.6340   21.8280   39.0930 N   0  0  0  0  0  0  0  0  0  0  0  0
   37.2400   22.6890   39.9250 C   0  0  0  0  0  0  0  0  0  0  0  0
   38.4990   22.8270   40.4920 C   0  0  0  0  0  3  0  0  0  0  0  0
   34.1890   23.8250   39.5890 H   0  0  0  0  0  0  0  0  0  0  0  0
  1 16  1  0  0  0  0
  1  6  1  0  0  0  0
  2  8  1  0  0  0  0
  2  1  1  0  0  0  0
  3  2  1  0  0  0  0
  3  4  1  0  0  0  0
  4  5  1  0  0  0  0
  5 13  1  0  0  0  0
  5  6  1  0  0  0  0
  5 14  1  0  0  0  0
  6 15  1  6  0  0  0
  6 31  1  0  0  0  0
  7  2  1  0  0  0  0
  9  3  1  0  0  0  0
 10  3  1  0  0  0  0
 11  4  1  0  0  0  0
 12  4  1  0  0  0  0
 16 17  1  0  0  0  0
 18 16  1  0  0  0  0
 19 16  1  0  0  0  0
 19 21  1  0  0  0  0
 20 19  1  0  0  0  0
 22 27  2  0  0  0  0
 22 23  1  0  0  0  0
 23 24  2  0  0  0  0
 24 25  1  0  0  0  0
 24 19  1  0  0  0  0
 26 30  1  0  0  0  0
 26 25  2  0  0  0  0
 27 26  1  0  0  0  0
 28 22  1  0  0  0  0
 29 23  1  0  0  0  0
 31 33  1  0  0  0  0
 33 34  1  0  0  0  0
 33 32  2  1  0  0  0
 34 35  1  0  0  0  0
 36 37  1  0  0  0  0
 36 33  1  0  0  0  0
 37 39  1  0  0  0  0
 38 37  1  0  0  0  0
 40 41  1  0  0  0  0
 41 37  1  0  0  0  0
 42 43  1  0  0  0  0
 42 41  2  0  0  0  0
 44 42  1  0  0  0  0
 45 44  1  0  0  0  0
 46 48  2  0  0  0  0
 46 45  1  0  0  0  0
 47 46  1  0  0  0  0
 48 49  1  0  0  0  0
 49 44  2  0  0  0  0
 49 50  1  0  0  0  0
 50 40  2  0  0  0  0
 51 45  1  0  0  0  0
M  END
>  <minimizedAffinity>
-5.79393625

$$$$
