REMARK  Name = 
REMARK  2 active torsions:
REMARK  status: ('A' for Active; 'I' for Inactive)
REMARK    1  A    between atoms: C_5  and  C_7
REMARK    2  A    between atoms: C_11  and  C_19
REMARK                            x       y       z     vdW  Elec       q    Type
REMARK                         _______ _______ _______ _____ _____    ______ ____
ROOT
ATOM      1  C   UNL     1      45.983  33.017  46.556  0.00  0.00    +0.000 A 
ATOM      2  C   UNL     1      47.041  32.164  46.512  0.00  0.00    +0.000 A 
ATOM      3  C   UNL     1      47.323  31.266  47.506  0.00  0.00    +0.000 A 
ATOM      4  N   UNL     1      46.471  31.258  48.583  0.00  0.00    +0.000 NA
ATOM      5  C   UNL     1      45.434  32.099  48.617  0.00  0.00    +0.000 A 
ATOM      6  N   UNL     1      45.147  32.991  47.639  0.00  0.00    +0.000 NA
ATOM      7  H   UNL     1      47.725  32.155  45.671  0.00  0.00    +0.000 HD
ATOM      8  H   UNL     1      48.146  30.583  47.502  0.00  0.00    +0.000 HD
ENDROOT
BRANCH   5  10
ATOM      9  C   UNL     1      43.173  32.084  49.653  0.00  0.00    +0.000 A 
ATOM     10  C   UNL     1      44.548  32.064  49.776  0.00  0.00    +0.000 A 
ATOM     11  C   UNL     1      45.038  32.009  51.062  0.00  0.00    +0.000 A 
ATOM     12  H   UNL     1      46.090  31.990  51.263  0.00  0.00    +0.000 HD
ATOM     13  C   UNL     1      44.197  31.976  52.169  0.00  0.00    +0.000 A 
ATOM     14  N   UNL     1      44.345  31.923  53.506  0.00  0.00    +0.000 N 
ATOM     15  C   UNL     1      43.120  31.914  54.103  0.00  0.00    +0.000 A 
ATOM     16  H   UNL     1      42.907  31.875  55.174  0.00  0.00    +0.000 HD
ATOM     17  N   UNL     1      42.157  31.962  53.140  0.00  0.00    +0.000 NA
ATOM     18  C   UNL     1      42.816  31.999  51.972  0.00  0.00    +0.000 A 
ATOM     19  C   UNL     1      42.279  32.054  50.705  0.00  0.00    +0.000 A 
ATOM     20  H   UNL     1      45.271  31.894  53.995  0.00  0.00    +0.000 HD
ENDBRANCH   5  10
BRANCH   1  25
ATOM     21  C   UNL     1      44.496  35.820  44.710  0.00  0.00    +0.000 A 
ATOM     22  C   UNL     1      45.167  35.742  43.485  0.00  0.00    +0.000 A 
ATOM     23  C   UNL     1      46.125  34.738  43.282  0.00  0.00    +0.000 A 
ATOM     24  N   UNL     1      46.358  33.872  44.312  0.00  0.00    +0.000 NA
ATOM     25  C   UNL     1      45.696  33.967  45.489  0.00  0.00    +0.000 A 
ATOM     26  N   UNL     1      44.776  34.932  45.681  0.00  0.00    +0.000 NA
ATOM     27  H   UNL     1      43.746  36.564  44.941  0.00  0.00    +0.000 HD
ATOM     28  H   UNL     1      44.907  36.481  42.730  0.00  0.00    +0.000 HD
ATOM     29  H   UNL     1      46.633  34.685  42.344  0.00  0.00    +0.000 HD
ENDBRANCH   1  25
TORSDOF 2
