
 OpenBabel03252500273D

 46 49  0  0  1  0  0  0  0  0999 V2000
   47.0530   33.2860   46.5810 O   0  0  0  0  0  0  0  0  0  0  0  0
   45.5910   33.0180   46.5120 P   0  0  1  0  0  0  0  0  0  0  0  0
   45.2900   31.8780   45.2960 O   0  0  0  0  0  0  0  0  0  0  0  0
   45.8540   32.0490   44.4960 H   0  0  0  0  0  0  0  0  0  0  0  0
   45.1390   32.4070   47.9750 O   0  0  0  0  0  0  0  0  0  0  0  0
   47.0620   30.9940   48.0260 C   0  0  2  0  0  0  0  0  0  0  0  0
   45.5890   31.1180   48.1140 C   0  0  2  0  0  0  0  0  0  0  0  0
   45.0440   30.2120   47.1250 C   0  0  0  0  0  0  0  0  0  0  0  0
   46.0020   29.2270   46.8410 O   0  0  0  0  0  0  0  0  0  0  0  0
   47.0320   29.4490   47.6910 C   0  0  0  0  0  0  0  0  0  0  0  0
   47.5550   31.2710   47.0790 H   0  0  0  0  0  0  0  0  0  0  0  0
   45.3860   30.8930   49.2000 H   0  0  0  0  0  0  0  0  0  0  0  0
   44.3370   30.4610   46.3650 H   0  0  0  0  0  0  0  0  0  0  0  0
   44.3480   29.5430   47.7480 H   0  0  0  0  0  0  0  0  0  0  0  0
   46.7480   29.0210   48.6910 H   0  0  0  0  0  0  0  0  0  0  0  0
   48.0230   29.1020   47.4100 H   0  0  0  0  0  0  0  0  0  0  0  0
   47.7650   31.1450   49.1590 O   0  0  0  0  0  0  0  0  0  0  0  0
   49.0430   31.3860   49.2450 C   0  0  0  0  0  0  0  0  0  0  0  0
   49.4100   32.3730   49.2190 H   0  0  0  0  0  0  0  0  0  0  0  0
   49.5150   31.0120   48.1810 H   0  0  0  0  0  0  0  0  0  0  0  0
   49.6520   30.4120   50.2420 C   0  0  0  0  0  0  0  0  0  0  0  0
   49.0530   29.4960   50.3180 H   0  0  0  0  0  0  0  0  0  0  0  0
   49.7910   30.8950   51.2380 H   0  0  0  0  0  0  0  0  0  0  0  0
   50.6750   30.1430   49.9020 H   0  0  0  0  0  0  0  0  0  0  0  0
   44.8540   34.5160   46.1650 O   0  0  0  0  0  0  0  0  0  0  0  0
   45.1970   36.9430   43.5420 C   0  0  0  0  0  0  0  0  0  0  0  0
   44.8510   36.2320   42.3690 C   0  0  0  0  0  0  0  0  0  0  0  0
   44.4960   34.8760   42.5430 C   0  0  0  0  0  0  0  0  0  0  0  0
   44.5060   34.3500   43.7830 N   0  0  0  0  0  0  0  0  0  0  0  0
   44.8410   35.0630   44.8690 C   0  0  0  0  0  0  0  0  0  0  0  0
   45.1820   36.3490   44.7340 N   0  0  0  0  0  0  0  0  0  0  0  0
   44.8560   36.6910   41.3930 H   0  0  0  0  0  0  0  0  0  0  0  0
   44.2320   34.3290   41.6600 H   0  0  0  0  0  0  0  0  0  0  0  0
   45.5500   38.2570   43.4280 O   0  0  0  0  0  0  0  0  0  0  0  0
   45.1800   38.9210   45.7210 C   0  0  0  0  0  3  0  0  0  0  0  0
   45.2390   39.2200   44.3700 C   0  0  0  0  0  0  0  0  0  0  0  0
   44.9990   40.4770   43.8320 C   0  0  0  0  0  0  0  0  0  0  0  0
   45.0480   40.6930   42.7890 H   0  0  0  0  0  0  0  0  0  0  0  0
   44.6800   41.5020   44.7170 C   0  0  0  0  0  0  0  0  0  0  0  0
   44.3970   42.8130   44.5080 N   0  0  0  0  0  0  0  0  0  0  0  0
   44.1570   43.3530   45.7230 C   0  0  0  0  0  0  0  0  0  0  0  0
   43.9020   44.3900   45.8970 H   0  0  0  0  0  0  0  0  0  0  0  0
   44.2840   42.4150   46.6720 N   0  0  0  0  0  0  0  0  0  0  0  0
   44.6080   41.2530   46.0720 C   0  0  0  0  0  0  0  0  0  0  0  0
   44.8560   39.9770   46.5720 C   0  0  0  0  0  3  0  0  0  0  0  0
   44.3880   43.2390   43.5640 H   0  0  0  0  0  0  0  0  0  0  0  0
  2  1  2  1  0  0  0
  2  5  1  0  0  0  0
  3  2  1  0  0  0  0
  4  3  1  0  0  0  0
  5  7  1  0  0  0  0
  6 11  1  6  0  0  0
  6  7  1  0  0  0  0
  6 17  1  0  0  0  0
  7 12  1  1  0  0  0
  8 14  1  0  0  0  0
  8  7  1  0  0  0  0
  9  8  1  0  0  0  0
  9 10  1  0  0  0  0
 10  6  1  0  0  0  0
 10 15  1  0  0  0  0
 13  8  1  0  0  0  0
 16 10  1  0  0  0  0
 17 18  1  0  0  0  0
 18 21  1  0  0  0  0
 19 18  1  0  0  0  0
 20 18  1  0  0  0  0
 21 22  1  0  0  0  0
 21 23  1  0  0  0  0
 24 21  1  0  0  0  0
 25  2  1  0  0  0  0
 26 31  1  0  0  0  0
 27 28  1  0  0  0  0
 27 26  2  0  0  0  0
 28 29  2  0  0  0  0
 29 30  1  0  0  0  0
 30 25  1  0  0  0  0
 31 30  2  0  0  0  0
 32 27  1  0  0  0  0
 33 28  1  0  0  0  0
 34 26  1  0  0  0  0
 34 36  1  0  0  0  0
 35 45  1  0  0  0  0
 36 35  2  0  0  0  0
 37 36  1  0  0  0  0
 37 39  2  0  0  0  0
 38 37  1  0  0  0  0
 39 44  1  0  0  0  0
 40 39  1  0  0  0  0
 40 41  1  0  0  0  0
 41 42  1  0  0  0  0
 41 43  2  0  0  0  0
 44 45  2  0  0  0  0
 44 43  1  0  0  0  0
 46 40  1  0  0  0  0
M  END
>  <minimizedAffinity>
-3.50820279

>  <minimizedRMSD>
0.923584878

$$$$
