REMARK  Name = 
REMARK  2 active torsions:
REMARK  status: ('A' for Active; 'I' for Inactive)
REMARK    1  A    between atoms: C_3  and  N_9
REMARK    2  A    between atoms: C_7  and  C_15
REMARK                            x       y       z     vdW  Elec       q    Type
REMARK                         _______ _______ _______ _____ _____    ______ ____
ROOT
ATOM      1  C   UNL     1      46.395  34.185  40.795  0.00  0.00    +0.000 C 
ATOM      2  O   UNL     1      45.223  33.738  40.930  0.00  0.00    +0.000 OA
ATOM      3  N   UNL     1      46.878  34.867  41.941  0.00  0.00    +0.000 N 
ATOM      4  H   UNL     1      47.804  35.346  41.940  0.00  0.00    +0.000 HD
ENDROOT
BRANCH   1   6
ATOM      5  C   UNL     1      47.706  35.074  38.836  0.00  0.00    +0.000 A 
ATOM      6  C   UNL     1      47.205  34.034  39.591  0.00  0.00    +0.000 A 
ATOM      7  C   UNL     1      47.498  32.747  39.167  0.00  0.00    +0.000 A 
ATOM      8  H   UNL     1      47.177  31.834  39.654  0.00  0.00    +0.000 HD
ATOM      9  C   UNL     1      48.266  32.511  38.026  0.00  0.00    +0.000 A 
ATOM     10  N   UNL     1      48.724  31.445  37.355  0.00  0.00    +0.000 N 
ATOM     11  C   UNL     1      49.438  31.840  36.288  0.00  0.00    +0.000 A 
ATOM     12  H   UNL     1      49.946  31.235  35.539  0.00  0.00    +0.000 HD
ATOM     13  N   UNL     1      49.469  33.193  36.229  0.00  0.00    +0.000 NA
ATOM     14  C   UNL     1      48.749  33.581  37.298  0.00  0.00    +0.000 A 
ATOM     15  C   UNL     1      48.465  34.864  37.709  0.00  0.00    +0.000 A 
ATOM     16  H   UNL     1      48.539  30.452  37.640  0.00  0.00    +0.000 HD
ENDBRANCH   1   6
BRANCH   3  19
ATOM     17  C   UNL     1      44.533  36.046  44.570  0.00  0.00    +0.000 A 
ATOM     18  C   UNL     1      45.252  36.003  43.356  0.00  0.00    +0.000 A 
ATOM     19  C   UNL     1      46.139  34.942  43.151  0.00  0.00    +0.000 A 
ATOM     20  N   UNL     1      46.282  34.002  44.106  0.00  0.00    +0.000 NA
ATOM     21  C   UNL     1      45.569  34.072  45.275  0.00  0.00    +0.000 A 
ATOM     22  N   UNL     1      44.714  35.087  45.482  0.00  0.00    +0.000 NA
ATOM     23  H   UNL     1      43.839  36.852  44.761  0.00  0.00    +0.000 HD
ATOM     24  H   UNL     1      45.096  36.789  42.622  0.00  0.00    +0.000 HD
ATOM     25  H   UNL     1      45.762  33.266  45.968  0.00  0.00    +0.000 HD
ENDBRANCH   3  19
TORSDOF 2
