
 OpenBabel03252503323D

 44 47  0  0  1  0  0  0  0  0999 V2000
   45.3960   33.8310   41.8630 C   0  0  0  0  0  0  0  0  0  0  0  0
   46.4080   34.7720   41.5160 C   0  0  0  0  0  0  0  0  0  0  0  0
   47.7330   34.3860   41.7970 C   0  0  0  0  0  0  0  0  0  0  0  0
   47.9360   33.1840   42.3580 N   0  0  0  0  0  0  0  0  0  0  0  0
   46.9430   32.3270   42.6680 C   0  0  0  0  0  0  0  0  0  0  0  0
   45.6610   32.6620   42.4140 N   0  0  0  0  0  0  0  0  0  0  0  0
   43.7100   34.0310   40.2410 C   0  0  0  0  0  0  0  0  0  0  0  0
   44.6410   33.7210   39.4200 O   0  0  0  0  0  0  0  0  0  0  0  0
   44.0190   34.1460   41.6110 N   0  0  0  0  0  0  0  0  0  0  0  0
   42.4160   34.2380   39.7050 N   0  0  0  0  0  0  0  0  0  0  0  0
   42.2540   34.4180   38.2500 C   0  0  0  0  0  0  0  0  0  0  0  0
   41.0640   35.3240   38.1710 C   0  0  0  0  0  0  0  0  0  0  0  0
   40.5800   35.5000   39.5800 C   0  0  0  0  0  0  0  0  0  0  0  0
   41.1180   34.2940   40.3120 C   0  0  1  0  0  0  0  0  0  0  0  0
   46.0750   35.7050   41.0660 H   0  0  0  0  0  0  0  0  0  0  0  0
   47.1620   31.3660   43.1220 H   0  0  0  0  0  0  0  0  0  0  0  0
   43.2600   34.4330   42.2770 H   0  0  0  0  0  0  0  0  0  0  0  0
   41.9880   33.4620   37.7490 H   0  0  0  0  0  0  0  0  0  0  0  0
   43.1160   34.9310   37.7990 H   0  0  0  0  0  0  0  0  0  0  0  0
   41.2750   36.2890   37.6690 H   0  0  0  0  0  0  0  0  0  0  0  0
   40.2040   34.8590   37.6090 H   0  0  0  0  0  0  0  0  0  0  0  0
   41.3040   36.3040   39.9640 H   0  0  0  0  0  0  0  0  0  0  0  0
   39.6530   35.9290   39.7760 H   0  0  0  0  0  0  0  0  0  0  0  0
   41.0370   34.5650   41.3690 H   0  0  0  0  0  0  0  0  0  0  0  0
   38.9860   32.8530   40.2650 C   0  0  0  0  0  0  0  0  0  0  0  0
   38.4290   33.9470   40.5020 O   0  0  0  0  0  0  0  0  0  0  0  0
   40.4040   33.0500   40.0580 N   0  0  0  0  0  0  0  0  0  0  0  0
   40.9910   32.2370   39.6940 H   0  0  0  0  0  0  0  0  0  0  0  0
   37.6550   30.9440   41.2320 C   0  0  0  0  0  3  0  0  0  0  0  0
   38.3650   31.5640   40.1970 C   0  0  0  0  0  0  0  0  0  0  0  0
   38.5110   30.9160   38.9800 C   0  0  0  0  0  0  0  0  0  0  0  0
   39.0480   31.3400   38.1410 H   0  0  0  0  0  0  0  0  0  0  0  0
   37.9690   29.6540   38.7440 C   0  0  0  0  0  0  0  0  0  0  0  0
   37.9510   28.8060   37.6870 N   0  0  0  0  0  0  0  0  0  0  0  0
   37.2480   27.7190   38.1010 C   0  0  0  0  0  0  0  0  0  0  0  0
   37.0330   26.8340   37.5070 H   0  0  0  0  0  0  0  0  0  0  0  0
   36.8340   27.8770   39.3740 N   0  0  0  0  0  0  0  0  0  0  0  0
   37.2740   29.0640   39.7770 C   0  0  0  0  0  0  0  0  0  0  0  0
   37.1150   29.6860   40.9940 C   0  0  0  0  0  3  0  0  0  0  0  0
   38.3990   28.9850   36.7630 H   0  0  0  0  0  0  0  0  0  0  0  0
   48.7480   35.3730   41.4310 C   0  0  0  0  0  0  0  0  0  0  0  0
   49.9900   34.9190   41.8660 F   0  0  0  0  0  0  0  0  0  0  0  0
   48.4830   36.5210   42.1950 F   0  0  0  0  0  0  0  0  0  0  0  0
   48.8160   35.6320   40.0960 F   0  0  0  0  0  0  0  0  0  0  0  0
  1  6  1  0  0  0  0
  2  3  1  0  0  0  0
  2  1  2  0  0  0  0
  3  4  2  0  0  0  0
  4  5  1  0  0  0  0
  5 16  1  0  0  0  0
  6  5  2  0  0  0  0
  7  9  1  0  0  0  0
  8  7  2  0  0  0  0
  9  1  1  0  0  0  0
  9 17  1  0  0  0  0
 10  7  1  0  0  0  0
 10 14  1  0  0  0  0
 11 10  1  0  0  0  0
 12 11  1  0  0  0  0
 12 13  1  0  0  0  0
 13 23  1  0  0  0  0
 13 22  1  0  0  0  0
 13 14  1  0  0  0  0
 14 24  1  1  0  0  0
 15  2  1  0  0  0  0
 18 11  1  0  0  0  0
 19 11  1  0  0  0  0
 20 12  1  0  0  0  0
 21 12  1  0  0  0  0
 25 26  2  0  0  0  0
 27 25  1  0  0  0  0
 27 14  1  0  0  0  0
 28 27  1  0  0  0  0
 30 25  1  0  0  0  0
 30 29  2  0  0  0  0
 31 30  1  0  0  0  0
 32 31  1  0  0  0  0
 33 31  2  0  0  0  0
 33 38  1  0  0  0  0
 34 35  1  0  0  0  0
 34 33  1  0  0  0  0
 35 37  2  0  0  0  0
 36 35  1  0  0  0  0
 37 38  1  0  0  0  0
 38 39  2  0  0  0  0
 39 29  1  0  0  0  0
 40 34  1  0  0  0  0
 41  3  1  0  0  0  0
 41 42  1  0  0  0  0
 41 43  1  0  0  0  0
 44 41  1  0  0  0  0
M  END
>  <minimizedAffinity>
-7.06758785

>  <minimizedRMSD>
1.65799546

$$$$
