
     RDKit          3D

 26 28  0  0  0  0  0  0  0  0999 V2000
   44.5613   36.0110   44.4925 C   0  0  0  0  0  0  0  0  0  0  0  0
   45.3087   35.9165   43.2982 C   0  0  0  0  0  0  0  0  0  0  0  0
   46.1925   34.8592   43.1724 C   0  0  0  0  0  0  0  0  0  0  0  0
   46.3036   33.9626   44.1956 N   0  0  0  0  0  0  0  0  0  0  0  0
   45.5698   34.0896   45.3218 C   0  0  0  0  0  0  0  0  0  0  0  0
   44.7085   35.0992   45.4726 N   0  0  0  0  0  0  0  0  0  0  0  0
   46.9576   34.7769   41.9299 C   0  0  0  0  0  0  0  0  0  0  0  0
   43.8574   36.8185   44.6398 H   0  0  0  0  0  0  0  0  0  0  0  0
   45.1457   36.6734   42.5568 H   0  0  0  0  0  0  0  0  0  0  0  0
   45.7008   33.3365   46.1144 H   0  0  0  0  0  0  0  0  0  0  0  0
   47.2435   35.7679   41.5479 H   0  0  0  0  0  0  0  0  0  0  0  0
   47.9154   34.2576   42.1530 H   0  0  0  0  0  0  0  0  0  0  0  0
   45.9978   34.6251   39.6731 C   0  0  0  0  0  0  0  0  0  0  0  0
   46.2911   33.9868   40.8597 C   0  0  0  0  0  0  0  0  0  0  0  0
   45.9698   32.6559   41.0334 C   0  0  0  0  0  0  0  0  0  0  0  0
   46.1976   32.1395   41.9703 H   0  0  0  0  0  0  0  0  0  0  0  0
   45.3508   31.9406   40.0263 C   0  0  0  0  0  0  0  0  0  0  0  0
   44.9250   30.6528   39.9110 N   0  0  0  0  0  0  0  0  0  0  0  0
   44.3871   30.5470   38.6612 C   0  0  0  0  0  0  0  0  0  0  0  0
   43.9602   29.6304   38.2738 H   0  0  0  0  0  0  0  0  0  0  0  0
   44.4743   31.7332   38.0154 N   0  0  0  0  0  0  0  0  0  0  0  0
   45.0699   32.5920   38.8605 C   0  0  0  0  0  0  0  0  0  0  0  0
   45.3741   33.9299   38.6396 C   0  0  0  0  0  0  0  0  0  0  0  0
   46.2455   35.6779   39.5197 H   0  0  0  0  0  0  0  0  0  0  0  0
   45.0033   29.9102   40.6431 H   0  0  0  0  0  0  0  0  0  0  0  0
   45.1458   34.4374   37.7080 H   0  0  0  0  0  0  0  0  0  0  0  0
  1  6  2  0
  2  1  1  0
  3  2  2  0
  3  4  1  0
  4  5  2  0
  5  6  1  0
  7  3  1  0
  1  8  1  0
  2  9  1  0
  5 10  1  0
  7 11  1  0
  7 12  1  0
 13 14  2  0
 14 15  1  0
 15 16  1  0
 15 17  2  0
 17 18  1  0
 18 19  1  0
 19 20  1  0
 19 21  2  0
 21 22  1  0
 22 23  2  0
 23 13  1  0
 22 17  1  0
 13 24  1  0
 18 25  1  0
 23 26  1  0
  7 14  1  0
M  ISO  7   8  14   9  14  10  14  11   8  12   8  16  15  20  14
M  END
>  <DihAtoms>  (1) 
2,6,13,12

>  <DihDeg>  (1) 
90.0027615512253

$$$$
