
 OpenBabel03252503273D

 28 30  0  0  0  0  0  0  0  0999 V2000
   45.2090   34.5230   42.7250 C   0  0  0  0  0  0  0  0  0  0  0  0
   46.2330   34.9830   41.8910 C   0  0  0  0  0  0  0  0  0  0  0  0
   47.5550   34.7470   42.3430 C   0  0  0  0  0  0  0  0  0  0  0  0
   47.7150   34.1030   43.5310 N   0  0  0  0  0  0  0  0  0  0  0  0
   46.6820   33.6870   44.2850 C   0  0  0  0  0  0  0  0  0  0  0  0
   45.4210   33.8950   43.8860 N   0  0  0  0  0  0  0  0  0  0  0  0
   43.4430   33.8160   41.3180 C   0  0  0  0  0  0  0  0  0  0  0  0
   44.3280   33.0010   40.8850 O   0  0  0  0  0  0  0  0  0  0  0  0
   43.8430   34.7220   42.3400 N   0  0  0  0  0  0  0  0  0  0  0  0
   45.9380   35.4750   40.9810 H   0  0  0  0  0  0  0  0  0  0  0  0
   46.9390   33.1860   45.2120 H   0  0  0  0  0  0  0  0  0  0  0  0
   43.2110   35.4190   42.7330 H   0  0  0  0  0  0  0  0  0  0  0  0
   40.9380   33.5950   41.5380 C   0  0  0  0  0  3  0  0  0  0  0  0
   42.0800   33.8230   40.7900 C   0  0  0  0  0  0  0  0  0  0  0  0
   41.9110   34.0760   39.4550 C   0  0  0  0  0  0  0  0  0  0  0  0
   42.7630   34.2580   38.8380 H   0  0  0  0  0  0  0  0  0  0  0  0
   40.6460   34.1020   38.8630 C   0  0  0  0  0  0  0  0  0  0  0  0
   40.2120   34.3220   37.5960 N   0  0  0  0  0  0  0  0  0  0  0  0
   38.8530   34.2270   37.5820 C   0  0  0  0  0  0  0  0  0  0  0  0
   38.1780   34.3470   36.7320 H   0  0  0  0  0  0  0  0  0  0  0  0
   38.4310   33.9520   38.8270 N   0  0  0  0  0  0  0  0  0  0  0  0
   39.5110   33.8720   39.6230 C   0  0  0  0  0  0  0  0  0  0  0  0
   39.6820   33.6170   40.9690 C   0  0  0  0  0  3  0  0  0  0  0  0
   40.8130   34.5290   36.7600 H   0  0  0  0  0  0  0  0  0  0  0  0
   48.6020   35.2360   41.4560 C   0  0  0  0  0  0  0  0  0  0  0  0
   49.7510   34.4570   41.6570 F   0  0  0  0  0  0  0  0  0  0  0  0
   48.9450   36.5080   41.8860 F   0  0  0  0  0  0  0  0  0  0  0  0
   48.2880   35.1510   40.1360 F   0  0  0  0  0  0  0  0  0  0  0  0
  1  6  1  0  0  0  0
  2  3  1  0  0  0  0
  2  1  2  0  0  0  0
  3  4  2  0  0  0  0
  4  5  1  0  0  0  0
  5 11  1  0  0  0  0
  6  5  2  0  0  0  0
  7  9  1  0  0  0  0
  8  7  2  0  0  0  0
  9  1  1  0  0  0  0
  9 12  1  0  0  0  0
 10  2  1  0  0  0  0
 14  7  1  0  0  0  0
 14 13  2  0  0  0  0
 15 14  1  0  0  0  0
 16 15  1  0  0  0  0
 17 15  2  0  0  0  0
 17 22  1  0  0  0  0
 18 17  1  0  0  0  0
 19 18  1  0  0  0  0
 19 21  2  0  0  0  0
 20 19  1  0  0  0  0
 21 22  1  0  0  0  0
 22 23  2  0  0  0  0
 23 13  1  0  0  0  0
 24 18  1  0  0  0  0
 25 26  1  0  0  0  0
 25 27  1  0  0  0  0
 25  3  1  0  0  0  0
 28 25  1  0  0  0  0
M  END
>  <minimizedAffinity>
-6.41677475

>  <minimizedRMSD>
2.3265295

$$$$
