
 OpenBabel03252502363D

 27 29  0  0  1  0  0  0  0  0999 V2000
   45.1950   34.8280   42.8380 C   0  0  2  0  0  0  0  0  0  0  0  0
   44.2580   34.4440   42.4150 H   0  0  0  0  0  0  0  0  0  0  0  0
   45.1550   34.4600   45.3240 C   0  0  0  0  0  0  0  0  0  0  0  0
   45.5500   34.0680   44.0630 C   0  0  0  0  0  0  0  0  0  0  0  0
   46.3150   32.8960   44.0030 C   0  0  0  0  0  0  0  0  0  0  0  0
   46.6450   32.5520   43.0450 H   0  0  0  0  0  0  0  0  0  0  0  0
   46.6450   32.1900   45.1320 C   0  0  0  0  0  0  0  0  0  0  0  0
   47.3650   31.0470   45.3020 N   0  0  0  0  0  0  0  0  0  0  0  0
   47.3910   30.7760   46.6290 C   0  0  0  0  0  0  0  0  0  0  0  0
   47.8970   29.9220   47.0520 H   0  0  0  0  0  0  0  0  0  0  0  0
   46.6900   31.7460   47.2820 N   0  0  0  0  0  0  0  0  0  0  0  0
   46.2130   32.6400   46.3710 C   0  0  0  0  0  0  0  0  0  0  0  0
   45.4530   33.7960   46.4940 C   0  0  0  0  0  0  0  0  0  0  0  0
   47.8100   30.4960   44.5120 H   0  0  0  0  0  0  0  0  0  0  0  0
   45.9900   33.9700   40.6800 C   0  0  0  0  0  0  0  0  0  0  0  0
   46.2730   34.6980   41.8610 C   0  0  0  0  0  0  0  0  0  0  0  0
   47.5560   35.2390   42.0060 C   0  0  0  0  0  0  0  0  0  0  0  0
   48.4470   35.0320   41.0040 N   0  0  0  0  0  0  0  0  0  0  0  0
   48.1390   34.3390   39.9050 C   0  0  0  0  0  0  0  0  0  0  0  0
   46.9220   33.8100   39.7400 N   0  0  0  0  0  0  0  0  0  0  0  0
   45.0470   33.5010   40.4390 H   0  0  0  0  0  0  0  0  0  0  0  0
   47.7570   35.7930   42.9150 H   0  0  0  0  0  0  0  0  0  0  0  0
   48.9060   34.2070   39.1320 H   0  0  0  0  0  0  0  0  0  0  0  0
   45.0680   36.3160   43.1520 C   0  0  0  0  0  0  0  0  0  0  0  0
   44.6400   36.7910   42.2370 H   0  0  0  0  0  0  0  0  0  0  0  0
   44.4850   36.5100   44.0650 H   0  0  0  0  0  0  0  0  0  0  0  0
   46.1150   36.6940   43.2170 H   0  0  0  0  0  0  0  0  0  0  0  0
  1  2  1  6  0  0  0
  1 24  1  0  0  0  0
  1  4  1  0  0  0  0
  3 13  1  0  0  0  0
  4  3  2  0  0  0  0
  5  4  1  0  0  0  0
  5  7  2  0  0  0  0
  6  5  1  0  0  0  0
  7  8  1  0  0  0  0
  7 12  1  0  0  0  0
  8  9  1  0  0  0  0
  9 10  1  0  0  0  0
  9 11  2  0  0  0  0
 12 13  2  0  0  0  0
 12 11  1  0  0  0  0
 14  8  1  0  0  0  0
 15 16  1  0  0  0  0
 16 17  2  0  0  0  0
 16  1  1  0  0  0  0
 17 22  1  0  0  0  0
 18 17  1  0  0  0  0
 19 18  2  0  0  0  0
 20 19  1  0  0  0  0
 20 15  2  0  0  0  0
 21 15  1  0  0  0  0
 23 19  1  0  0  0  0
 24 27  1  0  0  0  0
 24 26  1  0  0  0  0
 25 24  1  0  0  0  0
M  END
>  <minimizedAffinity>
-4.73740911

>  <minimizedRMSD>
6.42853498

$$$$
