
 OpenBabel03252509043D

 51 54  0  0  1  0  0  0  0  0999 V2000
   46.7970   34.3320   43.5600 N   0  0  0  0  0  0  0  0  0  0  0  0
   46.4770   34.9740   42.3430 C   0  0  0  0  0  0  0  0  0  0  0  0
   44.9960   34.9830   42.0120 C   0  0  0  0  0  0  0  0  0  0  0  0
   44.1060   35.1330   43.2150 C   0  0  0  0  0  0  0  0  0  0  0  0
   44.9030   35.2780   44.4910 C   0  0  0  0  0  0  0  0  0  0  0  0
   45.8430   34.0100   44.4910 C   0  0  2  0  0  0  0  0  0  0  0  0
   46.9870   34.6070   41.4470 H   0  0  0  0  0  0  0  0  0  0  0  0
   46.7770   36.0570   42.4230 H   0  0  0  0  0  0  0  0  0  0  0  0
   44.7000   34.0550   41.4600 H   0  0  0  0  0  0  0  0  0  0  0  0
   44.7810   35.8170   41.3090 H   0  0  0  0  0  0  0  0  0  0  0  0
   43.4520   36.0500   43.1390 H   0  0  0  0  0  0  0  0  0  0  0  0
   43.4030   34.2860   43.3470 H   0  0  0  0  0  0  0  0  0  0  0  0
   45.5120   36.1910   44.5180 H   0  0  0  0  0  0  0  0  0  0  0  0
   44.2390   35.1310   45.3570 H   0  0  0  0  0  0  0  0  0  0  0  0
   45.1810   33.1490   44.2830 H   0  0  0  0  0  0  0  0  0  0  0  0
   48.0150   33.5580   43.5170 C   0  0  0  0  0  0  0  0  0  0  0  0
   48.7630   34.1900   42.9910 H   0  0  0  0  0  0  0  0  0  0  0  0
   48.4620   33.3680   44.5220 H   0  0  0  0  0  0  0  0  0  0  0  0
   47.7440   32.3240   42.7210 C   0  0  0  0  0  0  0  0  0  0  0  0
   47.5910   31.4610   43.3680 H   0  0  0  0  0  0  0  0  0  0  0  0
   46.8250   32.4280   42.0860 H   0  0  0  0  0  0  0  0  0  0  0  0
   51.2350   32.1030   41.3510 C   0  0  0  0  0  0  0  0  0  0  0  0
   50.1540   32.3270   42.2250 C   0  0  0  0  0  0  0  0  0  0  0  0
   48.8760   32.0830   41.7880 C   0  0  0  0  0  0  0  0  0  0  0  0
   48.7230   31.6390   40.5380 N   0  0  0  0  0  0  0  0  0  0  0  0
   49.7530   31.4270   39.7090 C   0  0  0  0  0  0  0  0  0  0  0  0
   51.0130   31.6520   40.0920 N   0  0  0  0  0  0  0  0  0  0  0  0
   52.2490   32.2920   41.6810 H   0  0  0  0  0  0  0  0  0  0  0  0
   50.3790   32.6890   43.2200 H   0  0  0  0  0  0  0  0  0  0  0  0
   49.4500   31.0670   38.7320 H   0  0  0  0  0  0  0  0  0  0  0  0
   46.3170   34.0320   45.7890 O   0  0  0  0  0  0  0  0  0  0  0  0
   45.5980   31.4710   45.6370 O   0  0  0  0  0  0  0  0  0  0  0  0
   46.0820   32.5640   46.5860 P   0  0  2  0  0  0  0  0  0  0  0  0
   44.7640   32.8290   47.6530 O   0  0  0  0  0  0  0  0  0  0  0  0
   44.1920   32.0440   47.7150 H   0  0  0  0  0  0  0  0  0  0  0  0
   47.3770   32.0870   47.5020 O   0  0  0  0  0  0  0  0  0  0  0  0
   47.6860   30.7700   47.2040 C   0  0  0  0  0  0  0  0  0  0  0  0
   46.7540   30.1880   47.2760 H   0  0  0  0  0  0  0  0  0  0  0  0
   48.1670   30.6340   46.2320 H   0  0  0  0  0  0  0  0  0  0  0  0
   49.1330   29.0170   48.3110 C   0  0  0  0  0  3  0  0  0  0  0  0
   48.6480   30.3100   48.2650 C   0  0  0  0  0  0  0  0  0  0  0  0
   49.0370   31.2550   49.2150 C   0  0  0  0  0  0  0  0  0  0  0  0
   48.6490   32.2810   49.1730 H   0  0  0  0  0  0  0  0  0  0  0  0
   49.9140   30.8960   50.2100 C   0  0  0  0  0  0  0  0  0  0  0  0
   50.4080   31.6540   51.2120 N   0  0  0  0  0  0  0  0  0  0  0  0
   51.2290   30.8630   51.9350 C   0  0  0  0  0  0  0  0  0  0  0  0
   51.7880   31.1520   52.8080 H   0  0  0  0  0  0  0  0  0  0  0  0
   51.2290   29.6230   51.3630 N   0  0  0  0  0  0  0  0  0  0  0  0
   50.4220   29.6120   50.2910 C   0  0  0  0  0  0  0  0  0  0  0  0
   50.0240   28.6860   49.3370 C   0  0  0  0  0  3  0  0  0  0  0  0
   50.2470   32.6620   51.4640 H   0  0  0  0  0  0  0  0  0  0  0  0
  1  6  1  0  0  0  0
  2  8  1  0  0  0  0
  2  1  1  0  0  0  0
  3  2  1  0  0  0  0
  3  4  1  0  0  0  0
  4 12  1  0  0  0  0
  4  5  1  0  0  0  0
  5 13  1  0  0  0  0
  5 14  1  0  0  0  0
  6 15  1  6  0  0  0
  6  5  1  0  0  0  0
  6 31  1  0  0  0  0
  7  2  1  0  0  0  0
  9  3  1  0  0  0  0
 10  3  1  0  0  0  0
 11  4  1  0  0  0  0
 16  1  1  0  0  0  0
 16 18  1  0  0  0  0
 17 16  1  0  0  0  0
 19 20  1  0  0  0  0
 19 16  1  0  0  0  0
 21 19  1  0  0  0  0
 22 28  1  0  0  0  0
 22 23  1  0  0  0  0
 23 29  1  0  0  0  0
 24 23  2  0  0  0  0
 24 19  1  0  0  0  0
 25 24  1  0  0  0  0
 26 27  1  0  0  0  0
 26 25  2  0  0  0  0
 27 22  2  0  0  0  0
 30 26  1  0  0  0  0
 31 33  1  0  0  0  0
 33 32  2  6  0  0  0
 33 36  1  0  0  0  0
 33 34  1  0  0  0  0
 34 35  1  0  0  0  0
 37 38  1  0  0  0  0
 37 36  1  0  0  0  0
 37 41  1  0  0  0  0
 39 37  1  0  0  0  0
 40 50  1  0  0  0  0
 41 40  2  0  0  0  0
 41 42  1  0  0  0  0
 42 44  2  0  0  0  0
 43 42  1  0  0  0  0
 44 49  1  0  0  0  0
 44 45  1  0  0  0  0
 45 51  1  0  0  0  0
 45 46  1  0  0  0  0
 46 47  1  0  0  0  0
 48 46  2  0  0  0  0
 49 48  1  0  0  0  0
 50 49  2  0  0  0  0
M  END
>  <minimizedAffinity>
-5.65750408

>  <minimizedRMSD>
3.14101577

$$$$
