
 OpenBabel03242519123D

 50 54  0  0  1  0  0  0  0  0999 V2000
   39.3480   31.5580   39.2450 C   0  0  0  0  0  0  0  0  0  0  0  0
   39.4250   32.9670   39.2190 C   0  0  0  0  0  0  0  0  0  0  0  0
   38.2500   33.5780   39.5470 C   0  0  0  0  0  0  0  0  0  0  0  0
   37.0770   32.9660   39.8780 C   0  0  0  0  0  0  0  0  0  0  0  0
   37.0440   31.5900   39.8920 C   0  0  0  0  0  0  0  0  0  0  0  0
   38.1920   30.9090   39.5720 C   0  0  0  0  0  0  0  0  0  0  0  0
   38.2440   34.6710   39.5450 H   0  0  0  0  0  0  0  0  0  0  0  0
   36.1740   33.5120   40.1300 H   0  0  0  0  0  0  0  0  0  0  0  0
   36.1310   31.0600   40.1490 H   0  0  0  0  0  0  0  0  0  0  0  0
   38.0760   28.8090   40.8370 C   0  0  0  0  0  0  0  0  0  0  0  0
   38.1250   29.4690   41.9160 O   0  0  0  0  0  0  0  0  0  0  0  0
   38.1210   29.4820   39.5960 N   0  0  0  0  0  0  0  0  0  0  0  0
   38.1020   28.9520   38.7120 H   0  0  0  0  0  0  0  0  0  0  0  0
   37.2050   26.8440   41.9800 C   0  0  0  0  0  3  0  0  0  0  0  0
   37.9770   27.3600   40.9600 C   0  0  0  0  0  0  0  0  0  0  0  0
   38.6160   26.4900   40.1010 C   0  0  0  0  0  0  0  0  0  0  0  0
   39.2260   26.8730   39.2940 H   0  0  0  0  0  0  0  0  0  0  0  0
   38.4710   25.1140   40.2850 C   0  0  0  0  0  0  0  0  0  0  0  0
   39.0120   24.1140   39.5580 N   0  0  0  0  0  0  0  0  0  0  0  0
   38.5610   22.9750   40.1480 C   0  0  0  0  0  0  0  0  0  0  0  0
   38.8080   21.9800   39.8130 H   0  0  0  0  0  0  0  0  0  0  0  0
   37.7720   23.2970   41.1990 N   0  0  0  0  0  0  0  0  0  0  0  0
   37.6930   24.6300   41.3150 C   0  0  0  0  0  0  0  0  0  0  0  0
   37.0390   25.4710   42.1910 C   0  0  0  0  0  3  0  0  0  0  0  0
   39.6370   24.1960   38.7270 H   0  0  0  0  0  0  0  0  0  0  0  0
   40.5940   33.6810   38.8900 N   0  0  0  0  0  0  0  0  0  0  0  0
   40.8940   33.3820   37.9330 H   0  0  0  0  0  0  0  0  0  0  0  0
   42.0270   35.6140   41.5110 N   0  0  0  0  0  0  0  0  0  0  0  0
   41.6120   34.2960   41.0310 C   0  0  0  0  0  0  0  0  0  0  0  0
   41.3610   34.6560   39.5900 C   0  0  2  0  0  0  0  0  0  0  0  0
   40.5070   35.8970   39.7360 C   0  0  0  0  0  0  0  0  0  0  0  0
   41.1020   36.5680   40.9410 C   0  0  0  0  0  0  0  0  0  0  0  0
   42.4000   33.5310   41.1630 H   0  0  0  0  0  0  0  0  0  0  0  0
   40.6540   33.9710   41.4980 H   0  0  0  0  0  0  0  0  0  0  0  0
   42.3170   34.9120   39.0890 H   0  0  0  0  0  0  0  0  0  0  0  0
   40.7070   36.5740   38.8670 H   0  0  0  0  0  0  0  0  0  0  0  0
   39.4410   35.6720   39.8440 H   0  0  0  0  0  0  0  0  0  0  0  0
   41.5670   37.5370   40.7170 H   0  0  0  0  0  0  0  0  0  0  0  0
   40.2490   36.7650   41.6500 H   0  0  0  0  0  0  0  0  0  0  0  0
   45.3790   36.0090   43.0870 C   0  0  0  0  0  0  0  0  0  0  0  0
   44.4170   35.5900   42.1840 C   0  0  0  0  0  0  0  0  0  0  0  0
   43.0920   35.9730   42.3540 C   0  0  0  0  0  0  0  0  0  0  0  0
   42.8160   36.7640   43.4350 N   0  0  0  0  0  0  0  0  0  0  0  0
   43.7450   37.1710   44.3080 C   0  0  0  0  0  0  0  0  0  0  0  0
   45.0290   36.7940   44.1350 N   0  0  0  0  0  0  0  0  0  0  0  0
   46.4100   35.7090   42.9520 H   0  0  0  0  0  0  0  0  0  0  0  0
   44.6440   34.9600   41.3280 H   0  0  0  0  0  0  0  0  0  0  0  0
   43.3850   37.7940   45.1170 H   0  0  0  0  0  0  0  0  0  0  0  0
   41.5320   30.2540   38.6510 N   0  0  0  0  0  0  0  0  0  0  0  0
   40.5660   30.8270   38.9060 C   0  0  0  0  0  0  0  0  0  0  0  0
  1  6  1  0  0  0  0
  2  1  2  0  0  0  0
  2  3  1  0  0  0  0
  3  4  2  0  0  0  0
  4  5  1  0  0  0  0
  4  8  1  0  0  0  0
  5  9  1  0  0  0  0
  6 12  1  0  0  0  0
  6  5  2  0  0  0  0
  7  3  1  0  0  0  0
 10 15  1  0  0  0  0
 10 11  2  0  0  0  0
 12 10  1  0  0  0  0
 13 12  1  0  0  0  0
 14 24  1  0  0  0  0
 15 14  2  0  0  0  0
 16 18  2  0  0  0  0
 16 15  1  0  0  0  0
 17 16  1  0  0  0  0
 18 23  1  0  0  0  0
 19 20  1  0  0  0  0
 19 18  1  0  0  0  0
 20 22  2  0  0  0  0
 21 20  1  0  0  0  0
 22 23  1  0  0  0  0
 23 24  2  0  0  0  0
 25 19  1  0  0  0  0
 26  2  1  0  0  0  0
 26 30  1  0  0  0  0
 27 26  1  0  0  0  0
 28 42  1  0  0  0  0
 29 33  1  0  0  0  0
 29 34  1  0  0  0  0
 29 28  1  0  0  0  0
 30 35  1  6  0  0  0
 30 31  1  0  0  0  0
 30 29  1  0  0  0  0
 31 37  1  0  0  0  0
 31 32  1  0  0  0  0
 32 28  1  0  0  0  0
 32 39  1  0  0  0  0
 36 31  1  0  0  0  0
 38 32  1  0  0  0  0
 40 45  1  0  0  0  0
 41 42  1  0  0  0  0
 41 40  2  0  0  0  0
 42 43  2  0  0  0  0
 43 44  1  0  0  0  0
 44 48  1  0  0  0  0
 45 44  2  0  0  0  0
 46 40  1  0  0  0  0
 47 41  1  0  0  0  0
 49 50  3  0  0  0  0
 50  1  1  0  0  0  0
M  END
>  <minimizedAffinity>
-7.11093998

$$$$

 OpenBabel03242519123D

 50 54  0  0  1  0  0  0  0  0999 V2000
   41.3100   33.9750   39.9360 C   0  0  0  0  0  0  0  0  0  0  0  0
   42.2460   34.8740   40.4890 C   0  0  0  0  0  0  0  0  0  0  0  0
   41.6720   35.9970   41.0120 C   0  0  0  0  0  0  0  0  0  0  0  0
   40.3420   36.2950   41.0390 C   0  0  0  0  0  0  0  0  0  0  0  0
   39.4610   35.3910   40.4880 C   0  0  0  0  0  0  0  0  0  0  0  0
   39.9700   34.2390   39.9440 C   0  0  0  0  0  0  0  0  0  0  0  0
   42.3450   36.7330   41.4570 H   0  0  0  0  0  0  0  0  0  0  0  0
   39.9480   37.2080   41.4730 H   0  0  0  0  0  0  0  0  0  0  0  0
   38.3930   35.5890   40.4870 H   0  0  0  0  0  0  0  0  0  0  0  0
   38.4450   32.3340   40.2020 C   0  0  0  0  0  0  0  0  0  0  0  0
   38.7770   32.2470   41.4200 O   0  0  0  0  0  0  0  0  0  0  0  0
   39.0280   33.3230   39.3800 N   0  0  0  0  0  0  0  0  0  0  0  0
   38.7780   33.3890   38.3830 H   0  0  0  0  0  0  0  0  0  0  0  0
   36.5740   30.8370   40.6380 C   0  0  0  0  0  3  0  0  0  0  0  0
   37.4560   31.3750   39.7230 C   0  0  0  0  0  0  0  0  0  0  0  0
   37.3660   30.9900   38.4020 C   0  0  0  0  0  0  0  0  0  0  0  0
   38.0460   31.4000   37.6680 H   0  0  0  0  0  0  0  0  0  0  0  0
   36.3900   30.0660   38.0220 C   0  0  0  0  0  0  0  0  0  0  0  0
   36.1460   29.5700   36.7910 N   0  0  0  0  0  0  0  0  0  0  0  0
   35.1010   28.7170   36.9630 C   0  0  0  0  0  0  0  0  0  0  0  0
   34.6490   28.1440   36.1680 H   0  0  0  0  0  0  0  0  0  0  0  0
   34.7370   28.7110   38.2660 N   0  0  0  0  0  0  0  0  0  0  0  0
   35.5240   29.5460   38.9600 C   0  0  0  0  0  0  0  0  0  0  0  0
   35.5860   29.9100   40.2890 C   0  0  0  0  0  3  0  0  0  0  0  0
   36.6480   29.7910   35.9030 H   0  0  0  0  0  0  0  0  0  0  0  0
   43.6360   34.6450   40.5050 N   0  0  0  0  0  0  0  0  0  0  0  0
   43.9900   34.7460   39.5260 H   0  0  0  0  0  0  0  0  0  0  0  0
   45.0390   34.1330   43.7350 N   0  0  0  0  0  0  0  0  0  0  0  0
   43.8760   34.0030   42.8570 C   0  0  0  0  0  0  0  0  0  0  0  0
   44.5510   34.3280   41.5500 C   0  0  2  0  0  0  0  0  0  0  0  0
   45.3010   35.5930   41.9070 C   0  0  0  0  0  0  0  0  0  0  0  0
   45.7300   35.3330   43.3230 C   0  0  0  0  0  0  0  0  0  0  0  0
   43.4370   32.9880   42.8850 H   0  0  0  0  0  0  0  0  0  0  0  0
   43.1060   34.7790   43.0730 H   0  0  0  0  0  0  0  0  0  0  0  0
   45.2690   33.5260   41.2810 H   0  0  0  0  0  0  0  0  0  0  0  0
   46.2370   35.6390   41.2960 H   0  0  0  0  0  0  0  0  0  0  0  0
   44.6930   36.4960   41.7950 H   0  0  0  0  0  0  0  0  0  0  0  0
   46.8200   35.2640   43.4430 H   0  0  0  0  0  0  0  0  0  0  0  0
   45.3850   36.2190   43.9280 H   0  0  0  0  0  0  0  0  0  0  0  0
   46.7680   32.7530   46.7310 C   0  0  0  0  0  0  0  0  0  0  0  0
   46.4270   33.6540   45.7370 C   0  0  0  0  0  0  0  0  0  0  0  0
   45.4700   33.3110   44.7890 C   0  0  0  0  0  0  0  0  0  0  0  0
   44.9100   32.0690   44.9040 N   0  0  0  0  0  0  0  0  0  0  0  0
   45.2390   31.1970   45.8650 C   0  0  0  0  0  0  0  0  0  0  0  0
   46.1690   31.5390   46.7810 N   0  0  0  0  0  0  0  0  0  0  0  0
   47.5140   33.0230   47.4680 H   0  0  0  0  0  0  0  0  0  0  0  0
   46.8770   34.6390   45.6520 H   0  0  0  0  0  0  0  0  0  0  0  0
   44.7150   30.2490   45.8360 H   0  0  0  0  0  0  0  0  0  0  0  0
   42.2770   31.7820   38.8970 N   0  0  0  0  0  0  0  0  0  0  0  0
   41.8430   32.7460   39.3530 C   0  0  0  0  0  0  0  0  0  0  0  0
  1  6  2  0  0  0  0
  1  2  1  0  0  0  0
  2 26  1  0  0  0  0
  2  3  2  0  0  0  0
  3  4  1  0  0  0  0
  3  7  1  0  0  0  0
  4  8  1  0  0  0  0
  5  4  2  0  0  0  0
  6  5  1  0  0  0  0
  9  5  1  0  0  0  0
 10 11  2  0  0  0  0
 12  6  1  0  0  0  0
 12 10  1  0  0  0  0
 13 12  1  0  0  0  0
 15 10  1  0  0  0  0
 15 14  2  0  0  0  0
 16 15  1  0  0  0  0
 17 16  1  0  0  0  0
 18 16  2  0  0  0  0
 18 23  1  0  0  0  0
 19 20  1  0  0  0  0
 19 18  1  0  0  0  0
 20 22  2  0  0  0  0
 21 20  1  0  0  0  0
 22 23  1  0  0  0  0
 23 24  2  0  0  0  0
 24 14  1  0  0  0  0
 25 19  1  0  0  0  0
 26 30  1  0  0  0  0
 27 26  1  0  0  0  0
 28 42  1  0  0  0  0
 29 33  1  0  0  0  0
 29 34  1  0  0  0  0
 29 28  1  0  0  0  0
 30 35  1  6  0  0  0
 30 31  1  0  0  0  0
 30 29  1  0  0  0  0
 31 32  1  0  0  0  0
 32 38  1  0  0  0  0
 32 28  1  0  0  0  0
 32 39  1  0  0  0  0
 36 31  1  0  0  0  0
 37 31  1  0  0  0  0
 40 45  1  0  0  0  0
 40 46  1  0  0  0  0
 41 40  2  0  0  0  0
 42 43  2  0  0  0  0
 42 41  1  0  0  0  0
 43 44  1  0  0  0  0
 44 45  2  0  0  0  0
 47 41  1  0  0  0  0
 48 44  1  0  0  0  0
 49 50  3  0  0  0  0
 50  1  1  0  0  0  0
M  END
>  <minimizedAffinity>
-6.96508169

$$$$

 OpenBabel03242519123D

 50 54  0  0  1  0  0  0  0  0999 V2000
   40.2080   32.0600   38.7040 C   0  0  0  0  0  0  0  0  0  0  0  0
   41.0500   33.0810   38.2150 C   0  0  0  0  0  0  0  0  0  0  0  0
   42.0520   32.6160   37.4120 C   0  0  0  0  0  0  0  0  0  0  0  0
   42.2830   31.3170   37.0670 C   0  0  0  0  0  0  0  0  0  0  0  0
   41.4370   30.3510   37.5660 C   0  0  0  0  0  0  0  0  0  0  0  0
   40.4070   30.7490   38.3820 C   0  0  0  0  0  0  0  0  0  0  0  0
   42.7400   33.3570   37.0000 H   0  0  0  0  0  0  0  0  0  0  0  0
   43.0990   31.0110   36.4210 H   0  0  0  0  0  0  0  0  0  0  0  0
   41.5850   29.3040   37.3180 H   0  0  0  0  0  0  0  0  0  0  0  0
   39.8360   29.1230   40.1290 C   0  0  0  0  0  0  0  0  0  0  0  0
   40.8590   29.4820   40.7820 O   0  0  0  0  0  0  0  0  0  0  0  0
   39.5500   29.7210   38.8820 N   0  0  0  0  0  0  0  0  0  0  0  0
   38.7300   29.4210   38.3330 H   0  0  0  0  0  0  0  0  0  0  0  0
   37.8630   28.4750   41.4000 C   0  0  0  0  0  3  0  0  0  0  0  0
   39.0040   28.0870   40.7310 C   0  0  0  0  0  0  0  0  0  0  0  0
   39.3110   26.7450   40.6560 C   0  0  0  0  0  0  0  0  0  0  0  0
   40.2010   26.4180   40.1360 H   0  0  0  0  0  0  0  0  0  0  0  0
   38.4640   25.8130   41.2590 C   0  0  0  0  0  0  0  0  0  0  0  0
   38.5920   24.4700   41.2950 N   0  0  0  0  0  0  0  0  0  0  0  0
   37.5100   24.0380   41.9970 C   0  0  0  0  0  0  0  0  0  0  0  0
   37.3030   23.0020   42.2150 H   0  0  0  0  0  0  0  0  0  0  0  0
   36.7620   25.1030   42.3670 N   0  0  0  0  0  0  0  0  0  0  0  0
   37.3300   26.2330   41.9210 C   0  0  0  0  0  0  0  0  0  0  0  0
   36.9930   27.5670   42.0140 C   0  0  0  0  0  3  0  0  0  0  0  0
   39.3520   23.8910   40.8760 H   0  0  0  0  0  0  0  0  0  0  0  0
   40.8850   34.4460   38.5190 N   0  0  0  0  0  0  0  0  0  0  0  0
   40.1580   34.8330   37.8730 H   0  0  0  0  0  0  0  0  0  0  0  0
   42.1040   35.7570   41.5940 N   0  0  0  0  0  0  0  0  0  0  0  0
   41.9210   34.5880   40.7340 C   0  0  0  0  0  0  0  0  0  0  0  0
   41.4950   35.3040   39.4790 C   0  0  2  0  0  0  0  0  0  0  0  0
   40.4270   36.2330   40.0130 C   0  0  0  0  0  0  0  0  0  0  0  0
   40.9680   36.6190   41.3600 C   0  0  0  0  0  0  0  0  0  0  0  0
   42.8520   34.0030   40.6120 H   0  0  0  0  0  0  0  0  0  0  0  0
   41.0850   33.9420   41.0870 H   0  0  0  0  0  0  0  0  0  0  0  0
   42.3410   35.8950   39.0710 H   0  0  0  0  0  0  0  0  0  0  0  0
   40.4220   37.1660   39.3950 H   0  0  0  0  0  0  0  0  0  0  0  0
   39.4380   35.7660   40.0580 H   0  0  0  0  0  0  0  0  0  0  0  0
   41.2140   37.6860   41.4420 H   0  0  0  0  0  0  0  0  0  0  0  0
   40.1490   36.4090   42.1040 H   0  0  0  0  0  0  0  0  0  0  0  0
   45.3930   36.0260   43.3210 C   0  0  0  0  0  0  0  0  0  0  0  0
   44.4630   35.6620   42.3630 C   0  0  0  0  0  0  0  0  0  0  0  0
   43.1380   36.0610   42.4950 C   0  0  0  0  0  0  0  0  0  0  0  0
   42.8290   36.8100   43.5960 N   0  0  0  0  0  0  0  0  0  0  0  0
   43.7280   37.1630   44.5240 C   0  0  0  0  0  0  0  0  0  0  0  0
   45.0120   36.7710   44.3870 N   0  0  0  0  0  0  0  0  0  0  0  0
   46.4240   35.7130   43.2170 H   0  0  0  0  0  0  0  0  0  0  0  0
   44.7160   35.0650   41.4900 H   0  0  0  0  0  0  0  0  0  0  0  0
   43.3450   37.7590   45.3430 H   0  0  0  0  0  0  0  0  0  0  0  0
   38.2340   32.7980   40.2490 N   0  0  0  0  0  0  0  0  0  0  0  0
   39.1100   32.4760   39.5730 C   0  0  0  0  0  0  0  0  0  0  0  0
  1 50  1  0  0  0  0
  2 26  1  0  0  0  0
  2  1  2  0  0  0  0
  3  2  1  0  0  0  0
  4  3  2  0  0  0  0
  4  5  1  0  0  0  0
  5  6  2  0  0  0  0
  6  1  1  0  0  0  0
  6 12  1  0  0  0  0
  7  3  1  0  0  0  0
  8  4  1  0  0  0  0
  9  5  1  0  0  0  0
 10 15  1  0  0  0  0
 10 11  2  0  0  0  0
 12 10  1  0  0  0  0
 13 12  1  0  0  0  0
 14 24  1  0  0  0  0
 15 14  2  0  0  0  0
 16 15  1  0  0  0  0
 16 18  2  0  0  0  0
 17 16  1  0  0  0  0
 18 19  1  0  0  0  0
 18 23  1  0  0  0  0
 19 20  1  0  0  0  0
 20 21  1  0  0  0  0
 20 22  2  0  0  0  0
 23 24  2  0  0  0  0
 23 22  1  0  0  0  0
 25 19  1  0  0  0  0
 26 30  1  0  0  0  0
 27 26  1  0  0  0  0
 28 42  1  0  0  0  0
 29 34  1  0  0  0  0
 29 28  1  0  0  0  0
 30 35  1  6  0  0  0
 30 31  1  0  0  0  0
 30 29  1  0  0  0  0
 31 37  1  0  0  0  0
 31 32  1  0  0  0  0
 32 38  1  0  0  0  0
 32 28  1  0  0  0  0
 32 39  1  0  0  0  0
 33 29  1  0  0  0  0
 36 31  1  0  0  0  0
 40 45  1  0  0  0  0
 41 42  1  0  0  0  0
 41 40  2  0  0  0  0
 42 43  2  0  0  0  0
 43 44  1  0  0  0  0
 44 48  1  0  0  0  0
 45 44  2  0  0  0  0
 46 40  1  0  0  0  0
 47 41  1  0  0  0  0
 50 49  3  0  0  0  0
M  END
>  <minimizedAffinity>
-6.85584688

$$$$

 OpenBabel03242519123D

 50 54  0  0  1  0  0  0  0  0999 V2000
   39.5980   31.9990   39.3640 C   0  0  0  0  0  0  0  0  0  0  0  0
   38.5570   31.5330   38.5330 C   0  0  0  0  0  0  0  0  0  0  0  0
   37.4280   32.2970   38.6020 C   0  0  0  0  0  0  0  0  0  0  0  0
   37.2430   33.4110   39.3670 C   0  0  0  0  0  0  0  0  0  0  0  0
   38.2840   33.8320   40.1640 C   0  0  0  0  0  0  0  0  0  0  0  0
   39.4510   33.1090   40.1440 C   0  0  0  0  0  0  0  0  0  0  0  0
   36.5840   31.9890   37.9810 H   0  0  0  0  0  0  0  0  0  0  0  0
   36.3170   33.9770   39.3770 H   0  0  0  0  0  0  0  0  0  0  0  0
   38.1800   34.7140   40.7910 H   0  0  0  0  0  0  0  0  0  0  0  0
   41.4680   34.4710   40.4610 C   0  0  0  0  0  0  0  0  0  0  0  0
   41.3980   34.8350   39.2510 O   0  0  0  0  0  0  0  0  0  0  0  0
   40.5100   33.5750   40.9840 N   0  0  0  0  0  0  0  0  0  0  0  0
   40.5690   33.2570   41.9620 H   0  0  0  0  0  0  0  0  0  0  0  0
   43.8370   34.5350   41.0180 C   0  0  0  0  0  3  0  0  0  0  0  0
   42.5660   35.0190   41.2480 C   0  0  0  0  0  0  0  0  0  0  0  0
   42.3860   35.9970   42.2040 C   0  0  0  0  0  0  0  0  0  0  0  0
   41.3980   36.3910   42.4000 H   0  0  0  0  0  0  0  0  0  0  0  0
   43.4890   36.4710   42.9160 C   0  0  0  0  0  0  0  0  0  0  0  0
   43.5160   37.4140   43.8820 N   0  0  0  0  0  0  0  0  0  0  0  0
   44.8250   37.5020   44.2420 C   0  0  0  0  0  0  0  0  0  0  0  0
   45.2010   38.1700   45.0010 H   0  0  0  0  0  0  0  0  0  0  0  0
   45.5520   36.6300   43.5060 N   0  0  0  0  0  0  0  0  0  0  0  0
   44.7480   35.9660   42.6640 C   0  0  0  0  0  0  0  0  0  0  0  0
   44.9630   34.9890   41.7140 C   0  0  0  0  0  3  0  0  0  0  0  0
   42.7120   37.9560   44.2660 H   0  0  0  0  0  0  0  0  0  0  0  0
   38.6610   30.3940   37.7110 N   0  0  0  0  0  0  0  0  0  0  0  0
   39.0030   30.7060   36.7720 H   0  0  0  0  0  0  0  0  0  0  0  0
   38.5210   27.1810   39.2330 N   0  0  0  0  0  0  0  0  0  0  0  0
   38.4150   28.6310   39.3930 C   0  0  0  0  0  0  0  0  0  0  0  0
   38.3990   29.0120   37.9360 C   0  0  2  0  0  0  0  0  0  0  0  0
   39.5790   28.2260   37.4080 C   0  0  0  0  0  0  0  0  0  0  0  0
   39.5120   26.9540   38.2050 C   0  0  0  0  0  0  0  0  0  0  0  0
   37.4980   28.9300   39.9360 H   0  0  0  0  0  0  0  0  0  0  0  0
   39.3240   29.0610   39.8730 H   0  0  0  0  0  0  0  0  0  0  0  0
   37.4630   28.6560   37.4580 H   0  0  0  0  0  0  0  0  0  0  0  0
   39.3750   27.9430   36.3450 H   0  0  0  0  0  0  0  0  0  0  0  0
   40.5290   28.7580   37.5160 H   0  0  0  0  0  0  0  0  0  0  0  0
   39.3020   26.0670   37.5930 H   0  0  0  0  0  0  0  0  0  0  0  0
   40.5320   26.8090   38.6600 H   0  0  0  0  0  0  0  0  0  0  0  0
   36.3870   24.2430   40.0620 C   0  0  0  0  0  0  0  0  0  0  0  0
   37.0010   25.2190   39.2960 C   0  0  0  0  0  0  0  0  0  0  0  0
   37.8420   26.1470   39.8990 C   0  0  0  0  0  0  0  0  0  0  0  0
   38.0140   26.0330   41.2500 N   0  0  0  0  0  0  0  0  0  0  0  0
   37.4210   25.0900   41.9920 C   0  0  0  0  0  0  0  0  0  0  0  0
   36.6060   24.1930   41.3990 N   0  0  0  0  0  0  0  0  0  0  0  0
   35.7320   23.5220   39.5910 H   0  0  0  0  0  0  0  0  0  0  0  0
   36.8590   25.3030   38.2220 H   0  0  0  0  0  0  0  0  0  0  0  0
   37.6470   25.1170   43.0510 H   0  0  0  0  0  0  0  0  0  0  0  0
   41.8310   30.6430   39.3320 N   0  0  0  0  0  0  0  0  0  0  0  0
   40.8430   31.2340   39.3490 C   0  0  0  0  0  0  0  0  0  0  0  0
  1  6  1  0  0  0  0
  2  3  1  0  0  0  0
  2  1  2  0  0  0  0
  3  4  2  0  0  0  0
  4  8  1  0  0  0  0
  4  5  1  0  0  0  0
  5  9  1  0  0  0  0
  6  5  2  0  0  0  0
  6 12  1  0  0  0  0
  7  3  1  0  0  0  0
 10 12  1  0  0  0  0
 10 15  1  0  0  0  0
 11 10  2  0  0  0  0
 12 13  1  0  0  0  0
 14 15  2  0  0  0  0
 14 24  1  0  0  0  0
 15 16  1  0  0  0  0
 16 17  1  0  0  0  0
 16 18  2  0  0  0  0
 18 19  1  0  0  0  0
 19 20  1  0  0  0  0
 19 25  1  0  0  0  0
 20 21  1  0  0  0  0
 22 20  2  0  0  0  0
 23 18  1  0  0  0  0
 23 22  1  0  0  0  0
 24 23  2  0  0  0  0
 26 30  1  0  0  0  0
 26  2  1  0  0  0  0
 27 26  1  0  0  0  0
 28 29  1  0  0  0  0
 28 42  1  0  0  0  0
 29 34  1  0  0  0  0
 29 33  1  0  0  0  0
 30 35  1  6  0  0  0
 30 29  1  0  0  0  0
 31 37  1  0  0  0  0
 31 30  1  0  0  0  0
 31 32  1  0  0  0  0
 32 39  1  0  0  0  0
 32 28  1  0  0  0  0
 36 31  1  0  0  0  0
 38 32  1  0  0  0  0
 40 45  1  0  0  0  0
 41 42  1  0  0  0  0
 41 40  2  0  0  0  0
 42 43  2  0  0  0  0
 43 44  1  0  0  0  0
 44 48  1  0  0  0  0
 45 44  2  0  0  0  0
 46 40  1  0  0  0  0
 47 41  1  0  0  0  0
 49 50  3  0  0  0  0
 50  1  1  0  0  0  0
M  END
>  <minimizedAffinity>
-6.67276287

$$$$

 OpenBabel03242519123D

 50 54  0  0  1  0  0  0  0  0999 V2000
   38.3880   27.7360   41.5020 C   0  0  0  0  0  0  0  0  0  0  0  0
   37.6260   26.5860   41.7980 C   0  0  0  0  0  0  0  0  0  0  0  0
   36.9340   26.6840   42.9710 C   0  0  0  0  0  0  0  0  0  0  0  0
   36.9250   27.7470   43.8250 C   0  0  0  0  0  0  0  0  0  0  0  0
   37.6820   28.8500   43.4990 C   0  0  0  0  0  0  0  0  0  0  0  0
   38.4040   28.8200   42.3320 C   0  0  0  0  0  0  0  0  0  0  0  0
   36.3240   25.8250   43.2580 H   0  0  0  0  0  0  0  0  0  0  0  0
   36.3510   27.7630   44.7460 H   0  0  0  0  0  0  0  0  0  0  0  0
   37.7050   29.7190   44.1500 H   0  0  0  0  0  0  0  0  0  0  0  0
   38.5880   31.0360   41.2960 C   0  0  0  0  0  0  0  0  0  0  0  0
   37.3910   30.9380   40.8980 O   0  0  0  0  0  0  0  0  0  0  0  0
   39.1790   29.9810   42.0250 N   0  0  0  0  0  0  0  0  0  0  0  0
   40.1590   30.0430   42.3360 H   0  0  0  0  0  0  0  0  0  0  0  0
   40.6700   32.2560   40.9690 C   0  0  0  0  0  3  0  0  0  0  0  0
   39.2910   32.2690   40.9590 C   0  0  0  0  0  0  0  0  0  0  0  0
   38.6360   33.4380   40.6320 C   0  0  0  0  0  0  0  0  0  0  0  0
   37.5550   33.4700   40.6170 H   0  0  0  0  0  0  0  0  0  0  0  0
   39.3810   34.5770   40.3210 C   0  0  0  0  0  0  0  0  0  0  0  0
   38.9280   35.8020   39.9800 N   0  0  0  0  0  0  0  0  0  0  0  0
   40.0510   36.5430   39.7810 C   0  0  0  0  0  0  0  0  0  0  0  0
   40.0490   37.5830   39.4940 H   0  0  0  0  0  0  0  0  0  0  0  0
   41.1410   35.7710   40.0000 N   0  0  0  0  0  0  0  0  0  0  0  0
   40.7590   34.5320   40.3410 C   0  0  0  0  0  0  0  0  0  0  0  0
   41.4450   33.3800   40.6630 C   0  0  0  0  0  3  0  0  0  0  0  0
   37.9360   36.1130   39.8890 H   0  0  0  0  0  0  0  0  0  0  0  0
   37.5770   25.4450   40.9740 N   0  0  0  0  0  0  0  0  0  0  0  0
   38.5570   25.1070   40.8330 H   0  0  0  0  0  0  0  0  0  0  0  0
   35.7320   23.0310   39.1220 N   0  0  0  0  0  0  0  0  0  0  0  0
   36.8210   23.3010   40.0600 C   0  0  0  0  0  0  0  0  0  0  0  0
   36.5010   24.7430   40.3570 C   0  0  2  0  0  0  0  0  0  0  0  0
   36.3230   25.3040   38.9630 C   0  0  0  0  0  0  0  0  0  0  0  0
   35.6660   24.1680   38.2320 C   0  0  0  0  0  0  0  0  0  0  0  0
   36.7820   22.6490   40.9530 H   0  0  0  0  0  0  0  0  0  0  0  0
   37.8170   23.2430   39.5640 H   0  0  0  0  0  0  0  0  0  0  0  0
   35.5470   24.8150   40.9180 H   0  0  0  0  0  0  0  0  0  0  0  0
   35.5700   26.1310   39.0030 H   0  0  0  0  0  0  0  0  0  0  0  0
   37.2650   25.6270   38.5090 H   0  0  0  0  0  0  0  0  0  0  0  0
   34.6440   24.3950   37.9000 H   0  0  0  0  0  0  0  0  0  0  0  0
   36.2820   23.9850   37.3070 H   0  0  0  0  0  0  0  0  0  0  0  0
   32.7500   20.8030   38.9710 C   0  0  0  0  0  0  0  0  0  0  0  0
   33.4870   21.9710   39.0730 C   0  0  0  0  0  0  0  0  0  0  0  0
   34.8750   21.9210   39.0300 C   0  0  0  0  0  0  0  0  0  0  0  0
   35.4410   20.6850   38.8840 N   0  0  0  0  0  0  0  0  0  0  0  0
   34.7300   19.5550   38.7850 C   0  0  0  0  0  0  0  0  0  0  0  0
   33.3820   19.6130   38.8290 N   0  0  0  0  0  0  0  0  0  0  0  0
   31.6690   20.8450   39.0060 H   0  0  0  0  0  0  0  0  0  0  0  0
   33.0300   22.9500   39.1890 H   0  0  0  0  0  0  0  0  0  0  0  0
   35.3080   18.6460   38.6730 H   0  0  0  0  0  0  0  0  0  0  0  0
   39.7770   27.7010   39.2890 N   0  0  0  0  0  0  0  0  0  0  0  0
   39.1600   27.7110   40.2610 C   0  0  0  0  0  0  0  0  0  0  0  0
  1  2  2  0  0  0  0
  1  6  1  0  0  0  0
  2  3  1  0  0  0  0
  3  7  1  0  0  0  0
  3  4  2  0  0  0  0
  4  8  1  0  0  0  0
  5  4  1  0  0  0  0
  5  9  1  0  0  0  0
  6  5  2  0  0  0  0
 10 12  1  0  0  0  0
 11 10  2  0  0  0  0
 12  6  1  0  0  0  0
 12 13  1  0  0  0  0
 15 14  1  0  0  0  0
 15 10  1  0  0  0  0
 16 15  2  0  0  0  0
 17 16  1  0  0  0  0
 18 23  2  0  0  0  0
 18 16  1  0  0  0  0
 19 18  1  0  0  0  0
 20 19  1  0  0  0  0
 20 22  2  0  0  0  0
 21 20  1  0  0  0  0
 22 23  1  0  0  0  0
 23 24  1  0  0  0  0
 24 14  2  0  0  0  0
 25 19  1  0  0  0  0
 26  2  1  0  0  0  0
 27 26  1  0  0  0  0
 28 29  1  0  0  0  0
 29 30  1  0  0  0  0
 29 33  1  0  0  0  0
 30 35  1  1  0  0  0
 30 26  1  0  0  0  0
 31 36  1  0  0  0  0
 31 30  1  0  0  0  0
 32 31  1  0  0  0  0
 32 28  1  0  0  0  0
 34 29  1  0  0  0  0
 37 31  1  0  0  0  0
 38 32  1  0  0  0  0
 39 32  1  0  0  0  0
 40 46  1  0  0  0  0
 40 41  1  0  0  0  0
 41 47  1  0  0  0  0
 42 41  2  0  0  0  0
 42 28  1  0  0  0  0
 43 42  1  0  0  0  0
 44 45  1  0  0  0  0
 44 43  2  0  0  0  0
 45 40  2  0  0  0  0
 48 44  1  0  0  0  0
 49 50  3  0  0  0  0
 50  1  1  0  0  0  0
M  END
>  <minimizedAffinity>
-6.53830385

$$$$

 OpenBabel03242519123D

 50 54  0  0  1  0  0  0  0  0999 V2000
   38.0420   27.8640   41.0270 C   0  0  0  0  0  0  0  0  0  0  0  0
   37.2580   26.7270   41.3140 C   0  0  0  0  0  0  0  0  0  0  0  0
   36.8270   26.6810   42.6090 C   0  0  0  0  0  0  0  0  0  0  0  0
   37.0820   27.5980   43.5860 C   0  0  0  0  0  0  0  0  0  0  0  0
   37.8520   28.6930   43.2640 C   0  0  0  0  0  0  0  0  0  0  0  0
   38.3190   28.8040   41.9790 C   0  0  0  0  0  0  0  0  0  0  0  0
   36.2140   25.8240   42.8950 H   0  0  0  0  0  0  0  0  0  0  0  0
   36.7080   27.5030   44.6000 H   0  0  0  0  0  0  0  0  0  0  0  0
   38.0810   29.4480   44.0120 H   0  0  0  0  0  0  0  0  0  0  0  0
   38.4880   31.1310   41.2190 C   0  0  0  0  0  0  0  0  0  0  0  0
   37.2340   31.1550   41.0490 O   0  0  0  0  0  0  0  0  0  0  0  0
   39.1150   29.9530   41.6800 N   0  0  0  0  0  0  0  0  0  0  0  0
   40.1380   29.9180   41.8030 H   0  0  0  0  0  0  0  0  0  0  0  0
   40.5920   32.3300   40.9620 C   0  0  0  0  0  3  0  0  0  0  0  0
   39.2140   32.3590   40.9150 C   0  0  0  0  0  0  0  0  0  0  0  0
   38.5810   33.5390   40.5830 C   0  0  0  0  0  0  0  0  0  0  0  0
   37.5020   33.5840   40.5400 H   0  0  0  0  0  0  0  0  0  0  0  0
   39.3470   34.6730   40.3050 C   0  0  0  0  0  0  0  0  0  0  0  0
   38.9180   35.9070   39.9660 N   0  0  0  0  0  0  0  0  0  0  0  0
   40.0540   36.6360   39.8050 C   0  0  0  0  0  0  0  0  0  0  0  0
   40.0710   37.6790   39.5290 H   0  0  0  0  0  0  0  0  0  0  0  0
   41.1290   35.8490   40.0440 N   0  0  0  0  0  0  0  0  0  0  0  0
   40.7240   34.6110   40.3610 C   0  0  0  0  0  0  0  0  0  0  0  0
   41.3880   33.4480   40.6890 C   0  0  0  0  0  3  0  0  0  0  0  0
   37.9320   36.2300   39.8510 H   0  0  0  0  0  0  0  0  0  0  0  0
   36.9450   25.7330   40.3670 N   0  0  0  0  0  0  0  0  0  0  0  0
   36.5730   26.2080   39.5130 H   0  0  0  0  0  0  0  0  0  0  0  0
   37.6290   22.3740   39.4100 N   0  0  0  0  0  0  0  0  0  0  0  0
   38.0650   23.7710   39.4200 C   0  0  0  0  0  0  0  0  0  0  0  0
   37.0460   24.3120   40.3890 C   0  0  2  0  0  0  0  0  0  0  0  0
   35.7630   23.7490   39.8180 C   0  0  0  0  0  0  0  0  0  0  0  0
   36.1870   22.3960   39.3220 C   0  0  0  0  0  0  0  0  0  0  0  0
   39.1090   23.8860   39.7700 H   0  0  0  0  0  0  0  0  0  0  0  0
   37.9190   24.2560   38.4270 H   0  0  0  0  0  0  0  0  0  0  0  0
   37.2240   23.8950   41.4010 H   0  0  0  0  0  0  0  0  0  0  0  0
   35.0460   23.5660   40.6580 H   0  0  0  0  0  0  0  0  0  0  0  0
   35.3280   24.3820   39.0380 H   0  0  0  0  0  0  0  0  0  0  0  0
   35.7110   21.5650   39.8580 H   0  0  0  0  0  0  0  0  0  0  0  0
   35.8540   22.3320   38.2470 H   0  0  0  0  0  0  0  0  0  0  0  0
   38.9890   19.0270   40.3150 C   0  0  0  0  0  0  0  0  0  0  0  0
   38.1720   20.1430   40.3550 C   0  0  0  0  0  0  0  0  0  0  0  0
   38.3870   21.1920   39.4690 C   0  0  0  0  0  0  0  0  0  0  0  0
   39.4230   21.0500   38.5890 N   0  0  0  0  0  0  0  0  0  0  0  0
   40.2140   19.9710   38.5480 C   0  0  0  0  0  0  0  0  0  0  0  0
   39.9980   18.9570   39.4120 N   0  0  0  0  0  0  0  0  0  0  0  0
   38.8200   18.2110   41.0060 H   0  0  0  0  0  0  0  0  0  0  0  0
   37.3500   20.2490   41.0590 H   0  0  0  0  0  0  0  0  0  0  0  0
   40.9950   19.9910   37.7990 H   0  0  0  0  0  0  0  0  0  0  0  0
   38.9460   28.0740   38.5850 N   0  0  0  0  0  0  0  0  0  0  0  0
   38.5440   27.9890   39.6610 C   0  0  0  0  0  0  0  0  0  0  0  0
  1  2  2  0  0  0  0
  1  6  1  0  0  0  0
  2  3  1  0  0  0  0
  3  7  1  0  0  0  0
  3  4  2  0  0  0  0
  4  8  1  0  0  0  0
  5  4  1  0  0  0  0
  5  9  1  0  0  0  0
  6  5  2  0  0  0  0
 10 12  1  0  0  0  0
 11 10  2  0  0  0  0
 12 13  1  0  0  0  0
 12  6  1  0  0  0  0
 15 14  1  0  0  0  0
 15 10  1  0  0  0  0
 16 15  2  0  0  0  0
 17 16  1  0  0  0  0
 18 23  2  0  0  0  0
 18 16  1  0  0  0  0
 19 18  1  0  0  0  0
 20 19  1  0  0  0  0
 20 22  2  0  0  0  0
 21 20  1  0  0  0  0
 22 23  1  0  0  0  0
 23 24  1  0  0  0  0
 24 14  2  0  0  0  0
 25 19  1  0  0  0  0
 26 30  1  0  0  0  0
 26  2  1  0  0  0  0
 27 26  1  0  0  0  0
 28 29  1  0  0  0  0
 28 42  1  0  0  0  0
 29 33  1  0  0  0  0
 29 30  1  0  0  0  0
 30 35  1  1  0  0  0
 31 30  1  0  0  0  0
 31 36  1  0  0  0  0
 32 28  1  0  0  0  0
 32 31  1  0  0  0  0
 32 38  1  0  0  0  0
 34 29  1  0  0  0  0
 37 31  1  0  0  0  0
 39 32  1  0  0  0  0
 40 41  1  0  0  0  0
 40 46  1  0  0  0  0
 41 47  1  0  0  0  0
 42 41  2  0  0  0  0
 43 42  1  0  0  0  0
 44 43  2  0  0  0  0
 44 45  1  0  0  0  0
 45 40  2  0  0  0  0
 48 44  1  0  0  0  0
 49 50  3  0  0  0  0
 50  1  1  0  0  0  0
M  END
>  <minimizedAffinity>
-6.5144558

$$$$

 OpenBabel03242519123D

 50 54  0  0  1  0  0  0  0  0999 V2000
   37.1120   27.6480   40.6260 C   0  0  0  0  0  0  0  0  0  0  0  0
   37.1170   26.2710   40.9340 C   0  0  0  0  0  0  0  0  0  0  0  0
   37.1830   26.0180   42.2740 C   0  0  0  0  0  0  0  0  0  0  0  0
   37.2400   26.9400   43.2760 C   0  0  0  0  0  0  0  0  0  0  0  0
   37.2330   28.2740   42.9340 C   0  0  0  0  0  0  0  0  0  0  0  0
   37.1680   28.6020   41.6020 C   0  0  0  0  0  0  0  0  0  0  0  0
   37.1910   24.9680   42.5780 H   0  0  0  0  0  0  0  0  0  0  0  0
   37.2910   26.6720   44.3260 H   0  0  0  0  0  0  0  0  0  0  0  0
   37.2780   29.0430   43.6990 H   0  0  0  0  0  0  0  0  0  0  0  0
   38.3890   30.6760   41.1250 C   0  0  0  0  0  0  0  0  0  0  0  0
   39.4810   30.0580   41.2920 O   0  0  0  0  0  0  0  0  0  0  0  0
   37.1620   29.9950   41.2830 N   0  0  0  0  0  0  0  0  0  0  0  0
   36.2680   30.4940   41.1690 H   0  0  0  0  0  0  0  0  0  0  0  0
   37.4730   32.6380   40.0120 C   0  0  0  0  0  3  0  0  0  0  0  0
   38.4830   32.0880   40.7740 C   0  0  0  0  0  0  0  0  0  0  0  0
   39.5320   32.8900   41.1720 C   0  0  0  0  0  0  0  0  0  0  0  0
   40.3340   32.4800   41.7700 H   0  0  0  0  0  0  0  0  0  0  0  0
   39.5490   34.2340   40.7950 C   0  0  0  0  0  0  0  0  0  0  0  0
   40.4790   35.1690   41.0830 N   0  0  0  0  0  0  0  0  0  0  0  0
   40.0250   36.3030   40.4850 C   0  0  0  0  0  0  0  0  0  0  0  0
   40.5370   37.2520   40.5180 H   0  0  0  0  0  0  0  0  0  0  0  0
   38.8540   36.0420   39.8590 N   0  0  0  0  0  0  0  0  0  0  0  0
   38.5250   34.7540   40.0330 C   0  0  0  0  0  0  0  0  0  0  0  0
   37.4610   33.9800   39.6180 C   0  0  0  0  0  3  0  0  0  0  0  0
   41.3530   35.0490   41.6400 H   0  0  0  0  0  0  0  0  0  0  0  0
   37.0600   25.2520   39.9640 N   0  0  0  0  0  0  0  0  0  0  0  0
   37.9370   25.3000   39.3940 H   0  0  0  0  0  0  0  0  0  0  0  0
   35.5190   22.2840   38.7490 N   0  0  0  0  0  0  0  0  0  0  0  0
   36.6830   22.9020   39.3830 C   0  0  0  0  0  0  0  0  0  0  0  0
   36.0860   24.2570   39.6640 C   0  0  2  0  0  0  0  0  0  0  0  0
   35.4750   24.5980   38.3220 C   0  0  0  0  0  0  0  0  0  0  0  0
   34.9800   23.2660   37.8360 C   0  0  0  0  0  0  0  0  0  0  0  0
   37.0020   22.3650   40.2960 H   0  0  0  0  0  0  0  0  0  0  0  0
   37.5300   23.0170   38.6680 H   0  0  0  0  0  0  0  0  0  0  0  0
   35.2890   24.1710   40.4310 H   0  0  0  0  0  0  0  0  0  0  0  0
   34.5670   25.2300   38.4910 H   0  0  0  0  0  0  0  0  0  0  0  0
   36.1850   25.0750   37.6380 H   0  0  0  0  0  0  0  0  0  0  0  0
   33.8870   23.2140   37.7440 H   0  0  0  0  0  0  0  0  0  0  0  0
   35.4070   23.1250   36.8030 H   0  0  0  0  0  0  0  0  0  0  0  0
   33.1880   19.4050   39.1420 C   0  0  0  0  0  0  0  0  0  0  0  0
   33.6090   20.7110   38.9580 C   0  0  0  0  0  0  0  0  0  0  0  0
   34.9670   21.0040   38.9280 C   0  0  0  0  0  0  0  0  0  0  0  0
   35.8260   19.9520   39.0860 N   0  0  0  0  0  0  0  0  0  0  0  0
   35.4200   18.6890   39.2640 C   0  0  0  0  0  0  0  0  0  0  0  0
   34.0990   18.4140   39.2920 N   0  0  0  0  0  0  0  0  0  0  0  0
   32.1290   19.1800   39.1660 H   0  0  0  0  0  0  0  0  0  0  0  0
   32.9200   21.5420   38.8330 H   0  0  0  0  0  0  0  0  0  0  0  0
   36.2090   17.9550   39.3750 H   0  0  0  0  0  0  0  0  0  0  0  0
   36.9920   28.2730   38.0930 N   0  0  0  0  0  0  0  0  0  0  0  0
   37.0430   28.0050   39.2120 C   0  0  0  0  0  0  0  0  0  0  0  0
  1  2  2  0  0  0  0
  1  6  1  0  0  0  0
  2  3  1  0  0  0  0
  3  7  1  0  0  0  0
  3  4  2  0  0  0  0
  4  8  1  0  0  0  0
  5  4  1  0  0  0  0
  5  9  1  0  0  0  0
  6  5  2  0  0  0  0
 10 12  1  0  0  0  0
 10 11  2  0  0  0  0
 12  6  1  0  0  0  0
 13 12  1  0  0  0  0
 14 15  1  0  0  0  0
 15 10  1  0  0  0  0
 15 16  2  0  0  0  0
 16 17  1  0  0  0  0
 18 19  1  0  0  0  0
 18 16  1  0  0  0  0
 19 25  1  0  0  0  0
 20 21  1  0  0  0  0
 20 19  1  0  0  0  0
 22 23  1  0  0  0  0
 22 20  2  0  0  0  0
 23 18  2  0  0  0  0
 24 14  2  0  0  0  0
 24 23  1  0  0  0  0
 26  2  1  0  0  0  0
 27 26  1  0  0  0  0
 28 42  1  0  0  0  0
 28 29  1  0  0  0  0
 29 30  1  0  0  0  0
 29 33  1  0  0  0  0
 30 26  1  0  0  0  0
 30 35  1  1  0  0  0
 31 36  1  0  0  0  0
 31 30  1  0  0  0  0
 32 31  1  0  0  0  0
 32 28  1  0  0  0  0
 34 29  1  0  0  0  0
 37 31  1  0  0  0  0
 38 32  1  0  0  0  0
 39 32  1  0  0  0  0
 40 46  1  0  0  0  0
 40 45  1  0  0  0  0
 41 40  2  0  0  0  0
 42 41  1  0  0  0  0
 42 43  2  0  0  0  0
 43 44  1  0  0  0  0
 44 45  2  0  0  0  0
 44 48  1  0  0  0  0
 47 41  1  0  0  0  0
 49 50  3  0  0  0  0
 50  1  1  0  0  0  0
M  END
>  <minimizedAffinity>
-6.37760687

$$$$

 OpenBabel03242519123D

 50 54  0  0  1  0  0  0  0  0999 V2000
   39.4280   31.8440   39.4880 C   0  0  0  0  0  0  0  0  0  0  0  0
   38.3560   31.3930   38.6890 C   0  0  0  0  0  0  0  0  0  0  0  0
   37.2910   32.2470   38.6830 C   0  0  0  0  0  0  0  0  0  0  0  0
   37.1940   33.4330   39.3490 C   0  0  0  0  0  0  0  0  0  0  0  0
   38.2620   33.8360   40.1180 C   0  0  0  0  0  0  0  0  0  0  0  0
   39.3680   33.0250   40.1710 C   0  0  0  0  0  0  0  0  0  0  0  0
   36.4270   31.9550   38.0820 H   0  0  0  0  0  0  0  0  0  0  0  0
   36.3160   34.0690   39.3020 H   0  0  0  0  0  0  0  0  0  0  0  0
   38.2270   34.7730   40.6670 H   0  0  0  0  0  0  0  0  0  0  0  0
   41.4060   34.3670   40.4310 C   0  0  0  0  0  0  0  0  0  0  0  0
   41.3000   34.7410   39.2260 O   0  0  0  0  0  0  0  0  0  0  0  0
   40.4580   33.4750   40.9780 N   0  0  0  0  0  0  0  0  0  0  0  0
   40.5470   33.1490   41.9520 H   0  0  0  0  0  0  0  0  0  0  0  0
   43.7930   34.4090   40.9070 C   0  0  0  0  0  3  0  0  0  0  0  0
   42.5340   34.8990   41.1850 C   0  0  0  0  0  0  0  0  0  0  0  0
   42.3940   35.8680   42.1560 C   0  0  0  0  0  0  0  0  0  0  0  0
   41.4170   36.2670   42.3900 H   0  0  0  0  0  0  0  0  0  0  0  0
   43.5240   36.3270   42.8350 C   0  0  0  0  0  0  0  0  0  0  0  0
   43.5910   37.2610   43.8080 N   0  0  0  0  0  0  0  0  0  0  0  0
   44.9120   37.3360   44.1250 C   0  0  0  0  0  0  0  0  0  0  0  0
   45.3180   37.9940   44.8770 H   0  0  0  0  0  0  0  0  0  0  0  0
   45.6070   36.4660   43.3550 N   0  0  0  0  0  0  0  0  0  0  0  0
   44.7700   35.8170   42.5350 C   0  0  0  0  0  0  0  0  0  0  0  0
   44.9450   34.8480   41.5690 C   0  0  0  0  0  3  0  0  0  0  0  0
   42.8050   37.8040   44.2250 H   0  0  0  0  0  0  0  0  0  0  0  0
   38.3720   30.1840   37.9670 N   0  0  0  0  0  0  0  0  0  0  0  0
   38.9470   30.3320   37.1050 H   0  0  0  0  0  0  0  0  0  0  0  0
   35.9720   27.5870   38.3650 N   0  0  0  0  0  0  0  0  0  0  0  0
   36.3990   28.7740   37.6230 C   0  0  0  0  0  0  0  0  0  0  0  0
   37.7830   28.9090   38.2030 C   0  0  2  0  0  0  0  0  0  0  0  0
   37.4980   28.7990   39.6850 C   0  0  0  0  0  0  0  0  0  0  0  0
   36.3870   27.7890   39.7350 C   0  0  0  0  0  0  0  0  0  0  0  0
   36.3950   28.6120   36.5290 H   0  0  0  0  0  0  0  0  0  0  0  0
   35.7980   29.6710   37.8990 H   0  0  0  0  0  0  0  0  0  0  0  0
   38.4180   28.0600   37.8770 H   0  0  0  0  0  0  0  0  0  0  0  0
   38.3790   28.3240   40.1860 H   0  0  0  0  0  0  0  0  0  0  0  0
   37.2350   29.7590   40.1420 H   0  0  0  0  0  0  0  0  0  0  0  0
   36.6670   26.8560   40.2410 H   0  0  0  0  0  0  0  0  0  0  0  0
   35.5570   28.2570   40.3360 H   0  0  0  0  0  0  0  0  0  0  0  0
   34.9390   24.0820   37.6470 C   0  0  0  0  0  0  0  0  0  0  0  0
   35.6980   25.1300   38.1380 C   0  0  0  0  0  0  0  0  0  0  0  0
   35.2920   26.4410   37.9200 C   0  0  0  0  0  0  0  0  0  0  0  0
   34.1350   26.6160   37.2130 N   0  0  0  0  0  0  0  0  0  0  0  0
   33.4000   25.6030   36.7380 C   0  0  0  0  0  0  0  0  0  0  0  0
   33.8020   24.3340   36.9550 N   0  0  0  0  0  0  0  0  0  0  0  0
   35.2580   23.0610   37.8180 H   0  0  0  0  0  0  0  0  0  0  0  0
   36.6170   24.9830   38.6990 H   0  0  0  0  0  0  0  0  0  0  0  0
   32.5060   25.8870   36.1970 H   0  0  0  0  0  0  0  0  0  0  0  0
   41.5470   30.3190   39.6030 N   0  0  0  0  0  0  0  0  0  0  0  0
   40.6090   30.9850   39.5490 C   0  0  0  0  0  0  0  0  0  0  0  0
  1 50  1  0  0  0  0
  1  6  1  0  0  0  0
  2  1  2  0  0  0  0
  3  2  1  0  0  0  0
  3  4  2  0  0  0  0
  4  5  1  0  0  0  0
  5  6  2  0  0  0  0
  5  9  1  0  0  0  0
  6 12  1  0  0  0  0
  7  3  1  0  0  0  0
  8  4  1  0  0  0  0
 10 12  1  0  0  0  0
 10 15  1  0  0  0  0
 11 10  2  0  0  0  0
 12 13  1  0  0  0  0
 14 15  2  0  0  0  0
 14 24  1  0  0  0  0
 15 16  1  0  0  0  0
 16 17  1  0  0  0  0
 16 18  2  0  0  0  0
 18 19  1  0  0  0  0
 19 20  1  0  0  0  0
 19 25  1  0  0  0  0
 20 21  1  0  0  0  0
 22 20  2  0  0  0  0
 23 18  1  0  0  0  0
 23 22  1  0  0  0  0
 24 23  2  0  0  0  0
 26 30  1  0  0  0  0
 26  2  1  0  0  0  0
 27 26  1  0  0  0  0
 28 32  1  0  0  0  0
 29 34  1  0  0  0  0
 29 30  1  0  0  0  0
 29 28  1  0  0  0  0
 30 35  1  6  0  0  0
 30 31  1  0  0  0  0
 31 32  1  0  0  0  0
 31 37  1  0  0  0  0
 31 36  1  0  0  0  0
 32 38  1  0  0  0  0
 32 39  1  0  0  0  0
 33 29  1  0  0  0  0
 40 46  1  0  0  0  0
 40 41  1  0  0  0  0
 41 47  1  0  0  0  0
 42 41  2  0  0  0  0
 42 28  1  0  0  0  0
 43 42  1  0  0  0  0
 44 45  1  0  0  0  0
 44 43  2  0  0  0  0
 45 40  2  0  0  0  0
 48 44  1  0  0  0  0
 50 49  3  0  0  0  0
M  END
>  <minimizedAffinity>
-6.37331295

$$$$

 OpenBabel03242519123D

 50 54  0  0  1  0  0  0  0  0999 V2000
   38.5460   31.5370   41.1750 C   0  0  0  0  0  0  0  0  0  0  0  0
   37.3940   30.8690   40.7080 C   0  0  0  0  0  0  0  0  0  0  0  0
   36.7830   31.5080   39.6680 C   0  0  0  0  0  0  0  0  0  0  0  0
   37.1790   32.6730   39.0820 C   0  0  0  0  0  0  0  0  0  0  0  0
   38.3090   33.2940   39.5680 C   0  0  0  0  0  0  0  0  0  0  0  0
   38.9740   32.7060   40.6140 C   0  0  0  0  0  0  0  0  0  0  0  0
   35.8840   31.0400   39.2600 H   0  0  0  0  0  0  0  0  0  0  0  0
   36.6480   33.1320   38.2550 H   0  0  0  0  0  0  0  0  0  0  0  0
   38.6600   34.2250   39.1310 H   0  0  0  0  0  0  0  0  0  0  0  0
   41.3760   33.1760   40.4370 C   0  0  0  0  0  0  0  0  0  0  0  0
   41.4470   32.3870   39.4500 O   0  0  0  0  0  0  0  0  0  0  0  0
   40.1410   33.3770   41.0930 N   0  0  0  0  0  0  0  0  0  0  0  0
   40.0780   34.0020   41.9090 H   0  0  0  0  0  0  0  0  0  0  0  0
   43.7670   33.5350   40.1440 C   0  0  0  0  0  3  0  0  0  0  0  0
   42.6130   33.8370   40.8370 C   0  0  0  0  0  0  0  0  0  0  0  0
   42.6740   34.7480   41.8710 C   0  0  0  0  0  0  0  0  0  0  0  0
   41.7810   35.0010   42.4270 H   0  0  0  0  0  0  0  0  0  0  0  0
   43.8970   35.3390   42.1920 C   0  0  0  0  0  0  0  0  0  0  0  0
   44.1570   36.2430   43.1610 N   0  0  0  0  0  0  0  0  0  0  0  0
   45.4900   36.4920   43.0520 C   0  0  0  0  0  0  0  0  0  0  0  0
   46.0320   37.1770   43.6840 H   0  0  0  0  0  0  0  0  0  0  0  0
   46.0030   35.7510   42.0430 N   0  0  0  0  0  0  0  0  0  0  0  0
   45.0330   35.0160   41.4810 C   0  0  0  0  0  0  0  0  0  0  0  0
   45.0070   34.1090   40.4410 C   0  0  0  0  0  3  0  0  0  0  0  0
   43.4850   36.6600   43.8410 H   0  0  0  0  0  0  0  0  0  0  0  0
   36.9140   29.6620   41.2530 N   0  0  0  0  0  0  0  0  0  0  0  0
   35.9710   29.8480   41.6670 H   0  0  0  0  0  0  0  0  0  0  0  0
   37.2500   26.1240   41.0790 N   0  0  0  0  0  0  0  0  0  0  0  0
   36.7150   27.3460   40.4790 C   0  0  0  0  0  0  0  0  0  0  0  0
   37.4600   28.3480   41.3230 C   0  0  2  0  0  0  0  0  0  0  0  0
   37.2050   27.8140   42.7160 C   0  0  0  0  0  0  0  0  0  0  0  0
   37.2300   26.3270   42.5100 C   0  0  0  0  0  0  0  0  0  0  0  0
   36.9450   27.4230   39.4000 H   0  0  0  0  0  0  0  0  0  0  0  0
   35.6220   27.4530   40.6650 H   0  0  0  0  0  0  0  0  0  0  0  0
   38.5450   28.3060   41.0950 H   0  0  0  0  0  0  0  0  0  0  0  0
   38.0860   28.0590   43.3600 H   0  0  0  0  0  0  0  0  0  0  0  0
   36.2670   28.1790   43.1470 H   0  0  0  0  0  0  0  0  0  0  0  0
   38.0610   25.8290   43.0260 H   0  0  0  0  0  0  0  0  0  0  0  0
   36.2750   25.9270   42.9550 H   0  0  0  0  0  0  0  0  0  0  0  0
   38.1770   22.5930   40.3390 C   0  0  0  0  0  0  0  0  0  0  0  0
   37.6940   23.6810   41.0450 C   0  0  0  0  0  0  0  0  0  0  0  0
   37.7090   24.9450   40.4670 C   0  0  0  0  0  0  0  0  0  0  0  0
   38.2140   25.0350   39.2000 N   0  0  0  0  0  0  0  0  0  0  0  0
   38.6800   23.9830   38.5160 C   0  0  0  0  0  0  0  0  0  0  0  0
   38.6620   22.7600   39.0850 N   0  0  0  0  0  0  0  0  0  0  0  0
   38.1650   21.6100   40.7910 H   0  0  0  0  0  0  0  0  0  0  0  0
   37.2950   23.6020   42.0530 H   0  0  0  0  0  0  0  0  0  0  0  0
   39.0500   24.1990   37.5210 H   0  0  0  0  0  0  0  0  0  0  0  0
   39.8330   30.4260   43.1580 N   0  0  0  0  0  0  0  0  0  0  0  0
   39.2590   30.9170   42.2890 C   0  0  0  0  0  0  0  0  0  0  0  0
  1 50  1  0  0  0  0
  2  1  1  0  0  0  0
  2 26  1  0  0  0  0
  3  2  2  0  0  0  0
  4  5  2  0  0  0  0
  4  3  1  0  0  0  0
  5  6  1  0  0  0  0
  6 12  1  0  0  0  0
  6  1  2  0  0  0  0
  7  3  1  0  0  0  0
  8  4  1  0  0  0  0
  9  5  1  0  0  0  0
 10 15  1  0  0  0  0
 10 12  1  0  0  0  0
 11 10  2  0  0  0  0
 12 13  1  0  0  0  0
 14 24  2  0  0  0  0
 14 15  1  0  0  0  0
 15 16  2  0  0  0  0
 16 18  1  0  0  0  0
 16 17  1  0  0  0  0
 18 19  1  0  0  0  0
 19 25  1  0  0  0  0
 20 19  1  0  0  0  0
 20 21  1  0  0  0  0
 22 20  2  0  0  0  0
 23 22  1  0  0  0  0
 23 18  2  0  0  0  0
 24 23  1  0  0  0  0
 26 30  1  0  0  0  0
 26 27  1  0  0  0  0
 28 32  1  0  0  0  0
 29 34  1  0  0  0  0
 29 28  1  0  0  0  0
 29 30  1  0  0  0  0
 30 35  1  6  0  0  0
 30 31  1  0  0  0  0
 31 37  1  0  0  0  0
 31 36  1  0  0  0  0
 32 31  1  0  0  0  0
 32 39  1  0  0  0  0
 32 38  1  0  0  0  0
 33 29  1  0  0  0  0
 40 46  1  0  0  0  0
 40 41  1  0  0  0  0
 41 47  1  0  0  0  0
 42 41  2  0  0  0  0
 42 28  1  0  0  0  0
 43 42  1  0  0  0  0
 44 45  1  0  0  0  0
 44 43  2  0  0  0  0
 45 40  2  0  0  0  0
 48 44  1  0  0  0  0
 50 49  3  0  0  0  0
M  END
>  <minimizedAffinity>
-6.36432648

$$$$
