
 OpenBabel03252509083D

 44 48  0  0  0  0  0  0  0  0999 V2000
   47.4850   33.1890   40.4660 C   0  0  0  0  0  0  0  0  0  0  0  0
   46.3850   33.7840   41.0090 C   0  0  0  0  0  0  0  0  0  0  0  0
   46.5360   34.9050   41.8080 C   0  0  0  0  0  0  0  0  0  0  0  0
   47.7870   35.4220   42.0570 C   0  0  0  0  0  0  0  0  0  0  0  0
   48.9350   34.8440   41.5220 C   0  0  0  0  0  0  0  0  0  0  0  0
   48.7560   33.7130   40.7180 C   0  0  0  0  0  0  0  0  0  0  0  0
   45.6750   35.3960   42.2510 H   0  0  0  0  0  0  0  0  0  0  0  0
   47.9940   36.2800   42.6580 H   0  0  0  0  0  0  0  0  0  0  0  0
   49.9470   35.1760   41.6610 H   0  0  0  0  0  0  0  0  0  0  0  0
   49.6330   33.2360   40.2830 H   0  0  0  0  0  0  0  0  0  0  0  0
   42.3530   30.9680   42.5780 Cl  0  0  0  0  0  0  0  0  0  0  0  0
   43.1760   32.0440   41.4790 C   0  0  0  0  0  0  0  0  0  0  0  0
   44.4450   32.4610   41.7260 C   0  0  0  0  0  0  0  0  0  0  0  0
   45.0190   33.3240   40.7990 C   0  0  0  0  0  0  0  0  0  0  0  0
   44.3410   33.7430   39.6840 C   0  0  0  0  0  0  0  0  0  0  0  0
   43.0730   33.3170   39.4500 C   0  0  0  0  0  0  0  0  0  0  0  0
   42.4880   32.4570   40.3610 C   0  0  0  0  0  0  0  0  0  0  0  0
   44.8410   34.4190   38.9970 H   0  0  0  0  0  0  0  0  0  0  0  0
   42.5780   33.6680   38.5630 H   0  0  0  0  0  0  0  0  0  0  0  0
   41.4790   32.1380   40.1430 H   0  0  0  0  0  0  0  0  0  0  0  0
   45.9400   32.3450   45.1990 C   0  0  0  0  0  0  0  0  0  0  0  0
   45.2830   32.7950   44.0490 C   0  0  0  0  0  0  0  0  0  0  0  0
   45.1280   32.0060   42.9220 C   0  0  0  0  0  0  0  0  0  0  0  0
   45.6620   30.7860   43.0470 N   0  0  0  0  0  0  0  0  0  0  0  0
   46.2900   30.3370   44.1330 C   0  0  0  0  0  0  0  0  0  0  0  0
   46.4300   31.1060   45.2020 N   0  0  0  0  0  0  0  0  0  0  0  0
   46.0360   32.9970   46.0530 H   0  0  0  0  0  0  0  0  0  0  0  0
   44.8750   33.8110   44.0350 H   0  0  0  0  0  0  0  0  0  0  0  0
   46.6530   29.3130   44.0310 H   0  0  0  0  0  0  0  0  0  0  0  0
   47.3660   31.8060   39.5040 S   0  0  0  0  0  0  0  0  0  0  0  0
   48.7340   31.5470   38.8210 O   0  0  0  0  0  0  0  0  0  0  0  0
   47.2310   30.6290   40.4680 O   0  0  0  0  0  0  0  0  0  0  0  0
   46.4450   32.4380   36.9920 C   0  0  0  0  0  3  0  0  0  0  0  0
   46.3260   31.6290   38.1580 C   0  0  0  0  0  0  0  0  0  0  0  0
   45.3150   30.7050   37.9270 C   0  0  0  0  0  0  0  0  0  0  0  0
   45.1340   30.0000   38.7240 H   0  0  0  0  0  0  0  0  0  0  0  0
   44.5390   30.5440   36.8230 C   0  0  0  0  0  0  0  0  0  0  0  0
   43.5490   29.7030   36.4950 N   0  0  0  0  0  0  0  0  0  0  0  0
   43.1650   30.0450   35.2320 C   0  0  0  0  0  0  0  0  0  0  0  0
   42.3730   29.5320   34.6990 H   0  0  0  0  0  0  0  0  0  0  0  0
   43.9220   31.0900   34.8000 N   0  0  0  0  0  0  0  0  0  0  0  0
   44.7850   31.4120   35.7840 C   0  0  0  0  0  0  0  0  0  0  0  0
   45.7410   32.3980   35.8090 C   0  0  0  0  0  3  0  0  0  0  0  0
   43.1680   28.9510   37.0960 H   0  0  0  0  0  0  0  0  0  0  0  0
  1  6  2  0  0  0  0
  1  2  1  0  0  0  0
  2  3  2  0  0  0  0
  3  4  1  0  0  0  0
  3  7  1  0  0  0  0
  4  8  1  0  0  0  0
  5  9  1  0  0  0  0
  5  4  2  0  0  0  0
  6  5  1  0  0  0  0
 10  6  1  0  0  0  0
 12 13  1  0  0  0  0
 12 11  1  0  0  0  0
 13 23  1  0  0  0  0
 14  2  1  0  0  0  0
 14 13  2  0  0  0  0
 15 14  1  0  0  0  0
 16 15  2  0  0  0  0
 16 17  1  0  0  0  0
 17 12  2  0  0  0  0
 18 15  1  0  0  0  0
 19 16  1  0  0  0  0
 20 17  1  0  0  0  0
 21 26  1  0  0  0  0
 21 27  1  0  0  0  0
 22 21  2  0  0  0  0
 23 24  2  0  0  0  0
 23 22  1  0  0  0  0
 24 25  1  0  0  0  0
 25 26  2  0  0  0  0
 28 22  1  0  0  0  0
 29 25  1  0  0  0  0
 30  1  1  0  0  0  0
 30 32  2  0  0  0  0
 31 30  2  0  0  0  0
 33 34  1  0  0  0  0
 34 30  1  0  0  0  0
 35 34  2  0  0  0  0
 35 36  1  0  0  0  0
 37 35  1  0  0  0  0
 38 37  1  0  0  0  0
 38 44  1  0  0  0  0
 39 38  1  0  0  0  0
 40 39  1  0  0  0  0
 41 39  2  0  0  0  0
 41 42  1  0  0  0  0
 42 43  1  0  0  0  0
 42 37  2  0  0  0  0
 43 33  2  0  0  0  0
M  END
>  <minimizedAffinity>
-4.58579683

>  <minimizedRMSD>
4.66233683

$$$$
