
 OpenBabel03252507343D

 52 56  0  0  1  0  0  0  0  0999 V2000
   38.5700   32.6180   40.6750 C   0  0  0  0  0  0  0  0  0  0  0  0
   37.4460   32.6260   39.8630 C   0  0  0  0  0  0  0  0  0  0  0  0
   36.5930   31.4970   39.8400 C   0  0  0  0  0  0  0  0  0  0  0  0
   36.9580   30.4290   40.6570 N   0  0  0  0  0  0  0  0  0  0  0  0
   38.0570   30.4860   41.4140 C   0  0  0  0  0  0  0  0  0  0  0  0
   38.8490   31.5600   41.4240 N   0  0  0  0  0  0  0  0  0  0  0  0
   37.0100   33.2960   39.1530 H   0  0  0  0  0  0  0  0  0  0  0  0
   35.6970   31.3370   39.2830 H   0  0  0  0  0  0  0  0  0  0  0  0
   39.3990   33.8070   40.6790 C   0  0  2  0  0  0  0  0  0  0  0  0
   38.7080   34.9860   39.9260 C   0  0  0  0  0  0  0  0  0  0  0  0
   39.5210   36.2240   40.1010 C   0  0  0  0  0  0  0  0  0  0  0  0
   40.9950   36.0700   39.9280 C   0  0  0  0  0  0  0  0  0  0  0  0
   41.5310   34.8370   40.4500 C   0  0  0  0  0  0  0  0  0  0  0  0
   40.7000   33.5890   40.0800 C   0  0  2  0  0  0  0  0  0  0  0  0
   39.4460   34.2080   41.7220 H   0  0  0  0  0  0  0  0  0  0  0  0
   38.4860   34.7100   38.8890 H   0  0  0  0  0  0  0  0  0  0  0  0
   37.7320   35.0860   40.4440 H   0  0  0  0  0  0  0  0  0  0  0  0
   39.1780   36.6860   41.0470 H   0  0  0  0  0  0  0  0  0  0  0  0
   39.1880   36.9450   39.2980 H   0  0  0  0  0  0  0  0  0  0  0  0
   41.4860   36.6450   39.1430 H   0  0  0  0  0  0  0  0  0  0  0  0
   41.3490   36.7950   40.7670 H   0  0  0  0  0  0  0  0  0  0  0  0
   41.6780   34.7390   41.5540 H   0  0  0  0  0  0  0  0  0  0  0  0
   42.5480   34.6530   40.0160 H   0  0  0  0  0  0  0  0  0  0  0  0
   41.3130   32.7950   40.5080 H   0  0  0  0  0  0  0  0  0  0  0  0
   40.5750   33.5270   38.6220 N   0  0  0  0  0  0  0  0  0  0  0  0
   41.4350   33.0160   37.6350 C   0  0  0  0  0  0  0  0  0  0  0  0
   41.5570   31.7610   37.3950 O   0  0  0  0  0  0  0  0  0  0  0  0
   42.1630   34.0060   36.9080 N   0  0  0  0  0  0  0  0  0  0  0  0
   39.7350   33.9800   38.0980 H   0  0  0  0  0  0  0  0  0  0  0  0
   41.8480   34.8460   36.4170 H   0  0  0  0  0  0  0  0  0  0  0  0
   43.1990   33.9120   36.8270 H   0  0  0  0  0  0  0  0  0  0  0  0
   38.3960   29.3200   42.2360 C   0  0  0  0  0  0  0  0  0  0  0  0
   37.4150   28.5750   42.8510 C   0  0  0  0  0  0  0  0  0  0  0  0
   37.6560   27.4690   43.6360 C   0  0  0  0  0  0  0  0  0  0  0  0
   38.9850   27.1370   43.7780 C   0  0  0  0  0  0  0  0  0  0  0  0
   39.9760   27.8700   43.1720 C   0  0  0  0  0  0  0  0  0  0  0  0
   39.6810   28.9630   42.4000 N   0  0  0  0  0  0  0  0  0  0  0  0
   36.3910   28.9000   42.6910 H   0  0  0  0  0  0  0  0  0  0  0  0
   36.8730   26.9130   44.0980 H   0  0  0  0  0  0  0  0  0  0  0  0
   39.2270   26.2770   44.3840 H   0  0  0  0  0  0  0  0  0  0  0  0
   42.3240   28.5620   43.3160 C   0  0  0  0  0  3  0  0  0  0  0  0
   41.3910   27.5460   43.3010 C   0  0  0  0  0  0  0  0  0  0  0  0
   41.8900   26.2760   43.4140 C   0  0  0  0  0  0  0  0  0  0  0  0
   41.2210   25.4450   43.4100 H   0  0  0  0  0  0  0  0  0  0  0  0
   43.2310   25.9730   43.5370 C   0  0  0  0  0  0  0  0  0  0  0  0
   43.8970   24.7970   43.6570 N   0  0  0  0  0  0  0  0  0  0  0  0
   45.2010   25.0700   43.7430 C   0  0  0  0  0  0  0  0  0  0  0  0
   45.9350   24.2730   43.8470 H   0  0  0  0  0  0  0  0  0  0  0  0
   45.3680   26.4210   43.6790 N   0  0  0  0  0  0  0  0  0  0  0  0
   44.1570   27.0080   43.5500 C   0  0  0  0  0  0  0  0  0  0  0  0
   43.6910   28.2990   43.4390 C   0  0  0  0  0  3  0  0  0  0  0  0
   43.4400   23.8580   43.6750 H   0  0  0  0  0  0  0  0  0  0  0  0
  1  9  1  0  0  0  0
  1  6  1  0  0  0  0
  2  1  2  0  0  0  0
  3  2  1  0  0  0  0
  3  4  2  0  0  0  0
  4  5  1  0  0  0  0
  5  6  2  0  0  0  0
  5 32  1  0  0  0  0
  7  2  1  0  0  0  0
  8  3  1  0  0  0  0
  9 15  1  1  0  0  0
 10 11  1  0  0  0  0
 10 17  1  0  0  0  0
 10  9  1  0  0  0  0
 11 18  1  0  0  0  0
 12 11  1  0  0  0  0
 12 13  1  0  0  0  0
 12 21  1  0  0  0  0
 13 22  1  0  0  0  0
 14 13  1  0  0  0  0
 14 24  1  1  0  0  0
 14  9  1  0  0  0  0
 16 10  1  0  0  0  0
 19 11  1  0  0  0  0
 20 12  1  0  0  0  0
 23 13  1  0  0  0  0
 25 14  1  0  0  0  0
 26 25  1  0  0  0  0
 27 26  2  0  0  0  0
 28 26  1  0  0  0  0
 29 25  1  0  0  0  0
 30 28  1  0  0  0  0
 31 28  1  0  0  0  0
 32 37  2  0  0  0  0
 32 33  1  0  0  0  0
 33 34  2  0  0  0  0
 34 35  1  0  0  0  0
 34 39  1  0  0  0  0
 35 40  1  0  0  0  0
 36 42  1  0  0  0  0
 36 35  2  0  0  0  0
 37 36  1  0  0  0  0
 38 33  1  0  0  0  0
 41 51  1  0  0  0  0
 42 41  2  0  0  0  0
 42 43  1  0  0  0  0
 43 45  2  0  0  0  0
 44 43  1  0  0  0  0
 45 50  1  0  0  0  0
 45 46  1  0  0  0  0
 46 52  1  0  0  0  0
 46 47  1  0  0  0  0
 47 48  1  0  0  0  0
 49 47  2  0  0  0  0
 50 49  1  0  0  0  0
 51 50  2  0  0  0  0
M  END
>  <minimizedAffinity>
-8.55430126

$$$$

 OpenBabel03252507343D

 52 56  0  0  1  0  0  0  0  0999 V2000
   38.5540   32.2820   40.3730 C   0  0  0  0  0  0  0  0  0  0  0  0
   37.5120   32.4190   39.4690 C   0  0  0  0  0  0  0  0  0  0  0  0
   36.6310   31.3330   39.2490 C   0  0  0  0  0  0  0  0  0  0  0  0
   36.8870   30.1730   39.9760 N   0  0  0  0  0  0  0  0  0  0  0  0
   37.9110   30.1070   40.8300 C   0  0  0  0  0  0  0  0  0  0  0  0
   38.7300   31.1420   41.0260 N   0  0  0  0  0  0  0  0  0  0  0  0
   37.1630   33.1760   38.7990 H   0  0  0  0  0  0  0  0  0  0  0  0
   35.7870   31.2670   38.5990 H   0  0  0  0  0  0  0  0  0  0  0  0
   39.4130   33.4310   40.5790 C   0  0  2  0  0  0  0  0  0  0  0  0
   38.7660   34.7350   40.0170 C   0  0  0  0  0  0  0  0  0  0  0  0
   39.6090   35.9050   40.3990 C   0  0  0  0  0  0  0  0  0  0  0  0
   41.0800   35.7380   40.2220 C   0  0  0  0  0  0  0  0  0  0  0  0
   41.5750   34.4230   40.5460 C   0  0  0  0  0  0  0  0  0  0  0  0
   40.7180   33.2760   39.9680 C   0  0  2  0  0  0  0  0  0  0  0  0
   39.4530   33.6580   41.6730 H   0  0  0  0  0  0  0  0  0  0  0  0
   38.5550   34.6360   38.9460 H   0  0  0  0  0  0  0  0  0  0  0  0
   37.7850   34.7780   40.5320 H   0  0  0  0  0  0  0  0  0  0  0  0
   39.2620   36.2190   41.4030 H   0  0  0  0  0  0  0  0  0  0  0  0
   39.3080   36.7550   39.7180 H   0  0  0  0  0  0  0  0  0  0  0  0
   41.6000   36.4180   39.5460 H   0  0  0  0  0  0  0  0  0  0  0  0
   41.4400   36.3090   41.1710 H   0  0  0  0  0  0  0  0  0  0  0  0
   41.7010   34.1450   41.6210 H   0  0  0  0  0  0  0  0  0  0  0  0
   42.5950   34.2820   40.1000 H   0  0  0  0  0  0  0  0  0  0  0  0
   41.3020   32.4050   40.2710 H   0  0  0  0  0  0  0  0  0  0  0  0
   40.6170   33.4510   38.5190 N   0  0  0  0  0  0  0  0  0  0  0  0
   41.4480   33.0250   37.4680 C   0  0  0  0  0  0  0  0  0  0  0  0
   41.4650   31.8170   37.0350 O   0  0  0  0  0  0  0  0  0  0  0  0
   42.2730   34.0480   36.9090 N   0  0  0  0  0  0  0  0  0  0  0  0
   39.8290   34.0540   38.0670 H   0  0  0  0  0  0  0  0  0  0  0  0
   42.0410   34.9790   36.5540 H   0  0  0  0  0  0  0  0  0  0  0  0
   43.2980   33.8760   36.8200 H   0  0  0  0  0  0  0  0  0  0  0  0
   38.1370   28.8490   41.5500 C   0  0  0  0  0  0  0  0  0  0  0  0
   38.6900   28.8420   42.8110 C   0  0  0  0  0  0  0  0  0  0  0  0
   38.9320   27.7030   43.5470 C   0  0  0  0  0  0  0  0  0  0  0  0
   38.5760   26.5260   42.9270 C   0  0  0  0  0  0  0  0  0  0  0  0
   38.0240   26.5150   41.6690 C   0  0  0  0  0  0  0  0  0  0  0  0
   37.8050   27.6790   40.9800 N   0  0  0  0  0  0  0  0  0  0  0  0
   38.9430   29.8100   43.2320 H   0  0  0  0  0  0  0  0  0  0  0  0
   39.3600   27.7320   44.5220 H   0  0  0  0  0  0  0  0  0  0  0  0
   38.7450   25.6040   43.4630 H   0  0  0  0  0  0  0  0  0  0  0  0
   36.6420   25.3250   40.0300 C   0  0  0  0  0  3  0  0  0  0  0  0
   37.6370   25.2880   40.9860 C   0  0  0  0  0  0  0  0  0  0  0  0
   38.1950   24.0600   41.2190 C   0  0  0  0  0  0  0  0  0  0  0  0
   38.9690   23.9630   41.9460 H   0  0  0  0  0  0  0  0  0  0  0  0
   37.8250   22.9000   40.5690 C   0  0  0  0  0  0  0  0  0  0  0  0
   38.2580   21.6170   40.6670 N   0  0  0  0  0  0  0  0  0  0  0  0
   37.5580   20.8790   39.8030 C   0  0  0  0  0  0  0  0  0  0  0  0
   37.7350   19.8100   39.7060 H   0  0  0  0  0  0  0  0  0  0  0  0
   36.6780   21.6900   39.1510 N   0  0  0  0  0  0  0  0  0  0  0  0
   36.8230   22.9550   39.6090 C   0  0  0  0  0  0  0  0  0  0  0  0
   36.2390   24.1740   39.3480 C   0  0  0  0  0  3  0  0  0  0  0  0
   39.0100   21.2950   41.3170 H   0  0  0  0  0  0  0  0  0  0  0  0
  1  9  1  0  0  0  0
  1  6  1  0  0  0  0
  2  1  2  0  0  0  0
  3  2  1  0  0  0  0
  3  4  2  0  0  0  0
  4  5  1  0  0  0  0
  5  6  2  0  0  0  0
  5 32  1  0  0  0  0
  7  2  1  0  0  0  0
  8  3  1  0  0  0  0
  9 15  1  1  0  0  0
 10 11  1  0  0  0  0
 10 17  1  0  0  0  0
 10  9  1  0  0  0  0
 11 18  1  0  0  0  0
 12 11  1  0  0  0  0
 12 13  1  0  0  0  0
 12 21  1  0  0  0  0
 13 22  1  0  0  0  0
 14 24  1  1  0  0  0
 14 13  1  0  0  0  0
 14  9  1  0  0  0  0
 16 10  1  0  0  0  0
 19 11  1  0  0  0  0
 20 12  1  0  0  0  0
 23 13  1  0  0  0  0
 25 14  1  0  0  0  0
 26 25  1  0  0  0  0
 27 26  2  0  0  0  0
 28 26  1  0  0  0  0
 29 25  1  0  0  0  0
 30 28  1  0  0  0  0
 31 28  1  0  0  0  0
 32 33  1  0  0  0  0
 33 38  1  0  0  0  0
 33 34  2  0  0  0  0
 34 39  1  0  0  0  0
 35 40  1  0  0  0  0
 35 34  1  0  0  0  0
 36 35  2  0  0  0  0
 37 32  2  0  0  0  0
 37 36  1  0  0  0  0
 41 42  1  0  0  0  0
 42 43  2  0  0  0  0
 42 36  1  0  0  0  0
 43 44  1  0  0  0  0
 45 46  1  0  0  0  0
 45 43  1  0  0  0  0
 46 52  1  0  0  0  0
 47 46  1  0  0  0  0
 48 47  1  0  0  0  0
 49 50  1  0  0  0  0
 49 47  2  0  0  0  0
 50 45  2  0  0  0  0
 51 50  1  0  0  0  0
 51 41  2  0  0  0  0
M  END
>  <minimizedAffinity>
-8.3059082

$$$$

 OpenBabel03252507343D

 52 56  0  0  1  0  0  0  0  0999 V2000
   40.9070   32.6450   40.8850 C   0  0  0  0  0  0  0  0  0  0  0  0
   41.8670   33.6420   40.9670 C   0  0  0  0  0  0  0  0  0  0  0  0
   43.0260   33.4330   41.7530 C   0  0  0  0  0  0  0  0  0  0  0  0
   43.1170   32.2070   42.4060 N   0  0  0  0  0  0  0  0  0  0  0  0
   42.1540   31.2900   42.2860 C   0  0  0  0  0  0  0  0  0  0  0  0
   41.0690   31.5020   41.5400 N   0  0  0  0  0  0  0  0  0  0  0  0
   41.9820   34.6370   40.5940 H   0  0  0  0  0  0  0  0  0  0  0  0
   43.8550   34.0840   41.9230 H   0  0  0  0  0  0  0  0  0  0  0  0
   39.7510   32.8990   40.0500 C   0  0  2  0  0  0  0  0  0  0  0  0
   38.8270   33.9920   40.6720 C   0  0  0  0  0  0  0  0  0  0  0  0
   37.7480   34.3330   39.7010 C   0  0  0  0  0  0  0  0  0  0  0  0
   37.0860   33.1790   39.0250 C   0  0  0  0  0  0  0  0  0  0  0  0
   37.9760   32.0970   38.6830 C   0  0  0  0  0  0  0  0  0  0  0  0
   38.9530   31.7130   39.8160 C   0  0  2  0  0  0  0  0  0  0  0  0
   40.0900   33.4050   39.1120 H   0  0  0  0  0  0  0  0  0  0  0  0
   38.4870   33.6920   41.6700 H   0  0  0  0  0  0  0  0  0  0  0  0
   39.5090   34.8550   40.8140 H   0  0  0  0  0  0  0  0  0  0  0  0
   38.1630   35.1220   39.0440 H   0  0  0  0  0  0  0  0  0  0  0  0
   36.9370   34.8540   40.2900 H   0  0  0  0  0  0  0  0  0  0  0  0
   36.0130   33.0440   39.1660 H   0  0  0  0  0  0  0  0  0  0  0  0
   36.9500   33.6470   37.9680 H   0  0  0  0  0  0  0  0  0  0  0  0
   38.6380   32.2070   37.7890 H   0  0  0  0  0  0  0  0  0  0  0  0
   37.3820   31.1690   38.4790 H   0  0  0  0  0  0  0  0  0  0  0  0
   39.4620   30.8560   39.3710 H   0  0  0  0  0  0  0  0  0  0  0  0
   38.1760   31.3890   41.0130 N   0  0  0  0  0  0  0  0  0  0  0  0
   37.1480   30.4550   41.2320 C   0  0  0  0  0  0  0  0  0  0  0  0
   37.3630   29.1980   41.3770 O   0  0  0  0  0  0  0  0  0  0  0  0
   35.8360   31.0160   41.2900 N   0  0  0  0  0  0  0  0  0  0  0  0
   38.2890   31.9490   41.9400 H   0  0  0  0  0  0  0  0  0  0  0  0
   35.4610   31.7910   41.8420 H   0  0  0  0  0  0  0  0  0  0  0  0
   35.0860   30.6090   40.6890 H   0  0  0  0  0  0  0  0  0  0  0  0
   42.3020   30.0260   43.0170 C   0  0  0  0  0  0  0  0  0  0  0  0
   43.2990   29.8580   43.9510 C   0  0  0  0  0  0  0  0  0  0  0  0
   43.5000   28.7030   44.6760 C   0  0  0  0  0  0  0  0  0  0  0  0
   42.6120   27.6870   44.4020 C   0  0  0  0  0  0  0  0  0  0  0  0
   41.6110   27.8370   43.4740 C   0  0  0  0  0  0  0  0  0  0  0  0
   41.4570   29.0090   42.7800 N   0  0  0  0  0  0  0  0  0  0  0  0
   43.9590   30.7060   44.1100 H   0  0  0  0  0  0  0  0  0  0  0  0
   44.2810   28.6060   45.3920 H   0  0  0  0  0  0  0  0  0  0  0  0
   42.7260   26.7600   44.9440 H   0  0  0  0  0  0  0  0  0  0  0  0
   41.0430   25.4620   43.2620 C   0  0  0  0  0  3  0  0  0  0  0  0
   40.6570   26.7820   43.1610 C   0  0  0  0  0  0  0  0  0  0  0  0
   39.3640   26.9960   42.7640 C   0  0  0  0  0  0  0  0  0  0  0  0
   39.0030   27.9960   42.6670 H   0  0  0  0  0  0  0  0  0  0  0  0
   38.4630   25.9940   42.4690 C   0  0  0  0  0  0  0  0  0  0  0  0
   37.1660   26.0170   42.0660 N   0  0  0  0  0  0  0  0  0  0  0  0
   36.7590   24.7540   41.9210 C   0  0  0  0  0  0  0  0  0  0  0  0
   35.7430   24.5260   41.6020 H   0  0  0  0  0  0  0  0  0  0  0  0
   37.7940   23.9240   42.2300 N   0  0  0  0  0  0  0  0  0  0  0  0
   38.8690   24.6700   42.5750 C   0  0  0  0  0  0  0  0  0  0  0  0
   40.1620   24.4160   42.9730 C   0  0  0  0  0  3  0  0  0  0  0  0
   36.6120   26.8880   41.9070 H   0  0  0  0  0  0  0  0  0  0  0  0
  1  2  2  0  0  0  0
  1  6  1  0  0  0  0
  2  3  1  0  0  0  0
  3  8  1  0  0  0  0
  3  4  2  0  0  0  0
  5  4  1  0  0  0  0
  5 32  1  0  0  0  0
  6  5  2  0  0  0  0
  7  2  1  0  0  0  0
  9 15  1  6  0  0  0
  9 10  1  0  0  0  0
  9  1  1  0  0  0  0
 10 17  1  0  0  0  0
 10 16  1  0  0  0  0
 11 19  1  0  0  0  0
 11 10  1  0  0  0  0
 12 20  1  0  0  0  0
 12 11  1  0  0  0  0
 13 12  1  0  0  0  0
 13 14  1  0  0  0  0
 14 24  1  6  0  0  0
 14  9  1  0  0  0  0
 14 25  1  0  0  0  0
 18 11  1  0  0  0  0
 21 12  1  0  0  0  0
 22 13  1  0  0  0  0
 23 13  1  0  0  0  0
 25 26  1  0  0  0  0
 25 29  1  0  0  0  0
 26 28  1  0  0  0  0
 26 27  2  0  0  0  0
 28 30  1  0  0  0  0
 31 28  1  0  0  0  0
 32 33  1  0  0  0  0
 33 38  1  0  0  0  0
 33 34  2  0  0  0  0
 34 39  1  0  0  0  0
 35 34  1  0  0  0  0
 35 40  1  0  0  0  0
 36 35  2  0  0  0  0
 37 32  2  0  0  0  0
 37 36  1  0  0  0  0
 42 41  1  0  0  0  0
 42 36  1  0  0  0  0
 43 42  2  0  0  0  0
 44 43  1  0  0  0  0
 45 50  2  0  0  0  0
 45 43  1  0  0  0  0
 46 45  1  0  0  0  0
 47 46  1  0  0  0  0
 47 49  2  0  0  0  0
 48 47  1  0  0  0  0
 49 50  1  0  0  0  0
 50 51  1  0  0  0  0
 51 41  2  0  0  0  0
 52 46  1  0  0  0  0
M  END
>  <minimizedAffinity>
-7.4176445

$$$$

 OpenBabel03252507343D

 52 56  0  0  1  0  0  0  0  0999 V2000
   39.2070   31.7850   40.5590 C   0  0  0  0  0  0  0  0  0  0  0  0
   39.3340   31.0300   41.7150 C   0  0  0  0  0  0  0  0  0  0  0  0
   38.9770   29.6610   41.6980 C   0  0  0  0  0  0  0  0  0  0  0  0
   38.5080   29.1590   40.4860 N   0  0  0  0  0  0  0  0  0  0  0  0
   38.4080   29.9430   39.4100 C   0  0  0  0  0  0  0  0  0  0  0  0
   38.7500   31.2320   39.4430 N   0  0  0  0  0  0  0  0  0  0  0  0
   39.6250   31.2100   42.7280 H   0  0  0  0  0  0  0  0  0  0  0  0
   39.0130   28.9420   42.4860 H   0  0  0  0  0  0  0  0  0  0  0  0
   39.6070   33.1770   40.6240 C   0  0  2  0  0  0  0  0  0  0  0  0
   38.5390   34.1080   39.9700 C   0  0  0  0  0  0  0  0  0  0  0  0
   38.9170   35.5300   40.2080 C   0  0  0  0  0  0  0  0  0  0  0  0
   40.3520   35.8730   39.9890 C   0  0  0  0  0  0  0  0  0  0  0  0
   41.2810   34.8540   40.4130 C   0  0  0  0  0  0  0  0  0  0  0  0
   40.8800   33.4270   39.9790 C   0  0  2  0  0  0  0  0  0  0  0  0
   39.5690   33.5120   41.6900 H   0  0  0  0  0  0  0  0  0  0  0  0
   38.3720   33.8330   38.9220 H   0  0  0  0  0  0  0  0  0  0  0  0
   37.6080   33.8560   40.5170 H   0  0  0  0  0  0  0  0  0  0  0  0
   38.4870   35.8030   41.1920 H   0  0  0  0  0  0  0  0  0  0  0  0
   38.3340   36.1490   39.4640 H   0  0  0  0  0  0  0  0  0  0  0  0
   40.5960   36.6200   39.2330 H   0  0  0  0  0  0  0  0  0  0  0  0
   40.4920   36.6260   40.8660 H   0  0  0  0  0  0  0  0  0  0  0  0
   41.5010   34.7470   41.5040 H   0  0  0  0  0  0  0  0  0  0  0  0
   42.2820   35.0340   39.9420 H   0  0  0  0  0  0  0  0  0  0  0  0
   41.7350   32.8520   40.3370 H   0  0  0  0  0  0  0  0  0  0  0  0
   40.7160   33.4090   38.5250 N   0  0  0  0  0  0  0  0  0  0  0  0
   41.5450   32.9210   37.5000 C   0  0  0  0  0  0  0  0  0  0  0  0
   41.6490   31.6730   37.2190 O   0  0  0  0  0  0  0  0  0  0  0  0
   42.2630   33.9260   36.7830 N   0  0  0  0  0  0  0  0  0  0  0  0
   39.8670   33.8860   38.0370 H   0  0  0  0  0  0  0  0  0  0  0  0
   41.9420   34.7830   36.3270 H   0  0  0  0  0  0  0  0  0  0  0  0
   43.2950   33.8260   36.6720 H   0  0  0  0  0  0  0  0  0  0  0  0
   37.8870   29.3580   38.1690 C   0  0  0  0  0  0  0  0  0  0  0  0
   38.7170   28.6900   37.2960 C   0  0  0  0  0  0  0  0  0  0  0  0
   38.3020   28.1150   36.1150 C   0  0  0  0  0  0  0  0  0  0  0  0
   36.9580   28.2510   35.8450 C   0  0  0  0  0  0  0  0  0  0  0  0
   36.1170   28.9140   36.7050 C   0  0  0  0  0  0  0  0  0  0  0  0
   36.5830   29.4680   37.8680 N   0  0  0  0  0  0  0  0  0  0  0  0
   39.7630   28.6250   37.5790 H   0  0  0  0  0  0  0  0  0  0  0  0
   38.9700   27.6050   35.4610 H   0  0  0  0  0  0  0  0  0  0  0  0
   36.5820   27.8180   34.9310 H   0  0  0  0  0  0  0  0  0  0  0  0
   34.2370   29.1640   35.1500 C   0  0  0  0  0  3  0  0  0  0  0  0
   34.6910   29.0750   36.4500 C   0  0  0  0  0  0  0  0  0  0  0  0
   33.7310   29.1480   37.4230 C   0  0  0  0  0  0  0  0  0  0  0  0
   34.0160   29.0860   38.4490 H   0  0  0  0  0  0  0  0  0  0  0  0
   32.3820   29.3010   37.1770 C   0  0  0  0  0  0  0  0  0  0  0  0
   31.3050   29.3920   37.9990 N   0  0  0  0  0  0  0  0  0  0  0  0
   30.2180   29.5320   37.2380 C   0  0  0  0  0  0  0  0  0  0  0  0
   29.2290   29.6240   37.6830 H   0  0  0  0  0  0  0  0  0  0  0  0
   30.5990   29.5310   35.9290 N   0  0  0  0  0  0  0  0  0  0  0  0
   31.9420   29.3890   35.8620 C   0  0  0  0  0  0  0  0  0  0  0  0
   32.8800   29.3180   34.8570 C   0  0  0  0  0  3  0  0  0  0  0  0
   31.3530   29.3550   39.0410 H   0  0  0  0  0  0  0  0  0  0  0  0
  1  9  1  0  0  0  0
  1  2  1  0  0  0  0
  2  7  1  0  0  0  0
  3  2  2  0  0  0  0
  3  8  1  0  0  0  0
  4  3  1  0  0  0  0
  5  6  1  0  0  0  0
  5  4  2  0  0  0  0
  6  1  2  0  0  0  0
  9 15  1  1  0  0  0
 10 11  1  0  0  0  0
 10 17  1  0  0  0  0
 10  9  1  0  0  0  0
 11 18  1  0  0  0  0
 12 11  1  0  0  0  0
 12 13  1  0  0  0  0
 12 21  1  0  0  0  0
 13 22  1  0  0  0  0
 14 24  1  1  0  0  0
 14 13  1  0  0  0  0
 14  9  1  0  0  0  0
 16 10  1  0  0  0  0
 19 11  1  0  0  0  0
 20 12  1  0  0  0  0
 23 13  1  0  0  0  0
 25 14  1  0  0  0  0
 26 25  1  0  0  0  0
 27 26  2  0  0  0  0
 28 26  1  0  0  0  0
 29 25  1  0  0  0  0
 30 28  1  0  0  0  0
 31 28  1  0  0  0  0
 32  5  1  0  0  0  0
 33 38  1  0  0  0  0
 33 32  2  0  0  0  0
 34 33  1  0  0  0  0
 35 34  2  0  0  0  0
 35 36  1  0  0  0  0
 36 37  2  0  0  0  0
 37 32  1  0  0  0  0
 39 34  1  0  0  0  0
 40 35  1  0  0  0  0
 41 42  1  0  0  0  0
 42 36  1  0  0  0  0
 42 43  2  0  0  0  0
 43 44  1  0  0  0  0
 45 43  1  0  0  0  0
 45 46  1  0  0  0  0
 46 52  1  0  0  0  0
 47 48  1  0  0  0  0
 47 46  1  0  0  0  0
 49 47  2  0  0  0  0
 50 49  1  0  0  0  0
 50 45  2  0  0  0  0
 51 41  2  0  0  0  0
 51 50  1  0  0  0  0
M  END
>  <minimizedAffinity>
-7.37442684

$$$$

 OpenBabel03252507343D

 52 56  0  0  1  0  0  0  0  0999 V2000
   38.4990   32.1430   40.7530 C   0  0  0  0  0  0  0  0  0  0  0  0
   37.2290   32.1860   40.1980 C   0  0  0  0  0  0  0  0  0  0  0  0
   36.4300   31.0180   40.1910 C   0  0  0  0  0  0  0  0  0  0  0  0
   36.9970   29.8770   40.7550 N   0  0  0  0  0  0  0  0  0  0  0  0
   38.2280   29.9040   41.2710 C   0  0  0  0  0  0  0  0  0  0  0  0
   38.9670   31.0150   41.2720 N   0  0  0  0  0  0  0  0  0  0  0  0
   36.6290   32.9150   39.6960 H   0  0  0  0  0  0  0  0  0  0  0  0
   35.4430   30.8760   39.8120 H   0  0  0  0  0  0  0  0  0  0  0  0
   39.2680   33.3710   40.7560 C   0  0  2  0  0  0  0  0  0  0  0  0
   38.4900   34.5330   40.0650 C   0  0  0  0  0  0  0  0  0  0  0  0
   39.2480   35.8050   40.2410 C   0  0  0  0  0  0  0  0  0  0  0  0
   40.7190   35.7290   40.0040 C   0  0  0  0  0  0  0  0  0  0  0  0
   41.3360   34.5120   40.4700 C   0  0  0  0  0  0  0  0  0  0  0  0
   40.5520   33.2340   40.0990 C   0  0  2  0  0  0  0  0  0  0  0  0
   39.3390   33.7470   41.8070 H   0  0  0  0  0  0  0  0  0  0  0  0
   38.2390   34.2720   39.0300 H   0  0  0  0  0  0  0  0  0  0  0  0
   37.5330   34.5710   40.6240 H   0  0  0  0  0  0  0  0  0  0  0  0
   38.9230   36.2250   41.2120 H   0  0  0  0  0  0  0  0  0  0  0  0
   38.8470   36.5290   39.4710 H   0  0  0  0  0  0  0  0  0  0  0  0
   41.1480   36.3480   39.2160 H   0  0  0  0  0  0  0  0  0  0  0  0
   41.0720   36.4490   40.8470 H   0  0  0  0  0  0  0  0  0  0  0  0
   41.5330   34.3930   41.5640 H   0  0  0  0  0  0  0  0  0  0  0  0
   42.3420   34.3890   39.9900 H   0  0  0  0  0  0  0  0  0  0  0  0
   41.2200   32.4600   40.4810 H   0  0  0  0  0  0  0  0  0  0  0  0
   40.3700   33.2020   38.6470 N   0  0  0  0  0  0  0  0  0  0  0  0
   41.1350   32.6130   37.6250 C   0  0  0  0  0  0  0  0  0  0  0  0
   41.1110   31.3550   37.3710 O   0  0  0  0  0  0  0  0  0  0  0  0
   41.9390   33.5270   36.8800 N   0  0  0  0  0  0  0  0  0  0  0  0
   39.5660   33.7500   38.1570 H   0  0  0  0  0  0  0  0  0  0  0  0
   41.6990   34.4020   36.4080 H   0  0  0  0  0  0  0  0  0  0  0  0
   42.9550   33.3220   36.7600 H   0  0  0  0  0  0  0  0  0  0  0  0
   38.7740   28.6630   41.8320 C   0  0  0  0  0  0  0  0  0  0  0  0
   38.5280   28.3060   43.1390 C   0  0  0  0  0  0  0  0  0  0  0  0
   39.0050   27.1590   43.7350 C   0  0  0  0  0  0  0  0  0  0  0  0
   39.7720   26.3590   42.9190 C   0  0  0  0  0  0  0  0  0  0  0  0
   40.0270   26.6990   41.6130 C   0  0  0  0  0  0  0  0  0  0  0  0
   39.5280   27.8540   41.0700 N   0  0  0  0  0  0  0  0  0  0  0  0
   37.9150   28.9900   43.7190 H   0  0  0  0  0  0  0  0  0  0  0  0
   38.7960   26.9120   44.7500 H   0  0  0  0  0  0  0  0  0  0  0  0
   40.1700   25.4470   43.3380 H   0  0  0  0  0  0  0  0  0  0  0  0
   40.2470   25.2770   39.6270 C   0  0  0  0  0  3  0  0  0  0  0  0
   40.8340   25.8750   40.7230 C   0  0  0  0  0  0  0  0  0  0  0  0
   42.1720   25.6350   40.8870 C   0  0  0  0  0  0  0  0  0  0  0  0
   42.6870   26.0680   41.7150 H   0  0  0  0  0  0  0  0  0  0  0  0
   42.9330   24.8530   40.0420 C   0  0  0  0  0  0  0  0  0  0  0  0
   44.2470   24.5090   40.0460 N   0  0  0  0  0  0  0  0  0  0  0  0
   44.4700   23.7240   38.9900 C   0  0  0  0  0  0  0  0  0  0  0  0
   45.4610   23.3240   38.7880 H   0  0  0  0  0  0  0  0  0  0  0  0
   43.2990   23.5670   38.3100 N   0  0  0  0  0  0  0  0  0  0  0  0
   42.3250   24.2590   38.9430 C   0  0  0  0  0  0  0  0  0  0  0  0
   40.9800   24.4790   38.7460 C   0  0  0  0  0  3  0  0  0  0  0  0
   44.9360   24.8210   40.7660 H   0  0  0  0  0  0  0  0  0  0  0  0
  1  9  1  0  0  0  0
  1  6  1  0  0  0  0
  2  1  2  0  0  0  0
  3  2  1  0  0  0  0
  3  4  2  0  0  0  0
  4  5  1  0  0  0  0
  5  6  2  0  0  0  0
  5 32  1  0  0  0  0
  7  2  1  0  0  0  0
  8  3  1  0  0  0  0
  9 15  1  1  0  0  0
 10 11  1  0  0  0  0
 10 17  1  0  0  0  0
 10  9  1  0  0  0  0
 11 18  1  0  0  0  0
 12 11  1  0  0  0  0
 12 13  1  0  0  0  0
 12 21  1  0  0  0  0
 13 22  1  0  0  0  0
 14 13  1  0  0  0  0
 14 24  1  1  0  0  0
 14  9  1  0  0  0  0
 16 10  1  0  0  0  0
 19 11  1  0  0  0  0
 20 12  1  0  0  0  0
 23 13  1  0  0  0  0
 25 14  1  0  0  0  0
 26 25  1  0  0  0  0
 27 26  2  0  0  0  0
 28 26  1  0  0  0  0
 29 25  1  0  0  0  0
 30 28  1  0  0  0  0
 31 28  1  0  0  0  0
 32 33  1  0  0  0  0
 33 38  1  0  0  0  0
 33 34  2  0  0  0  0
 34 39  1  0  0  0  0
 35 40  1  0  0  0  0
 35 34  1  0  0  0  0
 36 35  2  0  0  0  0
 37 36  1  0  0  0  0
 37 32  2  0  0  0  0
 41 42  1  0  0  0  0
 42 43  2  0  0  0  0
 42 36  1  0  0  0  0
 43 44  1  0  0  0  0
 45 46  1  0  0  0  0
 45 43  1  0  0  0  0
 46 52  1  0  0  0  0
 47 46  1  0  0  0  0
 48 47  1  0  0  0  0
 49 50  1  0  0  0  0
 49 47  2  0  0  0  0
 50 45  2  0  0  0  0
 51 50  1  0  0  0  0
 51 41  2  0  0  0  0
M  END
>  <minimizedAffinity>
-7.29062414

$$$$

 OpenBabel03252507343D

 52 56  0  0  1  0  0  0  0  0999 V2000
   39.3230   27.0200   40.4450 C   0  0  0  0  0  0  0  0  0  0  0  0
   39.3160   25.7270   39.9440 C   0  0  0  0  0  0  0  0  0  0  0  0
   39.9820   25.4460   38.7270 C   0  0  0  0  0  0  0  0  0  0  0  0
   40.6090   26.5210   38.1020 N   0  0  0  0  0  0  0  0  0  0  0  0
   40.5750   27.7430   38.6380 C   0  0  0  0  0  0  0  0  0  0  0  0
   39.9450   27.9910   39.7880 N   0  0  0  0  0  0  0  0  0  0  0  0
   38.8840   24.7910   40.2260 H   0  0  0  0  0  0  0  0  0  0  0  0
   40.0770   24.5190   38.2060 H   0  0  0  0  0  0  0  0  0  0  0  0
   38.6470   27.2510   41.7060 C   0  0  2  0  0  0  0  0  0  0  0  0
   37.3040   26.4610   41.7850 C   0  0  0  0  0  0  0  0  0  0  0  0
   36.7330   26.6000   43.1560 C   0  0  0  0  0  0  0  0  0  0  0  0
   36.7580   27.9730   43.7400 C   0  0  0  0  0  0  0  0  0  0  0  0
   37.9440   28.7320   43.4290 C   0  0  0  0  0  0  0  0  0  0  0  0
   38.3630   28.6510   41.9450 C   0  0  2  0  0  0  0  0  0  0  0  0
   39.2370   26.7660   42.5230 H   0  0  0  0  0  0  0  0  0  0  0  0
   36.6350   26.7470   40.9650 H   0  0  0  0  0  0  0  0  0  0  0  0
   37.6090   25.4120   41.5960 H   0  0  0  0  0  0  0  0  0  0  0  0
   37.1900   25.7940   43.7620 H   0  0  0  0  0  0  0  0  0  0  0  0
   35.6430   26.3140   43.0820 H   0  0  0  0  0  0  0  0  0  0  0  0
   35.8090   28.4370   44.0100 H   0  0  0  0  0  0  0  0  0  0  0  0
   37.0040   27.6920   44.8430 H   0  0  0  0  0  0  0  0  0  0  0  0
   38.8880   28.5080   43.9840 H   0  0  0  0  0  0  0  0  0  0  0  0
   37.7570   29.8210   43.6230 H   0  0  0  0  0  0  0  0  0  0  0  0
   39.2130   29.3350   41.9300 H   0  0  0  0  0  0  0  0  0  0  0  0
   37.2360   29.0820   41.1160 N   0  0  0  0  0  0  0  0  0  0  0  0
   36.8560   30.3510   40.6480 C   0  0  0  0  0  0  0  0  0  0  0  0
   37.4360   30.9370   39.6640 O   0  0  0  0  0  0  0  0  0  0  0  0
   35.7600   30.9410   41.3490 N   0  0  0  0  0  0  0  0  0  0  0  0
   36.4590   28.3880   40.7990 H   0  0  0  0  0  0  0  0  0  0  0  0
   34.8330   30.5760   41.5750 H   0  0  0  0  0  0  0  0  0  0  0  0
   35.8630   31.9120   41.7200 H   0  0  0  0  0  0  0  0  0  0  0  0
   41.2390   28.8370   37.9200 C   0  0  0  0  0  0  0  0  0  0  0  0
   41.9960   28.5920   36.7960 C   0  0  0  0  0  0  0  0  0  0  0  0
   42.6470   29.5650   36.0700 C   0  0  0  0  0  0  0  0  0  0  0  0
   42.4940   30.8460   36.5500 C   0  0  0  0  0  0  0  0  0  0  0  0
   41.7430   31.1080   37.6700 C   0  0  0  0  0  0  0  0  0  0  0  0
   41.1150   30.1020   38.3550 N   0  0  0  0  0  0  0  0  0  0  0  0
   42.0680   27.5550   36.4800 H   0  0  0  0  0  0  0  0  0  0  0  0
   43.2250   29.3410   35.2030 H   0  0  0  0  0  0  0  0  0  0  0  0
   42.9850   31.6460   36.0160 H   0  0  0  0  0  0  0  0  0  0  0  0
   42.2480   33.5070   37.6420 C   0  0  0  0  0  3  0  0  0  0  0  0
   41.5610   32.4520   38.2040 C   0  0  0  0  0  0  0  0  0  0  0  0
   40.7360   32.7670   39.2500 C   0  0  0  0  0  0  0  0  0  0  0  0
   40.1760   31.9950   39.7290 H   0  0  0  0  0  0  0  0  0  0  0  0
   40.5660   34.0400   39.7530 C   0  0  0  0  0  0  0  0  0  0  0  0
   39.8070   34.5320   40.7660 N   0  0  0  0  0  0  0  0  0  0  0  0
   40.0150   35.8490   40.8330 C   0  0  0  0  0  0  0  0  0  0  0  0
   39.5070   36.4600   41.5770 H   0  0  0  0  0  0  0  0  0  0  0  0
   40.9070   36.1990   39.8630 N   0  0  0  0  0  0  0  0  0  0  0  0
   41.2670   35.0920   39.1760 C   0  0  0  0  0  0  0  0  0  0  0  0
   42.1050   34.8120   38.1200 C   0  0  0  0  0  3  0  0  0  0  0  0
   39.1800   33.9540   41.3680 H   0  0  0  0  0  0  0  0  0  0  0  0
  1  9  1  0  0  0  0
  2  7  1  0  0  0  0
  2  1  1  0  0  0  0
  3  2  2  0  0  0  0
  4  5  2  0  0  0  0
  4  3  1  0  0  0  0
  5  6  1  0  0  0  0
  6  1  2  0  0  0  0
  8  3  1  0  0  0  0
  9 10  1  0  0  0  0
  9 14  1  0  0  0  0
  9 15  1  1  0  0  0
 10 11  1  0  0  0  0
 11 12  1  0  0  0  0
 11 18  1  0  0  0  0
 12 20  1  0  0  0  0
 12 21  1  0  0  0  0
 13 23  1  0  0  0  0
 13 12  1  0  0  0  0
 13 22  1  0  0  0  0
 14 24  1  6  0  0  0
 14 13  1  0  0  0  0
 16 10  1  0  0  0  0
 17 10  1  0  0  0  0
 19 11  1  0  0  0  0
 25 14  1  0  0  0  0
 26 25  1  0  0  0  0
 26 28  1  0  0  0  0
 27 26  2  0  0  0  0
 28 30  1  0  0  0  0
 28 31  1  0  0  0  0
 29 25  1  0  0  0  0
 32 37  1  0  0  0  0
 32  5  1  0  0  0  0
 33 32  2  0  0  0  0
 34 35  2  0  0  0  0
 34 33  1  0  0  0  0
 35 36  1  0  0  0  0
 36 42  1  0  0  0  0
 36 37  2  0  0  0  0
 38 33  1  0  0  0  0
 39 34  1  0  0  0  0
 40 35  1  0  0  0  0
 41 51  2  0  0  0  0
 41 42  1  0  0  0  0
 42 43  2  0  0  0  0
 43 44  1  0  0  0  0
 43 45  1  0  0  0  0
 45 46  1  0  0  0  0
 46 47  1  0  0  0  0
 46 52  1  0  0  0  0
 47 48  1  0  0  0  0
 49 47  2  0  0  0  0
 50 45  2  0  0  0  0
 50 49  1  0  0  0  0
 51 50  1  0  0  0  0
M  END
>  <minimizedAffinity>
-7.26900291

$$$$

 OpenBabel03252507343D

 52 56  0  0  1  0  0  0  0  0999 V2000
   41.4170   30.5920   41.3610 C   0  0  0  0  0  0  0  0  0  0  0  0
   42.5730   30.2660   42.0550 C   0  0  0  0  0  0  0  0  0  0  0  0
   42.5620   29.1760   42.9570 C   0  0  0  0  0  0  0  0  0  0  0  0
   41.3540   28.4940   43.0880 N   0  0  0  0  0  0  0  0  0  0  0  0
   40.2770   28.8620   42.3910 C   0  0  0  0  0  0  0  0  0  0  0  0
   40.3060   29.8910   41.5430 N   0  0  0  0  0  0  0  0  0  0  0  0
   43.5640   30.6590   42.1340 H   0  0  0  0  0  0  0  0  0  0  0  0
   43.3520   28.7900   43.5630 H   0  0  0  0  0  0  0  0  0  0  0  0
   41.4880   31.7020   40.4320 C   0  0  2  0  0  0  0  0  0  0  0  0
   41.8150   33.0390   41.1660 C   0  0  0  0  0  0  0  0  0  0  0  0
   42.0390   34.1120   40.1540 C   0  0  0  0  0  0  0  0  0  0  0  0
   41.0580   34.1680   39.0310 C   0  0  0  0  0  0  0  0  0  0  0  0
   40.6230   32.8780   38.5540 C   0  0  0  0  0  0  0  0  0  0  0  0
   40.2620   31.8870   39.6820 C   0  0  2  0  0  0  0  0  0  0  0  0
   42.3940   31.5750   39.7890 H   0  0  0  0  0  0  0  0  0  0  0  0
   41.0600   33.2610   41.9290 H   0  0  0  0  0  0  0  0  0  0  0  0
   42.7570   32.8130   41.7070 H   0  0  0  0  0  0  0  0  0  0  0  0
   43.1090   34.0550   39.8760 H   0  0  0  0  0  0  0  0  0  0  0  0
   41.9410   35.0960   40.7000 H   0  0  0  0  0  0  0  0  0  0  0  0
   40.4720   35.0780   38.9020 H   0  0  0  0  0  0  0  0  0  0  0  0
   41.7900   34.4450   38.1690 H   0  0  0  0  0  0  0  0  0  0  0  0
   41.3060   32.2900   37.8930 H   0  0  0  0  0  0  0  0  0  0  0  0
   39.6830   32.9950   37.9530 H   0  0  0  0  0  0  0  0  0  0  0  0
   39.9050   31.0330   39.1030 H   0  0  0  0  0  0  0  0  0  0  0  0
   39.2410   32.4990   40.5340 N   0  0  0  0  0  0  0  0  0  0  0  0
   37.8390   32.4090   40.5170 C   0  0  0  0  0  0  0  0  0  0  0  0
   37.1970   31.3910   40.9650 O   0  0  0  0  0  0  0  0  0  0  0  0
   37.1750   33.5480   39.9690 N   0  0  0  0  0  0  0  0  0  0  0  0
   39.4980   33.2160   41.3120 H   0  0  0  0  0  0  0  0  0  0  0  0
   37.2630   34.5440   40.1820 H   0  0  0  0  0  0  0  0  0  0  0  0
   36.4660   33.4040   39.2160 H   0  0  0  0  0  0  0  0  0  0  0  0
   39.0300   28.1150   42.5910 C   0  0  0  0  0  0  0  0  0  0  0  0
   38.1070   28.5100   43.5320 C   0  0  0  0  0  0  0  0  0  0  0  0
   36.9170   27.8600   43.7760 C   0  0  0  0  0  0  0  0  0  0  0  0
   36.6930   26.7490   42.9940 C   0  0  0  0  0  0  0  0  0  0  0  0
   37.6030   26.3410   42.0500 C   0  0  0  0  0  0  0  0  0  0  0  0
   38.7740   27.0250   41.8480 N   0  0  0  0  0  0  0  0  0  0  0  0
   38.3560   29.3960   44.1090 H   0  0  0  0  0  0  0  0  0  0  0  0
   36.2240   28.1930   44.5130 H   0  0  0  0  0  0  0  0  0  0  0  0
   35.7740   26.2040   43.1450 H   0  0  0  0  0  0  0  0  0  0  0  0
   36.5910   25.2670   40.0910 C   0  0  0  0  0  3  0  0  0  0  0  0
   37.3970   25.1700   41.2070 C   0  0  0  0  0  0  0  0  0  0  0  0
   37.9550   23.9410   41.4340 C   0  0  0  0  0  0  0  0  0  0  0  0
   38.5890   23.8000   42.2800 H   0  0  0  0  0  0  0  0  0  0  0  0
   37.7570   22.8350   40.6330 C   0  0  0  0  0  0  0  0  0  0  0  0
   38.2180   21.5600   40.7010 N   0  0  0  0  0  0  0  0  0  0  0  0
   37.7170   20.8850   39.6650 C   0  0  0  0  0  0  0  0  0  0  0  0
   37.9530   19.8340   39.5130 H   0  0  0  0  0  0  0  0  0  0  0  0
   36.9360   21.7290   38.9330 N   0  0  0  0  0  0  0  0  0  0  0  0
   36.9430   22.9500   39.5140 C   0  0  0  0  0  0  0  0  0  0  0  0
   36.3650   24.1730   39.2530 C   0  0  0  0  0  3  0  0  0  0  0  0
   38.8540   21.2010   41.4490 H   0  0  0  0  0  0  0  0  0  0  0  0
  1  6  2  0  0  0  0
  1  2  1  0  0  0  0
  2  7  1  0  0  0  0
  2  3  2  0  0  0  0
  3  4  1  0  0  0  0
  3  8  1  0  0  0  0
  5 32  1  0  0  0  0
  5  4  2  0  0  0  0
  6  5  1  0  0  0  0
  9 15  1  6  0  0  0
  9 10  1  0  0  0  0
  9  1  1  0  0  0  0
 10 17  1  0  0  0  0
 10 16  1  0  0  0  0
 11 19  1  0  0  0  0
 11 10  1  0  0  0  0
 12 11  1  0  0  0  0
 13 12  1  0  0  0  0
 13 14  1  0  0  0  0
 14 24  1  6  0  0  0
 14  9  1  0  0  0  0
 14 25  1  0  0  0  0
 18 11  1  0  0  0  0
 20 12  1  0  0  0  0
 21 12  1  0  0  0  0
 22 13  1  0  0  0  0
 23 13  1  0  0  0  0
 25 29  1  0  0  0  0
 26 25  1  0  0  0  0
 26 27  2  0  0  0  0
 28 30  1  0  0  0  0
 28 26  1  0  0  0  0
 31 28  1  0  0  0  0
 32 33  1  0  0  0  0
 33 34  2  0  0  0  0
 33 38  1  0  0  0  0
 34 39  1  0  0  0  0
 35 40  1  0  0  0  0
 35 34  1  0  0  0  0
 36 35  2  0  0  0  0
 37 36  1  0  0  0  0
 37 32  2  0  0  0  0
 41 42  1  0  0  0  0
 42 43  2  0  0  0  0
 42 36  1  0  0  0  0
 43 44  1  0  0  0  0
 45 46  1  0  0  0  0
 45 43  1  0  0  0  0
 46 52  1  0  0  0  0
 47 46  1  0  0  0  0
 48 47  1  0  0  0  0
 49 50  1  0  0  0  0
 49 47  2  0  0  0  0
 50 45  2  0  0  0  0
 51 50  1  0  0  0  0
 51 41  2  0  0  0  0
M  END
>  <minimizedAffinity>
-7.20440817

$$$$

 OpenBabel03252507343D

 52 56  0  0  1  0  0  0  0  0999 V2000
   39.7540   32.0750   40.9590 C   0  0  0  0  0  0  0  0  0  0  0  0
   40.6740   31.4100   41.7550 C   0  0  0  0  0  0  0  0  0  0  0  0
   40.5810   30.0060   41.9060 C   0  0  0  0  0  0  0  0  0  0  0  0
   39.5390   29.3780   41.2270 N   0  0  0  0  0  0  0  0  0  0  0  0
   38.6850   30.0800   40.4780 C   0  0  0  0  0  0  0  0  0  0  0  0
   38.7890   31.4030   40.3450 N   0  0  0  0  0  0  0  0  0  0  0  0
   41.5010   31.6840   42.3740 H   0  0  0  0  0  0  0  0  0  0  0  0
   41.1990   29.3430   42.4710 H   0  0  0  0  0  0  0  0  0  0  0  0
   39.9060   33.5090   40.8180 C   0  0  2  0  0  0  0  0  0  0  0  0
   38.6730   34.1460   40.1070 C   0  0  0  0  0  0  0  0  0  0  0  0
   38.8030   35.6320   40.1350 C   0  0  0  0  0  0  0  0  0  0  0  0
   40.1490   36.1780   39.7950 C   0  0  0  0  0  0  0  0  0  0  0  0
   41.2540   35.4000   40.2990 C   0  0  0  0  0  0  0  0  0  0  0  0
   41.0960   33.8790   40.0790 C   0  0  2  0  0  0  0  0  0  0  0  0
   39.8430   33.9780   41.8320 H   0  0  0  0  0  0  0  0  0  0  0  0
   38.5240   33.7050   39.1140 H   0  0  0  0  0  0  0  0  0  0  0  0
   37.8170   33.8200   40.7320 H   0  0  0  0  0  0  0  0  0  0  0  0
   38.3620   35.9610   41.0960 H   0  0  0  0  0  0  0  0  0  0  0  0
   38.0980   36.0330   39.3490 H   0  0  0  0  0  0  0  0  0  0  0  0
   40.2350   36.8440   38.9360 H   0  0  0  0  0  0  0  0  0  0  0  0
   40.1820   37.0580   40.5570 H   0  0  0  0  0  0  0  0  0  0  0  0
   41.5220   35.4840   41.3810 H   0  0  0  0  0  0  0  0  0  0  0  0
   42.1930   35.6800   39.7550 H   0  0  0  0  0  0  0  0  0  0  0  0
   42.0490   33.5120   40.4620 H   0  0  0  0  0  0  0  0  0  0  0  0
   40.8930   33.6330   38.6500 N   0  0  0  0  0  0  0  0  0  0  0  0
   41.7440   33.0980   37.6670 C   0  0  0  0  0  0  0  0  0  0  0  0
   41.9870   31.8420   37.5600 O   0  0  0  0  0  0  0  0  0  0  0  0
   42.3170   34.0630   36.7840 N   0  0  0  0  0  0  0  0  0  0  0  0
   39.9800   33.9340   38.1390 H   0  0  0  0  0  0  0  0  0  0  0  0
   41.8840   34.8030   36.2270 H   0  0  0  0  0  0  0  0  0  0  0  0
   43.3500   34.0650   36.6410 H   0  0  0  0  0  0  0  0  0  0  0  0
   37.5970   29.3610   39.8050 C   0  0  0  0  0  0  0  0  0  0  0  0
   36.5760   30.0410   39.1810 C   0  0  0  0  0  0  0  0  0  0  0  0
   35.5230   29.4360   38.5290 C   0  0  0  0  0  0  0  0  0  0  0  0
   35.5510   28.0590   38.5380 C   0  0  0  0  0  0  0  0  0  0  0  0
   36.5620   27.3650   39.1560 C   0  0  0  0  0  0  0  0  0  0  0  0
   37.5870   28.0180   39.7910 N   0  0  0  0  0  0  0  0  0  0  0  0
   36.6250   31.1250   39.2170 H   0  0  0  0  0  0  0  0  0  0  0  0
   34.7490   29.9920   38.0550 H   0  0  0  0  0  0  0  0  0  0  0  0
   34.7480   27.5370   38.0410 H   0  0  0  0  0  0  0  0  0  0  0  0
   35.7820   25.1780   38.3690 C   0  0  0  0  0  3  0  0  0  0  0  0
   36.6210   25.9100   39.1840 C   0  0  0  0  0  0  0  0  0  0  0  0
   37.4670   25.1810   39.9760 C   0  0  0  0  0  0  0  0  0  0  0  0
   38.1410   25.6870   40.6300 H   0  0  0  0  0  0  0  0  0  0  0  0
   37.5190   23.8030   40.0000 C   0  0  0  0  0  0  0  0  0  0  0  0
   38.2780   22.9260   40.7060 N   0  0  0  0  0  0  0  0  0  0  0  0
   37.9240   21.6910   40.3450 C   0  0  0  0  0  0  0  0  0  0  0  0
   38.4040   20.8190   40.7850 H   0  0  0  0  0  0  0  0  0  0  0  0
   36.9400   21.7770   39.4060 N   0  0  0  0  0  0  0  0  0  0  0  0
   36.6680   23.0810   39.1720 C   0  0  0  0  0  0  0  0  0  0  0  0
   35.8030   23.7810   38.3600 C   0  0  0  0  0  3  0  0  0  0  0  0
   39.0040   23.2020   41.4050 H   0  0  0  0  0  0  0  0  0  0  0  0
  1  2  1  0  0  0  0
  2  3  2  0  0  0  0
  2  7  1  0  0  0  0
  3  8  1  0  0  0  0
  4  3  1  0  0  0  0
  5  4  2  0  0  0  0
  6  5  1  0  0  0  0
  6  1  2  0  0  0  0
  9  1  1  0  0  0  0
  9 15  1  1  0  0  0
 10 11  1  0  0  0  0
 10 17  1  0  0  0  0
 10  9  1  0  0  0  0
 11 18  1  0  0  0  0
 12 11  1  0  0  0  0
 12 13  1  0  0  0  0
 12 21  1  0  0  0  0
 13 22  1  0  0  0  0
 14 13  1  0  0  0  0
 14 24  1  1  0  0  0
 14  9  1  0  0  0  0
 16 10  1  0  0  0  0
 19 11  1  0  0  0  0
 20 12  1  0  0  0  0
 23 13  1  0  0  0  0
 25 14  1  0  0  0  0
 26 25  1  0  0  0  0
 27 26  2  0  0  0  0
 28 26  1  0  0  0  0
 29 25  1  0  0  0  0
 30 28  1  0  0  0  0
 31 28  1  0  0  0  0
 32  5  1  0  0  0  0
 33 38  1  0  0  0  0
 33 32  2  0  0  0  0
 34 35  2  0  0  0  0
 34 33  1  0  0  0  0
 35 36  1  0  0  0  0
 36 42  1  0  0  0  0
 36 37  2  0  0  0  0
 37 32  1  0  0  0  0
 39 34  1  0  0  0  0
 40 35  1  0  0  0  0
 41 42  1  0  0  0  0
 42 43  2  0  0  0  0
 43 45  1  0  0  0  0
 43 44  1  0  0  0  0
 45 46  1  0  0  0  0
 46 52  1  0  0  0  0
 47 46  1  0  0  0  0
 47 48  1  0  0  0  0
 49 47  2  0  0  0  0
 50 49  1  0  0  0  0
 50 45  2  0  0  0  0
 51 41  2  0  0  0  0
 51 50  1  0  0  0  0
M  END
>  <minimizedAffinity>
-7.1166749

$$$$

 OpenBabel03252507343D

 52 56  0  0  1  0  0  0  0  0999 V2000
   39.2970   32.1390   41.2140 C   0  0  0  0  0  0  0  0  0  0  0  0
   39.8220   31.4150   42.2740 C   0  0  0  0  0  0  0  0  0  0  0  0
   39.2930   30.1370   42.5770 C   0  0  0  0  0  0  0  0  0  0  0  0
   38.2530   29.6900   41.7650 N   0  0  0  0  0  0  0  0  0  0  0  0
   37.7930   30.4410   40.7610 C   0  0  0  0  0  0  0  0  0  0  0  0
   38.3040   31.6420   40.4890 N   0  0  0  0  0  0  0  0  0  0  0  0
   40.5670   31.5720   43.0240 H   0  0  0  0  0  0  0  0  0  0  0  0
   39.5760   29.4520   43.3450 H   0  0  0  0  0  0  0  0  0  0  0  0
   39.8890   33.4310   40.9320 C   0  0  2  0  0  0  0  0  0  0  0  0
   38.8280   34.4370   40.3880 C   0  0  0  0  0  0  0  0  0  0  0  0
   39.4470   35.7890   40.2710 C   0  0  0  0  0  0  0  0  0  0  0  0
   40.8090   35.8350   39.6650 C   0  0  0  0  0  0  0  0  0  0  0  0
   41.6660   34.7360   40.0380 C   0  0  0  0  0  0  0  0  0  0  0  0
   40.9730   33.3570   39.9740 C   0  0  2  0  0  0  0  0  0  0  0  0
   40.1760   33.9140   41.8990 H   0  0  0  0  0  0  0  0  0  0  0  0
   38.3580   34.0530   39.4750 H   0  0  0  0  0  0  0  0  0  0  0  0
   38.0440   34.4360   41.1730 H   0  0  0  0  0  0  0  0  0  0  0  0
   39.3280   36.2680   41.2620 H   0  0  0  0  0  0  0  0  0  0  0  0
   38.7820   36.3910   39.5850 H   0  0  0  0  0  0  0  0  0  0  0  0
   40.9490   36.4130   38.7510 H   0  0  0  0  0  0  0  0  0  0  0  0
   41.2740   36.6660   40.3350 H   0  0  0  0  0  0  0  0  0  0  0  0
   42.1440   34.7450   41.0480 H   0  0  0  0  0  0  0  0  0  0  0  0
   42.5260   34.6670   39.3210 H   0  0  0  0  0  0  0  0  0  0  0  0
   41.8040   32.6940   40.2200 H   0  0  0  0  0  0  0  0  0  0  0  0
   40.4370   33.1650   38.6250 N   0  0  0  0  0  0  0  0  0  0  0  0
   40.5840   32.1120   37.7050 C   0  0  0  0  0  0  0  0  0  0  0  0
   39.9510   31.0000   37.8080 O   0  0  0  0  0  0  0  0  0  0  0  0
   41.4900   32.3780   36.6350 N   0  0  0  0  0  0  0  0  0  0  0  0
   39.8580   33.9390   38.1220 H   0  0  0  0  0  0  0  0  0  0  0  0
   41.5460   33.1620   35.9810 H   0  0  0  0  0  0  0  0  0  0  0  0
   42.2490   31.6900   36.4340 H   0  0  0  0  0  0  0  0  0  0  0  0
   36.6810   29.9200   39.9570 C   0  0  0  0  0  0  0  0  0  0  0  0
   35.5210   29.4780   40.5510 C   0  0  0  0  0  0  0  0  0  0  0  0
   34.4370   28.9770   39.8640 C   0  0  0  0  0  0  0  0  0  0  0  0
   34.5850   28.9430   38.4950 C   0  0  0  0  0  0  0  0  0  0  0  0
   35.7350   29.3810   37.8860 C   0  0  0  0  0  0  0  0  0  0  0  0
   36.7850   29.8700   38.6190 N   0  0  0  0  0  0  0  0  0  0  0  0
   35.4810   29.5370   41.6350 H   0  0  0  0  0  0  0  0  0  0  0  0
   33.5530   28.6430   40.3540 H   0  0  0  0  0  0  0  0  0  0  0  0
   33.7630   28.5600   37.9090 H   0  0  0  0  0  0  0  0  0  0  0  0
   35.7430   28.1790   35.7480 C   0  0  0  0  0  3  0  0  0  0  0  0
   35.9230   29.3590   36.4410 C   0  0  0  0  0  0  0  0  0  0  0  0
   36.2750   30.4450   35.6870 C   0  0  0  0  0  0  0  0  0  0  0  0
   36.4300   31.3880   36.1620 H   0  0  0  0  0  0  0  0  0  0  0  0
   36.4530   30.4200   34.3190 C   0  0  0  0  0  0  0  0  0  0  0  0
   36.7950   31.3800   33.4210 N   0  0  0  0  0  0  0  0  0  0  0  0
   36.8270   30.8180   32.2110 C   0  0  0  0  0  0  0  0  0  0  0  0
   37.0800   31.4020   31.3280 H   0  0  0  0  0  0  0  0  0  0  0  0
   36.5050   29.4990   32.3340 N   0  0  0  0  0  0  0  0  0  0  0  0
   36.2670   29.2240   33.6370 C   0  0  0  0  0  0  0  0  0  0  0  0
   35.9110   28.1100   34.3630 C   0  0  0  0  0  3  0  0  0  0  0  0
   36.9930   32.3750   33.6670 H   0  0  0  0  0  0  0  0  0  0  0  0
  1  2  1  0  0  0  0
  2  3  2  0  0  0  0
  2  7  1  0  0  0  0
  3  8  1  0  0  0  0
  4  3  1  0  0  0  0
  5  4  2  0  0  0  0
  6  5  1  0  0  0  0
  6  1  2  0  0  0  0
  9  1  1  0  0  0  0
  9 15  1  1  0  0  0
 10  9  1  0  0  0  0
 10 17  1  0  0  0  0
 11 10  1  0  0  0  0
 11 18  1  0  0  0  0
 12 13  1  0  0  0  0
 12 11  1  0  0  0  0
 12 21  1  0  0  0  0
 13 22  1  0  0  0  0
 14 13  1  0  0  0  0
 14 24  1  1  0  0  0
 14  9  1  0  0  0  0
 16 10  1  0  0  0  0
 19 11  1  0  0  0  0
 20 12  1  0  0  0  0
 23 13  1  0  0  0  0
 25 14  1  0  0  0  0
 26 27  2  0  0  0  0
 26 25  1  0  0  0  0
 28 26  1  0  0  0  0
 29 25  1  0  0  0  0
 30 28  1  0  0  0  0
 31 28  1  0  0  0  0
 32 33  1  0  0  0  0
 32  5  1  0  0  0  0
 33 38  1  0  0  0  0
 34 39  1  0  0  0  0
 34 33  2  0  0  0  0
 35 34  1  0  0  0  0
 36 35  2  0  0  0  0
 36 37  1  0  0  0  0
 37 32  2  0  0  0  0
 40 35  1  0  0  0  0
 41 42  1  0  0  0  0
 42 36  1  0  0  0  0
 43 44  1  0  0  0  0
 43 42  2  0  0  0  0
 45 43  1  0  0  0  0
 46 52  1  0  0  0  0
 46 45  1  0  0  0  0
 47 49  2  0  0  0  0
 47 46  1  0  0  0  0
 48 47  1  0  0  0  0
 49 50  1  0  0  0  0
 50 45  2  0  0  0  0
 50 51  1  0  0  0  0
 51 41  2  0  0  0  0
M  END
>  <minimizedAffinity>
-7.06269312

$$$$
