
 OpenBabel03252504543D

 24 26  0  0  0  0  0  0  0  0999 V2000
   36.2600   27.9760   42.1600 C   0  0  0  0  0  0  0  0  0  0  0  0
   35.3880   27.3740   41.8680 H   0  0  0  0  0  0  0  0  0  0  0  0
   35.9480   28.5280   43.0730 H   0  0  0  0  0  0  0  0  0  0  0  0
   36.7860   28.5760   39.8350 C   0  0  0  0  0  3  0  0  0  0  0  0
   36.5420   29.0060   41.1230 C   0  0  0  0  0  0  0  0  0  0  0  0
   36.5620   30.3530   41.4240 C   0  0  0  0  0  0  0  0  0  0  0  0
   36.3690   30.7060   42.4410 H   0  0  0  0  0  0  0  0  0  0  0  0
   36.8260   31.2920   40.4450 C   0  0  0  0  0  0  0  0  0  0  0  0
   36.9100   32.6510   40.4430 N   0  0  0  0  0  0  0  0  0  0  0  0
   37.2020   33.0050   39.1580 C   0  0  0  0  0  0  0  0  0  0  0  0
   37.3330   34.0320   38.8400 H   0  0  0  0  0  0  0  0  0  0  0  0
   37.2980   31.9010   38.3820 N   0  0  0  0  0  0  0  0  0  0  0  0
   37.0650   30.8440   39.1790 C   0  0  0  0  0  0  0  0  0  0  0  0
   37.0550   29.5000   38.8280 C   0  0  0  0  0  3  0  0  0  0  0  0
   36.7740   33.2780   41.2690 H   0  0  0  0  0  0  0  0  0  0  0  0
   39.5090   26.9490   43.6500 C   0  0  0  0  0  0  0  0  0  0  0  0
   38.3850   27.7320   43.3040 C   0  0  0  0  0  0  0  0  0  0  0  0
   37.4140   27.1520   42.5080 C   0  0  0  0  0  0  0  0  0  0  0  0
   37.5810   25.8610   42.0940 N   0  0  0  0  0  0  0  0  0  0  0  0
   38.6710   25.1470   42.4470 C   0  0  0  0  0  0  0  0  0  0  0  0
   39.6250   25.6790   43.2150 N   0  0  0  0  0  0  0  0  0  0  0  0
   40.2960   27.3570   44.2700 H   0  0  0  0  0  0  0  0  0  0  0  0
   38.3530   28.7350   43.6810 H   0  0  0  0  0  0  0  0  0  0  0  0
   38.7520   24.1110   42.0850 H   0  0  0  0  0  0  0  0  0  0  0  0
  1 18  1  0  0  0  0
  1  3  1  0  0  0  0
  2  1  1  0  0  0  0
  4  5  1  0  0  0  0
  5  6  2  0  0  0  0
  5  1  1  0  0  0  0
  6  7  1  0  0  0  0
  8  6  1  0  0  0  0
  9  8  1  0  0  0  0
  9 15  1  0  0  0  0
 10  9  1  0  0  0  0
 11 10  1  0  0  0  0
 12 10  2  0  0  0  0
 12 13  1  0  0  0  0
 13  8  2  0  0  0  0
 14 13  1  0  0  0  0
 14  4  2  0  0  0  0
 16 22  1  0  0  0  0
 17 16  1  0  0  0  0
 17 23  1  0  0  0  0
 18 17  2  0  0  0  0
 19 20  2  0  0  0  0
 19 18  1  0  0  0  0
 20 21  1  0  0  0  0
 21 16  2  0  0  0  0
 24 20  1  0  0  0  0
M  END
>  <minimizedAffinity>
-5.1219635

$$$$

 OpenBabel03252504543D

 24 26  0  0  0  0  0  0  0  0999 V2000
   37.4220   28.3390   43.5210 C   0  0  0  0  0  0  0  0  0  0  0  0
   36.3290   28.2460   43.6020 H   0  0  0  0  0  0  0  0  0  0  0  0
   37.7700   28.6370   44.5330 H   0  0  0  0  0  0  0  0  0  0  0  0
   39.0670   29.9410   42.6460 C   0  0  0  0  0  3  0  0  0  0  0  0
   37.7750   29.4600   42.6080 C   0  0  0  0  0  0  0  0  0  0  0  0
   36.8510   30.0110   41.7430 C   0  0  0  0  0  0  0  0  0  0  0  0
   35.8240   29.6370   41.7030 H   0  0  0  0  0  0  0  0  0  0  0  0
   37.2010   31.0510   40.9030 C   0  0  0  0  0  0  0  0  0  0  0  0
   36.5240   31.7760   39.9700 N   0  0  0  0  0  0  0  0  0  0  0  0
   37.4230   32.6730   39.4710 C   0  0  0  0  0  0  0  0  0  0  0  0
   37.1760   33.3960   38.7030 H   0  0  0  0  0  0  0  0  0  0  0  0
   38.6230   32.5140   40.0730 N   0  0  0  0  0  0  0  0  0  0  0  0
   38.4840   31.5110   40.9580 C   0  0  0  0  0  0  0  0  0  0  0  0
   39.4480   30.9890   41.8100 C   0  0  0  0  0  3  0  0  0  0  0  0
   35.5200   31.6530   39.7040 H   0  0  0  0  0  0  0  0  0  0  0  0
   37.9970   25.0110   41.9640 C   0  0  0  0  0  0  0  0  0  0  0  0
   37.3910   26.2410   42.3030 C   0  0  0  0  0  0  0  0  0  0  0  0
   38.0640   27.0720   43.1810 C   0  0  0  0  0  0  0  0  0  0  0  0
   39.2710   26.6720   43.6770 N   0  0  0  0  0  0  0  0  0  0  0  0
   39.8170   25.4880   43.3270 C   0  0  0  0  0  0  0  0  0  0  0  0
   39.1910   24.6640   42.4820 N   0  0  0  0  0  0  0  0  0  0  0  0
   37.5110   24.3260   41.2820 H   0  0  0  0  0  0  0  0  0  0  0  0
   36.4400   26.4570   41.8580 H   0  0  0  0  0  0  0  0  0  0  0  0
   40.7930   25.2190   43.7580 H   0  0  0  0  0  0  0  0  0  0  0  0
  1  2  1  0  0  0  0
  1  3  1  0  0  0  0
  5  4  1  0  0  0  0
  5  1  1  0  0  0  0
  6  5  2  0  0  0  0
  7  6  1  0  0  0  0
  8 13  2  0  0  0  0
  8  6  1  0  0  0  0
  9  8  1  0  0  0  0
 10  9  1  0  0  0  0
 10 12  2  0  0  0  0
 11 10  1  0  0  0  0
 12 13  1  0  0  0  0
 13 14  1  0  0  0  0
 14  4  2  0  0  0  0
 15  9  1  0  0  0  0
 16 17  2  0  0  0  0
 16 21  1  0  0  0  0
 17 18  1  0  0  0  0
 18  1  1  0  0  0  0
 18 19  2  0  0  0  0
 20 19  1  0  0  0  0
 20 24  1  0  0  0  0
 21 20  2  0  0  0  0
 22 16  1  0  0  0  0
 23 17  1  0  0  0  0
M  END
>  <minimizedAffinity>
-5.0361805

$$$$

 OpenBabel03252504543D

 24 26  0  0  0  0  0  0  0  0999 V2000
   37.4810   28.2720   43.5910 C   0  0  0  0  0  0  0  0  0  0  0  0
   36.3870   28.1760   43.6590 H   0  0  0  0  0  0  0  0  0  0  0  0
   37.8150   28.5740   44.6070 H   0  0  0  0  0  0  0  0  0  0  0  0
   36.9280   29.7580   41.7130 C   0  0  0  0  0  3  0  0  0  0  0  0
   37.8410   29.3920   42.6800 C   0  0  0  0  0  0  0  0  0  0  0  0
   39.0480   30.0540   42.7850 C   0  0  0  0  0  0  0  0  0  0  0  0
   39.7790   29.7730   43.5480 H   0  0  0  0  0  0  0  0  0  0  0  0
   39.3620   31.0910   41.9280 C   0  0  0  0  0  0  0  0  0  0  0  0
   40.4440   31.9080   41.7950 N   0  0  0  0  0  0  0  0  0  0  0  0
   40.1560   32.7420   40.7550 C   0  0  0  0  0  0  0  0  0  0  0  0
   40.8330   33.5120   40.4060 H   0  0  0  0  0  0  0  0  0  0  0  0
   38.9320   32.4560   40.2540 N   0  0  0  0  0  0  0  0  0  0  0  0
   38.4440   31.4360   40.9800 C   0  0  0  0  0  0  0  0  0  0  0  0
   37.2170   30.8000   40.8350 C   0  0  0  0  0  3  0  0  0  0  0  0
   41.3090   31.8840   42.3820 H   0  0  0  0  0  0  0  0  0  0  0  0
   38.0300   24.8860   42.1560 C   0  0  0  0  0  0  0  0  0  0  0  0
   37.4170   26.1150   42.4830 C   0  0  0  0  0  0  0  0  0  0  0  0
   38.1310   27.0060   43.2630 C   0  0  0  0  0  0  0  0  0  0  0  0
   39.3860   26.6640   43.6800 N   0  0  0  0  0  0  0  0  0  0  0  0
   39.9370   25.4770   43.3450 C   0  0  0  0  0  0  0  0  0  0  0  0
   39.2720   24.5970   42.5940 N   0  0  0  0  0  0  0  0  0  0  0  0
   37.5130   24.1540   41.5490 H   0  0  0  0  0  0  0  0  0  0  0  0
   36.4280   26.2840   42.1050 H   0  0  0  0  0  0  0  0  0  0  0  0
   40.9510   25.2560   43.7090 H   0  0  0  0  0  0  0  0  0  0  0  0
  1  2  1  0  0  0  0
  1  3  1  0  0  0  0
  4  5  1  0  0  0  0
  5  6  2  0  0  0  0
  5  1  1  0  0  0  0
  6  7  1  0  0  0  0
  8  6  1  0  0  0  0
  9  8  1  0  0  0  0
  9 15  1  0  0  0  0
 10  9  1  0  0  0  0
 11 10  1  0  0  0  0
 12 10  2  0  0  0  0
 12 13  1  0  0  0  0
 13  8  2  0  0  0  0
 14 13  1  0  0  0  0
 14  4  2  0  0  0  0
 16 17  2  0  0  0  0
 16 21  1  0  0  0  0
 17 18  1  0  0  0  0
 18  1  1  0  0  0  0
 18 19  2  0  0  0  0
 20 19  1  0  0  0  0
 20 24  1  0  0  0  0
 21 20  2  0  0  0  0
 22 16  1  0  0  0  0
 23 17  1  0  0  0  0
M  END
>  <minimizedAffinity>
-4.87993622

$$$$

 OpenBabel03252504543D

 24 26  0  0  0  0  0  0  0  0999 V2000
   35.7210   28.7800   41.0730 C   0  0  0  0  0  0  0  0  0  0  0  0
   34.9550   29.0930   41.7970 H   0  0  0  0  0  0  0  0  0  0  0  0
   35.2040   28.0910   40.3710 H   0  0  0  0  0  0  0  0  0  0  0  0
   37.3880   28.5210   42.8610 C   0  0  0  0  0  3  0  0  0  0  0  0
   36.7710   27.9750   41.7550 C   0  0  0  0  0  0  0  0  0  0  0  0
   37.1270   26.7180   41.3070 C   0  0  0  0  0  0  0  0  0  0  0  0
   36.6440   26.2750   40.4310 H   0  0  0  0  0  0  0  0  0  0  0  0
   38.1050   25.9880   41.9550 C   0  0  0  0  0  0  0  0  0  0  0  0
   38.6520   24.7580   41.7500 N   0  0  0  0  0  0  0  0  0  0  0  0
   39.5820   24.5940   42.7350 C   0  0  0  0  0  0  0  0  0  0  0  0
   40.1890   23.7030   42.8350 H   0  0  0  0  0  0  0  0  0  0  0  0
   39.6150   25.6880   43.5300 N   0  0  0  0  0  0  0  0  0  0  0  0
   38.7020   26.5470   43.0460 C   0  0  0  0  0  0  0  0  0  0  0  0
   38.3770   27.8070   43.5340 C   0  0  0  0  0  3  0  0  0  0  0  0
   38.3960   24.0890   40.9880 H   0  0  0  0  0  0  0  0  0  0  0  0
   36.9720   30.7580   38.1830 C   0  0  0  0  0  0  0  0  0  0  0  0
   36.4670   29.6840   38.9490 C   0  0  0  0  0  0  0  0  0  0  0  0
   36.2440   29.9020   40.2970 C   0  0  0  0  0  0  0  0  0  0  0  0
   36.5190   31.1310   40.8240 N   0  0  0  0  0  0  0  0  0  0  0  0
   37.0020   32.1310   40.0560 C   0  0  0  0  0  0  0  0  0  0  0  0
   37.2270   31.9520   38.7530 N   0  0  0  0  0  0  0  0  0  0  0  0
   37.1650   30.6390   37.1250 H   0  0  0  0  0  0  0  0  0  0  0  0
   36.2860   28.7600   38.4370 H   0  0  0  0  0  0  0  0  0  0  0  0
   37.2040   33.1010   40.5360 H   0  0  0  0  0  0  0  0  0  0  0  0
  1  5  1  0  0  0  0
  1  2  1  0  0  0  0
  3  1  1  0  0  0  0
  4 14  1  0  0  0  0
  5  4  2  0  0  0  0
  6  5  1  0  0  0  0
  6  8  2  0  0  0  0
  7  6  1  0  0  0  0
  8 13  1  0  0  0  0
  9  8  1  0  0  0  0
  9 10  1  0  0  0  0
 10 11  1  0  0  0  0
 10 12  2  0  0  0  0
 13 12  1  0  0  0  0
 13 14  2  0  0  0  0
 15  9  1  0  0  0  0
 16 21  2  0  0  0  0
 16 17  1  0  0  0  0
 17 18  2  0  0  0  0
 18 19  1  0  0  0  0
 18  1  1  0  0  0  0
 20 24  1  0  0  0  0
 20 19  2  0  0  0  0
 21 20  1  0  0  0  0
 22 16  1  0  0  0  0
 23 17  1  0  0  0  0
M  END
>  <minimizedAffinity>
-4.85909414

$$$$

 OpenBabel03252504543D

 24 26  0  0  0  0  0  0  0  0999 V2000
   37.6900   28.5840   43.5670 C   0  0  0  0  0  0  0  0  0  0  0  0
   38.2600   28.7700   44.4890 H   0  0  0  0  0  0  0  0  0  0  0  0
   36.6220   28.5780   43.8730 H   0  0  0  0  0  0  0  0  0  0  0  0
   39.1890   26.6430   43.3970 C   0  0  0  0  0  3  0  0  0  0  0  0
   37.9860   27.2210   43.0480 C   0  0  0  0  0  0  0  0  0  0  0  0
   37.0940   26.5420   42.2420 C   0  0  0  0  0  0  0  0  0  0  0  0
   36.1370   26.9890   41.9590 H   0  0  0  0  0  0  0  0  0  0  0  0
   37.3890   25.2770   41.7710 C   0  0  0  0  0  0  0  0  0  0  0  0
   36.7250   24.3880   40.9810 N   0  0  0  0  0  0  0  0  0  0  0  0
   37.5420   23.3000   40.8740 C   0  0  0  0  0  0  0  0  0  0  0  0
   37.2850   22.4180   40.3010 H   0  0  0  0  0  0  0  0  0  0  0  0
   38.6810   23.5040   41.5760 N   0  0  0  0  0  0  0  0  0  0  0  0
   38.5840   24.7250   42.1280 C   0  0  0  0  0  0  0  0  0  0  0  0
   39.5120   25.3690   42.9370 C   0  0  0  0  0  3  0  0  0  0  0  0
   35.7810   24.5290   40.5540 H   0  0  0  0  0  0  0  0  0  0  0  0
   39.3020   31.2740   41.5680 C   0  0  0  0  0  0  0  0  0  0  0  0
   39.1130   30.2450   42.5160 C   0  0  0  0  0  0  0  0  0  0  0  0
   37.8670   29.6460   42.5800 C   0  0  0  0  0  0  0  0  0  0  0  0
   36.8840   30.0710   41.7330 N   0  0  0  0  0  0  0  0  0  0  0  0
   37.1060   31.0590   40.8400 C   0  0  0  0  0  0  0  0  0  0  0  0
   38.2970   31.6560   40.7550 N   0  0  0  0  0  0  0  0  0  0  0  0
   40.2570   31.7750   41.4780 H   0  0  0  0  0  0  0  0  0  0  0  0
   39.9510   29.9880   43.1330 H   0  0  0  0  0  0  0  0  0  0  0  0
   36.2760   31.3600   40.1820 H   0  0  0  0  0  0  0  0  0  0  0  0
  1  3  1  0  0  0  0
  1  2  1  0  0  0  0
  5  4  1  0  0  0  0
  5  1  1  0  0  0  0
  6  5  2  0  0  0  0
  7  6  1  0  0  0  0
  8 13  2  0  0  0  0
  8  6  1  0  0  0  0
  9  8  1  0  0  0  0
 10  9  1  0  0  0  0
 10 12  2  0  0  0  0
 11 10  1  0  0  0  0
 12 13  1  0  0  0  0
 13 14  1  0  0  0  0
 14  4  2  0  0  0  0
 15  9  1  0  0  0  0
 16 17  1  0  0  0  0
 17 18  2  0  0  0  0
 17 23  1  0  0  0  0
 18  1  1  0  0  0  0
 19 18  1  0  0  0  0
 20 19  2  0  0  0  0
 21 20  1  0  0  0  0
 21 16  2  0  0  0  0
 22 16  1  0  0  0  0
 24 20  1  0  0  0  0
M  END
>  <minimizedAffinity>
-4.8368721

$$$$

 OpenBabel03252504543D

 24 26  0  0  0  0  0  0  0  0999 V2000
   37.0790   31.6930   39.1850 C   0  0  0  0  0  0  0  0  0  0  0  0
   36.2680   32.3780   39.4710 H   0  0  0  0  0  0  0  0  0  0  0  0
   36.8410   31.3670   38.1500 H   0  0  0  0  0  0  0  0  0  0  0  0
   36.9210   29.2500   39.3960 C   0  0  0  0  0  3  0  0  0  0  0  0
   37.0390   30.4690   40.0300 C   0  0  0  0  0  0  0  0  0  0  0  0
   37.1180   30.5350   41.4070 C   0  0  0  0  0  0  0  0  0  0  0  0
   37.2130   31.4960   41.9200 H   0  0  0  0  0  0  0  0  0  0  0  0
   37.0790   29.3860   42.1730 C   0  0  0  0  0  0  0  0  0  0  0  0
   37.1340   29.1440   43.5120 N   0  0  0  0  0  0  0  0  0  0  0  0
   37.0480   27.7900   43.6510 C   0  0  0  0  0  0  0  0  0  0  0  0
   37.0640   27.2890   44.6110 H   0  0  0  0  0  0  0  0  0  0  0  0
   36.9420   27.2030   42.4360 N   0  0  0  0  0  0  0  0  0  0  0  0
   36.9620   28.1910   41.5250 C   0  0  0  0  0  0  0  0  0  0  0  0
   36.8800   28.0750   40.1430 C   0  0  0  0  0  3  0  0  0  0  0  0
   37.2250   29.8650   44.2640 H   0  0  0  0  0  0  0  0  0  0  0  0
   39.7810   34.1410   39.9230 C   0  0  0  0  0  0  0  0  0  0  0  0
   38.5280   33.4890   39.9360 C   0  0  0  0  0  0  0  0  0  0  0  0
   38.3820   32.3540   39.1580 C   0  0  0  0  0  0  0  0  0  0  0  0
   39.4430   31.9180   38.4180 N   0  0  0  0  0  0  0  0  0  0  0  0
   40.6250   32.5710   38.4330 C   0  0  0  0  0  0  0  0  0  0  0  0
   40.7960   33.6680   39.1730 N   0  0  0  0  0  0  0  0  0  0  0  0
   39.9460   35.0320   40.5130 H   0  0  0  0  0  0  0  0  0  0  0  0
   37.7610   33.9150   40.5520 H   0  0  0  0  0  0  0  0  0  0  0  0
   41.4450   32.1720   37.8170 H   0  0  0  0  0  0  0  0  0  0  0  0
  1  2  1  0  0  0  0
  1  5  1  0  0  0  0
  3  1  1  0  0  0  0
  4  5  2  0  0  0  0
  4 14  1  0  0  0  0
  5  6  1  0  0  0  0
  6  7  1  0  0  0  0
  6  8  2  0  0  0  0
  8  9  1  0  0  0  0
  9 10  1  0  0  0  0
  9 15  1  0  0  0  0
 10 11  1  0  0  0  0
 12 10  2  0  0  0  0
 13  8  1  0  0  0  0
 13 12  1  0  0  0  0
 14 13  2  0  0  0  0
 16 17  1  0  0  0  0
 16 22  1  0  0  0  0
 17 23  1  0  0  0  0
 18  1  1  0  0  0  0
 18 17  2  0  0  0  0
 19 20  2  0  0  0  0
 19 18  1  0  0  0  0
 20 21  1  0  0  0  0
 21 16  2  0  0  0  0
 24 20  1  0  0  0  0
M  END
>  <minimizedAffinity>
-4.80023003

$$$$

 OpenBabel03252504543D

 24 26  0  0  0  0  0  0  0  0999 V2000
   36.3960   30.2570   41.1990 C   0  0  0  0  0  0  0  0  0  0  0  0
   35.7340   30.0050   40.3580 H   0  0  0  0  0  0  0  0  0  0  0  0
   35.7360   30.7090   41.9710 H   0  0  0  0  0  0  0  0  0  0  0  0
   36.9390   32.2520   39.8710 C   0  0  0  0  0  3  0  0  0  0  0  0
   37.3580   31.3170   40.7950 C   0  0  0  0  0  0  0  0  0  0  0  0
   38.6340   31.3770   41.3180 C   0  0  0  0  0  0  0  0  0  0  0  0
   38.9770   30.6420   42.0510 H   0  0  0  0  0  0  0  0  0  0  0  0
   39.5120   32.3710   40.9280 C   0  0  0  0  0  0  0  0  0  0  0  0
   40.7960   32.6760   41.2630 N   0  0  0  0  0  0  0  0  0  0  0  0
   41.1170   33.7850   40.5350 C   0  0  0  0  0  0  0  0  0  0  0  0
   42.0850   34.2690   40.5860 H   0  0  0  0  0  0  0  0  0  0  0  0
   40.0660   34.1600   39.7700 N   0  0  0  0  0  0  0  0  0  0  0  0
   39.0760   33.2850   40.0150 C   0  0  0  0  0  0  0  0  0  0  0  0
   37.8020   33.2650   39.4610 C   0  0  0  0  0  3  0  0  0  0  0  0
   41.3960   32.1550   41.9420 H   0  0  0  0  0  0  0  0  0  0  0  0
   37.9230   26.8770   41.4760 C   0  0  0  0  0  0  0  0  0  0  0  0
   37.3150   28.0270   40.9280 C   0  0  0  0  0  0  0  0  0  0  0  0
   37.0250   29.0750   41.7840 C   0  0  0  0  0  0  0  0  0  0  0  0
   37.3360   28.9540   43.1080 N   0  0  0  0  0  0  0  0  0  0  0  0
   37.9170   27.8360   43.5920 C   0  0  0  0  0  0  0  0  0  0  0  0
   38.2090   26.8080   42.7910 N   0  0  0  0  0  0  0  0  0  0  0  0
   38.1700   26.0300   40.8490 H   0  0  0  0  0  0  0  0  0  0  0  0
   37.1130   28.0190   39.8750 H   0  0  0  0  0  0  0  0  0  0  0  0
   38.1460   27.7950   44.6680 H   0  0  0  0  0  0  0  0  0  0  0  0
  1 18  1  0  0  0  0
  1  3  1  0  0  0  0
  2  1  1  0  0  0  0
  4  5  1  0  0  0  0
  5  1  1  0  0  0  0
  5  6  2  0  0  0  0
  6  7  1  0  0  0  0
  8  9  1  0  0  0  0
  8  6  1  0  0  0  0
  9 15  1  0  0  0  0
 10 11  1  0  0  0  0
 10  9  1  0  0  0  0
 12 13  1  0  0  0  0
 12 10  2  0  0  0  0
 13  8  2  0  0  0  0
 14  4  2  0  0  0  0
 14 13  1  0  0  0  0
 16 21  1  0  0  0  0
 17 16  2  0  0  0  0
 17 18  1  0  0  0  0
 18 19  2  0  0  0  0
 19 20  1  0  0  0  0
 20 24  1  0  0  0  0
 21 20  2  0  0  0  0
 22 16  1  0  0  0  0
 23 17  1  0  0  0  0
M  END
>  <minimizedAffinity>
-4.68543577

$$$$

 OpenBabel03252504543D

 24 26  0  0  0  0  0  0  0  0999 V2000
   36.2150   30.3450   41.1650 C   0  0  0  0  0  0  0  0  0  0  0  0
   35.2650   30.5420   41.6820 H   0  0  0  0  0  0  0  0  0  0  0  0
   36.7410   31.3230   41.1270 H   0  0  0  0  0  0  0  0  0  0  0  0
   34.8280   29.2080   39.4840 C   0  0  0  0  0  3  0  0  0  0  0  0
   35.9590   29.9510   39.7530 C   0  0  0  0  0  0  0  0  0  0  0  0
   36.8160   30.3110   38.7320 C   0  0  0  0  0  0  0  0  0  0  0  0
   37.7150   30.9000   38.9330 H   0  0  0  0  0  0  0  0  0  0  0  0
   36.5590   29.9340   37.4280 C   0  0  0  0  0  0  0  0  0  0  0  0
   37.2040   30.1360   36.2450 N   0  0  0  0  0  0  0  0  0  0  0  0
   36.4480   29.5110   35.2970 C   0  0  0  0  0  0  0  0  0  0  0  0
   36.7080   29.4960   34.2450 H   0  0  0  0  0  0  0  0  0  0  0  0
   35.3640   28.9370   35.8690 N   0  0  0  0  0  0  0  0  0  0  0  0
   35.4350   29.2000   37.1850 C   0  0  0  0  0  0  0  0  0  0  0  0
   34.5440   28.8150   38.1780 C   0  0  0  0  0  3  0  0  0  0  0  0
   38.0960   30.6650   36.1120 H   0  0  0  0  0  0  0  0  0  0  0  0
   39.1900   28.9210   42.8840 C   0  0  0  0  0  0  0  0  0  0  0  0
   38.3560   29.8140   42.1750 C   0  0  0  0  0  0  0  0  0  0  0  0
   37.0630   29.4080   41.8980 C   0  0  0  0  0  0  0  0  0  0  0  0
   36.6520   28.1750   42.3160 N   0  0  0  0  0  0  0  0  0  0  0  0
   37.4820   27.3510   42.9910 C   0  0  0  0  0  0  0  0  0  0  0  0
   38.7350   27.7140   43.2730 N   0  0  0  0  0  0  0  0  0  0  0  0
   40.2100   29.1910   43.1250 H   0  0  0  0  0  0  0  0  0  0  0  0
   38.7780   30.7580   41.8930 H   0  0  0  0  0  0  0  0  0  0  0  0
   37.0960   26.3690   43.3030 H   0  0  0  0  0  0  0  0  0  0  0  0
  1  2  1  0  0  0  0
  1 18  1  0  0  0  0
  3  1  1  0  0  0  0
  4  5  1  0  0  0  0
  5  1  1  0  0  0  0
  6  7  1  0  0  0  0
  6  5  2  0  0  0  0
  8  6  1  0  0  0  0
  9  8  1  0  0  0  0
 10 12  2  0  0  0  0
 10  9  1  0  0  0  0
 11 10  1  0  0  0  0
 12 13  1  0  0  0  0
 13  8  2  0  0  0  0
 13 14  1  0  0  0  0
 14  4  2  0  0  0  0
 15  9  1  0  0  0  0
 16 22  1  0  0  0  0
 16 21  1  0  0  0  0
 17 16  2  0  0  0  0
 18 17  1  0  0  0  0
 18 19  2  0  0  0  0
 19 20  1  0  0  0  0
 20 21  2  0  0  0  0
 20 24  1  0  0  0  0
 23 17  1  0  0  0  0
M  END
>  <minimizedAffinity>
-4.65145397

$$$$

 OpenBabel03252504543D

 24 26  0  0  0  0  0  0  0  0999 V2000
   38.6180   33.0300   40.1930 C   0  0  0  0  0  0  0  0  0  0  0  0
   38.6170   33.9320   40.8220 H   0  0  0  0  0  0  0  0  0  0  0  0
   37.6680   33.0690   39.6170 H   0  0  0  0  0  0  0  0  0  0  0  0
   39.6220   31.5230   41.8550 C   0  0  0  0  0  3  0  0  0  0  0  0
   38.5440   31.8120   41.0430 C   0  0  0  0  0  0  0  0  0  0  0  0
   37.4380   30.9850   41.0340 C   0  0  0  0  0  0  0  0  0  0  0  0
   36.5770   31.2040   40.3950 H   0  0  0  0  0  0  0  0  0  0  0  0
   37.3910   29.8580   41.8320 C   0  0  0  0  0  0  0  0  0  0  0  0
   36.4610   28.8830   42.0290 N   0  0  0  0  0  0  0  0  0  0  0  0
   37.0010   28.0340   42.9510 C   0  0  0  0  0  0  0  0  0  0  0  0
   36.4910   27.1500   43.3140 H   0  0  0  0  0  0  0  0  0  0  0  0
   38.2290   28.4660   43.3180 N   0  0  0  0  0  0  0  0  0  0  0  0
   38.4680   29.5930   42.6260 C   0  0  0  0  0  0  0  0  0  0  0  0
   39.6020   30.3940   42.6700 C   0  0  0  0  0  3  0  0  0  0  0  0
   35.5290   28.8160   41.5600 H   0  0  0  0  0  0  0  0  0  0  0  0
   40.7330   32.0490   37.2950 C   0  0  0  0  0  0  0  0  0  0  0  0
   39.6740   32.0730   38.2290 C   0  0  0  0  0  0  0  0  0  0  0  0
   39.7220   33.0210   39.2360 C   0  0  0  0  0  0  0  0  0  0  0  0
   40.7790   33.8820   39.2840 N   0  0  0  0  0  0  0  0  0  0  0  0
   41.7720   33.8260   38.3710 C   0  0  0  0  0  0  0  0  0  0  0  0
   41.7540   32.9230   37.3880 N   0  0  0  0  0  0  0  0  0  0  0  0
   40.7420   31.3270   36.4900 H   0  0  0  0  0  0  0  0  0  0  0  0
   38.8920   31.3510   38.1010 H   0  0  0  0  0  0  0  0  0  0  0  0
   42.5990   34.5470   38.4600 H   0  0  0  0  0  0  0  0  0  0  0  0
  1  2  1  0  0  0  0
  1  5  1  0  0  0  0
  3  1  1  0  0  0  0
  4 14  1  0  0  0  0
  5  4  2  0  0  0  0
  6  5  1  0  0  0  0
  6  8  2  0  0  0  0
  7  6  1  0  0  0  0
  8  9  1  0  0  0  0
  8 13  1  0  0  0  0
  9 10  1  0  0  0  0
 10 11  1  0  0  0  0
 10 12  2  0  0  0  0
 13 14  2  0  0  0  0
 13 12  1  0  0  0  0
 15  9  1  0  0  0  0
 16 21  2  0  0  0  0
 16 17  1  0  0  0  0
 17 18  2  0  0  0  0
 18 19  1  0  0  0  0
 18  1  1  0  0  0  0
 20 24  1  0  0  0  0
 20 19  2  0  0  0  0
 21 20  1  0  0  0  0
 22 16  1  0  0  0  0
 23 17  1  0  0  0  0
M  END
>  <minimizedAffinity>
-4.58891678

$$$$
