
 OpenBabel03252500273D

 46 49  0  0  1  0  0  0  0  0999 V2000
   47.0540   33.2400   46.5390 O   0  0  0  0  0  0  0  0  0  0  0  0
   45.5940   32.9640   46.4640 P   0  0  1  0  0  0  0  0  0  0  0  0
   45.3000   31.8490   45.2240 O   0  0  0  0  0  0  0  0  0  0  0  0
   45.8630   32.0410   44.4270 H   0  0  0  0  0  0  0  0  0  0  0  0
   45.1460   32.3170   47.9140 O   0  0  0  0  0  0  0  0  0  0  0  0
   47.1120   30.9650   47.9830 C   0  0  2  0  0  0  0  0  0  0  0  0
   45.6340   31.0410   48.0380 C   0  0  2  0  0  0  0  0  0  0  0  0
   45.1430   30.1380   47.0180 C   0  0  0  0  0  0  0  0  0  0  0  0
   46.1370   29.1900   46.7380 O   0  0  0  0  0  0  0  0  0  0  0  0
   47.1400   29.4270   47.6170 C   0  0  0  0  0  0  0  0  0  0  0  0
   47.6190   31.2770   47.0550 H   0  0  0  0  0  0  0  0  0  0  0  0
   45.4130   30.7870   49.1140 H   0  0  0  0  0  0  0  0  0  0  0  0
   44.4460   30.3800   46.2470 H   0  0  0  0  0  0  0  0  0  0  0  0
   44.4530   29.4350   47.6110 H   0  0  0  0  0  0  0  0  0  0  0  0
   46.8460   28.9700   48.6020 H   0  0  0  0  0  0  0  0  0  0  0  0
   48.1480   29.1170   47.3530 H   0  0  0  0  0  0  0  0  0  0  0  0
   47.7830   31.1140   49.1360 O   0  0  0  0  0  0  0  0  0  0  0  0
   49.0520   31.3840   49.2580 C   0  0  0  0  0  0  0  0  0  0  0  0
   49.3970   32.3800   49.2530 H   0  0  0  0  0  0  0  0  0  0  0  0
   49.5600   31.0340   48.2020 H   0  0  0  0  0  0  0  0  0  0  0  0
   49.6580   30.4120   50.2580 C   0  0  0  0  0  0  0  0  0  0  0  0
   49.0790   29.4810   50.3090 H   0  0  0  0  0  0  0  0  0  0  0  0
   49.7600   30.8860   51.2630 H   0  0  0  0  0  0  0  0  0  0  0  0
   50.6950   30.1710   49.9420 H   0  0  0  0  0  0  0  0  0  0  0  0
   44.8460   34.4640   46.1510 O   0  0  0  0  0  0  0  0  0  0  0  0
   45.3340   36.7750   43.4480 C   0  0  0  0  0  0  0  0  0  0  0  0
   44.6860   36.1620   42.3510 C   0  0  0  0  0  0  0  0  0  0  0  0
   44.0770   34.9130   42.6040 C   0  0  0  0  0  0  0  0  0  0  0  0
   44.1460   34.3900   43.8430 N   0  0  0  0  0  0  0  0  0  0  0  0
   44.7720   35.0080   44.8560 C   0  0  0  0  0  0  0  0  0  0  0  0
   45.3580   36.1920   44.6450 N   0  0  0  0  0  0  0  0  0  0  0  0
   44.6530   36.6160   41.3720 H   0  0  0  0  0  0  0  0  0  0  0  0
   43.5830   34.4400   41.7790 H   0  0  0  0  0  0  0  0  0  0  0  0
   45.9400   37.9840   43.2560 O   0  0  0  0  0  0  0  0  0  0  0  0
   45.2630   40.2950   43.0640 C   0  0  0  0  0  3  0  0  0  0  0  0
   45.4990   39.1630   43.8260 C   0  0  0  0  0  0  0  0  0  0  0  0
   45.3230   39.0920   45.2020 C   0  0  0  0  0  0  0  0  0  0  0  0
   45.5080   38.2130   45.7770 H   0  0  0  0  0  0  0  0  0  0  0  0
   44.8800   40.2390   45.8520 C   0  0  0  0  0  0  0  0  0  0  0  0
   44.6170   40.4850   47.1600 N   0  0  0  0  0  0  0  0  0  0  0  0
   44.2140   41.7720   47.2350 C   0  0  0  0  0  0  0  0  0  0  0  0
   43.9290   42.2760   48.1490 H   0  0  0  0  0  0  0  0  0  0  0  0
   44.2220   42.3250   46.0140 N   0  0  0  0  0  0  0  0  0  0  0  0
   44.6320   41.3910   45.1340 C   0  0  0  0  0  0  0  0  0  0  0  0
   44.8210   41.4220   43.7550 C   0  0  0  0  0  3  0  0  0  0  0  0
   44.7290   39.7670   47.8970 H   0  0  0  0  0  0  0  0  0  0  0  0
  2  1  2  1  0  0  0
  2  5  1  0  0  0  0
  3  2  1  0  0  0  0
  4  3  1  0  0  0  0
  5  7  1  0  0  0  0
  6 11  1  6  0  0  0
  6  7  1  0  0  0  0
  6 17  1  0  0  0  0
  7 12  1  1  0  0  0
  8 14  1  0  0  0  0
  8  7  1  0  0  0  0
  9  8  1  0  0  0  0
  9 10  1  0  0  0  0
 10  6  1  0  0  0  0
 10 15  1  0  0  0  0
 13  8  1  0  0  0  0
 16 10  1  0  0  0  0
 17 18  1  0  0  0  0
 18 21  1  0  0  0  0
 19 18  1  0  0  0  0
 20 18  1  0  0  0  0
 21 22  1  0  0  0  0
 21 23  1  0  0  0  0
 24 21  1  0  0  0  0
 25  2  1  0  0  0  0
 26 31  1  0  0  0  0
 27 28  1  0  0  0  0
 27 26  2  0  0  0  0
 28 29  2  0  0  0  0
 29 30  1  0  0  0  0
 30 25  1  0  0  0  0
 31 30  2  0  0  0  0
 32 27  1  0  0  0  0
 33 28  1  0  0  0  0
 34 26  1  0  0  0  0
 34 36  1  0  0  0  0
 35 45  2  0  0  0  0
 35 36  1  0  0  0  0
 36 37  2  0  0  0  0
 37 38  1  0  0  0  0
 37 39  1  0  0  0  0
 39 40  1  0  0  0  0
 40 41  1  0  0  0  0
 40 46  1  0  0  0  0
 41 42  1  0  0  0  0
 43 41  2  0  0  0  0
 44 39  2  0  0  0  0
 44 43  1  0  0  0  0
 45 44  1  0  0  0  0
M  END
>  <minimizedAffinity>
-2.2475543

>  <minimizedRMSD>
1.14935899

$$$$
