
 OpenBabel03252509083D

 44 48  0  0  0  0  0  0  0  0999 V2000
   47.0300   31.7090   39.2710 C   0  0  0  0  0  0  0  0  0  0  0  0
   46.7070   33.0280   39.1470 C   0  0  0  0  0  0  0  0  0  0  0  0
   47.4010   33.8220   38.2490 C   0  0  0  0  0  0  0  0  0  0  0  0
   48.4110   33.2890   37.4820 C   0  0  0  0  0  0  0  0  0  0  0  0
   48.7710   31.9480   37.5780 C   0  0  0  0  0  0  0  0  0  0  0  0
   48.0560   31.1660   38.4920 C   0  0  0  0  0  0  0  0  0  0  0  0
   47.1620   34.8740   38.1330 H   0  0  0  0  0  0  0  0  0  0  0  0
   48.9950   33.8260   36.7670 H   0  0  0  0  0  0  0  0  0  0  0  0
   49.5420   31.4470   37.0230 H   0  0  0  0  0  0  0  0  0  0  0  0
   48.3120   30.1130   38.5930 H   0  0  0  0  0  0  0  0  0  0  0  0
   45.2160   35.6910   43.3120 Cl  0  0  0  0  0  0  0  0  0  0  0  0
   44.9400   34.8830   41.7890 C   0  0  0  0  0  0  0  0  0  0  0  0
   45.9620   34.3000   41.1110 C   0  0  0  0  0  0  0  0  0  0  0  0
   45.6500   33.6860   39.9030 C   0  0  0  0  0  0  0  0  0  0  0  0
   44.3720   33.6690   39.4080 C   0  0  0  0  0  0  0  0  0  0  0  0
   43.3610   34.2570   40.0980 C   0  0  0  0  0  0  0  0  0  0  0  0
   43.6530   34.8700   41.3030 C   0  0  0  0  0  0  0  0  0  0  0  0
   44.1900   33.1760   38.4580 H   0  0  0  0  0  0  0  0  0  0  0  0
   42.3730   34.2190   39.6770 H   0  0  0  0  0  0  0  0  0  0  0  0
   42.8240   35.3270   41.8250 H   0  0  0  0  0  0  0  0  0  0  0  0
   49.4780   35.4190   41.9420 C   0  0  0  0  0  0  0  0  0  0  0  0
   48.1870   35.3820   41.4040 C   0  0  0  0  0  0  0  0  0  0  0  0
   47.3040   34.3470   41.6590 C   0  0  0  0  0  0  0  0  0  0  0  0
   47.8060   33.4020   42.4620 N   0  0  0  0  0  0  0  0  0  0  0  0
   49.0310   33.4180   42.9840 C   0  0  0  0  0  0  0  0  0  0  0  0
   49.8640   34.4170   42.7300 N   0  0  0  0  0  0  0  0  0  0  0  0
   50.1310   36.2480   41.7140 H   0  0  0  0  0  0  0  0  0  0  0  0
   47.8590   36.2000   40.7560 H   0  0  0  0  0  0  0  0  0  0  0  0
   49.2470   32.5520   43.6120 H   0  0  0  0  0  0  0  0  0  0  0  0
   46.2360   30.6980   40.3660 S   0  0  0  0  0  0  0  0  0  0  0  0
   46.3910   29.2270   39.8980 O   0  0  0  0  0  0  0  0  0  0  0  0
   47.0560   30.7390   41.6540 O   0  0  0  0  0  0  0  0  0  0  0  0
   44.0390   31.1330   41.9590 C   0  0  0  0  0  3  0  0  0  0  0  0
   44.5590   30.7270   40.6970 C   0  0  0  0  0  0  0  0  0  0  0  0
   43.4800   30.4620   39.8630 C   0  0  0  0  0  0  0  0  0  0  0  0
   43.7280   30.1700   38.8540 H   0  0  0  0  0  0  0  0  0  0  0  0
   42.1510   30.5500   40.1310 C   0  0  0  0  0  0  0  0  0  0  0  0
   41.0400   30.3210   39.4170 N   0  0  0  0  0  0  0  0  0  0  0  0
   39.9920   30.5890   40.2490 C   0  0  0  0  0  0  0  0  0  0  0  0
   38.9580   30.4920   39.9430 H   0  0  0  0  0  0  0  0  0  0  0  0
   40.4730   30.9780   41.4630 N   0  0  0  0  0  0  0  0  0  0  0  0
   41.8200   30.9580   41.4030 C   0  0  0  0  0  0  0  0  0  0  0  0
   42.7340   31.2690   42.3780 C   0  0  0  0  0  3  0  0  0  0  0  0
   41.0050   30.0060   38.4320 H   0  0  0  0  0  0  0  0  0  0  0  0
  1 30  1  0  0  0  0
  2  1  1  0  0  0  0
  2 14  1  0  0  0  0
  3  2  2  0  0  0  0
  4  5  2  0  0  0  0
  4  3  1  0  0  0  0
  5  6  1  0  0  0  0
  6 10  1  0  0  0  0
  6  1  2  0  0  0  0
  7  3  1  0  0  0  0
  8  4  1  0  0  0  0
  9  5  1  0  0  0  0
 12 11  1  0  0  0  0
 13 23  1  0  0  0  0
 13 12  2  0  0  0  0
 14 13  1  0  0  0  0
 15 14  2  0  0  0  0
 15 16  1  0  0  0  0
 16 17  2  0  0  0  0
 17 12  1  0  0  0  0
 17 20  1  0  0  0  0
 18 15  1  0  0  0  0
 19 16  1  0  0  0  0
 21 26  1  0  0  0  0
 22 23  1  0  0  0  0
 22 21  2  0  0  0  0
 23 24  2  0  0  0  0
 24 25  1  0  0  0  0
 25 29  1  0  0  0  0
 26 25  2  0  0  0  0
 27 21  1  0  0  0  0
 28 22  1  0  0  0  0
 30 34  1  0  0  0  0
 30 32  2  0  0  0  0
 31 30  2  0  0  0  0
 33 43  1  0  0  0  0
 34 33  2  0  0  0  0
 35 37  2  0  0  0  0
 35 34  1  0  0  0  0
 36 35  1  0  0  0  0
 37 42  1  0  0  0  0
 38 37  1  0  0  0  0
 38 39  1  0  0  0  0
 39 41  2  0  0  0  0
 40 39  1  0  0  0  0
 42 41  1  0  0  0  0
 42 43  2  0  0  0  0
 44 38  1  0  0  0  0
M  END
>  <minimizedAffinity>
-5.06487894

>  <minimizedRMSD>
1.3460803

$$$$
