
 OpenBabel03252508593D

 48 51  0  0  1  0  0  0  0  0999 V2000
   47.1220   34.2060   43.5470 N   0  0  0  0  0  0  0  0  0  0  0  0
   46.6900   35.2990   42.7540 C   0  0  0  0  0  0  0  0  0  0  0  0
   45.2000   35.5220   42.7100 C   0  0  0  0  0  0  0  0  0  0  0  0
   44.4750   35.1450   43.9750 C   0  0  0  0  0  0  0  0  0  0  0  0
   45.4330   34.7210   45.0620 C   0  0  0  0  0  0  0  0  0  0  0  0
   46.2400   33.5490   44.3920 C   0  0  2  0  0  0  0  0  0  0  0  0
   47.0560   35.3240   41.7250 H   0  0  0  0  0  0  0  0  0  0  0  0
   47.1160   36.2250   43.2450 H   0  0  0  0  0  0  0  0  0  0  0  0
   45.0260   36.6080   42.4590 H   0  0  0  0  0  0  0  0  0  0  0  0
   44.7810   34.9460   41.8500 H   0  0  0  0  0  0  0  0  0  0  0  0
   43.9140   36.0230   44.3610 H   0  0  0  0  0  0  0  0  0  0  0  0
   43.7710   34.3230   43.7910 H   0  0  0  0  0  0  0  0  0  0  0  0
   44.8770   34.2870   45.8990 H   0  0  0  0  0  0  0  0  0  0  0  0
   46.1480   35.4980   45.3390 H   0  0  0  0  0  0  0  0  0  0  0  0
   45.4850   32.8660   43.9350 H   0  0  0  0  0  0  0  0  0  0  0  0
   48.2200   33.4730   42.9890 C   0  0  0  0  0  0  0  0  0  0  0  0
   48.7880   32.9810   43.8200 H   0  0  0  0  0  0  0  0  0  0  0  0
   48.9000   34.1500   42.4700 H   0  0  0  0  0  0  0  0  0  0  0  0
   47.6780   32.3640   42.1390 C   0  0  0  0  0  0  0  0  0  0  0  0
   46.5660   32.3960   42.1180 H   0  0  0  0  0  0  0  0  0  0  0  0
   47.9620   31.3490   42.4730 H   0  0  0  0  0  0  0  0  0  0  0  0
   49.5630   31.9760   38.9140 C   0  0  0  0  0  0  0  0  0  0  0  0
   49.1370   31.7970   40.2420 C   0  0  0  0  0  0  0  0  0  0  0  0
   48.1140   32.5680   40.7330 C   0  0  0  0  0  0  0  0  0  0  0  0
   47.5640   33.4680   39.9090 N   0  0  0  0  0  0  0  0  0  0  0  0
   47.9690   33.6420   38.6400 C   0  0  0  0  0  0  0  0  0  0  0  0
   48.9660   32.9030   38.1300 N   0  0  0  0  0  0  0  0  0  0  0  0
   50.3630   31.3960   38.4780 H   0  0  0  0  0  0  0  0  0  0  0  0
   49.6200   31.0620   40.8420 H   0  0  0  0  0  0  0  0  0  0  0  0
   47.4480   34.4010   38.0680 H   0  0  0  0  0  0  0  0  0  0  0  0
   46.8920   33.0020   45.4910 O   0  0  0  0  0  0  0  0  0  0  0  0
   45.5830   30.8090   44.7730 O   0  0  0  0  0  0  0  0  0  0  0  0
   46.2630   31.5030   45.9370 P   0  0  2  0  0  0  0  0  0  0  0  0
   45.0110   31.8320   47.0580 O   0  0  0  0  0  0  0  0  0  0  0  0
   45.3600   31.7280   47.9770 H   0  0  0  0  0  0  0  0  0  0  0  0
   47.4110   30.5630   46.6960 O   0  0  0  0  0  0  0  0  0  0  0  0
   46.0180   28.7100   47.1430 C   0  0  0  0  0  3  0  0  0  0  0  0
   47.3060   29.2510   47.0660 C   0  0  0  0  0  0  0  0  0  0  0  0
   48.3770   28.4310   47.3630 C   0  0  0  0  0  0  0  0  0  0  0  0
   49.3860   28.8450   47.3050 H   0  0  0  0  0  0  0  0  0  0  0  0
   48.1470   27.1010   47.7290 C   0  0  0  0  0  0  0  0  0  0  0  0
   49.0290   26.1200   48.0620 N   0  0  0  0  0  0  0  0  0  0  0  0
   48.3590   24.9840   48.3470 C   0  0  0  0  0  0  0  0  0  0  0  0
   48.8280   24.0530   48.6410 H   0  0  0  0  0  0  0  0  0  0  0  0
   47.0460   25.2630   48.1880 N   0  0  0  0  0  0  0  0  0  0  0  0
   46.8830   26.5560   47.8100 C   0  0  0  0  0  0  0  0  0  0  0  0
   45.8220   27.3840   47.5100 C   0  0  0  0  0  3  0  0  0  0  0  0
   50.0600   26.2670   48.0820 H   0  0  0  0  0  0  0  0  0  0  0  0
  1  6  1  0  0  0  0
  2  8  1  0  0  0  0
  2  1  1  0  0  0  0
  3  2  1  0  0  0  0
  3  4  1  0  0  0  0
  4 11  1  0  0  0  0
  4  5  1  0  0  0  0
  5 14  1  0  0  0  0
  5 13  1  0  0  0  0
  6 15  1  6  0  0  0
  6  5  1  0  0  0  0
  6 31  1  0  0  0  0
  7  2  1  0  0  0  0
  9  3  1  0  0  0  0
 10  3  1  0  0  0  0
 12  4  1  0  0  0  0
 16  1  1  0  0  0  0
 16 17  1  0  0  0  0
 18 16  1  0  0  0  0
 19 21  1  0  0  0  0
 19 16  1  0  0  0  0
 20 19  1  0  0  0  0
 22 23  1  0  0  0  0
 23 24  2  0  0  0  0
 23 29  1  0  0  0  0
 24 19  1  0  0  0  0
 25 24  1  0  0  0  0
 26 25  2  0  0  0  0
 27 26  1  0  0  0  0
 27 22  2  0  0  0  0
 28 22  1  0  0  0  0
 30 26  1  0  0  0  0
 31 33  1  0  0  0  0
 33 32  2  6  0  0  0
 33 36  1  0  0  0  0
 33 34  1  0  0  0  0
 34 35  1  0  0  0  0
 36 38  1  0  0  0  0
 37 47  1  0  0  0  0
 38 37  2  0  0  0  0
 38 39  1  0  0  0  0
 39 41  2  0  0  0  0
 40 39  1  0  0  0  0
 41 46  1  0  0  0  0
 41 42  1  0  0  0  0
 42 48  1  0  0  0  0
 42 43  1  0  0  0  0
 43 44  1  0  0  0  0
 45 43  2  0  0  0  0
 46 45  1  0  0  0  0
 47 46  2  0  0  0  0
M  END
>  <minimizedAffinity>
-4.49697304

>  <minimizedRMSD>
1.35669029

$$$$
