
 OpenBabel03252507043D

 50 54  0  0  0  0  0  0  0  0999 V2000
   41.0100   33.5890   40.2050 N   0  0  0  0  0  0  0  0  0  0  0  0
   40.3940   32.2990   40.2150 C   0  0  0  0  0  0  0  0  0  0  0  0
   39.0310   32.6930   40.7780 C   0  0  0  0  0  0  0  0  0  0  0  0
   38.3090   33.6570   39.9660 C   0  0  0  0  0  0  0  0  0  0  0  0
   39.0580   34.5290   39.0880 C   0  0  0  0  0  0  0  0  0  0  0  0
   40.5680   34.5620   39.1820 C   0  0  0  0  0  0  0  0  0  0  0  0
   40.3550   31.7280   39.3050 H   0  0  0  0  0  0  0  0  0  0  0  0
   40.8530   31.6620   40.9910 H   0  0  0  0  0  0  0  0  0  0  0  0
   39.1740   33.0120   41.8370 H   0  0  0  0  0  0  0  0  0  0  0  0
   38.4530   31.7290   40.8650 H   0  0  0  0  0  0  0  0  0  0  0  0
   37.5660   33.1070   39.3170 H   0  0  0  0  0  0  0  0  0  0  0  0
   37.6730   34.2940   40.6360 H   0  0  0  0  0  0  0  0  0  0  0  0
   38.6430   35.1790   38.3860 H   0  0  0  0  0  0  0  0  0  0  0  0
   41.9430   34.0430   41.0470 C   0  0  0  0  0  0  0  0  0  0  0  0
   41.6260   34.0020   42.1120 H   0  0  0  0  0  0  0  0  0  0  0  0
   42.1950   35.1500   40.8960 H   0  0  0  0  0  0  0  0  0  0  0  0
   43.2530   33.3540   40.9310 C   0  0  0  0  0  0  0  0  0  0  0  0
   43.1990   32.3620   41.4360 H   0  0  0  0  0  0  0  0  0  0  0  0
   43.5240   33.2120   39.8490 H   0  0  0  0  0  0  0  0  0  0  0  0
   44.2660   34.1590   41.6360 C   0  0  0  0  0  0  0  0  0  0  0  0
   43.8990   35.2980   42.3130 C   0  0  0  0  0  0  0  0  0  0  0  0
   44.8880   36.0340   42.9540 C   0  0  0  0  0  0  0  0  0  0  0  0
   46.1740   35.5830   42.8780 N   0  0  0  0  0  0  0  0  0  0  0  0
   46.4900   34.4720   42.2140 C   0  0  0  0  0  0  0  0  0  0  0  0
   45.5230   33.7820   41.6030 N   0  0  0  0  0  0  0  0  0  0  0  0
   42.9640   35.7980   42.5000 H   0  0  0  0  0  0  0  0  0  0  0  0
   44.7880   36.9550   43.5310 H   0  0  0  0  0  0  0  0  0  0  0  0
   47.8890   34.0500   42.2220 C   0  0  0  0  0  0  0  0  0  0  0  0
   48.2180   32.7140   42.0040 C   0  0  0  0  0  0  0  0  0  0  0  0
   49.5410   32.3190   42.0300 C   0  0  0  0  0  0  0  0  0  0  0  0
   50.4350   33.3310   42.2790 C   0  0  0  0  0  0  0  0  0  0  0  0
   50.1570   34.6730   42.5020 C   0  0  0  0  0  0  0  0  0  0  0  0
   48.8330   34.9790   42.4600 N   0  0  0  0  0  0  0  0  0  0  0  0
   47.4410   31.9970   41.8160 H   0  0  0  0  0  0  0  0  0  0  0  0
   49.8630   31.3190   41.8710 H   0  0  0  0  0  0  0  0  0  0  0  0
   51.4970   33.0660   42.3090 H   0  0  0  0  0  0  0  0  0  0  0  0
   50.9300   35.3980   42.6910 H   0  0  0  0  0  0  0  0  0  0  0  0
   41.5810   35.5730   38.2320 S   0  0  0  0  0  0  0  0  0  0  0  0
   40.9550   36.9480   36.2150 C   0  0  0  0  0  3  0  0  0  0  0  0
   40.9760   37.0610   37.6050 C   0  0  0  0  0  0  0  0  0  0  0  0
   40.5550   38.2650   38.0470 C   0  0  0  0  0  0  0  0  0  0  0  0
   40.5960   38.3650   39.1150 H   0  0  0  0  0  0  0  0  0  0  0  0
   40.1330   39.3320   37.3280 C   0  0  0  0  0  0  0  0  0  0  0  0
   39.7040   40.5500   37.6950 N   0  0  0  0  0  0  0  0  0  0  0  0
   39.4270   41.1620   36.5160 C   0  0  0  0  0  0  0  0  0  0  0  0
   39.0520   42.1890   36.5060 H   0  0  0  0  0  0  0  0  0  0  0  0
   39.6740   40.3610   35.4780 N   0  0  0  0  0  0  0  0  0  0  0  0
   40.1280   39.1790   35.9630 C   0  0  0  0  0  0  0  0  0  0  0  0
   40.5380   37.9900   35.3830 C   0  0  0  0  0  3  0  0  0  0  0  0
   39.6070   40.9320   38.6690 H   0  0  0  0  0  0  0  0  0  0  0  0
  1  2  1  0  0  0  0
  1 14  1  0  0  0  0
  2  3  1  0  0  0  0
  2  8  1  0  0  0  0
  3 10  1  0  0  0  0
  3  9  1  0  0  0  0
  4 12  1  0  0  0  0
  4  3  1  0  0  0  0
  5  6  2  0  0  0  0
  5  4  1  0  0  0  0
  6  1  1  0  0  0  0
  7  2  1  0  0  0  0
 11  4  1  0  0  0  0
 13  5  1  0  0  0  0
 14 15  1  0  0  0  0
 16 14  1  0  0  0  0
 17 14  1  0  0  0  0
 17 18  1  0  0  0  0
 17 20  1  0  0  0  0
 19 17  1  0  0  0  0
 20 21  1  0  0  0  0
 21 26  1  0  0  0  0
 21 22  2  0  0  0  0
 22 27  1  0  0  0  0
 23 22  1  0  0  0  0
 24 28  1  0  0  0  0
 24 23  2  0  0  0  0
 25 20  2  0  0  0  0
 25 24  1  0  0  0  0
 28 33  1  0  0  0  0
 29 30  1  0  0  0  0
 29 28  2  0  0  0  0
 30 31  2  0  0  0  0
 31 36  1  0  0  0  0
 31 32  1  0  0  0  0
 32 37  1  0  0  0  0
 33 32  2  0  0  0  0
 34 29  1  0  0  0  0
 35 30  1  0  0  0  0
 38  6  1  0  0  0  0
 39 40  1  0  0  0  0
 40 41  2  0  0  0  0
 40 38  1  0  0  0  0
 41 42  1  0  0  0  0
 43 44  1  0  0  0  0
 43 41  1  0  0  0  0
 44 50  1  0  0  0  0
 45 44  1  0  0  0  0
 46 45  1  0  0  0  0
 47 48  1  0  0  0  0
 47 45  2  0  0  0  0
 48 43  2  0  0  0  0
 49 48  1  0  0  0  0
 49 39  2  0  0  0  0
M  END
>  <minimizedAffinity>
-2.79237485

>  <minimizedRMSD>
0.531464458

$$$$
