
 OpenBabel03252506373D

 47 51  0  0  1  0  0  0  0  0999 V2000
   46.6070   29.8520   46.4350 S   0  0  0  0  0  0  0  0  0  0  0  0
   44.5670   35.4200   45.2390 C   0  0  0  0  0  0  0  0  0  0  0  0
   45.1730   35.4290   43.9660 C   0  0  0  0  0  0  0  0  0  0  0  0
   46.0570   34.4550   43.6480 C   0  0  0  0  0  0  0  0  0  0  0  0
   46.3080   33.5150   44.5920 N   0  0  0  0  0  0  0  0  0  0  0  0
   45.7360   33.5100   45.7870 C   0  0  0  0  0  0  0  0  0  0  0  0
   44.8600   34.4570   46.1300 N   0  0  0  0  0  0  0  0  0  0  0  0
   46.0790   32.4630   46.7120 N   0  0  0  0  0  0  0  0  0  0  0  0
   45.3820   32.2030   47.9170 C   0  0  0  0  0  0  0  0  0  0  0  0
   46.4840   31.8010   48.8780 C   0  0  0  0  0  0  0  0  0  0  0  0
   47.7330   31.6850   48.0560 C   0  0  0  0  0  0  0  0  0  0  0  0
   47.1720   31.5250   46.6440 C   0  0  1  0  0  0  0  0  0  0  0  0
   43.8640   36.2090   45.4700 H   0  0  0  0  0  0  0  0  0  0  0  0
   46.5250   34.4430   42.6930 H   0  0  0  0  0  0  0  0  0  0  0  0
   44.5700   31.5640   48.0330 H   0  0  0  0  0  0  0  0  0  0  0  0
   45.0490   33.2120   48.3180 H   0  0  0  0  0  0  0  0  0  0  0  0
   46.6470   32.4900   49.7050 H   0  0  0  0  0  0  0  0  0  0  0  0
   46.2340   30.8100   49.3510 H   0  0  0  0  0  0  0  0  0  0  0  0
   48.2970   30.7590   48.3200 H   0  0  0  0  0  0  0  0  0  0  0  0
   48.3510   32.5840   48.1680 H   0  0  0  0  0  0  0  0  0  0  0  0
   47.9890   31.8190   45.9620 H   0  0  0  0  0  0  0  0  0  0  0  0
   44.8030   36.4950   43.0750 N   0  0  0  0  0  0  0  0  0  0  0  0
   45.5750   36.7830   42.4430 H   0  0  0  0  0  0  0  0  0  0  0  0
   43.8730   36.9470   43.0460 H   0  0  0  0  0  0  0  0  0  0  0  0
   45.2300   30.4480   43.4570 O   0  0  0  0  0  0  0  0  0  0  0  0
   44.7030   29.9010   44.4380 C   0  0  0  0  0  0  0  0  0  0  0  0
   44.9700   29.6310   45.8710 C   0  0  1  0  0  0  0  0  0  0  0  0
   44.4090   28.2410   46.0390 C   0  0  0  0  0  0  0  0  0  0  0  0
   43.0190   28.5060   45.4480 C   0  0  0  0  0  0  0  0  0  0  0  0
   43.4090   29.2870   44.2800 N   0  0  0  0  0  0  0  0  0  0  0  0
   44.1540   30.2480   46.3390 H   0  0  0  0  0  0  0  0  0  0  0  0
   44.8870   27.5050   45.3640 H   0  0  0  0  0  0  0  0  0  0  0  0
   44.3220   27.9260   47.0840 H   0  0  0  0  0  0  0  0  0  0  0  0
   42.6030   27.5360   45.1440 H   0  0  0  0  0  0  0  0  0  0  0  0
   42.3790   29.0750   46.1410 H   0  0  0  0  0  0  0  0  0  0  0  0
   42.4940   28.1770   42.4060 C   0  0  0  0  0  3  0  0  0  0  0  0
   42.4720   29.3250   43.1800 C   0  0  0  0  0  0  0  0  0  0  0  0
   41.6290   30.3590   42.8830 C   0  0  0  0  0  0  0  0  0  0  0  0
   41.6740   31.2190   43.5370 H   0  0  0  0  0  0  0  0  0  0  0  0
   40.7790   30.2630   41.7930 C   0  0  0  0  0  0  0  0  0  0  0  0
   39.8730   31.1280   41.3030 N   0  0  0  0  0  0  0  0  0  0  0  0
   39.3180   30.5230   40.2120 C   0  0  0  0  0  0  0  0  0  0  0  0
   38.5380   30.9340   39.5580 H   0  0  0  0  0  0  0  0  0  0  0  0
   39.8520   29.3120   40.0120 N   0  0  0  0  0  0  0  0  0  0  0  0
   40.7630   29.1250   40.9800 C   0  0  0  0  0  0  0  0  0  0  0  0
   41.6420   28.0930   41.3210 C   0  0  0  0  0  3  0  0  0  0  0  0
   39.6360   32.0760   41.6770 H   0  0  0  0  0  0  0  0  0  0  0  0
  1 12  1  0  0  0  0
  2 13  1  0  0  0  0
  2  7  1  0  0  0  0
  3  2  2  0  0  0  0
  4  3  1  0  0  0  0
  4  5  2  0  0  0  0
  5  6  1  0  0  0  0
  6  7  2  0  0  0  0
  6  8  1  0  0  0  0
  8  9  1  0  0  0  0
  9 15  1  0  0  0  0
  9 16  1  0  0  0  0
  9 10  1  0  0  0  0
 10 18  1  0  0  0  0
 10 17  1  0  0  0  0
 11 20  1  0  0  0  0
 11 19  1  0  0  0  0
 11 10  1  0  0  0  0
 12 21  1  6  0  0  0
 12  8  1  0  0  0  0
 12 11  1  0  0  0  0
 14  4  1  0  0  0  0
 22  3  1  0  0  0  0
 23 22  1  0  0  0  0
 24 22  1  0  0  0  0
 25 26  2  0  0  0  0
 26 27  1  0  0  0  0
 27 28  1  0  0  0  0
 27 31  1  1  0  0  0
 27  1  1  0  0  0  0
 28 33  1  0  0  0  0
 29 28  1  0  0  0  0
 29 35  1  0  0  0  0
 30 26  1  0  0  0  0
 30 29  1  0  0  0  0
 32 28  1  0  0  0  0
 34 29  1  0  0  0  0
 36 37  1  0  0  0  0
 37 30  1  0  0  0  0
 38 37  2  0  0  0  0
 38 39  1  0  0  0  0
 40 38  1  0  0  0  0
 41 47  1  0  0  0  0
 41 40  1  0  0  0  0
 42 41  1  0  0  0  0
 43 42  1  0  0  0  0
 44 42  2  0  0  0  0
 44 45  1  0  0  0  0
 45 46  1  0  0  0  0
 45 40  2  0  0  0  0
 46 36  2  0  0  0  0
M  END
>  <minimizedAffinity>
-5.67896938

>  <minimizedRMSD>
0.871217787

$$$$
