
 OpenBabel03252507323D

 52 56  0  0  1  0  0  0  0  0999 V2000
   47.0280   32.5420   45.4540 C   0  0  0  0  0  0  0  0  0  0  0  0
   45.9510   33.1970   46.0320 C   0  0  0  0  0  0  0  0  0  0  0  0
   45.3100   34.2430   45.3270 C   0  0  0  0  0  0  0  0  0  0  0  0
   45.8250   34.5480   44.0690 N   0  0  0  0  0  0  0  0  0  0  0  0
   46.8680   33.8780   43.5720 C   0  0  0  0  0  0  0  0  0  0  0  0
   47.4600   32.8930   44.2500 N   0  0  0  0  0  0  0  0  0  0  0  0
   45.4310   33.1560   46.9650 H   0  0  0  0  0  0  0  0  0  0  0  0
   44.4770   34.8440   45.6170 H   0  0  0  0  0  0  0  0  0  0  0  0
   47.6350   31.4630   46.2080 C   0  0  2  0  0  0  0  0  0  0  0  0
   47.2600   30.0710   45.6120 C   0  0  0  0  0  0  0  0  0  0  0  0
   48.0370   29.0110   46.3170 C   0  0  0  0  0  0  0  0  0  0  0  0
   48.1050   29.1250   47.8030 C   0  0  0  0  0  0  0  0  0  0  0  0
   48.2220   30.4770   48.2920 C   0  0  0  0  0  0  0  0  0  0  0  0
   47.2600   31.4720   47.6070 C   0  0  2  0  0  0  0  0  0  0  0  0
   48.7400   31.4850   46.0390 H   0  0  0  0  0  0  0  0  0  0  0  0
   46.1730   29.9310   45.6030 H   0  0  0  0  0  0  0  0  0  0  0  0
   47.5800   30.1480   44.5540 H   0  0  0  0  0  0  0  0  0  0  0  0
   49.0030   28.9290   45.7810 H   0  0  0  0  0  0  0  0  0  0  0  0
   47.5140   28.0320   46.1050 H   0  0  0  0  0  0  0  0  0  0  0  0
   47.7030   28.3090   48.4030 H   0  0  0  0  0  0  0  0  0  0  0  0
   49.2050   28.7780   47.9580 H   0  0  0  0  0  0  0  0  0  0  0  0
   49.2150   30.9870   48.2340 H   0  0  0  0  0  0  0  0  0  0  0  0
   47.9530   30.5100   49.3800 H   0  0  0  0  0  0  0  0  0  0  0  0
   47.4690   32.3850   48.1670 H   0  0  0  0  0  0  0  0  0  0  0  0
   45.8900   30.9790   47.7610 N   0  0  0  0  0  0  0  0  0  0  0  0
   45.1690   30.5700   48.8960 C   0  0  0  0  0  0  0  0  0  0  0  0
   44.6640   31.3960   49.7390 O   0  0  0  0  0  0  0  0  0  0  0  0
   45.0310   29.1560   49.0370 N   0  0  0  0  0  0  0  0  0  0  0  0
   45.2440   30.8010   46.9020 H   0  0  0  0  0  0  0  0  0  0  0  0
   44.7020   28.4440   48.3810 H   0  0  0  0  0  0  0  0  0  0  0  0
   45.2970   28.7110   49.9430 H   0  0  0  0  0  0  0  0  0  0  0  0
   47.3750   34.2620   42.2500 C   0  0  0  0  0  0  0  0  0  0  0  0
   48.3730   35.2010   42.1170 C   0  0  0  0  0  0  0  0  0  0  0  0
   48.8990   35.6110   40.9120 C   0  0  0  0  0  0  0  0  0  0  0  0
   48.3500   35.0060   39.8040 C   0  0  0  0  0  0  0  0  0  0  0  0
   47.3540   34.0670   39.9180 C   0  0  0  0  0  0  0  0  0  0  0  0
   46.8660   33.6950   41.1430 N   0  0  0  0  0  0  0  0  0  0  0  0
   48.7550   35.6330   43.0380 H   0  0  0  0  0  0  0  0  0  0  0  0
   49.6720   36.3410   40.8440 H   0  0  0  0  0  0  0  0  0  0  0  0
   48.7280   35.2930   38.8340 H   0  0  0  0  0  0  0  0  0  0  0  0
   47.4170   33.4020   37.5590 C   0  0  0  0  0  3  0  0  0  0  0  0
   46.7510   33.4080   38.7670 C   0  0  0  0  0  0  0  0  0  0  0  0
   45.5380   32.7730   38.7830 C   0  0  0  0  0  0  0  0  0  0  0  0
   44.9720   32.7410   39.6860 H   0  0  0  0  0  0  0  0  0  0  0  0
   44.9710   32.1500   37.6910 C   0  0  0  0  0  0  0  0  0  0  0  0
   43.8000   31.4820   37.5230 N   0  0  0  0  0  0  0  0  0  0  0  0
   43.7380   31.0740   36.2530 C   0  0  0  0  0  0  0  0  0  0  0  0
   42.8820   30.5140   35.8850 H   0  0  0  0  0  0  0  0  0  0  0  0
   44.8690   31.4810   35.6100 N   0  0  0  0  0  0  0  0  0  0  0  0
   45.6540   32.1530   36.4810 C   0  0  0  0  0  0  0  0  0  0  0  0
   46.8770   32.7830   36.4280 C   0  0  0  0  0  3  0  0  0  0  0  0
   43.0920   31.3310   38.2750 H   0  0  0  0  0  0  0  0  0  0  0  0
  1  2  1  0  0  0  0
  1  9  1  0  0  0  0
  2  7  1  0  0  0  0
  3  8  1  0  0  0  0
  3  2  2  0  0  0  0
  4  3  1  0  0  0  0
  5  4  2  0  0  0  0
  5  6  1  0  0  0  0
  6  1  2  0  0  0  0
  9 15  1  6  0  0  0
  9 14  1  0  0  0  0
 10  9  1  0  0  0  0
 10 11  1  0  0  0  0
 11 12  1  0  0  0  0
 12 21  1  0  0  0  0
 12 13  1  0  0  0  0
 12 20  1  0  0  0  0
 13 23  1  0  0  0  0
 14 25  1  0  0  0  0
 14 24  1  1  0  0  0
 14 13  1  0  0  0  0
 16 10  1  0  0  0  0
 17 10  1  0  0  0  0
 18 11  1  0  0  0  0
 19 11  1  0  0  0  0
 22 13  1  0  0  0  0
 25 26  1  0  0  0  0
 26 28  1  0  0  0  0
 26 27  2  0  0  0  0
 28 31  1  0  0  0  0
 29 25  1  0  0  0  0
 30 28  1  0  0  0  0
 32  5  1  0  0  0  0
 33 32  1  0  0  0  0
 33 38  1  0  0  0  0
 34 33  2  0  0  0  0
 35 36  2  0  0  0  0
 35 34  1  0  0  0  0
 36 37  1  0  0  0  0
 37 32  2  0  0  0  0
 39 34  1  0  0  0  0
 40 35  1  0  0  0  0
 41 42  1  0  0  0  0
 42 43  2  0  0  0  0
 42 36  1  0  0  0  0
 43 44  1  0  0  0  0
 45 43  1  0  0  0  0
 46 45  1  0  0  0  0
 46 52  1  0  0  0  0
 47 46  1  0  0  0  0
 48 47  1  0  0  0  0
 49 47  2  0  0  0  0
 49 50  1  0  0  0  0
 50 45  2  0  0  0  0
 51 50  1  0  0  0  0
 51 41  2  0  0  0  0
M  END
>  <minimizedAffinity>
-6.77474737

>  <minimizedRMSD>
0.898963749

$$$$
