
 OpenBabel03252509043D

 51 54  0  0  1  0  0  0  0  0999 V2000
   46.5510   34.5730   43.5650 N   0  0  0  0  0  0  0  0  0  0  0  0
   46.0340   35.5180   42.6510 C   0  0  0  0  0  0  0  0  0  0  0  0
   44.5200   35.6240   42.6520 C   0  0  0  0  0  0  0  0  0  0  0  0
   43.8990   35.4540   44.0120 C   0  0  0  0  0  0  0  0  0  0  0  0
   44.9430   35.2490   45.0850 C   0  0  0  0  0  0  0  0  0  0  0  0
   45.7830   34.0200   44.5590 C   0  0  2  0  0  0  0  0  0  0  0  0
   46.3290   35.3990   41.6040 H   0  0  0  0  0  0  0  0  0  0  0  0
   46.4100   36.5390   42.9440 H   0  0  0  0  0  0  0  0  0  0  0  0
   44.0620   34.8780   41.9530 H   0  0  0  0  0  0  0  0  0  0  0  0
   44.2200   36.6170   42.2490 H   0  0  0  0  0  0  0  0  0  0  0  0
   43.3020   36.3620   44.3140 H   0  0  0  0  0  0  0  0  0  0  0  0
   43.1860   34.6070   44.0630 H   0  0  0  0  0  0  0  0  0  0  0  0
   45.6010   36.1180   45.2190 H   0  0  0  0  0  0  0  0  0  0  0  0
   44.4590   34.8810   46.0030 H   0  0  0  0  0  0  0  0  0  0  0  0
   45.0420   33.2510   44.2790 H   0  0  0  0  0  0  0  0  0  0  0  0
   47.6850   33.8300   43.0690 C   0  0  0  0  0  0  0  0  0  0  0  0
   48.2760   34.5440   42.4550 H   0  0  0  0  0  0  0  0  0  0  0  0
   48.3870   33.4950   43.8690 H   0  0  0  0  0  0  0  0  0  0  0  0
   47.1660   32.7270   42.2050 C   0  0  0  0  0  0  0  0  0  0  0  0
   47.4020   31.7500   42.6250 H   0  0  0  0  0  0  0  0  0  0  0  0
   46.0510   32.7750   42.0890 H   0  0  0  0  0  0  0  0  0  0  0  0
   49.0830   31.9690   39.0650 C   0  0  0  0  0  0  0  0  0  0  0  0
   48.5340   31.8530   40.3560 C   0  0  0  0  0  0  0  0  0  0  0  0
   47.7390   32.8620   40.8410 C   0  0  0  0  0  0  0  0  0  0  0  0
   47.5250   33.9160   40.0490 N   0  0  0  0  0  0  0  0  0  0  0  0
   48.0490   34.0230   38.8210 C   0  0  0  0  0  0  0  0  0  0  0  0
   48.8280   33.0660   38.3100 N   0  0  0  0  0  0  0  0  0  0  0  0
   49.7130   31.1810   38.6700 H   0  0  0  0  0  0  0  0  0  0  0  0
   48.7660   30.9600   40.9230 H   0  0  0  0  0  0  0  0  0  0  0  0
   47.7740   34.9430   38.3170 H   0  0  0  0  0  0  0  0  0  0  0  0
   46.5090   33.6940   45.6890 O   0  0  0  0  0  0  0  0  0  0  0  0
   45.7180   31.2230   45.0790 O   0  0  0  0  0  0  0  0  0  0  0  0
   46.2080   32.1180   46.2140 P   0  0  2  0  0  0  0  0  0  0  0  0
   44.8700   32.2390   47.2820 O   0  0  0  0  0  0  0  0  0  0  0  0
   44.2730   31.4760   47.1940 H   0  0  0  0  0  0  0  0  0  0  0  0
   47.4630   31.4460   47.0610 O   0  0  0  0  0  0  0  0  0  0  0  0
   47.5800   30.1090   46.7180 C   0  0  0  0  0  0  0  0  0  0  0  0
   46.7490   29.5710   47.2000 H   0  0  0  0  0  0  0  0  0  0  0  0
   47.6030   29.9250   45.6410 H   0  0  0  0  0  0  0  0  0  0  0  0
   49.1610   29.7040   48.6490 C   0  0  0  0  0  3  0  0  0  0  0  0
   48.8860   29.6360   47.2970 C   0  0  0  0  0  0  0  0  0  0  0  0
   49.8210   29.1190   46.4000 C   0  0  0  0  0  0  0  0  0  0  0  0
   49.5970   29.0670   45.3270 H   0  0  0  0  0  0  0  0  0  0  0  0
   51.0330   28.6700   46.8680 C   0  0  0  0  0  0  0  0  0  0  0  0
   52.0600   28.1390   46.1710 N   0  0  0  0  0  0  0  0  0  0  0  0
   53.0320   27.8510   47.0630 C   0  0  0  0  0  0  0  0  0  0  0  0
   53.9910   27.4150   46.8410 H   0  0  0  0  0  0  0  0  0  0  0  0
   52.5860   28.2090   48.3020 N   0  0  0  0  0  0  0  0  0  0  0  0
   51.3470   28.7200   48.2130 C   0  0  0  0  0  0  0  0  0  0  0  0
   50.4050   29.2380   49.0900 C   0  0  0  0  0  3  0  0  0  0  0  0
   52.1790   27.9490   45.1430 H   0  0  0  0  0  0  0  0  0  0  0  0
  1  6  1  0  0  0  0
  2  3  1  0  0  0  0
  2  8  1  0  0  0  0
  2  1  1  0  0  0  0
  3  4  1  0  0  0  0
  4 12  1  0  0  0  0
  4 11  1  0  0  0  0
  4  5  1  0  0  0  0
  5 13  1  0  0  0  0
  5 14  1  0  0  0  0
  6 15  1  6  0  0  0
  6  5  1  0  0  0  0
  6 31  1  0  0  0  0
  7  2  1  0  0  0  0
  9  3  1  0  0  0  0
 10  3  1  0  0  0  0
 16  1  1  0  0  0  0
 16 18  1  0  0  0  0
 17 16  1  0  0  0  0
 19 20  1  0  0  0  0
 19 16  1  0  0  0  0
 21 19  1  0  0  0  0
 22 23  1  0  0  0  0
 23 24  2  0  0  0  0
 23 29  1  0  0  0  0
 24 19  1  0  0  0  0
 25 24  1  0  0  0  0
 26 25  2  0  0  0  0
 27 26  1  0  0  0  0
 27 22  2  0  0  0  0
 28 22  1  0  0  0  0
 30 26  1  0  0  0  0
 31 33  1  0  0  0  0
 33 32  2  6  0  0  0
 33 36  1  0  0  0  0
 33 34  1  0  0  0  0
 35 34  1  0  0  0  0
 37 36  1  0  0  0  0
 37 38  1  0  0  0  0
 37 41  1  0  0  0  0
 39 37  1  0  0  0  0
 40 50  1  0  0  0  0
 41 40  2  0  0  0  0
 42 44  2  0  0  0  0
 42 41  1  0  0  0  0
 43 42  1  0  0  0  0
 44 49  1  0  0  0  0
 45 44  1  0  0  0  0
 45 46  1  0  0  0  0
 46 48  2  0  0  0  0
 47 46  1  0  0  0  0
 49 48  1  0  0  0  0
 49 50  2  0  0  0  0
 51 45  1  0  0  0  0
M  END
>  <minimizedAffinity>
-4.50716925

>  <minimizedRMSD>
1.62532914

$$$$
