REMARK  Name = 
REMARK  2 active torsions:
REMARK  status: ('A' for Active; 'I' for Inactive)
REMARK    1  A    between atoms: C_3  and  C_10
REMARK    2  A    between atoms: C_7  and  C_18
REMARK                            x       y       z     vdW  Elec       q    Type
REMARK                         _______ _______ _______ _____ _____    ______ ____
ROOT
ATOM      1  C   UNL     1      45.431  35.199  43.095  0.00  0.00    +0.000 A 
ATOM      2  C   UNL     1      46.454  35.560  42.214  0.00  0.00    +0.000 A 
ATOM      3  C   UNL     1      47.686  34.879  42.380  0.00  0.00    +0.000 A 
ATOM      4  N   UNL     1      47.768  33.946  43.367  0.00  0.00    +0.000 NA
ATOM      5  C   UNL     1      46.740  33.648  44.182  0.00  0.00    +0.000 A 
ATOM      6  N   UNL     1      45.564  34.273  44.051  0.00  0.00    +0.000 NA
ATOM      7  C   UNL     1      43.401  35.351  41.889  0.00  0.00    +0.000 C 
ATOM      8  O   UNL     1      43.955  34.462  41.157  0.00  0.00    +0.000 OA
ATOM      9  N   UNL     1      44.153  35.841  42.993  0.00  0.00    +0.000 N 
ATOM     10  H   UNL     1      46.227  36.319  41.486  0.00  0.00    +0.000 HD
ATOM     11  H   UNL     1      46.930  32.886  44.930  0.00  0.00    +0.000 HD
ATOM     12  H   UNL     1      43.800  36.562  43.621  0.00  0.00    +0.000 HD
ENDROOT
BRANCH   7  14
ATOM     13  C   UNL     1      41.256  35.428  40.560  0.00  0.00    +0.000 A 
ATOM     14  C   UNL     1      42.055  35.848  41.609  0.00  0.00    +0.000 A 
ATOM     15  C   UNL     1      41.537  36.801  42.444  0.00  0.00    +0.000 A 
ATOM     16  H   UNL     1      42.117  37.156  43.268  0.00  0.00    +0.000 HD
ATOM     17  C   UNL     1      40.260  37.334  42.255  0.00  0.00    +0.000 A 
ATOM     18  N   UNL     1      39.527  38.265  42.919  0.00  0.00    +0.000 N 
ATOM     19  C   UNL     1      38.328  38.399  42.289  0.00  0.00    +0.000 A 
ATOM     20  H   UNL     1      37.498  39.059  42.553  0.00  0.00    +0.000 HD
ATOM     21  N   UNL     1      38.300  37.564  41.238  0.00  0.00    +0.000 NA
ATOM     22  C   UNL     1      39.471  36.905  41.200  0.00  0.00    +0.000 A 
ATOM     23  C   UNL     1      39.993  35.943  40.358  0.00  0.00    +0.000 A 
ATOM     24  H   UNL     1      39.826  38.796  43.774  0.00  0.00    +0.000 HD
ENDBRANCH   7  14
BRANCH   3  25
ATOM     25  C   UNL     1      48.735  35.274  41.449  0.00  0.00    +0.000 C 
ATOM     26  F   UNL     1      49.851  34.452  41.666  0.00  0.00    +0.000 F 
ATOM     27  F   UNL     1      49.145  36.548  41.809  0.00  0.00    +0.000 F 
ATOM     28  F   UNL     1      48.388  35.140  40.142  0.00  0.00    +0.000 F 
ENDBRANCH   3  25
TORSDOF 2
