
 OpenBabel03252509083D

 44 48  0  0  0  0  0  0  0  0999 V2000
   46.8230   31.6450   39.3590 C   0  0  0  0  0  0  0  0  0  0  0  0
   46.5810   32.9800   39.2210 C   0  0  0  0  0  0  0  0  0  0  0  0
   47.3270   33.7220   38.3200 C   0  0  0  0  0  0  0  0  0  0  0  0
   48.3080   33.1220   37.5650 C   0  0  0  0  0  0  0  0  0  0  0  0
   48.5850   31.7630   37.6750 C   0  0  0  0  0  0  0  0  0  0  0  0
   47.8190   31.0350   38.5920 C   0  0  0  0  0  0  0  0  0  0  0  0
   47.1530   34.7860   38.1930 H   0  0  0  0  0  0  0  0  0  0  0  0
   48.9270   33.6170   36.8480 H   0  0  0  0  0  0  0  0  0  0  0  0
   49.3280   31.2110   37.1300 H   0  0  0  0  0  0  0  0  0  0  0  0
   48.0100   29.9690   38.7030 H   0  0  0  0  0  0  0  0  0  0  0  0
   45.2490   35.8400   43.3080 Cl  0  0  0  0  0  0  0  0  0  0  0  0
   44.9230   34.9960   41.8160 C   0  0  0  0  0  0  0  0  0  0  0  0
   45.9120   34.3460   41.1480 C   0  0  0  0  0  0  0  0  0  0  0  0
   45.5610   33.7070   39.9640 C   0  0  0  0  0  0  0  0  0  0  0  0
   44.2780   33.7300   39.4820 C   0  0  0  0  0  0  0  0  0  0  0  0
   43.3010   34.3830   40.1610 C   0  0  0  0  0  0  0  0  0  0  0  0
   43.6320   35.0220   41.3420 C   0  0  0  0  0  0  0  0  0  0  0  0
   44.0660   33.2140   38.5500 H   0  0  0  0  0  0  0  0  0  0  0  0
   42.3070   34.3740   39.7500 H   0  0  0  0  0  0  0  0  0  0  0  0
   42.8290   35.5310   41.8560 H   0  0  0  0  0  0  0  0  0  0  0  0
   49.4670   35.3630   41.9450 C   0  0  0  0  0  0  0  0  0  0  0  0
   48.1700   35.3640   41.4210 C   0  0  0  0  0  0  0  0  0  0  0  0
   47.2600   34.3540   41.6820 C   0  0  0  0  0  0  0  0  0  0  0  0
   47.7440   33.3920   42.4770 N   0  0  0  0  0  0  0  0  0  0  0  0
   48.9740   33.3720   42.9870 C   0  0  0  0  0  0  0  0  0  0  0  0
   49.8320   34.3470   42.7260 N   0  0  0  0  0  0  0  0  0  0  0  0
   50.1400   36.1730   41.7130 H   0  0  0  0  0  0  0  0  0  0  0  0
   47.8580   36.1930   40.7780 H   0  0  0  0  0  0  0  0  0  0  0  0
   49.1710   32.4990   43.6100 H   0  0  0  0  0  0  0  0  0  0  0  0
   45.9630   30.6940   40.4580 S   0  0  0  0  0  0  0  0  0  0  0  0
   46.1370   29.2010   40.0760 O   0  0  0  0  0  0  0  0  0  0  0  0
   46.7090   30.8000   41.7860 O   0  0  0  0  0  0  0  0  0  0  0  0
   43.6830   31.1660   41.9170 C   0  0  0  0  0  3  0  0  0  0  0  0
   44.2700   30.7440   40.6910 C   0  0  0  0  0  0  0  0  0  0  0  0
   43.2390   30.4830   39.7980 C   0  0  0  0  0  0  0  0  0  0  0  0
   43.5410   30.1800   38.8080 H   0  0  0  0  0  0  0  0  0  0  0  0
   41.8970   30.5870   39.9880 C   0  0  0  0  0  0  0  0  0  0  0  0
   40.8270   30.3650   39.2130 N   0  0  0  0  0  0  0  0  0  0  0  0
   39.7360   30.6510   39.9810 C   0  0  0  0  0  0  0  0  0  0  0  0
   38.7200   30.5620   39.6160 H   0  0  0  0  0  0  0  0  0  0  0  0
   40.1500   31.0450   41.2180 N   0  0  0  0  0  0  0  0  0  0  0  0
   41.4970   31.0110   41.2360 C   0  0  0  0  0  0  0  0  0  0  0  0
   42.3570   31.3210   42.2600 C   0  0  0  0  0  3  0  0  0  0  0  0
   40.8460   30.0410   38.2310 H   0  0  0  0  0  0  0  0  0  0  0  0
  1 30  1  0  0  0  0
  2  1  1  0  0  0  0
  2 14  1  0  0  0  0
  3  2  2  0  0  0  0
  4  5  2  0  0  0  0
  4  3  1  0  0  0  0
  5  6  1  0  0  0  0
  6 10  1  0  0  0  0
  6  1  2  0  0  0  0
  7  3  1  0  0  0  0
  8  4  1  0  0  0  0
  9  5  1  0  0  0  0
 12 11  1  0  0  0  0
 13 23  1  0  0  0  0
 13 12  2  0  0  0  0
 14 13  1  0  0  0  0
 15 14  2  0  0  0  0
 15 16  1  0  0  0  0
 16 17  2  0  0  0  0
 17 12  1  0  0  0  0
 17 20  1  0  0  0  0
 18 15  1  0  0  0  0
 19 16  1  0  0  0  0
 21 26  1  0  0  0  0
 22 23  1  0  0  0  0
 22 21  2  0  0  0  0
 23 24  2  0  0  0  0
 24 25  1  0  0  0  0
 25 29  1  0  0  0  0
 26 25  2  0  0  0  0
 27 21  1  0  0  0  0
 28 22  1  0  0  0  0
 30 34  1  0  0  0  0
 30 32  2  0  0  0  0
 31 30  2  0  0  0  0
 33 43  1  0  0  0  0
 34 33  2  0  0  0  0
 35 37  2  0  0  0  0
 35 34  1  0  0  0  0
 36 35  1  0  0  0  0
 37 42  1  0  0  0  0
 38 39  1  0  0  0  0
 38 37  1  0  0  0  0
 39 41  2  0  0  0  0
 40 39  1  0  0  0  0
 41 42  1  0  0  0  0
 42 43  2  0  0  0  0
 44 38  1  0  0  0  0
M  END
>  <minimizedAffinity>
-5.13344574

>  <minimizedRMSD>
1.58581388

$$$$
