
 OpenBabel03242519473D

 41 44  0  0  1  0  0  0  0  0999 V2000
   46.4940   32.6290   46.6460 C   0  0  2  0  0  0  0  0  0  0  0  0
   47.0580   32.6480   45.2820 C   0  0  1  0  0  0  0  0  0  0  0  0
   46.7090   31.3320   44.7350 O   0  0  0  0  0  0  0  0  0  0  0  0
   47.2930   30.5870   45.7870 C   0  0  0  0  0  0  0  0  0  0  0  0
   46.4710   31.1450   46.9800 C   0  0  2  0  0  0  0  0  0  0  0  0
   47.0670   33.2010   47.3960 H   0  0  0  0  0  0  0  0  0  0  0  0
   48.1510   32.6410   45.2270 H   0  0  0  0  0  0  0  0  0  0  0  0
   47.2750   29.5320   45.6820 H   0  0  0  0  0  0  0  0  0  0  0  0
   48.3450   30.9590   45.8790 H   0  0  0  0  0  0  0  0  0  0  0  0
   47.0460   30.8590   47.8880 H   0  0  0  0  0  0  0  0  0  0  0  0
   44.7910   35.2140   44.0170 C   0  0  0  0  0  0  0  0  0  0  0  0
   45.4420   35.7110   42.8890 C   0  0  0  0  0  0  0  0  0  0  0  0
   46.6900   35.1580   42.5360 C   0  0  0  0  0  0  0  0  0  0  0  0
   47.2150   34.1540   43.3150 N   0  0  0  0  0  0  0  0  0  0  0  0
   46.5520   33.7020   44.4010 C   0  0  0  0  0  0  0  0  0  0  0  0
   45.3470   34.2170   44.7620 N   0  0  0  0  0  0  0  0  0  0  0  0
   45.0000   36.4920   42.3100 H   0  0  0  0  0  0  0  0  0  0  0  0
   47.2230   35.5190   41.6660 H   0  0  0  0  0  0  0  0  0  0  0  0
   43.5490   35.7200   44.4190 O   0  0  0  0  0  0  0  0  0  0  0  0
   42.9850   36.1030   43.6630 H   0  0  0  0  0  0  0  0  0  0  0  0
   45.1340   33.0930   46.6060 O   0  0  0  0  0  0  0  0  0  0  0  0
   44.8220   32.9840   47.5380 H   0  0  0  0  0  0  0  0  0  0  0  0
   45.2160   30.6260   46.8820 O   0  0  0  0  0  0  0  0  0  0  0  0
   44.9630   29.4560   47.5520 C   0  0  0  0  0  0  0  0  0  0  0  0
   45.5650   29.3750   48.4500 H   0  0  0  0  0  0  0  0  0  0  0  0
   43.9130   29.7040   48.0750 H   0  0  0  0  0  0  0  0  0  0  0  0
   44.7510   28.2490   46.7360 C   0  0  0  0  0  0  0  0  0  0  0  0
   45.6720   27.8030   46.3100 H   0  0  0  0  0  0  0  0  0  0  0  0
   44.1790   27.4970   47.3350 H   0  0  0  0  0  0  0  0  0  0  0  0
   44.2420   28.9790   44.2800 C   0  0  0  0  0  3  0  0  0  0  0  0
   43.9130   28.5850   45.5550 C   0  0  0  0  0  0  0  0  0  0  0  0
   42.5240   28.5020   45.7490 C   0  0  0  0  0  0  0  0  0  0  0  0
   42.1350   28.2010   46.7160 H   0  0  0  0  0  0  0  0  0  0  0  0
   41.5610   28.7750   44.8010 C   0  0  0  0  0  0  0  0  0  0  0  0
   40.2180   28.7460   44.8200 N   0  0  0  0  0  0  0  0  0  0  0  0
   39.7820   29.1090   43.6050 C   0  0  0  0  0  0  0  0  0  0  0  0
   38.7550   29.1960   43.2660 H   0  0  0  0  0  0  0  0  0  0  0  0
   40.8670   29.3680   42.8210 N   0  0  0  0  0  0  0  0  0  0  0  0
   41.9750   29.1620   43.5530 C   0  0  0  0  0  0  0  0  0  0  0  0
   43.3240   29.2640   43.2970 C   0  0  0  0  0  3  0  0  0  0  0  0
   39.6310   28.4910   45.6280 H   0  0  0  0  0  0  0  0  0  0  0  0
  1  5  1  0  0  0  0
  1  6  1  1  0  0  0
  2  7  1  1  0  0  0
  2  1  1  0  0  0  0
  3  2  1  0  0  0  0
  3  4  1  0  0  0  0
  4  9  1  0  0  0  0
  4  5  1  0  0  0  0
  5 10  1  1  0  0  0
  8  4  1  0  0  0  0
 11 19  1  0  0  0  0
 11 16  1  0  0  0  0
 12 11  2  0  0  0  0
 13 12  1  0  0  0  0
 13 14  2  0  0  0  0
 14 15  1  0  0  0  0
 15 16  2  0  0  0  0
 15  2  1  0  0  0  0
 17 12  1  0  0  0  0
 18 13  1  0  0  0  0
 20 19  1  0  0  0  0
 21  1  1  0  0  0  0
 21 22  1  0  0  0  0
 23  5  1  0  0  0  0
 23 24  1  0  0  0  0
 24 26  1  0  0  0  0
 24 25  1  0  0  0  0
 27 29  1  0  0  0  0
 27 24  1  0  0  0  0
 28 27  1  0  0  0  0
 30 31  1  0  0  0  0
 31 32  2  0  0  0  0
 31 27  1  0  0  0  0
 32 33  1  0  0  0  0
 34 35  1  0  0  0  0
 34 32  1  0  0  0  0
 35 41  1  0  0  0  0
 36 35  1  0  0  0  0
 37 36  1  0  0  0  0
 38 39  1  0  0  0  0
 38 36  2  0  0  0  0
 39 34  2  0  0  0  0
 40 39  1  0  0  0  0
 40 30  2  0  0  0  0
M  END
>  <minimizedAffinity>
-5.65823746

>  <minimizedRMSD>
1.25272322

$$$$
