
 OpenBabel03252500273D

 46 49  0  0  1  0  0  0  0  0999 V2000
   47.1060   32.9850   47.0530 O   0  0  0  0  0  0  0  0  0  0  0  0
   45.6600   32.6560   46.9360 P   0  0  1  0  0  0  0  0  0  0  0  0
   45.4400   31.5480   45.6740 O   0  0  0  0  0  0  0  0  0  0  0  0
   46.0160   31.7720   44.8960 H   0  0  0  0  0  0  0  0  0  0  0  0
   45.1980   31.9730   48.3650 O   0  0  0  0  0  0  0  0  0  0  0  0
   47.1100   30.5470   48.2680 C   0  0  2  0  0  0  0  0  0  0  0  0
   45.6450   30.6780   48.4410 C   0  0  2  0  0  0  0  0  0  0  0  0
   45.0400   29.8050   47.4580 C   0  0  0  0  0  0  0  0  0  0  0  0
   45.9720   28.8230   47.0930 O   0  0  0  0  0  0  0  0  0  0  0  0
   47.0490   29.0130   47.8910 C   0  0  0  0  0  0  0  0  0  0  0  0
   47.5530   30.8490   47.3050 H   0  0  0  0  0  0  0  0  0  0  0  0
   45.5000   30.4230   49.5300 H   0  0  0  0  0  0  0  0  0  0  0  0
   44.2940   30.0810   46.7460 H   0  0  0  0  0  0  0  0  0  0  0  0
   44.3730   29.1230   48.0990 H   0  0  0  0  0  0  0  0  0  0  0  0
   46.8170   28.5580   48.8930 H   0  0  0  0  0  0  0  0  0  0  0  0
   48.0200   28.6680   47.5460 H   0  0  0  0  0  0  0  0  0  0  0  0
   47.8760   30.6600   49.3660 O   0  0  0  0  0  0  0  0  0  0  0  0
   49.1230   31.0350   49.3980 C   0  0  0  0  0  0  0  0  0  0  0  0
   49.3860   32.0490   49.2900 H   0  0  0  0  0  0  0  0  0  0  0  0
   49.6090   30.6310   48.3500 H   0  0  0  0  0  0  0  0  0  0  0  0
   49.8500   30.2050   50.4450 C   0  0  0  0  0  0  0  0  0  0  0  0
   49.3500   29.2410   50.6050 H   0  0  0  0  0  0  0  0  0  0  0  0
   49.9590   30.7730   51.3980 H   0  0  0  0  0  0  0  0  0  0  0  0
   50.8870   30.0160   50.0960 H   0  0  0  0  0  0  0  0  0  0  0  0
   44.8650   34.1320   46.6220 O   0  0  0  0  0  0  0  0  0  0  0  0
   45.2200   34.4900   43.0680 C   0  0  0  0  0  0  0  0  0  0  0  0
   45.0210   35.8720   42.8400 C   0  0  0  0  0  0  0  0  0  0  0  0
   44.7590   36.6610   43.9820 C   0  0  0  0  0  0  0  0  0  0  0  0
   44.7150   36.0690   45.1920 N   0  0  0  0  0  0  0  0  0  0  0  0
   44.9110   34.7530   45.3610 C   0  0  0  0  0  0  0  0  0  0  0  0
   45.1600   33.9810   44.2970 N   0  0  0  0  0  0  0  0  0  0  0  0
   45.0640   36.3070   41.8540 H   0  0  0  0  0  0  0  0  0  0  0  0
   44.6070   37.7090   43.8200 H   0  0  0  0  0  0  0  0  0  0  0  0
   45.4750   33.6820   41.9970 O   0  0  0  0  0  0  0  0  0  0  0  0
   43.1710   33.0990   41.5660 C   0  0  0  0  0  0  0  0  0  0  0  0
   44.4930   33.1800   41.1630 C   0  0  0  0  0  0  0  0  0  0  0  0
   44.9620   32.7770   39.9190 C   0  0  0  0  0  0  0  0  0  0  0  0
   45.9840   32.8440   39.6230 H   0  0  0  0  0  0  0  0  0  0  0  0
   44.0350   32.2590   39.0230 C   0  0  0  0  0  0  0  0  0  0  0  0
   44.1750   31.7880   37.7570 N   0  0  0  0  0  0  0  0  0  0  0  0
   42.9450   31.4080   37.3510 C   0  0  0  0  0  0  0  0  0  0  0  0
   42.7200   30.9870   36.3800 H   0  0  0  0  0  0  0  0  0  0  0  0
   42.0520   31.6300   38.3260 N   0  0  0  0  0  0  0  0  0  0  0  0
   42.7050   32.1580   39.3780 C   0  0  0  0  0  0  0  0  0  0  0  0
   42.2750   32.5740   40.6360 C   0  0  0  0  0  0  0  0  0  0  0  0
   45.0870   31.7620   37.2690 H   0  0  0  0  0  0  0  0  0  0  0  0
  2  1  2  1  0  0  0
  2  5  1  0  0  0  0
  3  2  1  0  0  0  0
  4  3  1  0  0  0  0
  5  7  1  0  0  0  0
  6 11  1  6  0  0  0
  6  7  1  0  0  0  0
  6 17  1  0  0  0  0
  7 12  1  1  0  0  0
  8 14  1  0  0  0  0
  8  7  1  0  0  0  0
  9  8  1  0  0  0  0
  9 10  1  0  0  0  0
 10  6  1  0  0  0  0
 10 15  1  0  0  0  0
 13  8  1  0  0  0  0
 16 10  1  0  0  0  0
 17 18  1  0  0  0  0
 18 21  1  0  0  0  0
 19 18  1  0  0  0  0
 20 18  1  0  0  0  0
 21 22  1  0  0  0  0
 21 23  1  0  0  0  0
 24 21  1  0  0  0  0
 25  2  1  0  0  0  0
 26 31  1  0  0  0  0
 27 26  2  0  0  0  0
 27 28  1  0  0  0  0
 28 29  2  0  0  0  0
 29 30  1  0  0  0  0
 30 25  1  0  0  0  0
 31 30  2  0  0  0  0
 32 27  1  0  0  0  0
 33 28  1  0  0  0  0
 34 26  1  0  0  0  0
 36 35  1  0  0  0  0
 36 34  1  0  0  0  0
 37 36  2  0  0  0  0
 38 37  1  0  0  0  0
 39 44  2  0  0  0  0
 39 37  1  0  0  0  0
 40 39  1  0  0  0  0
 41 40  1  0  0  0  0
 41 43  2  0  0  0  0
 42 41  1  0  0  0  0
 43 44  1  0  0  0  0
 44 45  1  0  0  0  0
 45 35  2  0  0  0  0
 46 40  1  0  0  0  0
M  END
>  <minimizedAffinity>
-4.98975706

>  <minimizedRMSD>
6.05387974

$$$$
