
 OpenBabel03252508103D

 47 51  0  0  0  0  0  0  0  0999 V2000
   36.3670   25.9400   38.2190 C   0  0  0  0  0  0  0  0  0  0  0  0
   36.7790   26.6360   39.3450 C   0  0  0  0  0  0  0  0  0  0  0  0
   36.8670   25.9920   40.5550 C   0  0  0  0  0  0  0  0  0  0  0  0
   36.5340   24.6520   40.5790 N   0  0  0  0  0  0  0  0  0  0  0  0
   36.1400   23.9900   39.4940 C   0  0  0  0  0  0  0  0  0  0  0  0
   36.0600   24.6480   38.3170 N   0  0  0  0  0  0  0  0  0  0  0  0
   36.2970   26.4590   37.2550 H   0  0  0  0  0  0  0  0  0  0  0  0
   35.8810   22.9410   39.5190 H   0  0  0  0  0  0  0  0  0  0  0  0
   37.2650   26.5550   41.7900 C   0  0  0  0  0  0  0  0  0  0  0  0
   36.4740   27.4290   42.5400 C   0  0  0  0  0  0  0  0  0  0  0  0
   36.8790   28.0300   43.7030 C   0  0  0  0  0  0  0  0  0  0  0  0
   38.1430   27.7790   44.1950 C   0  0  0  0  0  0  0  0  0  0  0  0
   38.9660   26.8900   43.4490 C   0  0  0  0  0  0  0  0  0  0  0  0
   40.2180   26.6370   43.9280 C   0  0  0  0  0  0  0  0  0  0  0  0
   41.0680   25.7800   43.2530 C   0  0  0  0  0  0  0  0  0  0  0  0
   40.6290   25.1700   42.0670 C   0  0  0  0  0  0  0  0  0  0  0  0
   39.3290   25.4630   41.6130 C   0  0  0  0  0  0  0  0  0  0  0  0
   38.5140   26.3180   42.3010 C   0  0  0  0  0  0  0  0  0  0  0  0
   35.4820   27.6370   42.1670 H   0  0  0  0  0  0  0  0  0  0  0  0
   36.1870   28.6920   44.2070 H   0  0  0  0  0  0  0  0  0  0  0  0
   38.4940   28.2380   45.1090 H   0  0  0  0  0  0  0  0  0  0  0  0
   40.5340   27.1270   44.8580 H   0  0  0  0  0  0  0  0  0  0  0  0
   42.0580   25.6110   43.6720 H   0  0  0  0  0  0  0  0  0  0  0  0
   41.3540   24.5160   41.6080 H   0  0  0  0  0  0  0  0  0  0  0  0
   39.1760   24.8920   40.7220 H   0  0  0  0  0  0  0  0  0  0  0  0
   37.0850   27.9580   39.1870 O   0  0  0  0  0  0  0  0  0  0  0  0
   34.5640   28.6590   39.0970 O   0  0  0  0  0  0  0  0  0  0  0  0
   35.9460   29.2050   39.0920 P   0  0  1  0  0  0  0  0  0  0  0  0
   36.0700   30.2470   40.4220 O   0  0  0  0  0  0  0  0  0  0  0  0
   38.3070   30.5040   41.1890 C   0  0  0  0  0  3  0  0  0  0  0  0
   37.2100   31.0590   40.5420 C   0  0  0  0  0  0  0  0  0  0  0  0
   37.1360   32.3230   40.0130 C   0  0  0  0  0  0  0  0  0  0  0  0
   36.2240   32.6570   39.5260 H   0  0  0  0  0  0  0  0  0  0  0  0
   38.2670   33.1160   40.1370 C   0  0  0  0  0  0  0  0  0  0  0  0
   38.4780   34.3860   39.7160 N   0  0  0  0  0  0  0  0  0  0  0  0
   39.7410   34.6920   40.0850 C   0  0  0  0  0  0  0  0  0  0  0  0
   40.1550   35.6590   39.8630 H   0  0  0  0  0  0  0  0  0  0  0  0
   40.2980   33.6380   40.7190 N   0  0  0  0  0  0  0  0  0  0  0  0
   39.3940   32.6260   40.7700 C   0  0  0  0  0  0  0  0  0  0  0  0
   39.3880   31.3430   41.2750 C   0  0  0  0  0  3  0  0  0  0  0  0
   37.7600   34.9640   39.2080 H   0  0  0  0  0  0  0  0  0  0  0  0
   36.2400   30.0830   37.6910 O   0  0  0  0  0  0  0  0  0  0  0  0
   37.2070   29.8190   36.7320 C   0  0  0  0  0  0  0  0  0  0  0  0
   36.5610   29.5020   35.7170 O   0  0  0  0  0  0  0  0  0  0  0  0
   38.5300   30.0110   37.2700 N   0  0  0  0  0  0  0  0  0  0  0  0
   39.2970   29.3530   37.4610 H   0  0  0  0  0  0  0  0  0  0  0  0
   38.8180   30.9660   37.5310 H   0  0  0  0  0  0  0  0  0  0  0  0
  1  6  2  0  0  0  0
  1  2  1  0  0  0  0
  2  3  2  0  0  0  0
  3  4  1  0  0  0  0
  3  9  1  0  0  0  0
  5  8  1  0  0  0  0
  5  4  2  0  0  0  0
  6  5  1  0  0  0  0
  7  1  1  0  0  0  0
  9 18  2  0  0  0  0
  9 10  1  0  0  0  0
 10 11  2  0  0  0  0
 11 12  1  0  0  0  0
 11 20  1  0  0  0  0
 12 21  1  0  0  0  0
 13 14  1  0  0  0  0
 13 12  2  0  0  0  0
 14 22  1  0  0  0  0
 15 23  1  0  0  0  0
 15 14  2  0  0  0  0
 16 15  1  0  0  0  0
 17 16  2  0  0  0  0
 17 18  1  0  0  0  0
 18 13  1  0  0  0  0
 19 10  1  0  0  0  0
 24 16  1  0  0  0  0
 25 17  1  0  0  0  0
 26  2  1  0  0  0  0
 28 27  2  6  0  0  0
 28 26  1  0  0  0  0
 28 29  1  0  0  0  0
 29 31  1  0  0  0  0
 30 40  1  0  0  0  0
 31 30  2  0  0  0  0
 32 34  2  0  0  0  0
 32 31  1  0  0  0  0
 33 32  1  0  0  0  0
 34 39  1  0  0  0  0
 35 36  1  0  0  0  0
 35 34  1  0  0  0  0
 36 38  2  0  0  0  0
 37 36  1  0  0  0  0
 38 39  1  0  0  0  0
 39 40  2  0  0  0  0
 41 35  1  0  0  0  0
 42 28  1  0  0  0  0
 43 45  1  0  0  0  0
 43 42  1  0  0  0  0
 44 43  2  0  0  0  0
 45 46  1  0  0  0  0
 45 47  1  0  0  0  0
M  END
>  <minimizedAffinity>
-6.9522872

$$$$

 OpenBabel03252508103D

 47 51  0  0  0  0  0  0  0  0999 V2000
   36.5660   24.6830   38.9240 C   0  0  0  0  0  0  0  0  0  0  0  0
   36.6310   25.7810   39.7670 C   0  0  0  0  0  0  0  0  0  0  0  0
   37.2890   25.6840   40.9690 C   0  0  0  0  0  0  0  0  0  0  0  0
   37.8640   24.4670   41.2740 N   0  0  0  0  0  0  0  0  0  0  0  0
   37.7990   23.4160   40.4590 C   0  0  0  0  0  0  0  0  0  0  0  0
   37.1440   23.5390   39.2830 N   0  0  0  0  0  0  0  0  0  0  0  0
   36.0390   24.7650   37.9650 H   0  0  0  0  0  0  0  0  0  0  0  0
   38.2520   22.4660   40.7020 H   0  0  0  0  0  0  0  0  0  0  0  0
   37.4430   26.7030   41.9380 C   0  0  0  0  0  0  0  0  0  0  0  0
   36.6310   26.8360   43.0680 C   0  0  0  0  0  0  0  0  0  0  0  0
   36.7320   27.8580   43.9750 C   0  0  0  0  0  0  0  0  0  0  0  0
   37.6850   28.8380   43.7920 C   0  0  0  0  0  0  0  0  0  0  0  0
   38.5250   28.7230   42.6490 C   0  0  0  0  0  0  0  0  0  0  0  0
   39.4690   29.6900   42.4610 C   0  0  0  0  0  0  0  0  0  0  0  0
   40.3190   29.6370   41.3710 C   0  0  0  0  0  0  0  0  0  0  0  0
   40.2020   28.5760   40.4590 C   0  0  0  0  0  0  0  0  0  0  0  0
   39.2130   27.6050   40.6960 C   0  0  0  0  0  0  0  0  0  0  0  0
   38.3840   27.6870   41.7810 C   0  0  0  0  0  0  0  0  0  0  0  0
   35.8800   26.0760   43.2230 H   0  0  0  0  0  0  0  0  0  0  0  0
   36.0530   27.8650   44.8170 H   0  0  0  0  0  0  0  0  0  0  0  0
   37.7900   29.6590   44.4890 H   0  0  0  0  0  0  0  0  0  0  0  0
   39.5380   30.5070   43.1910 H   0  0  0  0  0  0  0  0  0  0  0  0
   41.0560   30.4320   41.2610 H   0  0  0  0  0  0  0  0  0  0  0  0
   40.9060   28.6130   39.6420 H   0  0  0  0  0  0  0  0  0  0  0  0
   39.2970   26.8790   39.9160 H   0  0  0  0  0  0  0  0  0  0  0  0
   36.0240   26.9310   39.3460 O   0  0  0  0  0  0  0  0  0  0  0  0
   35.4990   26.9430   36.7820 O   0  0  0  0  0  0  0  0  0  0  0  0
   36.2710   27.6520   37.8360 P   0  0  1  0  0  0  0  0  0  0  0  0
   35.7430   29.2620   37.8360 O   0  0  0  0  0  0  0  0  0  0  0  0
   35.9500   30.2520   39.9890 C   0  0  0  0  0  3  0  0  0  0  0  0
   36.3890   30.1860   38.6720 C   0  0  0  0  0  0  0  0  0  0  0  0
   37.3920   30.9390   38.1150 C   0  0  0  0  0  0  0  0  0  0  0  0
   37.6560   30.8070   37.0700 H   0  0  0  0  0  0  0  0  0  0  0  0
   38.0240   31.8500   38.9500 C   0  0  0  0  0  0  0  0  0  0  0  0
   39.0320   32.7120   38.6770 N   0  0  0  0  0  0  0  0  0  0  0  0
   39.2760   33.3700   39.8310 C   0  0  0  0  0  0  0  0  0  0  0  0
   40.0440   34.1220   39.8780 H   0  0  0  0  0  0  0  0  0  0  0  0
   38.4400   32.9270   40.7940 N   0  0  0  0  0  0  0  0  0  0  0  0
   37.6360   31.9670   40.2710 C   0  0  0  0  0  0  0  0  0  0  0  0
   36.6180   31.1720   40.7550 C   0  0  0  0  0  3  0  0  0  0  0  0
   39.4900   32.8020   37.7340 H   0  0  0  0  0  0  0  0  0  0  0  0
   37.9150   27.6240   37.5000 O   0  0  0  0  0  0  0  0  0  0  0  0
   38.5100   27.6850   36.2480 C   0  0  0  0  0  0  0  0  0  0  0  0
   39.5370   26.9930   36.3570 O   0  0  0  0  0  0  0  0  0  0  0  0
   37.7300   28.4960   35.3480 N   0  0  0  0  0  0  0  0  0  0  0  0
   37.9190   29.4010   34.8980 H   0  0  0  0  0  0  0  0  0  0  0  0
   36.7980   28.1570   35.0680 H   0  0  0  0  0  0  0  0  0  0  0  0
  1  6  2  0  0  0  0
  1  2  1  0  0  0  0
  2  3  2  0  0  0  0
  3  4  1  0  0  0  0
  3  9  1  0  0  0  0
  5  8  1  0  0  0  0
  5  4  2  0  0  0  0
  6  5  1  0  0  0  0
  7  1  1  0  0  0  0
  9 10  1  0  0  0  0
 10 19  1  0  0  0  0
 10 11  2  0  0  0  0
 11 20  1  0  0  0  0
 12 11  1  0  0  0  0
 12 21  1  0  0  0  0
 13 12  2  0  0  0  0
 14 13  1  0  0  0  0
 14 22  1  0  0  0  0
 15 14  2  0  0  0  0
 16 17  2  0  0  0  0
 16 15  1  0  0  0  0
 17 18  1  0  0  0  0
 18  9  2  0  0  0  0
 18 13  1  0  0  0  0
 23 15  1  0  0  0  0
 24 16  1  0  0  0  0
 25 17  1  0  0  0  0
 26  2  1  0  0  0  0
 28 27  2  6  0  0  0
 28 29  1  0  0  0  0
 28 26  1  0  0  0  0
 29 31  1  0  0  0  0
 30 40  1  0  0  0  0
 31 30  2  0  0  0  0
 32 31  1  0  0  0  0
 32 34  2  0  0  0  0
 33 32  1  0  0  0  0
 34 39  1  0  0  0  0
 35 34  1  0  0  0  0
 35 36  1  0  0  0  0
 36 37  1  0  0  0  0
 36 38  2  0  0  0  0
 39 40  2  0  0  0  0
 39 38  1  0  0  0  0
 41 35  1  0  0  0  0
 42 28  1  0  0  0  0
 43 44  2  0  0  0  0
 43 42  1  0  0  0  0
 45 43  1  0  0  0  0
 46 45  1  0  0  0  0
 47 45  1  0  0  0  0
M  END
>  <minimizedAffinity>
-6.69723511

$$$$

 OpenBabel03252508103D

 47 51  0  0  0  0  0  0  0  0999 V2000
   42.1250   29.0060   41.3130 C   0  0  0  0  0  0  0  0  0  0  0  0
   40.7740   28.7150   41.4290 C   0  0  0  0  0  0  0  0  0  0  0  0
   40.3100   28.0460   42.5350 C   0  0  0  0  0  0  0  0  0  0  0  0
   41.2400   27.6950   43.4930 N   0  0  0  0  0  0  0  0  0  0  0  0
   42.5350   27.9770   43.3760 C   0  0  0  0  0  0  0  0  0  0  0  0
   42.9650   28.6350   42.2760 N   0  0  0  0  0  0  0  0  0  0  0  0
   42.4910   29.5390   40.4270 H   0  0  0  0  0  0  0  0  0  0  0  0
   43.2580   27.7010   44.1300 H   0  0  0  0  0  0  0  0  0  0  0  0
   38.9720   27.6740   42.8030 C   0  0  0  0  0  0  0  0  0  0  0  0
   38.0960   28.4240   43.5920 C   0  0  0  0  0  0  0  0  0  0  0  0
   36.8210   28.0380   43.9110 C   0  0  0  0  0  0  0  0  0  0  0  0
   36.3360   26.8360   43.4390 C   0  0  0  0  0  0  0  0  0  0  0  0
   37.2090   26.0550   42.6320 C   0  0  0  0  0  0  0  0  0  0  0  0
   36.7370   24.8640   42.1630 C   0  0  0  0  0  0  0  0  0  0  0  0
   37.5340   24.0570   41.3700 C   0  0  0  0  0  0  0  0  0  0  0  0
   38.8350   24.4770   41.0510 C   0  0  0  0  0  0  0  0  0  0  0  0
   39.2750   25.7130   41.5590 C   0  0  0  0  0  0  0  0  0  0  0  0
   38.4660   26.4860   42.3440 C   0  0  0  0  0  0  0  0  0  0  0  0
   38.4620   29.3680   43.9700 H   0  0  0  0  0  0  0  0  0  0  0  0
   36.2240   28.6960   44.5290 H   0  0  0  0  0  0  0  0  0  0  0  0
   35.3340   26.5010   43.6730 H   0  0  0  0  0  0  0  0  0  0  0  0
   35.7160   24.5620   42.4270 H   0  0  0  0  0  0  0  0  0  0  0  0
   37.1150   23.1150   41.0210 H   0  0  0  0  0  0  0  0  0  0  0  0
   39.3840   23.7890   40.4270 H   0  0  0  0  0  0  0  0  0  0  0  0
   40.2680   25.8640   41.1910 H   0  0  0  0  0  0  0  0  0  0  0  0
   39.9570   29.1220   40.4130 O   0  0  0  0  0  0  0  0  0  0  0  0
   39.0540   31.1820   41.7520 O   0  0  0  0  0  0  0  0  0  0  0  0
   39.0940   30.5770   40.3950 P   0  0  1  0  0  0  0  0  0  0  0  0
   39.8290   31.7080   39.3710 O   0  0  0  0  0  0  0  0  0  0  0  0
   40.3450   33.9200   40.0780 C   0  0  0  0  0  3  0  0  0  0  0  0
   40.7630   32.6060   39.9130 C   0  0  0  0  0  0  0  0  0  0  0  0
   42.0010   32.1050   40.2290 C   0  0  0  0  0  0  0  0  0  0  0  0
   42.2240   31.0550   40.0580 H   0  0  0  0  0  0  0  0  0  0  0  0
   42.9170   33.0000   40.7640 C   0  0  0  0  0  0  0  0  0  0  0  0
   44.1940   32.7900   41.1630 N   0  0  0  0  0  0  0  0  0  0  0  0
   44.6440   33.9840   41.6050 C   0  0  0  0  0  0  0  0  0  0  0  0
   45.6460   34.0840   41.9800 H   0  0  0  0  0  0  0  0  0  0  0  0
   43.6700   34.9110   41.4820 N   0  0  0  0  0  0  0  0  0  0  0  0
   42.5660   34.3230   40.9540 C   0  0  0  0  0  0  0  0  0  0  0  0
   41.3000   34.7480   40.6100 C   0  0  0  0  0  3  0  0  0  0  0  0
   44.6790   31.8570   41.1120 H   0  0  0  0  0  0  0  0  0  0  0  0
   37.5450   30.2640   39.8300 O   0  0  0  0  0  0  0  0  0  0  0  0
   36.4540   29.8470   40.5790 C   0  0  0  0  0  0  0  0  0  0  0  0
   36.3720   28.6260   40.3560 O   0  0  0  0  0  0  0  0  0  0  0  0
   35.8690   30.9530   41.2940 N   0  0  0  0  0  0  0  0  0  0  0  0
   34.9590   31.4240   41.2080 H   0  0  0  0  0  0  0  0  0  0  0  0
   36.4200   31.3960   42.0440 H   0  0  0  0  0  0  0  0  0  0  0  0
  1  2  2  0  0  0  0
  1  6  1  0  0  0  0
  2  3  1  0  0  0  0
  3  9  1  0  0  0  0
  3  4  2  0  0  0  0
  5  4  1  0  0  0  0
  5  8  1  0  0  0  0
  6  5  2  0  0  0  0
  7  1  1  0  0  0  0
  9 10  1  0  0  0  0
 10 11  2  0  0  0  0
 10 19  1  0  0  0  0
 11 20  1  0  0  0  0
 12 21  1  0  0  0  0
 12 11  1  0  0  0  0
 13 12  2  0  0  0  0
 14 22  1  0  0  0  0
 14 13  1  0  0  0  0
 15 14  2  0  0  0  0
 16 15  1  0  0  0  0
 16 17  2  0  0  0  0
 17 18  1  0  0  0  0
 18 13  1  0  0  0  0
 18  9  2  0  0  0  0
 23 15  1  0  0  0  0
 24 16  1  0  0  0  0
 25 17  1  0  0  0  0
 26  2  1  0  0  0  0
 28 26  1  0  0  0  0
 28 27  2  1  0  0  0
 29 31  1  0  0  0  0
 29 28  1  0  0  0  0
 30 40  1  0  0  0  0
 31 30  2  0  0  0  0
 31 32  1  0  0  0  0
 32 34  2  0  0  0  0
 33 32  1  0  0  0  0
 34 39  1  0  0  0  0
 34 35  1  0  0  0  0
 35 36  1  0  0  0  0
 36 37  1  0  0  0  0
 38 36  2  0  0  0  0
 39 38  1  0  0  0  0
 40 39  2  0  0  0  0
 41 35  1  0  0  0  0
 42 28  1  0  0  0  0
 42 43  1  0  0  0  0
 43 45  1  0  0  0  0
 44 43  2  0  0  0  0
 45 47  1  0  0  0  0
 46 45  1  0  0  0  0
M  END
>  <minimizedAffinity>
-6.64273262

$$$$

 OpenBabel03252508103D

 47 51  0  0  0  0  0  0  0  0999 V2000
   41.6460   31.0830   42.4920 C   0  0  0  0  0  0  0  0  0  0  0  0
   40.3750   30.5360   42.4070 C   0  0  0  0  0  0  0  0  0  0  0  0
   40.1780   29.2110   42.7070 C   0  0  0  0  0  0  0  0  0  0  0  0
   41.2860   28.4810   43.0890 N   0  0  0  0  0  0  0  0  0  0  0  0
   42.5040   29.0130   43.1680 C   0  0  0  0  0  0  0  0  0  0  0  0
   42.6700   30.3190   42.8650 N   0  0  0  0  0  0  0  0  0  0  0  0
   41.7990   32.1420   42.2490 H   0  0  0  0  0  0  0  0  0  0  0  0
   43.3680   28.4370   43.4680 H   0  0  0  0  0  0  0  0  0  0  0  0
   38.9530   28.5040   42.6690 C   0  0  0  0  0  0  0  0  0  0  0  0
   38.0930   28.3750   43.7630 C   0  0  0  0  0  0  0  0  0  0  0  0
   36.9380   27.6370   43.7530 C   0  0  0  0  0  0  0  0  0  0  0  0
   36.5700   26.9660   42.6060 C   0  0  0  0  0  0  0  0  0  0  0  0
   37.4290   27.0840   41.4790 C   0  0  0  0  0  0  0  0  0  0  0  0
   37.0730   26.4210   40.3400 C   0  0  0  0  0  0  0  0  0  0  0  0
   37.8630   26.4970   39.2080 C   0  0  0  0  0  0  0  0  0  0  0  0
   39.0380   27.2640   39.2400 C   0  0  0  0  0  0  0  0  0  0  0  0
   39.3630   27.9280   40.4370 C   0  0  0  0  0  0  0  0  0  0  0  0
   38.5640   27.8310   41.5410 C   0  0  0  0  0  0  0  0  0  0  0  0
   38.3690   28.8950   44.6690 H   0  0  0  0  0  0  0  0  0  0  0  0
   36.3420   27.6040   44.6550 H   0  0  0  0  0  0  0  0  0  0  0  0
   35.6650   26.3740   42.5650 H   0  0  0  0  0  0  0  0  0  0  0  0
   36.1490   25.8300   40.3450 H   0  0  0  0  0  0  0  0  0  0  0  0
   37.5390   25.9490   38.3240 H   0  0  0  0  0  0  0  0  0  0  0  0
   39.5910   27.2690   38.3130 H   0  0  0  0  0  0  0  0  0  0  0  0
   40.2670   28.4700   40.2550 H   0  0  0  0  0  0  0  0  0  0  0  0
   39.3610   31.3670   42.0220 O   0  0  0  0  0  0  0  0  0  0  0  0
   39.8880   31.3210   39.4580 O   0  0  0  0  0  0  0  0  0  0  0  0
   39.2750   32.1520   40.5270 P   0  0  1  0  0  0  0  0  0  0  0  0
   37.6650   32.4270   40.0750 O   0  0  0  0  0  0  0  0  0  0  0  0
   36.1330   30.7300   40.7300 C   0  0  0  0  0  3  0  0  0  0  0  0
   36.8660   31.3290   39.7140 C   0  0  0  0  0  0  0  0  0  0  0  0
   36.8840   30.9490   38.3950 C   0  0  0  0  0  0  0  0  0  0  0  0
   37.4970   31.4910   37.6800 H   0  0  0  0  0  0  0  0  0  0  0  0
   36.0920   29.8640   38.0500 C   0  0  0  0  0  0  0  0  0  0  0  0
   35.9150   29.2770   36.8420 N   0  0  0  0  0  0  0  0  0  0  0  0
   35.0460   28.2640   37.0480 C   0  0  0  0  0  0  0  0  0  0  0  0
   34.7380   27.6350   36.2330 H   0  0  0  0  0  0  0  0  0  0  0  0
   34.6930   28.2240   38.3510 N   0  0  0  0  0  0  0  0  0  0  0  0
   35.3360   29.2210   39.0120 C   0  0  0  0  0  0  0  0  0  0  0  0
   35.3740   29.6650   40.3170 C   0  0  0  0  0  3  0  0  0  0  0  0
   36.3890   29.5960   35.9590 H   0  0  0  0  0  0  0  0  0  0  0  0
   40.0570   33.6320   40.6620 O   0  0  0  0  0  0  0  0  0  0  0  0
   41.2110   34.0260   40.0010 C   0  0  0  0  0  0  0  0  0  0  0  0
   42.0140   34.2950   40.9120 O   0  0  0  0  0  0  0  0  0  0  0  0
   41.0310   33.9690   38.5730 N   0  0  0  0  0  0  0  0  0  0  0  0
   41.0020   34.7030   37.8530 H   0  0  0  0  0  0  0  0  0  0  0  0
   40.9000   33.0460   38.1330 H   0  0  0  0  0  0  0  0  0  0  0  0
  1  6  1  0  0  0  0
  2  1  2  0  0  0  0
  2  3  1  0  0  0  0
  3  4  2  0  0  0  0
  4  5  1  0  0  0  0
  5  8  1  0  0  0  0
  6  5  2  0  0  0  0
  7  1  1  0  0  0  0
  9  3  1  0  0  0  0
  9 10  1  0  0  0  0
 10 19  1  0  0  0  0
 11 10  2  0  0  0  0
 11 20  1  0  0  0  0
 12 11  1  0  0  0  0
 13 18  1  0  0  0  0
 13 12  2  0  0  0  0
 14 22  1  0  0  0  0
 14 13  1  0  0  0  0
 15 16  1  0  0  0  0
 15 14  2  0  0  0  0
 16 17  2  0  0  0  0
 17 18  1  0  0  0  0
 18  9  2  0  0  0  0
 21 12  1  0  0  0  0
 23 15  1  0  0  0  0
 24 16  1  0  0  0  0
 25 17  1  0  0  0  0
 26  2  1  0  0  0  0
 28 27  2  6  0  0  0
 28 42  1  0  0  0  0
 28 26  1  0  0  0  0
 29 28  1  0  0  0  0
 31 29  1  0  0  0  0
 31 30  2  0  0  0  0
 32 31  1  0  0  0  0
 33 32  1  0  0  0  0
 34 32  2  0  0  0  0
 34 39  1  0  0  0  0
 35 36  1  0  0  0  0
 35 34  1  0  0  0  0
 36 38  2  0  0  0  0
 37 36  1  0  0  0  0
 38 39  1  0  0  0  0
 39 40  2  0  0  0  0
 40 30  1  0  0  0  0
 41 35  1  0  0  0  0
 43 42  1  0  0  0  0
 43 44  2  0  0  0  0
 45 43  1  0  0  0  0
 46 45  1  0  0  0  0
 47 45  1  0  0  0  0
M  END
>  <minimizedAffinity>
-6.42199945

$$$$

 OpenBabel03252508103D

 47 51  0  0  0  0  0  0  0  0999 V2000
   41.8650   31.3410   40.2130 C   0  0  0  0  0  0  0  0  0  0  0  0
   40.9270   30.4090   40.6280 C   0  0  0  0  0  0  0  0  0  0  0  0
   40.7540   30.1590   41.9680 C   0  0  0  0  0  0  0  0  0  0  0  0
   41.5450   30.8730   42.8460 N   0  0  0  0  0  0  0  0  0  0  0  0
   42.4440   31.7670   42.4410 C   0  0  0  0  0  0  0  0  0  0  0  0
   42.5940   31.9920   41.1170 N   0  0  0  0  0  0  0  0  0  0  0  0
   42.0000   31.5360   39.1420 H   0  0  0  0  0  0  0  0  0  0  0  0
   43.0600   32.3230   43.1340 H   0  0  0  0  0  0  0  0  0  0  0  0
   39.8480   29.2440   42.5520 C   0  0  0  0  0  0  0  0  0  0  0  0
   38.5620   29.5850   42.9800 C   0  0  0  0  0  0  0  0  0  0  0  0
   37.7030   28.7200   43.6070 C   0  0  0  0  0  0  0  0  0  0  0  0
   38.1000   27.4220   43.8460 C   0  0  0  0  0  0  0  0  0  0  0  0
   39.4040   27.0510   43.4170 C   0  0  0  0  0  0  0  0  0  0  0  0
   39.8050   25.7670   43.6520 C   0  0  0  0  0  0  0  0  0  0  0  0
   41.0600   25.3410   43.2580 C   0  0  0  0  0  0  0  0  0  0  0  0
   41.9200   26.2430   42.6120 C   0  0  0  0  0  0  0  0  0  0  0  0
   41.4620   27.5550   42.3930 C   0  0  0  0  0  0  0  0  0  0  0  0
   40.2170   27.9470   42.7980 C   0  0  0  0  0  0  0  0  0  0  0  0
   38.2380   30.5990   42.8000 H   0  0  0  0  0  0  0  0  0  0  0  0
   36.7270   29.0870   43.8970 H   0  0  0  0  0  0  0  0  0  0  0  0
   37.4460   26.7140   44.3390 H   0  0  0  0  0  0  0  0  0  0  0  0
   39.1110   25.0850   44.1590 H   0  0  0  0  0  0  0  0  0  0  0  0
   41.3360   24.3090   43.4690 H   0  0  0  0  0  0  0  0  0  0  0  0
   42.8770   25.8250   42.3380 H   0  0  0  0  0  0  0  0  0  0  0  0
   42.2400   28.0730   41.8750 H   0  0  0  0  0  0  0  0  0  0  0  0
   40.2040   29.7740   39.6580 O   0  0  0  0  0  0  0  0  0  0  0  0
   38.7430   30.5790   37.6400 O   0  0  0  0  0  0  0  0  0  0  0  0
   38.6920   30.2840   39.0960 P   0  0  1  0  0  0  0  0  0  0  0  0
   37.5220   29.0770   39.3140 O   0  0  0  0  0  0  0  0  0  0  0  0
   39.1880   27.3890   39.1250 C   0  0  0  0  0  3  0  0  0  0  0  0
   37.9440   27.7710   39.6120 C   0  0  0  0  0  0  0  0  0  0  0  0
   37.0920   26.9930   40.3550 C   0  0  0  0  0  0  0  0  0  0  0  0
   36.1380   27.3930   40.6860 H   0  0  0  0  0  0  0  0  0  0  0  0
   37.5180   25.7040   40.6430 C   0  0  0  0  0  0  0  0  0  0  0  0
   36.8950   24.7290   41.3470 N   0  0  0  0  0  0  0  0  0  0  0  0
   37.7350   23.6710   41.3320 C   0  0  0  0  0  0  0  0  0  0  0  0
   37.4670   22.7560   41.8290 H   0  0  0  0  0  0  0  0  0  0  0  0
   38.8490   23.9830   40.6370 N   0  0  0  0  0  0  0  0  0  0  0  0
   38.7450   25.2600   40.1880 C   0  0  0  0  0  0  0  0  0  0  0  0
   39.5440   26.1050   39.4470 C   0  0  0  0  0  3  0  0  0  0  0  0
   35.9470   24.8380   41.7900 H   0  0  0  0  0  0  0  0  0  0  0  0
   38.2350   31.6420   39.9690 O   0  0  0  0  0  0  0  0  0  0  0  0
   36.9600   32.1830   40.0600 C   0  0  0  0  0  0  0  0  0  0  0  0
   37.0150   33.2250   39.3820 O   0  0  0  0  0  0  0  0  0  0  0  0
   36.1070   31.3540   40.8730 N   0  0  0  0  0  0  0  0  0  0  0  0
   35.6650   31.5100   41.7880 H   0  0  0  0  0  0  0  0  0  0  0  0
   35.8600   30.4160   40.5240 H   0  0  0  0  0  0  0  0  0  0  0  0
  1  2  2  0  0  0  0
  1  6  1  0  0  0  0
  2  3  1  0  0  0  0
  3  9  1  0  0  0  0
  3  4  2  0  0  0  0
  5  4  1  0  0  0  0
  5  8  1  0  0  0  0
  6  5  2  0  0  0  0
  7  1  1  0  0  0  0
  9 18  2  0  0  0  0
  9 10  1  0  0  0  0
 10 11  2  0  0  0  0
 11 12  1  0  0  0  0
 11 20  1  0  0  0  0
 12 21  1  0  0  0  0
 13 14  1  0  0  0  0
 13 12  2  0  0  0  0
 14 22  1  0  0  0  0
 15 23  1  0  0  0  0
 15 14  2  0  0  0  0
 16 15  1  0  0  0  0
 17 16  2  0  0  0  0
 17 18  1  0  0  0  0
 18 13  1  0  0  0  0
 19 10  1  0  0  0  0
 24 16  1  0  0  0  0
 25 17  1  0  0  0  0
 26  2  1  0  0  0  0
 28 27  2  6  0  0  0
 28 29  1  0  0  0  0
 28 26  1  0  0  0  0
 28 42  1  0  0  0  0
 29 31  1  0  0  0  0
 30 40  2  0  0  0  0
 30 31  1  0  0  0  0
 31 32  2  0  0  0  0
 32 34  1  0  0  0  0
 32 33  1  0  0  0  0
 34 35  1  0  0  0  0
 35 41  1  0  0  0  0
 36 35  1  0  0  0  0
 36 37  1  0  0  0  0
 38 36  2  0  0  0  0
 39 38  1  0  0  0  0
 39 34  2  0  0  0  0
 40 39  1  0  0  0  0
 42 43  1  0  0  0  0
 43 45  1  0  0  0  0
 44 43  2  0  0  0  0
 45 46  1  0  0  0  0
 47 45  1  0  0  0  0
M  END
>  <minimizedAffinity>
-6.33985519

$$$$

 OpenBabel03252508103D

 47 51  0  0  0  0  0  0  0  0999 V2000
   38.6420   25.6070   37.6820 C   0  0  0  0  0  0  0  0  0  0  0  0
   38.6490   26.7510   38.4640 C   0  0  0  0  0  0  0  0  0  0  0  0
   39.2770   26.7430   39.6860 C   0  0  0  0  0  0  0  0  0  0  0  0
   39.8840   25.5640   40.0720 N   0  0  0  0  0  0  0  0  0  0  0  0
   39.8730   24.4690   39.3160 C   0  0  0  0  0  0  0  0  0  0  0  0
   39.2460   24.5040   38.1190 N   0  0  0  0  0  0  0  0  0  0  0  0
   38.1380   25.6180   36.7080 H   0  0  0  0  0  0  0  0  0  0  0  0
   40.3500   23.5490   39.6230 H   0  0  0  0  0  0  0  0  0  0  0  0
   39.3730   27.8180   40.5990 C   0  0  0  0  0  0  0  0  0  0  0  0
   40.3190   28.8420   40.5020 C   0  0  0  0  0  0  0  0  0  0  0  0
   40.4610   29.8510   41.4190 C   0  0  0  0  0  0  0  0  0  0  0  0
   39.6340   29.8890   42.5220 C   0  0  0  0  0  0  0  0  0  0  0  0
   38.6610   28.8570   42.6410 C   0  0  0  0  0  0  0  0  0  0  0  0
   37.8400   28.8870   43.7300 C   0  0  0  0  0  0  0  0  0  0  0  0
   36.8720   27.9150   43.9050 C   0  0  0  0  0  0  0  0  0  0  0  0
   36.7400   26.8960   42.9490 C   0  0  0  0  0  0  0  0  0  0  0  0
   37.6110   26.9080   41.8440 C   0  0  0  0  0  0  0  0  0  0  0  0
   38.5610   27.8800   41.7010 C   0  0  0  0  0  0  0  0  0  0  0  0
   40.9750   28.8250   39.6440 H   0  0  0  0  0  0  0  0  0  0  0  0
   41.2260   30.5960   41.2480 H   0  0  0  0  0  0  0  0  0  0  0  0
   39.7200   30.6700   43.2650 H   0  0  0  0  0  0  0  0  0  0  0  0
   37.9650   29.6960   44.4610 H   0  0  0  0  0  0  0  0  0  0  0  0
   36.2410   27.9790   44.7910 H   0  0  0  0  0  0  0  0  0  0  0  0
   35.9590   26.1830   43.1630 H   0  0  0  0  0  0  0  0  0  0  0  0
   37.3410   26.0780   41.2270 H   0  0  0  0  0  0  0  0  0  0  0  0
   38.0170   27.8550   37.9650 O   0  0  0  0  0  0  0  0  0  0  0  0
   35.6100   27.2610   38.8060 O   0  0  0  0  0  0  0  0  0  0  0  0
   36.3460   27.9870   37.7380 P   0  0  1  0  0  0  0  0  0  0  0  0
   35.8480   29.6050   37.8080 O   0  0  0  0  0  0  0  0  0  0  0  0
   36.1140   30.4820   40.0030 C   0  0  0  0  0  3  0  0  0  0  0  0
   36.5190   30.4830   38.6740 C   0  0  0  0  0  0  0  0  0  0  0  0
   37.5100   31.2620   38.1310 C   0  0  0  0  0  0  0  0  0  0  0  0
   37.7470   31.1830   37.0730 H   0  0  0  0  0  0  0  0  0  0  0  0
   38.1660   32.1260   38.9950 C   0  0  0  0  0  0  0  0  0  0  0  0
   39.1710   32.9990   38.7410 N   0  0  0  0  0  0  0  0  0  0  0  0
   39.4470   33.5960   39.9210 C   0  0  0  0  0  0  0  0  0  0  0  0
   40.2190   34.3420   39.9870 H   0  0  0  0  0  0  0  0  0  0  0  0
   38.6340   33.1050   40.8810 N   0  0  0  0  0  0  0  0  0  0  0  0
   37.8130   32.1750   40.3300 C   0  0  0  0  0  0  0  0  0  0  0  0
   36.8050   31.3590   40.7980 C   0  0  0  0  0  3  0  0  0  0  0  0
   39.6040   33.1360   37.7920 H   0  0  0  0  0  0  0  0  0  0  0  0
   35.9680   27.3710   36.2230 O   0  0  0  0  0  0  0  0  0  0  0  0
   36.3950   27.8600   34.9970 C   0  0  0  0  0  0  0  0  0  0  0  0
   35.5590   27.4300   34.1820 O   0  0  0  0  0  0  0  0  0  0  0  0
   37.5940   28.6450   35.1450 N   0  0  0  0  0  0  0  0  0  0  0  0
   38.5590   28.4950   34.8250 H   0  0  0  0  0  0  0  0  0  0  0  0
   37.5340   29.5350   35.6620 H   0  0  0  0  0  0  0  0  0  0  0  0
  1  6  2  0  0  0  0
  1  2  1  0  0  0  0
  2  3  2  0  0  0  0
  3  4  1  0  0  0  0
  3  9  1  0  0  0  0
  5  8  1  0  0  0  0
  5  4  2  0  0  0  0
  6  5  1  0  0  0  0
  7  1  1  0  0  0  0
  9 18  1  0  0  0  0
 10  9  2  0  0  0  0
 10 11  1  0  0  0  0
 11 12  2  0  0  0  0
 12 13  1  0  0  0  0
 12 21  1  0  0  0  0
 13 14  1  0  0  0  0
 14 15  2  0  0  0  0
 14 22  1  0  0  0  0
 15 23  1  0  0  0  0
 16 24  1  0  0  0  0
 16 15  1  0  0  0  0
 17 16  2  0  0  0  0
 18 17  1  0  0  0  0
 18 13  2  0  0  0  0
 19 10  1  0  0  0  0
 20 11  1  0  0  0  0
 25 17  1  0  0  0  0
 26  2  1  0  0  0  0
 28 29  1  0  0  0  0
 28 26  1  0  0  0  0
 28 27  2  1  0  0  0
 29 31  1  0  0  0  0
 30 40  1  0  0  0  0
 31 30  2  0  0  0  0
 32 31  1  0  0  0  0
 32 34  2  0  0  0  0
 33 32  1  0  0  0  0
 34 39  1  0  0  0  0
 35 34  1  0  0  0  0
 35 36  1  0  0  0  0
 36 37  1  0  0  0  0
 36 38  2  0  0  0  0
 39 40  2  0  0  0  0
 39 38  1  0  0  0  0
 41 35  1  0  0  0  0
 42 28  1  0  0  0  0
 43 45  1  0  0  0  0
 43 42  1  0  0  0  0
 44 43  2  0  0  0  0
 45 47  1  0  0  0  0
 46 45  1  0  0  0  0
M  END
>  <minimizedAffinity>
-6.30940342

$$$$

 OpenBabel03252508103D

 47 51  0  0  0  0  0  0  0  0999 V2000
   38.2520   29.2740   43.0490 C   0  0  0  0  0  0  0  0  0  0  0  0
   38.0690   28.8730   41.7350 C   0  0  0  0  0  0  0  0  0  0  0  0
   37.2860   27.7800   41.4550 C   0  0  0  0  0  0  0  0  0  0  0  0
   36.7080   27.1290   42.5270 N   0  0  0  0  0  0  0  0  0  0  0  0
   36.8870   27.5200   43.7870 C   0  0  0  0  0  0  0  0  0  0  0  0
   37.6650   28.5980   44.0340 N   0  0  0  0  0  0  0  0  0  0  0  0
   38.8790   30.1470   43.2690 H   0  0  0  0  0  0  0  0  0  0  0  0
   36.4320   27.0070   44.6220 H   0  0  0  0  0  0  0  0  0  0  0  0
   37.0030   27.2430   40.1770 C   0  0  0  0  0  0  0  0  0  0  0  0
   37.7720   26.2550   39.5580 C   0  0  0  0  0  0  0  0  0  0  0  0
   37.5430   25.7780   38.2940 C   0  0  0  0  0  0  0  0  0  0  0  0
   36.4940   26.2830   37.5560 C   0  0  0  0  0  0  0  0  0  0  0  0
   35.6950   27.2890   38.1660 C   0  0  0  0  0  0  0  0  0  0  0  0
   34.6550   27.7960   37.4420 C   0  0  0  0  0  0  0  0  0  0  0  0
   33.8380   28.7740   37.9780 C   0  0  0  0  0  0  0  0  0  0  0  0
   34.0870   29.2430   39.2770 C   0  0  0  0  0  0  0  0  0  0  0  0
   35.1710   28.6900   39.9840 C   0  0  0  0  0  0  0  0  0  0  0  0
   35.9640   27.7260   39.4250 C   0  0  0  0  0  0  0  0  0  0  0  0
   38.5990   25.8500   40.1240 H   0  0  0  0  0  0  0  0  0  0  0  0
   38.2000   25.0090   37.9080 H   0  0  0  0  0  0  0  0  0  0  0  0
   36.2860   25.9290   36.5550 H   0  0  0  0  0  0  0  0  0  0  0  0
   34.4830   27.4100   36.4290 H   0  0  0  0  0  0  0  0  0  0  0  0
   33.0220   29.1490   37.3610 H   0  0  0  0  0  0  0  0  0  0  0  0
   33.4000   30.0030   39.6160 H   0  0  0  0  0  0  0  0  0  0  0  0
   35.1820   29.1520   40.9480 H   0  0  0  0  0  0  0  0  0  0  0  0
   38.6920   29.6060   40.7650 O   0  0  0  0  0  0  0  0  0  0  0  0
   36.9270   31.5380   40.8360 O   0  0  0  0  0  0  0  0  0  0  0  0
   38.2910   31.1970   40.3540 P   0  0  1  0  0  0  0  0  0  0  0  0
   39.3580   32.2990   41.0710 O   0  0  0  0  0  0  0  0  0  0  0  0
   40.2300   34.2470   40.0210 C   0  0  0  0  0  3  0  0  0  0  0  0
   40.3570   32.8880   40.2790 C   0  0  0  0  0  0  0  0  0  0  0  0
   41.3650   32.0700   39.8320 C   0  0  0  0  0  0  0  0  0  0  0  0
   41.3670   31.0160   40.0940 H   0  0  0  0  0  0  0  0  0  0  0  0
   42.3460   32.6620   39.0500 C   0  0  0  0  0  0  0  0  0  0  0  0
   43.4430   32.1080   38.4800 N   0  0  0  0  0  0  0  0  0  0  0  0
   44.0650   33.1130   37.8270 C   0  0  0  0  0  0  0  0  0  0  0  0
   44.9750   32.9290   37.2840 H   0  0  0  0  0  0  0  0  0  0  0  0
   43.3720   34.2600   37.9870 N   0  0  0  0  0  0  0  0  0  0  0  0
   42.2800   34.0110   38.7550 C   0  0  0  0  0  0  0  0  0  0  0  0
   41.2330   34.7650   39.2430 C   0  0  0  0  0  3  0  0  0  0  0  0
   43.7010   31.0920   38.5680 H   0  0  0  0  0  0  0  0  0  0  0  0
   38.3960   31.3530   38.6860 O   0  0  0  0  0  0  0  0  0  0  0  0
   37.6670   32.2190   37.8830 C   0  0  0  0  0  0  0  0  0  0  0  0
   37.6950   31.6960   36.7550 O   0  0  0  0  0  0  0  0  0  0  0  0
   37.1830   33.3410   38.6470 N   0  0  0  0  0  0  0  0  0  0  0  0
   37.4080   34.3440   38.6150 H   0  0  0  0  0  0  0  0  0  0  0  0
   36.4780   33.1670   39.3780 H   0  0  0  0  0  0  0  0  0  0  0  0
  1  7  1  0  0  0  0
  1  6  1  0  0  0  0
  2  1  2  0  0  0  0
  3  2  1  0  0  0  0
  3  4  2  0  0  0  0
  4  5  1  0  0  0  0
  5  6  2  0  0  0  0
  5  8  1  0  0  0  0
  9  3  1  0  0  0  0
 10 19  1  0  0  0  0
 10  9  1  0  0  0  0
 11 10  2  0  0  0  0
 12 13  2  0  0  0  0
 12 11  1  0  0  0  0
 13 18  1  0  0  0  0
 14 15  2  0  0  0  0
 14 13  1  0  0  0  0
 15 16  1  0  0  0  0
 16 24  1  0  0  0  0
 16 17  2  0  0  0  0
 17 25  1  0  0  0  0
 18 17  1  0  0  0  0
 18  9  2  0  0  0  0
 20 11  1  0  0  0  0
 21 12  1  0  0  0  0
 22 14  1  0  0  0  0
 23 15  1  0  0  0  0
 26  2  1  0  0  0  0
 28 26  1  0  0  0  0
 28 27  2  1  0  0  0
 28 29  1  0  0  0  0
 30 31  1  0  0  0  0
 31 29  1  0  0  0  0
 32 33  1  0  0  0  0
 32 31  2  0  0  0  0
 34 32  1  0  0  0  0
 35 41  1  0  0  0  0
 35 34  1  0  0  0  0
 36 38  2  0  0  0  0
 36 35  1  0  0  0  0
 37 36  1  0  0  0  0
 38 39  1  0  0  0  0
 39 34  2  0  0  0  0
 39 40  1  0  0  0  0
 40 30  2  0  0  0  0
 42 28  1  0  0  0  0
 43 45  1  0  0  0  0
 43 42  1  0  0  0  0
 44 43  2  0  0  0  0
 45 47  1  0  0  0  0
 46 45  1  0  0  0  0
M  END
>  <minimizedAffinity>
-6.27808952

$$$$

 OpenBabel03252508103D

 47 51  0  0  0  0  0  0  0  0999 V2000
   42.4370   28.8020   41.1900 C   0  0  0  0  0  0  0  0  0  0  0  0
   41.0740   28.5680   41.2900 C   0  0  0  0  0  0  0  0  0  0  0  0
   40.5540   28.0240   42.4400 C   0  0  0  0  0  0  0  0  0  0  0  0
   41.4430   27.7370   43.4560 N   0  0  0  0  0  0  0  0  0  0  0  0
   42.7510   27.9640   43.3540 C   0  0  0  0  0  0  0  0  0  0  0  0
   43.2350   28.4990   42.2110 N   0  0  0  0  0  0  0  0  0  0  0  0
   42.8470   29.2350   40.2700 H   0  0  0  0  0  0  0  0  0  0  0  0
   43.4410   27.7380   44.1530 H   0  0  0  0  0  0  0  0  0  0  0  0
   39.1970   27.7240   42.6990 C   0  0  0  0  0  0  0  0  0  0  0  0
   38.3300   28.5700   43.3960 C   0  0  0  0  0  0  0  0  0  0  0  0
   37.0330   28.2570   43.7090 C   0  0  0  0  0  0  0  0  0  0  0  0
   36.5160   27.0380   43.3260 C   0  0  0  0  0  0  0  0  0  0  0  0
   37.3790   26.1600   42.6130 C   0  0  0  0  0  0  0  0  0  0  0  0
   36.8760   24.9500   42.2330 C   0  0  0  0  0  0  0  0  0  0  0  0
   37.6610   24.0520   41.5350 C   0  0  0  0  0  0  0  0  0  0  0  0
   38.9850   24.3970   41.2190 C   0  0  0  0  0  0  0  0  0  0  0  0
   39.4590   25.6550   41.6340 C   0  0  0  0  0  0  0  0  0  0  0  0
   38.6580   26.5200   42.3270 C   0  0  0  0  0  0  0  0  0  0  0  0
   38.7210   29.5290   43.7030 H   0  0  0  0  0  0  0  0  0  0  0  0
   36.4460   28.9860   44.2520 H   0  0  0  0  0  0  0  0  0  0  0  0
   35.4960   26.7600   43.5580 H   0  0  0  0  0  0  0  0  0  0  0  0
   35.8370   24.7080   42.4920 H   0  0  0  0  0  0  0  0  0  0  0  0
   37.2170   23.0980   41.2540 H   0  0  0  0  0  0  0  0  0  0  0  0
   39.5240   23.6390   40.6720 H   0  0  0  0  0  0  0  0  0  0  0  0
   40.4650   25.7390   41.2840 H   0  0  0  0  0  0  0  0  0  0  0  0
   40.3010   28.9020   40.2140 O   0  0  0  0  0  0  0  0  0  0  0  0
   39.5680   30.8650   38.6440 O   0  0  0  0  0  0  0  0  0  0  0  0
   39.4730   30.3670   40.0410 P   0  0  1  0  0  0  0  0  0  0  0  0
   37.8250   30.1810   40.3880 O   0  0  0  0  0  0  0  0  0  0  0  0
   36.2900   30.1510   38.5710 C   0  0  0  0  0  3  0  0  0  0  0  0
   37.0280   29.4340   39.5040 C   0  0  0  0  0  0  0  0  0  0  0  0
   37.0500   28.0690   39.6430 C   0  0  0  0  0  0  0  0  0  0  0  0
   37.6660   27.6090   40.4110 H   0  0  0  0  0  0  0  0  0  0  0  0
   36.2580   27.3420   38.7660 C   0  0  0  0  0  0  0  0  0  0  0  0
   36.0850   26.0020   38.6720 N   0  0  0  0  0  0  0  0  0  0  0  0
   35.2150   25.8130   37.6570 C   0  0  0  0  0  0  0  0  0  0  0  0
   34.9090   24.8200   37.3780 H   0  0  0  0  0  0  0  0  0  0  0  0
   34.8570   27.0060   37.1350 N   0  0  0  0  0  0  0  0  0  0  0  0
   35.4980   27.9930   37.8130 C   0  0  0  0  0  0  0  0  0  0  0  0
   35.5320   29.3690   37.7390 C   0  0  0  0  0  3  0  0  0  0  0  0
   36.5640   25.3020   39.2960 H   0  0  0  0  0  0  0  0  0  0  0  0
   40.1290   31.4740   41.1200 O   0  0  0  0  0  0  0  0  0  0  0  0
   40.8580   32.6120   40.8050 C   0  0  0  0  0  0  0  0  0  0  0  0
   41.9940   32.1870   40.5310 O   0  0  0  0  0  0  0  0  0  0  0  0
   40.0390   33.7930   40.9140 N   0  0  0  0  0  0  0  0  0  0  0  0
   40.0690   34.5940   41.5570 H   0  0  0  0  0  0  0  0  0  0  0  0
   39.2600   33.9100   40.2490 H   0  0  0  0  0  0  0  0  0  0  0  0
  1  2  2  0  0  0  0
  1  6  1  0  0  0  0
  2  3  1  0  0  0  0
  3  9  1  0  0  0  0
  3  4  2  0  0  0  0
  5  4  1  0  0  0  0
  5  8  1  0  0  0  0
  6  5  2  0  0  0  0
  7  1  1  0  0  0  0
  9 10  1  0  0  0  0
 10 19  1  0  0  0  0
 10 11  2  0  0  0  0
 11 20  1  0  0  0  0
 12 21  1  0  0  0  0
 12 11  1  0  0  0  0
 13 12  2  0  0  0  0
 14 22  1  0  0  0  0
 14 13  1  0  0  0  0
 15 14  2  0  0  0  0
 16 15  1  0  0  0  0
 16 17  2  0  0  0  0
 17 18  1  0  0  0  0
 18 13  1  0  0  0  0
 18  9  2  0  0  0  0
 23 15  1  0  0  0  0
 24 16  1  0  0  0  0
 25 17  1  0  0  0  0
 26  2  1  0  0  0  0
 28 27  2  6  0  0  0
 28 26  1  0  0  0  0
 28 29  1  0  0  0  0
 28 42  1  0  0  0  0
 30 31  1  0  0  0  0
 31 32  2  0  0  0  0
 31 29  1  0  0  0  0
 32 33  1  0  0  0  0
 34 32  1  0  0  0  0
 35 34  1  0  0  0  0
 35 41  1  0  0  0  0
 36 35  1  0  0  0  0
 37 36  1  0  0  0  0
 38 36  2  0  0  0  0
 38 39  1  0  0  0  0
 39 34  2  0  0  0  0
 40 39  1  0  0  0  0
 40 30  2  0  0  0  0
 43 45  1  0  0  0  0
 43 42  1  0  0  0  0
 44 43  2  0  0  0  0
 45 46  1  0  0  0  0
 47 45  1  0  0  0  0
M  END
>  <minimizedAffinity>
-6.1747508

$$$$

 OpenBabel03252508103D

 47 51  0  0  0  0  0  0  0  0999 V2000
   35.5760   29.3140   38.2000 C   0  0  0  0  0  0  0  0  0  0  0  0
   36.1620   29.2880   39.4560 C   0  0  0  0  0  0  0  0  0  0  0  0
   36.5130   28.0880   40.0240 C   0  0  0  0  0  0  0  0  0  0  0  0
   36.2570   26.9470   39.2900 N   0  0  0  0  0  0  0  0  0  0  0  0
   35.6940   26.9790   38.0850 C   0  0  0  0  0  0  0  0  0  0  0  0
   35.3570   28.1730   37.5500 N   0  0  0  0  0  0  0  0  0  0  0  0
   35.2960   30.2750   37.7510 H   0  0  0  0  0  0  0  0  0  0  0  0
   35.4960   26.0820   37.5150 H   0  0  0  0  0  0  0  0  0  0  0  0
   37.1140   27.8910   41.2890 C   0  0  0  0  0  0  0  0  0  0  0  0
   36.4010   27.8270   42.4900 C   0  0  0  0  0  0  0  0  0  0  0  0
   36.9810   27.7030   43.7250 C   0  0  0  0  0  0  0  0  0  0  0  0
   38.3550   27.6330   43.8280 C   0  0  0  0  0  0  0  0  0  0  0  0
   39.1010   27.6940   42.6190 C   0  0  0  0  0  0  0  0  0  0  0  0
   40.4610   27.6280   42.7120 C   0  0  0  0  0  0  0  0  0  0  0  0
   41.2450   27.6790   41.5750 C   0  0  0  0  0  0  0  0  0  0  0  0
   40.6290   27.7990   40.3190 C   0  0  0  0  0  0  0  0  0  0  0  0
   39.2240   27.8650   40.2750 C   0  0  0  0  0  0  0  0  0  0  0  0
   38.4760   27.8160   41.4180 C   0  0  0  0  0  0  0  0  0  0  0  0
   35.3250   27.8810   42.4250 H   0  0  0  0  0  0  0  0  0  0  0  0
   36.3370   27.6610   44.5930 H   0  0  0  0  0  0  0  0  0  0  0  0
   38.8440   27.5360   44.7880 H   0  0  0  0  0  0  0  0  0  0  0  0
   40.9150   27.5330   43.7070 H   0  0  0  0  0  0  0  0  0  0  0  0
   42.3260   27.6250   41.6990 H   0  0  0  0  0  0  0  0  0  0  0  0
   41.3160   27.8290   39.4870 H   0  0  0  0  0  0  0  0  0  0  0  0
   38.9490   27.9300   39.2440 H   0  0  0  0  0  0  0  0  0  0  0  0
   36.3670   30.4890   40.0760 O   0  0  0  0  0  0  0  0  0  0  0  0
   36.9750   32.6680   38.7580 O   0  0  0  0  0  0  0  0  0  0  0  0
   37.5510   31.6120   39.6310 P   0  0  1  0  0  0  0  0  0  0  0  0
   38.1920   32.3920   40.9920 O   0  0  0  0  0  0  0  0  0  0  0  0
   40.0440   31.3230   42.0320 C   0  0  0  0  0  3  0  0  0  0  0  0
   39.5780   32.3420   41.2110 C   0  0  0  0  0  0  0  0  0  0  0  0
   40.3440   33.3010   40.5960 C   0  0  0  0  0  0  0  0  0  0  0  0
   39.8740   34.0550   39.9720 H   0  0  0  0  0  0  0  0  0  0  0  0
   41.7120   33.2420   40.8200 C   0  0  0  0  0  0  0  0  0  0  0  0
   42.6960   34.0450   40.3500 N   0  0  0  0  0  0  0  0  0  0  0  0
   43.8460   33.5580   40.8640 C   0  0  0  0  0  0  0  0  0  0  0  0
   44.7870   34.0280   40.6380 H   0  0  0  0  0  0  0  0  0  0  0  0
   43.5810   32.4810   41.6340 N   0  0  0  0  0  0  0  0  0  0  0  0
   42.2430   32.2540   41.6280 C   0  0  0  0  0  0  0  0  0  0  0  0
   41.4040   31.3260   42.2090 C   0  0  0  0  0  3  0  0  0  0  0  0
   42.5310   34.8670   39.7150 H   0  0  0  0  0  0  0  0  0  0  0  0
   38.7880   30.7920   38.8480 O   0  0  0  0  0  0  0  0  0  0  0  0
   39.0410   30.7730   37.4840 C   0  0  0  0  0  0  0  0  0  0  0  0
   38.9020   29.5810   37.1580 O   0  0  0  0  0  0  0  0  0  0  0  0
   39.3530   32.0950   37.0020 N   0  0  0  0  0  0  0  0  0  0  0  0
   40.2160   32.5030   36.6210 H   0  0  0  0  0  0  0  0  0  0  0  0
   38.6090   32.8090   37.0190 H   0  0  0  0  0  0  0  0  0  0  0  0
  1  2  1  0  0  0  0
  2  3  2  0  0  0  0
  2 26  1  0  0  0  0
  3  9  1  0  0  0  0
  4  3  1  0  0  0  0
  5  4  2  0  0  0  0
  6  5  1  0  0  0  0
  6  1  2  0  0  0  0
  7  1  1  0  0  0  0
  8  5  1  0  0  0  0
  9 18  2  0  0  0  0
  9 10  1  0  0  0  0
 10 11  2  0  0  0  0
 11 12  1  0  0  0  0
 11 20  1  0  0  0  0
 12 21  1  0  0  0  0
 13 14  1  0  0  0  0
 13 12  2  0  0  0  0
 14 22  1  0  0  0  0
 15 23  1  0  0  0  0
 15 14  2  0  0  0  0
 16 15  1  0  0  0  0
 17 16  2  0  0  0  0
 17 18  1  0  0  0  0
 18 13  1  0  0  0  0
 19 10  1  0  0  0  0
 24 16  1  0  0  0  0
 25 17  1  0  0  0  0
 28 27  2  6  0  0  0
 28 26  1  0  0  0  0
 28 29  1  0  0  0  0
 29 31  1  0  0  0  0
 30 40  1  0  0  0  0
 31 30  2  0  0  0  0
 32 34  2  0  0  0  0
 32 31  1  0  0  0  0
 33 32  1  0  0  0  0
 34 39  1  0  0  0  0
 35 34  1  0  0  0  0
 35 36  1  0  0  0  0
 36 38  2  0  0  0  0
 37 36  1  0  0  0  0
 39 38  1  0  0  0  0
 39 40  2  0  0  0  0
 41 35  1  0  0  0  0
 42 28  1  0  0  0  0
 43 42  1  0  0  0  0
 44 43  2  0  0  0  0
 45 47  1  0  0  0  0
 45 43  1  0  0  0  0
 46 45  1  0  0  0  0
M  END
>  <minimizedAffinity>
-6.15969324

$$$$
