
 OpenBabel03252509043D

 51 54  0  0  1  0  0  0  0  0999 V2000
   46.7420   34.3530   43.4760 N   0  0  0  0  0  0  0  0  0  0  0  0
   46.4720   34.9480   42.2240 C   0  0  0  0  0  0  0  0  0  0  0  0
   45.0010   34.9800   41.8510 C   0  0  0  0  0  0  0  0  0  0  0  0
   44.0830   35.2070   43.0220 C   0  0  0  0  0  0  0  0  0  0  0  0
   44.8500   35.3890   44.3110 C   0  0  0  0  0  0  0  0  0  0  0  0
   45.7550   34.0980   44.3940 C   0  0  2  0  0  0  0  0  0  0  0  0
   46.9950   34.5280   41.3590 H   0  0  0  0  0  0  0  0  0  0  0  0
   46.7990   36.0250   42.2630 H   0  0  0  0  0  0  0  0  0  0  0  0
   44.6940   34.0360   41.3340 H   0  0  0  0  0  0  0  0  0  0  0  0
   44.8270   35.7870   41.1060 H   0  0  0  0  0  0  0  0  0  0  0  0
   43.4570   36.1370   42.8870 H   0  0  0  0  0  0  0  0  0  0  0  0
   43.3550   34.3860   43.1710 H   0  0  0  0  0  0  0  0  0  0  0  0
   45.4830   36.2860   44.3150 H   0  0  0  0  0  0  0  0  0  0  0  0
   44.1600   35.2990   45.1650 H   0  0  0  0  0  0  0  0  0  0  0  0
   45.0760   33.2460   44.2060 H   0  0  0  0  0  0  0  0  0  0  0  0
   47.9390   33.5470   43.5010 C   0  0  0  0  0  0  0  0  0  0  0  0
   48.7360   34.1620   43.0300 H   0  0  0  0  0  0  0  0  0  0  0  0
   48.3160   33.3350   44.5300 H   0  0  0  0  0  0  0  0  0  0  0  0
   47.6850   32.3270   42.6760 C   0  0  0  0  0  0  0  0  0  0  0  0
   47.5070   31.4550   43.3040 H   0  0  0  0  0  0  0  0  0  0  0  0
   46.7870   32.4480   42.0150 H   0  0  0  0  0  0  0  0  0  0  0  0
   51.2130   32.1580   41.3960 C   0  0  0  0  0  0  0  0  0  0  0  0
   50.1070   32.3740   42.2390 C   0  0  0  0  0  0  0  0  0  0  0  0
   48.8450   32.0950   41.7760 C   0  0  0  0  0  0  0  0  0  0  0  0
   48.7320   31.6260   40.5300 N   0  0  0  0  0  0  0  0  0  0  0  0
   49.7860   31.4210   39.7310 C   0  0  0  0  0  0  0  0  0  0  0  0
   51.0310   31.6800   40.1400 N   0  0  0  0  0  0  0  0  0  0  0  0
   52.2140   32.3730   41.7470 H   0  0  0  0  0  0  0  0  0  0  0  0
   50.2990   32.7570   43.2330 H   0  0  0  0  0  0  0  0  0  0  0  0
   49.5150   31.0380   38.7530 H   0  0  0  0  0  0  0  0  0  0  0  0
   46.1950   34.1670   45.7020 O   0  0  0  0  0  0  0  0  0  0  0  0
   45.6010   31.5720   45.5730 O   0  0  0  0  0  0  0  0  0  0  0  0
   46.0530   32.6910   46.5070 P   0  0  2  0  0  0  0  0  0  0  0  0
   44.7510   32.8930   47.6070 O   0  0  0  0  0  0  0  0  0  0  0  0
   44.2210   32.0810   47.6850 H   0  0  0  0  0  0  0  0  0  0  0  0
   47.3930   32.2820   47.3910 O   0  0  0  0  0  0  0  0  0  0  0  0
   47.6990   30.9500   47.1650 C   0  0  0  0  0  0  0  0  0  0  0  0
   46.7560   30.3830   47.2040 H   0  0  0  0  0  0  0  0  0  0  0  0
   48.2360   30.7680   46.2310 H   0  0  0  0  0  0  0  0  0  0  0  0
   49.0280   31.4040   49.2690 C   0  0  0  0  0  3  0  0  0  0  0  0
   48.5880   30.5210   48.3010 C   0  0  0  0  0  0  0  0  0  0  0  0
   48.9560   29.1760   48.3380 C   0  0  0  0  0  0  0  0  0  0  0  0
   48.6030   28.4790   47.5680 H   0  0  0  0  0  0  0  0  0  0  0  0
   49.7660   28.7230   49.3520 C   0  0  0  0  0  0  0  0  0  0  0  0
   50.2300   27.4720   49.5640 N   0  0  0  0  0  0  0  0  0  0  0  0
   50.9860   27.5190   50.6820 C   0  0  0  0  0  0  0  0  0  0  0  0
   51.5060   26.6910   51.1340 H   0  0  0  0  0  0  0  0  0  0  0  0
   50.9760   28.8030   51.1440 N   0  0  0  0  0  0  0  0  0  0  0  0
   50.2270   29.5730   50.3390 C   0  0  0  0  0  0  0  0  0  0  0  0
   49.8500   30.9080   50.2840 C   0  0  0  0  0  3  0  0  0  0  0  0
   50.0900   26.5780   49.0270 H   0  0  0  0  0  0  0  0  0  0  0  0
  1 16  1  0  0  0  0
  1  6  1  0  0  0  0
  2  8  1  0  0  0  0
  2  1  1  0  0  0  0
  3  2  1  0  0  0  0
  3  4  1  0  0  0  0
  4 12  1  0  0  0  0
  4  5  1  0  0  0  0
  5 13  1  0  0  0  0
  5  6  1  0  0  0  0
  5 14  1  0  0  0  0
  6 15  1  6  0  0  0
  6 31  1  0  0  0  0
  7  2  1  0  0  0  0
  9  3  1  0  0  0  0
 10  3  1  0  0  0  0
 11  4  1  0  0  0  0
 16 18  1  0  0  0  0
 17 16  1  0  0  0  0
 19 20  1  0  0  0  0
 19 16  1  0  0  0  0
 21 19  1  0  0  0  0
 22 28  1  0  0  0  0
 22 23  1  0  0  0  0
 23 29  1  0  0  0  0
 24 23  2  0  0  0  0
 24 19  1  0  0  0  0
 25 24  1  0  0  0  0
 26 27  1  0  0  0  0
 26 25  2  0  0  0  0
 27 22  2  0  0  0  0
 30 26  1  0  0  0  0
 31 33  1  0  0  0  0
 33 32  2  6  0  0  0
 33 36  1  0  0  0  0
 33 34  1  0  0  0  0
 34 35  1  0  0  0  0
 37 38  1  0  0  0  0
 37 36  1  0  0  0  0
 37 41  1  0  0  0  0
 39 37  1  0  0  0  0
 40 50  1  0  0  0  0
 41 42  1  0  0  0  0
 41 40  2  0  0  0  0
 42 44  2  0  0  0  0
 43 42  1  0  0  0  0
 44 45  1  0  0  0  0
 44 49  1  0  0  0  0
 45 46  1  0  0  0  0
 46 47  1  0  0  0  0
 46 48  2  0  0  0  0
 49 48  1  0  0  0  0
 50 49  2  0  0  0  0
 51 45  1  0  0  0  0
M  END
>  <minimizedAffinity>
-5.54168034

>  <minimizedRMSD>
3.22775316

$$$$
