
 OpenBabel03252507413D

 28 30  0  0  0  0  0  0  0  0999 V2000
   36.7650   28.5140   42.2090 C   0  0  0  0  0  0  0  0  0  0  0  0
   35.7750   28.7590   42.6830 H   0  0  0  0  0  0  0  0  0  0  0  0
   36.5740   27.8820   41.3160 H   0  0  0  0  0  0  0  0  0  0  0  0
   38.7070   30.0220   42.1570 C   0  0  0  0  0  3  0  0  0  0  0  0
   37.3780   29.7790   41.7900 C   0  0  0  0  0  0  0  0  0  0  0  0
   36.7420   30.7730   41.0470 C   0  0  0  0  0  0  0  0  0  0  0  0
   35.7300   30.5700   40.7770 H   0  0  0  0  0  0  0  0  0  0  0  0
   37.3730   31.9450   40.6820 C   0  0  0  0  0  0  0  0  0  0  0  0
   36.9490   33.0120   39.9800 N   0  0  0  0  0  0  0  0  0  0  0  0
   37.9710   33.9080   39.9000 C   0  0  0  0  0  0  0  0  0  0  0  0
   38.0040   34.8880   39.4120 H   0  0  0  0  0  0  0  0  0  0  0  0
   39.0400   33.3890   40.5600 N   0  0  0  0  0  0  0  0  0  0  0  0
   38.6960   32.1710   41.0550 C   0  0  0  0  0  0  0  0  0  0  0  0
   39.3400   31.1890   41.7940 C   0  0  0  0  0  3  0  0  0  0  0  0
   36.0050   33.1580   39.5560 H   0  0  0  0  0  0  0  0  0  0  0  0
   37.6010   27.7090   43.1540 C   0  0  0  0  0  0  0  0  0  0  0  0
   37.1260   27.5720   44.1500 H   0  0  0  0  0  0  0  0  0  0  0  0
   38.5380   28.2590   43.3460 H   0  0  0  0  0  0  0  0  0  0  0  0
   37.8820   26.3440   42.6640 C   0  0  0  0  0  0  0  0  0  0  0  0
   39.1720   25.8680   42.8620 C   0  0  0  0  0  0  0  0  0  0  0  0
   39.5000   24.5980   42.4270 C   0  0  0  0  0  0  0  0  0  0  0  0
   38.5260   23.8400   41.8060 N   0  0  0  0  0  0  0  0  0  0  0  0
   37.2810   24.3460   41.6330 C   0  0  0  0  0  0  0  0  0  0  0  0
   36.9600   25.5640   42.0490 N   0  0  0  0  0  0  0  0  0  0  0  0
   40.4750   24.1890   42.5570 H   0  0  0  0  0  0  0  0  0  0  0  0
   36.6060   23.6740   41.1410 H   0  0  0  0  0  0  0  0  0  0  0  0
   40.4020   26.8930   43.6770 S   0  0  0  0  0  0  0  0  0  0  0  0
   40.3610   26.4850   45.0440 H   0  0  0  0  0  0  0  0  0  0  0  0
  1  2  1  0  0  0  0
  1 16  1  0  0  0  0
  3  1  1  0  0  0  0
  5  4  2  0  0  0  0
  5  1  1  0  0  0  0
  6  5  1  0  0  0  0
  7  6  1  0  0  0  0
  8  6  2  0  0  0  0
  8 13  1  0  0  0  0
  9  8  1  0  0  0  0
 10  9  1  0  0  0  0
 10 12  2  0  0  0  0
 11 10  1  0  0  0  0
 12 13  1  0  0  0  0
 13 14  2  0  0  0  0
 14  4  1  0  0  0  0
 15  9  1  0  0  0  0
 16 18  1  0  0  0  0
 16 17  1  0  0  0  0
 19 20  1  0  0  0  0
 19 16  1  0  0  0  0
 20 27  1  0  0  0  0
 21 25  1  0  0  0  0
 21 20  2  0  0  0  0
 22 21  1  0  0  0  0
 23 22  2  0  0  0  0
 23 24  1  0  0  0  0
 24 19  2  0  0  0  0
 26 23  1  0  0  0  0
 27 28  1  0  0  0  0
M  END
>  <minimizedAffinity>
-5.35034943

$$$$

 OpenBabel03252507413D

 28 30  0  0  0  0  0  0  0  0999 V2000
   37.7300   27.9310   43.5240 C   0  0  0  0  0  0  0  0  0  0  0  0
   36.6690   28.2450   43.3190 H   0  0  0  0  0  0  0  0  0  0  0  0
   37.8420   27.7850   44.6180 H   0  0  0  0  0  0  0  0  0  0  0  0
   39.2100   26.0520   42.9510 C   0  0  0  0  0  3  0  0  0  0  0  0
   37.9520   26.6540   42.8360 C   0  0  0  0  0  0  0  0  0  0  0  0
   37.0030   25.9800   42.0680 C   0  0  0  0  0  0  0  0  0  0  0  0
   36.0500   26.4540   41.9910 H   0  0  0  0  0  0  0  0  0  0  0  0
   37.2710   24.7790   41.4440 C   0  0  0  0  0  0  0  0  0  0  0  0
   36.5120   23.9780   40.6720 N   0  0  0  0  0  0  0  0  0  0  0  0
   37.2590   22.9010   40.3050 C   0  0  0  0  0  0  0  0  0  0  0  0
   36.9870   22.0420   39.6820 H   0  0  0  0  0  0  0  0  0  0  0  0
   38.4940   23.0350   40.8560 N   0  0  0  0  0  0  0  0  0  0  0  0
   38.5280   24.1920   41.5690 C   0  0  0  0  0  0  0  0  0  0  0  0
   39.4810   24.8530   42.3300 C   0  0  0  0  0  3  0  0  0  0  0  0
   35.5190   24.1300   40.3850 H   0  0  0  0  0  0  0  0  0  0  0  0
   38.6740   29.0190   43.1190 C   0  0  0  0  0  0  0  0  0  0  0  0
   39.5900   28.6390   42.6150 H   0  0  0  0  0  0  0  0  0  0  0  0
   39.0280   29.5310   44.0290 H   0  0  0  0  0  0  0  0  0  0  0  0
   38.0790   29.9820   42.1700 C   0  0  0  0  0  0  0  0  0  0  0  0
   38.9230   30.9700   41.6780 C   0  0  0  0  0  0  0  0  0  0  0  0
   38.4280   31.9030   40.7870 C   0  0  0  0  0  0  0  0  0  0  0  0
   37.1000   31.8200   40.4130 N   0  0  0  0  0  0  0  0  0  0  0  0
   36.3130   30.8400   40.9200 C   0  0  0  0  0  0  0  0  0  0  0  0
   36.7830   29.9410   41.7750 N   0  0  0  0  0  0  0  0  0  0  0  0
   39.0360   32.6780   40.3820 H   0  0  0  0  0  0  0  0  0  0  0  0
   35.3030   30.8700   40.5630 H   0  0  0  0  0  0  0  0  0  0  0  0
   40.6420   31.0330   42.1950 S   0  0  0  0  0  0  0  0  0  0  0  0
   41.3510   30.3350   41.1720 H   0  0  0  0  0  0  0  0  0  0  0  0
  1  3  1  0  0  0  0
  2  1  1  0  0  0  0
  5  4  1  0  0  0  0
  5  1  1  0  0  0  0
  6  5  2  0  0  0  0
  7  6  1  0  0  0  0
  8 13  2  0  0  0  0
  8  6  1  0  0  0  0
  9  8  1  0  0  0  0
 10  9  1  0  0  0  0
 10 12  2  0  0  0  0
 11 10  1  0  0  0  0
 12 13  1  0  0  0  0
 13 14  1  0  0  0  0
 14  4  2  0  0  0  0
 15  9  1  0  0  0  0
 16  1  1  0  0  0  0
 16 18  1  0  0  0  0
 17 16  1  0  0  0  0
 19 16  1  0  0  0  0
 20 19  2  0  0  0  0
 20 27  1  0  0  0  0
 21 20  1  0  0  0  0
 22 21  2  0  0  0  0
 22 23  1  0  0  0  0
 23 24  2  0  0  0  0
 24 19  1  0  0  0  0
 25 21  1  0  0  0  0
 26 23  1  0  0  0  0
 28 27  1  0  0  0  0
M  END
>  <minimizedAffinity>
-5.00538254

$$$$

 OpenBabel03252507413D

 28 30  0  0  0  0  0  0  0  0999 V2000
   35.8070   28.6490   41.3410 C   0  0  0  0  0  0  0  0  0  0  0  0
   34.8320   28.1100   41.5030 H   0  0  0  0  0  0  0  0  0  0  0  0
   35.7460   29.6330   41.8510 H   0  0  0  0  0  0  0  0  0  0  0  0
   37.5890   28.4030   43.0190 C   0  0  0  0  0  3  0  0  0  0  0  0
   36.8640   27.8430   41.9600 C   0  0  0  0  0  0  0  0  0  0  0  0
   37.2120   26.5470   41.5800 C   0  0  0  0  0  0  0  0  0  0  0  0
   36.6500   26.1360   40.7720 H   0  0  0  0  0  0  0  0  0  0  0  0
   38.2190   25.8360   42.2020 C   0  0  0  0  0  0  0  0  0  0  0  0
   38.7040   24.5980   41.9950 N   0  0  0  0  0  0  0  0  0  0  0  0
   39.7060   24.3740   42.8900 C   0  0  0  0  0  0  0  0  0  0  0  0
   40.3340   23.4880   43.0260 H   0  0  0  0  0  0  0  0  0  0  0  0
   39.8420   25.4860   43.6600 N   0  0  0  0  0  0  0  0  0  0  0  0
   38.9300   26.4090   43.2550 C   0  0  0  0  0  0  0  0  0  0  0  0
   38.5930   27.6970   43.6430 C   0  0  0  0  0  3  0  0  0  0  0  0
   38.3900   23.9050   41.2800 H   0  0  0  0  0  0  0  0  0  0  0  0
   36.0110   28.9150   39.8830 C   0  0  0  0  0  0  0  0  0  0  0  0
   35.0690   28.8690   39.2930 H   0  0  0  0  0  0  0  0  0  0  0  0
   36.6570   28.1210   39.4710 H   0  0  0  0  0  0  0  0  0  0  0  0
   36.5780   30.2510   39.6080 C   0  0  0  0  0  0  0  0  0  0  0  0
   36.9000   30.5280   38.2860 C   0  0  0  0  0  0  0  0  0  0  0  0
   37.4350   31.7600   37.9620 C   0  0  0  0  0  0  0  0  0  0  0  0
   37.6310   32.6820   38.9730 N   0  0  0  0  0  0  0  0  0  0  0  0
   37.3030   32.3670   40.2500 C   0  0  0  0  0  0  0  0  0  0  0  0
   36.7890   31.1860   40.5670 N   0  0  0  0  0  0  0  0  0  0  0  0
   37.6970   32.0190   36.9630 H   0  0  0  0  0  0  0  0  0  0  0  0
   37.4970   33.1540   40.9520 H   0  0  0  0  0  0  0  0  0  0  0  0
   36.6240   29.2960   37.0090 S   0  0  0  0  0  0  0  0  0  0  0  0
   35.3510   29.6300   36.4560 H   0  0  0  0  0  0  0  0  0  0  0  0
  1  2  1  0  0  0  0
  1  3  1  0  0  0  0
  1  5  1  0  0  0  0
  4 14  1  0  0  0  0
  5  4  2  0  0  0  0
  6  5  1  0  0  0  0
  6  8  2  0  0  0  0
  7  6  1  0  0  0  0
  8 13  1  0  0  0  0
  9  8  1  0  0  0  0
  9 10  1  0  0  0  0
 10 11  1  0  0  0  0
 10 12  2  0  0  0  0
 13 14  2  0  0  0  0
 13 12  1  0  0  0  0
 15  9  1  0  0  0  0
 16  1  1  0  0  0  0
 17 16  1  0  0  0  0
 18 16  1  0  0  0  0
 19 16  1  0  0  0  0
 19 24  1  0  0  0  0
 20 19  2  0  0  0  0
 21 20  1  0  0  0  0
 21 22  2  0  0  0  0
 22 23  1  0  0  0  0
 23 24  2  0  0  0  0
 23 26  1  0  0  0  0
 25 21  1  0  0  0  0
 27 20  1  0  0  0  0
 28 27  1  0  0  0  0
M  END
>  <minimizedAffinity>
-4.98811865

$$$$

 OpenBabel03252507413D

 28 30  0  0  0  0  0  0  0  0999 V2000
   37.3620   28.1760   43.5600 C   0  0  0  0  0  0  0  0  0  0  0  0
   38.2520   27.9620   44.2140 H   0  0  0  0  0  0  0  0  0  0  0  0
   36.5100   28.4550   44.2150 H   0  0  0  0  0  0  0  0  0  0  0  0
   39.0140   29.8150   42.7650 C   0  0  0  0  0  3  0  0  0  0  0  0
   37.7100   29.3120   42.7000 C   0  0  0  0  0  0  0  0  0  0  0  0
   36.8400   29.9410   41.8100 C   0  0  0  0  0  0  0  0  0  0  0  0
   35.8500   29.5450   41.7730 H   0  0  0  0  0  0  0  0  0  0  0  0
   37.2260   31.0080   41.0240 C   0  0  0  0  0  0  0  0  0  0  0  0
   36.5570   31.7450   40.1180 N   0  0  0  0  0  0  0  0  0  0  0  0
   37.4050   32.6880   39.6200 C   0  0  0  0  0  0  0  0  0  0  0  0
   37.2220   33.4640   38.8690 H   0  0  0  0  0  0  0  0  0  0  0  0
   38.6120   32.5330   40.2250 N   0  0  0  0  0  0  0  0  0  0  0  0
   38.5290   31.4970   41.1010 C   0  0  0  0  0  0  0  0  0  0  0  0
   39.4040   30.8790   41.9830 C   0  0  0  0  0  3  0  0  0  0  0  0
   35.5600   31.6380   39.8250 H   0  0  0  0  0  0  0  0  0  0  0  0
   36.9650   26.9410   42.8150 C   0  0  0  0  0  0  0  0  0  0  0  0
   36.2910   27.1460   41.9540 H   0  0  0  0  0  0  0  0  0  0  0  0
   36.3860   26.2930   43.4950 H   0  0  0  0  0  0  0  0  0  0  0  0
   38.1140   26.2100   42.2440 C   0  0  0  0  0  0  0  0  0  0  0  0
   38.1020   26.0100   40.8690 C   0  0  0  0  0  0  0  0  0  0  0  0
   39.1490   25.3330   40.2730 C   0  0  0  0  0  0  0  0  0  0  0  0
   40.1800   24.8760   41.0700 N   0  0  0  0  0  0  0  0  0  0  0  0
   40.1500   25.0940   42.4080 C   0  0  0  0  0  0  0  0  0  0  0  0
   39.1490   25.7430   42.9860 N   0  0  0  0  0  0  0  0  0  0  0  0
   39.1830   25.1560   39.2230 H   0  0  0  0  0  0  0  0  0  0  0  0
   40.9990   24.6970   42.9290 H   0  0  0  0  0  0  0  0  0  0  0  0
   36.7370   26.6250   39.8770 S   0  0  0  0  0  0  0  0  0  0  0  0
   37.1890   27.8880   39.3880 H   0  0  0  0  0  0  0  0  0  0  0  0
  1  2  1  0  0  0  0
  1  3  1  0  0  0  0
  5  4  1  0  0  0  0
  5  1  1  0  0  0  0
  6  5  2  0  0  0  0
  7  6  1  0  0  0  0
  8 13  2  0  0  0  0
  8  6  1  0  0  0  0
  9  8  1  0  0  0  0
 10  9  1  0  0  0  0
 10 12  2  0  0  0  0
 11 10  1  0  0  0  0
 12 13  1  0  0  0  0
 13 14  1  0  0  0  0
 14  4  2  0  0  0  0
 15  9  1  0  0  0  0
 16 18  1  0  0  0  0
 16  1  1  0  0  0  0
 17 16  1  0  0  0  0
 19 16  1  0  0  0  0
 19 24  1  0  0  0  0
 20 19  2  0  0  0  0
 21 20  1  0  0  0  0
 21 22  2  0  0  0  0
 22 23  1  0  0  0  0
 23 26  1  0  0  0  0
 23 24  2  0  0  0  0
 25 21  1  0  0  0  0
 27 20  1  0  0  0  0
 28 27  1  0  0  0  0
M  END
>  <minimizedAffinity>
-4.97750521

$$$$

 OpenBabel03252507413D

 28 30  0  0  0  0  0  0  0  0999 V2000
   39.2130   29.9790   42.9100 C   0  0  0  0  0  0  0  0  0  0  0  0
   38.4010   30.7040   43.1930 H   0  0  0  0  0  0  0  0  0  0  0  0
   39.9480   29.9410   43.7400 H   0  0  0  0  0  0  0  0  0  0  0  0
   37.3140   28.4620   43.2910 C   0  0  0  0  0  3  0  0  0  0  0  0
   38.5900   28.6610   42.7490 C   0  0  0  0  0  0  0  0  0  0  0  0
   39.1670   27.5740   42.0940 C   0  0  0  0  0  0  0  0  0  0  0  0
   40.1390   27.7430   41.6880 H   0  0  0  0  0  0  0  0  0  0  0  0
   38.5300   26.3550   41.9740 C   0  0  0  0  0  0  0  0  0  0  0  0
   38.9020   25.2000   41.3920 N   0  0  0  0  0  0  0  0  0  0  0  0
   37.9000   24.2930   41.5560 C   0  0  0  0  0  0  0  0  0  0  0  0
   37.8390   23.2520   41.2220 H   0  0  0  0  0  0  0  0  0  0  0  0
   36.8950   24.8940   42.2460 N   0  0  0  0  0  0  0  0  0  0  0  0
   37.2600   26.1750   42.5180 C   0  0  0  0  0  0  0  0  0  0  0  0
   36.6750   27.2490   43.1730 C   0  0  0  0  0  3  0  0  0  0  0  0
   39.7990   25.0010   40.8940 H   0  0  0  0  0  0  0  0  0  0  0  0
   39.9370   30.4680   41.6950 C   0  0  0  0  0  0  0  0  0  0  0  0
   40.0480   29.6890   40.9090 H   0  0  0  0  0  0  0  0  0  0  0  0
   40.9640   30.7430   41.9880 H   0  0  0  0  0  0  0  0  0  0  0  0
   39.2580   31.5990   41.0300 C   0  0  0  0  0  0  0  0  0  0  0  0
   40.0570   32.6760   40.6700 C   0  0  0  0  0  0  0  0  0  0  0  0
   39.4840   33.7670   40.0440 C   0  0  0  0  0  0  0  0  0  0  0  0
   38.1250   33.7470   39.7950 N   0  0  0  0  0  0  0  0  0  0  0  0
   37.3840   32.6740   40.1640 C   0  0  0  0  0  0  0  0  0  0  0  0
   37.9290   31.6240   40.7650 N   0  0  0  0  0  0  0  0  0  0  0  0
   40.0560   34.6160   39.7490 H   0  0  0  0  0  0  0  0  0  0  0  0
   36.3430   32.7640   39.9230 H   0  0  0  0  0  0  0  0  0  0  0  0
   41.8200   32.6530   41.0150 S   0  0  0  0  0  0  0  0  0  0  0  0
   42.4170   32.1890   39.8040 H   0  0  0  0  0  0  0  0  0  0  0  0
  1  2  1  0  0  0  0
  1  3  1  0  0  0  0
  5  1  1  0  0  0  0
  5  4  2  0  0  0  0
  6  5  1  0  0  0  0
  7  6  1  0  0  0  0
  8  6  2  0  0  0  0
  8 13  1  0  0  0  0
  9 10  1  0  0  0  0
  9  8  1  0  0  0  0
 10 12  2  0  0  0  0
 11 10  1  0  0  0  0
 12 13  1  0  0  0  0
 13 14  2  0  0  0  0
 14  4  1  0  0  0  0
 15  9  1  0  0  0  0
 16 18  1  0  0  0  0
 16  1  1  0  0  0  0
 17 16  1  0  0  0  0
 19 16  1  0  0  0  0
 20 27  1  0  0  0  0
 20 19  2  0  0  0  0
 21 20  1  0  0  0  0
 22 21  2  0  0  0  0
 22 23  1  0  0  0  0
 23 24  2  0  0  0  0
 24 19  1  0  0  0  0
 25 21  1  0  0  0  0
 26 23  1  0  0  0  0
 28 27  1  0  0  0  0
M  END
>  <minimizedAffinity>
-4.89499521

$$$$

 OpenBabel03252507413D

 28 30  0  0  0  0  0  0  0  0999 V2000
   35.4630   29.7620   39.9850 C   0  0  0  0  0  0  0  0  0  0  0  0
   35.1120   29.8840   41.0470 H   0  0  0  0  0  0  0  0  0  0  0  0
   34.6200   30.0180   39.3100 H   0  0  0  0  0  0  0  0  0  0  0  0
   37.1920   30.7230   38.5230 C   0  0  0  0  0  3  0  0  0  0  0  0
   36.5620   30.7100   39.7730 C   0  0  0  0  0  0  0  0  0  0  0  0
   37.0400   31.6130   40.7230 C   0  0  0  0  0  0  0  0  0  0  0  0
   36.5480   31.5880   41.6700 H   0  0  0  0  0  0  0  0  0  0  0  0
   38.0790   32.4820   40.4650 C   0  0  0  0  0  0  0  0  0  0  0  0
   38.6810   33.4150   41.2260 N   0  0  0  0  0  0  0  0  0  0  0  0
   39.6620   34.0050   40.4890 C   0  0  0  0  0  0  0  0  0  0  0  0
   40.3610   34.8010   40.7670 H   0  0  0  0  0  0  0  0  0  0  0  0
   39.6680   33.4310   39.2570 N   0  0  0  0  0  0  0  0  0  0  0  0
   38.6950   32.4830   39.2150 C   0  0  0  0  0  0  0  0  0  0  0  0
   38.2290   31.5900   38.2610 C   0  0  0  0  0  3  0  0  0  0  0  0
   38.4580   33.6670   42.2150 H   0  0  0  0  0  0  0  0  0  0  0  0
   35.8250   28.3340   39.7250 C   0  0  0  0  0  0  0  0  0  0  0  0
   36.4480   28.1990   38.8140 H   0  0  0  0  0  0  0  0  0  0  0  0
   34.8980   27.7670   39.5370 H   0  0  0  0  0  0  0  0  0  0  0  0
   36.6020   27.7220   40.8220 C   0  0  0  0  0  0  0  0  0  0  0  0
   37.5940   26.8210   40.4540 C   0  0  0  0  0  0  0  0  0  0  0  0
   38.3560   26.2130   41.4320 C   0  0  0  0  0  0  0  0  0  0  0  0
   38.1050   26.5250   42.7550 N   0  0  0  0  0  0  0  0  0  0  0  0
   37.1270   27.4090   43.0680 C   0  0  0  0  0  0  0  0  0  0  0  0
   36.3920   27.9960   42.1340 N   0  0  0  0  0  0  0  0  0  0  0  0
   39.1270   25.5170   41.1980 H   0  0  0  0  0  0  0  0  0  0  0  0
   37.0180   27.5770   44.1220 H   0  0  0  0  0  0  0  0  0  0  0  0
   37.8810   26.4510   38.7200 S   0  0  0  0  0  0  0  0  0  0  0  0
   38.9460   27.3210   38.3380 H   0  0  0  0  0  0  0  0  0  0  0  0
  1  2  1  0  0  0  0
  3  1  1  0  0  0  0
  4  5  1  0  0  0  0
  5  1  1  0  0  0  0
  5  6  2  0  0  0  0
  6  7  1  0  0  0  0
  8  6  1  0  0  0  0
  8  9  1  0  0  0  0
  9 15  1  0  0  0  0
 10 11  1  0  0  0  0
 10  9  1  0  0  0  0
 12 10  2  0  0  0  0
 13 12  1  0  0  0  0
 13  8  2  0  0  0  0
 14  4  2  0  0  0  0
 14 13  1  0  0  0  0
 16  1  1  0  0  0  0
 16 19  1  0  0  0  0
 17 16  1  0  0  0  0
 18 16  1  0  0  0  0
 19 24  1  0  0  0  0
 20 19  2  0  0  0  0
 20 21  1  0  0  0  0
 21 22  2  0  0  0  0
 22 23  1  0  0  0  0
 23 26  1  0  0  0  0
 24 23  2  0  0  0  0
 25 21  1  0  0  0  0
 27 20  1  0  0  0  0
 28 27  1  0  0  0  0
M  END
>  <minimizedAffinity>
-4.84593725

$$$$

 OpenBabel03252507413D

 28 30  0  0  0  0  0  0  0  0999 V2000
   39.1610   30.0240   42.4780 C   0  0  0  0  0  0  0  0  0  0  0  0
   38.4050   30.7480   42.8920 H   0  0  0  0  0  0  0  0  0  0  0  0
   40.0390   30.0160   43.1560 H   0  0  0  0  0  0  0  0  0  0  0  0
   37.3100   28.5360   43.1190 C   0  0  0  0  0  3  0  0  0  0  0  0
   38.5390   28.6960   42.4680 C   0  0  0  0  0  0  0  0  0  0  0  0
   39.0750   27.5630   41.8560 C   0  0  0  0  0  0  0  0  0  0  0  0
   40.0120   27.7030   41.3650 H   0  0  0  0  0  0  0  0  0  0  0  0
   38.4420   26.3370   41.8800 C   0  0  0  0  0  0  0  0  0  0  0  0
   38.7800   25.1410   41.3630 N   0  0  0  0  0  0  0  0  0  0  0  0
   37.8010   24.2460   41.6720 C   0  0  0  0  0  0  0  0  0  0  0  0
   37.7240   23.1820   41.4250 H   0  0  0  0  0  0  0  0  0  0  0  0
   36.8460   24.8960   42.3890 N   0  0  0  0  0  0  0  0  0  0  0  0
   37.2190   26.1950   42.5320 C   0  0  0  0  0  0  0  0  0  0  0  0
   36.6750   27.3150   43.1440 C   0  0  0  0  0  3  0  0  0  0  0  0
   39.6380   24.9070   40.8140 H   0  0  0  0  0  0  0  0  0  0  0  0
   39.6360   30.4900   41.1380 C   0  0  0  0  0  0  0  0  0  0  0  0
   39.5300   29.7180   40.3430 H   0  0  0  0  0  0  0  0  0  0  0  0
   40.7170   30.7000   41.2040 H   0  0  0  0  0  0  0  0  0  0  0  0
   38.9010   31.6680   40.6360 C   0  0  0  0  0  0  0  0  0  0  0  0
   37.9600   31.4360   39.6410 C   0  0  0  0  0  0  0  0  0  0  0  0
   37.2380   32.4970   39.1290 C   0  0  0  0  0  0  0  0  0  0  0  0
   37.4780   33.7620   39.6290 N   0  0  0  0  0  0  0  0  0  0  0  0
   38.4060   33.9430   40.5990 C   0  0  0  0  0  0  0  0  0  0  0  0
   39.1020   32.9280   41.0960 N   0  0  0  0  0  0  0  0  0  0  0  0
   36.5060   32.3680   38.3660 H   0  0  0  0  0  0  0  0  0  0  0  0
   38.5110   34.9630   40.9130 H   0  0  0  0  0  0  0  0  0  0  0  0
   37.6850   29.7710   39.0250 S   0  0  0  0  0  0  0  0  0  0  0  0
   36.5700   29.2900   39.7770 H   0  0  0  0  0  0  0  0  0  0  0  0
  1  2  1  0  0  0  0
  1  3  1  0  0  0  0
  4 14  1  0  0  0  0
  5  1  1  0  0  0  0
  5  4  2  0  0  0  0
  6  8  2  0  0  0  0
  6  5  1  0  0  0  0
  7  6  1  0  0  0  0
  8 13  1  0  0  0  0
  9 10  1  0  0  0  0
  9  8  1  0  0  0  0
 10 12  2  0  0  0  0
 11 10  1  0  0  0  0
 12 13  1  0  0  0  0
 13 14  2  0  0  0  0
 15  9  1  0  0  0  0
 16 18  1  0  0  0  0
 16  1  1  0  0  0  0
 17 16  1  0  0  0  0
 19 24  1  0  0  0  0
 19 16  1  0  0  0  0
 20 19  2  0  0  0  0
 21 22  2  0  0  0  0
 21 20  1  0  0  0  0
 22 23  1  0  0  0  0
 23 26  1  0  0  0  0
 23 24  2  0  0  0  0
 25 21  1  0  0  0  0
 27 20  1  0  0  0  0
 27 28  1  0  0  0  0
M  END
>  <minimizedAffinity>
-4.82379913

$$$$

 OpenBabel03252507413D

 28 30  0  0  0  0  0  0  0  0999 V2000
   35.5840   29.4490   40.6260 C   0  0  0  0  0  0  0  0  0  0  0  0
   35.4060   29.3790   39.5170 H   0  0  0  0  0  0  0  0  0  0  0  0
   34.6000   29.5640   41.1270 H   0  0  0  0  0  0  0  0  0  0  0  0
   36.4850   28.0190   42.4130 C   0  0  0  0  0  3  0  0  0  0  0  0
   36.2050   28.1900   41.0520 C   0  0  0  0  0  0  0  0  0  0  0  0
   36.5430   27.1340   40.2060 C   0  0  0  0  0  0  0  0  0  0  0  0
   36.3230   27.2820   39.1730 H   0  0  0  0  0  0  0  0  0  0  0  0
   37.1270   25.9720   40.6670 C   0  0  0  0  0  0  0  0  0  0  0  0
   37.5240   24.8530   40.0320 N   0  0  0  0  0  0  0  0  0  0  0  0
   38.0420   23.9960   40.9550 C   0  0  0  0  0  0  0  0  0  0  0  0
   38.4640   22.9950   40.8180 H   0  0  0  0  0  0  0  0  0  0  0  0
   37.9640   24.5900   42.1750 N   0  0  0  0  0  0  0  0  0  0  0  0
   37.3990   25.8180   42.0250 C   0  0  0  0  0  0  0  0  0  0  0  0
   37.0660   26.8600   42.8770 C   0  0  0  0  0  3  0  0  0  0  0  0
   37.4610   24.6480   39.0100 H   0  0  0  0  0  0  0  0  0  0  0  0
   36.3910   30.6690   40.9410 C   0  0  0  0  0  0  0  0  0  0  0  0
   37.0300   30.5510   41.8430 H   0  0  0  0  0  0  0  0  0  0  0  0
   35.6980   31.4950   41.1750 H   0  0  0  0  0  0  0  0  0  0  0  0
   37.3160   31.0510   39.8550 C   0  0  0  0  0  0  0  0  0  0  0  0
   38.6690   31.0710   40.1700 C   0  0  0  0  0  0  0  0  0  0  0  0
   39.5870   31.4200   39.1980 C   0  0  0  0  0  0  0  0  0  0  0  0
   39.1240   31.7400   37.9360 N   0  0  0  0  0  0  0  0  0  0  0  0
   37.7950   31.7080   37.6740 C   0  0  0  0  0  0  0  0  0  0  0  0
   36.9090   31.3730   38.6020 N   0  0  0  0  0  0  0  0  0  0  0  0
   40.6340   31.4490   39.3930 H   0  0  0  0  0  0  0  0  0  0  0  0
   37.5480   31.9740   36.6650 H   0  0  0  0  0  0  0  0  0  0  0  0
   39.2190   30.6460   41.8270 S   0  0  0  0  0  0  0  0  0  0  0  0
   39.5630   29.2630   41.7470 H   0  0  0  0  0  0  0  0  0  0  0  0
  1 16  1  0  0  0  0
  1  5  1  0  0  0  0
  1  3  1  0  0  0  0
  2  1  1  0  0  0  0
  4 14  1  0  0  0  0
  5  4  2  0  0  0  0
  6  8  2  0  0  0  0
  6  5  1  0  0  0  0
  7  6  1  0  0  0  0
  8 13  1  0  0  0  0
  9  8  1  0  0  0  0
  9 10  1  0  0  0  0
 10 12  2  0  0  0  0
 11 10  1  0  0  0  0
 13 12  1  0  0  0  0
 13 14  2  0  0  0  0
 15  9  1  0  0  0  0
 16 18  1  0  0  0  0
 16 17  1  0  0  0  0
 19 20  1  0  0  0  0
 19 16  1  0  0  0  0
 20 27  1  0  0  0  0
 21 25  1  0  0  0  0
 21 20  2  0  0  0  0
 22 21  1  0  0  0  0
 23 22  2  0  0  0  0
 23 24  1  0  0  0  0
 24 19  2  0  0  0  0
 26 23  1  0  0  0  0
 28 27  1  0  0  0  0
M  END
>  <minimizedAffinity>
-4.79839516

$$$$

 OpenBabel03252507413D

 28 30  0  0  0  0  0  0  0  0999 V2000
   36.6320   31.5720   40.3610 C   0  0  0  0  0  0  0  0  0  0  0  0
   36.5160   31.8940   41.4330 H   0  0  0  0  0  0  0  0  0  0  0  0
   35.8310   32.0560   39.7660 H   0  0  0  0  0  0  0  0  0  0  0  0
   38.7650   32.7100   40.8150 C   0  0  0  0  0  3  0  0  0  0  0  0
   37.9400   32.0480   39.8980 C   0  0  0  0  0  0  0  0  0  0  0  0
   38.4400   31.8940   38.6050 C   0  0  0  0  0  0  0  0  0  0  0  0
   37.7970   31.3870   37.9200 H   0  0  0  0  0  0  0  0  0  0  0  0
   39.6810   32.3640   38.2280 C   0  0  0  0  0  0  0  0  0  0  0  0
   40.3400   32.3210   37.0550 N   0  0  0  0  0  0  0  0  0  0  0  0
   41.5440   32.9350   37.2150 C   0  0  0  0  0  0  0  0  0  0  0  0
   42.3490   33.0940   36.4890 H   0  0  0  0  0  0  0  0  0  0  0  0
   41.6330   33.3620   38.5020 N   0  0  0  0  0  0  0  0  0  0  0  0
   40.4900   33.0210   39.1540 C   0  0  0  0  0  0  0  0  0  0  0  0
   40.0050   33.1800   40.4430 C   0  0  0  0  0  3  0  0  0  0  0  0
   40.0110   31.8970   36.1580 H   0  0  0  0  0  0  0  0  0  0  0  0
   36.4410   30.0920   40.2460 C   0  0  0  0  0  0  0  0  0  0  0  0
   36.6750   29.6980   39.2320 H   0  0  0  0  0  0  0  0  0  0  0  0
   35.3750   29.8630   40.4140 H   0  0  0  0  0  0  0  0  0  0  0  0
   37.2970   29.3210   41.1700 C   0  0  0  0  0  0  0  0  0  0  0  0
   38.1000   28.3410   40.6010 C   0  0  0  0  0  0  0  0  0  0  0  0
   38.9240   27.5840   41.4120 C   0  0  0  0  0  0  0  0  0  0  0  0
   38.9220   27.8300   42.7710 N   0  0  0  0  0  0  0  0  0  0  0  0
   38.1210   28.7970   43.2830 C   0  0  0  0  0  0  0  0  0  0  0  0
   37.3280   29.5270   42.5100 N   0  0  0  0  0  0  0  0  0  0  0  0
   39.5580   26.8220   41.0210 H   0  0  0  0  0  0  0  0  0  0  0  0
   38.1980   28.9020   44.3470 H   0  0  0  0  0  0  0  0  0  0  0  0
   38.0670   28.0600   38.8270 S   0  0  0  0  0  0  0  0  0  0  0  0
   39.1600   28.8280   38.3220 H   0  0  0  0  0  0  0  0  0  0  0  0
  1  2  1  0  0  0  0
  3  1  1  0  0  0  0
  5  1  1  0  0  0  0
  5  4  2  0  0  0  0
  6  5  1  0  0  0  0
  7  6  1  0  0  0  0
  8  6  2  0  0  0  0
  8 13  1  0  0  0  0
  9 10  1  0  0  0  0
  9  8  1  0  0  0  0
 10 12  2  0  0  0  0
 11 10  1  0  0  0  0
 12 13  1  0  0  0  0
 13 14  2  0  0  0  0
 14  4  1  0  0  0  0
 15  9  1  0  0  0  0
 16  1  1  0  0  0  0
 16 18  1  0  0  0  0
 16 19  1  0  0  0  0
 17 16  1  0  0  0  0
 19 24  1  0  0  0  0
 20 19  2  0  0  0  0
 20 21  1  0  0  0  0
 21 22  2  0  0  0  0
 22 23  1  0  0  0  0
 23 26  1  0  0  0  0
 24 23  2  0  0  0  0
 25 21  1  0  0  0  0
 27 20  1  0  0  0  0
 28 27  1  0  0  0  0
M  END
>  <minimizedAffinity>
-4.703125

$$$$
