
 OpenBabel03252509083D

 44 48  0  0  0  0  0  0  0  0999 V2000
   46.8920   31.6610   39.3230 C   0  0  0  0  0  0  0  0  0  0  0  0
   46.6230   32.9920   39.1870 C   0  0  0  0  0  0  0  0  0  0  0  0
   47.3520   33.7500   38.2860 C   0  0  0  0  0  0  0  0  0  0  0  0
   48.3440   33.1710   37.5280 C   0  0  0  0  0  0  0  0  0  0  0  0
   48.6500   31.8170   37.6370 C   0  0  0  0  0  0  0  0  0  0  0  0
   47.9000   31.0720   38.5540 C   0  0  0  0  0  0  0  0  0  0  0  0
   47.1550   34.8090   38.1600 H   0  0  0  0  0  0  0  0  0  0  0  0
   48.9520   33.6780   36.8120 H   0  0  0  0  0  0  0  0  0  0  0  0
   49.4030   31.2820   37.0900 H   0  0  0  0  0  0  0  0  0  0  0  0
   48.1130   30.0100   38.6640 H   0  0  0  0  0  0  0  0  0  0  0  0
   45.2290   35.7830   43.3000 Cl  0  0  0  0  0  0  0  0  0  0  0  0
   44.9230   34.9540   41.7960 C   0  0  0  0  0  0  0  0  0  0  0  0
   45.9240   34.3250   41.1260 C   0  0  0  0  0  0  0  0  0  0  0  0
   45.5890   33.6960   39.9320 C   0  0  0  0  0  0  0  0  0  0  0  0
   44.3090   33.7090   39.4420 C   0  0  0  0  0  0  0  0  0  0  0  0
   43.3190   34.3420   40.1220 C   0  0  0  0  0  0  0  0  0  0  0  0
   43.6350   34.9700   41.3130 C   0  0  0  0  0  0  0  0  0  0  0  0
   44.1100   33.2030   38.5020 H   0  0  0  0  0  0  0  0  0  0  0  0
   42.3290   34.3260   39.7040 H   0  0  0  0  0  0  0  0  0  0  0  0
   42.8220   35.4630   41.8280 H   0  0  0  0  0  0  0  0  0  0  0  0
   49.4670   35.3660   41.9460 C   0  0  0  0  0  0  0  0  0  0  0  0
   48.1740   35.3580   41.4130 C   0  0  0  0  0  0  0  0  0  0  0  0
   47.2690   34.3420   41.6700 C   0  0  0  0  0  0  0  0  0  0  0  0
   47.7530   33.3850   42.4690 N   0  0  0  0  0  0  0  0  0  0  0  0
   48.9800   33.3740   42.9870 C   0  0  0  0  0  0  0  0  0  0  0  0
   49.8340   34.3540   42.7310 N   0  0  0  0  0  0  0  0  0  0  0  0
   50.1370   36.1800   41.7170 H   0  0  0  0  0  0  0  0  0  0  0  0
   47.8610   36.1840   40.7670 H   0  0  0  0  0  0  0  0  0  0  0  0
   49.1790   32.5020   43.6130 H   0  0  0  0  0  0  0  0  0  0  0  0
   46.0540   30.6920   40.4220 S   0  0  0  0  0  0  0  0  0  0  0  0
   46.1920   29.2080   39.9930 O   0  0  0  0  0  0  0  0  0  0  0  0
   46.8450   30.7480   41.7280 O   0  0  0  0  0  0  0  0  0  0  0  0
   43.8300   31.1820   41.9610 C   0  0  0  0  0  3  0  0  0  0  0  0
   44.3710   30.7600   40.7130 C   0  0  0  0  0  0  0  0  0  0  0  0
   43.3070   30.5180   39.8540 C   0  0  0  0  0  0  0  0  0  0  0  0
   43.5720   30.2180   38.8510 H   0  0  0  0  0  0  0  0  0  0  0  0
   41.9730   30.6360   40.0900 C   0  0  0  0  0  0  0  0  0  0  0  0
   40.8750   30.4310   39.3500 N   0  0  0  0  0  0  0  0  0  0  0  0
   39.8150   30.7250   40.1560 C   0  0  0  0  0  0  0  0  0  0  0  0
   38.7860   30.6500   39.8250 H   0  0  0  0  0  0  0  0  0  0  0  0
   40.2740   31.1070   41.3800 N   0  0  0  0  0  0  0  0  0  0  0  0
   41.6210   31.0560   41.3520 C   0  0  0  0  0  0  0  0  0  0  0  0
   42.5180   31.3490   42.3490 C   0  0  0  0  0  3  0  0  0  0  0  0
   40.8570   30.1130   38.3650 H   0  0  0  0  0  0  0  0  0  0  0  0
  1 30  1  0  0  0  0
  2  1  1  0  0  0  0
  2 14  1  0  0  0  0
  3  2  2  0  0  0  0
  4  5  2  0  0  0  0
  4  3  1  0  0  0  0
  5  6  1  0  0  0  0
  6 10  1  0  0  0  0
  6  1  2  0  0  0  0
  7  3  1  0  0  0  0
  8  4  1  0  0  0  0
  9  5  1  0  0  0  0
 12 11  1  0  0  0  0
 13 23  1  0  0  0  0
 13 12  2  0  0  0  0
 14 13  1  0  0  0  0
 15 14  2  0  0  0  0
 15 16  1  0  0  0  0
 16 17  2  0  0  0  0
 17 12  1  0  0  0  0
 17 20  1  0  0  0  0
 18 15  1  0  0  0  0
 19 16  1  0  0  0  0
 21 26  1  0  0  0  0
 22 23  1  0  0  0  0
 22 21  2  0  0  0  0
 23 24  2  0  0  0  0
 24 25  1  0  0  0  0
 25 29  1  0  0  0  0
 26 25  2  0  0  0  0
 27 21  1  0  0  0  0
 28 22  1  0  0  0  0
 30 34  1  0  0  0  0
 30 32  2  0  0  0  0
 31 30  2  0  0  0  0
 33 43  1  0  0  0  0
 34 33  2  0  0  0  0
 35 37  2  0  0  0  0
 35 34  1  0  0  0  0
 36 35  1  0  0  0  0
 37 42  1  0  0  0  0
 38 37  1  0  0  0  0
 38 39  1  0  0  0  0
 39 41  2  0  0  0  0
 40 39  1  0  0  0  0
 42 41  1  0  0  0  0
 42 43  2  0  0  0  0
 44 38  1  0  0  0  0
M  END
>  <minimizedAffinity>
-5.10951328

>  <minimizedRMSD>
1.39920473

$$$$
