
 OpenBabel03252503343D

 25 27  0  0  0  0  0  0  0  0999 V2000
   46.1710   33.8380   40.7510 C   0  0  0  0  0  0  0  0  0  0  0  0
   44.9460   33.5840   40.9110 O   0  0  0  0  0  0  0  0  0  0  0  0
   46.7570   34.5180   41.8490 N   0  0  0  0  0  0  0  0  0  0  0  0
   47.7450   34.8500   41.8200 H   0  0  0  0  0  0  0  0  0  0  0  0
   48.3070   33.2800   39.5370 C   0  0  0  0  0  3  0  0  0  0  0  0
   46.9430   33.4820   39.5660 C   0  0  0  0  0  0  0  0  0  0  0  0
   46.2570   33.3350   38.3700 C   0  0  0  0  0  0  0  0  0  0  0  0
   45.1890   33.4600   38.2340 H   0  0  0  0  0  0  0  0  0  0  0  0
   46.9160   32.9950   37.1870 C   0  0  0  0  0  0  0  0  0  0  0  0
   46.5840   32.7800   35.9070 N   0  0  0  0  0  0  0  0  0  0  0  0
   47.6790   32.4740   35.1890 C   0  0  0  0  0  0  0  0  0  0  0  0
   47.7620   32.2430   34.1290 H   0  0  0  0  0  0  0  0  0  0  0  0
   48.7720   32.4810   35.9890 N   0  0  0  0  0  0  0  0  0  0  0  0
   48.2830   32.8020   37.2020 C   0  0  0  0  0  0  0  0  0  0  0  0
   48.9760   32.9460   38.3840 C   0  0  0  0  0  3  0  0  0  0  0  0
   45.6040   32.8440   35.5380 H   0  0  0  0  0  0  0  0  0  0  0  0
   44.6080   36.2070   44.3650 C   0  0  0  0  0  0  0  0  0  0  0  0
   45.3050   35.9700   43.1610 C   0  0  0  0  0  0  0  0  0  0  0  0
   46.0440   34.7890   43.0470 C   0  0  0  0  0  0  0  0  0  0  0  0
   46.0710   33.9200   44.0770 N   0  0  0  0  0  0  0  0  0  0  0  0
   45.3830   34.1790   45.2340 C   0  0  0  0  0  0  0  0  0  0  0  0
   44.6690   35.3110   45.3540 N   0  0  0  0  0  0  0  0  0  0  0  0
   44.0260   37.1100   44.4870 H   0  0  0  0  0  0  0  0  0  0  0  0
   45.2470   36.7060   42.3640 H   0  0  0  0  0  0  0  0  0  0  0  0
   45.4740   33.4150   45.9920 H   0  0  0  0  0  0  0  0  0  0  0  0
  1  2  2  0  0  0  0
  1  3  1  0  0  0  0
  3 19  1  0  0  0  0
  4  3  1  0  0  0  0
  5  6  1  0  0  0  0
  6  1  1  0  0  0  0
  7  6  2  0  0  0  0
  8  7  1  0  0  0  0
  9 14  2  0  0  0  0
  9  7  1  0  0  0  0
 10  9  1  0  0  0  0
 11 10  1  0  0  0  0
 11 13  2  0  0  0  0
 12 11  1  0  0  0  0
 13 14  1  0  0  0  0
 14 15  1  0  0  0  0
 15  5  2  0  0  0  0
 16 10  1  0  0  0  0
 17 23  1  0  0  0  0
 17 22  1  0  0  0  0
 18 17  2  0  0  0  0
 19 18  1  0  0  0  0
 19 20  2  0  0  0  0
 20 21  1  0  0  0  0
 21 22  2  0  0  0  0
 21 25  1  0  0  0  0
 24 18  1  0  0  0  0
M  END
>  <minimizedAffinity>
-4.69821692

>  <minimizedRMSD>
0.690101922

$$$$
