
 OpenBabel03252505403D

 31 34  0  0  1  0  0  0  0  0999 V2000
   45.2010   33.8870   43.7370 C   0  0  1  0  0  0  0  0  0  0  0  0
   46.0730   35.0380   43.1810 C   0  0  0  0  0  0  0  0  0  0  0  0
   45.4210   34.0250   42.2970 C   0  0  2  0  0  0  0  0  0  0  0  0
   44.3350   34.3230   44.3030 H   0  0  0  0  0  0  0  0  0  0  0  0
   45.6410   36.0470   43.1400 H   0  0  0  0  0  0  0  0  0  0  0  0
   47.1490   34.9660   43.3540 H   0  0  0  0  0  0  0  0  0  0  0  0
   46.0930   33.3240   41.8020 H   0  0  0  0  0  0  0  0  0  0  0  0
   44.0800   33.9500   40.2240 C   0  0  0  0  0  3  0  0  0  0  0  0
   44.2180   34.4000   41.5080 C   0  0  0  0  0  0  0  0  0  0  0  0
   43.2100   35.1930   42.0070 C   0  0  0  0  0  0  0  0  0  0  0  0
   43.2910   35.5640   43.0210 H   0  0  0  0  0  0  0  0  0  0  0  0
   42.0970   35.5400   41.2790 C   0  0  0  0  0  0  0  0  0  0  0  0
   40.9790   36.2880   41.5140 N   0  0  0  0  0  0  0  0  0  0  0  0
   40.1950   36.2970   40.4280 C   0  0  0  0  0  0  0  0  0  0  0  0
   39.2320   36.8030   40.2950 H   0  0  0  0  0  0  0  0  0  0  0  0
   40.8130   35.5510   39.4940 N   0  0  0  0  0  0  0  0  0  0  0  0
   41.9810   35.0690   39.9740 C   0  0  0  0  0  0  0  0  0  0  0  0
   42.9860   34.2610   39.4370 C   0  0  0  0  0  3  0  0  0  0  0  0
   40.7710   36.7820   42.4170 H   0  0  0  0  0  0  0  0  0  0  0  0
   45.9680   32.8940   44.5500 C   0  0  0  0  0  0  0  0  0  0  0  0
   46.6290   31.8270   43.8880 C   0  0  0  0  0  0  0  0  0  0  0  0
   47.3460   30.9280   44.6710 C   0  0  0  0  0  0  0  0  0  0  0  0
   47.3740   31.1220   46.0140 N   0  0  0  0  0  0  0  0  0  0  0  0
   46.7270   32.1560   46.6050 C   0  0  0  0  0  0  0  0  0  0  0  0
   46.0210   33.0430   45.8590 N   0  0  0  0  0  0  0  0  0  0  0  0
   46.5820   31.7110   42.8140 H   0  0  0  0  0  0  0  0  0  0  0  0
   47.8750   30.0920   44.2460 H   0  0  0  0  0  0  0  0  0  0  0  0
   46.8950   32.1940   48.0950 C   0  0  0  0  0  0  0  0  0  0  0  0
   45.8510   32.8400   48.7100 F   0  0  0  0  0  0  0  0  0  0  0  0
   48.0800   32.8610   48.4180 F   0  0  0  0  0  0  0  0  0  0  0  0
   47.0630   30.8940   48.5580 F   0  0  0  0  0  0  0  0  0  0  0  0
  1  4  1  1  0  0  0
  1 20  1  0  0  0  0
  2  6  1  0  0  0  0
  2  1  1  0  0  0  0
  3  7  1  6  0  0  0
  3  2  1  0  0  0  0
  3  1  1  0  0  0  0
  5  2  1  0  0  0  0
  8  9  1  0  0  0  0
  9 10  2  0  0  0  0
  9  3  1  0  0  0  0
 10 11  1  0  0  0  0
 12 13  1  0  0  0  0
 12 10  1  0  0  0  0
 13 19  1  0  0  0  0
 14 13  1  0  0  0  0
 15 14  1  0  0  0  0
 16 17  1  0  0  0  0
 16 14  2  0  0  0  0
 17 12  2  0  0  0  0
 18 17  1  0  0  0  0
 18  8  2  0  0  0  0
 20 25  1  0  0  0  0
 21 20  2  0  0  0  0
 21 22  1  0  0  0  0
 22 23  2  0  0  0  0
 23 24  1  0  0  0  0
 24 28  1  0  0  0  0
 25 24  2  0  0  0  0
 26 21  1  0  0  0  0
 27 22  1  0  0  0  0
 28 30  1  0  0  0  0
 28 31  1  0  0  0  0
 28 29  1  0  0  0  0
M  END
>  <minimizedAffinity>
-5.92510462

>  <minimizedRMSD>
1.75150621

$$$$
