
 OpenBabel03252509043D

 51 54  0  0  1  0  0  0  0  0999 V2000
   47.0540   34.3500   43.2390 N   0  0  0  0  0  0  0  0  0  0  0  0
   46.7030   34.8980   41.9860 C   0  0  0  0  0  0  0  0  0  0  0  0
   45.2630   34.6490   41.5750 C   0  0  0  0  0  0  0  0  0  0  0  0
   44.2910   34.6780   42.7240 C   0  0  0  0  0  0  0  0  0  0  0  0
   44.9770   34.9890   44.0340 C   0  0  0  0  0  0  0  0  0  0  0  0
   46.1130   33.8970   44.1290 C   0  0  2  0  0  0  0  0  0  0  0  0
   47.3180   34.5980   41.1310 H   0  0  0  0  0  0  0  0  0  0  0  0
   46.8130   36.0170   42.0420 H   0  0  0  0  0  0  0  0  0  0  0  0
   45.1580   33.6700   41.0420 H   0  0  0  0  0  0  0  0  0  0  0  0
   44.9540   35.4160   40.8320 H   0  0  0  0  0  0  0  0  0  0  0  0
   43.4990   35.4700   42.5800 H   0  0  0  0  0  0  0  0  0  0  0  0
   43.7330   33.7290   42.8470 H   0  0  0  0  0  0  0  0  0  0  0  0
   45.4230   35.9910   44.0610 H   0  0  0  0  0  0  0  0  0  0  0  0
   44.2970   34.7550   44.8680 H   0  0  0  0  0  0  0  0  0  0  0  0
   45.6170   32.9320   43.9170 H   0  0  0  0  0  0  0  0  0  0  0  0
   48.3840   33.7920   43.2890 C   0  0  0  0  0  0  0  0  0  0  0  0
   48.9870   34.3660   42.5540 H   0  0  0  0  0  0  0  0  0  0  0  0
   48.9010   33.9500   44.2650 H   0  0  0  0  0  0  0  0  0  0  0  0
   48.2940   32.3610   42.8660 C   0  0  0  0  0  0  0  0  0  0  0  0
   48.4760   31.6880   43.7030 H   0  0  0  0  0  0  0  0  0  0  0  0
   47.2820   32.1090   42.4540 H   0  0  0  0  0  0  0  0  0  0  0  0
   51.5440   31.8940   41.0410 C   0  0  0  0  0  0  0  0  0  0  0  0
   50.6100   32.1290   42.0680 C   0  0  0  0  0  0  0  0  0  0  0  0
   49.2690   32.1120   41.7730 C   0  0  0  0  0  0  0  0  0  0  0  0
   48.9160   31.8690   40.5080 N   0  0  0  0  0  0  0  0  0  0  0  0
   49.8070   31.6450   39.5330 C   0  0  0  0  0  0  0  0  0  0  0  0
   51.1210   31.6530   39.7750 N   0  0  0  0  0  0  0  0  0  0  0  0
   52.6040   31.9050   41.2580 H   0  0  0  0  0  0  0  0  0  0  0  0
   50.9930   32.3180   43.0630 H   0  0  0  0  0  0  0  0  0  0  0  0
   49.3490   31.4650   38.5670 H   0  0  0  0  0  0  0  0  0  0  0  0
   46.5000   34.0330   45.4490 O   0  0  0  0  0  0  0  0  0  0  0  0
   45.8310   31.4530   45.4560 O   0  0  0  0  0  0  0  0  0  0  0  0
   46.2480   32.6240   46.3420 P   0  0  2  0  0  0  0  0  0  0  0  0
   44.8720   32.9420   47.3190 O   0  0  0  0  0  0  0  0  0  0  0  0
   44.3110   32.1530   47.4110 H   0  0  0  0  0  0  0  0  0  0  0  0
   47.5010   32.2430   47.3560 O   0  0  0  0  0  0  0  0  0  0  0  0
   47.7620   30.8850   47.2680 C   0  0  0  0  0  0  0  0  0  0  0  0
   46.8050   30.3560   47.4010 H   0  0  0  0  0  0  0  0  0  0  0  0
   48.2580   30.5850   46.3420 H   0  0  0  0  0  0  0  0  0  0  0  0
   49.1350   31.5160   49.2950 C   0  0  0  0  0  3  0  0  0  0  0  0
   48.6800   30.5550   48.4140 C   0  0  0  0  0  0  0  0  0  0  0  0
   49.0580   29.2190   48.5520 C   0  0  0  0  0  0  0  0  0  0  0  0
   48.6940   28.4590   47.8490 H   0  0  0  0  0  0  0  0  0  0  0  0
   49.8960   28.8550   49.5790 C   0  0  0  0  0  0  0  0  0  0  0  0
   50.3730   27.6290   49.8820 N   0  0  0  0  0  0  0  0  0  0  0  0
   51.1540   27.7690   50.9740 C   0  0  0  0  0  0  0  0  0  0  0  0
   51.6910   26.9850   51.4790 H   0  0  0  0  0  0  0  0  0  0  0  0
   51.1460   29.0880   51.3290 N   0  0  0  0  0  0  0  0  0  0  0  0
   50.3730   29.7860   50.4820 C   0  0  0  0  0  0  0  0  0  0  0  0
   49.9860   31.1090   50.3280 C   0  0  0  0  0  3  0  0  0  0  0  0
   50.2260   26.6930   49.4230 H   0  0  0  0  0  0  0  0  0  0  0  0
  1 16  1  0  0  0  0
  1  6  1  0  0  0  0
  2  8  1  0  0  0  0
  2  1  1  0  0  0  0
  3  2  1  0  0  0  0
  3  4  1  0  0  0  0
  4 12  1  0  0  0  0
  4  5  1  0  0  0  0
  5 13  1  0  0  0  0
  5  6  1  0  0  0  0
  5 14  1  0  0  0  0
  6 15  1  6  0  0  0
  6 31  1  0  0  0  0
  7  2  1  0  0  0  0
  9  3  1  0  0  0  0
 10  3  1  0  0  0  0
 11  4  1  0  0  0  0
 16 18  1  0  0  0  0
 17 16  1  0  0  0  0
 19 16  1  0  0  0  0
 19 20  1  0  0  0  0
 21 19  1  0  0  0  0
 22 28  1  0  0  0  0
 22 23  1  0  0  0  0
 23 29  1  0  0  0  0
 24 23  2  0  0  0  0
 24 19  1  0  0  0  0
 25 24  1  0  0  0  0
 26 27  1  0  0  0  0
 26 25  2  0  0  0  0
 27 22  2  0  0  0  0
 30 26  1  0  0  0  0
 31 33  1  0  0  0  0
 33 32  2  6  0  0  0
 33 34  1  0  0  0  0
 33 36  1  0  0  0  0
 34 35  1  0  0  0  0
 37 36  1  0  0  0  0
 37 38  1  0  0  0  0
 37 41  1  0  0  0  0
 39 37  1  0  0  0  0
 40 50  1  0  0  0  0
 41 42  1  0  0  0  0
 41 40  2  0  0  0  0
 42 44  2  0  0  0  0
 43 42  1  0  0  0  0
 44 45  1  0  0  0  0
 44 49  1  0  0  0  0
 45 46  1  0  0  0  0
 46 48  2  0  0  0  0
 46 47  1  0  0  0  0
 49 48  1  0  0  0  0
 50 49  2  0  0  0  0
 51 45  1  0  0  0  0
M  END
>  <minimizedAffinity>
-5.43304157

>  <minimizedRMSD>
3.2148037

$$$$
