
 OpenBabel03252506373D

 47 51  0  0  1  0  0  0  0  0999 V2000
   46.6140   30.0220   46.5030 S   0  0  0  0  0  0  0  0  0  0  0  0
   44.5140   35.5290   45.1390 C   0  0  0  0  0  0  0  0  0  0  0  0
   45.1580   35.5240   43.8840 C   0  0  0  0  0  0  0  0  0  0  0  0
   46.0680   34.5610   43.6120 C   0  0  0  0  0  0  0  0  0  0  0  0
   46.3070   33.6430   44.5810 N   0  0  0  0  0  0  0  0  0  0  0  0
   45.7000   33.6510   45.7580 C   0  0  0  0  0  0  0  0  0  0  0  0
   44.7980   34.5880   46.0570 N   0  0  0  0  0  0  0  0  0  0  0  0
   46.0330   32.6280   46.7130 N   0  0  0  0  0  0  0  0  0  0  0  0
   45.3050   32.3780   47.9030 C   0  0  0  0  0  0  0  0  0  0  0  0
   46.3850   32.0140   48.9040 C   0  0  0  0  0  0  0  0  0  0  0  0
   47.6600   31.9050   48.1210 C   0  0  0  0  0  0  0  0  0  0  0  0
   47.1440   31.7090   46.6960 C   0  0  1  0  0  0  0  0  0  0  0  0
   43.7920   36.3100   45.3340 H   0  0  0  0  0  0  0  0  0  0  0  0
   46.5650   34.5390   42.6720 H   0  0  0  0  0  0  0  0  0  0  0  0
   44.5010   31.7280   48.0070 H   0  0  0  0  0  0  0  0  0  0  0  0
   44.9430   33.3890   48.2730 H   0  0  0  0  0  0  0  0  0  0  0  0
   46.5110   32.7220   49.7210 H   0  0  0  0  0  0  0  0  0  0  0  0
   46.1380   31.0280   49.3880 H   0  0  0  0  0  0  0  0  0  0  0  0
   48.2310   30.9950   48.4200 H   0  0  0  0  0  0  0  0  0  0  0  0
   48.2580   32.8170   48.2340 H   0  0  0  0  0  0  0  0  0  0  0  0
   47.9750   32.0050   46.0330 H   0  0  0  0  0  0  0  0  0  0  0  0
   44.7960   36.5670   42.9620 N   0  0  0  0  0  0  0  0  0  0  0  0
   45.5820   36.8560   42.3480 H   0  0  0  0  0  0  0  0  0  0  0  0
   43.8600   37.0010   42.8980 H   0  0  0  0  0  0  0  0  0  0  0  0
   45.5360   30.5390   43.3910 O   0  0  0  0  0  0  0  0  0  0  0  0
   44.9220   29.9980   44.3240 C   0  0  0  0  0  0  0  0  0  0  0  0
   45.0470   29.7590   45.7810 C   0  0  1  0  0  0  0  0  0  0  0  0
   44.4960   28.3610   45.9190 C   0  0  0  0  0  0  0  0  0  0  0  0
   43.1700   28.5890   45.1850 C   0  0  0  0  0  0  0  0  0  0  0  0
   43.6620   29.3560   44.0480 N   0  0  0  0  0  0  0  0  0  0  0  0
   44.1770   30.3680   46.1530 H   0  0  0  0  0  0  0  0  0  0  0  0
   45.0530   27.6240   45.3100 H   0  0  0  0  0  0  0  0  0  0  0  0
   44.3100   28.0630   46.9560 H   0  0  0  0  0  0  0  0  0  0  0  0
   42.8030   27.6050   44.8600 H   0  0  0  0  0  0  0  0  0  0  0  0
   42.4530   29.1570   45.7990 H   0  0  0  0  0  0  0  0  0  0  0  0
   42.1480   30.5430   42.6760 C   0  0  0  0  0  3  0  0  0  0  0  0
   42.8410   29.3570   42.8580 C   0  0  0  0  0  0  0  0  0  0  0  0
   42.7210   28.3280   41.9680 C   0  0  0  0  0  0  0  0  0  0  0  0
   43.2950   27.4370   42.1840 H   0  0  0  0  0  0  0  0  0  0  0  0
   41.8940   28.4650   40.8640 C   0  0  0  0  0  0  0  0  0  0  0  0
   41.6140   27.6110   39.8630 N   0  0  0  0  0  0  0  0  0  0  0  0
   40.7370   28.2610   39.0420 C   0  0  0  0  0  0  0  0  0  0  0  0
   40.2890   27.8710   38.1200 H   0  0  0  0  0  0  0  0  0  0  0  0
   40.4680   29.4880   39.5040 N   0  0  0  0  0  0  0  0  0  0  0  0
   41.1740   29.6410   40.6350 C   0  0  0  0  0  0  0  0  0  0  0  0
   41.3280   30.6670   41.5710 C   0  0  0  0  0  3  0  0  0  0  0  0
   41.9870   26.6420   39.7330 H   0  0  0  0  0  0  0  0  0  0  0  0
  1 12  1  0  0  0  0
  2 13  1  0  0  0  0
  2  7  1  0  0  0  0
  3  2  2  0  0  0  0
  4  3  1  0  0  0  0
  4  5  2  0  0  0  0
  5  6  1  0  0  0  0
  6  7  2  0  0  0  0
  6  8  1  0  0  0  0
  8  9  1  0  0  0  0
  9 15  1  0  0  0  0
  9 16  1  0  0  0  0
  9 10  1  0  0  0  0
 10 18  1  0  0  0  0
 10 17  1  0  0  0  0
 11 20  1  0  0  0  0
 11 19  1  0  0  0  0
 11 10  1  0  0  0  0
 12 21  1  6  0  0  0
 12  8  1  0  0  0  0
 12 11  1  0  0  0  0
 14  4  1  0  0  0  0
 22  3  1  0  0  0  0
 23 22  1  0  0  0  0
 24 22  1  0  0  0  0
 25 26  2  0  0  0  0
 26 27  1  0  0  0  0
 27 28  1  0  0  0  0
 27 31  1  1  0  0  0
 27  1  1  0  0  0  0
 28 33  1  0  0  0  0
 29 35  1  0  0  0  0
 29 28  1  0  0  0  0
 30 26  1  0  0  0  0
 30 29  1  0  0  0  0
 32 28  1  0  0  0  0
 34 29  1  0  0  0  0
 36 37  1  0  0  0  0
 37 30  1  0  0  0  0
 38 39  1  0  0  0  0
 38 37  2  0  0  0  0
 40 38  1  0  0  0  0
 41 40  1  0  0  0  0
 42 44  2  0  0  0  0
 42 41  1  0  0  0  0
 43 42  1  0  0  0  0
 44 45  1  0  0  0  0
 45 40  2  0  0  0  0
 45 46  1  0  0  0  0
 46 36  2  0  0  0  0
 47 41  1  0  0  0  0
M  END
>  <minimizedAffinity>
-5.48322678

>  <minimizedRMSD>
0.212210968

$$$$
