
 OpenBabel03252509003D

 48 51  0  0  1  0  0  0  0  0999 V2000
   46.6830   34.5810   43.4520 N   0  0  0  0  0  0  0  0  0  0  0  0
   46.1500   35.5860   42.6050 C   0  0  0  0  0  0  0  0  0  0  0  0
   44.6490   35.7190   42.6200 C   0  0  0  0  0  0  0  0  0  0  0  0
   44.0060   35.3960   43.9440 C   0  0  0  0  0  0  0  0  0  0  0  0
   45.0380   35.1100   45.0090 C   0  0  0  0  0  0  0  0  0  0  0  0
   45.8820   33.9390   44.3850 C   0  0  2  0  0  0  0  0  0  0  0  0
   46.4660   35.5550   41.5600 H   0  0  0  0  0  0  0  0  0  0  0  0
   46.5400   36.5680   43.0070 H   0  0  0  0  0  0  0  0  0  0  0  0
   44.3980   36.7710   42.3020 H   0  0  0  0  0  0  0  0  0  0  0  0
   44.2270   35.0580   41.8260 H   0  0  0  0  0  0  0  0  0  0  0  0
   43.4120   36.2660   44.2950 H   0  0  0  0  0  0  0  0  0  0  0  0
   43.3460   34.5240   43.8550 H   0  0  0  0  0  0  0  0  0  0  0  0
   44.5470   34.7070   45.9020 H   0  0  0  0  0  0  0  0  0  0  0  0
   45.7160   35.9440   45.1930 H   0  0  0  0  0  0  0  0  0  0  0  0
   45.1500   33.1820   44.0170 H   0  0  0  0  0  0  0  0  0  0  0  0
   47.7970   33.8730   42.8940 C   0  0  0  0  0  0  0  0  0  0  0  0
   48.3690   33.3830   43.7220 H   0  0  0  0  0  0  0  0  0  0  0  0
   48.4680   34.5670   42.3840 H   0  0  0  0  0  0  0  0  0  0  0  0
   47.2790   32.7620   42.0290 C   0  0  0  0  0  0  0  0  0  0  0  0
   46.1740   32.8300   41.9280 H   0  0  0  0  0  0  0  0  0  0  0  0
   47.5050   31.7470   42.4040 H   0  0  0  0  0  0  0  0  0  0  0  0
   49.1120   32.0450   38.8310 C   0  0  0  0  0  0  0  0  0  0  0  0
   48.5910   31.9130   40.1310 C   0  0  0  0  0  0  0  0  0  0  0  0
   47.8200   32.9200   40.6550 C   0  0  0  0  0  0  0  0  0  0  0  0
   47.5990   33.9960   39.8890 N   0  0  0  0  0  0  0  0  0  0  0  0
   48.0960   34.1250   38.6480 C   0  0  0  0  0  0  0  0  0  0  0  0
   48.8530   33.1580   38.1060 N   0  0  0  0  0  0  0  0  0  0  0  0
   49.7230   31.2840   38.3710 H   0  0  0  0  0  0  0  0  0  0  0  0
   48.8080   31.0290   40.6830 H   0  0  0  0  0  0  0  0  0  0  0  0
   47.8490   35.0420   38.1240 H   0  0  0  0  0  0  0  0  0  0  0  0
   46.6160   33.5130   45.4850 O   0  0  0  0  0  0  0  0  0  0  0  0
   45.6480   31.1440   44.7890 O   0  0  0  0  0  0  0  0  0  0  0  0
   46.2490   31.9310   45.9370 P   0  0  2  0  0  0  0  0  0  0  0  0
   44.9980   32.0520   47.1010 O   0  0  0  0  0  0  0  0  0  0  0  0
   45.3900   32.0000   48.0080 H   0  0  0  0  0  0  0  0  0  0  0  0
   47.5550   31.1820   46.6490 O   0  0  0  0  0  0  0  0  0  0  0  0
   48.9710   29.3000   46.8210 C   0  0  0  0  0  3  0  0  0  0  0  0
   47.6940   29.8580   46.9580 C   0  0  0  0  0  0  0  0  0  0  0  0
   46.6680   29.0410   47.3900 C   0  0  0  0  0  0  0  0  0  0  0  0
   45.6690   29.4670   47.4990 H   0  0  0  0  0  0  0  0  0  0  0  0
   46.9290   27.6970   47.6770 C   0  0  0  0  0  0  0  0  0  0  0  0
   46.0940   26.7150   48.1110 N   0  0  0  0  0  0  0  0  0  0  0  0
   46.7810   25.5630   48.2560 C   0  0  0  0  0  0  0  0  0  0  0  0
   46.3470   24.6280   48.5890 H   0  0  0  0  0  0  0  0  0  0  0  0
   48.0590   25.8330   47.9080 N   0  0  0  0  0  0  0  0  0  0  0  0
   48.1820   27.1350   47.5470 C   0  0  0  0  0  0  0  0  0  0  0  0
   49.1990   27.9620   47.1140 C   0  0  0  0  0  3  0  0  0  0  0  0
   45.0800   26.8720   48.2910 H   0  0  0  0  0  0  0  0  0  0  0  0
  1  6  1  0  0  0  0
  2  3  1  0  0  0  0
  2  8  1  0  0  0  0
  2  1  1  0  0  0  0
  3  4  1  0  0  0  0
  4 11  1  0  0  0  0
  4  5  1  0  0  0  0
  5 14  1  0  0  0  0
  5 13  1  0  0  0  0
  6 15  1  6  0  0  0
  6  5  1  0  0  0  0
  6 31  1  0  0  0  0
  7  2  1  0  0  0  0
  9  3  1  0  0  0  0
 10  3  1  0  0  0  0
 12  4  1  0  0  0  0
 16  1  1  0  0  0  0
 16 17  1  0  0  0  0
 18 16  1  0  0  0  0
 19 21  1  0  0  0  0
 19 16  1  0  0  0  0
 20 19  1  0  0  0  0
 22 23  1  0  0  0  0
 23 24  2  0  0  0  0
 23 29  1  0  0  0  0
 24 19  1  0  0  0  0
 25 24  1  0  0  0  0
 26 25  2  0  0  0  0
 27 26  1  0  0  0  0
 27 22  2  0  0  0  0
 28 22  1  0  0  0  0
 30 26  1  0  0  0  0
 31 33  1  0  0  0  0
 33 32  2  6  0  0  0
 33 36  1  0  0  0  0
 33 34  1  0  0  0  0
 34 35  1  0  0  0  0
 36 38  1  0  0  0  0
 37 38  2  0  0  0  0
 37 47  1  0  0  0  0
 38 39  1  0  0  0  0
 39 40  1  0  0  0  0
 39 41  2  0  0  0  0
 41 42  1  0  0  0  0
 42 43  1  0  0  0  0
 42 48  1  0  0  0  0
 43 44  1  0  0  0  0
 45 43  2  0  0  0  0
 46 41  1  0  0  0  0
 46 45  1  0  0  0  0
 47 46  2  0  0  0  0
M  END
>  <minimizedAffinity>
-4.7017374

>  <minimizedRMSD>
1.27224302

$$$$
