
 OpenBabel03252506373D

 47 51  0  0  1  0  0  0  0  0999 V2000
   46.6290   30.0410   46.5000 S   0  0  0  0  0  0  0  0  0  0  0  0
   44.5060   35.5390   45.1300 C   0  0  0  0  0  0  0  0  0  0  0  0
   45.1560   35.5390   43.8790 C   0  0  0  0  0  0  0  0  0  0  0  0
   46.0730   34.5810   43.6100 C   0  0  0  0  0  0  0  0  0  0  0  0
   46.3110   33.6630   44.5790 N   0  0  0  0  0  0  0  0  0  0  0  0
   45.6980   33.6660   45.7540 C   0  0  0  0  0  0  0  0  0  0  0  0
   44.7900   34.5980   46.0490 N   0  0  0  0  0  0  0  0  0  0  0  0
   46.0330   32.6450   46.7090 N   0  0  0  0  0  0  0  0  0  0  0  0
   45.3000   32.3890   47.8950 C   0  0  0  0  0  0  0  0  0  0  0  0
   46.3770   32.0300   48.9010 C   0  0  0  0  0  0  0  0  0  0  0  0
   47.6560   31.9290   48.1240 C   0  0  0  0  0  0  0  0  0  0  0  0
   47.1480   31.7310   46.6970 C   0  0  1  0  0  0  0  0  0  0  0  0
   43.7790   36.3150   45.3230 H   0  0  0  0  0  0  0  0  0  0  0  0
   46.5740   34.5620   42.6720 H   0  0  0  0  0  0  0  0  0  0  0  0
   44.4990   31.7350   47.9940 H   0  0  0  0  0  0  0  0  0  0  0  0
   44.9300   33.3980   48.2650 H   0  0  0  0  0  0  0  0  0  0  0  0
   46.4950   32.7380   49.7200 H   0  0  0  0  0  0  0  0  0  0  0  0
   46.1330   31.0420   49.3830 H   0  0  0  0  0  0  0  0  0  0  0  0
   48.2310   31.0210   48.4250 H   0  0  0  0  0  0  0  0  0  0  0  0
   48.2490   32.8440   48.2410 H   0  0  0  0  0  0  0  0  0  0  0  0
   47.9810   32.0320   46.0380 H   0  0  0  0  0  0  0  0  0  0  0  0
   44.7930   36.5800   42.9560 N   0  0  0  0  0  0  0  0  0  0  0  0
   45.5800   36.8740   42.3460 H   0  0  0  0  0  0  0  0  0  0  0  0
   43.8550   37.0090   42.8870 H   0  0  0  0  0  0  0  0  0  0  0  0
   45.6130   30.5750   43.3690 O   0  0  0  0  0  0  0  0  0  0  0  0
   44.9830   30.0210   44.2840 C   0  0  0  0  0  0  0  0  0  0  0  0
   45.0800   29.7700   45.7420 C   0  0  1  0  0  0  0  0  0  0  0  0
   44.5400   28.3660   45.8560 C   0  0  0  0  0  0  0  0  0  0  0  0
   43.2270   28.5870   45.0960 C   0  0  0  0  0  0  0  0  0  0  0  0
   43.7360   29.3690   43.9760 N   0  0  0  0  0  0  0  0  0  0  0  0
   44.1960   30.3680   46.1000 H   0  0  0  0  0  0  0  0  0  0  0  0
   45.1170   27.6390   45.2540 H   0  0  0  0  0  0  0  0  0  0  0  0
   44.3350   28.0570   46.8870 H   0  0  0  0  0  0  0  0  0  0  0  0
   42.8770   27.6030   44.7550 H   0  0  0  0  0  0  0  0  0  0  0  0
   42.4920   29.1440   45.6990 H   0  0  0  0  0  0  0  0  0  0  0  0
   42.1490   30.5030   42.6430 C   0  0  0  0  0  3  0  0  0  0  0  0
   42.9410   29.3720   42.7690 C   0  0  0  0  0  0  0  0  0  0  0  0
   42.9290   28.3940   41.8170 C   0  0  0  0  0  0  0  0  0  0  0  0
   43.5750   27.5450   41.9920 H   0  0  0  0  0  0  0  0  0  0  0  0
   42.1150   28.5260   40.7030 C   0  0  0  0  0  0  0  0  0  0  0  0
   41.9290   27.7150   39.6460 N   0  0  0  0  0  0  0  0  0  0  0  0
   41.0140   28.3360   38.8440 C   0  0  0  0  0  0  0  0  0  0  0  0
   40.6190   27.9670   37.8900 H   0  0  0  0  0  0  0  0  0  0  0  0
   40.6290   29.5040   39.3730 N   0  0  0  0  0  0  0  0  0  0  0  0
   41.2960   29.6480   40.5280 C   0  0  0  0  0  0  0  0  0  0  0  0
   41.3410   30.6230   41.5280 C   0  0  0  0  0  3  0  0  0  0  0  0
   42.3890   26.7930   39.4660 H   0  0  0  0  0  0  0  0  0  0  0  0
  1 12  1  0  0  0  0
  2 13  1  0  0  0  0
  2  7  1  0  0  0  0
  3  2  2  0  0  0  0
  4  3  1  0  0  0  0
  4  5  2  0  0  0  0
  5  6  1  0  0  0  0
  6  7  2  0  0  0  0
  6  8  1  0  0  0  0
  8  9  1  0  0  0  0
  9 15  1  0  0  0  0
  9 16  1  0  0  0  0
  9 10  1  0  0  0  0
 10 18  1  0  0  0  0
 10 17  1  0  0  0  0
 11 20  1  0  0  0  0
 11 19  1  0  0  0  0
 11 10  1  0  0  0  0
 12 21  1  6  0  0  0
 12  8  1  0  0  0  0
 12 11  1  0  0  0  0
 14  4  1  0  0  0  0
 22  3  1  0  0  0  0
 23 22  1  0  0  0  0
 24 22  1  0  0  0  0
 25 26  2  0  0  0  0
 26 27  1  0  0  0  0
 27 28  1  0  0  0  0
 27 31  1  1  0  0  0
 27  1  1  0  0  0  0
 28 33  1  0  0  0  0
 29 35  1  0  0  0  0
 29 28  1  0  0  0  0
 30 26  1  0  0  0  0
 30 29  1  0  0  0  0
 32 28  1  0  0  0  0
 34 29  1  0  0  0  0
 36 37  1  0  0  0  0
 37 30  1  0  0  0  0
 38 39  1  0  0  0  0
 38 37  2  0  0  0  0
 40 38  1  0  0  0  0
 41 40  1  0  0  0  0
 42 44  2  0  0  0  0
 42 41  1  0  0  0  0
 43 42  1  0  0  0  0
 44 45  1  0  0  0  0
 45 40  2  0  0  0  0
 45 46  1  0  0  0  0
 46 36  2  0  0  0  0
 47 41  1  0  0  0  0
M  END
>  <minimizedAffinity>
-5.45880795

>  <minimizedRMSD>
0.429648697

$$$$
