
     RDKit          3D

 31 34  0  0  0  0  0  0  0  0999 V2000
   44.4962   35.8196   44.7099 C   0  0  0  0  0  0  0  0  0  0  0  0
   45.1668   35.7416   43.4852 C   0  0  0  0  0  0  0  0  0  0  0  0
   46.1249   34.7382   43.2820 C   0  0  0  0  0  0  0  0  0  0  0  0
   46.3580   33.8716   44.3121 N   0  0  0  0  0  0  0  0  0  0  0  0
   45.6960   33.9670   45.4892 C   0  0  0  0  0  0  0  0  0  0  0  0
   44.7765   34.9316   45.6814 N   0  0  0  0  0  0  0  0  0  0  0  0
   45.9826   33.0167   46.5559 C   0  0  0  0  0  0  0  0  0  0  0  0
   47.0406   32.1644   46.5119 C   0  0  0  0  0  0  0  0  0  0  0  0
   47.3230   31.2660   47.5060 C   0  0  0  0  0  0  0  0  0  0  0  0
   46.4706   31.2580   48.5829 N   0  0  0  0  0  0  0  0  0  0  0  0
   45.4341   32.0991   48.6167 C   0  0  0  0  0  0  0  0  0  0  0  0
   45.1467   32.9910   47.6387 N   0  0  0  0  0  0  0  0  0  0  0  0
   43.7463   36.5636   44.9408 H   0  0  0  0  0  0  0  0  0  0  0  0
   44.9069   36.4811   42.7300 H   0  0  0  0  0  0  0  0  0  0  0  0
   46.6325   34.6854   42.3441 H   0  0  0  0  0  0  0  0  0  0  0  0
   47.7254   32.1547   45.6711 H   0  0  0  0  0  0  0  0  0  0  0  0
   48.1458   30.5828   47.5024 H   0  0  0  0  0  0  0  0  0  0  0  0
   43.1734   32.0845   49.6534 C   0  0  0  0  0  0  0  0  0  0  0  0
   44.5481   32.0644   49.7755 C   0  0  0  0  0  0  0  0  0  0  0  0
   45.0381   32.0094   51.0621 C   0  0  0  0  0  0  0  0  0  0  0  0
   46.0900   31.9898   51.2633 H   0  0  0  0  0  0  0  0  0  0  0  0
   44.1970   31.9761   52.1685 C   0  0  0  0  0  0  0  0  0  0  0  0
   44.3446   31.9229   53.5058 N   0  0  0  0  0  0  0  0  0  0  0  0
   43.1195   31.9136   54.1034 C   0  0  0  0  0  0  0  0  0  0  0  0
   42.9065   31.8746   55.1737 H   0  0  0  0  0  0  0  0  0  0  0  0
   42.1574   31.9616   53.1397 N   0  0  0  0  0  0  0  0  0  0  0  0
   42.8158   31.9992   51.9721 C   0  0  0  0  0  0  0  0  0  0  0  0
   42.2790   32.0540   50.7051 C   0  0  0  0  0  0  0  0  0  0  0  0
   42.7581   32.1285   48.6355 H   0  0  0  0  0  0  0  0  0  0  0  0
   45.2706   31.8936   53.9954 H   0  0  0  0  0  0  0  0  0  0  0  0
   41.2118   32.0745   50.4842 H   0  0  0  0  0  0  0  0  0  0  0  0
  1  6  2  0
  2  1  1  0
  3  2  2  0
  3  4  1  0
  4  5  2  0
  5  6  1  0
  5  7  1  0
  7 12  1  0
  8  7  2  0
  8  9  1  0
  9 10  2  0
 10 11  1  0
 12 11  2  0
  1 13  1  0
  2 14  1  0
  3 15  1  0
  8 16  1  0
  9 17  1  0
 18 19  2  0
 19 20  1  0
 20 21  1  0
 20 22  2  0
 22 23  1  0
 23 24  1  0
 24 25  1  0
 24 26  2  0
 26 27  1  0
 27 28  2  0
 28 18  1  0
 27 22  1  0
 18 29  1  0
 23 30  1  0
 28 31  1  0
 11 19  1  0
M  ISO  7  13  14  14  14  15  14  16  14  17  14  21  15  25  14
M  END
>  <DihAtoms>  (1) 
9,10,18,17

>  <DihDeg>  (1) 
-179.99718926211378

$$$$
