
 OpenBabel03242521473D

 50 54  0  0  1  0  0  0  0  0999 V2000
   41.0230   36.7190   41.5670 C   0  0  0  0  0  0  0  0  0  0  0  0
   41.2750   37.1540   40.5950 H   0  0  0  0  0  0  0  0  0  0  0  0
   40.3900   37.3690   42.2040 H   0  0  0  0  0  0  0  0  0  0  0  0
   42.3060   36.3700   42.2850 C   0  0  0  0  0  0  0  0  0  0  0  0
   43.1330   35.3850   41.7210 C   0  0  0  0  0  0  0  0  0  0  0  0
   44.3390   35.0530   42.3700 C   0  0  0  0  0  0  0  0  0  0  0  0
   44.6300   35.6930   43.4890 N   0  0  0  0  0  0  0  0  0  0  0  0
   43.8220   36.6390   44.0200 C   0  0  0  0  0  0  0  0  0  0  0  0
   42.6500   36.9820   43.4150 N   0  0  0  0  0  0  0  0  0  0  0  0
   42.7950   34.9370   40.8180 H   0  0  0  0  0  0  0  0  0  0  0  0
   44.0600   37.1650   44.9390 H   0  0  0  0  0  0  0  0  0  0  0  0
   45.4240   34.2210   40.2930 C   0  0  2  0  0  0  0  0  0  0  0  0
   45.1380   34.0240   41.7240 C   0  0  2  0  0  0  0  0  0  0  0  0
   44.5080   32.7260   41.7120 O   0  0  0  0  0  0  0  0  0  0  0  0
   45.4550   31.9950   40.9970 C   0  0  0  0  0  0  0  0  0  0  0  0
   46.1540   32.8850   40.0230 C   0  0  1  0  0  0  0  0  0  0  0  0
   44.5040   34.1320   39.6470 H   0  0  0  0  0  0  0  0  0  0  0  0
   46.0930   33.8450   42.2800 H   0  0  0  0  0  0  0  0  0  0  0  0
   44.9020   31.2210   40.4250 H   0  0  0  0  0  0  0  0  0  0  0  0
   46.1450   31.4950   41.7070 H   0  0  0  0  0  0  0  0  0  0  0  0
   47.2250   32.9620   40.2150 H   0  0  0  0  0  0  0  0  0  0  0  0
   46.1380   35.3200   39.9730 O   0  0  0  0  0  0  0  0  0  0  0  0
   45.9830   35.6120   39.0230 H   0  0  0  0  0  0  0  0  0  0  0  0
   45.9520   32.5220   38.6900 O   0  0  0  0  0  0  0  0  0  0  0  0
   46.0080   31.5330   38.5920 H   0  0  0  0  0  0  0  0  0  0  0  0
   39.2190   35.1970   40.4920 C   0  0  0  0  0  0  0  0  0  0  0  0
   38.7790   36.1930   39.8590 O   0  0  0  0  0  0  0  0  0  0  0  0
   40.3430   35.4550   41.3120 N   0  0  0  0  0  0  0  0  0  0  0  0
   40.7820   34.6430   41.8310 H   0  0  0  0  0  0  0  0  0  0  0  0
   38.6520   33.8500   40.4220 C   0  0  0  0  0  0  0  0  0  0  0  0
   37.5090   33.6390   39.7240 C   0  0  0  0  0  0  0  0  0  0  0  0
   37.0380   32.3230   39.7110 C   0  0  0  0  0  0  0  0  0  0  0  0
   37.6630   31.2670   40.3550 C   0  0  0  0  0  0  0  0  0  0  0  0
   38.8050   31.5750   41.0300 C   0  0  0  0  0  0  0  0  0  0  0  0
   39.2710   32.8230   41.0560 N   0  0  0  0  0  0  0  0  0  0  0  0
   36.9550   34.4010   39.1930 H   0  0  0  0  0  0  0  0  0  0  0  0
   36.1210   32.1150   39.1600 H   0  0  0  0  0  0  0  0  0  0  0  0
   37.2360   30.3010   40.2920 H   0  0  0  0  0  0  0  0  0  0  0  0
   40.8880   30.5980   42.0210 C   0  0  0  0  0  3  0  0  0  0  0  0
   39.5450   30.5410   41.7440 C   0  0  0  0  0  0  0  0  0  0  0  0
   38.9140   29.3910   42.2040 C   0  0  0  0  0  0  0  0  0  0  0  0
   37.8380   29.2900   42.0110 H   0  0  0  0  0  0  0  0  0  0  0  0
   39.5390   28.3830   42.8780 C   0  0  0  0  0  0  0  0  0  0  0  0
   39.0950   27.2040   43.3960 N   0  0  0  0  0  0  0  0  0  0  0  0
   40.1430   26.5720   43.9690 C   0  0  0  0  0  0  0  0  0  0  0  0
   40.1190   25.6040   44.4740 H   0  0  0  0  0  0  0  0  0  0  0  0
   41.2410   27.3620   43.8050 N   0  0  0  0  0  0  0  0  0  0  0  0
   40.8870   28.4770   43.1370 C   0  0  0  0  0  0  0  0  0  0  0  0
   41.5760   29.6130   42.6970 C   0  0  0  0  0  3  0  0  0  0  0  0
   38.1050   26.8680   43.3460 H   0  0  0  0  0  0  0  0  0  0  0  0
  1  3  1  0  0  0  0
  1  4  1  0  0  0  0
  2  1  1  0  0  0  0
  4  9  1  0  0  0  0
  5  4  2  0  0  0  0
  5  6  1  0  0  0  0
  6  7  2  0  0  0  0
  7  8  1  0  0  0  0
  8 11  1  0  0  0  0
  9  8  2  0  0  0  0
 10  5  1  0  0  0  0
 12 17  1  6  0  0  0
 12 13  1  0  0  0  0
 13 18  1  1  0  0  0
 13  6  1  0  0  0  0
 14 13  1  0  0  0  0
 15 20  1  0  0  0  0
 15 14  1  0  0  0  0
 16 21  1  1  0  0  0
 16 12  1  0  0  0  0
 16 15  1  0  0  0  0
 19 15  1  0  0  0  0
 22 12  1  0  0  0  0
 23 22  1  0  0  0  0
 24 16  1  0  0  0  0
 25 24  1  0  0  0  0
 26 28  1  0  0  0  0
 27 26  2  0  0  0  0
 28  1  1  0  0  0  0
 28 29  1  0  0  0  0
 30 26  1  0  0  0  0
 30 35  1  0  0  0  0
 31 30  2  0  0  0  0
 32 31  1  0  0  0  0
 32 33  2  0  0  0  0
 33 34  1  0  0  0  0
 34 35  2  0  0  0  0
 34 40  1  0  0  0  0
 36 31  1  0  0  0  0
 37 32  1  0  0  0  0
 38 33  1  0  0  0  0
 39 49  1  0  0  0  0
 40 39  2  0  0  0  0
 40 41  1  0  0  0  0
 41 43  2  0  0  0  0
 42 41  1  0  0  0  0
 43 48  1  0  0  0  0
 43 44  1  0  0  0  0
 44 45  1  0  0  0  0
 45 46  1  0  0  0  0
 47 45  2  0  0  0  0
 48 47  1  0  0  0  0
 49 48  2  0  0  0  0
 50 44  1  0  0  0  0
M  END
>  <minimizedAffinity>
-8.01934528

$$$$

 OpenBabel03242521473D

 50 54  0  0  1  0  0  0  0  0999 V2000
   37.6260   33.3620   40.1170 C   0  0  0  0  0  0  0  0  0  0  0  0
   37.1620   33.2030   39.1380 H   0  0  0  0  0  0  0  0  0  0  0  0
   36.9610   33.8400   40.8630 H   0  0  0  0  0  0  0  0  0  0  0  0
   38.8790   34.1860   39.9260 C   0  0  0  0  0  0  0  0  0  0  0  0
   40.0430   33.5300   39.4960 C   0  0  0  0  0  0  0  0  0  0  0  0
   41.2180   34.2840   39.3020 C   0  0  0  0  0  0  0  0  0  0  0  0
   41.1610   35.5820   39.5410 N   0  0  0  0  0  0  0  0  0  0  0  0
   40.0310   36.1980   39.9570 C   0  0  0  0  0  0  0  0  0  0  0  0
   38.8790   35.4970   40.1520 N   0  0  0  0  0  0  0  0  0  0  0  0
   39.9700   32.4820   39.3360 H   0  0  0  0  0  0  0  0  0  0  0  0
   39.9840   37.2650   40.1540 H   0  0  0  0  0  0  0  0  0  0  0  0
   42.5300   33.3600   37.4010 C   0  0  2  0  0  0  0  0  0  0  0  0
   42.3800   33.5320   38.8570 C   0  0  2  0  0  0  0  0  0  0  0  0
   42.3890   32.1610   39.3070 O   0  0  0  0  0  0  0  0  0  0  0  0
   43.5510   31.7030   38.6890 C   0  0  0  0  0  0  0  0  0  0  0  0
   43.7710   32.4390   37.4090 C   0  0  1  0  0  0  0  0  0  0  0  0
   41.7350   32.6970   36.9550 H   0  0  0  0  0  0  0  0  0  0  0  0
   43.3240   33.9530   39.2870 H   0  0  0  0  0  0  0  0  0  0  0  0
   43.3900   30.6310   38.4490 H   0  0  0  0  0  0  0  0  0  0  0  0
   44.4010   31.7900   39.3970 H   0  0  0  0  0  0  0  0  0  0  0  0
   44.7010   33.0100   37.4060 H   0  0  0  0  0  0  0  0  0  0  0  0
   42.6800   34.4910   36.6800 O   0  0  0  0  0  0  0  0  0  0  0  0
   42.3980   34.3720   35.7220 H   0  0  0  0  0  0  0  0  0  0  0  0
   43.7320   31.6200   36.2790 O   0  0  0  0  0  0  0  0  0  0  0  0
   44.2180   30.7690   36.4550 H   0  0  0  0  0  0  0  0  0  0  0  0
   37.2880   30.9560   41.0250 C   0  0  0  0  0  0  0  0  0  0  0  0
   36.0420   31.1090   40.9200 O   0  0  0  0  0  0  0  0  0  0  0  0
   38.0660   32.0590   40.6020 N   0  0  0  0  0  0  0  0  0  0  0  0
   39.1210   31.9670   40.6250 H   0  0  0  0  0  0  0  0  0  0  0  0
   37.9380   29.7490   41.5370 C   0  0  0  0  0  0  0  0  0  0  0  0
   38.8790   29.8550   42.5060 C   0  0  0  0  0  0  0  0  0  0  0  0
   39.4480   28.6530   42.9370 C   0  0  0  0  0  0  0  0  0  0  0  0
   39.1050   27.4070   42.4350 C   0  0  0  0  0  0  0  0  0  0  0  0
   38.1500   27.4010   41.4650 C   0  0  0  0  0  0  0  0  0  0  0  0
   37.5950   28.5340   41.0400 N   0  0  0  0  0  0  0  0  0  0  0  0
   39.2090   30.7820   42.9550 H   0  0  0  0  0  0  0  0  0  0  0  0
   40.2090   28.6980   43.7160 H   0  0  0  0  0  0  0  0  0  0  0  0
   39.5870   26.5480   42.8200 H   0  0  0  0  0  0  0  0  0  0  0  0
   36.7140   26.0370   39.9290 C   0  0  0  0  0  3  0  0  0  0  0  0
   37.7120   26.1450   40.8660 C   0  0  0  0  0  0  0  0  0  0  0  0
   38.2990   24.9350   41.2190 C   0  0  0  0  0  0  0  0  0  0  0  0
   39.1040   24.9590   41.9640 H   0  0  0  0  0  0  0  0  0  0  0  0
   37.9430   23.7230   40.7020 C   0  0  0  0  0  0  0  0  0  0  0  0
   38.3950   22.4570   40.9220 N   0  0  0  0  0  0  0  0  0  0  0  0
   37.6880   21.6130   40.1380 C   0  0  0  0  0  0  0  0  0  0  0  0
   37.8070   20.5290   40.0790 H   0  0  0  0  0  0  0  0  0  0  0  0
   36.7940   22.3590   39.4300 N   0  0  0  0  0  0  0  0  0  0  0  0
   36.9380   23.6560   39.7660 C   0  0  0  0  0  0  0  0  0  0  0  0
   36.3100   24.8430   39.3710 C   0  0  0  0  0  3  0  0  0  0  0  0
   39.1620   22.2070   41.5890 H   0  0  0  0  0  0  0  0  0  0  0  0
  1 28  1  0  0  0  0
  1  3  1  0  0  0  0
  2  1  1  0  0  0  0
  4  1  1  0  0  0  0
  4  9  1  0  0  0  0
  5  4  2  0  0  0  0
  6  5  1  0  0  0  0
  6  7  2  0  0  0  0
  7  8  1  0  0  0  0
  8  9  2  0  0  0  0
  8 11  1  0  0  0  0
 10  5  1  0  0  0  0
 12 17  1  6  0  0  0
 12 16  1  0  0  0  0
 12 13  1  0  0  0  0
 13 18  1  1  0  0  0
 13  6  1  0  0  0  0
 13 14  1  0  0  0  0
 15 14  1  0  0  0  0
 15 20  1  0  0  0  0
 16 21  1  1  0  0  0
 16 15  1  0  0  0  0
 19 15  1  0  0  0  0
 22 12  1  0  0  0  0
 23 22  1  0  0  0  0
 24 25  1  0  0  0  0
 24 16  1  0  0  0  0
 26 30  1  0  0  0  0
 27 26  2  0  0  0  0
 28 29  1  0  0  0  0
 28 26  1  0  0  0  0
 30 31  1  0  0  0  0
 31 32  2  0  0  0  0
 31 36  1  0  0  0  0
 32 37  1  0  0  0  0
 33 38  1  0  0  0  0
 33 32  1  0  0  0  0
 34 33  2  0  0  0  0
 35 34  1  0  0  0  0
 35 30  2  0  0  0  0
 39 40  1  0  0  0  0
 40 41  2  0  0  0  0
 40 34  1  0  0  0  0
 41 42  1  0  0  0  0
 43 44  1  0  0  0  0
 43 41  1  0  0  0  0
 44 50  1  0  0  0  0
 45 44  1  0  0  0  0
 46 45  1  0  0  0  0
 47 48  1  0  0  0  0
 47 45  2  0  0  0  0
 48 43  2  0  0  0  0
 49 48  1  0  0  0  0
 49 39  2  0  0  0  0
M  END
>  <minimizedAffinity>
-8.01312733

$$$$

 OpenBabel03242521473D

 50 54  0  0  1  0  0  0  0  0999 V2000
   37.6980   34.3570   39.7760 C   0  0  0  0  0  0  0  0  0  0  0  0
   37.5490   34.3260   38.6910 H   0  0  0  0  0  0  0  0  0  0  0  0
   37.0510   35.0860   40.3020 H   0  0  0  0  0  0  0  0  0  0  0  0
   39.1540   34.6530   40.0520 C   0  0  0  0  0  0  0  0  0  0  0  0
   40.1220   33.8500   39.4280 C   0  0  0  0  0  0  0  0  0  0  0  0
   41.4860   34.1170   39.6650 C   0  0  0  0  0  0  0  0  0  0  0  0
   41.7830   35.1190   40.4730 N   0  0  0  0  0  0  0  0  0  0  0  0
   40.8370   35.8820   41.0690 C   0  0  0  0  0  0  0  0  0  0  0  0
   39.5120   35.6490   40.8580 N   0  0  0  0  0  0  0  0  0  0  0  0
   39.7650   33.0730   38.7980 H   0  0  0  0  0  0  0  0  0  0  0  0
   41.0810   36.7050   41.7340 H   0  0  0  0  0  0  0  0  0  0  0  0
   42.2750   33.1330   37.5220 C   0  0  2  0  0  0  0  0  0  0  0  0
   42.4250   33.2420   38.9830 C   0  0  2  0  0  0  0  0  0  0  0  0
   42.3230   31.8600   39.3830 O   0  0  0  0  0  0  0  0  0  0  0  0
   43.2730   31.2850   38.5400 C   0  0  0  0  0  0  0  0  0  0  0  0
   43.3520   32.0550   37.2640 C   0  0  1  0  0  0  0  0  0  0  0  0
   41.3240   32.6080   37.2180 H   0  0  0  0  0  0  0  0  0  0  0  0
   43.4830   33.5090   39.2360 H   0  0  0  0  0  0  0  0  0  0  0  0
   42.9190   30.2600   38.3060 H   0  0  0  0  0  0  0  0  0  0  0  0
   44.2430   31.2180   39.0740 H   0  0  0  0  0  0  0  0  0  0  0  0
   44.3360   32.4960   37.0970 H   0  0  0  0  0  0  0  0  0  0  0  0
   42.4470   34.2710   36.8180 O   0  0  0  0  0  0  0  0  0  0  0  0
   41.9770   34.2440   35.9290 H   0  0  0  0  0  0  0  0  0  0  0  0
   42.9860   31.3110   36.1390 O   0  0  0  0  0  0  0  0  0  0  0  0
   43.3710   30.3950   36.1950 H   0  0  0  0  0  0  0  0  0  0  0  0
   37.1670   31.8270   39.5660 C   0  0  0  0  0  0  0  0  0  0  0  0
   37.1770   31.9450   38.3120 O   0  0  0  0  0  0  0  0  0  0  0  0
   37.4520   33.0120   40.2830 N   0  0  0  0  0  0  0  0  0  0  0  0
   37.5030   32.9600   41.3400 H   0  0  0  0  0  0  0  0  0  0  0  0
   36.8900   30.5810   40.2820 C   0  0  0  0  0  0  0  0  0  0  0  0
   35.6550   30.0290   40.2130 C   0  0  0  0  0  0  0  0  0  0  0  0
   35.4780   28.8410   40.9270 C   0  0  0  0  0  0  0  0  0  0  0  0
   36.4720   28.2270   41.6740 C   0  0  0  0  0  0  0  0  0  0  0  0
   37.6790   28.8550   41.6830 C   0  0  0  0  0  0  0  0  0  0  0  0
   37.8690   29.9890   41.0100 N   0  0  0  0  0  0  0  0  0  0  0  0
   34.8210   30.4360   39.6570 H   0  0  0  0  0  0  0  0  0  0  0  0
   34.4970   28.3670   40.8950 H   0  0  0  0  0  0  0  0  0  0  0  0
   36.2500   27.3270   42.1840 H   0  0  0  0  0  0  0  0  0  0  0  0
   38.7270   27.1650   43.2090 C   0  0  0  0  0  3  0  0  0  0  0  0
   38.7980   28.2980   42.4360 C   0  0  0  0  0  0  0  0  0  0  0  0
   40.0500   28.9010   42.4180 C   0  0  0  0  0  0  0  0  0  0  0  0
   40.1670   29.8120   41.8170 H   0  0  0  0  0  0  0  0  0  0  0  0
   41.1410   28.4390   43.0960 C   0  0  0  0  0  0  0  0  0  0  0  0
   42.4230   28.8870   43.1960 N   0  0  0  0  0  0  0  0  0  0  0  0
   43.1030   28.0460   44.0070 C   0  0  0  0  0  0  0  0  0  0  0  0
   44.1550   28.1270   44.2900 H   0  0  0  0  0  0  0  0  0  0  0  0
   42.2390   27.0730   44.4100 N   0  0  0  0  0  0  0  0  0  0  0  0
   41.0300   27.3010   43.8590 C   0  0  0  0  0  0  0  0  0  0  0  0
   39.7930   26.6490   43.9160 C   0  0  0  0  0  3  0  0  0  0  0  0
   42.7940   29.7410   42.7170 H   0  0  0  0  0  0  0  0  0  0  0  0
  1  4  1  0  0  0  0
  1 28  1  0  0  0  0
  1  3  1  0  0  0  0
  2  1  1  0  0  0  0
  4  9  1  0  0  0  0
  5  6  1  0  0  0  0
  5  4  2  0  0  0  0
  6  7  2  0  0  0  0
  7  8  1  0  0  0  0
  8 11  1  0  0  0  0
  9  8  2  0  0  0  0
 10  5  1  0  0  0  0
 12 17  1  6  0  0  0
 12 13  1  0  0  0  0
 13 18  1  1  0  0  0
 13 14  1  0  0  0  0
 13  6  1  0  0  0  0
 15 20  1  0  0  0  0
 15 14  1  0  0  0  0
 16 21  1  6  0  0  0
 16 12  1  0  0  0  0
 16 15  1  0  0  0  0
 19 15  1  0  0  0  0
 22 12  1  0  0  0  0
 23 22  1  0  0  0  0
 24 25  1  0  0  0  0
 24 16  1  0  0  0  0
 26 30  1  0  0  0  0
 26 28  1  0  0  0  0
 27 26  2  0  0  0  0
 28 29  1  0  0  0  0
 30 35  1  0  0  0  0
 31 30  2  0  0  0  0
 31 32  1  0  0  0  0
 32 33  2  0  0  0  0
 33 34  1  0  0  0  0
 33 38  1  0  0  0  0
 34 40  1  0  0  0  0
 35 34  2  0  0  0  0
 36 31  1  0  0  0  0
 37 32  1  0  0  0  0
 39 49  1  0  0  0  0
 40 39  2  0  0  0  0
 41 40  1  0  0  0  0
 41 43  2  0  0  0  0
 42 41  1  0  0  0  0
 43 44  1  0  0  0  0
 43 48  1  0  0  0  0
 44 45  1  0  0  0  0
 45 46  1  0  0  0  0
 45 47  2  0  0  0  0
 48 49  2  0  0  0  0
 48 47  1  0  0  0  0
 50 44  1  0  0  0  0
M  END
>  <minimizedAffinity>
-7.96170235

$$$$

 OpenBabel03242521473D

 50 54  0  0  1  0  0  0  0  0999 V2000
   37.7130   31.4960   38.7620 C   0  0  0  0  0  0  0  0  0  0  0  0
   38.1400   31.1340   37.8210 H   0  0  0  0  0  0  0  0  0  0  0  0
   36.6430   31.7770   38.6960 H   0  0  0  0  0  0  0  0  0  0  0  0
   38.5340   32.6700   39.2420 C   0  0  0  0  0  0  0  0  0  0  0  0
   39.9210   32.6410   39.0210 C   0  0  0  0  0  0  0  0  0  0  0  0
   40.7030   33.7320   39.4530 C   0  0  0  0  0  0  0  0  0  0  0  0
   40.0820   34.7340   40.0500 N   0  0  0  0  0  0  0  0  0  0  0  0
   38.7440   34.7450   40.2560 C   0  0  0  0  0  0  0  0  0  0  0  0
   37.9620   33.7070   39.8500 N   0  0  0  0  0  0  0  0  0  0  0  0
   40.3090   31.7830   38.5310 H   0  0  0  0  0  0  0  0  0  0  0  0
   38.2340   35.5680   40.7470 H   0  0  0  0  0  0  0  0  0  0  0  0
   42.6160   34.2770   37.9600 C   0  0  2  0  0  0  0  0  0  0  0  0
   42.1280   33.6260   39.1880 C   0  0  2  0  0  0  0  0  0  0  0  0
   42.5800   32.2700   38.9900 O   0  0  0  0  0  0  0  0  0  0  0  0
   43.9260   32.4950   38.7060 C   0  0  0  0  0  0  0  0  0  0  0  0
   44.0900   33.8160   38.0310 C   0  0  1  0  0  0  0  0  0  0  0  0
   42.2460   33.7730   37.0220 H   0  0  0  0  0  0  0  0  0  0  0  0
   42.7290   33.9750   40.0660 H   0  0  0  0  0  0  0  0  0  0  0  0
   44.2440   31.7010   37.9980 H   0  0  0  0  0  0  0  0  0  0  0  0
   44.5180   32.4030   39.6400 H   0  0  0  0  0  0  0  0  0  0  0  0
   44.7060   34.5100   38.6050 H   0  0  0  0  0  0  0  0  0  0  0  0
   42.4540   35.6140   37.8890 O   0  0  0  0  0  0  0  0  0  0  0  0
   42.4350   35.9470   36.9400 H   0  0  0  0  0  0  0  0  0  0  0  0
   44.5950   33.7210   36.7320 O   0  0  0  0  0  0  0  0  0  0  0  0
   45.3290   33.0490   36.6990 H   0  0  0  0  0  0  0  0  0  0  0  0
   37.1170   30.1530   40.8990 C   0  0  0  0  0  0  0  0  0  0  0  0
   36.1030   30.8830   41.0560 O   0  0  0  0  0  0  0  0  0  0  0  0
   37.8930   30.4410   39.7520 N   0  0  0  0  0  0  0  0  0  0  0  0
   38.7320   29.8270   39.5460 H   0  0  0  0  0  0  0  0  0  0  0  0
   37.5130   29.0720   41.8040 C   0  0  0  0  0  0  0  0  0  0  0  0
   36.5600   28.3260   42.4120 C   0  0  0  0  0  0  0  0  0  0  0  0
   37.0260   27.3160   43.2590 C   0  0  0  0  0  0  0  0  0  0  0  0
   38.3670   27.0560   43.4930 C   0  0  0  0  0  0  0  0  0  0  0  0
   39.2510   27.8570   42.8370 C   0  0  0  0  0  0  0  0  0  0  0  0
   38.8280   28.8260   42.0270 N   0  0  0  0  0  0  0  0  0  0  0  0
   35.4940   28.4570   42.2900 H   0  0  0  0  0  0  0  0  0  0  0  0
   36.2890   26.6940   43.7670 H   0  0  0  0  0  0  0  0  0  0  0  0
   38.6310   26.2700   44.1510 H   0  0  0  0  0  0  0  0  0  0  0  0
   41.6060   28.6940   43.0270 C   0  0  0  0  0  3  0  0  0  0  0  0
   40.6880   27.6730   43.0100 C   0  0  0  0  0  0  0  0  0  0  0  0
   41.2360   26.4060   43.1740 C   0  0  0  0  0  0  0  0  0  0  0  0
   40.5500   25.5500   43.1680 H   0  0  0  0  0  0  0  0  0  0  0  0
   42.5680   26.1560   43.3400 C   0  0  0  0  0  0  0  0  0  0  0  0
   43.2760   25.0060   43.5120 N   0  0  0  0  0  0  0  0  0  0  0  0
   44.5830   25.3280   43.6290 C   0  0  0  0  0  0  0  0  0  0  0  0
   45.4120   24.6320   43.7770 H   0  0  0  0  0  0  0  0  0  0  0  0
   44.6850   26.6830   43.5290 N   0  0  0  0  0  0  0  0  0  0  0  0
   43.4570   27.2050   43.3510 C   0  0  0  0  0  0  0  0  0  0  0  0
   42.9610   28.5050   43.1910 C   0  0  0  0  0  3  0  0  0  0  0  0
   42.8560   24.0470   43.5440 H   0  0  0  0  0  0  0  0  0  0  0  0
  1  4  1  0  0  0  0
  1 28  1  0  0  0  0
  2  1  1  0  0  0  0
  3  1  1  0  0  0  0
  4  9  1  0  0  0  0
  5  4  2  0  0  0  0
  5  6  1  0  0  0  0
  6  7  2  0  0  0  0
  7  8  1  0  0  0  0
  8 11  1  0  0  0  0
  9  8  2  0  0  0  0
 10  5  1  0  0  0  0
 12 17  1  6  0  0  0
 12 16  1  0  0  0  0
 12 13  1  0  0  0  0
 13  6  1  0  0  0  0
 13 18  1  1  0  0  0
 14 13  1  0  0  0  0
 15 14  1  0  0  0  0
 15 20  1  0  0  0  0
 16 21  1  1  0  0  0
 16 15  1  0  0  0  0
 19 15  1  0  0  0  0
 22 12  1  0  0  0  0
 23 22  1  0  0  0  0
 24 16  1  0  0  0  0
 25 24  1  0  0  0  0
 26 27  2  0  0  0  0
 26 30  1  0  0  0  0
 28 26  1  0  0  0  0
 29 28  1  0  0  0  0
 30 35  2  0  0  0  0
 30 31  1  0  0  0  0
 31 32  2  0  0  0  0
 32 33  1  0  0  0  0
 32 37  1  0  0  0  0
 33 38  1  0  0  0  0
 34 40  1  0  0  0  0
 34 33  2  0  0  0  0
 35 34  1  0  0  0  0
 36 31  1  0  0  0  0
 39 49  1  0  0  0  0
 40 39  2  0  0  0  0
 40 41  1  0  0  0  0
 41 43  2  0  0  0  0
 42 41  1  0  0  0  0
 43 48  1  0  0  0  0
 43 44  1  0  0  0  0
 44 50  1  0  0  0  0
 44 45  1  0  0  0  0
 45 46  1  0  0  0  0
 47 45  2  0  0  0  0
 48 47  1  0  0  0  0
 49 48  2  0  0  0  0
M  END
>  <minimizedAffinity>
-7.91632986

$$$$

 OpenBabel03242521473D

 50 54  0  0  1  0  0  0  0  0999 V2000
   40.9900   33.8940   39.0540 C   0  0  0  0  0  0  0  0  0  0  0  0
   41.1730   33.6690   37.9980 H   0  0  0  0  0  0  0  0  0  0  0  0
   40.5380   34.8900   39.2340 H   0  0  0  0  0  0  0  0  0  0  0  0
   42.2960   33.7680   39.8040 C   0  0  0  0  0  0  0  0  0  0  0  0
   42.6010   34.7420   40.7690 C   0  0  0  0  0  0  0  0  0  0  0  0
   43.8100   34.6360   41.4860 C   0  0  0  0  0  0  0  0  0  0  0  0
   44.6010   33.6150   41.2080 N   0  0  0  0  0  0  0  0  0  0  0  0
   44.2920   32.6850   40.2740 C   0  0  0  0  0  0  0  0  0  0  0  0
   43.1310   32.7600   39.5650 N   0  0  0  0  0  0  0  0  0  0  0  0
   41.8890   35.5180   40.9070 H   0  0  0  0  0  0  0  0  0  0  0  0
   44.9420   31.8470   40.0450 H   0  0  0  0  0  0  0  0  0  0  0  0
   44.7570   35.2780   43.6950 C   0  0  2  0  0  0  0  0  0  0  0  0
   44.0530   35.6820   42.4660 C   0  0  2  0  0  0  0  0  0  0  0  0
   42.8460   36.2590   43.0070 O   0  0  0  0  0  0  0  0  0  0  0  0
   43.3880   37.1540   43.9280 C   0  0  0  0  0  0  0  0  0  0  0  0
   44.6800   36.6230   44.4520 C   0  0  1  0  0  0  0  0  0  0  0  0
   44.1400   34.5940   44.3470 H   0  0  0  0  0  0  0  0  0  0  0  0
   44.5740   36.5570   42.0010 H   0  0  0  0  0  0  0  0  0  0  0  0
   42.6720   37.2210   44.7730 H   0  0  0  0  0  0  0  0  0  0  0  0
   43.4820   38.1530   43.4550 H   0  0  0  0  0  0  0  0  0  0  0  0
   45.5280   37.2700   44.2170 H   0  0  0  0  0  0  0  0  0  0  0  0
   46.0080   34.7990   43.5350 O   0  0  0  0  0  0  0  0  0  0  0  0
   46.2880   34.2030   44.2950 H   0  0  0  0  0  0  0  0  0  0  0  0
   44.6650   36.3680   45.8250 O   0  0  0  0  0  0  0  0  0  0  0  0
   44.1960   37.1040   46.3040 H   0  0  0  0  0  0  0  0  0  0  0  0
   38.8870   32.9710   40.2590 C   0  0  0  0  0  0  0  0  0  0  0  0
   38.4660   34.1510   40.3930 O   0  0  0  0  0  0  0  0  0  0  0  0
   40.1190   32.8470   39.5740 N   0  0  0  0  0  0  0  0  0  0  0  0
   40.4970   31.8740   39.3930 H   0  0  0  0  0  0  0  0  0  0  0  0
   38.1960   31.7800   40.7540 C   0  0  0  0  0  0  0  0  0  0  0  0
   36.8660   31.6400   40.5420 C   0  0  0  0  0  0  0  0  0  0  0  0
   36.2880   30.4730   41.0490 C   0  0  0  0  0  0  0  0  0  0  0  0
   36.9890   29.4910   41.7320 C   0  0  0  0  0  0  0  0  0  0  0  0
   38.3210   29.7190   41.8960 C   0  0  0  0  0  0  0  0  0  0  0  0
   38.8910   30.8250   41.4210 N   0  0  0  0  0  0  0  0  0  0  0  0
   36.2400   32.3520   40.0220 H   0  0  0  0  0  0  0  0  0  0  0  0
   35.2180   30.3250   40.8980 H   0  0  0  0  0  0  0  0  0  0  0  0
   36.4700   28.6380   42.0810 H   0  0  0  0  0  0  0  0  0  0  0  0
   38.6790   27.6460   43.2580 C   0  0  0  0  0  3  0  0  0  0  0  0
   39.1560   28.7520   42.5990 C   0  0  0  0  0  0  0  0  0  0  0  0
   40.5380   28.8950   42.6480 C   0  0  0  0  0  0  0  0  0  0  0  0
   40.9780   29.7620   42.1390 H   0  0  0  0  0  0  0  0  0  0  0  0
   41.3830   28.0330   43.2860 C   0  0  0  0  0  0  0  0  0  0  0  0
   42.7360   28.0110   43.4380 N   0  0  0  0  0  0  0  0  0  0  0  0
   43.0610   26.9210   44.1690 C   0  0  0  0  0  0  0  0  0  0  0  0
   44.0670   26.6160   44.4660 H   0  0  0  0  0  0  0  0  0  0  0  0
   41.9050   26.2660   44.4700 N   0  0  0  0  0  0  0  0  0  0  0  0
   40.8660   26.9370   43.9350 C   0  0  0  0  0  0  0  0  0  0  0  0
   39.4800   26.7400   43.9190 C   0  0  0  0  0  3  0  0  0  0  0  0
   43.3910   28.7270   43.0470 H   0  0  0  0  0  0  0  0  0  0  0  0
  1  3  1  0  0  0  0
  1 28  1  0  0  0  0
  1  4  1  0  0  0  0
  2  1  1  0  0  0  0
  4  5  1  0  0  0  0
  5 10  1  0  0  0  0
  5  6  2  0  0  0  0
  6 13  1  0  0  0  0
  7  6  1  0  0  0  0
  8  7  2  0  0  0  0
  9  4  2  0  0  0  0
  9  8  1  0  0  0  0
 11  8  1  0  0  0  0
 12 17  1  1  0  0  0
 12 16  1  0  0  0  0
 13 18  1  6  0  0  0
 13 14  1  0  0  0  0
 13 12  1  0  0  0  0
 14 15  1  0  0  0  0
 15 16  1  0  0  0  0
 15 19  1  0  0  0  0
 16 21  1  6  0  0  0
 16 24  1  0  0  0  0
 20 15  1  0  0  0  0
 22 12  1  0  0  0  0
 22 23  1  0  0  0  0
 24 25  1  0  0  0  0
 26 27  2  0  0  0  0
 26 30  1  0  0  0  0
 28 26  1  0  0  0  0
 29 28  1  0  0  0  0
 30 35  1  0  0  0  0
 31 30  2  0  0  0  0
 31 32  1  0  0  0  0
 32 33  2  0  0  0  0
 33 34  1  0  0  0  0
 33 38  1  0  0  0  0
 34 40  1  0  0  0  0
 35 34  2  0  0  0  0
 36 31  1  0  0  0  0
 37 32  1  0  0  0  0
 39 49  1  0  0  0  0
 40 41  1  0  0  0  0
 40 39  2  0  0  0  0
 41 43  2  0  0  0  0
 42 41  1  0  0  0  0
 43 44  1  0  0  0  0
 43 48  1  0  0  0  0
 44 45  1  0  0  0  0
 45 46  1  0  0  0  0
 45 47  2  0  0  0  0
 48 47  1  0  0  0  0
 49 48  2  0  0  0  0
 50 44  1  0  0  0  0
M  END
>  <minimizedAffinity>
-7.86094046

$$$$

 OpenBabel03242521473D

 50 54  0  0  1  0  0  0  0  0999 V2000
   36.1690   30.4040   40.5460 C   0  0  0  0  0  0  0  0  0  0  0  0
   35.2290   30.6890   41.0290 H   0  0  0  0  0  0  0  0  0  0  0  0
   36.0460   29.9800   39.5300 H   0  0  0  0  0  0  0  0  0  0  0  0
   36.8900   29.4220   41.4400 C   0  0  0  0  0  0  0  0  0  0  0  0
   36.7080   28.0500   41.1990 C   0  0  0  0  0  0  0  0  0  0  0  0
   37.3800   27.1190   42.0160 C   0  0  0  0  0  0  0  0  0  0  0  0
   38.1530   27.5910   42.9780 N   0  0  0  0  0  0  0  0  0  0  0  0
   38.3160   28.9170   43.1980 C   0  0  0  0  0  0  0  0  0  0  0  0
   37.6810   29.8410   42.4250 N   0  0  0  0  0  0  0  0  0  0  0  0
   36.0620   27.7880   40.3980 H   0  0  0  0  0  0  0  0  0  0  0  0
   38.9510   29.3050   43.9890 H   0  0  0  0  0  0  0  0  0  0  0  0
   38.3220   24.8440   41.6690 C   0  0  2  0  0  0  0  0  0  0  0  0
   37.1390   25.7200   41.7030 C   0  0  2  0  0  0  0  0  0  0  0  0
   36.5910   25.5090   40.3840 O   0  0  0  0  0  0  0  0  0  0  0  0
   36.5330   24.1160   40.3580 C   0  0  0  0  0  0  0  0  0  0  0  0
   37.6290   23.5460   41.1960 C   0  0  1  0  0  0  0  0  0  0  0  0
   39.0160   25.0780   40.8110 H   0  0  0  0  0  0  0  0  0  0  0  0
   36.3630   25.2820   42.3800 H   0  0  0  0  0  0  0  0  0  0  0  0
   36.7020   23.8050   39.3070 H   0  0  0  0  0  0  0  0  0  0  0  0
   35.5220   23.7860   40.6740 H   0  0  0  0  0  0  0  0  0  0  0  0
   37.2550   22.9560   42.0340 H   0  0  0  0  0  0  0  0  0  0  0  0
   39.0060   24.7190   42.8260 O   0  0  0  0  0  0  0  0  0  0  0  0
   39.9640   24.4530   42.6760 H   0  0  0  0  0  0  0  0  0  0  0  0
   38.5470   22.7820   40.4710 O   0  0  0  0  0  0  0  0  0  0  0  0
   38.0690   22.2070   39.8130 H   0  0  0  0  0  0  0  0  0  0  0  0
   38.0400   31.9200   39.5830 C   0  0  0  0  0  0  0  0  0  0  0  0
   38.2260   31.0790   38.6640 O   0  0  0  0  0  0  0  0  0  0  0  0
   37.0060   31.5960   40.4930 N   0  0  0  0  0  0  0  0  0  0  0  0
   36.7760   32.2910   41.2590 H   0  0  0  0  0  0  0  0  0  0  0  0
   38.8050   33.1570   39.7460 C   0  0  0  0  0  0  0  0  0  0  0  0
   38.1610   34.3060   40.0660 C   0  0  0  0  0  0  0  0  0  0  0  0
   38.9680   35.4380   40.2020 C   0  0  0  0  0  0  0  0  0  0  0  0
   40.3430   35.4380   40.0300 C   0  0  0  0  0  0  0  0  0  0  0  0
   40.9010   34.2390   39.7110 C   0  0  0  0  0  0  0  0  0  0  0  0
   40.1500   33.1470   39.5760 N   0  0  0  0  0  0  0  0  0  0  0  0
   37.0940   34.3990   40.2180 H   0  0  0  0  0  0  0  0  0  0  0  0
   38.4850   36.3820   40.4590 H   0  0  0  0  0  0  0  0  0  0  0  0
   40.8760   36.3440   40.1530 H   0  0  0  0  0  0  0  0  0  0  0  0
   43.2770   34.2040   40.5080 C   0  0  0  0  0  3  0  0  0  0  0  0
   42.3410   34.1220   39.5070 C   0  0  0  0  0  0  0  0  0  0  0  0
   42.8740   33.9140   38.2400 C   0  0  0  0  0  0  0  0  0  0  0  0
   42.1730   33.8410   37.3990 H   0  0  0  0  0  0  0  0  0  0  0  0
   44.2070   33.7950   37.9720 C   0  0  0  0  0  0  0  0  0  0  0  0
   44.9020   33.5930   36.8190 N   0  0  0  0  0  0  0  0  0  0  0  0
   46.2190   33.5540   37.1200 C   0  0  0  0  0  0  0  0  0  0  0  0
   47.0410   33.4060   36.4170 H   0  0  0  0  0  0  0  0  0  0  0  0
   46.3410   33.7330   38.4660 N   0  0  0  0  0  0  0  0  0  0  0  0
   45.1140   33.8830   39.0030 C   0  0  0  0  0  0  0  0  0  0  0  0
   44.6350   34.0920   40.3010 C   0  0  0  0  0  3  0  0  0  0  0  0
   44.4680   33.4890   35.8730 H   0  0  0  0  0  0  0  0  0  0  0  0
  1  2  1  0  0  0  0
  1  4  1  0  0  0  0
  3  1  1  0  0  0  0
  4  9  1  0  0  0  0
  5  4  2  0  0  0  0
  5  6  1  0  0  0  0
  6  7  2  0  0  0  0
  7  8  1  0  0  0  0
  8 11  1  0  0  0  0
  9  8  2  0  0  0  0
 10  5  1  0  0  0  0
 12 17  1  6  0  0  0
 12 13  1  0  0  0  0
 12 22  1  0  0  0  0
 13  6  1  0  0  0  0
 13 18  1  1  0  0  0
 14 13  1  0  0  0  0
 15 14  1  0  0  0  0
 15 20  1  0  0  0  0
 15 16  1  0  0  0  0
 16 12  1  0  0  0  0
 16 21  1  1  0  0  0
 19 15  1  0  0  0  0
 23 22  1  0  0  0  0
 24 16  1  0  0  0  0
 25 24  1  0  0  0  0
 26 30  1  0  0  0  0
 26 28  1  0  0  0  0
 27 26  2  0  0  0  0
 28  1  1  0  0  0  0
 28 29  1  0  0  0  0
 30 31  1  0  0  0  0
 31 32  2  0  0  0  0
 31 36  1  0  0  0  0
 32 37  1  0  0  0  0
 33 38  1  0  0  0  0
 33 32  1  0  0  0  0
 34 33  2  0  0  0  0
 35 34  1  0  0  0  0
 35 30  2  0  0  0  0
 40 34  1  0  0  0  0
 40 39  2  0  0  0  0
 41 40  1  0  0  0  0
 42 41  1  0  0  0  0
 43 41  2  0  0  0  0
 43 48  1  0  0  0  0
 44 45  1  0  0  0  0
 44 43  1  0  0  0  0
 45 47  2  0  0  0  0
 46 45  1  0  0  0  0
 47 48  1  0  0  0  0
 48 49  2  0  0  0  0
 49 39  1  0  0  0  0
 50 44  1  0  0  0  0
M  END
>  <minimizedAffinity>
-7.54283857

$$$$

 OpenBabel03242521473D

 50 54  0  0  1  0  0  0  0  0999 V2000
   37.2560   28.1950   43.3650 C   0  0  0  0  0  0  0  0  0  0  0  0
   37.5170   28.7440   44.2760 H   0  0  0  0  0  0  0  0  0  0  0  0
   36.2300   27.7750   43.3670 H   0  0  0  0  0  0  0  0  0  0  0  0
   38.2720   27.0960   43.1590 C   0  0  0  0  0  0  0  0  0  0  0  0
   39.6210   27.3840   43.4210 C   0  0  0  0  0  0  0  0  0  0  0  0
   40.5820   26.3680   43.2440 C   0  0  0  0  0  0  0  0  0  0  0  0
   40.1580   25.1860   42.8350 N   0  0  0  0  0  0  0  0  0  0  0  0
   38.8530   24.9250   42.5850 C   0  0  0  0  0  0  0  0  0  0  0  0
   37.9010   25.8850   42.7480 N   0  0  0  0  0  0  0  0  0  0  0  0
   39.8440   28.3710   43.7450 H   0  0  0  0  0  0  0  0  0  0  0  0
   38.5040   23.9540   42.2480 H   0  0  0  0  0  0  0  0  0  0  0  0
   42.8810   25.6480   43.8630 C   0  0  2  0  0  0  0  0  0  0  0  0
   41.9550   26.7460   43.5360 C   0  0  2  0  0  0  0  0  0  0  0  0
   42.0890   27.5870   44.7010 O   0  0  0  0  0  0  0  0  0  0  0  0
   43.4750   27.7220   44.7540 C   0  0  0  0  0  0  0  0  0  0  0  0
   44.1270   26.4970   44.2040 C   0  0  1  0  0  0  0  0  0  0  0  0
   42.6430   25.1540   44.8490 H   0  0  0  0  0  0  0  0  0  0  0  0
   42.3860   27.3710   42.7130 H   0  0  0  0  0  0  0  0  0  0  0  0
   43.7510   27.8110   45.8250 H   0  0  0  0  0  0  0  0  0  0  0  0
   43.7730   28.6510   44.2270 H   0  0  0  0  0  0  0  0  0  0  0  0
   44.7330   26.7020   43.3200 H   0  0  0  0  0  0  0  0  0  0  0  0
   43.0810   24.7290   42.8950 O   0  0  0  0  0  0  0  0  0  0  0  0
   43.3830   23.8440   43.2670 H   0  0  0  0  0  0  0  0  0  0  0  0
   44.9000   25.8070   45.1410 O   0  0  0  0  0  0  0  0  0  0  0  0
   45.4270   26.4490   45.6890 H   0  0  0  0  0  0  0  0  0  0  0  0
   36.5650   29.3300   41.1370 C   0  0  0  0  0  0  0  0  0  0  0  0
   35.4950   28.6670   41.1500 O   0  0  0  0  0  0  0  0  0  0  0  0
   37.4180   29.1150   42.2460 N   0  0  0  0  0  0  0  0  0  0  0  0
   38.3110   29.6820   42.3100 H   0  0  0  0  0  0  0  0  0  0  0  0
   36.9510   30.2690   40.0830 C   0  0  0  0  0  0  0  0  0  0  0  0
   36.5790   30.0270   38.8030 C   0  0  0  0  0  0  0  0  0  0  0  0
   36.9900   30.9740   37.8610 C   0  0  0  0  0  0  0  0  0  0  0  0
   37.7320   32.1050   38.1670 C   0  0  0  0  0  0  0  0  0  0  0  0
   38.0570   32.2630   39.4790 C   0  0  0  0  0  0  0  0  0  0  0  0
   37.6760   31.3720   40.3930 N   0  0  0  0  0  0  0  0  0  0  0  0
   36.0030   29.1740   38.4720 H   0  0  0  0  0  0  0  0  0  0  0  0
   36.7100   30.8140   36.8190 H   0  0  0  0  0  0  0  0  0  0  0  0
   38.0000   32.7700   37.3890 H   0  0  0  0  0  0  0  0  0  0  0  0
   38.3920   34.7160   39.8710 C   0  0  0  0  0  3  0  0  0  0  0  0
   38.8360   33.4170   39.9150 C   0  0  0  0  0  0  0  0  0  0  0  0
   40.1220   33.2690   40.4210 C   0  0  0  0  0  0  0  0  0  0  0  0
   40.5310   32.2520   40.4810 H   0  0  0  0  0  0  0  0  0  0  0  0
   40.9090   34.2990   40.8470 C   0  0  0  0  0  0  0  0  0  0  0  0
   42.1680   34.3470   41.3630 N   0  0  0  0  0  0  0  0  0  0  0  0
   42.4720   35.6380   41.6210 C   0  0  0  0  0  0  0  0  0  0  0  0
   43.4080   36.0130   42.0400 H   0  0  0  0  0  0  0  0  0  0  0  0
   41.3960   36.3940   41.2640 N   0  0  0  0  0  0  0  0  0  0  0  0
   40.4280   35.5870   40.7870 C   0  0  0  0  0  0  0  0  0  0  0  0
   39.1380   35.7970   40.2860 C   0  0  0  0  0  3  0  0  0  0  0  0
   42.7780   33.5110   41.5230 H   0  0  0  0  0  0  0  0  0  0  0  0
  1  3  1  0  0  0  0
  1  2  1  0  0  0  0
  4  1  1  0  0  0  0
  4  5  1  0  0  0  0
  5 10  1  0  0  0  0
  6  5  2  0  0  0  0
  6 13  1  0  0  0  0
  7  6  1  0  0  0  0
  8  9  1  0  0  0  0
  8  7  2  0  0  0  0
  9  4  2  0  0  0  0
 11  8  1  0  0  0  0
 12 16  1  0  0  0  0
 12 17  1  1  0  0  0
 13 18  1  6  0  0  0
 13 12  1  0  0  0  0
 13 14  1  0  0  0  0
 14 15  1  0  0  0  0
 15 19  1  0  0  0  0
 16 21  1  6  0  0  0
 16 15  1  0  0  0  0
 16 24  1  0  0  0  0
 20 15  1  0  0  0  0
 22 23  1  0  0  0  0
 22 12  1  0  0  0  0
 24 25  1  0  0  0  0
 26 27  2  0  0  0  0
 26 28  1  0  0  0  0
 28 29  1  0  0  0  0
 28  1  1  0  0  0  0
 30 35  1  0  0  0  0
 30 26  1  0  0  0  0
 31 30  2  0  0  0  0
 32 33  2  0  0  0  0
 32 31  1  0  0  0  0
 33 34  1  0  0  0  0
 34 40  1  0  0  0  0
 34 35  2  0  0  0  0
 36 31  1  0  0  0  0
 37 32  1  0  0  0  0
 38 33  1  0  0  0  0
 39 40  2  0  0  0  0
 39 49  1  0  0  0  0
 40 41  1  0  0  0  0
 41 42  1  0  0  0  0
 41 43  2  0  0  0  0
 43 44  1  0  0  0  0
 44 50  1  0  0  0  0
 44 45  1  0  0  0  0
 45 46  1  0  0  0  0
 47 45  2  0  0  0  0
 48 43  1  0  0  0  0
 48 47  1  0  0  0  0
 49 48  2  0  0  0  0
M  END
>  <minimizedAffinity>
-7.49959517

$$$$

 OpenBabel03242521473D

 50 54  0  0  1  0  0  0  0  0999 V2000
   38.0060   31.7310   38.7920 C   0  0  0  0  0  0  0  0  0  0  0  0
   38.5510   31.4350   37.8900 H   0  0  0  0  0  0  0  0  0  0  0  0
   36.9510   32.0190   38.6110 H   0  0  0  0  0  0  0  0  0  0  0  0
   38.7520   32.8660   39.4530 C   0  0  0  0  0  0  0  0  0  0  0  0
   40.1530   32.7920   39.5100 C   0  0  0  0  0  0  0  0  0  0  0  0
   40.8680   33.8460   40.1140 C   0  0  0  0  0  0  0  0  0  0  0  0
   40.1730   34.8590   40.6010 N   0  0  0  0  0  0  0  0  0  0  0  0
   38.8220   34.9140   40.5400 C   0  0  0  0  0  0  0  0  0  0  0  0
   38.1040   33.9120   39.9620 N   0  0  0  0  0  0  0  0  0  0  0  0
   40.6040   31.9290   39.0860 H   0  0  0  0  0  0  0  0  0  0  0  0
   38.2510   35.7460   40.9410 H   0  0  0  0  0  0  0  0  0  0  0  0
   43.0500   34.5620   41.0690 C   0  0  2  0  0  0  0  0  0  0  0  0
   42.3140   33.6950   40.1340 C   0  0  2  0  0  0  0  0  0  0  0  0
   42.9470   34.0260   38.8800 O   0  0  0  0  0  0  0  0  0  0  0  0
   44.2860   33.8480   39.2220 C   0  0  0  0  0  0  0  0  0  0  0  0
   44.4870   34.1570   40.6680 C   0  0  1  0  0  0  0  0  0  0  0  0
   43.0120   35.6510   40.7780 H   0  0  0  0  0  0  0  0  0  0  0  0
   42.6060   32.6260   40.2980 H   0  0  0  0  0  0  0  0  0  0  0  0
   44.8720   34.5790   38.6270 H   0  0  0  0  0  0  0  0  0  0  0  0
   44.6020   32.8210   38.9450 H   0  0  0  0  0  0  0  0  0  0  0  0
   44.8410   33.2960   41.2390 H   0  0  0  0  0  0  0  0  0  0  0  0
   42.7710   34.3990   42.3790 O   0  0  0  0  0  0  0  0  0  0  0  0
   42.9800   35.2220   42.9190 H   0  0  0  0  0  0  0  0  0  0  0  0
   45.3410   35.2390   40.8960 O   0  0  0  0  0  0  0  0  0  0  0  0
   46.1230   35.1920   40.2820 H   0  0  0  0  0  0  0  0  0  0  0  0
   37.1820   30.2750   40.7740 C   0  0  0  0  0  0  0  0  0  0  0  0
   36.1790   31.0280   40.8900 O   0  0  0  0  0  0  0  0  0  0  0  0
   38.0650   30.6090   39.7210 N   0  0  0  0  0  0  0  0  0  0  0  0
   38.9010   29.9810   39.5480 H   0  0  0  0  0  0  0  0  0  0  0  0
   37.4630   29.1250   41.6340 C   0  0  0  0  0  0  0  0  0  0  0  0
   36.4600   28.2750   41.9660 C   0  0  0  0  0  0  0  0  0  0  0  0
   36.8170   27.2050   42.7910 C   0  0  0  0  0  0  0  0  0  0  0  0
   38.1010   26.9850   43.2670 C   0  0  0  0  0  0  0  0  0  0  0  0
   39.0400   27.8900   42.8800 C   0  0  0  0  0  0  0  0  0  0  0  0
   38.7220   28.9170   42.0950 N   0  0  0  0  0  0  0  0  0  0  0  0
   35.4330   28.3690   41.6440 H   0  0  0  0  0  0  0  0  0  0  0  0
   36.0370   26.5000   43.0800 H   0  0  0  0  0  0  0  0  0  0  0  0
   38.2810   26.1470   43.8880 H   0  0  0  0  0  0  0  0  0  0  0  0
   40.8900   26.7410   44.1210 C   0  0  0  0  0  3  0  0  0  0  0  0
   40.4240   27.7550   43.3210 C   0  0  0  0  0  0  0  0  0  0  0  0
   41.3940   28.6780   42.9450 C   0  0  0  0  0  0  0  0  0  0  0  0
   41.0800   29.5120   42.3040 H   0  0  0  0  0  0  0  0  0  0  0  0
   42.7050   28.6180   43.3170 C   0  0  0  0  0  0  0  0  0  0  0  0
   43.7770   29.4140   43.0520 N   0  0  0  0  0  0  0  0  0  0  0  0
   44.8560   28.8930   43.6770 C   0  0  0  0  0  0  0  0  0  0  0  0
   45.8720   29.2950   43.6620 H   0  0  0  0  0  0  0  0  0  0  0  0
   44.4510   27.7680   44.3310 N   0  0  0  0  0  0  0  0  0  0  0  0
   43.1330   27.5860   44.1200 C   0  0  0  0  0  0  0  0  0  0  0  0
   42.2010   26.6260   44.5310 C   0  0  0  0  0  3  0  0  0  0  0  0
   43.7450   30.2780   42.4630 H   0  0  0  0  0  0  0  0  0  0  0  0
  1  4  1  0  0  0  0
  1 28  1  0  0  0  0
  2  1  1  0  0  0  0
  3  1  1  0  0  0  0
  4  5  2  0  0  0  0
  4  9  1  0  0  0  0
  5  6  1  0  0  0  0
  6 13  1  0  0  0  0
  6  7  2  0  0  0  0
  8  7  1  0  0  0  0
  8 11  1  0  0  0  0
  9  8  2  0  0  0  0
 10  5  1  0  0  0  0
 12 17  1  6  0  0  0
 12 22  1  0  0  0  0
 13 18  1  1  0  0  0
 13 12  1  0  0  0  0
 14 15  1  0  0  0  0
 14 13  1  0  0  0  0
 15 16  1  0  0  0  0
 16 24  1  0  0  0  0
 16 12  1  0  0  0  0
 16 21  1  1  0  0  0
 19 15  1  0  0  0  0
 20 15  1  0  0  0  0
 22 23  1  0  0  0  0
 25 24  1  0  0  0  0
 26 27  2  0  0  0  0
 26 30  1  0  0  0  0
 28 26  1  0  0  0  0
 29 28  1  0  0  0  0
 30 31  2  0  0  0  0
 30 35  1  0  0  0  0
 31 32  1  0  0  0  0
 32 37  1  0  0  0  0
 32 33  2  0  0  0  0
 33 38  1  0  0  0  0
 34 33  1  0  0  0  0
 34 40  1  0  0  0  0
 35 34  2  0  0  0  0
 36 31  1  0  0  0  0
 39 49  1  0  0  0  0
 40 39  2  0  0  0  0
 41 43  2  0  0  0  0
 41 40  1  0  0  0  0
 42 41  1  0  0  0  0
 43 48  1  0  0  0  0
 44 43  1  0  0  0  0
 44 45  1  0  0  0  0
 45 47  2  0  0  0  0
 46 45  1  0  0  0  0
 48 47  1  0  0  0  0
 48 49  2  0  0  0  0
 50 44  1  0  0  0  0
M  END
>  <minimizedAffinity>
-7.4086709

$$$$

 OpenBabel03242521473D

 50 54  0  0  1  0  0  0  0  0999 V2000
   37.5990   34.2960   39.7660 C   0  0  0  0  0  0  0  0  0  0  0  0
   37.5420   34.2500   38.6740 H   0  0  0  0  0  0  0  0  0  0  0  0
   36.8870   35.0080   40.2280 H   0  0  0  0  0  0  0  0  0  0  0  0
   39.0170   34.6410   40.1580 C   0  0  0  0  0  0  0  0  0  0  0  0
   39.9600   33.6030   40.2130 C   0  0  0  0  0  0  0  0  0  0  0  0
   41.2900   33.9070   40.5670 C   0  0  0  0  0  0  0  0  0  0  0  0
   41.5810   35.1680   40.8330 N   0  0  0  0  0  0  0  0  0  0  0  0
   40.6590   36.1570   40.7780 C   0  0  0  0  0  0  0  0  0  0  0  0
   39.3670   35.8950   40.4380 N   0  0  0  0  0  0  0  0  0  0  0  0
   39.6110   32.6270   39.9780 H   0  0  0  0  0  0  0  0  0  0  0  0
   40.8980   37.1930   40.9970 H   0  0  0  0  0  0  0  0  0  0  0  0
   42.6090   32.3030   41.9350 C   0  0  2  0  0  0  0  0  0  0  0  0
   42.2050   32.7780   40.6010 C   0  0  2  0  0  0  0  0  0  0  0  0
   43.4870   33.0530   39.9980 O   0  0  0  0  0  0  0  0  0  0  0  0
   44.1390   31.8440   40.2330 C   0  0  0  0  0  0  0  0  0  0  0  0
   43.6290   31.2290   41.4940 C   0  0  1  0  0  0  0  0  0  0  0  0
   43.2560   33.0440   42.4860 H   0  0  0  0  0  0  0  0  0  0  0  0
   41.8120   31.9210   39.9970 H   0  0  0  0  0  0  0  0  0  0  0  0
   45.2150   32.0790   40.3720 H   0  0  0  0  0  0  0  0  0  0  0  0
   44.0240   31.1880   39.3460 H   0  0  0  0  0  0  0  0  0  0  0  0
   43.1530   30.2600   41.3280 H   0  0  0  0  0  0  0  0  0  0  0  0
   41.6200   31.8390   42.7270 O   0  0  0  0  0  0  0  0  0  0  0  0
   41.8560   31.8930   43.7040 H   0  0  0  0  0  0  0  0  0  0  0  0
   44.6030   31.0970   42.4860 O   0  0  0  0  0  0  0  0  0  0  0  0
   45.4580   30.7800   42.0860 H   0  0  0  0  0  0  0  0  0  0  0  0
   37.1500   31.7510   39.5430 C   0  0  0  0  0  0  0  0  0  0  0  0
   37.2410   31.8610   38.2910 O   0  0  0  0  0  0  0  0  0  0  0  0
   37.3550   32.9490   40.2670 N   0  0  0  0  0  0  0  0  0  0  0  0
   37.3350   32.9050   41.3260 H   0  0  0  0  0  0  0  0  0  0  0  0
   36.8570   30.5030   40.2490 C   0  0  0  0  0  0  0  0  0  0  0  0
   35.6230   29.9520   40.1540 C   0  0  0  0  0  0  0  0  0  0  0  0
   35.4310   28.7620   40.8610 C   0  0  0  0  0  0  0  0  0  0  0  0
   36.4100   28.1460   41.6250 C   0  0  0  0  0  0  0  0  0  0  0  0
   37.6170   28.7720   41.6600 C   0  0  0  0  0  0  0  0  0  0  0  0
   37.8210   29.9080   40.9950 N   0  0  0  0  0  0  0  0  0  0  0  0
   34.8010   30.3620   39.5840 H   0  0  0  0  0  0  0  0  0  0  0  0
   34.4500   28.2890   40.8080 H   0  0  0  0  0  0  0  0  0  0  0  0
   36.1770   27.2440   42.1280 H   0  0  0  0  0  0  0  0  0  0  0  0
   38.6300   27.0820   43.2090 C   0  0  0  0  0  3  0  0  0  0  0  0
   38.7200   28.2110   42.4340 C   0  0  0  0  0  0  0  0  0  0  0  0
   39.9760   28.8070   42.4330 C   0  0  0  0  0  0  0  0  0  0  0  0
   40.1080   29.7150   41.8300 H   0  0  0  0  0  0  0  0  0  0  0  0
   41.0530   28.3420   43.1300 C   0  0  0  0  0  0  0  0  0  0  0  0
   42.3360   28.7820   43.2490 N   0  0  0  0  0  0  0  0  0  0  0  0
   42.9980   27.9410   44.0740 C   0  0  0  0  0  0  0  0  0  0  0  0
   44.0450   28.0160   44.3740 H   0  0  0  0  0  0  0  0  0  0  0  0
   42.1210   26.9740   44.4670 N   0  0  0  0  0  0  0  0  0  0  0  0
   40.9240   27.2070   43.8960 C   0  0  0  0  0  0  0  0  0  0  0  0
   39.6810   26.5630   43.9350 C   0  0  0  0  0  3  0  0  0  0  0  0
   42.7200   29.6320   42.7730 H   0  0  0  0  0  0  0  0  0  0  0  0
  1  4  1  0  0  0  0
  1  3  1  0  0  0  0
  1 28  1  0  0  0  0
  2  1  1  0  0  0  0
  4  5  2  0  0  0  0
  4  9  1  0  0  0  0
  5  6  1  0  0  0  0
  6 13  1  0  0  0  0
  6  7  2  0  0  0  0
  8  7  1  0  0  0  0
  8 11  1  0  0  0  0
  9  8  2  0  0  0  0
 10  5  1  0  0  0  0
 12 17  1  1  0  0  0
 12 22  1  0  0  0  0
 13 18  1  6  0  0  0
 13 12  1  0  0  0  0
 14 15  1  0  0  0  0
 14 13  1  0  0  0  0
 15 19  1  0  0  0  0
 15 16  1  0  0  0  0
 16 21  1  6  0  0  0
 16 12  1  0  0  0  0
 16 24  1  0  0  0  0
 20 15  1  0  0  0  0
 22 23  1  0  0  0  0
 25 24  1  0  0  0  0
 26 30  1  0  0  0  0
 26 28  1  0  0  0  0
 27 26  2  0  0  0  0
 28 29  1  0  0  0  0
 30 35  1  0  0  0  0
 31 30  2  0  0  0  0
 31 32  1  0  0  0  0
 32 33  2  0  0  0  0
 33 34  1  0  0  0  0
 33 38  1  0  0  0  0
 34 40  1  0  0  0  0
 35 34  2  0  0  0  0
 36 31  1  0  0  0  0
 37 32  1  0  0  0  0
 39 49  1  0  0  0  0
 40 39  2  0  0  0  0
 41 40  1  0  0  0  0
 41 43  2  0  0  0  0
 42 41  1  0  0  0  0
 43 44  1  0  0  0  0
 43 48  1  0  0  0  0
 44 45  1  0  0  0  0
 45 46  1  0  0  0  0
 45 47  2  0  0  0  0
 48 49  2  0  0  0  0
 48 47  1  0  0  0  0
 50 44  1  0  0  0  0
M  END
>  <minimizedAffinity>
-7.37793255

$$$$
