
 OpenBabel03242523303D

 25 27  0  0  0  0  0  0  0  0999 V2000
   46.6880   31.2200   47.7200 S   0  0  0  0  0  0  0  0  0  0  0  0
   47.1230   32.3100   45.1280 C   0  0  0  0  0  3  0  0  0  0  0  0
   46.4730   32.3470   46.3440 C   0  0  0  0  0  0  0  0  0  0  0  0
   45.5330   33.3380   46.6050 C   0  0  0  0  0  0  0  0  0  0  0  0
   44.9680   33.4490   47.5360 H   0  0  0  0  0  0  0  0  0  0  0  0
   45.2300   34.3010   45.6630 C   0  0  0  0  0  0  0  0  0  0  0  0
   44.4080   35.3620   45.5810 N   0  0  0  0  0  0  0  0  0  0  0  0
   44.5110   35.9800   44.3940 C   0  0  0  0  0  0  0  0  0  0  0  0
   43.9270   36.8510   44.1470 H   0  0  0  0  0  0  0  0  0  0  0  0
   45.4390   35.2690   43.7070 N   0  0  0  0  0  0  0  0  0  0  0  0
   45.8920   34.2450   44.4540 C   0  0  0  0  0  0  0  0  0  0  0  0
   46.8270   33.2670   44.1800 C   0  0  0  0  0  3  0  0  0  0  0  0
   43.7770   35.6370   46.3820 H   0  0  0  0  0  0  0  0  0  0  0  0
   47.8690   29.9200   47.2230 C   0  0  0  0  0  0  0  0  0  0  0  0
   48.2100   30.0810   46.1800 H   0  0  0  0  0  0  0  0  0  0  0  0
   47.3460   28.9510   47.3590 H   0  0  0  0  0  0  0  0  0  0  0  0
   51.2030   29.4690   48.7830 C   0  0  0  0  0  0  0  0  0  0  0  0
   51.0020   30.0950   50.0210 C   0  0  0  0  0  0  0  0  0  0  0  0
   49.7490   30.6590   50.3090 C   0  0  0  0  0  0  0  0  0  0  0  0
   48.7520   30.5830   49.3740 N   0  0  0  0  0  0  0  0  0  0  0  0
   48.9890   29.9660   48.1850 C   0  0  0  0  0  0  0  0  0  0  0  0
   50.1910   29.4270   47.9110 N   0  0  0  0  0  0  0  0  0  0  0  0
   52.1580   29.0480   48.5850 H   0  0  0  0  0  0  0  0  0  0  0  0
   51.7630   30.1760   50.7870 H   0  0  0  0  0  0  0  0  0  0  0  0
   49.5440   31.1560   51.2560 H   0  0  0  0  0  0  0  0  0  0  0  0
  2  3  1  0  0  0  0
  3  4  2  0  0  0  0
  3  1  1  0  0  0  0
  4  5  1  0  0  0  0
  6  4  1  0  0  0  0
  7  6  1  0  0  0  0
  7 13  1  0  0  0  0
  8  7  1  0  0  0  0
  9  8  1  0  0  0  0
 10  8  2  0  0  0  0
 10 11  1  0  0  0  0
 11  6  2  0  0  0  0
 12 11  1  0  0  0  0
 12  2  2  0  0  0  0
 14 16  1  0  0  0  0
 14  1  1  0  0  0  0
 14 21  1  0  0  0  0
 15 14  1  0  0  0  0
 17 18  1  0  0  0  0
 18 19  2  0  0  0  0
 18 24  1  0  0  0  0
 19 25  1  0  0  0  0
 20 19  1  0  0  0  0
 21 20  2  0  0  0  0
 22 21  1  0  0  0  0
 22 17  2  0  0  0  0
 23 17  1  0  0  0  0
M  END
>  <minimizedAffinity>
-4.67773199

>  <minimizedRMSD>
7.50472546

$$$$
