
 OpenBabel03242516293D

 49 54  0  0  0  0  0  0  0  0999 V2000
   49.8830   30.3580   49.6890 C   0  0  0  0  0  0  0  0  0  0  0  0
   50.0730   31.6320   50.1610 N   0  0  0  0  0  0  0  0  0  0  0  0
   50.7960   31.9170   51.2410 C   0  0  0  0  0  0  0  0  0  0  0  0
   51.3610   30.8940   51.8920 N   0  0  0  0  0  0  0  0  0  0  0  0
   51.2250   29.6170   51.4990 C   0  0  0  0  0  0  0  0  0  0  0  0
   51.8190   28.5620   52.1710 C   0  0  0  0  0  0  0  0  0  0  0  0
   51.6660   27.2850   51.7410 C   0  0  0  0  0  0  0  0  0  0  0  0
   50.9220   26.9990   50.6360 C   0  0  0  0  0  0  0  0  0  0  0  0
   50.3040   28.0380   49.9290 C   0  0  0  0  0  0  0  0  0  0  0  0
   50.4650   29.3230   50.3650 C   0  0  0  0  0  0  0  0  0  0  0  0
   50.8920   32.9500   51.5400 H   0  0  0  0  0  0  0  0  0  0  0  0
   52.4100   28.7570   53.0460 H   0  0  0  0  0  0  0  0  0  0  0  0
   52.1540   26.4890   52.3040 H   0  0  0  0  0  0  0  0  0  0  0  0
   50.8460   25.9570   50.3550 H   0  0  0  0  0  0  0  0  0  0  0  0
   49.4840   27.6250   48.7710 C   0  0  0  0  0  0  0  0  0  0  0  0
   48.4070   27.7740   48.8700 H   0  0  0  0  0  0  0  0  0  0  0  0
   49.9500   27.8420   47.7930 H   0  0  0  0  0  0  0  0  0  0  0  0
   50.4290   25.3450   48.0420 C   0  0  0  0  0  0  0  0  0  0  0  0
   49.4470   26.1040   48.6900 C   0  0  0  0  0  0  0  0  0  0  0  0
   48.4310   25.3560   49.2510 C   0  0  0  0  0  0  0  0  0  0  0  0
   47.6450   25.8920   49.7650 H   0  0  0  0  0  0  0  0  0  0  0  0
   48.3660   23.9830   49.1930 C   0  0  0  0  0  0  0  0  0  0  0  0
   47.4460   23.1280   49.6890 N   0  0  0  0  0  0  0  0  0  0  0  0
   47.8990   21.9150   49.3280 C   0  0  0  0  0  0  0  0  0  0  0  0
   47.4040   20.9930   49.5600 H   0  0  0  0  0  0  0  0  0  0  0  0
   49.0640   21.9970   48.6280 N   0  0  0  0  0  0  0  0  0  0  0  0
   49.3670   23.2990   48.5380 C   0  0  0  0  0  0  0  0  0  0  0  0
   50.4150   23.9730   47.9520 C   0  0  0  0  0  0  0  0  0  0  0  0
   46.5650   23.3150   50.2340 H   0  0  0  0  0  0  0  0  0  0  0  0
   48.9740   30.0490   48.2590 S   0  0  0  0  0  0  0  0  0  0  0  0
   46.1370   32.5920   47.0140 C   0  0  0  0  0  0  0  0  0  0  0  0
   47.2790   31.8190   47.1160 C   0  0  0  0  0  0  0  0  0  0  0  0
   47.4940   30.9850   48.1750 C   0  0  0  0  0  0  0  0  0  0  0  0
   46.5580   30.9000   49.1810 C   0  0  0  0  0  0  0  0  0  0  0  0
   45.4130   31.6380   49.1380 C   0  0  0  0  0  0  0  0  0  0  0  0
   45.2280   32.4700   48.0510 C   0  0  0  0  0  0  0  0  0  0  0  0
   48.0020   31.9000   46.3130 H   0  0  0  0  0  0  0  0  0  0  0  0
   46.7070   30.2480   50.0270 H   0  0  0  0  0  0  0  0  0  0  0  0
   44.6330   31.6120   49.9080 H   0  0  0  0  0  0  0  0  0  0  0  0
   44.3310   33.0780   47.9720 H   0  0  0  0  0  0  0  0  0  0  0  0
   44.7450   35.2740   44.9720 C   0  0  0  0  0  0  0  0  0  0  0  0
   45.4750   35.1950   43.7740 C   0  0  0  0  0  0  0  0  0  0  0  0
   46.4560   34.2130   43.6640 C   0  0  0  0  0  0  0  0  0  0  0  0
   46.6860   33.3540   44.7100 N   0  0  0  0  0  0  0  0  0  0  0  0
   45.9420   33.4750   45.8610 C   0  0  0  0  0  0  0  0  0  0  0  0
   44.9780   34.4250   45.9970 N   0  0  0  0  0  0  0  0  0  0  0  0
   44.0030   36.0590   44.9860 H   0  0  0  0  0  0  0  0  0  0  0  0
   45.3430   35.8300   42.9310 H   0  0  0  0  0  0  0  0  0  0  0  0
   47.0880   34.0290   42.8220 H   0  0  0  0  0  0  0  0  0  0  0  0
  1  2  2  0  0  0  0
  1 10  1  0  0  0  0
  2  3  1  0  0  0  0
  3 11  1  0  0  0  0
  3  4  2  0  0  0  0
  5  4  1  0  0  0  0
  5  6  1  0  0  0  0
  6 12  1  0  0  0  0
  7  6  2  0  0  0  0
  7 13  1  0  0  0  0
  8  7  1  0  0  0  0
  9 10  1  0  0  0  0
  9  8  2  0  0  0  0
 10  5  2  0  0  0  0
 14  8  1  0  0  0  0
 15 16  1  0  0  0  0
 15  9  1  0  0  0  0
 17 15  1  0  0  0  0
 18 19  1  0  0  0  0
 19 15  1  0  0  0  0
 19 20  2  0  0  0  0
 20 21  1  0  0  0  0
 22 20  1  0  0  0  0
 22 23  1  0  0  0  0
 23 29  1  0  0  0  0
 24 25  1  0  0  0  0
 24 23  1  0  0  0  0
 26 24  2  0  0  0  0
 27 26  1  0  0  0  0
 27 22  2  0  0  0  0
 28 18  2  0  0  0  0
 28 27  1  0  0  0  0
 30  1  1  0  0  0  0
 31 32  2  0  0  0  0
 31 36  1  0  0  0  0
 32 33  1  0  0  0  0
 33 30  1  0  0  0  0
 33 34  2  0  0  0  0
 34 38  1  0  0  0  0
 35 34  1  0  0  0  0
 35 39  1  0  0  0  0
 36 35  2  0  0  0  0
 37 32  1  0  0  0  0
 40 36  1  0  0  0  0
 41 47  1  0  0  0  0
 41 46  1  0  0  0  0
 42 41  2  0  0  0  0
 43 42  1  0  0  0  0
 43 44  2  0  0  0  0
 44 45  1  0  0  0  0
 45 46  2  0  0  0  0
 45 31  1  0  0  0  0
 48 42  1  0  0  0  0
 49 43  1  0  0  0  0
M  END
>  <minimizedAffinity>
-6.96114016

>  <minimizedRMSD>
0.28837958

$$$$
