
 OpenBabel03252509043D

 51 54  0  0  1  0  0  0  0  0999 V2000
   47.1500   34.1600   43.0740 N   0  0  0  0  0  0  0  0  0  0  0  0
   46.6510   35.3520   42.5050 C   0  0  0  0  0  0  0  0  0  0  0  0
   45.1590   35.5590   42.6980 C   0  0  0  0  0  0  0  0  0  0  0  0
   44.6440   35.0660   44.0230 C   0  0  0  0  0  0  0  0  0  0  0  0
   45.7510   34.5040   44.8840 C   0  0  0  0  0  0  0  0  0  0  0  0
   46.4220   33.4110   43.9630 C   0  0  2  0  0  0  0  0  0  0  0  0
   46.8430   35.5040   41.4390 H   0  0  0  0  0  0  0  0  0  0  0  0
   47.1460   36.2250   43.0160 H   0  0  0  0  0  0  0  0  0  0  0  0
   44.5740   35.0660   41.8810 H   0  0  0  0  0  0  0  0  0  0  0  0
   44.9230   36.6420   42.6090 H   0  0  0  0  0  0  0  0  0  0  0  0
   44.1650   35.8970   44.6190 H   0  0  0  0  0  0  0  0  0  0  0  0
   43.8600   34.2890   43.9260 H   0  0  0  0  0  0  0  0  0  0  0  0
   46.4990   35.2550   45.1720 H   0  0  0  0  0  0  0  0  0  0  0  0
   45.3150   33.9330   45.7180 H   0  0  0  0  0  0  0  0  0  0  0  0
   45.5880   32.8000   43.5710 H   0  0  0  0  0  0  0  0  0  0  0  0
   48.1610   33.5040   42.2790 C   0  0  0  0  0  0  0  0  0  0  0  0
   48.7140   34.3140   41.7550 H   0  0  0  0  0  0  0  0  0  0  0  0
   48.9370   32.9770   42.8840 H   0  0  0  0  0  0  0  0  0  0  0  0
   47.4660   32.6370   41.2800 C   0  0  0  0  0  0  0  0  0  0  0  0
   47.5740   31.5820   41.5290 H   0  0  0  0  0  0  0  0  0  0  0  0
   46.3660   32.8540   41.2310 H   0  0  0  0  0  0  0  0  0  0  0  0
   49.3520   32.2280   38.0570 C   0  0  0  0  0  0  0  0  0  0  0  0
   48.8280   31.9780   39.3400 C   0  0  0  0  0  0  0  0  0  0  0  0
   48.0120   32.9140   39.9260 C   0  0  0  0  0  0  0  0  0  0  0  0
   47.7540   34.0280   39.2380 N   0  0  0  0  0  0  0  0  0  0  0  0
   48.2530   34.2630   38.0170 C   0  0  0  0  0  0  0  0  0  0  0  0
   49.0520   33.3810   37.4100 N   0  0  0  0  0  0  0  0  0  0  0  0
   49.9980   31.4990   37.5830 H   0  0  0  0  0  0  0  0  0  0  0  0
   49.0960   31.0440   39.8200 H   0  0  0  0  0  0  0  0  0  0  0  0
   47.9430   35.2160   37.6030 H   0  0  0  0  0  0  0  0  0  0  0  0
   47.2070   32.7380   44.8800 O   0  0  0  0  0  0  0  0  0  0  0  0
   46.0270   30.5540   43.9100 O   0  0  0  0  0  0  0  0  0  0  0  0
   46.6690   31.1620   45.1540 P   0  0  2  0  0  0  0  0  0  0  0  0
   45.3830   31.3060   46.2810 O   0  0  0  0  0  0  0  0  0  0  0  0
   44.6720   30.6680   46.0950 H   0  0  0  0  0  0  0  0  0  0  0  0
   47.8150   30.1740   45.8290 O   0  0  0  0  0  0  0  0  0  0  0  0
   47.7120   28.9100   45.2710 C   0  0  0  0  0  0  0  0  0  0  0  0
   46.7180   28.5140   45.5290 H   0  0  0  0  0  0  0  0  0  0  0  0
   47.8840   28.8840   44.1920 H   0  0  0  0  0  0  0  0  0  0  0  0
   49.7850   27.4620   45.2100 C   0  0  0  0  0  3  0  0  0  0  0  0
   48.7730   28.0690   45.9290 C   0  0  0  0  0  0  0  0  0  0  0  0
   48.6910   27.9250   47.3130 C   0  0  0  0  0  0  0  0  0  0  0  0
   47.8860   28.4090   47.8800 H   0  0  0  0  0  0  0  0  0  0  0  0
   49.6310   27.1690   47.9730 C   0  0  0  0  0  0  0  0  0  0  0  0
   49.7270   26.9090   49.2950 N   0  0  0  0  0  0  0  0  0  0  0  0
   50.8120   26.1220   49.4610 C   0  0  0  0  0  0  0  0  0  0  0  0
   51.1760   25.7300   50.3960 H   0  0  0  0  0  0  0  0  0  0  0  0
   51.3700   25.9090   48.2340 N   0  0  0  0  0  0  0  0  0  0  0  0
   50.6590   26.5450   47.2900 C   0  0  0  0  0  0  0  0  0  0  0  0
   50.7230   26.7000   45.9140 C   0  0  0  0  0  3  0  0  0  0  0  0
   49.1310   27.2100   50.1070 H   0  0  0  0  0  0  0  0  0  0  0  0
  1  6  1  0  0  0  0
  2  3  1  0  0  0  0
  2  8  1  0  0  0  0
  2  1  1  0  0  0  0
  3  4  1  0  0  0  0
  4 11  1  0  0  0  0
  4  5  1  0  0  0  0
  5 13  1  0  0  0  0
  5 14  1  0  0  0  0
  6 15  1  6  0  0  0
  6 31  1  0  0  0  0
  6  5  1  0  0  0  0
  7  2  1  0  0  0  0
  9  3  1  0  0  0  0
 10  3  1  0  0  0  0
 12  4  1  0  0  0  0
 16 18  1  0  0  0  0
 16  1  1  0  0  0  0
 17 16  1  0  0  0  0
 19 20  1  0  0  0  0
 19 16  1  0  0  0  0
 21 19  1  0  0  0  0
 22 23  1  0  0  0  0
 23 29  1  0  0  0  0
 23 24  2  0  0  0  0
 24 19  1  0  0  0  0
 25 24  1  0  0  0  0
 26 25  2  0  0  0  0
 27 26  1  0  0  0  0
 27 22  2  0  0  0  0
 28 22  1  0  0  0  0
 30 26  1  0  0  0  0
 31 33  1  0  0  0  0
 33 32  2  6  0  0  0
 33 36  1  0  0  0  0
 33 34  1  0  0  0  0
 35 34  1  0  0  0  0
 37 38  1  0  0  0  0
 37 36  1  0  0  0  0
 37 41  1  0  0  0  0
 39 37  1  0  0  0  0
 40 50  2  0  0  0  0
 40 41  1  0  0  0  0
 41 42  2  0  0  0  0
 42 43  1  0  0  0  0
 42 44  1  0  0  0  0
 44 45  1  0  0  0  0
 45 46  1  0  0  0  0
 45 51  1  0  0  0  0
 46 47  1  0  0  0  0
 48 46  2  0  0  0  0
 49 44  2  0  0  0  0
 49 48  1  0  0  0  0
 50 49  1  0  0  0  0
M  END
>  <minimizedAffinity>
-3.9594512

>  <minimizedRMSD>
0.0810288861

$$$$
