
 OpenBabel03252509043D

 51 54  0  0  1  0  0  0  0  0999 V2000
   47.1490   34.1650   43.0780 N   0  0  0  0  0  0  0  0  0  0  0  0
   46.6550   35.3200   42.4320 C   0  0  0  0  0  0  0  0  0  0  0  0
   45.1610   35.5330   42.5880 C   0  0  0  0  0  0  0  0  0  0  0  0
   44.6250   35.1180   43.9320 C   0  0  0  0  0  0  0  0  0  0  0  0
   45.7200   34.6120   44.8420 C   0  0  0  0  0  0  0  0  0  0  0  0
   46.4080   33.4680   43.9980 C   0  0  2  0  0  0  0  0  0  0  0  0
   46.8640   35.4100   41.3620 H   0  0  0  0  0  0  0  0  0  0  0  0
   47.1410   36.2240   42.8980 H   0  0  0  0  0  0  0  0  0  0  0  0
   44.5900   34.9910   41.7920 H   0  0  0  0  0  0  0  0  0  0  0  0
   44.9230   36.6080   42.4310 H   0  0  0  0  0  0  0  0  0  0  0  0
   44.1340   35.9800   44.4700 H   0  0  0  0  0  0  0  0  0  0  0  0
   43.8450   34.3340   43.8680 H   0  0  0  0  0  0  0  0  0  0  0  0
   46.4600   35.3810   45.0970 H   0  0  0  0  0  0  0  0  0  0  0  0
   45.2710   34.0890   45.7010 H   0  0  0  0  0  0  0  0  0  0  0  0
   45.5820   32.8320   43.6290 H   0  0  0  0  0  0  0  0  0  0  0  0
   48.1740   33.4680   42.3400 C   0  0  0  0  0  0  0  0  0  0  0  0
   48.7330   34.2460   41.7770 H   0  0  0  0  0  0  0  0  0  0  0  0
   48.9410   32.9800   42.9870 H   0  0  0  0  0  0  0  0  0  0  0  0
   47.4970   32.5400   41.3840 C   0  0  0  0  0  0  0  0  0  0  0  0
   47.6060   31.5020   41.6960 H   0  0  0  0  0  0  0  0  0  0  0  0
   46.3980   32.7480   41.3060 H   0  0  0  0  0  0  0  0  0  0  0  0
   49.4330   31.9510   38.2180 C   0  0  0  0  0  0  0  0  0  0  0  0
   48.8910   31.7740   39.5060 C   0  0  0  0  0  0  0  0  0  0  0  0
   48.0620   32.7390   40.0240 C   0  0  0  0  0  0  0  0  0  0  0  0
   47.8090   33.8090   39.2670 N   0  0  0  0  0  0  0  0  0  0  0  0
   48.3260   33.9740   38.0430 C   0  0  0  0  0  0  0  0  0  0  0  0
   49.1370   33.0620   37.5000 N   0  0  0  0  0  0  0  0  0  0  0  0
   50.0880   31.1990   37.7970 H   0  0  0  0  0  0  0  0  0  0  0  0
   49.1550   30.8720   40.0430 H   0  0  0  0  0  0  0  0  0  0  0  0
   48.0170   34.9000   37.5680 H   0  0  0  0  0  0  0  0  0  0  0  0
   47.1790   32.8530   44.9660 O   0  0  0  0  0  0  0  0  0  0  0  0
   46.0320   30.6010   44.1210 O   0  0  0  0  0  0  0  0  0  0  0  0
   46.6290   31.3010   45.3380 P   0  0  2  0  0  0  0  0  0  0  0  0
   45.3030   31.5290   46.4030 O   0  0  0  0  0  0  0  0  0  0  0  0
   44.5980   30.8790   46.2400 H   0  0  0  0  0  0  0  0  0  0  0  0
   47.7480   30.3680   46.1260 O   0  0  0  0  0  0  0  0  0  0  0  0
   47.6570   29.0640   45.6690 C   0  0  0  0  0  0  0  0  0  0  0  0
   46.6490   28.6960   45.9180 H   0  0  0  0  0  0  0  0  0  0  0  0
   47.8710   28.9490   44.6040 H   0  0  0  0  0  0  0  0  0  0  0  0
   50.0340   28.3570   46.1630 C   0  0  0  0  0  3  0  0  0  0  0  0
   48.6820   28.2730   46.4360 C   0  0  0  0  0  0  0  0  0  0  0  0
   48.2050   27.4410   47.4490 C   0  0  0  0  0  0  0  0  0  0  0  0
   47.1310   27.3780   47.6620 H   0  0  0  0  0  0  0  0  0  0  0  0
   49.0940   26.6930   48.1850 C   0  0  0  0  0  0  0  0  0  0  0  0
   48.8370   25.8360   49.1960 N   0  0  0  0  0  0  0  0  0  0  0  0
   50.0260   25.3420   49.6030 C   0  0  0  0  0  0  0  0  0  0  0  0
   50.1820   24.6290   50.3960 H   0  0  0  0  0  0  0  0  0  0  0  0
   51.0010   25.9050   48.8320 N   0  0  0  0  0  0  0  0  0  0  0  0
   50.4530   26.7480   47.9430 C   0  0  0  0  0  0  0  0  0  0  0  0
   50.9080   27.5810   46.9310 C   0  0  0  0  0  3  0  0  0  0  0  0
   47.9320   25.5450   49.6480 H   0  0  0  0  0  0  0  0  0  0  0  0
  1  6  1  0  0  0  0
  2  3  1  0  0  0  0
  2  8  1  0  0  0  0
  2  1  1  0  0  0  0
  3  4  1  0  0  0  0
  4 11  1  0  0  0  0
  4  5  1  0  0  0  0
  5 13  1  0  0  0  0
  5 14  1  0  0  0  0
  6 15  1  6  0  0  0
  6  5  1  0  0  0  0
  6 31  1  0  0  0  0
  7  2  1  0  0  0  0
  9  3  1  0  0  0  0
 10  3  1  0  0  0  0
 12  4  1  0  0  0  0
 16 18  1  0  0  0  0
 16  1  1  0  0  0  0
 17 16  1  0  0  0  0
 19 20  1  0  0  0  0
 19 16  1  0  0  0  0
 21 19  1  0  0  0  0
 22 23  1  0  0  0  0
 23 24  2  0  0  0  0
 23 29  1  0  0  0  0
 24 19  1  0  0  0  0
 25 24  1  0  0  0  0
 26 25  2  0  0  0  0
 27 26  1  0  0  0  0
 27 22  2  0  0  0  0
 28 22  1  0  0  0  0
 30 26  1  0  0  0  0
 31 33  1  0  0  0  0
 33 32  2  6  0  0  0
 33 36  1  0  0  0  0
 33 34  1  0  0  0  0
 35 34  1  0  0  0  0
 37 38  1  0  0  0  0
 37 36  1  0  0  0  0
 37 41  1  0  0  0  0
 39 37  1  0  0  0  0
 40 41  2  0  0  0  0
 40 50  1  0  0  0  0
 41 42  1  0  0  0  0
 42 43  1  0  0  0  0
 42 44  2  0  0  0  0
 44 45  1  0  0  0  0
 45 46  1  0  0  0  0
 45 51  1  0  0  0  0
 46 47  1  0  0  0  0
 48 46  2  0  0  0  0
 49 44  1  0  0  0  0
 49 48  1  0  0  0  0
 50 49  2  0  0  0  0
M  END
>  <minimizedAffinity>
-4.14195251

>  <minimizedRMSD>
0.547013104

$$$$
