
 OpenBabel03252509043D

 51 54  0  0  1  0  0  0  0  0999 V2000
   47.0410   34.3660   43.2350 N   0  0  0  0  0  0  0  0  0  0  0  0
   46.7000   34.9140   41.9780 C   0  0  0  0  0  0  0  0  0  0  0  0
   45.2640   34.6610   41.5550 C   0  0  0  0  0  0  0  0  0  0  0  0
   44.2830   34.6870   42.6950 C   0  0  0  0  0  0  0  0  0  0  0  0
   44.9550   34.9990   44.0110 C   0  0  0  0  0  0  0  0  0  0  0  0
   46.0940   33.9100   44.1160 C   0  0  2  0  0  0  0  0  0  0  0  0
   47.3230   34.6160   41.1290 H   0  0  0  0  0  0  0  0  0  0  0  0
   46.8070   36.0340   42.0370 H   0  0  0  0  0  0  0  0  0  0  0  0
   45.1670   33.6820   41.0200 H   0  0  0  0  0  0  0  0  0  0  0  0
   44.9600   35.4280   40.8100 H   0  0  0  0  0  0  0  0  0  0  0  0
   43.4900   35.4770   42.5450 H   0  0  0  0  0  0  0  0  0  0  0  0
   43.7250   33.7360   42.8130 H   0  0  0  0  0  0  0  0  0  0  0  0
   45.3990   36.0020   44.0430 H   0  0  0  0  0  0  0  0  0  0  0  0
   44.2690   34.7620   44.8390 H   0  0  0  0  0  0  0  0  0  0  0  0
   45.6020   32.9440   43.8980 H   0  0  0  0  0  0  0  0  0  0  0  0
   48.3720   33.8110   43.2960 C   0  0  0  0  0  0  0  0  0  0  0  0
   48.9780   34.3790   42.5570 H   0  0  0  0  0  0  0  0  0  0  0  0
   48.8850   33.9800   44.2730 H   0  0  0  0  0  0  0  0  0  0  0  0
   48.2870   32.3760   42.8870 C   0  0  0  0  0  0  0  0  0  0  0  0
   48.4740   31.7120   43.7300 H   0  0  0  0  0  0  0  0  0  0  0  0
   47.2750   32.1160   42.4800 H   0  0  0  0  0  0  0  0  0  0  0  0
   51.5350   31.9020   41.0590 C   0  0  0  0  0  0  0  0  0  0  0  0
   50.6020   32.1440   42.0860 C   0  0  0  0  0  0  0  0  0  0  0  0
   49.2610   32.1200   41.7940 C   0  0  0  0  0  0  0  0  0  0  0  0
   48.9060   31.8660   40.5320 N   0  0  0  0  0  0  0  0  0  0  0  0
   49.7960   31.6360   39.5570 C   0  0  0  0  0  0  0  0  0  0  0  0
   51.1100   31.6500   39.7960 N   0  0  0  0  0  0  0  0  0  0  0  0
   52.5960   31.9180   41.2740 H   0  0  0  0  0  0  0  0  0  0  0  0
   50.9870   32.3410   43.0780 H   0  0  0  0  0  0  0  0  0  0  0  0
   49.3360   31.4470   38.5930 H   0  0  0  0  0  0  0  0  0  0  0  0
   46.4690   34.0460   45.4390 O   0  0  0  0  0  0  0  0  0  0  0  0
   45.7810   31.4710   45.4400 O   0  0  0  0  0  0  0  0  0  0  0  0
   46.2200   32.6330   46.3270 P   0  0  2  0  0  0  0  0  0  0  0  0
   44.8620   32.9540   47.3270 O   0  0  0  0  0  0  0  0  0  0  0  0
   44.2960   32.1690   47.4230 H   0  0  0  0  0  0  0  0  0  0  0  0
   47.4860   32.2360   47.3190 O   0  0  0  0  0  0  0  0  0  0  0  0
   47.8000   30.8980   47.1440 C   0  0  0  0  0  0  0  0  0  0  0  0
   46.8570   30.3300   47.1790 H   0  0  0  0  0  0  0  0  0  0  0  0
   48.3590   30.6870   46.2290 H   0  0  0  0  0  0  0  0  0  0  0  0
   49.0700   31.4230   49.2670 C   0  0  0  0  0  3  0  0  0  0  0  0
   48.6630   30.5100   48.3140 C   0  0  0  0  0  0  0  0  0  0  0  0
   49.0440   29.1700   48.3960 C   0  0  0  0  0  0  0  0  0  0  0  0
   48.7180   28.4490   47.6360 H   0  0  0  0  0  0  0  0  0  0  0  0
   49.8320   28.7530   49.4430 C   0  0  0  0  0  0  0  0  0  0  0  0
   50.3020   27.5140   49.7010 N   0  0  0  0  0  0  0  0  0  0  0  0
   51.0290   27.5980   50.8360 C   0  0  0  0  0  0  0  0  0  0  0  0
   51.5450   26.7890   51.3230 H   0  0  0  0  0  0  0  0  0  0  0  0
   50.9940   28.8940   51.2620 N   0  0  0  0  0  0  0  0  0  0  0  0
   50.2590   29.6350   50.4170 C   0  0  0  0  0  0  0  0  0  0  0  0
   49.8710   30.9630   50.3170 C   0  0  0  0  0  3  0  0  0  0  0  0
   50.1840   26.6040   49.1850 H   0  0  0  0  0  0  0  0  0  0  0  0
  1 16  1  0  0  0  0
  1  6  1  0  0  0  0
  2  8  1  0  0  0  0
  2  1  1  0  0  0  0
  3  2  1  0  0  0  0
  3  4  1  0  0  0  0
  4 12  1  0  0  0  0
  4  5  1  0  0  0  0
  5 13  1  0  0  0  0
  5  6  1  0  0  0  0
  5 14  1  0  0  0  0
  6 15  1  6  0  0  0
  6 31  1  0  0  0  0
  7  2  1  0  0  0  0
  9  3  1  0  0  0  0
 10  3  1  0  0  0  0
 11  4  1  0  0  0  0
 16 18  1  0  0  0  0
 17 16  1  0  0  0  0
 19 16  1  0  0  0  0
 19 20  1  0  0  0  0
 21 19  1  0  0  0  0
 22 28  1  0  0  0  0
 22 23  1  0  0  0  0
 23 29  1  0  0  0  0
 24 23  2  0  0  0  0
 24 19  1  0  0  0  0
 25 24  1  0  0  0  0
 26 27  1  0  0  0  0
 26 25  2  0  0  0  0
 27 22  2  0  0  0  0
 30 26  1  0  0  0  0
 31 33  1  0  0  0  0
 33 32  2  6  0  0  0
 33 36  1  0  0  0  0
 33 34  1  0  0  0  0
 34 35  1  0  0  0  0
 37 38  1  0  0  0  0
 37 36  1  0  0  0  0
 37 41  1  0  0  0  0
 39 37  1  0  0  0  0
 40 50  1  0  0  0  0
 41 42  1  0  0  0  0
 41 40  2  0  0  0  0
 42 44  2  0  0  0  0
 43 42  1  0  0  0  0
 44 45  1  0  0  0  0
 44 49  1  0  0  0  0
 45 46  1  0  0  0  0
 46 48  2  0  0  0  0
 46 47  1  0  0  0  0
 49 48  1  0  0  0  0
 50 49  2  0  0  0  0
 51 45  1  0  0  0  0
M  END
>  <minimizedAffinity>
-5.43060207

>  <minimizedRMSD>
3.18417263

$$$$
