
 OpenBabel03252508073D

 47 51  0  0  0  0  0  0  0  0999 V2000
   45.2150   35.5020   43.0530 C   0  0  0  0  0  0  0  0  0  0  0  0
   45.5750   34.1670   43.1560 C   0  0  0  0  0  0  0  0  0  0  0  0
   45.4610   33.5170   44.3610 C   0  0  0  0  0  0  0  0  0  0  0  0
   44.9790   34.2510   45.4270 N   0  0  0  0  0  0  0  0  0  0  0  0
   44.6350   35.5320   45.3210 C   0  0  0  0  0  0  0  0  0  0  0  0
   44.7590   36.1470   44.1240 N   0  0  0  0  0  0  0  0  0  0  0  0
   45.3090   36.0170   42.0890 H   0  0  0  0  0  0  0  0  0  0  0  0
   44.2580   36.1010   46.1590 H   0  0  0  0  0  0  0  0  0  0  0  0
   45.7850   32.1680   44.6320 C   0  0  0  0  0  0  0  0  0  0  0  0
   45.4440   31.1000   43.7980 C   0  0  0  0  0  0  0  0  0  0  0  0
   45.6950   29.7840   44.0860 C   0  0  0  0  0  0  0  0  0  0  0  0
   46.3250   29.4550   45.2680 C   0  0  0  0  0  0  0  0  0  0  0  0
   46.6830   30.5260   46.1330 C   0  0  0  0  0  0  0  0  0  0  0  0
   47.3050   30.2080   47.3060 C   0  0  0  0  0  0  0  0  0  0  0  0
   47.6820   31.2010   48.1910 C   0  0  0  0  0  0  0  0  0  0  0  0
   47.4200   32.5430   47.8710 C   0  0  0  0  0  0  0  0  0  0  0  0
   46.7770   32.8190   46.6510 C   0  0  0  0  0  0  0  0  0  0  0  0
   46.4120   31.8150   45.7990 C   0  0  0  0  0  0  0  0  0  0  0  0
   44.9490   31.3430   42.8680 H   0  0  0  0  0  0  0  0  0  0  0  0
   45.3900   29.0340   43.3680 H   0  0  0  0  0  0  0  0  0  0  0  0
   46.5370   28.4270   45.5260 H   0  0  0  0  0  0  0  0  0  0  0  0
   47.4980   29.1510   47.5290 H   0  0  0  0  0  0  0  0  0  0  0  0
   48.1730   30.8990   49.1150 H   0  0  0  0  0  0  0  0  0  0  0  0
   47.7510   33.2500   48.6160 H   0  0  0  0  0  0  0  0  0  0  0  0
   46.6890   33.8830   46.5810 H   0  0  0  0  0  0  0  0  0  0  0  0
   46.0330   33.5530   42.0250 O   0  0  0  0  0  0  0  0  0  0  0  0
   48.1890   32.3700   41.1280 O   0  0  0  0  0  0  0  0  0  0  0  0
   47.6030   33.7060   41.4150 P   0  0  1  0  0  0  0  0  0  0  0  0
   47.6100   34.5710   39.9590 O   0  0  0  0  0  0  0  0  0  0  0  0
   48.5360   33.9090   37.8710 C   0  0  0  0  0  0  0  0  0  0  0  0
   47.4640   33.8670   38.7520 C   0  0  0  0  0  0  0  0  0  0  0  0
   46.2780   33.2060   38.5530 C   0  0  0  0  0  0  0  0  0  0  0  0
   45.5010   33.2400   39.3120 H   0  0  0  0  0  0  0  0  0  0  0  0
   46.1440   32.5150   37.3580 C   0  0  0  0  0  0  0  0  0  0  0  0
   45.1000   31.7830   36.8990 N   0  0  0  0  0  0  0  0  0  0  0  0
   45.4770   31.3230   35.6870 C   0  0  0  0  0  0  0  0  0  0  0  0
   44.8140   30.7070   35.1070 H   0  0  0  0  0  0  0  0  0  0  0  0
   46.7230   31.7590   35.4010 N   0  0  0  0  0  0  0  0  0  0  0  0
   47.1730   32.5140   36.4360 C   0  0  0  0  0  0  0  0  0  0  0  0
   48.3350   33.2040   36.7120 C   0  0  0  0  0  0  0  0  0  0  0  0
   44.2030   31.6410   37.4310 H   0  0  0  0  0  0  0  0  0  0  0  0
   48.5280   34.5390   42.5410 O   0  0  0  0  0  0  0  0  0  0  0  0
   49.7220   35.2050   42.3090 C   0  0  0  0  0  0  0  0  0  0  0  0
   49.3800   36.2960   41.8190 O   0  0  0  0  0  0  0  0  0  0  0  0
   50.8470   34.3990   42.7130 N   0  0  0  0  0  0  0  0  0  0  0  0
   51.6020   33.9540   42.1770 H   0  0  0  0  0  0  0  0  0  0  0  0
   50.9670   34.1970   43.7170 H   0  0  0  0  0  0  0  0  0  0  0  0
  1  2  2  0  0  0  0
  1  6  1  0  0  0  0
  2  3  1  0  0  0  0
  3  9  1  0  0  0  0
  3  4  2  0  0  0  0
  5  4  1  0  0  0  0
  5  8  1  0  0  0  0
  6  5  2  0  0  0  0
  7  1  1  0  0  0  0
  9 18  1  0  0  0  0
 10 11  1  0  0  0  0
 10  9  2  0  0  0  0
 11 12  2  0  0  0  0
 12 21  1  0  0  0  0
 12 13  1  0  0  0  0
 13 14  1  0  0  0  0
 14 22  1  0  0  0  0
 14 15  2  0  0  0  0
 15 23  1  0  0  0  0
 16 15  1  0  0  0  0
 16 24  1  0  0  0  0
 17 16  2  0  0  0  0
 18 13  2  0  0  0  0
 18 17  1  0  0  0  0
 19 10  1  0  0  0  0
 20 11  1  0  0  0  0
 25 17  1  0  0  0  0
 26  2  1  0  0  0  0
 28 27  2  6  0  0  0
 28 26  1  0  0  0  0
 28 42  1  0  0  0  0
 29 28  1  0  0  0  0
 30 31  1  0  0  0  0
 31 29  1  0  0  0  0
 32 31  2  0  0  0  0
 32 33  1  0  0  0  0
 34 32  1  0  0  0  0
 35 34  1  0  0  0  0
 35 41  1  0  0  0  0
 36 35  1  0  0  0  0
 37 36  1  0  0  0  0
 38 36  2  0  0  0  0
 38 39  1  0  0  0  0
 39 40  1  0  0  0  0
 39 34  2  0  0  0  0
 40 30  2  0  0  0  0
 43 42  1  0  0  0  0
 43 45  1  0  0  0  0
 44 43  2  0  0  0  0
 45 47  1  0  0  0  0
 46 45  1  0  0  0  0
M  END
>  <minimizedAffinity>
-6.59863615

>  <minimizedRMSD>
2.29123759

$$$$
