
 OpenBabel03242510583D

 39 42  0  0  0  0  0  0  0  0999 V2000
   39.5890   32.2860   40.3140 C   0  0  0  0  0  0  0  0  0  0  0  0
   38.6560   33.0290   39.5580 C   0  0  0  0  0  0  0  0  0  0  0  0
   37.3010   32.7430   39.5400 C   0  0  0  0  0  0  0  0  0  0  0  0
   36.8620   31.6880   40.2940 C   0  0  0  0  0  0  0  0  0  0  0  0
   37.7890   30.9530   41.0400 C   0  0  0  0  0  0  0  0  0  0  0  0
   39.0780   31.2790   41.0160 N   0  0  0  0  0  0  0  0  0  0  0  0
   39.0220   33.8590   38.9690 H   0  0  0  0  0  0  0  0  0  0  0  0
   36.6360   33.3550   38.9370 H   0  0  0  0  0  0  0  0  0  0  0  0
   35.8080   31.4270   40.3090 H   0  0  0  0  0  0  0  0  0  0  0  0
   44.7480   34.7230   42.2710 C   0  0  0  0  0  0  0  0  0  0  0  0
   45.4940   34.5740   41.1090 C   0  0  0  0  0  0  0  0  0  0  0  0
   44.8450   34.0440   39.9820 C   0  0  0  0  0  0  0  0  0  0  0  0
   43.5230   33.7030   40.0790 N   0  0  0  0  0  0  0  0  0  0  0  0
   42.8420   33.8740   41.2530 C   0  0  0  0  0  0  0  0  0  0  0  0
   43.4590   34.3850   42.3520 N   0  0  0  0  0  0  0  0  0  0  0  0
   40.9930   32.6660   40.2660 C   0  0  0  0  0  0  0  0  0  0  0  0
   41.6950   32.2290   39.3060 O   0  0  0  0  0  0  0  0  0  0  0  0
   41.4820   33.5070   41.3040 N   0  0  0  0  0  0  0  0  0  0  0  0
   45.2130   35.1330   43.1760 H   0  0  0  0  0  0  0  0  0  0  0  0
   46.5320   34.8470   41.0490 H   0  0  0  0  0  0  0  0  0  0  0  0
   45.3450   33.8940   39.0430 H   0  0  0  0  0  0  0  0  0  0  0  0
   40.8510   33.8340   42.0680 H   0  0  0  0  0  0  0  0  0  0  0  0
   37.3100   29.8400   41.8340 C   0  0  0  0  0  3  0  0  0  0  0  0
   38.0150   29.4160   42.8860 C   0  0  0  0  0  3  0  0  0  0  0  0
   37.6240   28.2830   43.7770 C   0  0  0  0  0  0  0  0  0  0  0  0
   38.2230   28.3120   44.6910 H   0  0  0  0  0  0  0  0  0  0  0  0
   36.5650   28.4110   44.0630 H   0  0  0  0  0  0  0  0  0  0  0  0
   39.2140   26.5570   43.0240 C   0  0  0  0  0  3  0  0  0  0  0  0
   37.8950   27.0020   43.0670 C   0  0  0  0  0  0  0  0  0  0  0  0
   36.9660   26.2050   42.4430 C   0  0  0  0  0  0  0  0  0  0  0  0
   35.9510   26.5430   42.4730 H   0  0  0  0  0  0  0  0  0  0  0  0
   37.3660   25.0310   41.8170 C   0  0  0  0  0  0  0  0  0  0  0  0
   36.6510   24.1080   41.1540 N   0  0  0  0  0  0  0  0  0  0  0  0
   37.4800   23.1300   40.7150 C   0  0  0  0  0  0  0  0  0  0  0  0
   37.3150   22.2290   40.1570 H   0  0  0  0  0  0  0  0  0  0  0  0
   38.7390   23.4590   41.1180 N   0  0  0  0  0  0  0  0  0  0  0  0
   38.6770   24.6120   41.7870 C   0  0  0  0  0  0  0  0  0  0  0  0
   39.6240   25.3990   42.4090 C   0  0  0  0  0  3  0  0  0  0  0  0
   35.6330   24.0850   40.9710 H   0  0  0  0  0  0  0  0  0  0  0  0
  1  6  1  0  0  0  0
  2  1  2  0  0  0  0
  3  2  1  0  0  0  0
  3  4  2  0  0  0  0
  4  9  1  0  0  0  0
  4  5  1  0  0  0  0
  5 23  1  0  0  0  0
  6  5  2  0  0  0  0
  7  2  1  0  0  0  0
  8  3  1  0  0  0  0
 10 15  1  0  0  0  0
 10 19  1  0  0  0  0
 11 10  2  0  0  0  0
 12 13  2  0  0  0  0
 12 11  1  0  0  0  0
 13 14  1  0  0  0  0
 14 18  1  0  0  0  0
 14 15  2  0  0  0  0
 16  1  1  0  0  0  0
 16 18  1  0  0  0  0
 17 16  2  0  0  0  0
 18 22  1  0  0  0  0
 20 11  1  0  0  0  0
 21 12  1  0  0  0  0
 23 24  2  0  0  0  0
 24 25  1  0  0  0  0
 25 27  1  0  0  0  0
 25 26  1  0  0  0  0
 28 29  1  0  0  0  0
 29 25  1  0  0  0  0
 30 31  1  0  0  0  0
 30 29  2  0  0  0  0
 32 30  1  0  0  0  0
 33 32  1  0  0  0  0
 34 36  2  0  0  0  0
 34 33  1  0  0  0  0
 35 34  1  0  0  0  0
 36 37  1  0  0  0  0
 37 32  2  0  0  0  0
 37 38  1  0  0  0  0
 38 28  2  0  0  0  0
 39 33  1  0  0  0  0
M  END
>  <minimizedAffinity>
-6.93936872

$$$$

 OpenBabel03242510583D

 39 42  0  0  0  0  0  0  0  0999 V2000
   40.4240   33.1400   38.8610 C   0  0  0  0  0  0  0  0  0  0  0  0
   40.2840   34.3420   39.5890 C   0  0  0  0  0  0  0  0  0  0  0  0
   39.1150   34.6960   40.2430 C   0  0  0  0  0  0  0  0  0  0  0  0
   38.0560   33.8320   40.1680 C   0  0  0  0  0  0  0  0  0  0  0  0
   38.1980   32.6430   39.4440 C   0  0  0  0  0  0  0  0  0  0  0  0
   39.3480   32.3600   38.8400 N   0  0  0  0  0  0  0  0  0  0  0  0
   41.1320   35.0120   39.6370 H   0  0  0  0  0  0  0  0  0  0  0  0
   39.0730   35.6360   40.7860 H   0  0  0  0  0  0  0  0  0  0  0  0
   37.1190   34.0700   40.6650 H   0  0  0  0  0  0  0  0  0  0  0  0
   44.2950   30.2190   35.2730 C   0  0  0  0  0  0  0  0  0  0  0  0
   45.4520   30.8950   35.6350 C   0  0  0  0  0  0  0  0  0  0  0  0
   45.3540   31.8590   36.6520 C   0  0  0  0  0  0  0  0  0  0  0  0
   44.1360   32.0840   37.2330 N   0  0  0  0  0  0  0  0  0  0  0  0
   43.0300   31.3860   36.8320 C   0  0  0  0  0  0  0  0  0  0  0  0
   43.1120   30.4500   35.8480 N   0  0  0  0  0  0  0  0  0  0  0  0
   41.6940   32.8590   38.2100 C   0  0  0  0  0  0  0  0  0  0  0  0
   42.6320   33.7000   38.3480 O   0  0  0  0  0  0  0  0  0  0  0  0
   41.7970   31.6540   37.4610 N   0  0  0  0  0  0  0  0  0  0  0  0
   44.3230   29.4580   34.4840 H   0  0  0  0  0  0  0  0  0  0  0  0
   46.4020   30.7050   35.1680 H   0  0  0  0  0  0  0  0  0  0  0  0
   46.1980   32.4280   36.9940 H   0  0  0  0  0  0  0  0  0  0  0  0
   40.9860   31.0010   37.3850 H   0  0  0  0  0  0  0  0  0  0  0  0
   37.0690   31.7380   39.3750 C   0  0  0  0  0  3  0  0  0  0  0  0
   36.6670   31.0840   40.4680 C   0  0  0  0  0  3  0  0  0  0  0  0
   35.5200   30.1290   40.5200 C   0  0  0  0  0  0  0  0  0  0  0  0
   34.9280   30.3170   41.4190 H   0  0  0  0  0  0  0  0  0  0  0  0
   34.8720   30.3110   39.6440 H   0  0  0  0  0  0  0  0  0  0  0  0
   36.0380   27.9940   39.4040 C   0  0  0  0  0  3  0  0  0  0  0  0
   36.0570   28.7420   40.5800 C   0  0  0  0  0  0  0  0  0  0  0  0
   36.5750   28.1160   41.6870 C   0  0  0  0  0  0  0  0  0  0  0  0
   36.5920   28.6870   42.5930 H   0  0  0  0  0  0  0  0  0  0  0  0
   37.0420   26.8110   41.5940 C   0  0  0  0  0  0  0  0  0  0  0  0
   37.5820   26.0080   42.5250 N   0  0  0  0  0  0  0  0  0  0  0  0
   37.8870   24.8140   41.9630 C   0  0  0  0  0  0  0  0  0  0  0  0
   38.3250   23.9140   42.3510 H   0  0  0  0  0  0  0  0  0  0  0  0
   37.5260   24.8810   40.6510 N   0  0  0  0  0  0  0  0  0  0  0  0
   37.0120   26.0920   40.4200 C   0  0  0  0  0  0  0  0  0  0  0  0
   36.4950   26.7030   39.2970 C   0  0  0  0  0  3  0  0  0  0  0  0
   37.7630   26.2040   43.5240 H   0  0  0  0  0  0  0  0  0  0  0  0
  1  2  1  0  0  0  0
  2  7  1  0  0  0  0
  2  3  2  0  0  0  0
  3  8  1  0  0  0  0
  4  3  1  0  0  0  0
  4  9  1  0  0  0  0
  5  4  2  0  0  0  0
  6  1  2  0  0  0  0
  6  5  1  0  0  0  0
 10 11  2  0  0  0  0
 10 15  1  0  0  0  0
 11 12  1  0  0  0  0
 12 21  1  0  0  0  0
 12 13  2  0  0  0  0
 14 13  1  0  0  0  0
 14 18  1  0  0  0  0
 15 14  2  0  0  0  0
 16 17  2  0  0  0  0
 16  1  1  0  0  0  0
 18 16  1  0  0  0  0
 19 10  1  0  0  0  0
 20 11  1  0  0  0  0
 22 18  1  0  0  0  0
 23  5  1  0  0  0  0
 23 24  2  0  0  0  0
 24 25  1  0  0  0  0
 25 29  1  0  0  0  0
 25 26  1  0  0  0  0
 27 25  1  0  0  0  0
 28 29  1  0  0  0  0
 29 30  2  0  0  0  0
 30 31  1  0  0  0  0
 32 30  1  0  0  0  0
 32 33  1  0  0  0  0
 33 39  1  0  0  0  0
 34 35  1  0  0  0  0
 34 33  1  0  0  0  0
 36 34  2  0  0  0  0
 37 36  1  0  0  0  0
 37 32  2  0  0  0  0
 38 28  2  0  0  0  0
 38 37  1  0  0  0  0
M  END
>  <minimizedAffinity>
-6.52842331

$$$$

 OpenBabel03242510583D

 39 42  0  0  0  0  0  0  0  0999 V2000
   39.5450   31.8230   39.5840 C   0  0  0  0  0  0  0  0  0  0  0  0
   38.6610   32.8590   39.2110 C   0  0  0  0  0  0  0  0  0  0  0  0
   37.3450   32.9190   39.6400 C   0  0  0  0  0  0  0  0  0  0  0  0
   36.8950   31.9200   40.4600 C   0  0  0  0  0  0  0  0  0  0  0  0
   37.7730   30.8950   40.8270 C   0  0  0  0  0  0  0  0  0  0  0  0
   39.0260   30.8950   40.3820 N   0  0  0  0  0  0  0  0  0  0  0  0
   39.0340   33.6390   38.5620 H   0  0  0  0  0  0  0  0  0  0  0  0
   36.7170   33.7450   39.3150 H   0  0  0  0  0  0  0  0  0  0  0  0
   35.8700   31.9270   40.8200 H   0  0  0  0  0  0  0  0  0  0  0  0
   45.0310   34.1020   38.5420 C   0  0  0  0  0  0  0  0  0  0  0  0
   45.5080   33.1020   37.7060 C   0  0  0  0  0  0  0  0  0  0  0  0
   44.6270   32.0640   37.3630 C   0  0  0  0  0  0  0  0  0  0  0  0
   43.3530   32.0860   37.8620 N   0  0  0  0  0  0  0  0  0  0  0  0
   42.9410   33.1000   38.6820 C   0  0  0  0  0  0  0  0  0  0  0  0
   43.7850   34.1120   39.0220 N   0  0  0  0  0  0  0  0  0  0  0  0
   40.9100   31.8500   39.0810 C   0  0  0  0  0  0  0  0  0  0  0  0
   41.3840   30.7810   38.5940 O   0  0  0  0  0  0  0  0  0  0  0  0
   41.6190   33.0790   39.1720 N   0  0  0  0  0  0  0  0  0  0  0  0
   45.6840   34.9340   38.8370 H   0  0  0  0  0  0  0  0  0  0  0  0
   46.5130   33.0990   37.3220 H   0  0  0  0  0  0  0  0  0  0  0  0
   44.9120   31.2500   36.7220 H   0  0  0  0  0  0  0  0  0  0  0  0
   41.1710   33.9260   39.5850 H   0  0  0  0  0  0  0  0  0  0  0  0
   37.2840   29.8450   41.6970 C   0  0  0  0  0  3  0  0  0  0  0  0
   38.0120   29.4510   42.7450 C   0  0  0  0  0  3  0  0  0  0  0  0
   37.6140   28.3830   43.7110 C   0  0  0  0  0  0  0  0  0  0  0  0
   38.2100   28.4730   44.6220 H   0  0  0  0  0  0  0  0  0  0  0  0
   36.5540   28.5340   43.9830 H   0  0  0  0  0  0  0  0  0  0  0  0
   39.1580   26.5180   43.2480 C   0  0  0  0  0  3  0  0  0  0  0  0
   37.8820   27.0560   43.0910 C   0  0  0  0  0  0  0  0  0  0  0  0
   36.9900   26.2980   42.3720 C   0  0  0  0  0  0  0  0  0  0  0  0
   36.0080   26.7070   42.2480 H   0  0  0  0  0  0  0  0  0  0  0  0
   37.3820   25.0720   41.8500 C   0  0  0  0  0  0  0  0  0  0  0  0
   36.6970   24.1720   41.1260 N   0  0  0  0  0  0  0  0  0  0  0  0
   37.5020   23.1200   40.8420 C   0  0  0  0  0  0  0  0  0  0  0  0
   37.3480   22.2070   40.2980 H   0  0  0  0  0  0  0  0  0  0  0  0
   38.7150   23.3770   41.4050 N   0  0  0  0  0  0  0  0  0  0  0  0
   38.6490   24.5620   42.0180 C   0  0  0  0  0  0  0  0  0  0  0  0
   39.5590   25.3070   42.7380 C   0  0  0  0  0  3  0  0  0  0  0  0
   35.7150   24.2110   40.8040 H   0  0  0  0  0  0  0  0  0  0  0  0
  1  6  1  0  0  0  0
  2  1  2  0  0  0  0
  2  3  1  0  0  0  0
  3  4  2  0  0  0  0
  4  9  1  0  0  0  0
  4  5  1  0  0  0  0
  5 23  1  0  0  0  0
  6  5  2  0  0  0  0
  7  2  1  0  0  0  0
  8  3  1  0  0  0  0
 10 19  1  0  0  0  0
 10 15  1  0  0  0  0
 11 10  2  0  0  0  0
 12 11  1  0  0  0  0
 12 13  2  0  0  0  0
 13 14  1  0  0  0  0
 14 15  2  0  0  0  0
 14 18  1  0  0  0  0
 16 18  1  0  0  0  0
 16  1  1  0  0  0  0
 17 16  2  0  0  0  0
 18 22  1  0  0  0  0
 20 11  1  0  0  0  0
 21 12  1  0  0  0  0
 23 24  2  0  0  0  0
 24 25  1  0  0  0  0
 25 27  1  0  0  0  0
 25 26  1  0  0  0  0
 29 28  1  0  0  0  0
 29 25  1  0  0  0  0
 30 29  2  0  0  0  0
 31 30  1  0  0  0  0
 32 37  2  0  0  0  0
 32 30  1  0  0  0  0
 33 32  1  0  0  0  0
 34 33  1  0  0  0  0
 34 36  2  0  0  0  0
 35 34  1  0  0  0  0
 36 37  1  0  0  0  0
 37 38  1  0  0  0  0
 38 28  2  0  0  0  0
 39 33  1  0  0  0  0
M  END
>  <minimizedAffinity>
-6.3161025

$$$$

 OpenBabel03242510583D

 39 42  0  0  0  0  0  0  0  0999 V2000
   33.9890   27.8520   37.3410 C   0  0  0  0  0  0  0  0  0  0  0  0
   33.9560   26.4970   36.9460 C   0  0  0  0  0  0  0  0  0  0  0  0
   34.8480   25.5510   37.4220 C   0  0  0  0  0  0  0  0  0  0  0  0
   35.8000   25.9640   38.3150 C   0  0  0  0  0  0  0  0  0  0  0  0
   35.8300   27.3070   38.7040 C   0  0  0  0  0  0  0  0  0  0  0  0
   34.9440   28.1670   38.2100 N   0  0  0  0  0  0  0  0  0  0  0  0
   33.1970   26.1900   36.2390 H   0  0  0  0  0  0  0  0  0  0  0  0
   34.7680   24.5230   37.0770 H   0  0  0  0  0  0  0  0  0  0  0  0
   36.5200   25.2550   38.7140 H   0  0  0  0  0  0  0  0  0  0  0  0
   29.3770   31.7400   37.3780 C   0  0  0  0  0  0  0  0  0  0  0  0
   29.2100   31.8660   36.0050 C   0  0  0  0  0  0  0  0  0  0  0  0
   30.0220   31.0770   35.1750 C   0  0  0  0  0  0  0  0  0  0  0  0
   30.9290   30.2290   35.7500 N   0  0  0  0  0  0  0  0  0  0  0  0
   31.0470   30.1490   37.1100 C   0  0  0  0  0  0  0  0  0  0  0  0
   30.2670   30.9090   37.9260 N   0  0  0  0  0  0  0  0  0  0  0  0
   33.0070   28.7700   36.7830 C   0  0  0  0  0  0  0  0  0  0  0  0
   33.1090   29.0760   35.5580 O   0  0  0  0  0  0  0  0  0  0  0  0
   31.9960   29.2610   37.6560 N   0  0  0  0  0  0  0  0  0  0  0  0
   28.7650   32.3370   38.0660 H   0  0  0  0  0  0  0  0  0  0  0  0
   28.4920   32.5380   35.5690 H   0  0  0  0  0  0  0  0  0  0  0  0
   29.9610   31.1110   34.1030 H   0  0  0  0  0  0  0  0  0  0  0  0
   31.9670   28.9700   38.6570 H   0  0  0  0  0  0  0  0  0  0  0  0
   36.8420   27.7300   39.6500 C   0  0  0  0  0  3  0  0  0  0  0  0
   36.4850   28.1690   40.8600 C   0  0  0  0  0  3  0  0  0  0  0  0
   37.4340   28.6290   41.9180 C   0  0  0  0  0  0  0  0  0  0  0  0
   36.9170   28.6740   42.8790 H   0  0  0  0  0  0  0  0  0  0  0  0
   38.2470   27.8860   42.0060 H   0  0  0  0  0  0  0  0  0  0  0  0
   39.2370   30.3080   41.8720 C   0  0  0  0  0  3  0  0  0  0  0  0
   37.9150   29.9930   41.5660 C   0  0  0  0  0  0  0  0  0  0  0  0
   37.1800   30.9860   40.9650 C   0  0  0  0  0  0  0  0  0  0  0  0
   36.1630   30.7490   40.7290 H   0  0  0  0  0  0  0  0  0  0  0  0
   37.7630   32.2170   40.6960 C   0  0  0  0  0  0  0  0  0  0  0  0
   37.2520   33.3200   40.1250 N   0  0  0  0  0  0  0  0  0  0  0  0
   38.2060   34.2810   40.0740 C   0  0  0  0  0  0  0  0  0  0  0  0
   38.2100   35.2880   39.7030 H   0  0  0  0  0  0  0  0  0  0  0  0
   39.3350   33.7580   40.6280 N   0  0  0  0  0  0  0  0  0  0  0  0
   39.0730   32.5050   41.0080 C   0  0  0  0  0  0  0  0  0  0  0  0
   39.8280   31.5210   41.6120 C   0  0  0  0  0  3  0  0  0  0  0  0
   36.2970   33.4780   39.7630 H   0  0  0  0  0  0  0  0  0  0  0  0
  1  6  1  0  0  0  0
  2  1  2  0  0  0  0
  2  3  1  0  0  0  0
  3  4  2  0  0  0  0
  4  5  1  0  0  0  0
  4  9  1  0  0  0  0
  5 23  1  0  0  0  0
  6  5  2  0  0  0  0
  7  2  1  0  0  0  0
  8  3  1  0  0  0  0
 10 15  1  0  0  0  0
 10 19  1  0  0  0  0
 11 10  2  0  0  0  0
 12 13  2  0  0  0  0
 12 11  1  0  0  0  0
 13 14  1  0  0  0  0
 14 18  1  0  0  0  0
 14 15  2  0  0  0  0
 16  1  1  0  0  0  0
 16 18  1  0  0  0  0
 17 16  2  0  0  0  0
 18 22  1  0  0  0  0
 20 11  1  0  0  0  0
 21 12  1  0  0  0  0
 23 24  2  0  0  0  0
 24 25  1  0  0  0  0
 25 27  1  0  0  0  0
 25 26  1  0  0  0  0
 29 28  2  0  0  0  0
 29 25  1  0  0  0  0
 30 29  1  0  0  0  0
 31 30  1  0  0  0  0
 32 30  2  0  0  0  0
 32 37  1  0  0  0  0
 33 32  1  0  0  0  0
 34 33  1  0  0  0  0
 34 36  2  0  0  0  0
 35 34  1  0  0  0  0
 36 37  1  0  0  0  0
 37 38  2  0  0  0  0
 38 28  1  0  0  0  0
 39 33  1  0  0  0  0
M  END
>  <minimizedAffinity>
-6.23510981

$$$$

 OpenBabel03242510583D

 39 42  0  0  0  0  0  0  0  0999 V2000
   37.5900   29.1160   41.7260 C   0  0  0  0  0  0  0  0  0  0  0  0
   37.3330   28.8790   43.0940 C   0  0  0  0  0  0  0  0  0  0  0  0
   37.0310   27.6250   43.5980 C   0  0  0  0  0  0  0  0  0  0  0  0
   36.9790   26.5780   42.7170 C   0  0  0  0  0  0  0  0  0  0  0  0
   37.2320   26.8170   41.3630 C   0  0  0  0  0  0  0  0  0  0  0  0
   37.5190   28.0450   40.9410 N   0  0  0  0  0  0  0  0  0  0  0  0
   37.3780   29.7180   43.7740 H   0  0  0  0  0  0  0  0  0  0  0  0
   36.8440   27.5100   44.6630 H   0  0  0  0  0  0  0  0  0  0  0  0
   36.7450   25.5780   43.0690 H   0  0  0  0  0  0  0  0  0  0  0  0
   41.0680   33.7310   39.9990 C   0  0  0  0  0  0  0  0  0  0  0  0
   40.0970   34.7240   39.9950 C   0  0  0  0  0  0  0  0  0  0  0  0
   38.8060   34.3740   40.4220 C   0  0  0  0  0  0  0  0  0  0  0  0
   38.5670   33.0860   40.8190 N   0  0  0  0  0  0  0  0  0  0  0  0
   39.5660   32.1530   40.8000 C   0  0  0  0  0  0  0  0  0  0  0  0
   40.8210   32.4780   40.3880 N   0  0  0  0  0  0  0  0  0  0  0  0
   37.9000   30.4710   41.2940 C   0  0  0  0  0  0  0  0  0  0  0  0
   36.9330   31.2400   41.0140 O   0  0  0  0  0  0  0  0  0  0  0  0
   39.2710   30.8380   41.2180 N   0  0  0  0  0  0  0  0  0  0  0  0
   42.0910   33.9580   39.6730 H   0  0  0  0  0  0  0  0  0  0  0  0
   40.3020   35.7310   39.6800 H   0  0  0  0  0  0  0  0  0  0  0  0
   37.9950   35.0780   40.4510 H   0  0  0  0  0  0  0  0  0  0  0  0
   40.0220   30.1560   41.4630 H   0  0  0  0  0  0  0  0  0  0  0  0
   37.1760   25.7000   40.4420 C   0  0  0  0  0  3  0  0  0  0  0  0
   36.4980   24.5970   40.7680 C   0  0  0  0  0  3  0  0  0  0  0  0
   36.3680   23.3860   39.9040 C   0  0  0  0  0  0  0  0  0  0  0  0
   37.1730   23.3750   39.1660 H   0  0  0  0  0  0  0  0  0  0  0  0
   36.4790   22.4880   40.5390 H   0  0  0  0  0  0  0  0  0  0  0  0
   34.0070   22.7040   39.7160 C   0  0  0  0  0  3  0  0  0  0  0  0
   35.0620   23.4460   39.1900 C   0  0  0  0  0  0  0  0  0  0  0  0
   34.7890   24.1680   38.0540 C   0  0  0  0  0  0  0  0  0  0  0  0
   35.5970   24.7390   37.6460 H   0  0  0  0  0  0  0  0  0  0  0  0
   33.5180   24.1290   37.4950 C   0  0  0  0  0  0  0  0  0  0  0  0
   33.0240   24.7390   36.4060 N   0  0  0  0  0  0  0  0  0  0  0  0
   31.7210   24.3980   36.2530 C   0  0  0  0  0  0  0  0  0  0  0  0
   30.9770   24.6620   35.5270 H   0  0  0  0  0  0  0  0  0  0  0  0
   31.4030   23.5550   37.2750 N   0  0  0  0  0  0  0  0  0  0  0  0
   32.4900   23.3870   38.0320 C   0  0  0  0  0  0  0  0  0  0  0  0
   32.7450   22.6560   39.1740 C   0  0  0  0  0  3  0  0  0  0  0  0
   33.5020   25.3770   35.7470 H   0  0  0  0  0  0  0  0  0  0  0  0
  1  2  1  0  0  0  0
  2  3  2  0  0  0  0
  2  7  1  0  0  0  0
  3  8  1  0  0  0  0
  4  9  1  0  0  0  0
  4  3  1  0  0  0  0
  5  4  2  0  0  0  0
  6  5  1  0  0  0  0
  6  1  2  0  0  0  0
 10 15  1  0  0  0  0
 11 10  2  0  0  0  0
 11 12  1  0  0  0  0
 12 21  1  0  0  0  0
 12 13  2  0  0  0  0
 14 13  1  0  0  0  0
 14 18  1  0  0  0  0
 15 14  2  0  0  0  0
 16  1  1  0  0  0  0
 17 16  2  0  0  0  0
 18 16  1  0  0  0  0
 18 22  1  0  0  0  0
 19 10  1  0  0  0  0
 20 11  1  0  0  0  0
 23 24  2  0  0  0  0
 23  5  1  0  0  0  0
 25 27  1  0  0  0  0
 25 24  1  0  0  0  0
 26 25  1  0  0  0  0
 29 28  1  0  0  0  0
 29 25  1  0  0  0  0
 30 29  2  0  0  0  0
 31 30  1  0  0  0  0
 32 37  2  0  0  0  0
 32 30  1  0  0  0  0
 33 32  1  0  0  0  0
 34 33  1  0  0  0  0
 34 36  2  0  0  0  0
 35 34  1  0  0  0  0
 36 37  1  0  0  0  0
 37 38  1  0  0  0  0
 38 28  2  0  0  0  0
 39 33  1  0  0  0  0
M  END
>  <minimizedAffinity>
-6.13290119

$$$$

 OpenBabel03242510583D

 39 42  0  0  0  0  0  0  0  0999 V2000
   33.1920   28.6720   37.0680 C   0  0  0  0  0  0  0  0  0  0  0  0
   33.3570   27.4630   36.3560 C   0  0  0  0  0  0  0  0  0  0  0  0
   34.3370   26.5340   36.6630 C   0  0  0  0  0  0  0  0  0  0  0  0
   35.1780   26.8160   37.7060 C   0  0  0  0  0  0  0  0  0  0  0  0
   35.0130   28.0140   38.4080 C   0  0  0  0  0  0  0  0  0  0  0  0
   34.0510   28.8650   38.0640 N   0  0  0  0  0  0  0  0  0  0  0  0
   32.6830   27.2580   35.5350 H   0  0  0  0  0  0  0  0  0  0  0  0
   34.4100   25.6230   36.0760 H   0  0  0  0  0  0  0  0  0  0  0  0
   35.9620   26.1160   37.9810 H   0  0  0  0  0  0  0  0  0  0  0  0
   29.8130   31.9350   33.2840 C   0  0  0  0  0  0  0  0  0  0  0  0
   29.0660   32.6260   34.2280 C   0  0  0  0  0  0  0  0  0  0  0  0
   29.3710   32.4150   35.5830 C   0  0  0  0  0  0  0  0  0  0  0  0
   30.3800   31.5490   35.9060 N   0  0  0  0  0  0  0  0  0  0  0  0
   31.0810   30.8970   34.9290 C   0  0  0  0  0  0  0  0  0  0  0  0
   30.7950   31.0920   33.6140 N   0  0  0  0  0  0  0  0  0  0  0  0
   32.1310   29.5820   36.6670 C   0  0  0  0  0  0  0  0  0  0  0  0
   31.2900   29.9370   37.5460 O   0  0  0  0  0  0  0  0  0  0  0  0
   32.1110   30.0140   35.3120 N   0  0  0  0  0  0  0  0  0  0  0  0
   29.6110   32.0680   32.2140 H   0  0  0  0  0  0  0  0  0  0  0  0
   28.2760   33.3040   33.9570 H   0  0  0  0  0  0  0  0  0  0  0  0
   28.8440   32.9080   36.3790 H   0  0  0  0  0  0  0  0  0  0  0  0
   32.8340   29.6840   34.6360 H   0  0  0  0  0  0  0  0  0  0  0  0
   35.9100   28.2990   39.5100 C   0  0  0  0  0  3  0  0  0  0  0  0
   35.7600   29.4180   40.2230 C   0  0  0  0  0  3  0  0  0  0  0  0
   36.6180   29.8180   41.3780 C   0  0  0  0  0  0  0  0  0  0  0  0
   35.9860   30.1040   42.2220 H   0  0  0  0  0  0  0  0  0  0  0  0
   37.2200   28.9440   41.6870 H   0  0  0  0  0  0  0  0  0  0  0  0
   36.8610   31.9220   40.1180 C   0  0  0  0  0  3  0  0  0  0  0  0
   37.4430   30.9910   40.9760 C   0  0  0  0  0  0  0  0  0  0  0  0
   38.7320   31.2530   41.3690 C   0  0  0  0  0  0  0  0  0  0  0  0
   39.1840   30.5400   42.0280 H   0  0  0  0  0  0  0  0  0  0  0  0
   39.3810   32.3920   40.9120 C   0  0  0  0  0  0  0  0  0  0  0  0
   40.6200   32.8500   41.1550 N   0  0  0  0  0  0  0  0  0  0  0  0
   40.8080   34.0110   40.4830 C   0  0  0  0  0  0  0  0  0  0  0  0
   41.6400   34.6850   40.4080 H   0  0  0  0  0  0  0  0  0  0  0  0
   39.6560   34.2780   39.8070 N   0  0  0  0  0  0  0  0  0  0  0  0
   38.7850   33.2980   40.0630 C   0  0  0  0  0  0  0  0  0  0  0  0
   37.4900   33.0540   39.6570 C   0  0  0  0  0  3  0  0  0  0  0  0
   41.3590   32.4340   41.7470 H   0  0  0  0  0  0  0  0  0  0  0  0
  1  6  1  0  0  0  0
  2  3  1  0  0  0  0
  2  1  2  0  0  0  0
  3  4  2  0  0  0  0
  4  9  1  0  0  0  0
  4  5  1  0  0  0  0
  5 23  1  0  0  0  0
  6  5  2  0  0  0  0
  7  2  1  0  0  0  0
  8  3  1  0  0  0  0
 10 15  2  0  0  0  0
 10 11  1  0  0  0  0
 11 12  2  0  0  0  0
 12 13  1  0  0  0  0
 12 21  1  0  0  0  0
 14 18  1  0  0  0  0
 14 13  2  0  0  0  0
 15 14  1  0  0  0  0
 16  1  1  0  0  0  0
 16 17  2  0  0  0  0
 18 16  1  0  0  0  0
 19 10  1  0  0  0  0
 20 11  1  0  0  0  0
 22 18  1  0  0  0  0
 23 24  2  0  0  0  0
 24 25  1  0  0  0  0
 25 27  1  0  0  0  0
 25 26  1  0  0  0  0
 28 29  1  0  0  0  0
 29 30  2  0  0  0  0
 29 25  1  0  0  0  0
 30 31  1  0  0  0  0
 32 33  1  0  0  0  0
 32 30  1  0  0  0  0
 33 39  1  0  0  0  0
 34 33  1  0  0  0  0
 35 34  1  0  0  0  0
 36 37  1  0  0  0  0
 36 34  2  0  0  0  0
 37 32  2  0  0  0  0
 38 37  1  0  0  0  0
 38 28  2  0  0  0  0
M  END
>  <minimizedAffinity>
-6.06895161

$$$$

 OpenBabel03242510583D

 39 42  0  0  0  0  0  0  0  0999 V2000
   37.5370   30.4670   39.1910 C   0  0  0  0  0  0  0  0  0  0  0  0
   37.2350   30.4990   40.5700 C   0  0  0  0  0  0  0  0  0  0  0  0
   36.1030   29.9100   41.1080 C   0  0  0  0  0  0  0  0  0  0  0  0
   35.2460   29.2730   40.2500 C   0  0  0  0  0  0  0  0  0  0  0  0
   35.5480   29.2450   38.8850 C   0  0  0  0  0  0  0  0  0  0  0  0
   36.6530   29.8290   38.4300 N   0  0  0  0  0  0  0  0  0  0  0  0
   37.9240   31.0060   41.2320 H   0  0  0  0  0  0  0  0  0  0  0  0
   35.9290   29.9700   42.1790 H   0  0  0  0  0  0  0  0  0  0  0  0
   34.3450   28.7980   40.6290 H   0  0  0  0  0  0  0  0  0  0  0  0
   41.9230   34.6060   39.0670 C   0  0  0  0  0  0  0  0  0  0  0  0
   42.5540   34.1950   37.9010 C   0  0  0  0  0  0  0  0  0  0  0  0
   41.9760   33.1320   37.1870 C   0  0  0  0  0  0  0  0  0  0  0  0
   40.8310   32.5580   37.6680 N   0  0  0  0  0  0  0  0  0  0  0  0
   40.2570   33.0080   38.8250 C   0  0  0  0  0  0  0  0  0  0  0  0
   40.8060   34.0360   39.5260 N   0  0  0  0  0  0  0  0  0  0  0  0
   38.7530   31.1160   38.7240 C   0  0  0  0  0  0  0  0  0  0  0  0
   39.4480   30.5160   37.8510 O   0  0  0  0  0  0  0  0  0  0  0  0
   39.0780   32.3830   39.2820 N   0  0  0  0  0  0  0  0  0  0  0  0
   42.3380   35.4330   39.6580 H   0  0  0  0  0  0  0  0  0  0  0  0
   43.4530   34.6580   37.5360 H   0  0  0  0  0  0  0  0  0  0  0  0
   42.3970   32.7500   36.2750 H   0  0  0  0  0  0  0  0  0  0  0  0
   38.4620   32.8250   39.9990 H   0  0  0  0  0  0  0  0  0  0  0  0
   34.6330   28.5670   37.9890 C   0  0  0  0  0  3  0  0  0  0  0  0
   34.0050   29.2510   37.0290 C   0  0  0  0  0  3  0  0  0  0  0  0
   33.0440   28.6640   36.0490 C   0  0  0  0  0  0  0  0  0  0  0  0
   33.5760   28.3850   35.1360 H   0  0  0  0  0  0  0  0  0  0  0  0
   32.6160   27.7440   36.4850 H   0  0  0  0  0  0  0  0  0  0  0  0
   31.3510   30.3030   36.7700 C   0  0  0  0  0  3  0  0  0  0  0  0
   32.0190   29.6900   35.7120 C   0  0  0  0  0  0  0  0  0  0  0  0
   31.6600   30.0990   34.4510 C   0  0  0  0  0  0  0  0  0  0  0  0
   32.1690   29.6300   33.6350 H   0  0  0  0  0  0  0  0  0  0  0  0
   30.6810   31.0710   34.2880 C   0  0  0  0  0  0  0  0  0  0  0  0
   30.1730   31.6200   33.1730 N   0  0  0  0  0  0  0  0  0  0  0  0
   29.2320   32.5340   33.5120 C   0  0  0  0  0  0  0  0  0  0  0  0
   28.6010   33.1820   32.9350 H   0  0  0  0  0  0  0  0  0  0  0  0
   29.1570   32.5500   34.8720 N   0  0  0  0  0  0  0  0  0  0  0  0
   30.0350   31.6630   35.3500 C   0  0  0  0  0  0  0  0  0  0  0  0
   30.3820   31.2660   36.6240 C   0  0  0  0  0  3  0  0  0  0  0  0
   30.4140   31.4240   32.1860 H   0  0  0  0  0  0  0  0  0  0  0  0
  1  2  1  0  0  0  0
  2  3  2  0  0  0  0
  2  7  1  0  0  0  0
  3  8  1  0  0  0  0
  4  9  1  0  0  0  0
  4  3  1  0  0  0  0
  5  4  2  0  0  0  0
  6  5  1  0  0  0  0
  6  1  2  0  0  0  0
 10 15  1  0  0  0  0
 10 19  1  0  0  0  0
 11 10  2  0  0  0  0
 12 13  2  0  0  0  0
 12 11  1  0  0  0  0
 13 14  1  0  0  0  0
 14 18  1  0  0  0  0
 14 15  2  0  0  0  0
 16  1  1  0  0  0  0
 16 18  1  0  0  0  0
 17 16  2  0  0  0  0
 18 22  1  0  0  0  0
 20 11  1  0  0  0  0
 21 12  1  0  0  0  0
 23  5  1  0  0  0  0
 24 23  2  0  0  0  0
 25 27  1  0  0  0  0
 25 24  1  0  0  0  0
 26 25  1  0  0  0  0
 29 25  1  0  0  0  0
 29 28  2  0  0  0  0
 30 29  1  0  0  0  0
 31 30  1  0  0  0  0
 32 30  2  0  0  0  0
 32 37  1  0  0  0  0
 33 34  1  0  0  0  0
 33 32  1  0  0  0  0
 34 36  2  0  0  0  0
 35 34  1  0  0  0  0
 36 37  1  0  0  0  0
 37 38  2  0  0  0  0
 38 28  1  0  0  0  0
 39 33  1  0  0  0  0
M  END
>  <minimizedAffinity>
-6.03870916

$$$$

 OpenBabel03242510583D

 39 42  0  0  0  0  0  0  0  0999 V2000
   39.8830   28.9750   42.1280 C   0  0  0  0  0  0  0  0  0  0  0  0
   40.1720   28.0690   43.1720 C   0  0  0  0  0  0  0  0  0  0  0  0
   39.2450   27.1670   43.6670 C   0  0  0  0  0  0  0  0  0  0  0  0
   37.9950   27.1670   43.1090 C   0  0  0  0  0  0  0  0  0  0  0  0
   37.7110   28.0660   42.0760 C   0  0  0  0  0  0  0  0  0  0  0  0
   38.6460   28.9070   41.6440 N   0  0  0  0  0  0  0  0  0  0  0  0
   41.1650   28.0850   43.6010 H   0  0  0  0  0  0  0  0  0  0  0  0
   39.5320   26.4970   44.4730 H   0  0  0  0  0  0  0  0  0  0  0  0
   37.2360   26.4760   43.4670 H   0  0  0  0  0  0  0  0  0  0  0  0
   42.3060   34.2160   40.3840 C   0  0  0  0  0  0  0  0  0  0  0  0
   43.5560   33.7440   40.0090 C   0  0  0  0  0  0  0  0  0  0  0  0
   43.7770   32.3590   40.0780 C   0  0  0  0  0  0  0  0  0  0  0  0
   42.7620   31.5480   40.5060 N   0  0  0  0  0  0  0  0  0  0  0  0
   41.5510   32.0730   40.8630 C   0  0  0  0  0  0  0  0  0  0  0  0
   41.3240   33.4130   40.8020 N   0  0  0  0  0  0  0  0  0  0  0  0
   40.9260   29.8830   41.6780 C   0  0  0  0  0  0  0  0  0  0  0  0
   42.1170   29.4520   41.6500 O   0  0  0  0  0  0  0  0  0  0  0  0
   40.5360   31.1970   41.2990 N   0  0  0  0  0  0  0  0  0  0  0  0
   42.0870   35.2910   40.3470 H   0  0  0  0  0  0  0  0  0  0  0  0
   44.3430   34.3950   39.6740 H   0  0  0  0  0  0  0  0  0  0  0  0
   44.7140   31.9080   39.8060 H   0  0  0  0  0  0  0  0  0  0  0  0
   39.5350   31.4920   41.3450 H   0  0  0  0  0  0  0  0  0  0  0  0
   36.3850   28.0540   41.4930 C   0  0  0  0  0  3  0  0  0  0  0  0
   35.9780   29.0730   40.7320 C   0  0  0  0  0  3  0  0  0  0  0  0
   34.6390   29.1720   40.0790 C   0  0  0  0  0  0  0  0  0  0  0  0
   34.0200   28.3240   40.3840 H   0  0  0  0  0  0  0  0  0  0  0  0
   34.1450   30.0950   40.4310 H   0  0  0  0  0  0  0  0  0  0  0  0
   33.7200   28.7700   37.8280 C   0  0  0  0  0  3  0  0  0  0  0  0
   34.8230   29.1260   38.6020 C   0  0  0  0  0  0  0  0  0  0  0  0
   35.9810   29.4010   37.9170 C   0  0  0  0  0  0  0  0  0  0  0  0
   36.8310   29.6740   38.5080 H   0  0  0  0  0  0  0  0  0  0  0  0
   36.0060   29.3170   36.5310 C   0  0  0  0  0  0  0  0  0  0  0  0
   37.0040   29.5360   35.6610 N   0  0  0  0  0  0  0  0  0  0  0  0
   36.5530   29.3280   34.4000 C   0  0  0  0  0  0  0  0  0  0  0  0
   37.0200   29.3940   33.4360 H   0  0  0  0  0  0  0  0  0  0  0  0
   35.2410   28.9720   34.4950 N   0  0  0  0  0  0  0  0  0  0  0  0
   34.9030   28.9630   35.7870 C   0  0  0  0  0  0  0  0  0  0  0  0
   33.7300   28.6830   36.4560 C   0  0  0  0  0  3  0  0  0  0  0  0
   37.9810   29.8180   35.8520 H   0  0  0  0  0  0  0  0  0  0  0  0
  1  2  1  0  0  0  0
  2  7  1  0  0  0  0
  2  3  2  0  0  0  0
  3  8  1  0  0  0  0
  4  9  1  0  0  0  0
  4  3  1  0  0  0  0
  5  4  2  0  0  0  0
  6  5  1  0  0  0  0
  6  1  2  0  0  0  0
 10 15  1  0  0  0  0
 11 12  1  0  0  0  0
 11 10  2  0  0  0  0
 12 13  2  0  0  0  0
 13 14  1  0  0  0  0
 14 18  1  0  0  0  0
 15 14  2  0  0  0  0
 16  1  1  0  0  0  0
 17 16  2  0  0  0  0
 18 22  1  0  0  0  0
 18 16  1  0  0  0  0
 19 10  1  0  0  0  0
 20 11  1  0  0  0  0
 21 12  1  0  0  0  0
 23  5  1  0  0  0  0
 24 23  2  0  0  0  0
 25 26  1  0  0  0  0
 25 27  1  0  0  0  0
 25 24  1  0  0  0  0
 28 29  1  0  0  0  0
 29 25  1  0  0  0  0
 30 31  1  0  0  0  0
 30 29  2  0  0  0  0
 32 30  1  0  0  0  0
 33 39  1  0  0  0  0
 33 32  1  0  0  0  0
 34 36  2  0  0  0  0
 34 33  1  0  0  0  0
 35 34  1  0  0  0  0
 36 37  1  0  0  0  0
 37 38  1  0  0  0  0
 37 32  2  0  0  0  0
 38 28  2  0  0  0  0
M  END
>  <minimizedAffinity>
-5.96494579

$$$$

 OpenBabel03242510583D

 39 42  0  0  0  0  0  0  0  0999 V2000
   38.2170   29.1670   42.2920 C   0  0  0  0  0  0  0  0  0  0  0  0
   37.7700   28.9710   43.6160 C   0  0  0  0  0  0  0  0  0  0  0  0
   36.9990   27.8860   44.0000 C   0  0  0  0  0  0  0  0  0  0  0  0
   36.6610   26.9720   43.0380 C   0  0  0  0  0  0  0  0  0  0  0  0
   37.1050   27.1710   41.7260 C   0  0  0  0  0  0  0  0  0  0  0  0
   37.8440   28.2330   41.4220 N   0  0  0  0  0  0  0  0  0  0  0  0
   38.0470   29.7040   44.3630 H   0  0  0  0  0  0  0  0  0  0  0  0
   36.6870   27.7940   45.0370 H   0  0  0  0  0  0  0  0  0  0  0  0
   36.0570   26.1060   43.2930 H   0  0  0  0  0  0  0  0  0  0  0  0
   39.3910   34.7210   40.2520 C   0  0  0  0  0  0  0  0  0  0  0  0
   40.7730   34.6960   40.3870 C   0  0  0  0  0  0  0  0  0  0  0  0
   41.3640   33.4990   40.8230 C   0  0  0  0  0  0  0  0  0  0  0  0
   40.5600   32.4250   41.0920 N   0  0  0  0  0  0  0  0  0  0  0  0
   39.2030   32.5120   40.9400 C   0  0  0  0  0  0  0  0  0  0  0  0
   38.6180   33.6650   40.5190 N   0  0  0  0  0  0  0  0  0  0  0  0
   39.0240   30.3400   41.9900 C   0  0  0  0  0  0  0  0  0  0  0  0
   40.2150   30.3670   42.4200 O   0  0  0  0  0  0  0  0  0  0  0  0
   38.4170   31.3780   41.2300 N   0  0  0  0  0  0  0  0  0  0  0  0
   38.8860   35.6340   39.9140 H   0  0  0  0  0  0  0  0  0  0  0  0
   41.3900   35.5500   40.1710 H   0  0  0  0  0  0  0  0  0  0  0  0
   42.4240   33.3910   40.9550 H   0  0  0  0  0  0  0  0  0  0  0  0
   37.4290   31.2950   40.9050 H   0  0  0  0  0  0  0  0  0  0  0  0
   36.7410   26.1950   40.7190 C   0  0  0  0  0  3  0  0  0  0  0  0
   37.2990   26.2450   39.5060 C   0  0  0  0  0  3  0  0  0  0  0  0
   37.0060   25.2970   38.3900 C   0  0  0  0  0  0  0  0  0  0  0  0
   37.9130   24.7450   38.1310 H   0  0  0  0  0  0  0  0  0  0  0  0
   36.2540   24.5660   38.7390 H   0  0  0  0  0  0  0  0  0  0  0  0
   35.2970   25.8090   36.6900 C   0  0  0  0  0  3  0  0  0  0  0  0
   36.5640   26.0790   37.2030 C   0  0  0  0  0  0  0  0  0  0  0  0
   37.2860   27.0520   36.5540 C   0  0  0  0  0  0  0  0  0  0  0  0
   38.2600   27.2620   36.9440 H   0  0  0  0  0  0  0  0  0  0  0  0
   36.7430   27.7020   35.4530 C   0  0  0  0  0  0  0  0  0  0  0  0
   37.2510   28.6690   34.6720 N   0  0  0  0  0  0  0  0  0  0  0  0
   36.3480   28.9910   33.7140 C   0  0  0  0  0  0  0  0  0  0  0  0
   36.3600   29.6990   32.9080 H   0  0  0  0  0  0  0  0  0  0  0  0
   35.2550   28.2030   33.9100 N   0  0  0  0  0  0  0  0  0  0  0  0
   35.4880   27.4170   34.9640 C   0  0  0  0  0  0  0  0  0  0  0  0
   34.7470   26.4440   35.6020 C   0  0  0  0  0  3  0  0  0  0  0  0
   38.1720   29.1340   34.7340 H   0  0  0  0  0  0  0  0  0  0  0  0
  1  2  1  0  0  0  0
  2  3  2  0  0  0  0
  2  7  1  0  0  0  0
  3  8  1  0  0  0  0
  4  9  1  0  0  0  0
  4  3  1  0  0  0  0
  5  4  2  0  0  0  0
  6  5  1  0  0  0  0
  6  1  2  0  0  0  0
 10 11  2  0  0  0  0
 10 15  1  0  0  0  0
 11 12  1  0  0  0  0
 12 21  1  0  0  0  0
 12 13  2  0  0  0  0
 14 13  1  0  0  0  0
 14 18  1  0  0  0  0
 15 14  2  0  0  0  0
 16  1  1  0  0  0  0
 16 17  2  0  0  0  0
 18 16  1  0  0  0  0
 19 10  1  0  0  0  0
 20 11  1  0  0  0  0
 22 18  1  0  0  0  0
 23  5  1  0  0  0  0
 24 23  2  0  0  0  0
 25 27  1  0  0  0  0
 25 24  1  0  0  0  0
 26 25  1  0  0  0  0
 28 29  1  0  0  0  0
 29 25  1  0  0  0  0
 30 31  1  0  0  0  0
 30 29  2  0  0  0  0
 32 30  1  0  0  0  0
 33 39  1  0  0  0  0
 33 32  1  0  0  0  0
 34 36  2  0  0  0  0
 34 33  1  0  0  0  0
 35 34  1  0  0  0  0
 36 37  1  0  0  0  0
 37 32  2  0  0  0  0
 37 38  1  0  0  0  0
 38 28  2  0  0  0  0
M  END
>  <minimizedAffinity>
-5.93467617

$$$$
