
 OpenBabel03252508593D

 48 51  0  0  1  0  0  0  0  0999 V2000
   47.1490   34.2280   43.4960 N   0  0  0  0  0  0  0  0  0  0  0  0
   46.7180   35.3660   42.7680 C   0  0  0  0  0  0  0  0  0  0  0  0
   45.2290   35.6040   42.7570 C   0  0  0  0  0  0  0  0  0  0  0  0
   44.5170   35.1670   44.0090 C   0  0  0  0  0  0  0  0  0  0  0  0
   45.4850   34.6760   45.0590 C   0  0  0  0  0  0  0  0  0  0  0  0
   46.2720   33.5340   44.3160 C   0  0  2  0  0  0  0  0  0  0  0  0
   47.0700   35.4430   41.7380 H   0  0  0  0  0  0  0  0  0  0  0  0
   47.1590   36.2600   43.3030 H   0  0  0  0  0  0  0  0  0  0  0  0
   45.0630   36.7040   42.5680 H   0  0  0  0  0  0  0  0  0  0  0  0
   44.7940   35.0800   41.8730 H   0  0  0  0  0  0  0  0  0  0  0  0
   43.9700   36.0270   44.4500 H   0  0  0  0  0  0  0  0  0  0  0  0
   43.8030   34.3630   43.7910 H   0  0  0  0  0  0  0  0  0  0  0  0
   44.9350   34.2020   45.8790 H   0  0  0  0  0  0  0  0  0  0  0  0
   46.2120   35.4300   45.3670 H   0  0  0  0  0  0  0  0  0  0  0  0
   45.5040   32.8830   43.8340 H   0  0  0  0  0  0  0  0  0  0  0  0
   48.2320   33.5160   42.8850 C   0  0  0  0  0  0  0  0  0  0  0  0
   48.8140   32.9850   43.6810 H   0  0  0  0  0  0  0  0  0  0  0  0
   48.9060   34.2130   42.3820 H   0  0  0  0  0  0  0  0  0  0  0  0
   47.6680   32.4480   41.9960 C   0  0  0  0  0  0  0  0  0  0  0  0
   46.5570   32.4880   41.9950 H   0  0  0  0  0  0  0  0  0  0  0  0
   47.9510   31.4180   42.2810 H   0  0  0  0  0  0  0  0  0  0  0  0
   49.3740   32.0820   38.6700 C   0  0  0  0  0  0  0  0  0  0  0  0
   48.9700   31.8500   39.9980 C   0  0  0  0  0  0  0  0  0  0  0  0
   48.0830   32.7100   40.5940 C   0  0  0  0  0  0  0  0  0  0  0  0
   47.6380   33.7440   39.8690 N   0  0  0  0  0  0  0  0  0  0  0  0
   48.0220   33.9680   38.6020 C   0  0  0  0  0  0  0  0  0  0  0  0
   48.8890   33.1460   37.9900 N   0  0  0  0  0  0  0  0  0  0  0  0
   50.0700   31.4370   38.1540 H   0  0  0  0  0  0  0  0  0  0  0  0
   49.3650   31.0070   40.5140 H   0  0  0  0  0  0  0  0  0  0  0  0
   47.5950   34.8380   38.1160 H   0  0  0  0  0  0  0  0  0  0  0  0
   46.9320   32.9220   45.3740 O   0  0  0  0  0  0  0  0  0  0  0  0
   45.4290   30.8430   44.7020 O   0  0  0  0  0  0  0  0  0  0  0  0
   46.2090   31.4730   45.8400 P   0  0  2  0  0  0  0  0  0  0  0  0
   45.0330   31.8890   47.0140 O   0  0  0  0  0  0  0  0  0  0  0  0
   45.4120   31.7500   47.9170 H   0  0  0  0  0  0  0  0  0  0  0  0
   47.3110   30.4410   46.5450 O   0  0  0  0  0  0  0  0  0  0  0  0
   48.2210   28.3010   46.9470 C   0  0  0  0  0  3  0  0  0  0  0  0
   47.1090   29.1500   46.9470 C   0  0  0  0  0  0  0  0  0  0  0  0
   45.8920   28.6340   47.3480 C   0  0  0  0  0  0  0  0  0  0  0  0
   45.0200   29.2900   47.3510 H   0  0  0  0  0  0  0  0  0  0  0  0
   45.8060   27.2940   47.7390 C   0  0  0  0  0  0  0  0  0  0  0  0
   44.7350   26.5730   48.1670 N   0  0  0  0  0  0  0  0  0  0  0  0
   45.1160   25.3070   48.4380 C   0  0  0  0  0  0  0  0  0  0  0  0
   44.4510   24.5310   48.7950 H   0  0  0  0  0  0  0  0  0  0  0  0
   46.4400   25.2420   48.1750 N   0  0  0  0  0  0  0  0  0  0  0  0
   46.8940   26.4460   47.7440 C   0  0  0  0  0  0  0  0  0  0  0  0
   48.1040   26.9730   47.3410 C   0  0  0  0  0  3  0  0  0  0  0  0
   43.7790   26.9780   48.2570 H   0  0  0  0  0  0  0  0  0  0  0  0
  1  6  1  0  0  0  0
  2  8  1  0  0  0  0
  2  1  1  0  0  0  0
  3  2  1  0  0  0  0
  3  4  1  0  0  0  0
  4 11  1  0  0  0  0
  4  5  1  0  0  0  0
  5 14  1  0  0  0  0
  5 13  1  0  0  0  0
  6 15  1  6  0  0  0
  6  5  1  0  0  0  0
  6 31  1  0  0  0  0
  7  2  1  0  0  0  0
  9  3  1  0  0  0  0
 10  3  1  0  0  0  0
 12  4  1  0  0  0  0
 16  1  1  0  0  0  0
 16 17  1  0  0  0  0
 18 16  1  0  0  0  0
 19 21  1  0  0  0  0
 19 16  1  0  0  0  0
 20 19  1  0  0  0  0
 22 23  1  0  0  0  0
 23 29  1  0  0  0  0
 23 24  2  0  0  0  0
 24 19  1  0  0  0  0
 25 24  1  0  0  0  0
 26 25  2  0  0  0  0
 27 26  1  0  0  0  0
 27 22  2  0  0  0  0
 28 22  1  0  0  0  0
 30 26  1  0  0  0  0
 31 33  1  0  0  0  0
 33 32  2  6  0  0  0
 33 36  1  0  0  0  0
 33 34  1  0  0  0  0
 34 35  1  0  0  0  0
 36 38  1  0  0  0  0
 37 47  1  0  0  0  0
 38 37  2  0  0  0  0
 38 39  1  0  0  0  0
 39 40  1  0  0  0  0
 39 41  2  0  0  0  0
 41 46  1  0  0  0  0
 41 42  1  0  0  0  0
 42 48  1  0  0  0  0
 42 43  1  0  0  0  0
 43 44  1  0  0  0  0
 45 43  2  0  0  0  0
 46 45  1  0  0  0  0
 47 46  2  0  0  0  0
M  END
>  <minimizedAffinity>
-4.58996487

>  <minimizedRMSD>
1.63365102

$$$$
