
 OpenBabel03242519493D

 41 44  0  0  1  0  0  0  0  0999 V2000
   39.1210   31.0040   39.3210 C   0  0  2  0  0  0  0  0  0  0  0  0
   39.2250   32.4740   39.4040 C   0  0  1  0  0  0  0  0  0  0  0  0
   38.6300   32.8000   40.7050 O   0  0  0  0  0  0  0  0  0  0  0  0
   37.4030   32.1380   40.4640 C   0  0  0  0  0  0  0  0  0  0  0  0
   37.9330   30.6990   40.2210 C   0  0  2  0  0  0  0  0  0  0  0  0
   38.9690   30.6030   38.3040 H   0  0  0  0  0  0  0  0  0  0  0  0
   38.5860   33.0280   38.7090 H   0  0  0  0  0  0  0  0  0  0  0  0
   36.6650   32.2250   41.2210 H   0  0  0  0  0  0  0  0  0  0  0  0
   37.0220   32.5430   39.4910 H   0  0  0  0  0  0  0  0  0  0  0  0
   37.0950   30.1610   39.7260 H   0  0  0  0  0  0  0  0  0  0  0  0
   42.2450   33.8550   37.8890 C   0  0  0  0  0  0  0  0  0  0  0  0
   43.0920   34.0810   38.9740 C   0  0  0  0  0  0  0  0  0  0  0  0
   42.6310   33.7530   40.2650 C   0  0  0  0  0  0  0  0  0  0  0  0
   41.3690   33.2230   40.4040 N   0  0  0  0  0  0  0  0  0  0  0  0
   40.5810   33.0200   39.3270 C   0  0  0  0  0  0  0  0  0  0  0  0
   41.0020   33.3270   38.0720 N   0  0  0  0  0  0  0  0  0  0  0  0
   44.0640   34.4950   38.8230 H   0  0  0  0  0  0  0  0  0  0  0  0
   43.2610   33.9150   41.1300 H   0  0  0  0  0  0  0  0  0  0  0  0
   42.6450   34.1590   36.5830 O   0  0  0  0  0  0  0  0  0  0  0  0
   43.6510   34.1200   36.4290 H   0  0  0  0  0  0  0  0  0  0  0  0
   40.2880   30.4100   39.9160 O   0  0  0  0  0  0  0  0  0  0  0  0
   40.1020   29.4390   39.8760 H   0  0  0  0  0  0  0  0  0  0  0  0
   38.3280   30.2070   41.4270 O   0  0  0  0  0  0  0  0  0  0  0  0
   37.3690   29.6200   42.2130 C   0  0  0  0  0  0  0  0  0  0  0  0
   36.4640   30.2160   42.2480 H   0  0  0  0  0  0  0  0  0  0  0  0
   36.9700   28.7500   41.4920 H   0  0  0  0  0  0  0  0  0  0  0  0
   37.8260   28.9640   43.4500 C   0  0  0  0  0  0  0  0  0  0  0  0
   38.7120   29.4280   43.9270 H   0  0  0  0  0  0  0  0  0  0  0  0
   36.9700   28.8960   44.1670 H   0  0  0  0  0  0  0  0  0  0  0  0
   39.3510   26.8440   43.5240 C   0  0  0  0  0  3  0  0  0  0  0  0
   38.2470   27.5700   43.1480 C   0  0  0  0  0  0  0  0  0  0  0  0
   37.3790   26.8370   42.3210 C   0  0  0  0  0  0  0  0  0  0  0  0
   36.4690   27.3000   41.9560 H   0  0  0  0  0  0  0  0  0  0  0  0
   37.5700   25.5360   41.9070 C   0  0  0  0  0  0  0  0  0  0  0  0
   36.8550   24.7040   41.1310 N   0  0  0  0  0  0  0  0  0  0  0  0
   37.5160   23.5390   41.0590 C   0  0  0  0  0  0  0  0  0  0  0  0
   37.2260   22.6450   40.5170 H   0  0  0  0  0  0  0  0  0  0  0  0
   38.6560   23.6490   41.7970 N   0  0  0  0  0  0  0  0  0  0  0  0
   38.6980   24.8830   42.3270 C   0  0  0  0  0  0  0  0  0  0  0  0
   39.5910   25.5460   43.1410 C   0  0  0  0  0  3  0  0  0  0  0  0
   35.9560   24.9260   40.6750 H   0  0  0  0  0  0  0  0  0  0  0  0
  1  6  1  6  0  0  0
  1  2  1  0  0  0  0
  1 21  1  0  0  0  0
  1  5  1  0  0  0  0
  2  7  1  6  0  0  0
  2  3  1  0  0  0  0
  4  3  1  0  0  0  0
  4  8  1  0  0  0  0
  5 10  1  6  0  0  0
  5  4  1  0  0  0  0
  5 23  1  0  0  0  0
  9  4  1  0  0  0  0
 11 16  2  0  0  0  0
 11 12  1  0  0  0  0
 12 13  2  0  0  0  0
 13 14  1  0  0  0  0
 13 18  1  0  0  0  0
 15  2  1  0  0  0  0
 15 14  2  0  0  0  0
 16 15  1  0  0  0  0
 17 12  1  0  0  0  0
 19 11  1  0  0  0  0
 20 19  1  0  0  0  0
 22 21  1  0  0  0  0
 23 24  1  0  0  0  0
 24 25  1  0  0  0  0
 24 27  1  0  0  0  0
 26 24  1  0  0  0  0
 27 28  1  0  0  0  0
 27 29  1  0  0  0  0
 31 27  1  0  0  0  0
 31 30  1  0  0  0  0
 32 31  2  0  0  0  0
 33 32  1  0  0  0  0
 34 32  1  0  0  0  0
 34 39  2  0  0  0  0
 35 34  1  0  0  0  0
 36 35  1  0  0  0  0
 36 38  2  0  0  0  0
 37 36  1  0  0  0  0
 38 39  1  0  0  0  0
 39 40  1  0  0  0  0
 40 30  2  0  0  0  0
 41 35  1  0  0  0  0
M  END
>  <minimizedAffinity>
-6.31288719

$$$$

 OpenBabel03242519493D

 41 44  0  0  1  0  0  0  0  0999 V2000
   38.2200   31.8220   38.1440 C   0  0  2  0  0  0  0  0  0  0  0  0
   38.9940   32.5590   39.1630 C   0  0  1  0  0  0  0  0  0  0  0  0
   38.6440   31.8950   40.4230 O   0  0  0  0  0  0  0  0  0  0  0  0
   37.2450   32.0490   40.2750 C   0  0  0  0  0  0  0  0  0  0  0  0
   37.0450   31.2780   38.9420 C   0  0  2  0  0  0  0  0  0  0  0  0
   37.8790   32.4280   37.2870 H   0  0  0  0  0  0  0  0  0  0  0  0
   38.6690   33.5890   39.3420 H   0  0  0  0  0  0  0  0  0  0  0  0
   36.6460   31.7130   41.0840 H   0  0  0  0  0  0  0  0  0  0  0  0
   37.0740   33.1390   40.0820 H   0  0  0  0  0  0  0  0  0  0  0  0
   36.0430   31.5910   38.5730 H   0  0  0  0  0  0  0  0  0  0  0  0
   42.2350   33.3670   37.6910 C   0  0  0  0  0  0  0  0  0  0  0  0
   43.1480   32.6880   38.4960 C   0  0  0  0  0  0  0  0  0  0  0  0
   42.6550   31.9240   39.5740 C   0  0  0  0  0  0  0  0  0  0  0  0
   41.2970   31.8780   39.7880 N   0  0  0  0  0  0  0  0  0  0  0  0
   40.4470   32.5520   38.9850 C   0  0  0  0  0  0  0  0  0  0  0  0
   40.8970   33.2940   37.9390 N   0  0  0  0  0  0  0  0  0  0  0  0
   44.1950   32.7500   38.2960 H   0  0  0  0  0  0  0  0  0  0  0  0
   43.3350   31.3840   40.2200 H   0  0  0  0  0  0  0  0  0  0  0  0
   42.6610   34.1410   36.6050 O   0  0  0  0  0  0  0  0  0  0  0  0
   43.5420   33.8390   36.1920 H   0  0  0  0  0  0  0  0  0  0  0  0
   38.9920   30.7020   37.6790 O   0  0  0  0  0  0  0  0  0  0  0  0
   38.3780   30.2350   37.0590 H   0  0  0  0  0  0  0  0  0  0  0  0
   37.1920   29.9540   39.2170 O   0  0  0  0  0  0  0  0  0  0  0  0
   36.0510   29.2000   39.3190 C   0  0  0  0  0  0  0  0  0  0  0  0
   35.3600   29.4130   38.5100 H   0  0  0  0  0  0  0  0  0  0  0  0
   36.4350   28.1320   38.9330 H   0  0  0  0  0  0  0  0  0  0  0  0
   35.5050   28.9860   40.6700 C   0  0  0  0  0  0  0  0  0  0  0  0
   35.0880   29.8910   41.1550 H   0  0  0  0  0  0  0  0  0  0  0  0
   34.7490   28.1620   40.6340 H   0  0  0  0  0  0  0  0  0  0  0  0
   37.2960   29.1910   42.5610 C   0  0  0  0  0  3  0  0  0  0  0  0
   36.5910   28.5350   41.5800 C   0  0  0  0  0  0  0  0  0  0  0  0
   37.0000   27.2000   41.4270 C   0  0  0  0  0  0  0  0  0  0  0  0
   36.5180   26.5740   40.6830 H   0  0  0  0  0  0  0  0  0  0  0  0
   37.9890   26.5730   42.1540 C   0  0  0  0  0  0  0  0  0  0  0  0
   38.4940   25.3280   42.1360 N   0  0  0  0  0  0  0  0  0  0  0  0
   39.4540   25.2600   43.0690 C   0  0  0  0  0  0  0  0  0  0  0  0
   40.0710   24.4050   43.3270 H   0  0  0  0  0  0  0  0  0  0  0  0
   39.5480   26.4780   43.6750 N   0  0  0  0  0  0  0  0  0  0  0  0
   38.6430   27.2980   43.1140 C   0  0  0  0  0  0  0  0  0  0  0  0
   38.2900   28.6150   43.3140 C   0  0  0  0  0  3  0  0  0  0  0  0
   38.1930   24.5630   41.5130 H   0  0  0  0  0  0  0  0  0  0  0  0
  1  6  1  6  0  0  0
  1  5  1  0  0  0  0
  1  2  1  0  0  0  0
  2  7  1  1  0  0  0
  2  3  1  0  0  0  0
  4  3  1  0  0  0  0
  4  8  1  0  0  0  0
  5 10  1  6  0  0  0
  5 23  1  0  0  0  0
  5  4  1  0  0  0  0
  9  4  1  0  0  0  0
 11 16  2  0  0  0  0
 11 12  1  0  0  0  0
 12 13  2  0  0  0  0
 13 14  1  0  0  0  0
 13 18  1  0  0  0  0
 15  2  1  0  0  0  0
 15 14  2  0  0  0  0
 16 15  1  0  0  0  0
 17 12  1  0  0  0  0
 19 11  1  0  0  0  0
 20 19  1  0  0  0  0
 21  1  1  0  0  0  0
 22 21  1  0  0  0  0
 23 24  1  0  0  0  0
 24 27  1  0  0  0  0
 25 24  1  0  0  0  0
 26 24  1  0  0  0  0
 27 28  1  0  0  0  0
 27 31  1  0  0  0  0
 29 27  1  0  0  0  0
 30 40  1  0  0  0  0
 31 30  2  0  0  0  0
 32 31  1  0  0  0  0
 32 34  2  0  0  0  0
 33 32  1  0  0  0  0
 34 39  1  0  0  0  0
 35 34  1  0  0  0  0
 35 36  1  0  0  0  0
 36 37  1  0  0  0  0
 36 38  2  0  0  0  0
 39 40  2  0  0  0  0
 39 38  1  0  0  0  0
 41 35  1  0  0  0  0
M  END
>  <minimizedAffinity>
-5.99717665

$$$$

 OpenBabel03242519493D

 41 44  0  0  1  0  0  0  0  0999 V2000
   40.9480   30.3320   42.5610 C   0  0  2  0  0  0  0  0  0  0  0  0
   41.2610   30.2950   41.1190 C   0  0  1  0  0  0  0  0  0  0  0  0
   40.2180   29.4340   40.5510 O   0  0  0  0  0  0  0  0  0  0  0  0
   40.4630   28.3360   41.4100 C   0  0  0  0  0  0  0  0  0  0  0  0
   40.2060   29.0220   42.7780 C   0  0  2  0  0  0  0  0  0  0  0  0
   41.8230   30.4150   43.2280 H   0  0  0  0  0  0  0  0  0  0  0  0
   42.1770   29.7580   40.8530 H   0  0  0  0  0  0  0  0  0  0  0  0
   39.8920   27.4610   41.2300 H   0  0  0  0  0  0  0  0  0  0  0  0
   41.5590   28.1190   41.3240 H   0  0  0  0  0  0  0  0  0  0  0  0
   40.6620   28.3440   43.5330 H   0  0  0  0  0  0  0  0  0  0  0  0
   40.6530   32.7360   38.4750 C   0  0  0  0  0  0  0  0  0  0  0  0
   41.1480   33.9290   38.9990 C   0  0  0  0  0  0  0  0  0  0  0  0
   41.7120   33.9120   40.2900 C   0  0  0  0  0  0  0  0  0  0  0  0
   41.7540   32.7240   40.9800 N   0  0  0  0  0  0  0  0  0  0  0  0
   41.2630   31.5900   40.4360 C   0  0  0  0  0  0  0  0  0  0  0  0
   40.7140   31.5800   39.1930 N   0  0  0  0  0  0  0  0  0  0  0  0
   41.0960   34.8320   38.4300 H   0  0  0  0  0  0  0  0  0  0  0  0
   42.1060   34.8200   40.7290 H   0  0  0  0  0  0  0  0  0  0  0  0
   40.0810   32.6880   37.1980 O   0  0  0  0  0  0  0  0  0  0  0  0
   40.4310   33.3930   36.5520 H   0  0  0  0  0  0  0  0  0  0  0  0
   40.0280   31.4070   42.8200 O   0  0  0  0  0  0  0  0  0  0  0  0
   39.8260   31.3140   43.7850 H   0  0  0  0  0  0  0  0  0  0  0  0
   38.8630   29.2150   42.8850 O   0  0  0  0  0  0  0  0  0  0  0  0
   38.0580   28.1070   42.8120 C   0  0  0  0  0  0  0  0  0  0  0  0
   38.6290   27.2160   42.5690 H   0  0  0  0  0  0  0  0  0  0  0  0
   37.8680   27.8730   43.9720 H   0  0  0  0  0  0  0  0  0  0  0  0
   36.7320   28.2800   42.1950 C   0  0  0  0  0  0  0  0  0  0  0  0
   36.2730   27.3500   41.8020 H   0  0  0  0  0  0  0  0  0  0  0  0
   36.0520   28.7890   42.9230 H   0  0  0  0  0  0  0  0  0  0  0  0
   36.9270   28.9080   39.6670 C   0  0  0  0  0  3  0  0  0  0  0  0
   36.8450   29.1740   41.0120 C   0  0  0  0  0  0  0  0  0  0  0  0
   36.8880   30.5510   41.2920 C   0  0  0  0  0  0  0  0  0  0  0  0
   36.8310   30.8910   42.3200 H   0  0  0  0  0  0  0  0  0  0  0  0
   36.9970   31.5580   40.3570 C   0  0  0  0  0  0  0  0  0  0  0  0
   37.0510   32.8970   40.4510 N   0  0  0  0  0  0  0  0  0  0  0  0
   37.1580   33.3930   39.2100 C   0  0  0  0  0  0  0  0  0  0  0  0
   37.2250   34.4340   38.9140 H   0  0  0  0  0  0  0  0  0  0  0  0
   37.1730   32.3490   38.3330 N   0  0  0  0  0  0  0  0  0  0  0  0
   37.0730   31.2070   39.0350 C   0  0  0  0  0  0  0  0  0  0  0  0
   37.0370   29.8730   38.6940 C   0  0  0  0  0  3  0  0  0  0  0  0
   37.0140   33.4430   41.3260 H   0  0  0  0  0  0  0  0  0  0  0  0
  1  5  1  0  0  0  0
  1 21  1  0  0  0  0
  1  6  1  1  0  0  0
  2  7  1  6  0  0  0
  2  1  1  0  0  0  0
  3  2  1  0  0  0  0
  3  4  1  0  0  0  0
  4  5  1  0  0  0  0
  5 23  1  0  0  0  0
  5 10  1  1  0  0  0
  8  4  1  0  0  0  0
  9  4  1  0  0  0  0
 11 12  2  0  0  0  0
 11 16  1  0  0  0  0
 12 13  1  0  0  0  0
 13 18  1  0  0  0  0
 13 14  2  0  0  0  0
 15 14  1  0  0  0  0
 15  2  1  0  0  0  0
 16 15  2  0  0  0  0
 17 12  1  0  0  0  0
 19 11  1  0  0  0  0
 20 19  1  0  0  0  0
 21 22  1  0  0  0  0
 24 23  1  0  0  0  0
 24 26  1  0  0  0  0
 25 24  1  0  0  0  0
 27 24  1  0  0  0  0
 27 29  1  0  0  0  0
 28 27  1  0  0  0  0
 30 31  1  0  0  0  0
 31 32  2  0  0  0  0
 31 27  1  0  0  0  0
 32 33  1  0  0  0  0
 34 35  1  0  0  0  0
 34 32  1  0  0  0  0
 35 41  1  0  0  0  0
 36 35  1  0  0  0  0
 37 36  1  0  0  0  0
 38 39  1  0  0  0  0
 38 36  2  0  0  0  0
 39 34  2  0  0  0  0
 40 39  1  0  0  0  0
 40 30  2  0  0  0  0
M  END
>  <minimizedAffinity>
-5.89662695

$$$$

 OpenBabel03242519493D

 41 44  0  0  1  0  0  0  0  0999 V2000
   41.6470   29.8600   40.8370 C   0  0  2  0  0  0  0  0  0  0  0  0
   41.2720   29.9930   42.2590 C   0  0  1  0  0  0  0  0  0  0  0  0
   40.6720   31.3290   42.3440 O   0  0  0  0  0  0  0  0  0  0  0  0
   41.7770   32.0120   41.7840 C   0  0  0  0  0  0  0  0  0  0  0  0
   41.8390   31.3060   40.4030 C   0  0  2  0  0  0  0  0  0  0  0  0
   42.5530   29.2590   40.6470 H   0  0  0  0  0  0  0  0  0  0  0  0
   42.1110   30.0680   42.9580 H   0  0  0  0  0  0  0  0  0  0  0  0
   41.7060   33.0700   41.7460 H   0  0  0  0  0  0  0  0  0  0  0  0
   42.6690   31.6960   42.3830 H   0  0  0  0  0  0  0  0  0  0  0  0
   42.8480   31.5440   39.9990 H   0  0  0  0  0  0  0  0  0  0  0  0
   38.1010   28.5880   43.3960 C   0  0  0  0  0  0  0  0  0  0  0  0
   38.4060   27.2580   43.6790 C   0  0  0  0  0  0  0  0  0  0  0  0
   39.7310   26.8160   43.4850 C   0  0  0  0  0  0  0  0  0  0  0  0
   40.6680   27.7110   43.0260 N   0  0  0  0  0  0  0  0  0  0  0  0
   40.3310   28.9920   42.7630 C   0  0  0  0  0  0  0  0  0  0  0  0
   39.0610   29.4430   42.9420 N   0  0  0  0  0  0  0  0  0  0  0  0
   37.6490   26.5940   44.0340 H   0  0  0  0  0  0  0  0  0  0  0  0
   40.0030   25.7890   43.6950 H   0  0  0  0  0  0  0  0  0  0  0  0
   36.8050   29.0880   43.5690 O   0  0  0  0  0  0  0  0  0  0  0  0
   36.2590   28.6060   44.2820 H   0  0  0  0  0  0  0  0  0  0  0  0
   40.5360   29.3230   40.1000 O   0  0  0  0  0  0  0  0  0  0  0  0
   40.8510   29.3320   39.1620 H   0  0  0  0  0  0  0  0  0  0  0  0
   40.7830   31.7570   39.6730 O   0  0  0  0  0  0  0  0  0  0  0  0
   40.5600   33.1100   39.6550 C   0  0  0  0  0  0  0  0  0  0  0  0
   41.3340   33.6470   40.1930 H   0  0  0  0  0  0  0  0  0  0  0  0
   40.9020   33.3930   38.5410 H   0  0  0  0  0  0  0  0  0  0  0  0
   39.1650   33.5620   39.7930 C   0  0  0  0  0  0  0  0  0  0  0  0
   38.8560   33.8150   40.8270 H   0  0  0  0  0  0  0  0  0  0  0  0
   38.9860   34.4190   39.0970 H   0  0  0  0  0  0  0  0  0  0  0  0
   38.0000   31.8920   38.1580 C   0  0  0  0  0  3  0  0  0  0  0  0
   38.2440   32.4710   39.3800 C   0  0  0  0  0  0  0  0  0  0  0  0
   37.4590   31.9150   40.4040 C   0  0  0  0  0  0  0  0  0  0  0  0
   37.5590   32.2880   41.4180 H   0  0  0  0  0  0  0  0  0  0  0  0
   36.5350   30.9030   40.2510 C   0  0  0  0  0  0  0  0  0  0  0  0
   35.7160   30.2690   41.1060 N   0  0  0  0  0  0  0  0  0  0  0  0
   35.0230   29.3560   40.4120 C   0  0  0  0  0  0  0  0  0  0  0  0
   34.2730   28.6660   40.7850 H   0  0  0  0  0  0  0  0  0  0  0  0
   35.4140   29.4240   39.1080 N   0  0  0  0  0  0  0  0  0  0  0  0
   36.3520   30.3800   38.9980 C   0  0  0  0  0  0  0  0  0  0  0  0
   37.0910   30.8810   37.9490 C   0  0  0  0  0  3  0  0  0  0  0  0
   35.6390   30.4550   42.1190 H   0  0  0  0  0  0  0  0  0  0  0  0
  1  6  1  6  0  0  0
  1  2  1  0  0  0  0
  2  3  1  0  0  0  0
  2 15  1  0  0  0  0
  2  7  1  1  0  0  0
  4  3  1  0  0  0  0
  4  9  1  0  0  0  0
  5 10  1  6  0  0  0
  5  1  1  0  0  0  0
  5  4  1  0  0  0  0
  8  4  1  0  0  0  0
 11 19  1  0  0  0  0
 11 12  1  0  0  0  0
 12 17  1  0  0  0  0
 13 12  2  0  0  0  0
 13 18  1  0  0  0  0
 14 13  1  0  0  0  0
 15 16  1  0  0  0  0
 15 14  2  0  0  0  0
 16 11  2  0  0  0  0
 19 20  1  0  0  0  0
 21  1  1  0  0  0  0
 22 21  1  0  0  0  0
 23  5  1  0  0  0  0
 24 23  1  0  0  0  0
 24 27  1  0  0  0  0
 24 25  1  0  0  0  0
 26 24  1  0  0  0  0
 27 28  1  0  0  0  0
 29 27  1  0  0  0  0
 30 31  1  0  0  0  0
 31 27  1  0  0  0  0
 31 32  2  0  0  0  0
 32 33  1  0  0  0  0
 34 32  1  0  0  0  0
 34 35  1  0  0  0  0
 35 41  1  0  0  0  0
 36 37  1  0  0  0  0
 36 35  1  0  0  0  0
 38 36  2  0  0  0  0
 39 38  1  0  0  0  0
 39 34  2  0  0  0  0
 40 30  2  0  0  0  0
 40 39  1  0  0  0  0
M  END
>  <minimizedAffinity>
-5.87417889

$$$$

 OpenBabel03242519493D

 41 44  0  0  1  0  0  0  0  0999 V2000
   39.1480   31.9990   38.9290 C   0  0  2  0  0  0  0  0  0  0  0  0
   39.6210   33.3520   39.2800 C   0  0  1  0  0  0  0  0  0  0  0  0
   38.8640   33.6900   40.4900 O   0  0  0  0  0  0  0  0  0  0  0  0
   37.5880   33.4540   39.9240 C   0  0  0  0  0  0  0  0  0  0  0  0
   37.7540   31.9610   39.5360 C   0  0  2  0  0  0  0  0  0  0  0  0
   39.1220   31.7790   37.8470 H   0  0  0  0  0  0  0  0  0  0  0  0
   39.3230   34.1460   38.5880 H   0  0  0  0  0  0  0  0  0  0  0  0
   36.7530   33.6700   40.5410 H   0  0  0  0  0  0  0  0  0  0  0  0
   37.5540   34.0620   38.9830 H   0  0  0  0  0  0  0  0  0  0  0  0
   36.9330   31.7550   38.8140 H   0  0  0  0  0  0  0  0  0  0  0  0
   42.6920   33.8220   41.1970 C   0  0  0  0  0  0  0  0  0  0  0  0
   43.7030   33.7110   40.2440 C   0  0  0  0  0  0  0  0  0  0  0  0
   43.3380   33.4730   38.9030 C   0  0  0  0  0  0  0  0  0  0  0  0
   42.0040   33.3610   38.5880 N   0  0  0  0  0  0  0  0  0  0  0  0
   41.0560   33.4750   39.5420 C   0  0  0  0  0  0  0  0  0  0  0  0
   41.3810   33.7040   40.8410 N   0  0  0  0  0  0  0  0  0  0  0  0
   44.7270   33.8040   40.5300 H   0  0  0  0  0  0  0  0  0  0  0  0
   44.0970   33.3810   38.1360 H   0  0  0  0  0  0  0  0  0  0  0  0
   42.9890   34.0590   42.5440 O   0  0  0  0  0  0  0  0  0  0  0  0
   43.8620   34.5590   42.7020 H   0  0  0  0  0  0  0  0  0  0  0  0
   39.9520   31.0210   39.6110 O   0  0  0  0  0  0  0  0  0  0  0  0
   39.5270   30.1600   39.3730 H   0  0  0  0  0  0  0  0  0  0  0  0
   37.7270   31.2400   40.6910 O   0  0  0  0  0  0  0  0  0  0  0  0
   36.5190   30.7210   41.0820 C   0  0  0  0  0  0  0  0  0  0  0  0
   36.4160   30.7240   42.1620 H   0  0  0  0  0  0  0  0  0  0  0  0
   35.7780   31.6310   40.8390 H   0  0  0  0  0  0  0  0  0  0  0  0
   36.0140   29.5580   40.3320 C   0  0  0  0  0  0  0  0  0  0  0  0
   34.9120   29.5050   40.2360 H   0  0  0  0  0  0  0  0  0  0  0  0
   36.5090   29.5240   39.3290 H   0  0  0  0  0  0  0  0  0  0  0  0
   36.5960   28.0320   42.3710 C   0  0  0  0  0  3  0  0  0  0  0  0
   36.3910   28.3060   41.0410 C   0  0  0  0  0  0  0  0  0  0  0  0
   36.5910   27.1800   40.2240 C   0  0  0  0  0  0  0  0  0  0  0  0
   36.4590   27.2670   39.1510 H   0  0  0  0  0  0  0  0  0  0  0  0
   36.9500   25.9230   40.6610 C   0  0  0  0  0  0  0  0  0  0  0  0
   37.1780   24.7600   40.0270 N   0  0  0  0  0  0  0  0  0  0  0  0
   37.5010   23.8440   40.9520 C   0  0  0  0  0  0  0  0  0  0  0  0
   37.7470   22.8000   40.7940 H   0  0  0  0  0  0  0  0  0  0  0  0
   37.4760   24.4460   42.1750 N   0  0  0  0  0  0  0  0  0  0  0  0
   37.1350   25.7340   42.0050 C   0  0  0  0  0  0  0  0  0  0  0  0
   36.9550   26.7990   42.8600 C   0  0  0  0  0  3  0  0  0  0  0  0
   37.1130   24.6040   39.0090 H   0  0  0  0  0  0  0  0  0  0  0  0
  1  6  1  6  0  0  0
  1  2  1  0  0  0  0
  1  5  1  0  0  0  0
  1 21  1  0  0  0  0
  2  7  1  6  0  0  0
  2 15  1  0  0  0  0
  2  3  1  0  0  0  0
  4  3  1  0  0  0  0
  4  8  1  0  0  0  0
  5 10  1  6  0  0  0
  5  4  1  0  0  0  0
  5 23  1  0  0  0  0
  9  4  1  0  0  0  0
 11 19  1  0  0  0  0
 12 17  1  0  0  0  0
 12 11  2  0  0  0  0
 13 12  1  0  0  0  0
 14 13  2  0  0  0  0
 14 15  1  0  0  0  0
 15 16  2  0  0  0  0
 16 11  1  0  0  0  0
 18 13  1  0  0  0  0
 19 20  1  0  0  0  0
 22 21  1  0  0  0  0
 23 24  1  0  0  0  0
 24 25  1  0  0  0  0
 26 24  1  0  0  0  0
 27 31  1  0  0  0  0
 27 24  1  0  0  0  0
 28 27  1  0  0  0  0
 29 27  1  0  0  0  0
 30 40  1  0  0  0  0
 31 30  2  0  0  0  0
 32 34  2  0  0  0  0
 32 31  1  0  0  0  0
 33 32  1  0  0  0  0
 34 39  1  0  0  0  0
 35 34  1  0  0  0  0
 35 36  1  0  0  0  0
 36 38  2  0  0  0  0
 37 36  1  0  0  0  0
 39 38  1  0  0  0  0
 39 40  2  0  0  0  0
 41 35  1  0  0  0  0
M  END
>  <minimizedAffinity>
-5.81831074

$$$$

 OpenBabel03242519493D

 41 44  0  0  1  0  0  0  0  0999 V2000
   38.8310   28.0770   43.2320 C   0  0  2  0  0  0  0  0  0  0  0  0
   38.7670   26.8250   42.4530 C   0  0  1  0  0  0  0  0  0  0  0  0
   37.8690   27.1450   41.3390 O   0  0  0  0  0  0  0  0  0  0  0  0
   36.7980   27.5900   42.1490 C   0  0  0  0  0  0  0  0  0  0  0  0
   37.5090   28.7510   42.8950 C   0  0  2  0  0  0  0  0  0  0  0  0
   38.9490   27.9450   44.3210 H   0  0  0  0  0  0  0  0  0  0  0  0
   38.2460   25.9960   42.9430 H   0  0  0  0  0  0  0  0  0  0  0  0
   35.9050   27.8600   41.6430 H   0  0  0  0  0  0  0  0  0  0  0  0
   36.6040   26.7660   42.8820 H   0  0  0  0  0  0  0  0  0  0  0  0
   36.8600   28.9750   43.7700 H   0  0  0  0  0  0  0  0  0  0  0  0
   42.0690   25.2700   42.4910 C   0  0  0  0  0  0  0  0  0  0  0  0
   42.4820   25.3260   41.1610 C   0  0  0  0  0  0  0  0  0  0  0  0
   41.6180   25.9130   40.2130 C   0  0  0  0  0  0  0  0  0  0  0  0
   40.4060   26.4070   40.6370 N   0  0  0  0  0  0  0  0  0  0  0  0
   40.0450   26.3330   41.9360 C   0  0  0  0  0  0  0  0  0  0  0  0
   40.8600   25.7730   42.8680 N   0  0  0  0  0  0  0  0  0  0  0  0
   43.4300   24.9300   40.8720 H   0  0  0  0  0  0  0  0  0  0  0  0
   41.9050   25.9730   39.1720 H   0  0  0  0  0  0  0  0  0  0  0  0
   42.8820   24.7010   43.4790 O   0  0  0  0  0  0  0  0  0  0  0  0
   43.8800   24.7470   43.2810 H   0  0  0  0  0  0  0  0  0  0  0  0
   39.8890   28.9030   42.7180 O   0  0  0  0  0  0  0  0  0  0  0  0
   39.8150   29.7360   43.2470 H   0  0  0  0  0  0  0  0  0  0  0  0
   37.6730   29.7630   42.0000 O   0  0  0  0  0  0  0  0  0  0  0  0
   36.5430   30.4020   41.5560 C   0  0  0  0  0  0  0  0  0  0  0  0
   35.6530   29.8120   41.7450 H   0  0  0  0  0  0  0  0  0  0  0  0
   36.3830   31.2260   42.4120 H   0  0  0  0  0  0  0  0  0  0  0  0
   36.6430   31.1340   40.2820 C   0  0  0  0  0  0  0  0  0  0  0  0
   35.9850   32.0220   40.2000 H   0  0  0  0  0  0  0  0  0  0  0  0
   37.7130   31.4060   40.0980 H   0  0  0  0  0  0  0  0  0  0  0  0
   35.2940   29.2400   39.0930 C   0  0  0  0  0  3  0  0  0  0  0  0
   36.2240   30.2480   39.1640 C   0  0  0  0  0  0  0  0  0  0  0  0
   36.8910   30.4500   37.9440 C   0  0  0  0  0  0  0  0  0  0  0  0
   37.6520   31.2210   37.8700 H   0  0  0  0  0  0  0  0  0  0  0  0
   36.6720   29.7440   36.7810 C   0  0  0  0  0  0  0  0  0  0  0  0
   37.2120   29.8070   35.5520 N   0  0  0  0  0  0  0  0  0  0  0  0
   36.6190   28.8730   34.7940 C   0  0  0  0  0  0  0  0  0  0  0  0
   36.8090   28.6460   33.7500 H   0  0  0  0  0  0  0  0  0  0  0  0
   35.7010   28.2200   35.5620 N   0  0  0  0  0  0  0  0  0  0  0  0
   35.7270   28.7530   36.7950 C   0  0  0  0  0  0  0  0  0  0  0  0
   35.0360   28.5050   37.9610 C   0  0  0  0  0  3  0  0  0  0  0  0
   37.9510   30.4610   35.2490 H   0  0  0  0  0  0  0  0  0  0  0  0
  1  6  1  1  0  0  0
  2  7  1  1  0  0  0
  2  1  1  0  0  0  0
  3  4  1  0  0  0  0
  3  2  1  0  0  0  0
  4  9  1  0  0  0  0
  4  5  1  0  0  0  0
  5  1  1  0  0  0  0
  5 10  1  1  0  0  0
  8  4  1  0  0  0  0
 11 16  1  0  0  0  0
 11 19  1  0  0  0  0
 12 11  2  0  0  0  0
 13 14  2  0  0  0  0
 13 12  1  0  0  0  0
 14 15  1  0  0  0  0
 15  2  1  0  0  0  0
 15 16  2  0  0  0  0
 17 12  1  0  0  0  0
 18 13  1  0  0  0  0
 20 19  1  0  0  0  0
 21  1  1  0  0  0  0
 21 22  1  0  0  0  0
 23  5  1  0  0  0  0
 24 25  1  0  0  0  0
 24 23  1  0  0  0  0
 24 26  1  0  0  0  0
 27 24  1  0  0  0  0
 28 27  1  0  0  0  0
 29 27  1  0  0  0  0
 30 31  1  0  0  0  0
 31 27  1  0  0  0  0
 32 31  2  0  0  0  0
 33 32  1  0  0  0  0
 34 39  2  0  0  0  0
 34 32  1  0  0  0  0
 35 34  1  0  0  0  0
 36 35  1  0  0  0  0
 36 38  2  0  0  0  0
 37 36  1  0  0  0  0
 38 39  1  0  0  0  0
 39 40  1  0  0  0  0
 40 30  2  0  0  0  0
 41 35  1  0  0  0  0
M  END
>  <minimizedAffinity>
-5.67421913

$$$$

 OpenBabel03242519493D

 41 44  0  0  1  0  0  0  0  0999 V2000
   38.5420   31.4820   37.6450 C   0  0  2  0  0  0  0  0  0  0  0  0
   38.2680   30.0340   37.7290 C   0  0  1  0  0  0  0  0  0  0  0  0
   39.1580   29.5660   38.7980 O   0  0  0  0  0  0  0  0  0  0  0  0
   40.3440   30.0820   38.2240 C   0  0  0  0  0  0  0  0  0  0  0  0
   39.9660   31.5870   38.1690 C   0  0  2  0  0  0  0  0  0  0  0  0
   38.4510   31.9170   36.6350 H   0  0  0  0  0  0  0  0  0  0  0  0
   38.6040   29.4440   36.8700 H   0  0  0  0  0  0  0  0  0  0  0  0
   41.2480   29.8630   38.7340 H   0  0  0  0  0  0  0  0  0  0  0  0
   40.3750   29.6870   37.1760 H   0  0  0  0  0  0  0  0  0  0  0  0
   40.6930   32.0440   37.4620 H   0  0  0  0  0  0  0  0  0  0  0  0
   35.3240   29.3110   39.7610 C   0  0  0  0  0  0  0  0  0  0  0  0
   34.3320   29.0210   38.8250 C   0  0  0  0  0  0  0  0  0  0  0  0
   34.6680   29.0650   37.4560 C   0  0  0  0  0  0  0  0  0  0  0  0
   35.9550   29.3910   37.0990 N   0  0  0  0  0  0  0  0  0  0  0  0
   36.8850   29.6660   38.0380 C   0  0  0  0  0  0  0  0  0  0  0  0
   36.5880   29.6290   39.3640 N   0  0  0  0  0  0  0  0  0  0  0  0
   33.3440   28.7720   39.1440 H   0  0  0  0  0  0  0  0  0  0  0  0
   33.9230   28.8460   36.7020 H   0  0  0  0  0  0  0  0  0  0  0  0
   35.0540   29.2830   41.1350 O   0  0  0  0  0  0  0  0  0  0  0  0
   34.3010   28.6510   41.4040 H   0  0  0  0  0  0  0  0  0  0  0  0
   37.6830   32.1820   38.5610 O   0  0  0  0  0  0  0  0  0  0  0  0
   37.9790   33.1240   38.4860 H   0  0  0  0  0  0  0  0  0  0  0  0
   40.0000   32.0570   39.4460 O   0  0  0  0  0  0  0  0  0  0  0  0
   41.1510   31.8520   40.1630 C   0  0  0  0  0  0  0  0  0  0  0  0
   41.7730   31.0890   39.7070 H   0  0  0  0  0  0  0  0  0  0  0  0
   41.8010   32.8090   39.8480 H   0  0  0  0  0  0  0  0  0  0  0  0
   41.0420   31.8850   41.6310 C   0  0  0  0  0  0  0  0  0  0  0  0
   41.9980   32.0390   42.1690 H   0  0  0  0  0  0  0  0  0  0  0  0
   40.2840   32.6530   41.9260 H   0  0  0  0  0  0  0  0  0  0  0  0
   41.1630   29.3630   42.3030 C   0  0  0  0  0  3  0  0  0  0  0  0
   40.5400   30.5740   42.1230 C   0  0  0  0  0  0  0  0  0  0  0  0
   39.1770   30.5320   42.4640 C   0  0  0  0  0  0  0  0  0  0  0  0
   38.5730   31.4280   42.3650 H   0  0  0  0  0  0  0  0  0  0  0  0
   38.4990   29.4280   42.9330 C   0  0  0  0  0  0  0  0  0  0  0  0
   37.2230   29.2200   43.2990 N   0  0  0  0  0  0  0  0  0  0  0  0
   37.1080   27.9390   43.6800 C   0  0  0  0  0  0  0  0  0  0  0  0
   36.2180   27.4300   44.0350 H   0  0  0  0  0  0  0  0  0  0  0  0
   38.3270   27.3430   43.5470 N   0  0  0  0  0  0  0  0  0  0  0  0
   39.1950   28.2580   43.0850 C   0  0  0  0  0  0  0  0  0  0  0  0
   40.5350   28.2320   42.7670 C   0  0  0  0  0  3  0  0  0  0  0  0
   36.4690   29.9240   43.2890 H   0  0  0  0  0  0  0  0  0  0  0  0
  1  6  1  6  0  0  0
  1  2  1  0  0  0  0
  1  5  1  0  0  0  0
  1 21  1  0  0  0  0
  2  7  1  6  0  0  0
  2 15  1  0  0  0  0
  2  3  1  0  0  0  0
  4  8  1  0  0  0  0
  4  3  1  0  0  0  0
  5 10  1  6  0  0  0
  5  4  1  0  0  0  0
  5 23  1  0  0  0  0
  9  4  1  0  0  0  0
 11 19  1  0  0  0  0
 12 17  1  0  0  0  0
 12 11  2  0  0  0  0
 13 12  1  0  0  0  0
 14 13  2  0  0  0  0
 14 15  1  0  0  0  0
 15 16  2  0  0  0  0
 16 11  1  0  0  0  0
 18 13  1  0  0  0  0
 19 20  1  0  0  0  0
 22 21  1  0  0  0  0
 23 24  1  0  0  0  0
 24 27  1  0  0  0  0
 25 24  1  0  0  0  0
 26 24  1  0  0  0  0
 27 29  1  0  0  0  0
 27 31  1  0  0  0  0
 27 28  1  0  0  0  0
 30 40  1  0  0  0  0
 31 30  2  0  0  0  0
 31 32  1  0  0  0  0
 32 34  2  0  0  0  0
 33 32  1  0  0  0  0
 34 39  1  0  0  0  0
 34 35  1  0  0  0  0
 35 36  1  0  0  0  0
 36 37  1  0  0  0  0
 38 36  2  0  0  0  0
 39 38  1  0  0  0  0
 40 39  2  0  0  0  0
 41 35  1  0  0  0  0
M  END
>  <minimizedAffinity>
-5.60366488

$$$$

 OpenBabel03242519493D

 41 44  0  0  1  0  0  0  0  0999 V2000
   37.3560   27.2510   38.0340 C   0  0  2  0  0  0  0  0  0  0  0  0
   36.3760   28.2920   37.6660 C   0  0  1  0  0  0  0  0  0  0  0  0
   35.0970   27.7640   38.1520 O   0  0  0  0  0  0  0  0  0  0  0  0
   35.1880   26.5300   37.4640 C   0  0  0  0  0  0  0  0  0  0  0  0
   36.5050   25.9910   38.0840 C   0  0  2  0  0  0  0  0  0  0  0  0
   38.2030   27.1380   37.3350 H   0  0  0  0  0  0  0  0  0  0  0  0
   36.1920   28.4020   36.5920 H   0  0  0  0  0  0  0  0  0  0  0  0
   34.3520   25.8830   37.5480 H   0  0  0  0  0  0  0  0  0  0  0  0
   35.3820   26.7900   36.3920 H   0  0  0  0  0  0  0  0  0  0  0  0
   36.8340   25.1760   37.4020 H   0  0  0  0  0  0  0  0  0  0  0  0
   36.2850   30.9980   40.1140 C   0  0  0  0  0  0  0  0  0  0  0  0
   36.9800   32.0350   39.4940 C   0  0  0  0  0  0  0  0  0  0  0  0
   37.4970   31.8190   38.2000 C   0  0  0  0  0  0  0  0  0  0  0  0
   37.2950   30.5970   37.6010 N   0  0  0  0  0  0  0  0  0  0  0  0
   36.6160   29.6190   38.2370 C   0  0  0  0  0  0  0  0  0  0  0  0
   36.1080   29.8030   39.4840 N   0  0  0  0  0  0  0  0  0  0  0  0
   37.1160   32.9690   39.9940 H   0  0  0  0  0  0  0  0  0  0  0  0
   38.0420   32.6020   37.6890 H   0  0  0  0  0  0  0  0  0  0  0  0
   35.7480   31.1510   41.3970 O   0  0  0  0  0  0  0  0  0  0  0  0
   35.5090   32.1100   41.6430 H   0  0  0  0  0  0  0  0  0  0  0  0
   37.8440   27.5050   39.3620 O   0  0  0  0  0  0  0  0  0  0  0  0
   38.4340   26.7330   39.5470 H   0  0  0  0  0  0  0  0  0  0  0  0
   36.2260   25.6220   39.3640 O   0  0  0  0  0  0  0  0  0  0  0  0
   36.5450   24.3410   39.7350 C   0  0  0  0  0  0  0  0  0  0  0  0
   36.0690   23.6100   39.0900 H   0  0  0  0  0  0  0  0  0  0  0  0
   37.6610   24.2400   39.3080 H   0  0  0  0  0  0  0  0  0  0  0  0
   36.6210   24.0600   41.1790 C   0  0  0  0  0  0  0  0  0  0  0  0
   35.6450   24.0360   41.7030 H   0  0  0  0  0  0  0  0  0  0  0  0
   37.1880   23.1090   41.3380 H   0  0  0  0  0  0  0  0  0  0  0  0
   36.9840   26.2480   42.5580 C   0  0  0  0  0  3  0  0  0  0  0  0
   37.3880   25.1380   41.8570 C   0  0  0  0  0  0  0  0  0  0  0  0
   38.7870   25.0340   41.7750 C   0  0  0  0  0  0  0  0  0  0  0  0
   39.2320   24.1990   41.2450 H   0  0  0  0  0  0  0  0  0  0  0  0
   39.6920   25.9190   42.3200 C   0  0  0  0  0  0  0  0  0  0  0  0
   41.0350   25.9690   42.3350 N   0  0  0  0  0  0  0  0  0  0  0  0
   41.3990   27.0630   43.0180 C   0  0  0  0  0  0  0  0  0  0  0  0
   42.4050   27.4120   43.2250 H   0  0  0  0  0  0  0  0  0  0  0  0
   40.2690   27.7030   43.4330 N   0  0  0  0  0  0  0  0  0  0  0  0
   39.2060   27.0010   43.0050 C   0  0  0  0  0  0  0  0  0  0  0  0
   37.8430   27.1610   43.1220 C   0  0  0  0  0  3  0  0  0  0  0  0
   41.6690   25.2830   41.8970 H   0  0  0  0  0  0  0  0  0  0  0  0
  1  6  1  6  0  0  0
  1  5  1  0  0  0  0
  1 21  1  0  0  0  0
  2  7  1  6  0  0  0
  2  1  1  0  0  0  0
  2  3  1  0  0  0  0
  2 15  1  0  0  0  0
  4  8  1  0  0  0  0
  4  5  1  0  0  0  0
  4  3  1  0  0  0  0
  5 10  1  6  0  0  0
  5 23  1  0  0  0  0
  9  4  1  0  0  0  0
 11 19  1  0  0  0  0
 12 17  1  0  0  0  0
 12 11  1  0  0  0  0
 13 12  2  0  0  0  0
 14 13  1  0  0  0  0
 14 15  2  0  0  0  0
 15 16  1  0  0  0  0
 16 11  2  0  0  0  0
 18 13  1  0  0  0  0
 19 20  1  0  0  0  0
 21 22  1  0  0  0  0
 23 24  1  0  0  0  0
 24 27  1  0  0  0  0
 25 24  1  0  0  0  0
 26 24  1  0  0  0  0
 27 29  1  0  0  0  0
 27 28  1  0  0  0  0
 27 31  1  0  0  0  0
 30 40  1  0  0  0  0
 31 30  2  0  0  0  0
 32 31  1  0  0  0  0
 32 34  2  0  0  0  0
 33 32  1  0  0  0  0
 34 35  1  0  0  0  0
 34 39  1  0  0  0  0
 35 36  1  0  0  0  0
 36 37  1  0  0  0  0
 36 38  2  0  0  0  0
 39 40  2  0  0  0  0
 39 38  1  0  0  0  0
 41 35  1  0  0  0  0
M  END
>  <minimizedAffinity>
-5.58914614

$$$$

 OpenBabel03242519493D

 41 44  0  0  1  0  0  0  0  0999 V2000
   37.4260   27.2550   38.0380 C   0  0  2  0  0  0  0  0  0  0  0  0
   36.4540   28.2840   37.6190 C   0  0  1  0  0  0  0  0  0  0  0  0
   35.2060   27.8810   38.2760 O   0  0  0  0  0  0  0  0  0  0  0  0
   35.1930   26.5660   37.7520 C   0  0  0  0  0  0  0  0  0  0  0  0
   36.5410   26.0520   38.3250 C   0  0  2  0  0  0  0  0  0  0  0  0
   38.2030   27.0150   37.2920 H   0  0  0  0  0  0  0  0  0  0  0  0
   36.1780   28.2630   36.5600 H   0  0  0  0  0  0  0  0  0  0  0  0
   34.3470   25.9730   37.9900 H   0  0  0  0  0  0  0  0  0  0  0  0
   35.3000   26.6770   36.6430 H   0  0  0  0  0  0  0  0  0  0  0  0
   36.7800   25.1420   37.7310 H   0  0  0  0  0  0  0  0  0  0  0  0
   37.8310   31.6470   37.2820 C   0  0  0  0  0  0  0  0  0  0  0  0
   37.4890   32.2720   38.4810 C   0  0  0  0  0  0  0  0  0  0  0  0
   36.7700   31.5320   39.4420 C   0  0  0  0  0  0  0  0  0  0  0  0
   36.4370   30.2280   39.1620 N   0  0  0  0  0  0  0  0  0  0  0  0
   36.7880   29.6610   37.9890 C   0  0  0  0  0  0  0  0  0  0  0  0
   37.4810   30.3520   37.0460 N   0  0  0  0  0  0  0  0  0  0  0  0
   37.7660   33.2870   38.6590 H   0  0  0  0  0  0  0  0  0  0  0  0
   36.4880   31.9850   40.3840 H   0  0  0  0  0  0  0  0  0  0  0  0
   38.5440   32.3280   36.2880 O   0  0  0  0  0  0  0  0  0  0  0  0
   39.1450   33.0740   36.6360 H   0  0  0  0  0  0  0  0  0  0  0  0
   38.0390   27.6550   39.2760 O   0  0  0  0  0  0  0  0  0  0  0  0
   38.6170   26.8870   39.5100 H   0  0  0  0  0  0  0  0  0  0  0  0
   36.3640   25.8630   39.6610 O   0  0  0  0  0  0  0  0  0  0  0  0
   36.4530   24.5780   40.1340 C   0  0  0  0  0  0  0  0  0  0  0  0
   35.7400   23.9240   39.6430 H   0  0  0  0  0  0  0  0  0  0  0  0
   37.4450   24.1900   39.5830 H   0  0  0  0  0  0  0  0  0  0  0  0
   36.6820   24.4100   41.5790 C   0  0  0  0  0  0  0  0  0  0  0  0
   35.7640   24.3950   42.2000 H   0  0  0  0  0  0  0  0  0  0  0  0
   37.2990   23.4920   41.7480 H   0  0  0  0  0  0  0  0  0  0  0  0
   37.0910   26.7210   42.7270 C   0  0  0  0  0  3  0  0  0  0  0  0
   37.4700   25.5600   42.0960 C   0  0  0  0  0  0  0  0  0  0  0  0
   38.8600   25.4780   41.9130 C   0  0  0  0  0  0  0  0  0  0  0  0
   39.2860   24.6080   41.4250 H   0  0  0  0  0  0  0  0  0  0  0  0
   39.7810   26.4270   42.3050 C   0  0  0  0  0  0  0  0  0  0  0  0
   41.1180   26.5050   42.2070 N   0  0  0  0  0  0  0  0  0  0  0  0
   41.5050   27.6630   42.7610 C   0  0  0  0  0  0  0  0  0  0  0  0
   42.5140   28.0500   42.8560 H   0  0  0  0  0  0  0  0  0  0  0  0
   40.3930   28.3150   43.2060 N   0  0  0  0  0  0  0  0  0  0  0  0
   39.3200   27.5560   42.9280 C   0  0  0  0  0  0  0  0  0  0  0  0
   37.9650   27.6980   43.1380 C   0  0  0  0  0  3  0  0  0  0  0  0
   41.7360   25.7950   41.7830 H   0  0  0  0  0  0  0  0  0  0  0  0
  1  6  1  6  0  0  0
  1  5  1  0  0  0  0
  1 21  1  0  0  0  0
  2  7  1  6  0  0  0
  2 15  1  0  0  0  0
  2  1  1  0  0  0  0
  2  3  1  0  0  0  0
  4  8  1  0  0  0  0
  4  3  1  0  0  0  0
  4  5  1  0  0  0  0
  5 10  1  6  0  0  0
  5 23  1  0  0  0  0
  9  4  1  0  0  0  0
 11 12  1  0  0  0  0
 12 17  1  0  0  0  0
 12 13  2  0  0  0  0
 13 18  1  0  0  0  0
 14 13  1  0  0  0  0
 15 14  2  0  0  0  0
 16 11  2  0  0  0  0
 16 15  1  0  0  0  0
 19 20  1  0  0  0  0
 19 11  1  0  0  0  0
 21 22  1  0  0  0  0
 23 24  1  0  0  0  0
 24 27  1  0  0  0  0
 25 24  1  0  0  0  0
 26 24  1  0  0  0  0
 27 29  1  0  0  0  0
 27 31  1  0  0  0  0
 27 28  1  0  0  0  0
 30 40  1  0  0  0  0
 31 30  2  0  0  0  0
 32 31  1  0  0  0  0
 32 34  2  0  0  0  0
 33 32  1  0  0  0  0
 34 39  1  0  0  0  0
 35 34  1  0  0  0  0
 35 36  1  0  0  0  0
 36 37  1  0  0  0  0
 36 38  2  0  0  0  0
 39 40  2  0  0  0  0
 39 38  1  0  0  0  0
 41 35  1  0  0  0  0
M  END
>  <minimizedAffinity>
-5.52171373

$$$$
