
     RDKit          3D

 48 51  0  0  0  0  0  0  0  0999 V2000
   45.1541   32.1039   48.1858 O   0  0  0  0  0  0  0  0  0  0  0  0
   46.9839   30.5709   48.2061 C   0  0  2  0  0  0  0  0  0  0  0  0
   45.5285   30.7973   48.3679 C   0  0  2  0  0  0  0  0  0  0  0  0
   44.8723   29.8807   47.4596 C   0  0  0  0  0  0  0  0  0  0  0  0
   45.7474   28.8221   47.1773 O   0  0  0  0  0  0  0  0  0  0  0  0
   46.8373   29.0168   47.9557 C   0  0  0  0  0  0  0  0  0  0  0  0
   47.7598   30.7307   49.2896 O   0  0  0  0  0  0  0  0  0  0  0  0
   49.0111   31.0951   49.2928 C   0  0  0  0  0  0  0  0  0  0  0  0
   49.7319   30.3337   50.3949 C   0  0  0  0  0  0  0  0  0  0  0  0
   47.1652   32.9962   46.9437 O   0  0  0  0  0  0  0  0  0  0  0  0
   45.7267   32.6702   46.7466 P   0  0  1  0  0  0  0  0  0  0  0  0
   45.5849   31.4693   45.5612 O   0  0  0  0  0  0  0  0  0  0  0  0
   44.9768   34.1232   46.2617 O   0  0  0  0  0  0  0  0  0  0  0  0
   44.9800   36.3898   43.4789 C   0  0  0  0  0  0  0  0  0  0  0  0
   45.0330   35.5435   42.3472 C   0  0  0  0  0  0  0  0  0  0  0  0
   45.0670   34.1559   42.6061 C   0  0  0  0  0  0  0  0  0  0  0  0
   45.0476   33.7266   43.8832 N   0  0  0  0  0  0  0  0  0  0  0  0
   44.9968   34.5668   44.9278 C   0  0  0  0  0  0  0  0  0  0  0  0
   44.9636   35.8873   44.7121 N   0  0  0  0  0  0  0  0  0  0  0  0
   44.9472   37.7408   43.2828 O   0  0  0  0  0  0  0  0  0  0  0  0
   47.4378   30.7685   47.2208 H   0  0  0  0  0  0  0  0  0  0  0  0
   45.3757   30.6398   49.4739 H   0  0  0  0  0  0  0  0  0  0  0  0
   44.1386   30.1384   46.7282 H   0  0  0  0  0  0  0  0  0  0  0  0
   44.1722   29.2907   48.1550 H   0  0  0  0  0  0  0  0  0  0  0  0
   46.5846   28.6590   48.9917 H   0  0  0  0  0  0  0  0  0  0  0  0
   47.7859   28.5921   47.6399 H   0  0  0  0  0  0  0  0  0  0  0  0
   49.2841   32.0955   49.1131 H   0  0  0  0  0  0  0  0  0  0  0  0
   49.4899   30.6130   48.2763 H   0  0  0  0  0  0  0  0  0  0  0  0
   49.2228   29.3894   50.6244 H   0  0  0  0  0  0  0  0  0  0  0  0
   49.8487   30.9666   51.3056 H   0  0  0  0  0  0  0  0  0  0  0  0
   50.7675   30.1104   50.0585 H   0  0  0  0  0  0  0  0  0  0  0  0
   46.2187   31.6272   44.8125 H   0  0  0  0  0  0  0  0  0  0  0  0
   45.0468   35.9284   41.3393 H   0  0  0  0  0  0  0  0  0  0  0  0
   45.1073   33.5064   41.7548 H   0  0  0  0  0  0  0  0  0  0  0  0
   45.4625   38.4069   45.5470 C   0  0  0  0  0  0  0  0  0  0  0  0
   44.8960   38.6646   44.3102 C   0  0  0  0  0  0  0  0  0  0  0  0
   44.2365   39.8406   43.9781 C   0  0  0  0  0  0  0  0  0  0  0  0
   43.8044   40.0261   43.0207 H   0  0  0  0  0  0  0  0  0  0  0  0
   44.1424   40.8212   44.9589 C   0  0  0  0  0  0  0  0  0  0  0  0
   43.5725   42.0536   44.9454 N   0  0  0  0  0  0  0  0  0  0  0  0
   43.7740   42.5833   46.1712 C   0  0  0  0  0  0  0  0  0  0  0  0
   43.4373   43.5635   46.4821 H   0  0  0  0  0  0  0  0  0  0  0  0
   44.4496   41.7162   46.9383 N   0  0  0  0  0  0  0  0  0  0  0  0
   44.6912   40.6109   46.2068 C   0  0  0  0  0  0  0  0  0  0  0  0
   45.3452   39.4166   46.5007 C   0  0  0  0  0  0  0  0  0  0  0  0
   45.9435   37.4638   45.6815 H   0  0  0  0  0  0  0  0  0  0  0  0
   43.0940   42.4387   44.1122 H   0  0  0  0  0  0  0  0  0  0  0  0
   45.7879   39.2234   47.4776 H   0  0  0  0  0  0  0  0  0  0  0  0
  1  3  1  0
  2  3  1  0
  2  7  1  0
  4  3  1  0
  5  4  1  0
  5  6  1  0
  6  2  1  0
  8  7  1  0
  8  9  1  0
 11 10  2  0
 11  1  1  1
 12 11  1  0
 13 11  1  0
 14 19  2  0
 15 16  2  0
 15 14  1  0
 16 17  1  0
 17 18  2  0
 18 13  1  0
 19 18  1  0
 20 14  1  0
  2 21  1  6
  3 22  1  1
  4 23  1  0
  4 24  1  0
  6 25  1  0
  6 26  1  0
  8 27  1  0
  8 28  1  0
  9 29  1  0
  9 30  1  0
  9 31  1  0
 12 32  1  0
 15 33  1  0
 16 34  1  0
 35 36  2  0
 36 37  1  0
 37 38  1  0
 37 39  2  0
 39 40  1  0
 40 41  1  0
 41 42  1  0
 41 43  2  0
 43 44  1  0
 44 45  2  0
 45 35  1  0
 44 39  1  0
 35 46  1  0
 40 47  1  0
 45 48  1  0
 20 36  1  0
M  ISO  8  21  13  22  13  23  13  24  13  25  13  26  13  27   8  28   8
M  ISO  8  29   8  30   8  31   8  32   3  33  14  34  14  38  15  42  14
M  END
>  <DihAtoms>  (1) 
13,19,35,34

>  <DihDeg>  (1) 
-90.00029000393839

$$$$
