
 OpenBabel03252507323D

 52 56  0  0  1  0  0  0  0  0999 V2000
   47.0430   32.4540   45.3950 C   0  0  0  0  0  0  0  0  0  0  0  0
   45.9900   33.1240   46.0000 C   0  0  0  0  0  0  0  0  0  0  0  0
   45.3640   34.1970   45.3230 C   0  0  0  0  0  0  0  0  0  0  0  0
   45.8680   34.5120   44.0630 N   0  0  0  0  0  0  0  0  0  0  0  0
   46.8880   33.8270   43.5400 C   0  0  0  0  0  0  0  0  0  0  0  0
   47.4660   32.8170   44.1910 N   0  0  0  0  0  0  0  0  0  0  0  0
   45.4820   33.0780   46.9400 H   0  0  0  0  0  0  0  0  0  0  0  0
   44.5500   34.8120   45.6360 H   0  0  0  0  0  0  0  0  0  0  0  0
   47.6350   31.3480   46.1210 C   0  0  2  0  0  0  0  0  0  0  0  0
   47.2080   29.9750   45.5150 C   0  0  0  0  0  0  0  0  0  0  0  0
   47.9690   28.8840   46.1880 C   0  0  0  0  0  0  0  0  0  0  0  0
   48.0720   28.9760   47.6730 C   0  0  0  0  0  0  0  0  0  0  0  0
   48.2380   30.3170   48.1780 C   0  0  0  0  0  0  0  0  0  0  0  0
   47.2910   31.3480   47.5280 C   0  0  2  0  0  0  0  0  0  0  0  0
   48.7370   31.3410   45.9280 H   0  0  0  0  0  0  0  0  0  0  0  0
   46.1170   29.8660   45.5280 H   0  0  0  0  0  0  0  0  0  0  0  0
   47.5060   30.0580   44.4510 H   0  0  0  0  0  0  0  0  0  0  0  0
   48.9200   28.7820   45.6300 H   0  0  0  0  0  0  0  0  0  0  0  0
   47.4130   27.9230   45.9750 H   0  0  0  0  0  0  0  0  0  0  0  0
   47.6600   28.1630   48.2720 H   0  0  0  0  0  0  0  0  0  0  0  0
   49.1650   28.5950   47.8000 H   0  0  0  0  0  0  0  0  0  0  0  0
   49.2450   30.7990   48.1050 H   0  0  0  0  0  0  0  0  0  0  0  0
   47.9950   30.3420   49.2720 H   0  0  0  0  0  0  0  0  0  0  0  0
   47.5380   32.2470   48.0960 H   0  0  0  0  0  0  0  0  0  0  0  0
   45.9110   30.8920   47.7050 N   0  0  0  0  0  0  0  0  0  0  0  0
   45.1880   30.5380   48.8580 C   0  0  0  0  0  0  0  0  0  0  0  0
   44.7080   31.4030   49.6760 O   0  0  0  0  0  0  0  0  0  0  0  0
   45.0190   29.1330   49.0470 N   0  0  0  0  0  0  0  0  0  0  0  0
   45.2560   30.7010   46.8560 H   0  0  0  0  0  0  0  0  0  0  0  0
   44.6690   28.4080   48.4160 H   0  0  0  0  0  0  0  0  0  0  0  0
   45.2800   28.7130   49.9660 H   0  0  0  0  0  0  0  0  0  0  0  0
   47.3850   34.2230   42.2170 C   0  0  0  0  0  0  0  0  0  0  0  0
   48.3670   35.1780   42.0840 C   0  0  0  0  0  0  0  0  0  0  0  0
   48.8840   35.6000   40.8780 C   0  0  0  0  0  0  0  0  0  0  0  0
   48.3410   34.9890   39.7700 C   0  0  0  0  0  0  0  0  0  0  0  0
   47.3600   34.0340   39.8850 C   0  0  0  0  0  0  0  0  0  0  0  0
   46.8820   33.6510   41.1100 N   0  0  0  0  0  0  0  0  0  0  0  0
   48.7440   35.6140   43.0050 H   0  0  0  0  0  0  0  0  0  0  0  0
   49.6450   36.3420   40.8100 H   0  0  0  0  0  0  0  0  0  0  0  0
   48.7120   35.2850   38.8000 H   0  0  0  0  0  0  0  0  0  0  0  0
   47.4510   33.3310   37.5370 C   0  0  0  0  0  3  0  0  0  0  0  0
   46.7660   33.3680   38.7330 C   0  0  0  0  0  0  0  0  0  0  0  0
   45.5410   32.7560   38.7370 C   0  0  0  0  0  0  0  0  0  0  0  0
   44.9600   32.7480   39.6320 H   0  0  0  0  0  0  0  0  0  0  0  0
   44.9810   32.1260   37.6460 C   0  0  0  0  0  0  0  0  0  0  0  0
   43.8010   31.4770   37.4680 N   0  0  0  0  0  0  0  0  0  0  0  0
   43.7530   31.0510   36.2030 C   0  0  0  0  0  0  0  0  0  0  0  0
   42.8930   30.5000   35.8290 H   0  0  0  0  0  0  0  0  0  0  0  0
   44.9020   31.4260   35.5730 N   0  0  0  0  0  0  0  0  0  0  0  0
   45.6840   32.0980   36.4490 C   0  0  0  0  0  0  0  0  0  0  0  0
   46.9190   32.7050   36.4070 C   0  0  0  0  0  3  0  0  0  0  0  0
   43.0780   31.3500   38.2100 H   0  0  0  0  0  0  0  0  0  0  0  0
  1  2  1  0  0  0  0
  1  9  1  0  0  0  0
  2  7  1  0  0  0  0
  3  8  1  0  0  0  0
  3  2  2  0  0  0  0
  4  3  1  0  0  0  0
  5  4  2  0  0  0  0
  5  6  1  0  0  0  0
  6  1  2  0  0  0  0
  9 15  1  6  0  0  0
  9 14  1  0  0  0  0
 10 16  1  0  0  0  0
 10  9  1  0  0  0  0
 10 11  1  0  0  0  0
 11 12  1  0  0  0  0
 12 21  1  0  0  0  0
 12 13  1  0  0  0  0
 12 20  1  0  0  0  0
 13 23  1  0  0  0  0
 14 25  1  0  0  0  0
 14 24  1  1  0  0  0
 14 13  1  0  0  0  0
 17 10  1  0  0  0  0
 18 11  1  0  0  0  0
 19 11  1  0  0  0  0
 22 13  1  0  0  0  0
 25 26  1  0  0  0  0
 26 28  1  0  0  0  0
 26 27  2  0  0  0  0
 28 31  1  0  0  0  0
 29 25  1  0  0  0  0
 30 28  1  0  0  0  0
 32  5  1  0  0  0  0
 33 32  1  0  0  0  0
 33 38  1  0  0  0  0
 34 33  2  0  0  0  0
 35 36  2  0  0  0  0
 35 34  1  0  0  0  0
 36 37  1  0  0  0  0
 37 32  2  0  0  0  0
 39 34  1  0  0  0  0
 40 35  1  0  0  0  0
 41 42  1  0  0  0  0
 42 43  2  0  0  0  0
 42 36  1  0  0  0  0
 43 44  1  0  0  0  0
 45 43  1  0  0  0  0
 46 45  1  0  0  0  0
 46 52  1  0  0  0  0
 47 46  1  0  0  0  0
 48 47  1  0  0  0  0
 49 47  2  0  0  0  0
 49 50  1  0  0  0  0
 50 45  2  0  0  0  0
 51 50  1  0  0  0  0
 51 41  2  0  0  0  0
M  END
>  <minimizedAffinity>
-6.73764896

>  <minimizedRMSD>
0.739805102

$$$$
