
     RDKit          3D

 40 44  0  0  0  0  0  0  0  0999 V2000
   46.6334   32.5250   44.0746 C   0  0  1  0  0  0  0  0  0  0  0  0
   46.0703   33.8570   44.3911 C   0  0  0  0  0  0  0  0  0  0  0  0
   47.5646   33.6419   43.9373 C   0  0  2  0  0  0  0  0  0  0  0  0
   46.1489   30.7988   47.3755 C   0  0  0  0  0  0  0  0  0  0  0  0
   45.9413   31.7071   46.3523 C   0  0  0  0  0  0  0  0  0  0  0  0
   46.7623   31.5936   45.2358 C   0  0  0  0  0  0  0  0  0  0  0  0
   47.7078   30.6266   45.1923 N   0  0  0  0  0  0  0  0  0  0  0  0
   47.8745   29.7563   46.2247 C   0  0  0  0  0  0  0  0  0  0  0  0
   47.0869   29.8510   47.3161 N   0  0  0  0  0  0  0  0  0  0  0  0
   45.2687   30.8952   48.5862 C   0  0  0  0  0  0  0  0  0  0  0  0
   46.0539   31.3167   49.6347 F   0  0  0  0  0  0  0  0  0  0  0  0
   44.8258   29.6208   48.8707 F   0  0  0  0  0  0  0  0  0  0  0  0
   44.2486   31.7771   48.3846 F   0  0  0  0  0  0  0  0  0  0  0  0
   47.8039   34.1295   42.5511 C   0  0  0  0  0  0  0  0  0  0  0  0
   47.2897   33.6065   41.3686 C   0  0  0  0  0  0  0  0  0  0  0  0
   47.8284   34.4396   40.4104 C   0  0  0  0  0  0  0  0  0  0  0  0
   48.6357   35.4229   41.0184 C   0  0  0  0  0  0  0  0  0  0  0  0
   48.5583   35.1545   42.2907 O   0  0  0  0  0  0  0  0  0  0  0  0
   46.2056   32.0218   43.1608 H   0  0  0  0  0  0  0  0  0  0  0  0
   45.9899   34.2255   45.4252 H   0  0  0  0  0  0  0  0  0  0  0  0
   45.4174   34.3781   43.6661 H   0  0  0  0  0  0  0  0  0  0  0  0
   48.3019   33.8280   44.7169 H   0  0  0  0  0  0  0  0  0  0  0  0
   45.1979   32.4821   46.3654 H   0  0  0  0  0  0  0  0  0  0  0  0
   48.6316   28.9717   46.2061 H   0  0  0  0  0  0  0  0  0  0  0  0
   46.6345   32.7586   41.2613 H   0  0  0  0  0  0  0  0  0  0  0  0
   47.6366   34.3267   39.3346 H   0  0  0  0  0  0  0  0  0  0  0  0
   49.8394   36.2828   39.0406 C   0  0  0  0  0  0  0  0  0  0  0  0
   49.3685   36.4785   40.3224 C   0  0  0  0  0  0  0  0  0  0  0  0
   49.5528   37.6570   41.0191 C   0  0  0  0  0  0  0  0  0  0  0  0
   49.1791   37.8129   42.0367 H   0  0  0  0  0  0  0  0  0  0  0  0
   50.2289   38.6973   40.4398 C   0  0  0  0  0  0  0  0  0  0  0  0
   50.5557   39.9264   40.8532 N   0  0  0  0  0  0  0  0  0  0  0  0
   51.2232   40.5124   39.8606 C   0  0  0  0  0  0  0  0  0  0  0  0
   51.6509   41.5173   39.8253 H   0  0  0  0  0  0  0  0  0  0  0  0
   51.3277   39.6585   38.8024 N   0  0  0  0  0  0  0  0  0  0  0  0
   50.7004   38.5047   39.1596 C   0  0  0  0  0  0  0  0  0  0  0  0
   50.5329   37.3314   38.4291 C   0  0  0  0  0  0  0  0  0  0  0  0
   49.6903   35.3561   38.5025 H   0  0  0  0  0  0  0  0  0  0  0  0
   50.3293   40.3592   41.7928 H   0  0  0  0  0  0  0  0  0  0  0  0
   50.9361   37.2638   37.4271 H   0  0  0  0  0  0  0  0  0  0  0  0
  1  2  1  0
  1  6  1  0
  3  1  1  0
  3  2  1  0
  4 10  1  0
  5  4  2  0
  6  5  1  0
  7  6  2  0
  7  8  1  0
  8  9  2  0
  9  4  1  0
 10 12  1  0
 10 11  1  0
 13 10  1  0
 14  3  1  0
 15 14  2  0
 16 17  2  0
 16 15  1  0
 17 18  1  0
 18 14  1  0
  1 19  1  6
  2 20  1  0
  2 21  1  0
  3 22  1  1
  5 23  1  0
  8 24  1  0
 15 25  1  0
 16 26  1  0
 27 28  2  0
 28 29  1  0
 29 30  1  0
 29 31  2  0
 31 32  1  0
 32 33  1  0
 33 34  1  0
 33 35  2  0
 35 36  1  0
 36 37  2  0
 37 27  1  0
 36 31  1  0
 27 38  1  0
 32 39  1  0
 37 40  1  0
 17 28  1  0
M  ISO  8  19  13  20  13  21  13  22  13  23  14  24  14  25  14  26  14
M  ISO  2  30  15  34  14
M  END
>  <DihAtoms>  (1) 
15,16,27,26

>  <DihDeg>  (1) 
-0.0004306357073127762

$$$$
