
 OpenBabel03252509003D

 48 51  0  0  1  0  0  0  0  0999 V2000
   46.6210   34.5600   43.5660 N   0  0  0  0  0  0  0  0  0  0  0  0
   46.1610   35.6030   42.7230 C   0  0  0  0  0  0  0  0  0  0  0  0
   44.6670   35.8040   42.6950 C   0  0  0  0  0  0  0  0  0  0  0  0
   43.9700   35.4870   43.9910 C   0  0  0  0  0  0  0  0  0  0  0  0
   44.9530   35.1340   45.0820 C   0  0  0  0  0  0  0  0  0  0  0  0
   45.7630   33.9380   44.4610 C   0  0  2  0  0  0  0  0  0  0  0  0
   46.5080   35.5780   41.6880 H   0  0  0  0  0  0  0  0  0  0  0  0
   46.5820   36.5590   43.1560 H   0  0  0  0  0  0  0  0  0  0  0  0
   44.4740   36.8730   42.3900 H   0  0  0  0  0  0  0  0  0  0  0  0
   44.2410   35.1780   41.8750 H   0  0  0  0  0  0  0  0  0  0  0  0
   43.4040   36.3760   44.3410 H   0  0  0  0  0  0  0  0  0  0  0  0
   43.2740   34.6480   43.8650 H   0  0  0  0  0  0  0  0  0  0  0  0
   44.4170   34.7390   45.9510 H   0  0  0  0  0  0  0  0  0  0  0  0
   45.6620   35.9330   45.3040 H   0  0  0  0  0  0  0  0  0  0  0  0
   45.0100   33.2220   44.0550 H   0  0  0  0  0  0  0  0  0  0  0  0
   47.7190   33.8120   43.0280 C   0  0  0  0  0  0  0  0  0  0  0  0
   48.2420   33.2810   43.8640 H   0  0  0  0  0  0  0  0  0  0  0  0
   48.4370   34.4840   42.5550 H   0  0  0  0  0  0  0  0  0  0  0  0
   47.1800   32.7440   42.1250 C   0  0  0  0  0  0  0  0  0  0  0  0
   46.0830   32.8650   41.9890 H   0  0  0  0  0  0  0  0  0  0  0  0
   47.3450   31.7120   42.4870 H   0  0  0  0  0  0  0  0  0  0  0  0
   49.2540   32.1000   39.0620 C   0  0  0  0  0  0  0  0  0  0  0  0
   48.6810   31.9670   40.3400 C   0  0  0  0  0  0  0  0  0  0  0  0
   47.7740   32.9010   40.7730 C   0  0  0  0  0  0  0  0  0  0  0  0
   47.4750   33.9080   39.9430 N   0  0  0  0  0  0  0  0  0  0  0  0
   48.0210   34.0380   38.7230 C   0  0  0  0  0  0  0  0  0  0  0  0
   48.9110   33.1410   38.2700 N   0  0  0  0  0  0  0  0  0  0  0  0
   49.9720   31.3940   38.6720 H   0  0  0  0  0  0  0  0  0  0  0  0
   48.9660   31.1400   40.9470 H   0  0  0  0  0  0  0  0  0  0  0  0
   47.7020   34.8950   38.1410 H   0  0  0  0  0  0  0  0  0  0  0  0
   46.4420   33.4590   45.5750 O   0  0  0  0  0  0  0  0  0  0  0  0
   45.4440   31.1760   44.6660 O   0  0  0  0  0  0  0  0  0  0  0  0
   46.2300   31.8020   45.8010 P   0  0  2  0  0  0  0  0  0  0  0  0
   45.2300   31.6400   47.1830 O   0  0  0  0  0  0  0  0  0  0  0  0
   45.7960   31.4660   47.9750 H   0  0  0  0  0  0  0  0  0  0  0  0
   47.6780   31.0390   46.1100 O   0  0  0  0  0  0  0  0  0  0  0  0
   47.0990   28.7510   46.1530 C   0  0  0  0  0  3  0  0  0  0  0  0
   47.8710   29.8020   46.6590 C   0  0  0  0  0  0  0  0  0  0  0  0
   48.7700   29.5230   47.6700 C   0  0  0  0  0  0  0  0  0  0  0  0
   49.3780   30.3390   48.0710 H   0  0  0  0  0  0  0  0  0  0  0  0
   48.8820   28.2160   48.1530 C   0  0  0  0  0  0  0  0  0  0  0  0
   49.6830   27.7080   49.1280 N   0  0  0  0  0  0  0  0  0  0  0  0
   49.4540   26.3850   49.2620 C   0  0  0  0  0  0  0  0  0  0  0  0
   49.9640   25.7450   49.9710 H   0  0  0  0  0  0  0  0  0  0  0  0
   48.4990   26.0680   48.3600 N   0  0  0  0  0  0  0  0  0  0  0  0
   48.1260   27.1710   47.6630 C   0  0  0  0  0  0  0  0  0  0  0  0
   47.2320   27.4620   46.6530 C   0  0  0  0  0  3  0  0  0  0  0  0
   50.3600   28.2900   49.6670 H   0  0  0  0  0  0  0  0  0  0  0  0
  1  6  1  0  0  0  0
  2  8  1  0  0  0  0
  2  1  1  0  0  0  0
  3  2  1  0  0  0  0
  3  4  1  0  0  0  0
  4 11  1  0  0  0  0
  4  5  1  0  0  0  0
  5 14  1  0  0  0  0
  5 13  1  0  0  0  0
  6 15  1  6  0  0  0
  6  5  1  0  0  0  0
  6 31  1  0  0  0  0
  7  2  1  0  0  0  0
  9  3  1  0  0  0  0
 10  3  1  0  0  0  0
 12  4  1  0  0  0  0
 16  1  1  0  0  0  0
 16 17  1  0  0  0  0
 18 16  1  0  0  0  0
 19 21  1  0  0  0  0
 19 16  1  0  0  0  0
 20 19  1  0  0  0  0
 22 23  1  0  0  0  0
 23 24  2  0  0  0  0
 23 29  1  0  0  0  0
 24 19  1  0  0  0  0
 25 24  1  0  0  0  0
 26 25  2  0  0  0  0
 27 26  1  0  0  0  0
 27 22  2  0  0  0  0
 28 22  1  0  0  0  0
 30 26  1  0  0  0  0
 31 33  1  0  0  0  0
 33 32  2  6  0  0  0
 33 36  1  0  0  0  0
 33 34  1  0  0  0  0
 34 35  1  0  0  0  0
 36 38  1  0  0  0  0
 37 47  2  0  0  0  0
 37 38  1  0  0  0  0
 38 39  2  0  0  0  0
 39 40  1  0  0  0  0
 39 41  1  0  0  0  0
 41 42  1  0  0  0  0
 42 43  1  0  0  0  0
 42 48  1  0  0  0  0
 43 44  1  0  0  0  0
 45 43  2  0  0  0  0
 46 41  2  0  0  0  0
 46 45  1  0  0  0  0
 47 46  1  0  0  0  0
M  END
>  <minimizedAffinity>
-4.70299435

>  <minimizedRMSD>
1.79140973

$$$$
