
 OpenBabel03252505283D

 27 29  0  0  0  0  0  0  0  0999 V2000
   37.0140   29.9090   39.5140 O   0  0  0  0  0  0  0  0  0  0  0  0
   37.1250   30.9640   40.6130 P   0  0  1  0  0  0  0  0  0  0  0  0
   35.7070   31.0350   41.5220 O   0  0  0  0  0  0  0  0  0  0  0  0
   35.6320   30.2320   42.0730 H   0  0  0  0  0  0  0  0  0  0  0  0
   38.4330   30.5380   41.5690 O   0  0  0  0  0  0  0  0  0  0  0  0
   37.4780   27.8310   43.6630 C   0  0  0  0  0  0  0  0  0  0  0  0
   38.6580   27.0920   43.8670 C   0  0  0  0  0  0  0  0  0  0  0  0
   39.8150   27.5820   43.2350 C   0  0  0  0  0  0  0  0  0  0  0  0
   39.7150   28.7130   42.4880 N   0  0  0  0  0  0  0  0  0  0  0  0
   38.5590   29.3830   42.3260 C   0  0  0  0  0  0  0  0  0  0  0  0
   37.4350   28.9390   42.9180 N   0  0  0  0  0  0  0  0  0  0  0  0
   36.5500   27.4820   44.1380 H   0  0  0  0  0  0  0  0  0  0  0  0
   38.6910   26.2020   44.4670 H   0  0  0  0  0  0  0  0  0  0  0  0
   40.7600   27.0580   43.3530 H   0  0  0  0  0  0  0  0  0  0  0  0
   37.3150   32.4570   39.8370 O   0  0  0  0  0  0  0  0  0  0  0  0
   39.0850   33.9470   40.2280 C   0  0  0  0  0  3  0  0  0  0  0  0
   38.5710   32.9130   39.4580 C   0  0  0  0  0  0  0  0  0  0  0  0
   39.3430   32.4510   38.4150 C   0  0  0  0  0  0  0  0  0  0  0  0
   38.9280   31.6600   37.8410 H   0  0  0  0  0  0  0  0  0  0  0  0
   40.5890   33.0280   38.1740 C   0  0  0  0  0  0  0  0  0  0  0  0
   41.5110   32.7540   37.2310 N   0  0  0  0  0  0  0  0  0  0  0  0
   42.5630   33.5860   37.4050 C   0  0  0  0  0  0  0  0  0  0  0  0
   43.4670   33.6490   36.8410 H   0  0  0  0  0  0  0  0  0  0  0  0
   42.3060   34.3820   38.4520 N   0  0  0  0  0  0  0  0  0  0  0  0
   41.0880   34.0700   38.9630 C   0  0  0  0  0  0  0  0  0  0  0  0
   40.3140   34.5350   40.0120 C   0  0  0  0  0  3  0  0  0  0  0  0
   41.4390   32.0300   36.4910 H   0  0  0  0  0  0  0  0  0  0  0  0
  2  1  2  6  0  0  0
  2  3  1  0  0  0  0
  2  5  1  0  0  0  0
  3  4  1  0  0  0  0
  5 10  1  0  0  0  0
  6  7  1  0  0  0  0
  6 12  1  0  0  0  0
  7 13  1  0  0  0  0
  8 14  1  0  0  0  0
  8  7  2  0  0  0  0
  9  8  1  0  0  0  0
 10  9  2  0  0  0  0
 10 11  1  0  0  0  0
 11  6  2  0  0  0  0
 15  2  1  0  0  0  0
 17 15  1  0  0  0  0
 17 16  2  0  0  0  0
 18 17  1  0  0  0  0
 19 18  1  0  0  0  0
 20 18  2  0  0  0  0
 20 25  1  0  0  0  0
 21 22  1  0  0  0  0
 21 20  1  0  0  0  0
 22 24  2  0  0  0  0
 23 22  1  0  0  0  0
 24 25  1  0  0  0  0
 25 26  2  0  0  0  0
 26 16  1  0  0  0  0
 27 21  1  0  0  0  0
M  END
>  <minimizedAffinity>
-5.5238719

$$$$

 OpenBabel03252505283D

 27 29  0  0  0  0  0  0  0  0999 V2000
   34.1440   29.2990   39.6690 O   0  0  0  0  0  0  0  0  0  0  0  0
   35.5320   29.5170   40.2700 P   0  0  1  0  0  0  0  0  0  0  0  0
   35.5030   30.7570   41.4110 O   0  0  0  0  0  0  0  0  0  0  0  0
   35.0250   30.4560   42.2080 H   0  0  0  0  0  0  0  0  0  0  0  0
   35.9960   28.0670   40.9670 O   0  0  0  0  0  0  0  0  0  0  0  0
   38.5570   28.6350   43.3640 C   0  0  0  0  0  0  0  0  0  0  0  0
   39.4100   27.5210   43.2600 C   0  0  0  0  0  0  0  0  0  0  0  0
   39.0500   26.5500   42.3080 C   0  0  0  0  0  0  0  0  0  0  0  0
   37.9280   26.7520   41.5690 N   0  0  0  0  0  0  0  0  0  0  0  0
   37.1450   27.8390   41.7080 C   0  0  0  0  0  0  0  0  0  0  0  0
   37.4630   28.7850   42.6110 N   0  0  0  0  0  0  0  0  0  0  0  0
   38.8010   29.4170   44.0970 H   0  0  0  0  0  0  0  0  0  0  0  0
   40.2890   27.4020   43.8660 H   0  0  0  0  0  0  0  0  0  0  0  0
   39.6670   25.6650   42.1780 H   0  0  0  0  0  0  0  0  0  0  0  0
   36.5400   30.0080   39.0000 O   0  0  0  0  0  0  0  0  0  0  0  0
   38.8290   30.2790   39.4370 C   0  0  0  0  0  3  0  0  0  0  0  0
   37.5970   30.8800   39.2220 C   0  0  0  0  0  0  0  0  0  0  0  0
   37.5470   32.2570   39.2480 C   0  0  0  0  0  0  0  0  0  0  0  0
   36.5940   32.6930   39.0800 H   0  0  0  0  0  0  0  0  0  0  0  0
   38.7130   32.9830   39.4860 C   0  0  0  0  0  0  0  0  0  0  0  0
   38.9150   34.3120   39.5590 N   0  0  0  0  0  0  0  0  0  0  0  0
   40.2250   34.5340   39.8100 C   0  0  0  0  0  0  0  0  0  0  0  0
   40.7360   35.4640   39.9310 H   0  0  0  0  0  0  0  0  0  0  0  0
   40.8470   33.3500   39.8970 N   0  0  0  0  0  0  0  0  0  0  0  0
   39.9450   32.3560   39.7010 C   0  0  0  0  0  0  0  0  0  0  0  0
   39.9980   30.9730   39.6750 C   0  0  0  0  0  3  0  0  0  0  0  0
   38.1960   35.0520   39.4430 H   0  0  0  0  0  0  0  0  0  0  0  0
  2  1  2  6  0  0  0
  2  5  1  0  0  0  0
  2  3  1  0  0  0  0
  3  4  1  0  0  0  0
  5 10  1  0  0  0  0
  6 12  1  0  0  0  0
  7  6  1  0  0  0  0
  7 13  1  0  0  0  0
  8  7  2  0  0  0  0
  9 10  2  0  0  0  0
  9  8  1  0  0  0  0
 10 11  1  0  0  0  0
 11  6  2  0  0  0  0
 14  8  1  0  0  0  0
 15 17  1  0  0  0  0
 15  2  1  0  0  0  0
 16 26  1  0  0  0  0
 17 18  1  0  0  0  0
 17 16  2  0  0  0  0
 18 20  2  0  0  0  0
 19 18  1  0  0  0  0
 20 21  1  0  0  0  0
 20 25  1  0  0  0  0
 21 22  1  0  0  0  0
 22 24  2  0  0  0  0
 22 23  1  0  0  0  0
 25 24  1  0  0  0  0
 26 25  2  0  0  0  0
 27 21  1  0  0  0  0
M  END
>  <minimizedAffinity>
-5.34692907

$$$$

 OpenBabel03252505283D

 27 29  0  0  0  0  0  0  0  0999 V2000
   34.3730   29.2950   39.7340 O   0  0  0  0  0  0  0  0  0  0  0  0
   35.7800   29.5240   40.2880 P   0  0  1  0  0  0  0  0  0  0  0  0
   35.7340   30.5150   41.6510 O   0  0  0  0  0  0  0  0  0  0  0  0
   35.3410   30.0230   42.3990 H   0  0  0  0  0  0  0  0  0  0  0  0
   36.4090   28.0180   40.6590 O   0  0  0  0  0  0  0  0  0  0  0  0
   38.5690   26.1020   42.7310 C   0  0  0  0  0  0  0  0  0  0  0  0
   39.3600   27.0480   43.4090 C   0  0  0  0  0  0  0  0  0  0  0  0
   39.1080   28.3990   43.1090 C   0  0  0  0  0  0  0  0  0  0  0  0
   38.1350   28.6910   42.2050 N   0  0  0  0  0  0  0  0  0  0  0  0
   37.4060   27.7450   41.5840 C   0  0  0  0  0  0  0  0  0  0  0  0
   37.6240   26.4440   41.8500 N   0  0  0  0  0  0  0  0  0  0  0  0
   38.7340   25.0350   42.9360 H   0  0  0  0  0  0  0  0  0  0  0  0
   40.1190   26.7720   44.1170 H   0  0  0  0  0  0  0  0  0  0  0  0
   39.6840   29.1790   43.5980 H   0  0  0  0  0  0  0  0  0  0  0  0
   36.6480   30.3410   39.0850 O   0  0  0  0  0  0  0  0  0  0  0  0
   37.0740   32.6220   39.4340 C   0  0  0  0  0  3  0  0  0  0  0  0
   37.5700   31.3260   39.4120 C   0  0  0  0  0  0  0  0  0  0  0  0
   38.9040   31.1500   39.7120 C   0  0  0  0  0  0  0  0  0  0  0  0
   39.2600   30.1500   39.6900 H   0  0  0  0  0  0  0  0  0  0  0  0
   39.6920   32.2590   40.0200 C   0  0  0  0  0  0  0  0  0  0  0  0
   40.9960   32.3410   40.3410 N   0  0  0  0  0  0  0  0  0  0  0  0
   41.3050   33.6400   40.5550 C   0  0  0  0  0  0  0  0  0  0  0  0
   42.2440   34.0700   40.8250 H   0  0  0  0  0  0  0  0  0  0  0  0
   40.1990   34.3740   40.3690 N   0  0  0  0  0  0  0  0  0  0  0  0
   39.1700   33.5570   40.0350 C   0  0  0  0  0  0  0  0  0  0  0  0
   37.8300   33.7360   39.7350 C   0  0  0  0  0  3  0  0  0  0  0  0
   41.6640   31.5490   40.4150 H   0  0  0  0  0  0  0  0  0  0  0  0
  2  1  2  6  0  0  0
  2  5  1  0  0  0  0
  2  3  1  0  0  0  0
  3  4  1  0  0  0  0
  5 10  1  0  0  0  0
  6 12  1  0  0  0  0
  6  7  1  0  0  0  0
  7 13  1  0  0  0  0
  8  7  2  0  0  0  0
  8 14  1  0  0  0  0
  9  8  1  0  0  0  0
 10 11  1  0  0  0  0
 10  9  2  0  0  0  0
 11  6  2  0  0  0  0
 15 17  1  0  0  0  0
 15  2  1  0  0  0  0
 16 26  1  0  0  0  0
 17 16  2  0  0  0  0
 17 18  1  0  0  0  0
 18 20  2  0  0  0  0
 19 18  1  0  0  0  0
 20 25  1  0  0  0  0
 20 21  1  0  0  0  0
 21 27  1  0  0  0  0
 21 22  1  0  0  0  0
 22 23  1  0  0  0  0
 24 22  2  0  0  0  0
 25 24  1  0  0  0  0
 26 25  2  0  0  0  0
M  END
>  <minimizedAffinity>
-5.29163218

$$$$

 OpenBabel03252505283D

 27 29  0  0  0  0  0  0  0  0999 V2000
   35.5070   29.6760   38.8270 O   0  0  0  0  0  0  0  0  0  0  0  0
   36.5300   30.4360   39.6710 P   0  0  1  0  0  0  0  0  0  0  0  0
   35.8000   31.1080   41.0350 O   0  0  0  0  0  0  0  0  0  0  0  0
   35.5650   30.3970   41.6630 H   0  0  0  0  0  0  0  0  0  0  0  0
   37.7190   29.3400   40.1030 O   0  0  0  0  0  0  0  0  0  0  0  0
   36.7620   27.6700   43.0900 C   0  0  0  0  0  0  0  0  0  0  0  0
   37.9650   27.4360   43.7810 C   0  0  0  0  0  0  0  0  0  0  0  0
   39.1400   27.8900   43.1540 C   0  0  0  0  0  0  0  0  0  0  0  0
   39.0330   28.5110   41.9490 N   0  0  0  0  0  0  0  0  0  0  0  0
   37.8540   28.7100   41.3310 C   0  0  0  0  0  0  0  0  0  0  0  0
   36.7130   28.2870   41.9060 N   0  0  0  0  0  0  0  0  0  0  0  0
   35.8210   27.3310   43.5450 H   0  0  0  0  0  0  0  0  0  0  0  0
   38.0040   26.9410   44.7330 H   0  0  0  0  0  0  0  0  0  0  0  0
   40.1030   27.7400   43.6350 H   0  0  0  0  0  0  0  0  0  0  0  0
   37.1010   31.7090   38.7130 O   0  0  0  0  0  0  0  0  0  0  0  0
   39.3280   31.9010   37.9990 C   0  0  0  0  0  3  0  0  0  0  0  0
   38.3590   32.2580   38.9260 C   0  0  0  0  0  0  0  0  0  0  0  0
   38.7330   33.1050   39.9460 C   0  0  0  0  0  0  0  0  0  0  0  0
   37.9750   33.3640   40.6420 H   0  0  0  0  0  0  0  0  0  0  0  0
   40.0480   33.5650   40.0100 C   0  0  0  0  0  0  0  0  0  0  0  0
   40.6450   34.3850   40.8950 N   0  0  0  0  0  0  0  0  0  0  0  0
   41.9400   34.5360   40.5350 C   0  0  0  0  0  0  0  0  0  0  0  0
   42.7030   35.1140   41.0090 H   0  0  0  0  0  0  0  0  0  0  0  0
   42.1590   33.8140   39.4290 N   0  0  0  0  0  0  0  0  0  0  0  0
   41.0100   33.1920   39.0650 C   0  0  0  0  0  0  0  0  0  0  0  0
   40.6350   32.3410   38.0390 C   0  0  0  0  0  3  0  0  0  0  0  0
   40.1980   34.8330   41.7180 H   0  0  0  0  0  0  0  0  0  0  0  0
  2  1  2  6  0  0  0
  2  5  1  0  0  0  0
  2  3  1  0  0  0  0
  3  4  1  0  0  0  0
  5 10  1  0  0  0  0
  6 12  1  0  0  0  0
  6  7  1  0  0  0  0
  7 13  1  0  0  0  0
  8 14  1  0  0  0  0
  8  7  2  0  0  0  0
  9  8  1  0  0  0  0
 10 11  1  0  0  0  0
 10  9  2  0  0  0  0
 11  6  2  0  0  0  0
 15 17  1  0  0  0  0
 15  2  1  0  0  0  0
 16 26  2  0  0  0  0
 16 17  1  0  0  0  0
 17 18  2  0  0  0  0
 18 20  1  0  0  0  0
 18 19  1  0  0  0  0
 20 21  1  0  0  0  0
 21 27  1  0  0  0  0
 22 21  1  0  0  0  0
 22 23  1  0  0  0  0
 24 22  2  0  0  0  0
 25 24  1  0  0  0  0
 25 20  2  0  0  0  0
 26 25  1  0  0  0  0
M  END
>  <minimizedAffinity>
-5.23080635

$$$$

 OpenBabel03252505283D

 27 29  0  0  0  0  0  0  0  0999 V2000
   38.2690   31.3820   41.3090 O   0  0  0  0  0  0  0  0  0  0  0  0
   37.1230   30.3740   41.2290 P   0  0  1  0  0  0  0  0  0  0  0  0
   35.6320   31.1520   41.3470 O   0  0  0  0  0  0  0  0  0  0  0  0
   35.4630   31.6580   40.5280 H   0  0  0  0  0  0  0  0  0  0  0  0
   37.2730   29.5780   39.7640 O   0  0  0  0  0  0  0  0  0  0  0  0
   34.0280   28.8210   38.5290 C   0  0  0  0  0  0  0  0  0  0  0  0
   34.1500   28.8650   37.1280 C   0  0  0  0  0  0  0  0  0  0  0  0
   35.4270   29.1740   36.6250 C   0  0  0  0  0  0  0  0  0  0  0  0
   36.4330   29.4030   37.5090 N   0  0  0  0  0  0  0  0  0  0  0  0
   36.2630   29.3480   38.8430 C   0  0  0  0  0  0  0  0  0  0  0  0
   35.0530   29.0550   39.3550 N   0  0  0  0  0  0  0  0  0  0  0  0
   33.0470   28.5840   38.9650 H   0  0  0  0  0  0  0  0  0  0  0  0
   33.3260   28.6760   36.4660 H   0  0  0  0  0  0  0  0  0  0  0  0
   35.5880   29.2230   35.5510 H   0  0  0  0  0  0  0  0  0  0  0  0
   37.2780   29.3530   42.5710 O   0  0  0  0  0  0  0  0  0  0  0  0
   38.9490   27.7330   42.8720 C   0  0  0  0  0  3  0  0  0  0  0  0
   37.6700   28.0290   42.4220 C   0  0  0  0  0  0  0  0  0  0  0  0
   36.9300   26.9990   41.8830 C   0  0  0  0  0  0  0  0  0  0  0  0
   35.9550   27.2500   41.5470 H   0  0  0  0  0  0  0  0  0  0  0  0
   37.4820   25.7210   41.8100 C   0  0  0  0  0  0  0  0  0  0  0  0
   36.9660   24.5730   41.3340 N   0  0  0  0  0  0  0  0  0  0  0  0
   37.8880   23.5940   41.4810 C   0  0  0  0  0  0  0  0  0  0  0  0
   37.8190   22.5630   41.2120 H   0  0  0  0  0  0  0  0  0  0  0  0
   38.9820   24.1230   42.0460 N   0  0  0  0  0  0  0  0  0  0  0  0
   38.7750   25.4450   42.2690 C   0  0  0  0  0  0  0  0  0  0  0  0
   39.5200   26.4790   42.8110 C   0  0  0  0  0  3  0  0  0  0  0  0
   36.0220   24.4460   40.9220 H   0  0  0  0  0  0  0  0  0  0  0  0
  2  1  2  1  0  0  0
  2  3  1  0  0  0  0
  2 15  1  0  0  0  0
  4  3  1  0  0  0  0
  5  2  1  0  0  0  0
  6 12  1  0  0  0  0
  6 11  1  0  0  0  0
  7  6  2  0  0  0  0
  8  7  1  0  0  0  0
  8  9  2  0  0  0  0
  9 10  1  0  0  0  0
 10 11  2  0  0  0  0
 10  5  1  0  0  0  0
 13  7  1  0  0  0  0
 14  8  1  0  0  0  0
 17 15  1  0  0  0  0
 17 16  2  0  0  0  0
 18 17  1  0  0  0  0
 19 18  1  0  0  0  0
 20 18  2  0  0  0  0
 20 25  1  0  0  0  0
 21 22  1  0  0  0  0
 21 20  1  0  0  0  0
 22 24  2  0  0  0  0
 23 22  1  0  0  0  0
 24 25  1  0  0  0  0
 25 26  2  0  0  0  0
 26 16  1  0  0  0  0
 27 21  1  0  0  0  0
M  END
>  <minimizedAffinity>
-5.14250708

$$$$

 OpenBabel03252505283D

 27 29  0  0  0  0  0  0  0  0999 V2000
   39.6430   31.1390   39.7950 O   0  0  0  0  0  0  0  0  0  0  0  0
   38.9330   31.6400   41.0530 P   0  0  1  0  0  0  0  0  0  0  0  0
   39.5440   33.1370   41.5300 O   0  0  0  0  0  0  0  0  0  0  0  0
   39.2570   33.8230   40.8960 H   0  0  0  0  0  0  0  0  0  0  0  0
   37.3030   31.7440   40.6850 O   0  0  0  0  0  0  0  0  0  0  0  0
   34.9580   29.1380   40.1010 C   0  0  0  0  0  0  0  0  0  0  0  0
   34.9990   28.9130   38.7130 C   0  0  0  0  0  0  0  0  0  0  0  0
   35.8880   29.7180   37.9790 C   0  0  0  0  0  0  0  0  0  0  0  0
   36.6330   30.6380   38.6480 N   0  0  0  0  0  0  0  0  0  0  0  0
   36.5550   30.8130   39.9800 C   0  0  0  0  0  0  0  0  0  0  0  0
   35.7130   30.0570   40.7100 N   0  0  0  0  0  0  0  0  0  0  0  0
   34.2760   28.5310   40.7130 H   0  0  0  0  0  0  0  0  0  0  0  0
   34.3920   28.1730   38.2240 H   0  0  0  0  0  0  0  0  0  0  0  0
   35.9680   29.5950   36.9020 H   0  0  0  0  0  0  0  0  0  0  0  0
   39.2780   30.5270   42.2810 O   0  0  0  0  0  0  0  0  0  0  0  0
   37.8880   28.9740   43.3590 C   0  0  0  0  0  3  0  0  0  0  0  0
   38.7110   29.2590   42.2800 C   0  0  0  0  0  0  0  0  0  0  0  0
   38.8820   28.2750   41.3310 C   0  0  0  0  0  0  0  0  0  0  0  0
   39.5150   28.5160   40.5140 H   0  0  0  0  0  0  0  0  0  0  0  0
   38.2330   27.0500   41.4870 C   0  0  0  0  0  0  0  0  0  0  0  0
   38.2420   25.9510   40.7100 N   0  0  0  0  0  0  0  0  0  0  0  0
   37.4530   25.0140   41.2820 C   0  0  0  0  0  0  0  0  0  0  0  0
   37.2310   24.0260   40.9410 H   0  0  0  0  0  0  0  0  0  0  0  0
   36.9490   25.5180   42.4160 N   0  0  0  0  0  0  0  0  0  0  0  0
   37.4070   26.7840   42.5850 C   0  0  0  0  0  0  0  0  0  0  0  0
   37.2350   27.7730   43.5390 C   0  0  0  0  0  3  0  0  0  0  0  0
   38.7620   25.8310   39.8190 H   0  0  0  0  0  0  0  0  0  0  0  0
  2  1  2  6  0  0  0
  2  3  1  0  0  0  0
  2 15  1  0  0  0  0
  4  3  1  0  0  0  0
  5  2  1  0  0  0  0
  6 11  1  0  0  0  0
  6 12  1  0  0  0  0
  7  6  2  0  0  0  0
  8  9  2  0  0  0  0
  8  7  1  0  0  0  0
  9 10  1  0  0  0  0
 10  5  1  0  0  0  0
 10 11  2  0  0  0  0
 13  7  1  0  0  0  0
 14  8  1  0  0  0  0
 16 26  1  0  0  0  0
 17 15  1  0  0  0  0
 17 16  2  0  0  0  0
 18 20  2  0  0  0  0
 18 17  1  0  0  0  0
 19 18  1  0  0  0  0
 20 25  1  0  0  0  0
 21 22  1  0  0  0  0
 21 20  1  0  0  0  0
 22 24  2  0  0  0  0
 23 22  1  0  0  0  0
 24 25  1  0  0  0  0
 25 26  2  0  0  0  0
 27 21  1  0  0  0  0
M  END
>  <minimizedAffinity>
-5.11224461

$$$$

 OpenBabel03252505283D

 27 29  0  0  0  0  0  0  0  0999 V2000
   38.0460   28.3210   39.8990 O   0  0  0  0  0  0  0  0  0  0  0  0
   36.8120   28.3660   40.8010 P   0  0  1  0  0  0  0  0  0  0  0  0
   35.4040   28.4900   39.8830 O   0  0  0  0  0  0  0  0  0  0  0  0
   35.2390   27.6440   39.4230 H   0  0  0  0  0  0  0  0  0  0  0  0
   36.8180   26.9600   41.7090 O   0  0  0  0  0  0  0  0  0  0  0  0
   39.6250   26.6610   43.8670 C   0  0  0  0  0  0  0  0  0  0  0  0
   40.1240   25.3650   43.6420 C   0  0  0  0  0  0  0  0  0  0  0  0
   39.4320   24.5880   42.6950 C   0  0  0  0  0  0  0  0  0  0  0  0
   38.3530   25.1340   42.0750 N   0  0  0  0  0  0  0  0  0  0  0  0
   37.9170   26.3820   42.3280 C   0  0  0  0  0  0  0  0  0  0  0  0
   38.5580   27.1490   43.2290 N   0  0  0  0  0  0  0  0  0  0  0  0
   40.1360   27.3010   44.6000 H   0  0  0  0  0  0  0  0  0  0  0  0
   40.9830   24.9740   44.1550 H   0  0  0  0  0  0  0  0  0  0  0  0
   39.7660   23.5780   42.4750 H   0  0  0  0  0  0  0  0  0  0  0  0
   36.9450   29.7730   41.7350 O   0  0  0  0  0  0  0  0  0  0  0  0
   36.9720   31.7170   40.4220 C   0  0  0  0  0  3  0  0  0  0  0  0
   37.6620   30.8710   41.2790 C   0  0  0  0  0  0  0  0  0  0  0  0
   38.9650   31.1980   41.5850 C   0  0  0  0  0  0  0  0  0  0  0  0
   39.4710   30.5360   42.2420 H   0  0  0  0  0  0  0  0  0  0  0  0
   39.5330   32.3460   41.0340 C   0  0  0  0  0  0  0  0  0  0  0  0
   40.7650   32.8670   41.1800 N   0  0  0  0  0  0  0  0  0  0  0  0
   40.8440   33.9980   40.4430 C   0  0  0  0  0  0  0  0  0  0  0  0
   41.6710   34.6640   40.3240 H   0  0  0  0  0  0  0  0  0  0  0  0
   39.6660   34.1890   39.8330 N   0  0  0  0  0  0  0  0  0  0  0  0
   38.8190   33.1860   40.1720 C   0  0  0  0  0  0  0  0  0  0  0  0
   37.5100   32.8590   39.8640 C   0  0  0  0  0  3  0  0  0  0  0  0
   41.5350   32.4770   41.7580 H   0  0  0  0  0  0  0  0  0  0  0  0
  2  1  2  6  0  0  0
  2  5  1  0  0  0  0
  2 15  1  0  0  0  0
  3  2  1  0  0  0  0
  4  3  1  0  0  0  0
  5 10  1  0  0  0  0
  6 12  1  0  0  0  0
  7  6  1  0  0  0  0
  7 13  1  0  0  0  0
  8  7  2  0  0  0  0
  9 10  2  0  0  0  0
  9  8  1  0  0  0  0
 10 11  1  0  0  0  0
 11  6  2  0  0  0  0
 14  8  1  0  0  0  0
 16 17  1  0  0  0  0
 17 18  2  0  0  0  0
 17 15  1  0  0  0  0
 18 19  1  0  0  0  0
 20 21  1  0  0  0  0
 20 18  1  0  0  0  0
 21 27  1  0  0  0  0
 22 21  1  0  0  0  0
 23 22  1  0  0  0  0
 24 25  1  0  0  0  0
 24 22  2  0  0  0  0
 25 20  2  0  0  0  0
 26 25  1  0  0  0  0
 26 16  2  0  0  0  0
M  END
>  <minimizedAffinity>
-5.08259726

$$$$

 OpenBabel03252505283D

 27 29  0  0  0  0  0  0  0  0999 V2000
   37.1300   27.7690   43.8660 O   0  0  0  0  0  0  0  0  0  0  0  0
   37.2170   27.2050   42.4480 P   0  0  1  0  0  0  0  0  0  0  0  0
   38.7060   27.5710   41.7480 O   0  0  0  0  0  0  0  0  0  0  0  0
   39.4080   27.0430   42.1780 H   0  0  0  0  0  0  0  0  0  0  0  0
   36.9970   25.5500   42.5670 O   0  0  0  0  0  0  0  0  0  0  0  0
   38.6290   23.1310   40.5380 C   0  0  0  0  0  0  0  0  0  0  0  0
   37.6700   22.7460   39.5840 C   0  0  0  0  0  0  0  0  0  0  0  0
   36.4130   23.3710   39.6780 C   0  0  0  0  0  0  0  0  0  0  0  0
   36.2180   24.2870   40.6640 N   0  0  0  0  0  0  0  0  0  0  0  0
   37.1720   24.6200   41.5530 C   0  0  0  0  0  0  0  0  0  0  0  0
   38.3850   24.0380   41.4880 N   0  0  0  0  0  0  0  0  0  0  0  0
   39.6240   22.6660   40.5010 H   0  0  0  0  0  0  0  0  0  0  0  0
   37.8680   22.0170   38.8200 H   0  0  0  0  0  0  0  0  0  0  0  0
   35.6280   23.1180   38.9710 H   0  0  0  0  0  0  0  0  0  0  0  0
   36.0170   27.9820   41.5410 O   0  0  0  0  0  0  0  0  0  0  0  0
   36.2330   28.9570   39.4180 C   0  0  0  0  0  3  0  0  0  0  0  0
   36.3050   29.1170   40.7940 C   0  0  0  0  0  0  0  0  0  0  0  0
   36.6480   30.3620   41.2740 C   0  0  0  0  0  0  0  0  0  0  0  0
   36.6960   30.4590   42.3300 H   0  0  0  0  0  0  0  0  0  0  0  0
   36.9070   31.3970   40.3760 C   0  0  0  0  0  0  0  0  0  0  0  0
   37.2550   32.6780   40.5970 N   0  0  0  0  0  0  0  0  0  0  0  0
   37.3950   33.2970   39.4030 C   0  0  0  0  0  0  0  0  0  0  0  0
   37.6630   34.3120   39.2020 H   0  0  0  0  0  0  0  0  0  0  0  0
   37.1380   32.4100   38.4330 N   0  0  0  0  0  0  0  0  0  0  0  0
   36.8290   31.2130   38.9910 C   0  0  0  0  0  0  0  0  0  0  0  0
   36.4830   29.9630   38.5080 C   0  0  0  0  0  3  0  0  0  0  0  0
   37.3950   33.1280   41.5230 H   0  0  0  0  0  0  0  0  0  0  0  0
  2  5  1  0  0  0  0
  2  1  2  1  0  0  0
  3  4  1  0  0  0  0
  3  2  1  0  0  0  0
  6 11  1  0  0  0  0
  7  8  1  0  0  0  0
  7  6  2  0  0  0  0
  8  9  2  0  0  0  0
  9 10  1  0  0  0  0
 10  5  1  0  0  0  0
 11 10  2  0  0  0  0
 12  6  1  0  0  0  0
 13  7  1  0  0  0  0
 14  8  1  0  0  0  0
 15  2  1  0  0  0  0
 16 17  1  0  0  0  0
 17 18  2  0  0  0  0
 17 15  1  0  0  0  0
 18 19  1  0  0  0  0
 20 21  1  0  0  0  0
 20 18  1  0  0  0  0
 21 27  1  0  0  0  0
 22 21  1  0  0  0  0
 23 22  1  0  0  0  0
 24 25  1  0  0  0  0
 24 22  2  0  0  0  0
 25 20  2  0  0  0  0
 26 25  1  0  0  0  0
 26 16  2  0  0  0  0
M  END
>  <minimizedAffinity>
-5.06203651

$$$$

 OpenBabel03252505283D

 27 29  0  0  0  0  0  0  0  0999 V2000
   38.0870   28.3640   41.3380 O   0  0  0  0  0  0  0  0  0  0  0  0
   37.6940   29.6270   42.1050 P   0  0  1  0  0  0  0  0  0  0  0  0
   37.1420   29.2440   43.6500 O   0  0  0  0  0  0  0  0  0  0  0  0
   37.8930   28.9450   44.2000 H   0  0  0  0  0  0  0  0  0  0  0  0
   39.0560   30.5990   42.1750 O   0  0  0  0  0  0  0  0  0  0  0  0
   40.8580   32.0610   39.4850 C   0  0  0  0  0  0  0  0  0  0  0  0
   40.3090   33.3480   39.3320 C   0  0  0  0  0  0  0  0  0  0  0  0
   39.2700   33.6890   40.2170 C   0  0  0  0  0  0  0  0  0  0  0  0
   38.8780   32.7710   41.1400 N   0  0  0  0  0  0  0  0  0  0  0  0
   39.4390   31.5520   41.2430 C   0  0  0  0  0  0  0  0  0  0  0  0
   40.4350   31.1970   40.4110 N   0  0  0  0  0  0  0  0  0  0  0  0
   41.6730   31.7540   38.8130 H   0  0  0  0  0  0  0  0  0  0  0  0
   40.6510   34.0430   38.5880 H   0  0  0  0  0  0  0  0  0  0  0  0
   38.8030   34.6680   40.1520 H   0  0  0  0  0  0  0  0  0  0  0  0
   36.4070   30.3300   41.2570 O   0  0  0  0  0  0  0  0  0  0  0  0
   35.0780   29.2550   39.6510 C   0  0  0  0  0  3  0  0  0  0  0  0
   36.1900   30.0410   39.9170 C   0  0  0  0  0  0  0  0  0  0  0  0
   36.9530   30.4490   38.8440 C   0  0  0  0  0  0  0  0  0  0  0  0
   37.7980   31.0490   39.0730 H   0  0  0  0  0  0  0  0  0  0  0  0
   36.5870   30.0650   37.5540 C   0  0  0  0  0  0  0  0  0  0  0  0
   37.1630   30.3320   36.3680 N   0  0  0  0  0  0  0  0  0  0  0  0
   36.4370   29.7360   35.3950 C   0  0  0  0  0  0  0  0  0  0  0  0
   36.6030   29.7370   34.3390 H   0  0  0  0  0  0  0  0  0  0  0  0
   35.4090   29.0940   35.9660 N   0  0  0  0  0  0  0  0  0  0  0  0
   35.4620   29.2710   37.3090 C   0  0  0  0  0  0  0  0  0  0  0  0
   34.6940   28.8610   38.3860 C   0  0  0  0  0  3  0  0  0  0  0  0
   38.0180   30.8990   36.2110 H   0  0  0  0  0  0  0  0  0  0  0  0
  2  1  2  6  0  0  0
  2  5  1  0  0  0  0
  2  3  1  0  0  0  0
  3  4  1  0  0  0  0
  6 11  1  0  0  0  0
  7  6  2  0  0  0  0
  7  8  1  0  0  0  0
  8  9  2  0  0  0  0
  9 10  1  0  0  0  0
 10  5  1  0  0  0  0
 11 10  2  0  0  0  0
 12  6  1  0  0  0  0
 13  7  1  0  0  0  0
 14  8  1  0  0  0  0
 15  2  1  0  0  0  0
 16 17  1  0  0  0  0
 17 15  1  0  0  0  0
 18 19  1  0  0  0  0
 18 17  2  0  0  0  0
 20 18  1  0  0  0  0
 21 20  1  0  0  0  0
 22 24  2  0  0  0  0
 22 21  1  0  0  0  0
 23 22  1  0  0  0  0
 24 25  1  0  0  0  0
 25 20  2  0  0  0  0
 25 26  1  0  0  0  0
 26 16  2  0  0  0  0
 27 21  1  0  0  0  0
M  END
>  <minimizedAffinity>
-5.06194162

$$$$
