
 OpenBabel03252507323D

 52 56  0  0  1  0  0  0  0  0999 V2000
   47.0280   32.5430   45.4530 C   0  0  0  0  0  0  0  0  0  0  0  0
   45.9510   33.1980   46.0310 C   0  0  0  0  0  0  0  0  0  0  0  0
   45.3100   34.2440   45.3250 C   0  0  0  0  0  0  0  0  0  0  0  0
   45.8250   34.5480   44.0670 N   0  0  0  0  0  0  0  0  0  0  0  0
   46.8680   33.8780   43.5710 C   0  0  0  0  0  0  0  0  0  0  0  0
   47.4600   32.8930   44.2490 N   0  0  0  0  0  0  0  0  0  0  0  0
   45.4310   33.1570   46.9640 H   0  0  0  0  0  0  0  0  0  0  0  0
   44.4770   34.8450   45.6150 H   0  0  0  0  0  0  0  0  0  0  0  0
   47.6360   31.4640   46.2070 C   0  0  2  0  0  0  0  0  0  0  0  0
   47.2620   30.0720   45.6120 C   0  0  0  0  0  0  0  0  0  0  0  0
   48.0390   29.0120   46.3170 C   0  0  0  0  0  0  0  0  0  0  0  0
   48.1060   29.1270   47.8030 C   0  0  0  0  0  0  0  0  0  0  0  0
   48.2220   30.4790   48.2920 C   0  0  0  0  0  0  0  0  0  0  0  0
   47.2600   31.4740   47.6060 C   0  0  2  0  0  0  0  0  0  0  0  0
   48.7410   31.4870   46.0390 H   0  0  0  0  0  0  0  0  0  0  0  0
   46.1740   29.9310   45.6020 H   0  0  0  0  0  0  0  0  0  0  0  0
   47.5820   30.1490   44.5530 H   0  0  0  0  0  0  0  0  0  0  0  0
   49.0050   28.9310   45.7810 H   0  0  0  0  0  0  0  0  0  0  0  0
   47.5160   28.0330   46.1050 H   0  0  0  0  0  0  0  0  0  0  0  0
   47.7040   28.3110   48.4030 H   0  0  0  0  0  0  0  0  0  0  0  0
   49.2070   28.7800   47.9580 H   0  0  0  0  0  0  0  0  0  0  0  0
   49.2150   30.9890   48.2340 H   0  0  0  0  0  0  0  0  0  0  0  0
   47.9540   30.5120   49.3800 H   0  0  0  0  0  0  0  0  0  0  0  0
   47.4690   32.3860   48.1660 H   0  0  0  0  0  0  0  0  0  0  0  0
   45.8900   30.9800   47.7600 N   0  0  0  0  0  0  0  0  0  0  0  0
   45.1690   30.5710   48.8950 C   0  0  0  0  0  0  0  0  0  0  0  0
   44.6640   31.3960   49.7380 O   0  0  0  0  0  0  0  0  0  0  0  0
   45.0320   29.1570   49.0360 N   0  0  0  0  0  0  0  0  0  0  0  0
   45.2450   30.8010   46.9010 H   0  0  0  0  0  0  0  0  0  0  0  0
   44.7030   28.4450   48.3800 H   0  0  0  0  0  0  0  0  0  0  0  0
   45.2980   28.7130   49.9430 H   0  0  0  0  0  0  0  0  0  0  0  0
   47.3740   34.2610   42.2480 C   0  0  0  0  0  0  0  0  0  0  0  0
   48.3720   35.2000   42.1150 C   0  0  0  0  0  0  0  0  0  0  0  0
   48.8980   35.6100   40.9090 C   0  0  0  0  0  0  0  0  0  0  0  0
   48.3480   35.0050   39.8010 C   0  0  0  0  0  0  0  0  0  0  0  0
   47.3530   34.0660   39.9170 C   0  0  0  0  0  0  0  0  0  0  0  0
   46.8650   33.6940   41.1420 N   0  0  0  0  0  0  0  0  0  0  0  0
   48.7540   35.6320   43.0350 H   0  0  0  0  0  0  0  0  0  0  0  0
   49.6710   36.3400   40.8410 H   0  0  0  0  0  0  0  0  0  0  0  0
   48.7260   35.2910   38.8320 H   0  0  0  0  0  0  0  0  0  0  0  0
   47.4170   33.3960   37.5590 C   0  0  0  0  0  3  0  0  0  0  0  0
   46.7500   33.4060   38.7650 C   0  0  0  0  0  0  0  0  0  0  0  0
   45.5350   32.7730   38.7810 C   0  0  0  0  0  0  0  0  0  0  0  0
   44.9680   32.7450   39.6850 H   0  0  0  0  0  0  0  0  0  0  0  0
   44.9670   32.1500   37.6900 C   0  0  0  0  0  0  0  0  0  0  0  0
   43.7960   31.4850   37.5210 N   0  0  0  0  0  0  0  0  0  0  0  0
   43.7340   31.0740   36.2520 C   0  0  0  0  0  0  0  0  0  0  0  0
   42.8770   30.5140   35.8840 H   0  0  0  0  0  0  0  0  0  0  0  0
   44.8670   31.4760   35.6100 N   0  0  0  0  0  0  0  0  0  0  0  0
   45.6520   32.1490   36.4810 C   0  0  0  0  0  0  0  0  0  0  0  0
   46.8780   32.7760   36.4290 C   0  0  0  0  0  3  0  0  0  0  0  0
   43.0860   31.3360   38.2730 H   0  0  0  0  0  0  0  0  0  0  0  0
  1  2  1  0  0  0  0
  1  9  1  0  0  0  0
  2  7  1  0  0  0  0
  3  8  1  0  0  0  0
  3  2  2  0  0  0  0
  4  3  1  0  0  0  0
  5  4  2  0  0  0  0
  5  6  1  0  0  0  0
  6  1  2  0  0  0  0
  9 15  1  6  0  0  0
  9 14  1  0  0  0  0
 10  9  1  0  0  0  0
 10 11  1  0  0  0  0
 11 12  1  0  0  0  0
 12 21  1  0  0  0  0
 12 13  1  0  0  0  0
 12 20  1  0  0  0  0
 13 23  1  0  0  0  0
 14 25  1  0  0  0  0
 14 24  1  1  0  0  0
 14 13  1  0  0  0  0
 16 10  1  0  0  0  0
 17 10  1  0  0  0  0
 18 11  1  0  0  0  0
 19 11  1  0  0  0  0
 22 13  1  0  0  0  0
 25 26  1  0  0  0  0
 26 28  1  0  0  0  0
 26 27  2  0  0  0  0
 28 31  1  0  0  0  0
 29 25  1  0  0  0  0
 30 28  1  0  0  0  0
 32  5  1  0  0  0  0
 33 32  1  0  0  0  0
 33 38  1  0  0  0  0
 34 33  2  0  0  0  0
 35 36  2  0  0  0  0
 35 34  1  0  0  0  0
 36 37  1  0  0  0  0
 37 32  2  0  0  0  0
 39 34  1  0  0  0  0
 40 35  1  0  0  0  0
 41 42  1  0  0  0  0
 42 43  2  0  0  0  0
 42 36  1  0  0  0  0
 43 44  1  0  0  0  0
 45 43  1  0  0  0  0
 46 45  1  0  0  0  0
 46 52  1  0  0  0  0
 47 46  1  0  0  0  0
 48 47  1  0  0  0  0
 49 47  2  0  0  0  0
 49 50  1  0  0  0  0
 50 45  2  0  0  0  0
 51 50  1  0  0  0  0
 51 41  2  0  0  0  0
M  END
>  <minimizedAffinity>
-6.77782249

>  <minimizedRMSD>
0.547613978

$$$$
