
 OpenBabel03252507323D

 52 56  0  0  1  0  0  0  0  0999 V2000
   47.0440   32.4380   45.3690 C   0  0  0  0  0  0  0  0  0  0  0  0
   45.9600   33.0760   45.9530 C   0  0  0  0  0  0  0  0  0  0  0  0
   45.3430   34.1590   45.2820 C   0  0  0  0  0  0  0  0  0  0  0  0
   45.8890   34.5160   44.0510 N   0  0  0  0  0  0  0  0  0  0  0  0
   46.9370   33.8600   43.5470 C   0  0  0  0  0  0  0  0  0  0  0  0
   47.5050   32.8400   44.1920 N   0  0  0  0  0  0  0  0  0  0  0  0
   45.4190   32.9970   46.8720 H   0  0  0  0  0  0  0  0  0  0  0  0
   44.5090   34.7540   45.5810 H   0  0  0  0  0  0  0  0  0  0  0  0
   47.6250   31.3200   46.0860 C   0  0  2  0  0  0  0  0  0  0  0  0
   47.1640   29.9560   45.4860 C   0  0  0  0  0  0  0  0  0  0  0  0
   47.9140   28.8500   46.1470 C   0  0  0  0  0  0  0  0  0  0  0  0
   48.0400   28.9390   47.6310 C   0  0  0  0  0  0  0  0  0  0  0  0
   48.2380   30.2760   48.1340 C   0  0  0  0  0  0  0  0  0  0  0  0
   47.3010   31.3260   47.4980 C   0  0  2  0  0  0  0  0  0  0  0  0
   48.7240   31.2930   45.8770 H   0  0  0  0  0  0  0  0  0  0  0  0
   46.0710   29.8680   45.5140 H   0  0  0  0  0  0  0  0  0  0  0  0
   47.4490   30.0350   44.4170 H   0  0  0  0  0  0  0  0  0  0  0  0
   48.8540   28.7310   45.5750 H   0  0  0  0  0  0  0  0  0  0  0  0
   47.3370   27.9010   45.9410 H   0  0  0  0  0  0  0  0  0  0  0  0
   47.6200   28.1340   48.2350 H   0  0  0  0  0  0  0  0  0  0  0  0
   49.1270   28.5380   47.7420 H   0  0  0  0  0  0  0  0  0  0  0  0
   49.2520   30.7390   48.0470 H   0  0  0  0  0  0  0  0  0  0  0  0
   48.0110   30.3050   49.2320 H   0  0  0  0  0  0  0  0  0  0  0  0
   47.5730   32.2190   48.0620 H   0  0  0  0  0  0  0  0  0  0  0  0
   45.9150   30.8960   47.6940 N   0  0  0  0  0  0  0  0  0  0  0  0
   45.2010   30.5590   48.8570 C   0  0  0  0  0  0  0  0  0  0  0  0
   44.7470   31.4350   49.6780 O   0  0  0  0  0  0  0  0  0  0  0  0
   45.0090   29.1570   49.0530 N   0  0  0  0  0  0  0  0  0  0  0  0
   45.2460   30.7140   46.8540 H   0  0  0  0  0  0  0  0  0  0  0  0
   44.6380   28.4370   48.4300 H   0  0  0  0  0  0  0  0  0  0  0  0
   45.2730   28.7360   49.9700 H   0  0  0  0  0  0  0  0  0  0  0  0
   47.4760   34.2990   42.2550 C   0  0  0  0  0  0  0  0  0  0  0  0
   48.4240   35.2950   42.1830 C   0  0  0  0  0  0  0  0  0  0  0  0
   48.9760   35.7600   41.0090 C   0  0  0  0  0  0  0  0  0  0  0  0
   48.5090   35.1480   39.8680 C   0  0  0  0  0  0  0  0  0  0  0  0
   47.5640   34.1520   39.9220 C   0  0  0  0  0  0  0  0  0  0  0  0
   47.0480   33.7280   41.1180 N   0  0  0  0  0  0  0  0  0  0  0  0
   48.7410   35.7290   43.1270 H   0  0  0  0  0  0  0  0  0  0  0  0
   49.7080   36.5330   40.9880 H   0  0  0  0  0  0  0  0  0  0  0  0
   48.9110   35.4750   38.9210 H   0  0  0  0  0  0  0  0  0  0  0  0
   47.8060   33.4630   37.5810 C   0  0  0  0  0  3  0  0  0  0  0  0
   47.0500   33.4840   38.7340 C   0  0  0  0  0  0  0  0  0  0  0  0
   45.8370   32.8540   38.6620 C   0  0  0  0  0  0  0  0  0  0  0  0
   45.2020   32.8330   39.5190 H   0  0  0  0  0  0  0  0  0  0  0  0
   45.3520   32.2220   37.5350 C   0  0  0  0  0  0  0  0  0  0  0  0
   44.1950   31.5570   37.2820 N   0  0  0  0  0  0  0  0  0  0  0  0
   44.2290   31.1370   36.0170 C   0  0  0  0  0  0  0  0  0  0  0  0
   43.4010   30.5760   35.5890 H   0  0  0  0  0  0  0  0  0  0  0  0
   45.4080   31.5330   35.4580 N   0  0  0  0  0  0  0  0  0  0  0  0
   46.1260   32.2110   36.3820 C   0  0  0  0  0  0  0  0  0  0  0  0
   47.3530   32.8360   36.4180 C   0  0  0  0  0  3  0  0  0  0  0  0
   43.4310   31.4170   37.9800 H   0  0  0  0  0  0  0  0  0  0  0  0
  1  2  1  0  0  0  0
  1  9  1  0  0  0  0
  2  7  1  0  0  0  0
  3  8  1  0  0  0  0
  3  2  2  0  0  0  0
  4  3  1  0  0  0  0
  5  4  2  0  0  0  0
  5  6  1  0  0  0  0
  6  1  2  0  0  0  0
  9 15  1  6  0  0  0
  9 14  1  0  0  0  0
 10 16  1  0  0  0  0
 10  9  1  0  0  0  0
 10 11  1  0  0  0  0
 11 12  1  0  0  0  0
 12 21  1  0  0  0  0
 12 13  1  0  0  0  0
 12 20  1  0  0  0  0
 13 23  1  0  0  0  0
 14 25  1  0  0  0  0
 14 24  1  1  0  0  0
 14 13  1  0  0  0  0
 17 10  1  0  0  0  0
 18 11  1  0  0  0  0
 19 11  1  0  0  0  0
 22 13  1  0  0  0  0
 25 26  1  0  0  0  0
 26 28  1  0  0  0  0
 26 27  2  0  0  0  0
 28 31  1  0  0  0  0
 29 25  1  0  0  0  0
 30 28  1  0  0  0  0
 32  5  1  0  0  0  0
 33 32  1  0  0  0  0
 33 38  1  0  0  0  0
 34 33  2  0  0  0  0
 35 36  2  0  0  0  0
 35 34  1  0  0  0  0
 36 37  1  0  0  0  0
 37 32  2  0  0  0  0
 39 34  1  0  0  0  0
 40 35  1  0  0  0  0
 41 42  1  0  0  0  0
 42 36  1  0  0  0  0
 43 42  2  0  0  0  0
 43 44  1  0  0  0  0
 45 43  1  0  0  0  0
 46 45  1  0  0  0  0
 46 52  1  0  0  0  0
 47 46  1  0  0  0  0
 48 47  1  0  0  0  0
 49 47  2  0  0  0  0
 49 50  1  0  0  0  0
 50 51  1  0  0  0  0
 50 45  2  0  0  0  0
 51 41  2  0  0  0  0
M  END
>  <minimizedAffinity>
-6.76070404

>  <minimizedRMSD>
1.06953561

$$$$
