
 OpenBabel03252506403D

 47 51  0  0  1  0  0  0  0  0999 V2000
   37.9780   25.3480   42.0790 S   0  0  0  0  0  0  0  0  0  0  0  0
   38.5470   26.4800   36.1630 C   0  0  0  0  0  0  0  0  0  0  0  0
   37.6030   27.5260   36.2160 C   0  0  0  0  0  0  0  0  0  0  0  0
   36.8540   27.6840   37.3310 C   0  0  0  0  0  0  0  0  0  0  0  0
   37.0630   26.8110   38.3470 N   0  0  0  0  0  0  0  0  0  0  0  0
   37.9510   25.8300   38.2940 C   0  0  0  0  0  0  0  0  0  0  0  0
   38.7050   25.6470   37.2070 N   0  0  0  0  0  0  0  0  0  0  0  0
   38.0870   24.9590   39.4310 N   0  0  0  0  0  0  0  0  0  0  0  0
   39.1420   24.0290   39.6030 C   0  0  0  0  0  0  0  0  0  0  0  0
   38.4610   22.8460   40.2640 C   0  0  0  0  0  0  0  0  0  0  0  0
   37.0670   23.2960   40.5900 C   0  0  0  0  0  0  0  0  0  0  0  0
   37.2090   24.8180   40.5650 C   0  0  1  0  0  0  0  0  0  0  0  0
   39.1330   26.3720   35.2610 H   0  0  0  0  0  0  0  0  0  0  0  0
   36.1360   28.4670   37.3920 H   0  0  0  0  0  0  0  0  0  0  0  0
   40.0530   24.2110   40.0700 H   0  0  0  0  0  0  0  0  0  0  0  0
   39.3920   23.6350   38.5670 H   0  0  0  0  0  0  0  0  0  0  0  0
   38.4270   21.9400   39.6620 H   0  0  0  0  0  0  0  0  0  0  0  0
   39.0110   22.5680   41.2060 H   0  0  0  0  0  0  0  0  0  0  0  0
   36.7810   22.9840   41.6220 H   0  0  0  0  0  0  0  0  0  0  0  0
   36.3590   22.9230   39.8400 H   0  0  0  0  0  0  0  0  0  0  0  0
   36.1890   25.2100   40.4100 H   0  0  0  0  0  0  0  0  0  0  0  0
   37.4980   28.3690   35.0550 N   0  0  0  0  0  0  0  0  0  0  0  0
   36.5370   28.7270   34.9000 H   0  0  0  0  0  0  0  0  0  0  0  0
   38.2830   28.6080   34.4260 H   0  0  0  0  0  0  0  0  0  0  0  0
   39.4470   27.8550   40.4430 O   0  0  0  0  0  0  0  0  0  0  0  0
   38.6700   27.9340   41.4080 C   0  0  0  0  0  0  0  0  0  0  0  0
   37.9970   27.0630   42.4010 C   0  0  1  0  0  0  0  0  0  0  0  0
   36.6420   27.7150   42.5240 C   0  0  0  0  0  0  0  0  0  0  0  0
   37.1250   29.1430   42.8040 C   0  0  0  0  0  0  0  0  0  0  0  0
   38.1830   29.2300   41.8060 N   0  0  0  0  0  0  0  0  0  0  0  0
   38.4950   27.4260   43.3440 H   0  0  0  0  0  0  0  0  0  0  0  0
   36.1050   27.7630   41.5580 H   0  0  0  0  0  0  0  0  0  0  0  0
   36.0510   27.3420   43.3670 H   0  0  0  0  0  0  0  0  0  0  0  0
   36.2980   29.8220   42.5520 H   0  0  0  0  0  0  0  0  0  0  0  0
   37.5050   29.2550   43.8320 H   0  0  0  0  0  0  0  0  0  0  0  0
   37.5400   31.2590   40.7790 C   0  0  0  0  0  3  0  0  0  0  0  0
   38.5710   30.5560   41.3800 C   0  0  0  0  0  0  0  0  0  0  0  0
   39.8100   31.1120   41.5300 C   0  0  0  0  0  0  0  0  0  0  0  0
   40.5580   30.4990   42.0090 H   0  0  0  0  0  0  0  0  0  0  0  0
   40.0460   32.4010   41.0740 C   0  0  0  0  0  0  0  0  0  0  0  0
   41.1590   33.1560   41.1030 N   0  0  0  0  0  0  0  0  0  0  0  0
   40.8300   34.3430   40.5170 C   0  0  0  0  0  0  0  0  0  0  0  0
   41.4910   35.2070   40.3650 H   0  0  0  0  0  0  0  0  0  0  0  0
   39.5500   34.3470   40.1250 N   0  0  0  0  0  0  0  0  0  0  0  0
   39.0380   33.1520   40.4600 C   0  0  0  0  0  0  0  0  0  0  0  0
   37.7870   32.5420   40.3290 C   0  0  0  0  0  3  0  0  0  0  0  0
   42.0920   32.8920   41.4960 H   0  0  0  0  0  0  0  0  0  0  0  0
  1 27  1  0  0  0  0
  2  3  2  0  0  0  0
  2  7  1  0  0  0  0
  3  4  1  0  0  0  0
  4 14  1  0  0  0  0
  4  5  2  0  0  0  0
  6  5  1  0  0  0  0
  6  8  1  0  0  0  0
  7  6  2  0  0  0  0
  8  9  1  0  0  0  0
  8 12  1  0  0  0  0
  9 15  1  0  0  0  0
  9 10  1  0  0  0  0
 10 11  1  0  0  0  0
 10 18  1  0  0  0  0
 11 19  1  0  0  0  0
 12 21  1  6  0  0  0
 12 11  1  0  0  0  0
 12  1  1  0  0  0  0
 13  2  1  0  0  0  0
 16  9  1  0  0  0  0
 17 10  1  0  0  0  0
 20 11  1  0  0  0  0
 22  3  1  0  0  0  0
 23 22  1  0  0  0  0
 24 22  1  0  0  0  0
 25 26  2  0  0  0  0
 26 30  1  0  0  0  0
 26 27  1  0  0  0  0
 27 28  1  0  0  0  0
 27 31  1  1  0  0  0
 28 29  1  0  0  0  0
 28 33  1  0  0  0  0
 29 35  1  0  0  0  0
 30 29  1  0  0  0  0
 32 28  1  0  0  0  0
 34 29  1  0  0  0  0
 36 37  1  0  0  0  0
 37 38  2  0  0  0  0
 37 30  1  0  0  0  0
 38 39  1  0  0  0  0
 40 41  1  0  0  0  0
 40 38  1  0  0  0  0
 41 47  1  0  0  0  0
 42 41  1  0  0  0  0
 43 42  1  0  0  0  0
 44 45  1  0  0  0  0
 44 42  2  0  0  0  0
 45 40  2  0  0  0  0
 46 45  1  0  0  0  0
 46 36  2  0  0  0  0
M  END
>  <minimizedAffinity>
-6.16449547

$$$$

 OpenBabel03252506403D

 47 51  0  0  1  0  0  0  0  0999 V2000
   38.2860   24.8850   42.0730 S   0  0  0  0  0  0  0  0  0  0  0  0
   36.9790   26.6930   36.4500 C   0  0  0  0  0  0  0  0  0  0  0  0
   35.8960   27.4800   36.8960 C   0  0  0  0  0  0  0  0  0  0  0  0
   35.4650   27.3500   38.1710 C   0  0  0  0  0  0  0  0  0  0  0  0
   36.1140   26.4540   38.9550 N   0  0  0  0  0  0  0  0  0  0  0  0
   37.1300   25.7170   38.5330 C   0  0  0  0  0  0  0  0  0  0  0  0
   37.5780   25.8220   37.2810 N   0  0  0  0  0  0  0  0  0  0  0  0
   37.7420   24.7950   39.4520 N   0  0  0  0  0  0  0  0  0  0  0  0
   38.9660   24.1230   39.2130 C   0  0  0  0  0  0  0  0  0  0  0  0
   38.7410   22.7550   39.8280 C   0  0  0  0  0  0  0  0  0  0  0  0
   37.4290   22.8340   40.5520 C   0  0  0  0  0  0  0  0  0  0  0  0
   37.2540   24.3420   40.7310 C   0  0  1  0  0  0  0  0  0  0  0  0
   37.3050   26.8140   35.4260 H   0  0  0  0  0  0  0  0  0  0  0  0
   34.6510   27.9340   38.5280 H   0  0  0  0  0  0  0  0  0  0  0  0
   39.9150   24.4650   39.4640 H   0  0  0  0  0  0  0  0  0  0  0  0
   38.9960   23.9010   38.0990 H   0  0  0  0  0  0  0  0  0  0  0  0
   38.7240   21.9300   39.1190 H   0  0  0  0  0  0  0  0  0  0  0  0
   39.5720   22.5210   40.5510 H   0  0  0  0  0  0  0  0  0  0  0  0
   37.5050   22.3640   41.5600 H   0  0  0  0  0  0  0  0  0  0  0  0
   36.6320   22.3820   39.9490 H   0  0  0  0  0  0  0  0  0  0  0  0
   36.1740   24.5000   40.8930 H   0  0  0  0  0  0  0  0  0  0  0  0
   35.3130   28.3860   35.9420 N   0  0  0  0  0  0  0  0  0  0  0  0
   34.2950   28.5240   36.0850 H   0  0  0  0  0  0  0  0  0  0  0  0
   35.8310   28.8610   35.1840 H   0  0  0  0  0  0  0  0  0  0  0  0
   39.2970   27.5810   40.3920 O   0  0  0  0  0  0  0  0  0  0  0  0
   38.6690   27.5490   41.4620 C   0  0  0  0  0  0  0  0  0  0  0  0
   38.2210   26.5790   42.4890 C   0  0  1  0  0  0  0  0  0  0  0  0
   36.8540   27.1070   42.8450 C   0  0  0  0  0  0  0  0  0  0  0  0
   37.2610   28.5560   43.1360 C   0  0  0  0  0  0  0  0  0  0  0  0
   38.1490   28.7790   42.0020 N   0  0  0  0  0  0  0  0  0  0  0  0
   38.8240   26.9380   43.3700 H   0  0  0  0  0  0  0  0  0  0  0  0
   36.1760   27.1540   41.9720 H   0  0  0  0  0  0  0  0  0  0  0  0
   36.4260   26.6460   43.7420 H   0  0  0  0  0  0  0  0  0  0  0  0
   36.3560   29.1740   43.0470 H   0  0  0  0  0  0  0  0  0  0  0  0
   37.7800   28.6520   44.1020 H   0  0  0  0  0  0  0  0  0  0  0  0
   39.6170   30.6300   41.9540 C   0  0  0  0  0  3  0  0  0  0  0  0
   38.3650   30.1520   41.6040 C   0  0  0  0  0  0  0  0  0  0  0  0
   37.4660   30.9440   40.9480 C   0  0  0  0  0  0  0  0  0  0  0  0
   36.5120   30.4960   40.7110 H   0  0  0  0  0  0  0  0  0  0  0  0
   37.8060   32.2500   40.6240 C   0  0  0  0  0  0  0  0  0  0  0  0
   37.1090   33.2110   39.9920 N   0  0  0  0  0  0  0  0  0  0  0  0
   37.9240   34.3030   39.9430 C   0  0  0  0  0  0  0  0  0  0  0  0
   37.6900   35.2800   39.4970 H   0  0  0  0  0  0  0  0  0  0  0  0
   39.1030   34.0490   40.5230 N   0  0  0  0  0  0  0  0  0  0  0  0
   39.0570   32.7790   40.9550 C   0  0  0  0  0  0  0  0  0  0  0  0
   39.9440   31.9320   41.6260 C   0  0  0  0  0  3  0  0  0  0  0  0
   36.1360   33.1410   39.6120 H   0  0  0  0  0  0  0  0  0  0  0  0
  1 27  1  0  0  0  0
  2  3  2  0  0  0  0
  2  7  1  0  0  0  0
  3  4  1  0  0  0  0
  4 14  1  0  0  0  0
  4  5  2  0  0  0  0
  6  5  1  0  0  0  0
  6  8  1  0  0  0  0
  7  6  2  0  0  0  0
  8 12  1  0  0  0  0
  9  8  1  0  0  0  0
  9 15  1  0  0  0  0
  9 10  1  0  0  0  0
 10 18  1  0  0  0  0
 10 11  1  0  0  0  0
 11 12  1  0  0  0  0
 11 19  1  0  0  0  0
 12 21  1  1  0  0  0
 12  1  1  0  0  0  0
 13  2  1  0  0  0  0
 16  9  1  0  0  0  0
 17 10  1  0  0  0  0
 20 11  1  0  0  0  0
 22 23  1  0  0  0  0
 22  3  1  0  0  0  0
 24 22  1  0  0  0  0
 25 26  2  0  0  0  0
 26 30  1  0  0  0  0
 26 27  1  0  0  0  0
 27 28  1  0  0  0  0
 27 31  1  1  0  0  0
 28 29  1  0  0  0  0
 28 33  1  0  0  0  0
 29 35  1  0  0  0  0
 30 29  1  0  0  0  0
 32 28  1  0  0  0  0
 34 29  1  0  0  0  0
 37 36  2  0  0  0  0
 37 30  1  0  0  0  0
 38 37  1  0  0  0  0
 39 38  1  0  0  0  0
 40 38  2  0  0  0  0
 40 45  1  0  0  0  0
 41 40  1  0  0  0  0
 42 41  1  0  0  0  0
 42 44  2  0  0  0  0
 43 42  1  0  0  0  0
 44 45  1  0  0  0  0
 45 46  2  0  0  0  0
 46 36  1  0  0  0  0
 47 41  1  0  0  0  0
M  END
>  <minimizedAffinity>
-6.10515213

$$$$

 OpenBabel03252506403D

 47 51  0  0  1  0  0  0  0  0999 V2000
   37.3910   26.8180   41.2570 S   0  0  0  0  0  0  0  0  0  0  0  0
   39.0770   32.1710   39.0000 C   0  0  0  0  0  0  0  0  0  0  0  0
   39.6730   31.5700   37.8720 C   0  0  0  0  0  0  0  0  0  0  0  0
   39.8460   30.2290   37.8520 C   0  0  0  0  0  0  0  0  0  0  0  0
   39.4270   29.5340   38.9380 N   0  0  0  0  0  0  0  0  0  0  0  0
   38.8680   30.1020   39.9960 C   0  0  0  0  0  0  0  0  0  0  0  0
   38.6840   31.4230   40.0450 N   0  0  0  0  0  0  0  0  0  0  0  0
   38.4640   29.2670   41.0950 N   0  0  0  0  0  0  0  0  0  0  0  0
   37.6530   29.7020   42.1720 C   0  0  0  0  0  0  0  0  0  0  0  0
   38.2350   28.9690   43.3660 C   0  0  0  0  0  0  0  0  0  0  0  0
   39.2430   28.0050   42.8120 C   0  0  0  0  0  0  0  0  0  0  0  0
   38.8070   27.8910   41.3520 C   0  0  1  0  0  0  0  0  0  0  0  0
   38.9500   33.2450   38.9930 H   0  0  0  0  0  0  0  0  0  0  0  0
   40.2930   29.7550   37.0100 H   0  0  0  0  0  0  0  0  0  0  0  0
   36.6150   29.6660   42.2150 H   0  0  0  0  0  0  0  0  0  0  0  0
   37.9400   30.7830   42.3710 H   0  0  0  0  0  0  0  0  0  0  0  0
   38.7040   29.6070   44.1130 H   0  0  0  0  0  0  0  0  0  0  0  0
   37.4190   28.4120   43.9060 H   0  0  0  0  0  0  0  0  0  0  0  0
   39.1390   27.0040   43.2930 H   0  0  0  0  0  0  0  0  0  0  0  0
   40.2580   28.4070   42.9220 H   0  0  0  0  0  0  0  0  0  0  0  0
   39.6930   27.5270   40.8030 H   0  0  0  0  0  0  0  0  0  0  0  0
   40.0640   32.4440   36.7980 N   0  0  0  0  0  0  0  0  0  0  0  0
   40.9060   32.1110   36.2900 H   0  0  0  0  0  0  0  0  0  0  0  0
   39.5770   33.3180   36.5400 H   0  0  0  0  0  0  0  0  0  0  0  0
   35.1260   28.9270   40.0180 O   0  0  0  0  0  0  0  0  0  0  0  0
   35.6400   27.9510   39.4500 C   0  0  0  0  0  0  0  0  0  0  0  0
   36.5150   26.7910   39.7490 C   0  0  1  0  0  0  0  0  0  0  0  0
   37.3660   26.7110   38.5060 C   0  0  0  0  0  0  0  0  0  0  0  0
   36.2290   26.7020   37.4770 C   0  0  0  0  0  0  0  0  0  0  0  0
   35.3940   27.7530   38.0440 N   0  0  0  0  0  0  0  0  0  0  0  0
   35.7890   25.9500   39.5650 H   0  0  0  0  0  0  0  0  0  0  0  0
   37.9330   27.6430   38.3180 H   0  0  0  0  0  0  0  0  0  0  0  0
   37.9500   25.7880   38.4330 H   0  0  0  0  0  0  0  0  0  0  0  0
   36.6550   27.0220   36.5160 H   0  0  0  0  0  0  0  0  0  0  0  0
   35.7140   25.7280   37.4410 H   0  0  0  0  0  0  0  0  0  0  0  0
   35.0020   28.6050   35.8750 C   0  0  0  0  0  3  0  0  0  0  0  0
   34.4780   28.4150   37.1440 C   0  0  0  0  0  0  0  0  0  0  0  0
   33.2150   28.8340   37.4540 C   0  0  0  0  0  0  0  0  0  0  0  0
   32.8820   28.6490   38.4650 H   0  0  0  0  0  0  0  0  0  0  0  0
   32.4390   29.4590   36.4890 C   0  0  0  0  0  0  0  0  0  0  0  0
   31.1900   29.9530   36.5470 N   0  0  0  0  0  0  0  0  0  0  0  0
   30.9210   30.4580   35.3080 C   0  0  0  0  0  0  0  0  0  0  0  0
   29.9910   30.9420   34.9830 H   0  0  0  0  0  0  0  0  0  0  0  0
   31.9650   30.2920   34.4860 N   0  0  0  0  0  0  0  0  0  0  0  0
   32.9220   29.6730   35.1940 C   0  0  0  0  0  0  0  0  0  0  0  0
   34.2190   29.2290   34.9220 C   0  0  0  0  0  3  0  0  0  0  0  0
   30.5470   29.9530   37.3730 H   0  0  0  0  0  0  0  0  0  0  0  0
  1 12  1  0  0  0  0
  2  7  1  0  0  0  0
  3  2  2  0  0  0  0
  4  3  1  0  0  0  0
  4  5  2  0  0  0  0
  5  6  1  0  0  0  0
  6  7  2  0  0  0  0
  6  8  1  0  0  0  0
  8 12  1  0  0  0  0
  8  9  1  0  0  0  0
  9 15  1  0  0  0  0
  9 16  1  0  0  0  0
  9 10  1  0  0  0  0
 10 18  1  0  0  0  0
 10 17  1  0  0  0  0
 11 20  1  0  0  0  0
 11 19  1  0  0  0  0
 11 10  1  0  0  0  0
 12 21  1  6  0  0  0
 12 11  1  0  0  0  0
 13  2  1  0  0  0  0
 14  4  1  0  0  0  0
 22  3  1  0  0  0  0
 23 22  1  0  0  0  0
 24 22  1  0  0  0  0
 26 27  1  0  0  0  0
 26 25  2  0  0  0  0
 27 31  1  1  0  0  0
 27  1  1  0  0  0  0
 28 27  1  0  0  0  0
 29 30  1  0  0  0  0
 29 28  1  0  0  0  0
 30 26  1  0  0  0  0
 32 28  1  0  0  0  0
 33 28  1  0  0  0  0
 34 29  1  0  0  0  0
 35 29  1  0  0  0  0
 36 37  1  0  0  0  0
 37 38  2  0  0  0  0
 37 30  1  0  0  0  0
 38 39  1  0  0  0  0
 40 41  1  0  0  0  0
 40 38  1  0  0  0  0
 41 47  1  0  0  0  0
 42 41  1  0  0  0  0
 43 42  1  0  0  0  0
 44 45  1  0  0  0  0
 44 42  2  0  0  0  0
 45 40  2  0  0  0  0
 46 45  1  0  0  0  0
 46 36  2  0  0  0  0
M  END
>  <minimizedAffinity>
-6.04317856

$$$$

 OpenBabel03252506403D

 47 51  0  0  1  0  0  0  0  0999 V2000
   35.8960   26.9560   38.5900 S   0  0  0  0  0  0  0  0  0  0  0  0
   37.8830   32.6670   38.7650 C   0  0  0  0  0  0  0  0  0  0  0  0
   37.7200   32.7390   40.1640 C   0  0  0  0  0  0  0  0  0  0  0  0
   37.0440   31.7560   40.8020 C   0  0  0  0  0  0  0  0  0  0  0  0
   36.5580   30.7450   40.0420 N   0  0  0  0  0  0  0  0  0  0  0  0
   36.7140   30.6800   38.7280 C   0  0  0  0  0  0  0  0  0  0  0  0
   37.3750   31.6340   38.0700 N   0  0  0  0  0  0  0  0  0  0  0  0
   36.1520   29.5610   38.0210 N   0  0  0  0  0  0  0  0  0  0  0  0
   36.4370   29.2450   36.6690 C   0  0  0  0  0  0  0  0  0  0  0  0
   35.1100   28.7370   36.1410 C   0  0  0  0  0  0  0  0  0  0  0  0
   34.2020   28.6290   37.3300 C   0  0  0  0  0  0  0  0  0  0  0  0
   35.1970   28.5880   38.4890 C   0  0  1  0  0  0  0  0  0  0  0  0
   38.4260   33.4650   38.2770 H   0  0  0  0  0  0  0  0  0  0  0  0
   36.9100   31.7910   41.8570 H   0  0  0  0  0  0  0  0  0  0  0  0
   37.2050   28.6320   36.3290 H   0  0  0  0  0  0  0  0  0  0  0  0
   36.5640   30.2370   36.1300 H   0  0  0  0  0  0  0  0  0  0  0  0
   34.6490   29.3610   35.3780 H   0  0  0  0  0  0  0  0  0  0  0  0
   35.2520   27.7260   35.6660 H   0  0  0  0  0  0  0  0  0  0  0  0
   33.6380   27.6670   37.3120 H   0  0  0  0  0  0  0  0  0  0  0  0
   33.5290   29.4940   37.3780 H   0  0  0  0  0  0  0  0  0  0  0  0
   34.6270   28.8960   39.3830 H   0  0  0  0  0  0  0  0  0  0  0  0
   38.2950   33.8770   40.8290 N   0  0  0  0  0  0  0  0  0  0  0  0
   37.7520   34.1770   41.6620 H   0  0  0  0  0  0  0  0  0  0  0  0
   39.1560   34.3650   40.5300 H   0  0  0  0  0  0  0  0  0  0  0  0
   39.2030   27.0170   39.0090 O   0  0  0  0  0  0  0  0  0  0  0  0
   38.3350   26.8210   39.8740 C   0  0  0  0  0  0  0  0  0  0  0  0
   36.8740   26.5960   39.9890 C   0  0  1  0  0  0  0  0  0  0  0  0
   36.5330   27.3740   41.2360 C   0  0  0  0  0  0  0  0  0  0  0  0
   37.5860   26.7520   42.1610 C   0  0  0  0  0  0  0  0  0  0  0  0
   38.7290   26.7720   41.2590 N   0  0  0  0  0  0  0  0  0  0  0  0
   36.8720   25.5430   40.3880 H   0  0  0  0  0  0  0  0  0  0  0  0
   36.8000   28.4440   41.1540 H   0  0  0  0  0  0  0  0  0  0  0  0
   35.5260   27.1720   41.6170 H   0  0  0  0  0  0  0  0  0  0  0  0
   37.7390   27.4500   42.9970 H   0  0  0  0  0  0  0  0  0  0  0  0
   37.3100   25.7310   42.4700 H   0  0  0  0  0  0  0  0  0  0  0  0
   40.5600   28.0020   42.1070 C   0  0  0  0  0  3  0  0  0  0  0  0
   40.0400   26.7410   41.8670 C   0  0  0  0  0  0  0  0  0  0  0  0
   40.7430   25.6160   42.1930 C   0  0  0  0  0  0  0  0  0  0  0  0
   40.2670   24.6700   41.9730 H   0  0  0  0  0  0  0  0  0  0  0  0
   41.9970   25.7300   42.7750 C   0  0  0  0  0  0  0  0  0  0  0  0
   42.8700   24.7900   43.1800 N   0  0  0  0  0  0  0  0  0  0  0  0
   43.9480   25.4610   43.6800 C   0  0  0  0  0  0  0  0  0  0  0  0
   44.8590   25.0180   44.1030 H   0  0  0  0  0  0  0  0  0  0  0  0
   43.7700   26.7850   43.5960 N   0  0  0  0  0  0  0  0  0  0  0  0
   42.5650   26.9810   43.0380 C   0  0  0  0  0  0  0  0  0  0  0  0
   41.8100   28.1040   42.6870 C   0  0  0  0  0  3  0  0  0  0  0  0
   42.7520   23.7520   43.1260 H   0  0  0  0  0  0  0  0  0  0  0  0
  1 27  1  0  0  0  0
  2  3  1  0  0  0  0
  3  4  2  0  0  0  0
  3 22  1  0  0  0  0
  4 14  1  0  0  0  0
  5  4  1  0  0  0  0
  6  5  2  0  0  0  0
  7  6  1  0  0  0  0
  7  2  2  0  0  0  0
  8 12  1  0  0  0  0
  8  6  1  0  0  0  0
  9  8  1  0  0  0  0
 10  9  1  0  0  0  0
 10 11  1  0  0  0  0
 11 20  1  0  0  0  0
 11 12  1  0  0  0  0
 12  1  1  0  0  0  0
 12 21  1  1  0  0  0
 13  2  1  0  0  0  0
 15  9  1  0  0  0  0
 16  9  1  0  0  0  0
 17 10  1  0  0  0  0
 18 10  1  0  0  0  0
 19 11  1  0  0  0  0
 22 23  1  0  0  0  0
 24 22  1  0  0  0  0
 25 26  2  0  0  0  0
 26 27  1  0  0  0  0
 26 30  1  0  0  0  0
 27 31  1  1  0  0  0
 27 28  1  0  0  0  0
 28 33  1  0  0  0  0
 28 29  1  0  0  0  0
 29 35  1  0  0  0  0
 29 34  1  0  0  0  0
 30 37  1  0  0  0  0
 30 29  1  0  0  0  0
 32 28  1  0  0  0  0
 36 46  1  0  0  0  0
 37 36  2  0  0  0  0
 37 38  1  0  0  0  0
 38 40  2  0  0  0  0
 39 38  1  0  0  0  0
 40 45  1  0  0  0  0
 40 41  1  0  0  0  0
 41 42  1  0  0  0  0
 42 43  1  0  0  0  0
 44 42  2  0  0  0  0
 45 44  1  0  0  0  0
 46 45  2  0  0  0  0
 47 41  1  0  0  0  0
M  END
>  <minimizedAffinity>
-6.03637457

$$$$

 OpenBabel03252506403D

 47 51  0  0  1  0  0  0  0  0999 V2000
   37.0500   30.5500   38.3420 S   0  0  0  0  0  0  0  0  0  0  0  0
   38.0970   27.1540   43.2370 C   0  0  0  0  0  0  0  0  0  0  0  0
   39.3570   26.7450   42.7520 C   0  0  0  0  0  0  0  0  0  0  0  0
   39.6900   27.0120   41.4690 C   0  0  0  0  0  0  0  0  0  0  0  0
   38.7730   27.6700   40.7160 N   0  0  0  0  0  0  0  0  0  0  0  0
   37.5910   28.0520   41.1750 C   0  0  0  0  0  0  0  0  0  0  0  0
   37.2340   27.8030   42.4360 N   0  0  0  0  0  0  0  0  0  0  0  0
   36.6960   28.7410   40.2850 N   0  0  0  0  0  0  0  0  0  0  0  0
   35.5140   29.4050   40.6980 C   0  0  0  0  0  0  0  0  0  0  0  0
   34.5450   29.1310   39.5640 C   0  0  0  0  0  0  0  0  0  0  0  0
   35.3450   28.4690   38.4820 C   0  0  0  0  0  0  0  0  0  0  0  0
   36.7730   28.8690   38.8510 C   0  0  1  0  0  0  0  0  0  0  0  0
   37.8540   26.9280   44.2660 H   0  0  0  0  0  0  0  0  0  0  0  0
   40.6350   26.7140   41.0830 H   0  0  0  0  0  0  0  0  0  0  0  0
   35.4370   30.4000   40.9890 H   0  0  0  0  0  0  0  0  0  0  0  0
   35.0860   28.7930   41.5540 H   0  0  0  0  0  0  0  0  0  0  0  0
   33.6920   28.5080   39.8280 H   0  0  0  0  0  0  0  0  0  0  0  0
   34.1120   30.1010   39.1910 H   0  0  0  0  0  0  0  0  0  0  0  0
   35.1020   28.9070   37.4850 H   0  0  0  0  0  0  0  0  0  0  0  0
   35.1900   27.3840   38.5000 H   0  0  0  0  0  0  0  0  0  0  0  0
   37.4280   28.1290   38.3590 H   0  0  0  0  0  0  0  0  0  0  0  0
   40.2190   26.0560   43.6760 N   0  0  0  0  0  0  0  0  0  0  0  0
   40.8240   25.3500   43.2150 H   0  0  0  0  0  0  0  0  0  0  0  0
   40.2500   26.2270   44.6950 H   0  0  0  0  0  0  0  0  0  0  0  0
   40.2360   30.9580   37.4450 O   0  0  0  0  0  0  0  0  0  0  0  0
   39.6450   31.4880   38.4000 C   0  0  0  0  0  0  0  0  0  0  0  0
   38.3520   31.4120   39.1210 C   0  0  1  0  0  0  0  0  0  0  0  0
   38.0780   32.8640   39.4270 C   0  0  0  0  0  0  0  0  0  0  0  0
   39.4230   33.1950   40.0830 C   0  0  0  0  0  0  0  0  0  0  0  0
   40.3120   32.5280   39.1410 N   0  0  0  0  0  0  0  0  0  0  0  0
   38.7120   31.0480   40.1240 H   0  0  0  0  0  0  0  0  0  0  0  0
   38.0270   33.4880   38.5140 H   0  0  0  0  0  0  0  0  0  0  0  0
   37.2600   33.0150   40.1390 H   0  0  0  0  0  0  0  0  0  0  0  0
   39.5510   34.2850   40.0330 H   0  0  0  0  0  0  0  0  0  0  0  0
   39.4980   32.7780   41.1000 H   0  0  0  0  0  0  0  0  0  0  0  0
   42.1580   33.4080   40.3250 C   0  0  0  0  0  3  0  0  0  0  0  0
   41.6790   32.9950   39.0920 C   0  0  0  0  0  0  0  0  0  0  0  0
   42.4660   33.0460   37.9770 C   0  0  0  0  0  0  0  0  0  0  0  0
   42.0180   32.7050   37.0550 H   0  0  0  0  0  0  0  0  0  0  0  0
   43.7680   33.5180   38.0730 C   0  0  0  0  0  0  0  0  0  0  0  0
   44.7230   33.6640   37.1370 N   0  0  0  0  0  0  0  0  0  0  0  0
   45.8130   34.1720   37.7820 C   0  0  0  0  0  0  0  0  0  0  0  0
   46.7840   34.4210   37.3340 H   0  0  0  0  0  0  0  0  0  0  0  0
   45.5620   34.3460   39.0850 N   0  0  0  0  0  0  0  0  0  0  0  0
   44.2980   33.9460   39.2940 C   0  0  0  0  0  0  0  0  0  0  0  0
   43.4560   33.8760   40.4070 C   0  0  0  0  0  3  0  0  0  0  0  0
   44.6510   33.4340   36.1190 H   0  0  0  0  0  0  0  0  0  0  0  0
  1 12  1  0  0  0  0
  1 27  1  0  0  0  0
  2 13  1  0  0  0  0
  3  2  1  0  0  0  0
  3 22  1  0  0  0  0
  4  3  2  0  0  0  0
  5  6  2  0  0  0  0
  5  4  1  0  0  0  0
  6  7  1  0  0  0  0
  7  2  2  0  0  0  0
  8  9  1  0  0  0  0
  8  6  1  0  0  0  0
  9 15  1  0  0  0  0
  9 16  1  0  0  0  0
 10 17  1  0  0  0  0
 10  9  1  0  0  0  0
 11 20  1  0  0  0  0
 11 12  1  0  0  0  0
 11 10  1  0  0  0  0
 12 21  1  6  0  0  0
 12  8  1  0  0  0  0
 14  4  1  0  0  0  0
 18 10  1  0  0  0  0
 19 11  1  0  0  0  0
 22 24  1  0  0  0  0
 23 22  1  0  0  0  0
 25 26  2  0  0  0  0
 26 27  1  0  0  0  0
 26 30  1  0  0  0  0
 27 28  1  0  0  0  0
 27 31  1  1  0  0  0
 28 29  1  0  0  0  0
 28 33  1  0  0  0  0
 29 35  1  0  0  0  0
 30 29  1  0  0  0  0
 32 28  1  0  0  0  0
 34 29  1  0  0  0  0
 36 46  1  0  0  0  0
 37 30  1  0  0  0  0
 37 36  2  0  0  0  0
 38 40  2  0  0  0  0
 38 37  1  0  0  0  0
 39 38  1  0  0  0  0
 40 45  1  0  0  0  0
 41 42  1  0  0  0  0
 41 40  1  0  0  0  0
 42 44  2  0  0  0  0
 43 42  1  0  0  0  0
 44 45  1  0  0  0  0
 45 46  2  0  0  0  0
 47 41  1  0  0  0  0
M  END
>  <minimizedAffinity>
-6.03363848

$$$$

 OpenBabel03252506403D

 47 51  0  0  1  0  0  0  0  0999 V2000
   36.7820   30.5640   38.1660 S   0  0  0  0  0  0  0  0  0  0  0  0
   37.4760   26.8400   42.8820 C   0  0  0  0  0  0  0  0  0  0  0  0
   38.8110   26.5530   42.5300 C   0  0  0  0  0  0  0  0  0  0  0  0
   39.2750   26.9480   41.3230 C   0  0  0  0  0  0  0  0  0  0  0  0
   38.4110   27.6070   40.5120 N   0  0  0  0  0  0  0  0  0  0  0  0
   37.1580   27.8760   40.8470 C   0  0  0  0  0  0  0  0  0  0  0  0
   36.6700   27.4990   42.0310 N   0  0  0  0  0  0  0  0  0  0  0  0
   36.3280   28.5800   39.9060 N   0  0  0  0  0  0  0  0  0  0  0  0
   35.0600   29.1310   40.2160 C   0  0  0  0  0  0  0  0  0  0  0  0
   34.2570   28.8940   38.9520 C   0  0  0  0  0  0  0  0  0  0  0  0
   35.2280   28.3760   37.9320 C   0  0  0  0  0  0  0  0  0  0  0  0
   36.5680   28.8320   38.5080 C   0  0  1  0  0  0  0  0  0  0  0  0
   37.1270   26.5140   43.8520 H   0  0  0  0  0  0  0  0  0  0  0  0
   40.2790   26.7420   41.0370 H   0  0  0  0  0  0  0  0  0  0  0  0
   34.8760   30.0910   40.5700 H   0  0  0  0  0  0  0  0  0  0  0  0
   34.5780   28.4230   40.9630 H   0  0  0  0  0  0  0  0  0  0  0  0
   33.4260   28.1980   39.0590 H   0  0  0  0  0  0  0  0  0  0  0  0
   33.8030   29.8630   38.6020 H   0  0  0  0  0  0  0  0  0  0  0  0
   35.0740   28.8800   36.9490 H   0  0  0  0  0  0  0  0  0  0  0  0
   35.1500   27.2850   37.8480 H   0  0  0  0  0  0  0  0  0  0  0  0
   37.3290   28.1790   38.0460 H   0  0  0  0  0  0  0  0  0  0  0  0
   39.6020   25.8450   43.5000 N   0  0  0  0  0  0  0  0  0  0  0  0
   40.3090   25.2190   43.0670 H   0  0  0  0  0  0  0  0  0  0  0  0
   39.4990   25.9310   44.5250 H   0  0  0  0  0  0  0  0  0  0  0  0
   40.0160   30.5340   38.9750 O   0  0  0  0  0  0  0  0  0  0  0  0
   39.1420   31.3160   39.3820 C   0  0  0  0  0  0  0  0  0  0  0  0
   37.6720   31.5010   39.3380 C   0  0  1  0  0  0  0  0  0  0  0  0
   37.5480   32.9980   39.2010 C   0  0  0  0  0  0  0  0  0  0  0  0
   38.4390   33.3890   40.3850 C   0  0  0  0  0  0  0  0  0  0  0  0
   39.5390   32.4580   40.1650 N   0  0  0  0  0  0  0  0  0  0  0  0
   37.4280   31.3660   40.4290 H   0  0  0  0  0  0  0  0  0  0  0  0
   38.0590   33.3860   38.2990 H   0  0  0  0  0  0  0  0  0  0  0  0
   36.5290   33.3700   39.3540 H   0  0  0  0  0  0  0  0  0  0  0  0
   38.7690   34.4240   40.2180 H   0  0  0  0  0  0  0  0  0  0  0  0
   37.9350   33.2260   41.3510 H   0  0  0  0  0  0  0  0  0  0  0  0
   41.4010   33.9130   40.1470 C   0  0  0  0  0  3  0  0  0  0  0  0
   40.8160   32.8090   40.7450 C   0  0  0  0  0  0  0  0  0  0  0  0
   41.4310   32.1570   41.7750 C   0  0  0  0  0  0  0  0  0  0  0  0
   40.9080   31.3050   42.1870 H   0  0  0  0  0  0  0  0  0  0  0  0
   42.6620   32.6020   42.2360 C   0  0  0  0  0  0  0  0  0  0  0  0
   43.4550   32.1390   43.2190 N   0  0  0  0  0  0  0  0  0  0  0  0
   44.5480   32.9550   43.2430 C   0  0  0  0  0  0  0  0  0  0  0  0
   45.4100   32.8800   43.9190 H   0  0  0  0  0  0  0  0  0  0  0  0
   44.4570   33.9070   42.3060 N   0  0  0  0  0  0  0  0  0  0  0  0
   43.2930   33.7120   41.6660 C   0  0  0  0  0  0  0  0  0  0  0  0
   42.6270   34.3470   40.6140 C   0  0  0  0  0  3  0  0  0  0  0  0
   43.2750   31.3190   43.8430 H   0  0  0  0  0  0  0  0  0  0  0  0
  1 12  1  0  0  0  0
  1 27  1  0  0  0  0
  2 13  1  0  0  0  0
  3  2  1  0  0  0  0
  3 22  1  0  0  0  0
  4  3  2  0  0  0  0
  5  6  2  0  0  0  0
  5  4  1  0  0  0  0
  6  7  1  0  0  0  0
  7  2  2  0  0  0  0
  8  9  1  0  0  0  0
  8  6  1  0  0  0  0
  9 15  1  0  0  0  0
  9 16  1  0  0  0  0
 10 17  1  0  0  0  0
 10  9  1  0  0  0  0
 11 12  1  0  0  0  0
 11 10  1  0  0  0  0
 12 21  1  6  0  0  0
 12  8  1  0  0  0  0
 14  4  1  0  0  0  0
 18 10  1  0  0  0  0
 19 11  1  0  0  0  0
 20 11  1  0  0  0  0
 22 24  1  0  0  0  0
 23 22  1  0  0  0  0
 25 26  2  0  0  0  0
 26 30  1  0  0  0  0
 27 26  1  0  0  0  0
 27 31  1  1  0  0  0
 28 27  1  0  0  0  0
 28 33  1  0  0  0  0
 28 29  1  0  0  0  0
 29 35  1  0  0  0  0
 30 29  1  0  0  0  0
 30 37  1  0  0  0  0
 32 28  1  0  0  0  0
 34 29  1  0  0  0  0
 36 46  2  0  0  0  0
 36 37  1  0  0  0  0
 37 38  2  0  0  0  0
 38 39  1  0  0  0  0
 38 40  1  0  0  0  0
 40 41  1  0  0  0  0
 41 42  1  0  0  0  0
 41 47  1  0  0  0  0
 42 43  1  0  0  0  0
 44 42  2  0  0  0  0
 45 40  2  0  0  0  0
 45 44  1  0  0  0  0
 46 45  1  0  0  0  0
M  END
>  <minimizedAffinity>
-6.02436876

$$$$

 OpenBabel03252506403D

 47 51  0  0  1  0  0  0  0  0999 V2000
   37.5350   25.9500   40.1520 S   0  0  0  0  0  0  0  0  0  0  0  0
   37.4210   31.7130   38.3150 C   0  0  0  0  0  0  0  0  0  0  0  0
   36.9580   32.1610   39.5700 C   0  0  0  0  0  0  0  0  0  0  0  0
   36.5330   31.2550   40.4800 C   0  0  0  0  0  0  0  0  0  0  0  0
   36.5810   29.9490   40.1210 N   0  0  0  0  0  0  0  0  0  0  0  0
   37.0160   29.5310   38.9420 C   0  0  0  0  0  0  0  0  0  0  0  0
   37.4410   30.4000   38.0230 N   0  0  0  0  0  0  0  0  0  0  0  0
   37.0190   28.1190   38.6680 N   0  0  0  0  0  0  0  0  0  0  0  0
   37.6650   27.5230   37.5570 C   0  0  0  0  0  0  0  0  0  0  0  0
   36.7230   26.4010   37.1650 C   0  0  0  0  0  0  0  0  0  0  0  0
   35.6780   26.3390   38.2400 C   0  0  0  0  0  0  0  0  0  0  0  0
   36.3680   27.0600   39.3970 C   0  0  1  0  0  0  0  0  0  0  0  0
   37.7550   32.4560   37.6040 H   0  0  0  0  0  0  0  0  0  0  0  0
   36.1810   31.5720   41.4330 H   0  0  0  0  0  0  0  0  0  0  0  0
   38.6460   27.1800   37.5270 H   0  0  0  0  0  0  0  0  0  0  0  0
   37.5620   28.2570   36.6960 H   0  0  0  0  0  0  0  0  0  0  0  0
   36.2480   26.5190   36.1930 H   0  0  0  0  0  0  0  0  0  0  0  0
   37.2890   25.4290   37.1140 H   0  0  0  0  0  0  0  0  0  0  0  0
   35.4850   25.2840   38.5440 H   0  0  0  0  0  0  0  0  0  0  0  0
   34.7610   26.8430   37.9120 H   0  0  0  0  0  0  0  0  0  0  0  0
   35.5570   27.3940   40.0680 H   0  0  0  0  0  0  0  0  0  0  0  0
   36.9700   33.5810   39.7990 N   0  0  0  0  0  0  0  0  0  0  0  0
   36.1990   33.8980   40.4180 H   0  0  0  0  0  0  0  0  0  0  0  0
   37.6610   34.2390   39.4010 H   0  0  0  0  0  0  0  0  0  0  0  0
   40.1160   28.0510   39.9440 O   0  0  0  0  0  0  0  0  0  0  0  0
   39.5790   27.6130   40.9730 C   0  0  0  0  0  0  0  0  0  0  0  0
   38.5710   26.6090   41.3920 C   0  0  1  0  0  0  0  0  0  0  0  0
   37.8630   27.3250   42.5150 C   0  0  0  0  0  0  0  0  0  0  0  0
   39.1030   27.7060   43.3320 C   0  0  0  0  0  0  0  0  0  0  0  0
   39.9630   28.1630   42.2480 N   0  0  0  0  0  0  0  0  0  0  0  0
   39.2300   25.9040   41.9710 H   0  0  0  0  0  0  0  0  0  0  0  0
   37.4110   28.2820   42.1910 H   0  0  0  0  0  0  0  0  0  0  0  0
   37.2060   26.6760   43.1040 H   0  0  0  0  0  0  0  0  0  0  0  0
   38.8200   28.5460   43.9830 H   0  0  0  0  0  0  0  0  0  0  0  0
   39.5240   26.8410   43.8680 H   0  0  0  0  0  0  0  0  0  0  0  0
   42.0670   28.4470   43.2860 C   0  0  0  0  0  3  0  0  0  0  0  0
   41.0340   29.0670   42.6030 C   0  0  0  0  0  0  0  0  0  0  0  0
   41.0780   30.4030   42.3200 C   0  0  0  0  0  0  0  0  0  0  0  0
   40.2320   30.8090   41.7840 H   0  0  0  0  0  0  0  0  0  0  0  0
   42.1710   31.1570   42.7200 C   0  0  0  0  0  0  0  0  0  0  0  0
   42.4440   32.4650   42.5650 N   0  0  0  0  0  0  0  0  0  0  0  0
   43.6580   32.6730   43.1520 C   0  0  0  0  0  0  0  0  0  0  0  0
   44.2010   33.6250   43.2190 H   0  0  0  0  0  0  0  0  0  0  0  0
   44.1430   31.5370   43.6670 N   0  0  0  0  0  0  0  0  0  0  0  0
   43.2400   30.5780   43.4120 C   0  0  0  0  0  0  0  0  0  0  0  0
   43.1510   29.2090   43.6800 C   0  0  0  0  0  3  0  0  0  0  0  0
   41.8510   33.1830   42.0880 H   0  0  0  0  0  0  0  0  0  0  0  0
  1 27  1  0  0  0  0
  2  3  1  0  0  0  0
  3 22  1  0  0  0  0
  3  4  2  0  0  0  0
  4 14  1  0  0  0  0
  5  4  1  0  0  0  0
  6  5  2  0  0  0  0
  7  2  2  0  0  0  0
  7  6  1  0  0  0  0
  8  6  1  0  0  0  0
  8 12  1  0  0  0  0
  9  8  1  0  0  0  0
 10  9  1  0  0  0  0
 10 11  1  0  0  0  0
 11 19  1  0  0  0  0
 11 12  1  0  0  0  0
 12 21  1  1  0  0  0
 12  1  1  0  0  0  0
 13  2  1  0  0  0  0
 15  9  1  0  0  0  0
 16  9  1  0  0  0  0
 17 10  1  0  0  0  0
 18 10  1  0  0  0  0
 20 11  1  0  0  0  0
 22 23  1  0  0  0  0
 24 22  1  0  0  0  0
 25 26  2  0  0  0  0
 26 27  1  0  0  0  0
 26 30  1  0  0  0  0
 27 31  1  1  0  0  0
 27 28  1  0  0  0  0
 28 33  1  0  0  0  0
 28 29  1  0  0  0  0
 29 35  1  0  0  0  0
 29 34  1  0  0  0  0
 30 37  1  0  0  0  0
 30 29  1  0  0  0  0
 32 28  1  0  0  0  0
 36 46  1  0  0  0  0
 37 36  2  0  0  0  0
 38 37  1  0  0  0  0
 38 40  2  0  0  0  0
 39 38  1  0  0  0  0
 40 45  1  0  0  0  0
 41 40  1  0  0  0  0
 41 42  1  0  0  0  0
 42 43  1  0  0  0  0
 42 44  2  0  0  0  0
 45 44  1  0  0  0  0
 45 46  2  0  0  0  0
 47 41  1  0  0  0  0
M  END
>  <minimizedAffinity>
-5.86332512

$$$$

 OpenBabel03252506403D

 47 51  0  0  1  0  0  0  0  0999 V2000
   36.4620   30.9570   41.0540 S   0  0  0  0  0  0  0  0  0  0  0  0
   41.1320   29.6160   37.4490 C   0  0  0  0  0  0  0  0  0  0  0  0
   41.7930   28.9090   38.4750 C   0  0  0  0  0  0  0  0  0  0  0  0
   41.3340   29.0040   39.7440 C   0  0  0  0  0  0  0  0  0  0  0  0
   40.2470   29.7870   39.9520 N   0  0  0  0  0  0  0  0  0  0  0  0
   39.6280   30.4490   38.9860 C   0  0  0  0  0  0  0  0  0  0  0  0
   40.0570   30.3760   37.7240 N   0  0  0  0  0  0  0  0  0  0  0  0
   38.4850   31.2530   39.3230 N   0  0  0  0  0  0  0  0  0  0  0  0
   37.5990   31.8190   38.3730 C   0  0  0  0  0  0  0  0  0  0  0  0
   37.2470   33.1630   38.9800 C   0  0  0  0  0  0  0  0  0  0  0  0
   37.8380   33.1660   40.3590 C   0  0  0  0  0  0  0  0  0  0  0  0
   38.0330   31.6740   40.6250 C   0  0  1  0  0  0  0  0  0  0  0  0
   41.5170   29.5250   36.4430 H   0  0  0  0  0  0  0  0  0  0  0  0
   41.8170   28.4790   40.5330 H   0  0  0  0  0  0  0  0  0  0  0  0
   36.7400   31.3750   37.9910 H   0  0  0  0  0  0  0  0  0  0  0  0
   38.2330   32.1030   37.4740 H   0  0  0  0  0  0  0  0  0  0  0  0
   37.6030   34.0270   38.4220 H   0  0  0  0  0  0  0  0  0  0  0  0
   36.1280   33.2750   39.0360 H   0  0  0  0  0  0  0  0  0  0  0  0
   37.1090   33.5660   41.1020 H   0  0  0  0  0  0  0  0  0  0  0  0
   38.7810   33.7260   40.3700 H   0  0  0  0  0  0  0  0  0  0  0  0
   38.7960   31.6090   41.4200 H   0  0  0  0  0  0  0  0  0  0  0  0
   42.9330   28.1210   38.0930 N   0  0  0  0  0  0  0  0  0  0  0  0
   43.6580   28.0710   38.8340 H   0  0  0  0  0  0  0  0  0  0  0  0
   43.0450   27.6440   37.1820 H   0  0  0  0  0  0  0  0  0  0  0  0
   37.0280   28.1560   39.3350 O   0  0  0  0  0  0  0  0  0  0  0  0
   36.8600   28.2710   40.5590 C   0  0  0  0  0  0  0  0  0  0  0  0
   36.4640   29.2870   41.5630 C   0  0  1  0  0  0  0  0  0  0  0  0
   37.3790   28.9620   42.7170 C   0  0  0  0  0  0  0  0  0  0  0  0
   37.0590   27.4670   42.8200 C   0  0  0  0  0  0  0  0  0  0  0  0
   37.0860   27.1250   41.4030 N   0  0  0  0  0  0  0  0  0  0  0  0
   35.4980   28.8360   41.9230 H   0  0  0  0  0  0  0  0  0  0  0  0
   38.4490   29.0230   42.4400 H   0  0  0  0  0  0  0  0  0  0  0  0
   37.1100   29.4730   43.6480 H   0  0  0  0  0  0  0  0  0  0  0  0
   37.8960   26.9890   43.3490 H   0  0  0  0  0  0  0  0  0  0  0  0
   36.0740   27.2870   43.2780 H   0  0  0  0  0  0  0  0  0  0  0  0
   38.4130   25.1990   41.7400 C   0  0  0  0  0  3  0  0  0  0  0  0
   37.3270   25.7400   41.0710 C   0  0  0  0  0  0  0  0  0  0  0  0
   36.5940   24.9890   40.1960 C   0  0  0  0  0  0  0  0  0  0  0  0
   35.7620   25.4850   39.7160 H   0  0  0  0  0  0  0  0  0  0  0  0
   36.9360   23.6640   39.9690 C   0  0  0  0  0  0  0  0  0  0  0  0
   36.3820   22.7350   39.1700 N   0  0  0  0  0  0  0  0  0  0  0  0
   37.1220   21.6010   39.3340 C   0  0  0  0  0  0  0  0  0  0  0  0
   36.9610   20.6340   38.8390 H   0  0  0  0  0  0  0  0  0  0  0  0
   38.1160   21.7980   40.2090 N   0  0  0  0  0  0  0  0  0  0  0  0
   38.0230   23.0730   40.6200 C   0  0  0  0  0  0  0  0  0  0  0  0
   38.7450   23.8780   41.5050 C   0  0  0  0  0  3  0  0  0  0  0  0
   35.5500   22.8520   38.5460 H   0  0  0  0  0  0  0  0  0  0  0  0
  1 27  1  0  0  0  0
  2  7  2  0  0  0  0
  2  3  1  0  0  0  0
  3  4  2  0  0  0  0
  4  5  1  0  0  0  0
  4 14  1  0  0  0  0
  6  8  1  0  0  0  0
  6  5  2  0  0  0  0
  7  6  1  0  0  0  0
  8 12  1  0  0  0  0
  9 10  1  0  0  0  0
  9  8  1  0  0  0  0
 10 18  1  0  0  0  0
 10 11  1  0  0  0  0
 11 20  1  0  0  0  0
 11 12  1  0  0  0  0
 11 19  1  0  0  0  0
 12  1  1  0  0  0  0
 12 21  1  1  0  0  0
 13  2  1  0  0  0  0
 15  9  1  0  0  0  0
 16  9  1  0  0  0  0
 17 10  1  0  0  0  0
 22  3  1  0  0  0  0
 22 23  1  0  0  0  0
 24 22  1  0  0  0  0
 25 26  2  0  0  0  0
 26 30  1  0  0  0  0
 26 27  1  0  0  0  0
 27 31  1  1  0  0  0
 27 28  1  0  0  0  0
 28 29  1  0  0  0  0
 28 33  1  0  0  0  0
 29 35  1  0  0  0  0
 29 34  1  0  0  0  0
 30 29  1  0  0  0  0
 32 28  1  0  0  0  0
 37 30  1  0  0  0  0
 37 36  2  0  0  0  0
 38 37  1  0  0  0  0
 39 38  1  0  0  0  0
 40 38  2  0  0  0  0
 40 45  1  0  0  0  0
 41 42  1  0  0  0  0
 41 40  1  0  0  0  0
 42 44  2  0  0  0  0
 43 42  1  0  0  0  0
 44 45  1  0  0  0  0
 45 46  2  0  0  0  0
 46 36  1  0  0  0  0
 47 41  1  0  0  0  0
M  END
>  <minimizedAffinity>
-5.80633211

$$$$

 OpenBabel03252506403D

 47 51  0  0  1  0  0  0  0  0999 V2000
   39.4740   32.2020   40.8660 S   0  0  0  0  0  0  0  0  0  0  0  0
   42.8150   30.4150   36.1500 C   0  0  0  0  0  0  0  0  0  0  0  0
   42.7940   29.0700   36.5740 C   0  0  0  0  0  0  0  0  0  0  0  0
   42.3340   28.7740   37.8110 C   0  0  0  0  0  0  0  0  0  0  0  0
   41.9130   29.8090   38.5790 N   0  0  0  0  0  0  0  0  0  0  0  0
   41.9340   31.0710   38.1770 C   0  0  0  0  0  0  0  0  0  0  0  0
   42.3830   31.3950   36.9630 N   0  0  0  0  0  0  0  0  0  0  0  0
   41.4650   32.0900   39.0780 N   0  0  0  0  0  0  0  0  0  0  0  0
   41.2140   33.4330   38.7040 C   0  0  0  0  0  0  0  0  0  0  0  0
   41.6630   34.2240   39.9170 C   0  0  0  0  0  0  0  0  0  0  0  0
   41.9680   33.2140   40.9840 C   0  0  0  0  0  0  0  0  0  0  0  0
   41.2000   31.9880   40.4910 C   0  0  1  0  0  0  0  0  0  0  0  0
   43.1890   30.6270   35.1580 H   0  0  0  0  0  0  0  0  0  0  0  0
   42.3080   27.7660   38.1500 H   0  0  0  0  0  0  0  0  0  0  0  0
   40.3140   33.8160   38.3520 H   0  0  0  0  0  0  0  0  0  0  0  0
   41.9960   33.6970   37.9220 H   0  0  0  0  0  0  0  0  0  0  0  0
   42.5290   34.8630   39.7540 H   0  0  0  0  0  0  0  0  0  0  0  0
   40.8350   34.9090   40.2530 H   0  0  0  0  0  0  0  0  0  0  0  0
   41.5380   33.5310   41.9630 H   0  0  0  0  0  0  0  0  0  0  0  0
   43.0480   33.0400   41.0500 H   0  0  0  0  0  0  0  0  0  0  0  0
   41.6700   31.1210   40.9860 H   0  0  0  0  0  0  0  0  0  0  0  0
   43.2750   28.0860   35.6420 N   0  0  0  0  0  0  0  0  0  0  0  0
   43.7310   27.2770   36.1060 H   0  0  0  0  0  0  0  0  0  0  0  0
   43.1900   28.1530   34.6140 H   0  0  0  0  0  0  0  0  0  0  0  0
   38.5800   29.4300   39.2430 O   0  0  0  0  0  0  0  0  0  0  0  0
   38.4520   29.6720   40.4530 C   0  0  0  0  0  0  0  0  0  0  0  0
   38.6000   30.7930   41.4120 C   0  0  1  0  0  0  0  0  0  0  0  0
   39.1780   30.0990   42.6200 C   0  0  0  0  0  0  0  0  0  0  0  0
   38.1310   28.9850   42.7390 C   0  0  0  0  0  0  0  0  0  0  0  0
   38.0280   28.6130   41.3340 N   0  0  0  0  0  0  0  0  0  0  0  0
   37.5270   30.9180   41.7300 H   0  0  0  0  0  0  0  0  0  0  0  0
   40.1350   29.5900   42.4010 H   0  0  0  0  0  0  0  0  0  0  0  0
   39.1770   30.7190   43.5240 H   0  0  0  0  0  0  0  0  0  0  0  0
   38.5840   28.1720   43.3230 H   0  0  0  0  0  0  0  0  0  0  0  0
   37.1780   29.3580   43.1470 H   0  0  0  0  0  0  0  0  0  0  0  0
   37.6830   26.4060   42.1060 C   0  0  0  0  0  3  0  0  0  0  0  0
   37.5340   27.2860   41.0460 C   0  0  0  0  0  0  0  0  0  0  0  0
   36.9680   26.8820   39.8690 C   0  0  0  0  0  0  0  0  0  0  0  0
   36.8880   27.6290   39.0930 H   0  0  0  0  0  0  0  0  0  0  0  0
   36.5340   25.5720   39.7270 C   0  0  0  0  0  0  0  0  0  0  0  0
   35.9560   24.9430   38.6880 N   0  0  0  0  0  0  0  0  0  0  0  0
   35.7390   23.6590   39.0930 C   0  0  0  0  0  0  0  0  0  0  0  0
   35.2800   22.8530   38.5040 H   0  0  0  0  0  0  0  0  0  0  0  0
   36.1640   23.4730   40.3480 N   0  0  0  0  0  0  0  0  0  0  0  0
   36.6620   24.6460   40.7670 C   0  0  0  0  0  0  0  0  0  0  0  0
   37.2470   25.1040   41.9520 C   0  0  0  0  0  3  0  0  0  0  0  0
   35.7180   25.3520   37.7550 H   0  0  0  0  0  0  0  0  0  0  0  0
  1 27  1  0  0  0  0
  2  3  2  0  0  0  0
  2  7  1  0  0  0  0
  3  4  1  0  0  0  0
  4 14  1  0  0  0  0
  4  5  2  0  0  0  0
  6  5  1  0  0  0  0
  6  8  1  0  0  0  0
  7  6  2  0  0  0  0
  8 12  1  0  0  0  0
  9  8  1  0  0  0  0
  9 10  1  0  0  0  0
 10 18  1  0  0  0  0
 10 11  1  0  0  0  0
 11 20  1  0  0  0  0
 11 19  1  0  0  0  0
 12  1  1  0  0  0  0
 12 11  1  0  0  0  0
 12 21  1  1  0  0  0
 13  2  1  0  0  0  0
 15  9  1  0  0  0  0
 16  9  1  0  0  0  0
 17 10  1  0  0  0  0
 22 23  1  0  0  0  0
 22  3  1  0  0  0  0
 24 22  1  0  0  0  0
 25 26  2  0  0  0  0
 26 30  1  0  0  0  0
 26 27  1  0  0  0  0
 27 31  1  1  0  0  0
 27 28  1  0  0  0  0
 28 29  1  0  0  0  0
 28 33  1  0  0  0  0
 29 35  1  0  0  0  0
 29 34  1  0  0  0  0
 30 29  1  0  0  0  0
 32 28  1  0  0  0  0
 37 30  1  0  0  0  0
 37 36  2  0  0  0  0
 38 37  1  0  0  0  0
 39 38  1  0  0  0  0
 40 38  2  0  0  0  0
 40 45  1  0  0  0  0
 41 42  1  0  0  0  0
 41 40  1  0  0  0  0
 42 44  2  0  0  0  0
 43 42  1  0  0  0  0
 44 45  1  0  0  0  0
 45 46  2  0  0  0  0
 46 36  1  0  0  0  0
 47 41  1  0  0  0  0
M  END
>  <minimizedAffinity>
-5.8054266

$$$$
