
 OpenBabel03252501493D

 36 39  0  0  0  0  0  0  0  0999 V2000
   33.8900   29.2500   35.7190 C   0  0  0  0  0  0  0  0  0  0  0  0
   33.3910   29.1280   37.0440 C   0  0  0  0  0  0  0  0  0  0  0  0
   32.0710   29.4950   37.3050 C   0  0  0  0  0  0  0  0  0  0  0  0
   31.3210   29.9560   36.2660 N   0  0  0  0  0  0  0  0  0  0  0  0
   31.8270   30.0590   35.0270 C   0  0  0  0  0  0  0  0  0  0  0  0
   33.0980   29.7100   34.7550 N   0  0  0  0  0  0  0  0  0  0  0  0
   34.9190   28.9510   35.5810 H   0  0  0  0  0  0  0  0  0  0  0  0
   31.6700   29.4120   38.2920 H   0  0  0  0  0  0  0  0  0  0  0  0
   31.2490   32.7560   34.7900 F   0  0  0  0  0  0  0  0  0  0  0  0
   30.6990   31.9310   33.8690 C   0  0  0  0  0  0  0  0  0  0  0  0
   30.9700   30.5620   33.9590 C   0  0  0  0  0  0  0  0  0  0  0  0
   30.4450   29.6560   33.0580 C   0  0  0  0  0  0  0  0  0  0  0  0
   29.6250   30.1640   32.0430 C   0  0  0  0  0  0  0  0  0  0  0  0
   29.3380   31.5300   31.9300 C   0  0  0  0  0  0  0  0  0  0  0  0
   29.8860   32.4060   32.8580 C   0  0  0  0  0  0  0  0  0  0  0  0
   30.6550   28.6020   33.1290 H   0  0  0  0  0  0  0  0  0  0  0  0
   29.2120   29.4600   31.3340 H   0  0  0  0  0  0  0  0  0  0  0  0
   28.7010   31.8550   31.1270 H   0  0  0  0  0  0  0  0  0  0  0  0
   29.6700   33.4700   32.7800 H   0  0  0  0  0  0  0  0  0  0  0  0
   34.2710   28.6200   38.1020 C   0  0  0  0  0  3  0  0  0  0  0  0
   34.4800   29.2130   39.2650 C   0  0  0  0  0  3  0  0  0  0  0  0
   35.4040   28.6090   40.2850 C   0  0  0  0  0  0  0  0  0  0  0  0
   35.7560   27.6660   39.8170 H   0  0  0  0  0  0  0  0  0  0  0  0
   34.8940   28.4060   41.2320 H   0  0  0  0  0  0  0  0  0  0  0  0
   37.7270   29.0970   41.0730 C   0  0  0  0  0  3  0  0  0  0  0  0
   36.5240   29.5410   40.5650 C   0  0  0  0  0  0  0  0  0  0  0  0
   36.2890   30.8850   40.2840 C   0  0  0  0  0  0  0  0  0  0  0  0
   35.3310   31.2040   39.8840 H   0  0  0  0  0  0  0  0  0  0  0  0
   37.2890   31.8290   40.5180 C   0  0  0  0  0  0  0  0  0  0  0  0
   37.3710   33.1630   40.3560 N   0  0  0  0  0  0  0  0  0  0  0  0
   38.5950   33.5670   40.7500 C   0  0  0  0  0  0  0  0  0  0  0  0
   38.7800   34.6230   40.6660 H   0  0  0  0  0  0  0  0  0  0  0  0
   39.2910   32.4700   41.1650 N   0  0  0  0  0  0  0  0  0  0  0  0
   38.5140   31.3920   41.0330 C   0  0  0  0  0  0  0  0  0  0  0  0
   38.7140   30.0380   41.3020 C   0  0  0  0  0  3  0  0  0  0  0  0
   36.5310   33.6840   39.9700 H   0  0  0  0  0  0  0  0  0  0  0  0
  1  2  1  0  0  0  0
  2  3  2  0  0  0  0
  2 20  1  0  0  0  0
  3  8  1  0  0  0  0
  4  3  1  0  0  0  0
  5  4  2  0  0  0  0
  6  5  1  0  0  0  0
  6  1  2  0  0  0  0
  7  1  1  0  0  0  0
 10 11  1  0  0  0  0
 10  9  1  0  0  0  0
 11  5  1  0  0  0  0
 12 16  1  0  0  0  0
 12 11  2  0  0  0  0
 13 12  1  0  0  0  0
 14 13  2  0  0  0  0
 14 15  1  0  0  0  0
 15 10  2  0  0  0  0
 17 13  1  0  0  0  0
 18 14  1  0  0  0  0
 19 15  1  0  0  0  0
 20 21  2  0  0  0  0
 21 22  1  0  0  0  0
 22 26  1  0  0  0  0
 22 24  1  0  0  0  0
 23 22  1  0  0  0  0
 25 35  1  0  0  0  0
 26 25  2  0  0  0  0
 27 29  2  0  0  0  0
 27 26  1  0  0  0  0
 28 27  1  0  0  0  0
 29 34  1  0  0  0  0
 30 29  1  0  0  0  0
 30 31  1  0  0  0  0
 31 33  2  0  0  0  0
 32 31  1  0  0  0  0
 34 33  1  0  0  0  0
 34 35  2  0  0  0  0
 36 30  1  0  0  0  0
M  END
>  <minimizedAffinity>
-6.36097527

$$$$

 OpenBabel03252501493D

 36 39  0  0  0  0  0  0  0  0999 V2000
   37.2600   31.2460   38.2310 C   0  0  0  0  0  0  0  0  0  0  0  0
   36.5050   30.6550   39.2810 C   0  0  0  0  0  0  0  0  0  0  0  0
   36.8400   30.9500   40.6030 C   0  0  0  0  0  0  0  0  0  0  0  0
   37.8840   31.7980   40.8200 N   0  0  0  0  0  0  0  0  0  0  0  0
   38.5740   32.3370   39.8030 C   0  0  0  0  0  0  0  0  0  0  0  0
   38.2670   32.0640   38.5220 N   0  0  0  0  0  0  0  0  0  0  0  0
   36.9530   30.9770   37.2310 H   0  0  0  0  0  0  0  0  0  0  0  0
   36.2890   30.5200   41.4110 H   0  0  0  0  0  0  0  0  0  0  0  0
   38.2240   35.0830   39.8750 F   0  0  0  0  0  0  0  0  0  0  0  0
   39.4680   34.6190   40.1350 C   0  0  0  0  0  0  0  0  0  0  0  0
   39.6810   33.2370   40.1060 C   0  0  0  0  0  0  0  0  0  0  0  0
   40.9230   32.6870   40.3600 C   0  0  0  0  0  0  0  0  0  0  0  0
   41.9690   33.5720   40.6480 C   0  0  0  0  0  0  0  0  0  0  0  0
   41.7830   34.9590   40.6830 C   0  0  0  0  0  0  0  0  0  0  0  0
   40.5190   35.4700   40.4220 C   0  0  0  0  0  0  0  0  0  0  0  0
   41.0840   31.6220   40.3380 H   0  0  0  0  0  0  0  0  0  0  0  0
   42.9430   33.1480   40.8490 H   0  0  0  0  0  0  0  0  0  0  0  0
   42.6280   35.5840   40.9120 H   0  0  0  0  0  0  0  0  0  0  0  0
   40.3620   36.5480   40.4460 H   0  0  0  0  0  0  0  0  0  0  0  0
   35.3970   29.7530   38.9530 C   0  0  0  0  0  3  0  0  0  0  0  0
   35.0870   29.3420   37.7350 C   0  0  0  0  0  3  0  0  0  0  0  0
   33.9280   28.4140   37.5040 C   0  0  0  0  0  0  0  0  0  0  0  0
   33.8320   27.8470   38.4530 H   0  0  0  0  0  0  0  0  0  0  0  0
   34.1070   27.7350   36.6620 H   0  0  0  0  0  0  0  0  0  0  0  0
   32.4120   29.6140   35.9170 C   0  0  0  0  0  3  0  0  0  0  0  0
   32.7070   29.1990   37.1990 C   0  0  0  0  0  0  0  0  0  0  0  0
   31.8780   29.4900   38.2810 C   0  0  0  0  0  0  0  0  0  0  0  0
   32.1370   29.1490   39.2780 H   0  0  0  0  0  0  0  0  0  0  0  0
   30.7080   30.2230   38.0830 C   0  0  0  0  0  0  0  0  0  0  0  0
   29.7270   30.6550   38.8970 N   0  0  0  0  0  0  0  0  0  0  0  0
   28.8260   31.3310   38.1580 C   0  0  0  0  0  0  0  0  0  0  0  0
   27.9870   31.7280   38.7040 H   0  0  0  0  0  0  0  0  0  0  0  0
   29.2470   31.3230   36.8610 N   0  0  0  0  0  0  0  0  0  0  0  0
   30.3980   30.6510   36.7870 C   0  0  0  0  0  0  0  0  0  0  0  0
   31.2510   30.3400   35.7280 C   0  0  0  0  0  3  0  0  0  0  0  0
   29.7840   30.4280   39.9320 H   0  0  0  0  0  0  0  0  0  0  0  0
  1  6  2  0  0  0  0
  1  2  1  0  0  0  0
  2  3  2  0  0  0  0
  3  4  1  0  0  0  0
  3  8  1  0  0  0  0
  5 11  1  0  0  0  0
  5  4  2  0  0  0  0
  6  5  1  0  0  0  0
  7  1  1  0  0  0  0
  9 10  1  0  0  0  0
 10 15  1  0  0  0  0
 11 10  2  0  0  0  0
 11 12  1  0  0  0  0
 12 13  2  0  0  0  0
 13 14  1  0  0  0  0
 13 17  1  0  0  0  0
 14 18  1  0  0  0  0
 15 19  1  0  0  0  0
 15 14  2  0  0  0  0
 16 12  1  0  0  0  0
 20  2  1  0  0  0  0
 21 20  2  0  0  0  0
 22 21  1  0  0  0  0
 22 23  1  0  0  0  0
 24 22  1  0  0  0  0
 25 26  1  0  0  0  0
 26 22  1  0  0  0  0
 26 27  2  0  0  0  0
 27 28  1  0  0  0  0
 29 27  1  0  0  0  0
 29 30  1  0  0  0  0
 30 36  1  0  0  0  0
 31 32  1  0  0  0  0
 31 30  1  0  0  0  0
 33 31  2  0  0  0  0
 34 33  1  0  0  0  0
 34 29  2  0  0  0  0
 35 25  2  0  0  0  0
 35 34  1  0  0  0  0
M  END
>  <minimizedAffinity>
-5.9932375

$$$$

 OpenBabel03252501493D

 36 39  0  0  0  0  0  0  0  0999 V2000
   36.5210   26.8690   39.8370 C   0  0  0  0  0  0  0  0  0  0  0  0
   36.4810   27.7220   40.9740 C   0  0  0  0  0  0  0  0  0  0  0  0
   35.7640   28.9160   40.8970 C   0  0  0  0  0  0  0  0  0  0  0  0
   35.1350   29.2060   39.7250 N   0  0  0  0  0  0  0  0  0  0  0  0
   35.1960   28.3760   38.6710 C   0  0  0  0  0  0  0  0  0  0  0  0
   35.8810   27.2200   38.7260 N   0  0  0  0  0  0  0  0  0  0  0  0
   37.0920   25.9600   39.9590 H   0  0  0  0  0  0  0  0  0  0  0  0
   35.7170   29.5750   41.7370 H   0  0  0  0  0  0  0  0  0  0  0  0
   36.5680   28.8100   36.3060 F   0  0  0  0  0  0  0  0  0  0  0  0
   35.2240   28.9590   36.2680 C   0  0  0  0  0  0  0  0  0  0  0  0
   34.4990   28.7480   37.4450 C   0  0  0  0  0  0  0  0  0  0  0  0
   33.1250   28.8820   37.4860 C   0  0  0  0  0  0  0  0  0  0  0  0
   32.4800   29.2400   36.2970 C   0  0  0  0  0  0  0  0  0  0  0  0
   33.1820   29.4570   35.1050 C   0  0  0  0  0  0  0  0  0  0  0  0
   34.5620   29.3120   35.1070 C   0  0  0  0  0  0  0  0  0  0  0  0
   32.5680   28.7180   38.3940 H   0  0  0  0  0  0  0  0  0  0  0  0
   31.4040   29.3450   36.3220 H   0  0  0  0  0  0  0  0  0  0  0  0
   32.6260   29.7290   34.2250 H   0  0  0  0  0  0  0  0  0  0  0  0
   35.1190   29.4790   34.1860 H   0  0  0  0  0  0  0  0  0  0  0  0
   37.1890   27.3280   42.1960 C   0  0  0  0  0  3  0  0  0  0  0  0
   38.4930   27.4320   42.3850 C   0  0  0  0  0  3  0  0  0  0  0  0
   39.1240   26.9990   43.6780 C   0  0  0  0  0  0  0  0  0  0  0  0
   38.7500   25.9660   43.8370 H   0  0  0  0  0  0  0  0  0  0  0  0
   38.8390   27.6490   44.5120 H   0  0  0  0  0  0  0  0  0  0  0  0
   41.2770   28.2230   43.3300 C   0  0  0  0  0  3  0  0  0  0  0  0
   40.6020   27.0420   43.5570 C   0  0  0  0  0  0  0  0  0  0  0  0
   41.2650   25.8230   43.6870 C   0  0  0  0  0  0  0  0  0  0  0  0
   40.7050   24.9100   43.8660 H   0  0  0  0  0  0  0  0  0  0  0  0
   42.6550   25.7740   43.5870 C   0  0  0  0  0  0  0  0  0  0  0  0
   43.5630   24.7820   43.6640 N   0  0  0  0  0  0  0  0  0  0  0  0
   44.7890   25.3120   43.4910 C   0  0  0  0  0  0  0  0  0  0  0  0
   45.6040   24.6110   43.5320 H   0  0  0  0  0  0  0  0  0  0  0  0
   44.6490   26.6560   43.3020 N   0  0  0  0  0  0  0  0  0  0  0  0
   43.3520   26.9650   43.3570 C   0  0  0  0  0  0  0  0  0  0  0  0
   42.6550   28.1670   43.2320 C   0  0  0  0  0  3  0  0  0  0  0  0
   43.2250   23.7920   43.8380 H   0  0  0  0  0  0  0  0  0  0  0  0
  1  7  1  0  0  0  0
  1  2  1  0  0  0  0
  2 20  1  0  0  0  0
  3  2  2  0  0  0  0
  3  8  1  0  0  0  0
  4  3  1  0  0  0  0
  5  6  1  0  0  0  0
  5  4  2  0  0  0  0
  6  1  2  0  0  0  0
 10  9  1  0  0  0  0
 10 11  1  0  0  0  0
 11 12  2  0  0  0  0
 11  5  1  0  0  0  0
 12 16  1  0  0  0  0
 13 17  1  0  0  0  0
 13 12  1  0  0  0  0
 14 15  1  0  0  0  0
 14 13  2  0  0  0  0
 15 10  2  0  0  0  0
 18 14  1  0  0  0  0
 19 15  1  0  0  0  0
 20 21  2  0  0  0  0
 21 22  1  0  0  0  0
 22 23  1  0  0  0  0
 22 24  1  0  0  0  0
 25 26  1  0  0  0  0
 26 22  1  0  0  0  0
 26 27  2  0  0  0  0
 27 28  1  0  0  0  0
 29 30  1  0  0  0  0
 29 27  1  0  0  0  0
 30 36  1  0  0  0  0
 31 32  1  0  0  0  0
 31 30  1  0  0  0  0
 33 34  1  0  0  0  0
 33 31  2  0  0  0  0
 34 29  2  0  0  0  0
 35 25  2  0  0  0  0
 35 34  1  0  0  0  0
M  END
>  <minimizedAffinity>
-5.98621845

$$$$

 OpenBabel03252501493D

 36 39  0  0  0  0  0  0  0  0999 V2000
   39.9320   29.5960   41.0390 C   0  0  0  0  0  0  0  0  0  0  0  0
   39.0590   30.7150   40.9500 C   0  0  0  0  0  0  0  0  0  0  0  0
   37.6820   30.4950   40.8970 C   0  0  0  0  0  0  0  0  0  0  0  0
   37.2420   29.2060   40.9340 N   0  0  0  0  0  0  0  0  0  0  0  0
   38.0970   28.1740   41.0180 C   0  0  0  0  0  0  0  0  0  0  0  0
   39.4270   28.3660   41.0700 N   0  0  0  0  0  0  0  0  0  0  0  0
   40.9850   29.8310   41.0760 H   0  0  0  0  0  0  0  0  0  0  0  0
   37.0040   31.3170   40.8300 H   0  0  0  0  0  0  0  0  0  0  0  0
   37.9590   26.7360   43.3790 F   0  0  0  0  0  0  0  0  0  0  0  0
   37.5030   26.1220   42.2630 C   0  0  0  0  0  0  0  0  0  0  0  0
   37.5580   26.8200   41.0520 C   0  0  0  0  0  0  0  0  0  0  0  0
   37.1130   26.2600   39.8700 C   0  0  0  0  0  0  0  0  0  0  0  0
   36.6010   24.9590   39.9300 C   0  0  0  0  0  0  0  0  0  0  0  0
   36.5340   24.2380   41.1290 C   0  0  0  0  0  0  0  0  0  0  0  0
   36.9930   24.8370   42.2940 C   0  0  0  0  0  0  0  0  0  0  0  0
   37.1560   26.8000   38.9390 H   0  0  0  0  0  0  0  0  0  0  0  0
   36.2490   24.5150   39.0080 H   0  0  0  0  0  0  0  0  0  0  0  0
   36.1290   23.2420   41.1060 H   0  0  0  0  0  0  0  0  0  0  0  0
   36.9470   24.2870   43.2330 H   0  0  0  0  0  0  0  0  0  0  0  0
   39.6220   32.0680   40.9160 C   0  0  0  0  0  3  0  0  0  0  0  0
   39.3350   32.9880   40.0110 C   0  0  0  0  0  3  0  0  0  0  0  0
   39.9690   34.3490   40.0650 C   0  0  0  0  0  0  0  0  0  0  0  0
   39.7260   34.7280   41.0790 H   0  0  0  0  0  0  0  0  0  0  0  0
   39.5710   35.0180   39.2940 H   0  0  0  0  0  0  0  0  0  0  0  0
   42.3270   34.3100   40.8970 C   0  0  0  0  0  3  0  0  0  0  0  0
   41.4320   34.2330   39.8500 C   0  0  0  0  0  0  0  0  0  0  0  0
   41.8470   34.0400   38.5340 C   0  0  0  0  0  0  0  0  0  0  0  0
   41.1170   33.9840   37.7310 H   0  0  0  0  0  0  0  0  0  0  0  0
   43.2050   33.9210   38.2430 C   0  0  0  0  0  0  0  0  0  0  0  0
   43.9050   33.7340   37.1080 N   0  0  0  0  0  0  0  0  0  0  0  0
   45.2160   33.6930   37.4170 C   0  0  0  0  0  0  0  0  0  0  0  0
   45.8810   33.5470   36.5840 H   0  0  0  0  0  0  0  0  0  0  0  0
   45.3410   33.8560   38.7660 N   0  0  0  0  0  0  0  0  0  0  0  0
   44.1240   33.9980   39.2960 C   0  0  0  0  0  0  0  0  0  0  0  0
   43.6720   34.1900   40.6020 C   0  0  0  0  0  3  0  0  0  0  0  0
   43.3790   33.6500   36.1910 H   0  0  0  0  0  0  0  0  0  0  0  0
  1  6  1  0  0  0  0
  1  7  1  0  0  0  0
  2  1  2  0  0  0  0
  3  4  2  0  0  0  0
  3  2  1  0  0  0  0
  4  5  1  0  0  0  0
  5 11  1  0  0  0  0
  5  6  2  0  0  0  0
  8  3  1  0  0  0  0
 10 15  1  0  0  0  0
 10  9  1  0  0  0  0
 11 10  2  0  0  0  0
 12 13  2  0  0  0  0
 12 11  1  0  0  0  0
 13 14  1  0  0  0  0
 14 15  2  0  0  0  0
 15 19  1  0  0  0  0
 16 12  1  0  0  0  0
 17 13  1  0  0  0  0
 18 14  1  0  0  0  0
 20  2  1  0  0  0  0
 21 22  1  0  0  0  0
 21 20  2  0  0  0  0
 22 23  1  0  0  0  0
 24 22  1  0  0  0  0
 26 22  1  0  0  0  0
 26 25  2  0  0  0  0
 27 26  1  0  0  0  0
 28 27  1  0  0  0  0
 29 27  2  0  0  0  0
 29 34  1  0  0  0  0
 30 31  1  0  0  0  0
 30 29  1  0  0  0  0
 31 33  2  0  0  0  0
 32 31  1  0  0  0  0
 33 34  1  0  0  0  0
 34 35  2  0  0  0  0
 35 25  1  0  0  0  0
 36 30  1  0  0  0  0
M  END
>  <minimizedAffinity>
-5.8137393

$$$$

 OpenBabel03252501493D

 36 39  0  0  0  0  0  0  0  0999 V2000
   38.6160   29.5920   40.3480 C   0  0  0  0  0  0  0  0  0  0  0  0
   38.8730   29.1400   41.6710 C   0  0  0  0  0  0  0  0  0  0  0  0
   39.5340   29.9890   42.5590 C   0  0  0  0  0  0  0  0  0  0  0  0
   39.9040   31.2200   42.1060 N   0  0  0  0  0  0  0  0  0  0  0  0
   39.6450   31.6120   40.8480 C   0  0  0  0  0  0  0  0  0  0  0  0
   39.0080   30.8080   39.9780 N   0  0  0  0  0  0  0  0  0  0  0  0
   38.1020   28.8890   39.7090 H   0  0  0  0  0  0  0  0  0  0  0  0
   39.7390   29.6750   43.5590 H   0  0  0  0  0  0  0  0  0  0  0  0
   42.1740   32.0630   39.8160 F   0  0  0  0  0  0  0  0  0  0  0  0
   41.3540   33.1340   39.9110 C   0  0  0  0  0  0  0  0  0  0  0  0
   40.0680   32.9430   40.4280 C   0  0  0  0  0  0  0  0  0  0  0  0
   39.1740   33.9880   40.5570 C   0  0  0  0  0  0  0  0  0  0  0  0
   39.6050   35.2550   40.1470 C   0  0  0  0  0  0  0  0  0  0  0  0
   40.8860   35.4730   39.6260 C   0  0  0  0  0  0  0  0  0  0  0  0
   41.7540   34.3960   39.5140 C   0  0  0  0  0  0  0  0  0  0  0  0
   38.1840   33.8380   40.9560 H   0  0  0  0  0  0  0  0  0  0  0  0
   38.9090   36.0770   40.2450 H   0  0  0  0  0  0  0  0  0  0  0  0
   41.1540   36.4720   39.3290 H   0  0  0  0  0  0  0  0  0  0  0  0
   42.7530   34.5540   39.1090 H   0  0  0  0  0  0  0  0  0  0  0  0
   38.4390   27.7980   42.0720 C   0  0  0  0  0  3  0  0  0  0  0  0
   37.1840   27.3830   42.0990 C   0  0  0  0  0  3  0  0  0  0  0  0
   36.8430   25.9830   42.5270 C   0  0  0  0  0  0  0  0  0  0  0  0
   35.7880   26.0460   42.8660 H   0  0  0  0  0  0  0  0  0  0  0  0
   37.4910   25.6310   43.3360 H   0  0  0  0  0  0  0  0  0  0  0  0
   36.5660   25.3790   40.1150 C   0  0  0  0  0  3  0  0  0  0  0  0
   37.0040   25.0530   41.3820 C   0  0  0  0  0  0  0  0  0  0  0  0
   37.6220   23.8360   41.6620 C   0  0  0  0  0  0  0  0  0  0  0  0
   37.9560   23.6090   42.6700 H   0  0  0  0  0  0  0  0  0  0  0  0
   37.8130   22.9030   40.6430 C   0  0  0  0  0  0  0  0  0  0  0  0
   38.3610   21.6740   40.5920 N   0  0  0  0  0  0  0  0  0  0  0  0
   38.2770   21.2220   39.3250 C   0  0  0  0  0  0  0  0  0  0  0  0
   38.6860   20.2410   39.1590 H   0  0  0  0  0  0  0  0  0  0  0  0
   37.6680   22.1810   38.5700 N   0  0  0  0  0  0  0  0  0  0  0  0
   37.3730   23.2220   39.3530 C   0  0  0  0  0  0  0  0  0  0  0  0
   36.7590   24.4510   39.1100 C   0  0  0  0  0  3  0  0  0  0  0  0
   38.7560   21.2530   41.4820 H   0  0  0  0  0  0  0  0  0  0  0  0
  1  2  1  0  0  0  0
  2 20  1  0  0  0  0
  2  3  2  0  0  0  0
  3  8  1  0  0  0  0
  4  3  1  0  0  0  0
  5  4  2  0  0  0  0
  6  1  2  0  0  0  0
  6  5  1  0  0  0  0
  7  1  1  0  0  0  0
  9 10  1  0  0  0  0
 10 11  1  0  0  0  0
 11 12  2  0  0  0  0
 11  5  1  0  0  0  0
 12 16  1  0  0  0  0
 13 17  1  0  0  0  0
 13 12  1  0  0  0  0
 14 13  2  0  0  0  0
 15 14  1  0  0  0  0
 15 10  2  0  0  0  0
 18 14  1  0  0  0  0
 19 15  1  0  0  0  0
 20 21  2  0  0  0  0
 21 22  1  0  0  0  0
 22 23  1  0  0  0  0
 22 24  1  0  0  0  0
 25 26  1  0  0  0  0
 26 27  2  0  0  0  0
 26 22  1  0  0  0  0
 27 28  1  0  0  0  0
 29 27  1  0  0  0  0
 30 29  1  0  0  0  0
 30 36  1  0  0  0  0
 31 30  1  0  0  0  0
 32 31  1  0  0  0  0
 33 31  2  0  0  0  0
 33 34  1  0  0  0  0
 34 29  2  0  0  0  0
 35 34  1  0  0  0  0
 35 25  2  0  0  0  0
M  END
>  <minimizedAffinity>
-5.79965782

$$$$

 OpenBabel03252501493D

 36 39  0  0  0  0  0  0  0  0999 V2000
   37.6040   29.8770   40.0820 C   0  0  0  0  0  0  0  0  0  0  0  0
   37.7740   29.2440   41.3440 C   0  0  0  0  0  0  0  0  0  0  0  0
   38.5370   29.8820   42.3220 C   0  0  0  0  0  0  0  0  0  0  0  0
   39.0860   31.0900   42.0130 N   0  0  0  0  0  0  0  0  0  0  0  0
   38.9050   31.6570   40.8100 C   0  0  0  0  0  0  0  0  0  0  0  0
   38.1720   31.0580   39.8540 N   0  0  0  0  0  0  0  0  0  0  0  0
   37.0040   29.3330   39.3680 H   0  0  0  0  0  0  0  0  0  0  0  0
   38.6800   29.4290   43.2790 H   0  0  0  0  0  0  0  0  0  0  0  0
   37.3750   33.9020   40.2750 F   0  0  0  0  0  0  0  0  0  0  0  0
   38.7180   34.0650   40.2790 C   0  0  0  0  0  0  0  0  0  0  0  0
   39.5220   32.9510   40.5450 C   0  0  0  0  0  0  0  0  0  0  0  0
   40.9000   33.0380   40.5650 C   0  0  0  0  0  0  0  0  0  0  0  0
   41.4680   34.2910   40.3070 C   0  0  0  0  0  0  0  0  0  0  0  0
   40.6870   35.4210   40.0390 C   0  0  0  0  0  0  0  0  0  0  0  0
   39.3050   35.2910   40.0270 C   0  0  0  0  0  0  0  0  0  0  0  0
   41.5170   32.1780   40.7710 H   0  0  0  0  0  0  0  0  0  0  0  0
   42.5460   34.3660   40.3230 H   0  0  0  0  0  0  0  0  0  0  0  0
   41.1850   36.3560   39.8490 H   0  0  0  0  0  0  0  0  0  0  0  0
   38.6870   36.1630   39.8190 H   0  0  0  0  0  0  0  0  0  0  0  0
   37.1450   27.9430   41.5880 C   0  0  0  0  0  3  0  0  0  0  0  0
   37.2340   27.2550   42.7130 C   0  0  0  0  0  3  0  0  0  0  0  0
   36.5500   25.9260   42.8630 C   0  0  0  0  0  0  0  0  0  0  0  0
   35.5060   26.1120   42.5370 H   0  0  0  0  0  0  0  0  0  0  0  0
   36.5750   25.5650   43.8970 H   0  0  0  0  0  0  0  0  0  0  0  0
   38.5720   24.6450   42.1380 C   0  0  0  0  0  3  0  0  0  0  0  0
   37.2240   24.9130   42.0150 C   0  0  0  0  0  0  0  0  0  0  0  0
   36.4190   24.2500   41.0910 C   0  0  0  0  0  0  0  0  0  0  0  0
   35.3610   24.4840   41.0180 H   0  0  0  0  0  0  0  0  0  0  0  0
   36.9740   23.2830   40.2540 C   0  0  0  0  0  0  0  0  0  0  0  0
   36.4770   22.4890   39.2850 N   0  0  0  0  0  0  0  0  0  0  0  0
   37.4790   21.7320   38.7990 C   0  0  0  0  0  0  0  0  0  0  0  0
   37.2020   21.0510   38.0130 H   0  0  0  0  0  0  0  0  0  0  0  0
   38.6210   22.0540   39.4710 N   0  0  0  0  0  0  0  0  0  0  0  0
   38.3390   23.0020   40.3680 C   0  0  0  0  0  0  0  0  0  0  0  0
   39.1150   23.6840   41.3060 C   0  0  0  0  0  3  0  0  0  0  0  0
   35.4450   22.5560   39.0490 H   0  0  0  0  0  0  0  0  0  0  0  0
  1  2  1  0  0  0  0
  2 20  1  0  0  0  0
  2  3  2  0  0  0  0
  3  8  1  0  0  0  0
  4  3  1  0  0  0  0
  5  4  2  0  0  0  0
  6  1  2  0  0  0  0
  6  5  1  0  0  0  0
  7  1  1  0  0  0  0
  9 10  1  0  0  0  0
 10 11  1  0  0  0  0
 11 12  2  0  0  0  0
 11  5  1  0  0  0  0
 12 16  1  0  0  0  0
 13 17  1  0  0  0  0
 13 12  1  0  0  0  0
 14 13  2  0  0  0  0
 15 14  1  0  0  0  0
 15 10  2  0  0  0  0
 18 14  1  0  0  0  0
 19 15  1  0  0  0  0
 20 21  2  0  0  0  0
 21 22  1  0  0  0  0
 22 24  1  0  0  0  0
 23 22  1  0  0  0  0
 26 25  1  0  0  0  0
 26 22  1  0  0  0  0
 27 26  2  0  0  0  0
 28 27  1  0  0  0  0
 29 34  2  0  0  0  0
 29 27  1  0  0  0  0
 30 29  1  0  0  0  0
 31 30  1  0  0  0  0
 31 33  2  0  0  0  0
 32 31  1  0  0  0  0
 33 34  1  0  0  0  0
 34 35  1  0  0  0  0
 35 25  2  0  0  0  0
 36 30  1  0  0  0  0
M  END
>  <minimizedAffinity>
-5.79459953

$$$$

 OpenBabel03252501493D

 36 39  0  0  0  0  0  0  0  0999 V2000
   40.1450   31.9270   41.2160 C   0  0  0  0  0  0  0  0  0  0  0  0
   39.0960   32.7620   40.7430 C   0  0  0  0  0  0  0  0  0  0  0  0
   39.3900   34.0760   40.3790 C   0  0  0  0  0  0  0  0  0  0  0  0
   40.6810   34.4940   40.4970 N   0  0  0  0  0  0  0  0  0  0  0  0
   41.6460   33.6770   40.9470 C   0  0  0  0  0  0  0  0  0  0  0  0
   41.3820   32.4070   41.3040 N   0  0  0  0  0  0  0  0  0  0  0  0
   39.8530   30.9210   41.4820 H   0  0  0  0  0  0  0  0  0  0  0  0
   38.6210   34.7250   40.0210 H   0  0  0  0  0  0  0  0  0  0  0  0
   43.5640   33.0650   39.0470 F   0  0  0  0  0  0  0  0  0  0  0  0
   43.9510   33.8600   40.0710 C   0  0  0  0  0  0  0  0  0  0  0  0
   43.0070   34.1890   41.0490 C   0  0  0  0  0  0  0  0  0  0  0  0
   43.3270   34.9950   42.1250 C   0  0  0  0  0  0  0  0  0  0  0  0
   44.6400   35.4730   42.2000 C   0  0  0  0  0  0  0  0  0  0  0  0
   45.6040   35.1600   41.2340 C   0  0  0  0  0  0  0  0  0  0  0  0
   45.2420   34.3460   40.1690 C   0  0  0  0  0  0  0  0  0  0  0  0
   42.5980   35.2470   42.8770 H   0  0  0  0  0  0  0  0  0  0  0  0
   44.8960   36.1060   43.0390 H   0  0  0  0  0  0  0  0  0  0  0  0
   46.5950   35.5600   41.3500 H   0  0  0  0  0  0  0  0  0  0  0  0
   45.9830   34.0950   39.4120 H   0  0  0  0  0  0  0  0  0  0  0  0
   37.7340   32.2260   40.6500 C   0  0  0  0  0  3  0  0  0  0  0  0
   37.4230   30.9410   40.6360 C   0  0  0  0  0  3  0  0  0  0  0  0
   35.9920   30.4940   40.5370 C   0  0  0  0  0  0  0  0  0  0  0  0
   35.4000   31.4200   40.6900 H   0  0  0  0  0  0  0  0  0  0  0  0
   35.7430   29.7440   41.2960 H   0  0  0  0  0  0  0  0  0  0  0  0
   34.6560   29.0720   38.9710 C   0  0  0  0  0  3  0  0  0  0  0  0
   35.7440   29.8890   39.2060 C   0  0  0  0  0  0  0  0  0  0  0  0
   36.6690   30.1940   38.2100 C   0  0  0  0  0  0  0  0  0  0  0  0
   37.5150   30.8400   38.4260 H   0  0  0  0  0  0  0  0  0  0  0  0
   36.5100   29.6670   36.9280 C   0  0  0  0  0  0  0  0  0  0  0  0
   37.2100   29.7700   35.7830 N   0  0  0  0  0  0  0  0  0  0  0  0
   36.5900   29.0380   34.8370 C   0  0  0  0  0  0  0  0  0  0  0  0
   37.0600   29.0420   33.8690 H   0  0  0  0  0  0  0  0  0  0  0  0
   35.4840   28.4680   35.3970 N   0  0  0  0  0  0  0  0  0  0  0  0
   35.4120   28.8380   36.6780 C   0  0  0  0  0  0  0  0  0  0  0  0
   34.5050   28.5540   37.6990 C   0  0  0  0  0  3  0  0  0  0  0  0
   38.0890   30.3640   35.7720 H   0  0  0  0  0  0  0  0  0  0  0  0
  1  6  1  0  0  0  0
  1  7  1  0  0  0  0
  2  1  2  0  0  0  0
  3  4  2  0  0  0  0
  3  2  1  0  0  0  0
  4  5  1  0  0  0  0
  5 11  1  0  0  0  0
  5  6  2  0  0  0  0
  8  3  1  0  0  0  0
  9 10  1  0  0  0  0
 10 15  2  0  0  0  0
 10 11  1  0  0  0  0
 11 12  2  0  0  0  0
 12 13  1  0  0  0  0
 12 16  1  0  0  0  0
 13 17  1  0  0  0  0
 14 18  1  0  0  0  0
 14 13  2  0  0  0  0
 15 14  1  0  0  0  0
 19 15  1  0  0  0  0
 20  2  1  0  0  0  0
 21 20  2  0  0  0  0
 22 21  1  0  0  0  0
 22 23  1  0  0  0  0
 22 24  1  0  0  0  0
 25 26  1  0  0  0  0
 26 22  1  0  0  0  0
 27 28  1  0  0  0  0
 27 26  2  0  0  0  0
 29 27  1  0  0  0  0
 30 29  1  0  0  0  0
 31 33  2  0  0  0  0
 31 30  1  0  0  0  0
 32 31  1  0  0  0  0
 33 34  1  0  0  0  0
 34 29  2  0  0  0  0
 34 35  1  0  0  0  0
 35 25  2  0  0  0  0
 36 30  1  0  0  0  0
M  END
>  <minimizedAffinity>
-5.78583574

$$$$

 OpenBabel03252501493D

 36 39  0  0  0  0  0  0  0  0999 V2000
   36.5480   27.1650   38.5390 C   0  0  0  0  0  0  0  0  0  0  0  0
   36.1510   28.4950   38.2320 C   0  0  0  0  0  0  0  0  0  0  0  0
   36.5860   29.5360   39.0530 C   0  0  0  0  0  0  0  0  0  0  0  0
   37.3760   29.2200   40.1170 N   0  0  0  0  0  0  0  0  0  0  0  0
   37.7290   27.9510   40.3760 C   0  0  0  0  0  0  0  0  0  0  0  0
   37.3200   26.9340   39.5970 N   0  0  0  0  0  0  0  0  0  0  0  0
   36.1790   26.4040   37.8670 H   0  0  0  0  0  0  0  0  0  0  0  0
   36.3030   30.5450   38.8450 H   0  0  0  0  0  0  0  0  0  0  0  0
   36.6450   27.3190   42.8440 F   0  0  0  0  0  0  0  0  0  0  0  0
   37.9940   27.3660   42.7650 C   0  0  0  0  0  0  0  0  0  0  0  0
   38.5760   27.6820   41.5330 C   0  0  0  0  0  0  0  0  0  0  0  0
   39.9470   27.7500   41.3720 C   0  0  0  0  0  0  0  0  0  0  0  0
   40.7370   27.4880   42.4970 C   0  0  0  0  0  0  0  0  0  0  0  0
   40.1800   27.1690   43.7410 C   0  0  0  0  0  0  0  0  0  0  0  0
   38.7980   27.1120   43.8600 C   0  0  0  0  0  0  0  0  0  0  0  0
   40.3920   27.9940   40.4220 H   0  0  0  0  0  0  0  0  0  0  0  0
   41.8110   27.5380   42.3780 H   0  0  0  0  0  0  0  0  0  0  0  0
   40.8440   26.9780   44.5660 H   0  0  0  0  0  0  0  0  0  0  0  0
   38.3540   26.8650   44.8230 H   0  0  0  0  0  0  0  0  0  0  0  0
   35.2990   28.7420   37.0650 C   0  0  0  0  0  3  0  0  0  0  0  0
   33.9810   28.6370   37.0510 C   0  0  0  0  0  3  0  0  0  0  0  0
   33.1970   28.9120   35.7990 C   0  0  0  0  0  0  0  0  0  0  0  0
   32.8830   27.9090   35.4420 H   0  0  0  0  0  0  0  0  0  0  0  0
   33.8000   29.4230   35.0410 H   0  0  0  0  0  0  0  0  0  0  0  0
   31.5280   30.6730   35.1920 C   0  0  0  0  0  3  0  0  0  0  0  0
   32.0350   29.7790   36.1130 C   0  0  0  0  0  0  0  0  0  0  0  0
   31.4880   29.6360   37.3860 C   0  0  0  0  0  0  0  0  0  0  0  0
   31.9100   28.9240   38.0880 H   0  0  0  0  0  0  0  0  0  0  0  0
   30.3920   30.4130   37.7630 C   0  0  0  0  0  0  0  0  0  0  0  0
   29.6570   30.5090   38.8870 N   0  0  0  0  0  0  0  0  0  0  0  0
   28.7030   31.4410   38.6940 C   0  0  0  0  0  0  0  0  0  0  0  0
   28.0470   31.6070   39.5310 H   0  0  0  0  0  0  0  0  0  0  0  0
   28.8410   31.9360   37.4310 N   0  0  0  0  0  0  0  0  0  0  0  0
   29.8690   31.3240   36.8390 C   0  0  0  0  0  0  0  0  0  0  0  0
   30.4420   31.4390   35.5720 C   0  0  0  0  0  3  0  0  0  0  0  0
   29.9030   29.8900   39.7130 H   0  0  0  0  0  0  0  0  0  0  0  0
  1  6  1  0  0  0  0
  2  1  2  0  0  0  0
  2  3  1  0  0  0  0
  3  4  2  0  0  0  0
  4  5  1  0  0  0  0
  5 11  1  0  0  0  0
  6  5  2  0  0  0  0
  7  1  1  0  0  0  0
  8  3  1  0  0  0  0
 10  9  1  0  0  0  0
 10 15  1  0  0  0  0
 11 10  2  0  0  0  0
 12 11  1  0  0  0  0
 12 13  2  0  0  0  0
 13 14  1  0  0  0  0
 14 15  2  0  0  0  0
 14 18  1  0  0  0  0
 15 19  1  0  0  0  0
 16 12  1  0  0  0  0
 17 13  1  0  0  0  0
 20  2  1  0  0  0  0
 21 20  2  0  0  0  0
 22 26  1  0  0  0  0
 22 21  1  0  0  0  0
 23 22  1  0  0  0  0
 24 22  1  0  0  0  0
 25 35  2  0  0  0  0
 25 26  1  0  0  0  0
 26 27  2  0  0  0  0
 27 29  1  0  0  0  0
 27 28  1  0  0  0  0
 29 30  1  0  0  0  0
 30 36  1  0  0  0  0
 31 30  1  0  0  0  0
 31 32  1  0  0  0  0
 33 31  2  0  0  0  0
 34 33  1  0  0  0  0
 34 29  2  0  0  0  0
 35 34  1  0  0  0  0
M  END
>  <minimizedAffinity>
-5.75707197

$$$$

 OpenBabel03252501493D

 36 39  0  0  0  0  0  0  0  0999 V2000
   36.5930   25.9890   39.8300 C   0  0  0  0  0  0  0  0  0  0  0  0
   37.1580   25.6640   41.0940 C   0  0  0  0  0  0  0  0  0  0  0  0
   37.0860   24.3460   41.5470 C   0  0  0  0  0  0  0  0  0  0  0  0
   36.4710   23.4310   40.7470 N   0  0  0  0  0  0  0  0  0  0  0  0
   35.9480   23.7750   39.5590 C   0  0  0  0  0  0  0  0  0  0  0  0
   36.0080   25.0400   39.1050 N   0  0  0  0  0  0  0  0  0  0  0  0
   36.6810   27.0240   39.5360 H   0  0  0  0  0  0  0  0  0  0  0  0
   37.5030   24.0740   42.4930 H   0  0  0  0  0  0  0  0  0  0  0  0
   33.4500   22.7810   40.2180 F   0  0  0  0  0  0  0  0  0  0  0  0
   34.0400   22.2660   39.1150 C   0  0  0  0  0  0  0  0  0  0  0  0
   35.3030   22.7460   38.7530 C   0  0  0  0  0  0  0  0  0  0  0  0
   35.9710   22.2690   37.6410 C   0  0  0  0  0  0  0  0  0  0  0  0
   35.3300   21.2810   36.8840 C   0  0  0  0  0  0  0  0  0  0  0  0
   34.0660   20.7840   37.2240 C   0  0  0  0  0  0  0  0  0  0  0  0
   33.4300   21.2900   38.3500 C   0  0  0  0  0  0  0  0  0  0  0  0
   36.9440   22.6400   37.3650 H   0  0  0  0  0  0  0  0  0  0  0  0
   35.8470   20.9050   36.0120 H   0  0  0  0  0  0  0  0  0  0  0  0
   33.6290   20.0250   36.5990 H   0  0  0  0  0  0  0  0  0  0  0  0
   32.4470   20.9110   38.6240 H   0  0  0  0  0  0  0  0  0  0  0  0
   37.8010   26.7150   41.8880 C   0  0  0  0  0  3  0  0  0  0  0  0
   37.1630   27.6090   42.6230 C   0  0  0  0  0  3  0  0  0  0  0  0
   37.9170   28.6490   43.4030 C   0  0  0  0  0  0  0  0  0  0  0  0
   38.8370   28.1290   43.7420 H   0  0  0  0  0  0  0  0  0  0  0  0
   37.3410   29.0180   44.2590 H   0  0  0  0  0  0  0  0  0  0  0  0
   39.4680   30.4050   42.5270 C   0  0  0  0  0  3  0  0  0  0  0  0
   38.2240   29.8090   42.5310 C   0  0  0  0  0  0  0  0  0  0  0  0
   37.1850   30.2580   41.7180 C   0  0  0  0  0  0  0  0  0  0  0  0
   36.2160   29.7680   41.7440 H   0  0  0  0  0  0  0  0  0  0  0  0
   37.3890   31.3440   40.8670 C   0  0  0  0  0  0  0  0  0  0  0  0
   36.6100   31.9990   39.9850 N   0  0  0  0  0  0  0  0  0  0  0  0
   37.3340   32.9890   39.4290 C   0  0  0  0  0  0  0  0  0  0  0  0
   36.8140   33.5870   38.7010 H   0  0  0  0  0  0  0  0  0  0  0  0
   38.5860   32.9560   39.9700 N   0  0  0  0  0  0  0  0  0  0  0  0
   38.6460   31.9580   40.8540 C   0  0  0  0  0  0  0  0  0  0  0  0
   39.6630   31.4800   41.6810 C   0  0  0  0  0  3  0  0  0  0  0  0
   35.6070   31.6770   39.8510 H   0  0  0  0  0  0  0  0  0  0  0  0
  1  2  1  0  0  0  0
  2  3  2  0  0  0  0
  2 20  1  0  0  0  0
  3  8  1  0  0  0  0
  4  3  1  0  0  0  0
  5  4  2  0  0  0  0
  6  5  1  0  0  0  0
  6  1  2  0  0  0  0
  7  1  1  0  0  0  0
 10  9  1  0  0  0  0
 11 10  1  0  0  0  0
 11  5  1  0  0  0  0
 12 11  2  0  0  0  0
 13 14  2  0  0  0  0
 13 12  1  0  0  0  0
 14 15  1  0  0  0  0
 15 19  1  0  0  0  0
 15 10  2  0  0  0  0
 16 12  1  0  0  0  0
 17 13  1  0  0  0  0
 18 14  1  0  0  0  0
 20 21  2  0  0  0  0
 21 22  1  0  0  0  0
 22 23  1  0  0  0  0
 22 24  1  0  0  0  0
 25 26  1  0  0  0  0
 26 22  1  0  0  0  0
 27 28  1  0  0  0  0
 27 26  2  0  0  0  0
 29 27  1  0  0  0  0
 30 29  1  0  0  0  0
 31 33  2  0  0  0  0
 31 30  1  0  0  0  0
 32 31  1  0  0  0  0
 33 34  1  0  0  0  0
 34 29  2  0  0  0  0
 34 35  1  0  0  0  0
 35 25  2  0  0  0  0
 36 30  1  0  0  0  0
M  END
>  <minimizedAffinity>
-5.70061779

$$$$
