
     RDKit          3D

 43 46  0  0  0  0  0  0  0  0999 V2000
   46.6847   32.8510   46.6422 C   0  0  2  0  0  0  0  0  0  0  0  0
   47.0465   32.7312   45.2159 C   0  0  1  0  0  0  0  0  0  0  0  0
   46.5159   31.4206   44.8237 O   0  0  0  0  0  0  0  0  0  0  0  0
   47.1807   30.6938   45.8395 C   0  0  0  0  0  0  0  0  0  0  0  0
   46.5868   31.3999   47.0880 C   0  0  2  0  0  0  0  0  0  0  0  0
   44.7089   35.2358   43.9587 C   0  0  0  0  0  0  0  0  0  0  0  0
   45.3388   35.7444   42.8241 C   0  0  0  0  0  0  0  0  0  0  0  0
   46.5983   35.2207   42.4641 C   0  0  0  0  0  0  0  0  0  0  0  0
   47.1525   34.2334   43.2433 N   0  0  0  0  0  0  0  0  0  0  0  0
   46.5086   33.7687   44.3349 C   0  0  0  0  0  0  0  0  0  0  0  0
   45.2953   34.2564   44.7025 N   0  0  0  0  0  0  0  0  0  0  0  0
   43.4582   35.7130   44.3685 O   0  0  0  0  0  0  0  0  0  0  0  0
   45.3761   33.4348   46.7529 O   0  0  0  0  0  0  0  0  0  0  0  0
   45.2928   30.9940   47.2023 O   0  0  0  0  0  0  0  0  0  0  0  0
   44.9902   30.1307   48.2236 C   0  0  0  0  0  0  0  0  0  0  0  0
   45.0686   28.6896   47.9309 C   0  0  0  0  0  0  0  0  0  0  0  0
   47.4038   33.4149   47.2613 H   0  0  0  0  0  0  0  0  0  0  0  0
   48.1173   32.6196   45.0129 H   0  0  0  0  0  0  0  0  0  0  0  0
   47.0622   29.6405   45.8188 H   0  0  0  0  0  0  0  0  0  0  0  0
   48.2630   30.9719   45.7581 H   0  0  0  0  0  0  0  0  0  0  0  0
   47.2605   31.1212   47.9285 H   0  0  0  0  0  0  0  0  0  0  0  0
   44.8738   36.5120   42.2456 H   0  0  0  0  0  0  0  0  0  0  0  0
   47.1156   35.5923   41.5892 H   0  0  0  0  0  0  0  0  0  0  0  0
   42.8789   36.0791   43.6144 H   0  0  0  0  0  0  0  0  0  0  0  0
   45.1919   33.4153   47.7250 H   0  0  0  0  0  0  0  0  0  0  0  0
   45.3760   30.4878   49.1728 H   0  0  0  0  0  0  0  0  0  0  0  0
   43.8319   30.3794   48.4101 H   0  0  0  0  0  0  0  0  0  0  0  0
   46.0422   28.3472   47.5256 H   0  0  0  0  0  0  0  0  0  0  0  0
   44.7866   28.1125   48.8467 H   0  0  0  0  0  0  0  0  0  0  0  0
   42.7129   28.4847   46.8207 C   0  0  0  0  0  0  0  0  0  0  0  0
   44.0781   28.3400   46.8790 C   0  0  0  0  0  0  0  0  0  0  0  0
   44.6039   27.7421   45.7215 C   0  0  0  0  0  0  0  0  0  0  0  0
   45.6730   27.5725   45.6442 H   0  0  0  0  0  0  0  0  0  0  0  0
   43.8755   27.3302   44.6264 C   0  0  0  0  0  0  0  0  0  0  0  0
   44.2133   26.7522   43.4613 N   0  0  0  0  0  0  0  0  0  0  0  0
   43.0905   26.5675   42.7528 C   0  0  0  0  0  0  0  0  0  0  0  0
   42.9920   26.1264   41.7662 H   0  0  0  0  0  0  0  0  0  0  0  0
   42.0411   27.0361   43.4859 N   0  0  0  0  0  0  0  0  0  0  0  0
   42.5172   27.5109   44.6487 C   0  0  0  0  0  0  0  0  0  0  0  0
   41.9384   28.0921   45.7554 C   0  0  0  0  0  0  0  0  0  0  0  0
   42.2788   28.9433   47.6905 H   0  0  0  0  0  0  0  0  0  0  0  0
   45.1691   26.4977   43.1682 H   0  0  0  0  0  0  0  0  0  0  0  0
   40.8861   28.2577   45.8283 H   0  0  0  0  0  0  0  0  0  0  0  0
  1 13  1  0
  1  5  1  0
  2  1  1  0
  3  2  1  0
  3  4  1  0
  4  5  1  0
  5 14  1  0
  6 12  1  0
  6 11  2  0
  7  6  1  0
  8  7  2  0
  8  9  1  0
  9 10  2  0
 10 11  1  0
 10  2  1  0
 14 15  1  0
 16 15  1  0
  1 17  1  1
  2 18  1  1
  4 19  1  0
  4 20  1  0
  5 21  1  1
  7 22  1  0
  8 23  1  0
 12 24  1  0
 13 25  1  0
 15 26  1  0
 15 27  1  0
 16 28  1  0
 16 29  1  0
 30 31  2  0
 31 32  1  0
 32 33  1  0
 32 34  2  0
 34 35  1  0
 35 36  1  0
 36 37  1  0
 36 38  2  0
 38 39  1  0
 39 40  2  0
 40 30  1  0
 39 34  1  0
 30 41  1  0
 35 42  1  0
 40 43  1  0
 16 31  1  0
M  ISO  8  17  13  18  13  19  13  20  13  21  13  22  14  23  14  24   3
M  ISO  7  25   3  26   8  27   8  28   8  29   8  33  15  37  14
M  END
>  <DihAtoms>  (1) 
14,15,30,29

>  <DihDeg>  (1) 
91.94354026362728

$$$$
