
 OpenBabel03252501173D

 38 42  0  0  1  0  0  0  0  0999 V2000
   38.0820   31.1460   39.7730 C   0  0  1  0  0  0  0  0  0  0  0  0
   37.2230   32.0090   38.9320 C   0  0  0  0  0  0  0  0  0  0  0  0
   37.7070   32.4240   40.3750 C   0  0  2  0  0  0  0  0  0  0  0  0
   39.1290   30.9830   39.3880 H   0  0  0  0  0  0  0  0  0  0  0  0
   36.1330   31.8670   38.8760 H   0  0  0  0  0  0  0  0  0  0  0  0
   37.6550   32.5890   38.0950 H   0  0  0  0  0  0  0  0  0  0  0  0
   36.9150   32.4550   41.1220 H   0  0  0  0  0  0  0  0  0  0  0  0
   36.9890   28.2530   41.9040 C   0  0  0  0  0  0  0  0  0  0  0  0
   37.6180   29.4370   41.5610 C   0  0  0  0  0  0  0  0  0  0  0  0
   37.4440   29.8850   40.2560 C   0  0  0  0  0  0  0  0  0  0  0  0
   36.6870   29.1670   39.3940 N   0  0  0  0  0  0  0  0  0  0  0  0
   36.0880   28.0070   39.7790 C   0  0  0  0  0  0  0  0  0  0  0  0
   36.2460   27.5570   41.0400 N   0  0  0  0  0  0  0  0  0  0  0  0
   38.2220   30.0230   42.2270 H   0  0  0  0  0  0  0  0  0  0  0  0
   35.4760   27.4160   39.0960 H   0  0  0  0  0  0  0  0  0  0  0  0
   37.1540   27.7550   43.3080 C   0  0  0  0  0  0  0  0  0  0  0  0
   35.9220   27.3160   43.7380 F   0  0  0  0  0  0  0  0  0  0  0  0
   37.5160   28.8350   44.0850 F   0  0  0  0  0  0  0  0  0  0  0  0
   38.0560   26.7350   43.3670 F   0  0  0  0  0  0  0  0  0  0  0  0
   38.7370   33.4980   40.3320 C   0  0  0  0  0  0  0  0  0  0  0  0
   38.5600   34.8260   39.9560 C   0  0  0  0  0  0  0  0  0  0  0  0
   39.8250   35.3540   40.1090 C   0  0  0  0  0  0  0  0  0  0  0  0
   40.7170   34.3590   40.5600 C   0  0  0  0  0  0  0  0  0  0  0  0
   39.9750   33.2920   40.6610 O   0  0  0  0  0  0  0  0  0  0  0  0
   37.6470   35.2960   39.6330 H   0  0  0  0  0  0  0  0  0  0  0  0
   40.0720   36.4030   39.8990 H   0  0  0  0  0  0  0  0  0  0  0  0
   43.0960   33.9750   40.0200 C   0  0  0  0  0  3  0  0  0  0  0  0
   42.1390   34.5460   40.8330 C   0  0  0  0  0  0  0  0  0  0  0  0
   42.4540   35.3150   41.9370 C   0  0  0  0  0  0  0  0  0  0  0  0
   41.6950   35.7700   42.5840 H   0  0  0  0  0  0  0  0  0  0  0  0
   43.7640   35.5400   42.2650 C   0  0  0  0  0  0  0  0  0  0  0  0
   44.3630   36.2240   43.2460 N   0  0  0  0  0  0  0  0  0  0  0  0
   45.6770   36.0970   43.0710 C   0  0  0  0  0  0  0  0  0  0  0  0
   46.4900   36.5140   43.6710 H   0  0  0  0  0  0  0  0  0  0  0  0
   45.9280   35.3280   41.9720 N   0  0  0  0  0  0  0  0  0  0  0  0
   44.7210   34.9720   41.4540 C   0  0  0  0  0  0  0  0  0  0  0  0
   44.4400   34.1900   40.3360 C   0  0  0  0  0  3  0  0  0  0  0  0
   43.8870   36.7670   44.0210 H   0  0  0  0  0  0  0  0  0  0  0  0
  1  4  1  6  0  0  0
  1 10  1  0  0  0  0
  1  3  1  0  0  0  0
  2  1  1  0  0  0  0
  2  3  1  0  0  0  0
  3  7  1  1  0  0  0
  5  2  1  0  0  0  0
  6  2  1  0  0  0  0
  8 16  1  0  0  0  0
  9  8  1  0  0  0  0
  9 14  1  0  0  0  0
 10  9  2  0  0  0  0
 11 12  2  0  0  0  0
 11 10  1  0  0  0  0
 12 13  1  0  0  0  0
 13  8  2  0  0  0  0
 15 12  1  0  0  0  0
 16 19  1  0  0  0  0
 16 17  1  0  0  0  0
 16 18  1  0  0  0  0
 20  3  1  0  0  0  0
 20 24  1  0  0  0  0
 21 22  1  0  0  0  0
 21 20  2  0  0  0  0
 22 23  2  0  0  0  0
 23 24  1  0  0  0  0
 23 28  1  0  0  0  0
 25 21  1  0  0  0  0
 26 22  1  0  0  0  0
 27 37  2  0  0  0  0
 27 28  1  0  0  0  0
 28 29  2  0  0  0  0
 29 31  1  0  0  0  0
 29 30  1  0  0  0  0
 31 32  1  0  0  0  0
 32 38  1  0  0  0  0
 33 32  1  0  0  0  0
 33 34  1  0  0  0  0
 35 33  2  0  0  0  0
 36 35  1  0  0  0  0
 36 31  2  0  0  0  0
 37 36  1  0  0  0  0
M  END
>  <minimizedAffinity>
-7.01381826

$$$$

 OpenBabel03252501173D

 38 42  0  0  1  0  0  0  0  0999 V2000
   36.2010   29.5040   39.4540 C   0  0  1  0  0  0  0  0  0  0  0  0
   36.9810   29.2010   38.2330 C   0  0  0  0  0  0  0  0  0  0  0  0
   35.8620   28.2440   38.7980 C   0  0  2  0  0  0  0  0  0  0  0  0
   35.5080   30.3910   39.3800 H   0  0  0  0  0  0  0  0  0  0  0  0
   37.9850   28.7530   38.2790 H   0  0  0  0  0  0  0  0  0  0  0  0
   36.7460   29.7040   37.2760 H   0  0  0  0  0  0  0  0  0  0  0  0
   36.2380   27.3060   39.2060 H   0  0  0  0  0  0  0  0  0  0  0  0
   37.4200   28.7090   42.9170 C   0  0  0  0  0  0  0  0  0  0  0  0
   36.6390   28.6390   41.7760 C   0  0  0  0  0  0  0  0  0  0  0  0
   36.9790   29.4880   40.7290 C   0  0  0  0  0  0  0  0  0  0  0  0
   38.0320   30.3280   40.8590 N   0  0  0  0  0  0  0  0  0  0  0  0
   38.7720   30.3600   42.0020 C   0  0  0  0  0  0  0  0  0  0  0  0
   38.4560   29.5440   43.0280 N   0  0  0  0  0  0  0  0  0  0  0  0
   35.7990   27.9820   41.6510 H   0  0  0  0  0  0  0  0  0  0  0  0
   39.6230   31.0310   42.1230 H   0  0  0  0  0  0  0  0  0  0  0  0
   37.0790   27.7960   44.0560 C   0  0  0  0  0  0  0  0  0  0  0  0
   38.2360   27.1500   44.4290 F   0  0  0  0  0  0  0  0  0  0  0  0
   36.2000   26.8510   43.5720 F   0  0  0  0  0  0  0  0  0  0  0  0
   36.5750   28.4940   45.1130 F   0  0  0  0  0  0  0  0  0  0  0  0
   34.6380   28.2530   37.9510 C   0  0  0  0  0  0  0  0  0  0  0  0
   34.1970   27.2540   37.0890 C   0  0  0  0  0  0  0  0  0  0  0  0
   33.0310   27.7870   36.5790 C   0  0  0  0  0  0  0  0  0  0  0  0
   32.8000   29.0650   37.1290 C   0  0  0  0  0  0  0  0  0  0  0  0
   33.8100   29.2520   37.9310 O   0  0  0  0  0  0  0  0  0  0  0  0
   34.6700   26.3070   36.8910 H   0  0  0  0  0  0  0  0  0  0  0  0
   32.3960   27.2660   35.8500 H   0  0  0  0  0  0  0  0  0  0  0  0
   30.7200   30.2200   37.7880 C   0  0  0  0  0  3  0  0  0  0  0  0
   31.6640   29.9330   36.8260 C   0  0  0  0  0  0  0  0  0  0  0  0
   31.6020   30.4330   35.5390 C   0  0  0  0  0  0  0  0  0  0  0  0
   32.3520   30.2050   34.7740 H   0  0  0  0  0  0  0  0  0  0  0  0
   30.5700   31.2540   35.1720 C   0  0  0  0  0  0  0  0  0  0  0  0
   30.2490   31.8760   34.0320 N   0  0  0  0  0  0  0  0  0  0  0  0
   29.1230   32.5500   34.2530 C   0  0  0  0  0  0  0  0  0  0  0  0
   28.5550   33.1770   33.5620 H   0  0  0  0  0  0  0  0  0  0  0  0
   28.7140   32.3630   35.5420 N   0  0  0  0  0  0  0  0  0  0  0  0
   29.6260   31.5440   36.1320 C   0  0  0  0  0  0  0  0  0  0  0  0
   29.6560   31.0570   37.4360 C   0  0  0  0  0  3  0  0  0  0  0  0
   30.7870   31.8430   33.1200 H   0  0  0  0  0  0  0  0  0  0  0  0
  1  4  1  6  0  0  0
  1 10  1  0  0  0  0
  2  5  1  0  0  0  0
  2  3  1  0  0  0  0
  2  1  1  0  0  0  0
  3  7  1  1  0  0  0
  3  1  1  0  0  0  0
  6  2  1  0  0  0  0
  8 13  1  0  0  0  0
  8 16  1  0  0  0  0
  9  8  2  0  0  0  0
 10 11  2  0  0  0  0
 10  9  1  0  0  0  0
 11 12  1  0  0  0  0
 12 15  1  0  0  0  0
 12 13  2  0  0  0  0
 14  9  1  0  0  0  0
 16 17  1  0  0  0  0
 16 19  1  0  0  0  0
 18 16  1  0  0  0  0
 20  3  1  0  0  0  0
 21 20  2  0  0  0  0
 22 21  1  0  0  0  0
 22 23  2  0  0  0  0
 23 24  1  0  0  0  0
 24 20  1  0  0  0  0
 25 21  1  0  0  0  0
 26 22  1  0  0  0  0
 28 23  1  0  0  0  0
 28 27  2  0  0  0  0
 29 28  1  0  0  0  0
 30 29  1  0  0  0  0
 31 29  2  0  0  0  0
 31 36  1  0  0  0  0
 32 33  1  0  0  0  0
 32 31  1  0  0  0  0
 33 35  2  0  0  0  0
 34 33  1  0  0  0  0
 35 36  1  0  0  0  0
 36 37  2  0  0  0  0
 37 27  1  0  0  0  0
 38 32  1  0  0  0  0
M  END
>  <minimizedAffinity>
-6.75915813

$$$$

 OpenBabel03252501173D

 38 42  0  0  1  0  0  0  0  0999 V2000
   39.9990   30.2620   41.2080 C   0  0  1  0  0  0  0  0  0  0  0  0
   40.5300   30.0430   42.5720 C   0  0  0  0  0  0  0  0  0  0  0  0
   38.9900   30.1890   42.2630 C   0  0  2  0  0  0  0  0  0  0  0  0
   40.1370   29.4030   40.4900 H   0  0  0  0  0  0  0  0  0  0  0  0
   40.9190   30.8700   43.1850 H   0  0  0  0  0  0  0  0  0  0  0  0
   40.8640   29.0380   42.8920 H   0  0  0  0  0  0  0  0  0  0  0  0
   38.5410   31.1060   42.6430 H   0  0  0  0  0  0  0  0  0  0  0  0
   39.8890   33.8520   40.1110 C   0  0  0  0  0  0  0  0  0  0  0  0
   39.4880   32.6780   40.7240 C   0  0  0  0  0  0  0  0  0  0  0  0
   40.3340   31.5820   40.5960 C   0  0  0  0  0  0  0  0  0  0  0  0
   41.4870   31.7010   39.8970 N   0  0  0  0  0  0  0  0  0  0  0  0
   41.8390   32.8790   39.3120 C   0  0  0  0  0  0  0  0  0  0  0  0
   41.0300   33.9520   39.4250 N   0  0  0  0  0  0  0  0  0  0  0  0
   38.5790   32.5600   41.2820 H   0  0  0  0  0  0  0  0  0  0  0  0
   42.7630   32.9910   38.7450 H   0  0  0  0  0  0  0  0  0  0  0  0
   38.9970   35.0500   40.2440 C   0  0  0  0  0  0  0  0  0  0  0  0
   38.8540   35.3110   41.5880 F   0  0  0  0  0  0  0  0  0  0  0  0
   37.7620   34.6970   39.7440 F   0  0  0  0  0  0  0  0  0  0  0  0
   39.5320   36.1350   39.6150 F   0  0  0  0  0  0  0  0  0  0  0  0
   38.2690   28.8930   42.3930 C   0  0  0  0  0  0  0  0  0  0  0  0
   37.5050   28.4550   43.4700 C   0  0  0  0  0  0  0  0  0  0  0  0
   37.0790   27.2100   43.0510 C   0  0  0  0  0  0  0  0  0  0  0  0
   37.5850   26.9310   41.7640 C   0  0  0  0  0  0  0  0  0  0  0  0
   38.2790   27.9910   41.4600 O   0  0  0  0  0  0  0  0  0  0  0  0
   37.3100   28.9800   44.3890 H   0  0  0  0  0  0  0  0  0  0  0  0
   36.4410   26.5540   43.6570 H   0  0  0  0  0  0  0  0  0  0  0  0
   36.5320   25.7230   39.8860 C   0  0  0  0  0  3  0  0  0  0  0  0
   37.3460   25.7100   40.9990 C   0  0  0  0  0  0  0  0  0  0  0  0
   37.9750   24.5680   41.4560 C   0  0  0  0  0  0  0  0  0  0  0  0
   38.6210   24.5560   42.3410 H   0  0  0  0  0  0  0  0  0  0  0  0
   37.8040   23.3800   40.7970 C   0  0  0  0  0  0  0  0  0  0  0  0
   38.2690   22.1420   40.9950 N   0  0  0  0  0  0  0  0  0  0  0  0
   37.7680   21.3730   40.0310 C   0  0  0  0  0  0  0  0  0  0  0  0
   37.9220   20.3050   39.8600 H   0  0  0  0  0  0  0  0  0  0  0  0
   36.9750   22.1170   39.2060 N   0  0  0  0  0  0  0  0  0  0  0  0
   36.9920   23.3910   39.6840 C   0  0  0  0  0  0  0  0  0  0  0  0
   36.3430   24.5220   39.1960 C   0  0  0  0  0  3  0  0  0  0  0  0
   38.9170   21.8260   41.7720 H   0  0  0  0  0  0  0  0  0  0  0  0
  1  4  1  6  0  0  0
  1  3  1  0  0  0  0
  1  2  1  0  0  0  0
  2  6  1  0  0  0  0
  2  5  1  0  0  0  0
  3 20  1  0  0  0  0
  3  2  1  0  0  0  0
  3  7  1  1  0  0  0
  8 16  1  0  0  0  0
  8  9  1  0  0  0  0
  9 14  1  0  0  0  0
 10  9  2  0  0  0  0
 10  1  1  0  0  0  0
 11 10  1  0  0  0  0
 12 13  1  0  0  0  0
 12 11  2  0  0  0  0
 13  8  2  0  0  0  0
 15 12  1  0  0  0  0
 16 17  1  0  0  0  0
 18 16  1  0  0  0  0
 19 16  1  0  0  0  0
 20 21  2  0  0  0  0
 21 25  1  0  0  0  0
 22 21  1  0  0  0  0
 22 26  1  0  0  0  0
 23 22  2  0  0  0  0
 24 23  1  0  0  0  0
 24 20  1  0  0  0  0
 27 28  1  0  0  0  0
 28 29  2  0  0  0  0
 28 23  1  0  0  0  0
 29 30  1  0  0  0  0
 31 32  1  0  0  0  0
 31 29  1  0  0  0  0
 32 38  1  0  0  0  0
 33 32  1  0  0  0  0
 34 33  1  0  0  0  0
 35 36  1  0  0  0  0
 35 33  2  0  0  0  0
 36 31  2  0  0  0  0
 37 36  1  0  0  0  0
 37 27  2  0  0  0  0
M  END
>  <minimizedAffinity>
-6.72098017

$$$$

 OpenBabel03252501173D

 38 42  0  0  1  0  0  0  0  0999 V2000
   39.0810   30.6940   41.1390 C   0  0  1  0  0  0  0  0  0  0  0  0
   40.0410   30.3720   42.2180 C   0  0  0  0  0  0  0  0  0  0  0  0
   38.4780   30.3290   42.4190 C   0  0  2  0  0  0  0  0  0  0  0  0
   39.0630   29.9720   40.2740 H   0  0  0  0  0  0  0  0  0  0  0  0
   40.5250   31.1550   42.8210 H   0  0  0  0  0  0  0  0  0  0  0  0
   40.5560   29.3930   42.2390 H   0  0  0  0  0  0  0  0  0  0  0  0
   38.0880   31.1080   43.0730 H   0  0  0  0  0  0  0  0  0  0  0  0
   40.1180   34.1910   40.2390 C   0  0  0  0  0  0  0  0  0  0  0  0
   40.2380   32.8760   40.6550 C   0  0  0  0  0  0  0  0  0  0  0  0
   39.0710   32.1210   40.6980 C   0  0  0  0  0  0  0  0  0  0  0  0
   37.8930   32.6840   40.3420 N   0  0  0  0  0  0  0  0  0  0  0  0
   37.8250   33.9820   39.9380 C   0  0  0  0  0  0  0  0  0  0  0  0
   38.9470   34.7290   39.8910 N   0  0  0  0  0  0  0  0  0  0  0  0
   41.1610   32.4090   40.9420 H   0  0  0  0  0  0  0  0  0  0  0  0
   36.8840   34.4510   39.6490 H   0  0  0  0  0  0  0  0  0  0  0  0
   41.3640   35.0210   40.1750 C   0  0  0  0  0  0  0  0  0  0  0  0
   41.4520   35.7250   41.3540 F   0  0  0  0  0  0  0  0  0  0  0  0
   41.1980   35.9280   39.1490 F   0  0  0  0  0  0  0  0  0  0  0  0
   42.4700   34.2400   40.0160 F   0  0  0  0  0  0  0  0  0  0  0  0
   37.9660   28.9360   42.5300 C   0  0  0  0  0  0  0  0  0  0  0  0
   37.4320   28.3170   43.6560 C   0  0  0  0  0  0  0  0  0  0  0  0
   37.1240   27.0550   43.1900 C   0  0  0  0  0  0  0  0  0  0  0  0
   37.4720   26.9410   41.8280 C   0  0  0  0  0  0  0  0  0  0  0  0
   37.9640   28.1100   41.5280 O   0  0  0  0  0  0  0  0  0  0  0  0
   37.3020   28.7440   44.6350 H   0  0  0  0  0  0  0  0  0  0  0  0
   36.6760   26.2730   43.8160 H   0  0  0  0  0  0  0  0  0  0  0  0
   36.5870   25.8190   39.8150 C   0  0  0  0  0  3  0  0  0  0  0  0
   37.2940   25.7530   40.9970 C   0  0  0  0  0  0  0  0  0  0  0  0
   37.8670   24.5870   41.4660 C   0  0  0  0  0  0  0  0  0  0  0  0
   38.4290   24.5330   42.4050 H   0  0  0  0  0  0  0  0  0  0  0  0
   37.7470   23.4270   40.7480 C   0  0  0  0  0  0  0  0  0  0  0  0
   38.1810   22.1770   40.9390 N   0  0  0  0  0  0  0  0  0  0  0  0
   37.7640   21.4510   39.9040 C   0  0  0  0  0  0  0  0  0  0  0  0
   37.9230   20.3880   39.7060 H   0  0  0  0  0  0  0  0  0  0  0  0
   37.0580   22.2350   39.0390 N   0  0  0  0  0  0  0  0  0  0  0  0
   37.0420   23.4900   39.5660 C   0  0  0  0  0  0  0  0  0  0  0  0
   36.4510   24.6470   39.0640 C   0  0  0  0  0  3  0  0  0  0  0  0
   38.7510   21.8230   41.7600 H   0  0  0  0  0  0  0  0  0  0  0  0
  1  4  1  6  0  0  0
  1  2  1  0  0  0  0
  1  3  1  0  0  0  0
  2  6  1  0  0  0  0
  2  3  1  0  0  0  0
  2  5  1  0  0  0  0
  3 20  1  0  0  0  0
  3  7  1  1  0  0  0
  8  9  1  0  0  0  0
  9 10  2  0  0  0  0
  9 14  1  0  0  0  0
 10  1  1  0  0  0  0
 11 10  1  0  0  0  0
 12 11  2  0  0  0  0
 13 12  1  0  0  0  0
 13  8  2  0  0  0  0
 15 12  1  0  0  0  0
 16  8  1  0  0  0  0
 16 17  1  0  0  0  0
 18 16  1  0  0  0  0
 19 16  1  0  0  0  0
 20 21  2  0  0  0  0
 21 25  1  0  0  0  0
 22 21  1  0  0  0  0
 22 26  1  0  0  0  0
 23 22  2  0  0  0  0
 24 23  1  0  0  0  0
 24 20  1  0  0  0  0
 27 28  1  0  0  0  0
 28 29  2  0  0  0  0
 28 23  1  0  0  0  0
 29 30  1  0  0  0  0
 31 32  1  0  0  0  0
 31 29  1  0  0  0  0
 32 38  1  0  0  0  0
 33 32  1  0  0  0  0
 34 33  1  0  0  0  0
 35 36  1  0  0  0  0
 35 33  2  0  0  0  0
 36 31  2  0  0  0  0
 37 36  1  0  0  0  0
 37 27  2  0  0  0  0
M  END
>  <minimizedAffinity>
-6.66837597

$$$$

 OpenBabel03252501173D

 38 42  0  0  1  0  0  0  0  0999 V2000
   37.7780   32.7940   40.1090 C   0  0  1  0  0  0  0  0  0  0  0  0
   37.3270   32.4420   38.7440 C   0  0  0  0  0  0  0  0  0  0  0  0
   38.1650   31.4610   39.6520 C   0  0  2  0  0  0  0  0  0  0  0  0
   36.9590   32.9200   40.8740 H   0  0  0  0  0  0  0  0  0  0  0  0
   37.8780   32.7640   37.8480 H   0  0  0  0  0  0  0  0  0  0  0  0
   36.2780   32.1460   38.5570 H   0  0  0  0  0  0  0  0  0  0  0  0
   39.1820   31.2860   39.3040 H   0  0  0  0  0  0  0  0  0  0  0  0
   41.0060   34.6720   40.5080 C   0  0  0  0  0  0  0  0  0  0  0  0
   40.1390   33.5950   40.4530 C   0  0  0  0  0  0  0  0  0  0  0  0
   38.8040   33.8770   40.1840 C   0  0  0  0  0  0  0  0  0  0  0  0
   38.4130   35.1580   39.9900 N   0  0  0  0  0  0  0  0  0  0  0  0
   39.3050   36.1850   40.0530 C   0  0  0  0  0  0  0  0  0  0  0  0
   40.6040   35.9300   40.3140 N   0  0  0  0  0  0  0  0  0  0  0  0
   40.4260   32.5720   40.6050 H   0  0  0  0  0  0  0  0  0  0  0  0
   39.0070   37.2220   39.9000 H   0  0  0  0  0  0  0  0  0  0  0  0
   42.4520   34.3920   40.7880 C   0  0  0  0  0  0  0  0  0  0  0  0
   42.5140   33.2230   41.5120 F   0  0  0  0  0  0  0  0  0  0  0  0
   42.9190   35.4140   41.5880 F   0  0  0  0  0  0  0  0  0  0  0  0
   43.1620   34.2610   39.6310 F   0  0  0  0  0  0  0  0  0  0  0  0
   37.3420   30.3290   40.1590 C   0  0  0  0  0  0  0  0  0  0  0  0
   36.1720   30.4020   40.9080 C   0  0  0  0  0  0  0  0  0  0  0  0
   35.8460   29.0730   41.0890 C   0  0  0  0  0  0  0  0  0  0  0  0
   36.8030   28.2480   40.4630 C   0  0  0  0  0  0  0  0  0  0  0  0
   37.6510   29.0880   39.9400 O   0  0  0  0  0  0  0  0  0  0  0  0
   35.6680   31.2910   41.2470 H   0  0  0  0  0  0  0  0  0  0  0  0
   34.9620   28.7390   41.6470 H   0  0  0  0  0  0  0  0  0  0  0  0
   37.1030   26.0630   41.5730 C   0  0  0  0  0  3  0  0  0  0  0  0
   36.7890   26.7880   40.4430 C   0  0  0  0  0  0  0  0  0  0  0  0
   36.4490   26.1960   39.2410 C   0  0  0  0  0  0  0  0  0  0  0  0
   36.1990   26.7710   38.3430 H   0  0  0  0  0  0  0  0  0  0  0  0
   36.4120   24.8310   39.1350 C   0  0  0  0  0  0  0  0  0  0  0  0
   36.1260   23.9940   38.1330 N   0  0  0  0  0  0  0  0  0  0  0  0
   36.2520   22.7550   38.6050 C   0  0  0  0  0  0  0  0  0  0  0  0
   36.1010   21.8060   38.0840 H   0  0  0  0  0  0  0  0  0  0  0  0
   36.6220   22.7930   39.9180 N   0  0  0  0  0  0  0  0  0  0  0  0
   36.7250   24.1050   40.2620 C   0  0  0  0  0  0  0  0  0  0  0  0
   37.0730   24.6680   41.4880 C   0  0  0  0  0  3  0  0  0  0  0  0
   35.8490   24.2590   37.1450 H   0  0  0  0  0  0  0  0  0  0  0  0
  1 10  1  0  0  0  0
  1  4  1  1  0  0  0
  2  3  1  0  0  0  0
  2  1  1  0  0  0  0
  3  7  1  6  0  0  0
  3  1  1  0  0  0  0
  3 20  1  0  0  0  0
  5  2  1  0  0  0  0
  6  2  1  0  0  0  0
  8 16  1  0  0  0  0
  9  8  1  0  0  0  0
  9 14  1  0  0  0  0
 10  9  2  0  0  0  0
 11 12  2  0  0  0  0
 11 10  1  0  0  0  0
 12 13  1  0  0  0  0
 13  8  2  0  0  0  0
 15 12  1  0  0  0  0
 16 17  1  0  0  0  0
 16 18  1  0  0  0  0
 19 16  1  0  0  0  0
 20 21  2  0  0  0  0
 21 22  1  0  0  0  0
 21 25  1  0  0  0  0
 22 26  1  0  0  0  0
 23 22  2  0  0  0  0
 24 20  1  0  0  0  0
 24 23  1  0  0  0  0
 28 23  1  0  0  0  0
 28 27  2  0  0  0  0
 29 28  1  0  0  0  0
 30 29  1  0  0  0  0
 31 29  2  0  0  0  0
 31 36  1  0  0  0  0
 32 33  1  0  0  0  0
 32 31  1  0  0  0  0
 33 35  2  0  0  0  0
 34 33  1  0  0  0  0
 35 36  1  0  0  0  0
 36 37  2  0  0  0  0
 37 27  1  0  0  0  0
 38 32  1  0  0  0  0
M  END
>  <minimizedAffinity>
-6.54446268

$$$$

 OpenBabel03252501173D

 38 42  0  0  1  0  0  0  0  0999 V2000
   39.5470   30.8170   41.0870 C   0  0  1  0  0  0  0  0  0  0  0  0
   40.5150   30.3620   42.1110 C   0  0  0  0  0  0  0  0  0  0  0  0
   38.9790   30.5580   42.4080 C   0  0  2  0  0  0  0  0  0  0  0  0
   39.3670   30.0990   40.2370 H   0  0  0  0  0  0  0  0  0  0  0  0
   41.1480   31.0690   42.6690 H   0  0  0  0  0  0  0  0  0  0  0  0
   40.8770   29.3170   42.1170 H   0  0  0  0  0  0  0  0  0  0  0  0
   38.7520   31.3920   43.0700 H   0  0  0  0  0  0  0  0  0  0  0  0
   40.8410   33.9170   39.4070 C   0  0  0  0  0  0  0  0  0  0  0  0
   40.7630   32.5840   39.7710 C   0  0  0  0  0  0  0  0  0  0  0  0
   39.7240   32.2250   40.6220 C   0  0  0  0  0  0  0  0  0  0  0  0
   38.8510   33.1660   41.0510 N   0  0  0  0  0  0  0  0  0  0  0  0
   38.9690   34.4660   40.6640 C   0  0  0  0  0  0  0  0  0  0  0  0
   39.9710   34.8320   39.8390 N   0  0  0  0  0  0  0  0  0  0  0  0
   41.4440   31.8210   39.4440 H   0  0  0  0  0  0  0  0  0  0  0  0
   38.2750   35.2360   41.0020 H   0  0  0  0  0  0  0  0  0  0  0  0
   41.9480   34.3260   38.4810 C   0  0  0  0  0  0  0  0  0  0  0  0
   41.8260   35.6800   38.2660 F   0  0  0  0  0  0  0  0  0  0  0  0
   41.7350   33.6830   37.2810 F   0  0  0  0  0  0  0  0  0  0  0  0
   43.1690   34.0490   39.0210 F   0  0  0  0  0  0  0  0  0  0  0  0
   38.2720   29.2580   42.5750 C   0  0  0  0  0  0  0  0  0  0  0  0
   37.7340   28.7320   43.7450 C   0  0  0  0  0  0  0  0  0  0  0  0
   37.2060   27.5290   43.3200 C   0  0  0  0  0  0  0  0  0  0  0  0
   37.4330   27.3590   41.9380 C   0  0  0  0  0  0  0  0  0  0  0  0
   38.0730   28.4390   41.5870 O   0  0  0  0  0  0  0  0  0  0  0  0
   37.7410   29.1770   44.7240 H   0  0  0  0  0  0  0  0  0  0  0  0
   36.6910   26.8260   43.9870 H   0  0  0  0  0  0  0  0  0  0  0  0
   36.9950   24.9430   41.6830 C   0  0  0  0  0  3  0  0  0  0  0  0
   37.0170   26.2100   41.1390 C   0  0  0  0  0  0  0  0  0  0  0  0
   36.6570   26.4710   39.8310 C   0  0  0  0  0  0  0  0  0  0  0  0
   36.6740   27.4780   39.3970 H   0  0  0  0  0  0  0  0  0  0  0  0
   36.2560   25.4500   39.0120 C   0  0  0  0  0  0  0  0  0  0  0  0
   35.8580   25.3950   37.7370 N   0  0  0  0  0  0  0  0  0  0  0  0
   35.5850   24.1210   37.4630 C   0  0  0  0  0  0  0  0  0  0  0  0
   35.2340   23.6830   36.5250 H   0  0  0  0  0  0  0  0  0  0  0  0
   35.8070   23.3490   38.5660 N   0  0  0  0  0  0  0  0  0  0  0  0
   36.2320   24.1840   39.5540 C   0  0  0  0  0  0  0  0  0  0  0  0
   36.5890   23.8830   40.8660 C   0  0  0  0  0  3  0  0  0  0  0  0
   35.7730   26.2090   37.0650 H   0  0  0  0  0  0  0  0  0  0  0  0
  1  4  1  6  0  0  0
  1  2  1  0  0  0  0
  1  3  1  0  0  0  0
  2  6  1  0  0  0  0
  2  3  1  0  0  0  0
  2  5  1  0  0  0  0
  3 20  1  0  0  0  0
  3  7  1  1  0  0  0
  8  9  2  0  0  0  0
  8 13  1  0  0  0  0
  9 10  1  0  0  0  0
 10 11  2  0  0  0  0
 10  1  1  0  0  0  0
 12 15  1  0  0  0  0
 12 11  1  0  0  0  0
 13 12  2  0  0  0  0
 14  9  1  0  0  0  0
 16 19  1  0  0  0  0
 16  8  1  0  0  0  0
 17 16  1  0  0  0  0
 18 16  1  0  0  0  0
 20 21  2  0  0  0  0
 21 25  1  0  0  0  0
 22 21  1  0  0  0  0
 22 26  1  0  0  0  0
 23 22  2  0  0  0  0
 24 23  1  0  0  0  0
 24 20  1  0  0  0  0
 28 27  1  0  0  0  0
 28 23  1  0  0  0  0
 29 28  2  0  0  0  0
 30 29  1  0  0  0  0
 31 36  2  0  0  0  0
 31 29  1  0  0  0  0
 32 31  1  0  0  0  0
 33 32  1  0  0  0  0
 33 35  2  0  0  0  0
 34 33  1  0  0  0  0
 35 36  1  0  0  0  0
 36 37  1  0  0  0  0
 37 27  2  0  0  0  0
 38 32  1  0  0  0  0
M  END
>  <minimizedAffinity>
-6.43326092

$$$$

 OpenBabel03252501173D

 38 42  0  0  1  0  0  0  0  0999 V2000
   36.2810   27.4400   39.0470 C   0  0  1  0  0  0  0  0  0  0  0  0
   37.1090   27.2740   37.8320 C   0  0  0  0  0  0  0  0  0  0  0  0
   35.7420   26.5180   38.0500 C   0  0  2  0  0  0  0  0  0  0  0  0
   35.8240   28.4610   39.1870 H   0  0  0  0  0  0  0  0  0  0  0  0
   37.9710   26.5900   37.8030 H   0  0  0  0  0  0  0  0  0  0  0  0
   37.1100   28.0480   37.0420 H   0  0  0  0  0  0  0  0  0  0  0  0
   35.8420   25.4440   38.2000 H   0  0  0  0  0  0  0  0  0  0  0  0
   37.4290   27.0330   42.6010 C   0  0  0  0  0  0  0  0  0  0  0  0
   36.8390   27.6200   41.4940 C   0  0  0  0  0  0  0  0  0  0  0  0
   36.8780   26.9010   40.3060 C   0  0  0  0  0  0  0  0  0  0  0  0
   37.4750   25.6860   40.2740 N   0  0  0  0  0  0  0  0  0  0  0  0
   38.0410   25.1500   41.3900 C   0  0  0  0  0  0  0  0  0  0  0  0
   38.0130   25.8340   42.5520 N   0  0  0  0  0  0  0  0  0  0  0  0
   36.3620   28.5820   41.4960 H   0  0  0  0  0  0  0  0  0  0  0  0
   38.5260   24.1730   41.3810 H   0  0  0  0  0  0  0  0  0  0  0  0
   37.3910   27.7860   43.8960 C   0  0  0  0  0  0  0  0  0  0  0  0
   38.3560   27.2460   44.7160 F   0  0  0  0  0  0  0  0  0  0  0  0
   36.1610   27.5470   44.4720 F   0  0  0  0  0  0  0  0  0  0  0  0
   37.6360   29.1130   43.7030 F   0  0  0  0  0  0  0  0  0  0  0  0
   34.6610   27.0540   37.1770 C   0  0  0  0  0  0  0  0  0  0  0  0
   34.3130   26.6230   35.9010 C   0  0  0  0  0  0  0  0  0  0  0  0
   33.2610   27.4560   35.5780 C   0  0  0  0  0  0  0  0  0  0  0  0
   33.0050   28.3500   36.6380 C   0  0  0  0  0  0  0  0  0  0  0  0
   33.8900   28.0320   37.5410 O   0  0  0  0  0  0  0  0  0  0  0  0
   34.7680   25.8310   35.3320 H   0  0  0  0  0  0  0  0  0  0  0  0
   32.7220   27.4070   34.6230 H   0  0  0  0  0  0  0  0  0  0  0  0
   31.7110   30.1440   35.5400 C   0  0  0  0  0  3  0  0  0  0  0  0
   31.9680   29.3780   36.6580 C   0  0  0  0  0  0  0  0  0  0  0  0
   31.2770   29.5280   37.8460 C   0  0  0  0  0  0  0  0  0  0  0  0
   31.4800   28.9200   38.7340 H   0  0  0  0  0  0  0  0  0  0  0  0
   30.2890   30.4690   37.9500 C   0  0  0  0  0  0  0  0  0  0  0  0
   29.4690   30.8370   38.9410 N   0  0  0  0  0  0  0  0  0  0  0  0
   28.7000   31.8180   38.4730 C   0  0  0  0  0  0  0  0  0  0  0  0
   27.9110   32.3720   38.9880 H   0  0  0  0  0  0  0  0  0  0  0  0
   29.0240   32.0860   37.1750 N   0  0  0  0  0  0  0  0  0  0  0  0
   30.0300   31.2340   36.8350 C   0  0  0  0  0  0  0  0  0  0  0  0
   30.7060   31.1110   35.6230 C   0  0  0  0  0  3  0  0  0  0  0  0
   29.4330   30.4270   39.9170 H   0  0  0  0  0  0  0  0  0  0  0  0
  1  4  1  1  0  0  0
  1 10  1  0  0  0  0
  2  3  1  0  0  0  0
  2  1  1  0  0  0  0
  3  7  1  1  0  0  0
  3  1  1  0  0  0  0
  5  2  1  0  0  0  0
  6  2  1  0  0  0  0
  8 16  1  0  0  0  0
  9 14  1  0  0  0  0
  9  8  2  0  0  0  0
 10  9  1  0  0  0  0
 11 10  2  0  0  0  0
 11 12  1  0  0  0  0
 12 13  2  0  0  0  0
 13  8  1  0  0  0  0
 15 12  1  0  0  0  0
 16 18  1  0  0  0  0
 16 17  1  0  0  0  0
 19 16  1  0  0  0  0
 20 24  1  0  0  0  0
 20  3  1  0  0  0  0
 21 20  2  0  0  0  0
 22 21  1  0  0  0  0
 22 23  2  0  0  0  0
 23 28  1  0  0  0  0
 23 24  1  0  0  0  0
 25 21  1  0  0  0  0
 26 22  1  0  0  0  0
 27 37  2  0  0  0  0
 27 28  1  0  0  0  0
 28 29  2  0  0  0  0
 29 31  1  0  0  0  0
 29 30  1  0  0  0  0
 31 32  1  0  0  0  0
 32 38  1  0  0  0  0
 33 32  1  0  0  0  0
 33 34  1  0  0  0  0
 35 33  2  0  0  0  0
 36 35  1  0  0  0  0
 36 31  2  0  0  0  0
 37 36  1  0  0  0  0
M  END
>  <minimizedAffinity>
-6.22878265

$$$$

 OpenBabel03252501173D

 38 42  0  0  1  0  0  0  0  0999 V2000
   36.9340   25.2780   40.9760 C   0  0  1  0  0  0  0  0  0  0  0  0
   36.9340   24.9950   42.4300 C   0  0  0  0  0  0  0  0  0  0  0  0
   38.2000   25.5350   41.6590 C   0  0  2  0  0  0  0  0  0  0  0  0
   36.2780   26.1340   40.6480 H   0  0  0  0  0  0  0  0  0  0  0  0
   37.0800   23.9790   42.8250 H   0  0  0  0  0  0  0  0  0  0  0  0
   36.4650   25.7020   43.1400 H   0  0  0  0  0  0  0  0  0  0  0  0
   39.0140   24.8170   41.5740 H   0  0  0  0  0  0  0  0  0  0  0  0
   35.5730   22.3200   39.1020 C   0  0  0  0  0  0  0  0  0  0  0  0
   35.5850   23.4240   39.9380 C   0  0  0  0  0  0  0  0  0  0  0  0
   36.8010   24.0800   40.0930 C   0  0  0  0  0  0  0  0  0  0  0  0
   37.8970   23.6290   39.4400 N   0  0  0  0  0  0  0  0  0  0  0  0
   37.8350   22.5380   38.6280 C   0  0  0  0  0  0  0  0  0  0  0  0
   36.6640   21.8890   38.4660 N   0  0  0  0  0  0  0  0  0  0  0  0
   34.7290   23.7990   40.4660 H   0  0  0  0  0  0  0  0  0  0  0  0
   38.7090   22.1610   38.0950 H   0  0  0  0  0  0  0  0  0  0  0  0
   34.2710   21.6020   38.9110 C   0  0  0  0  0  0  0  0  0  0  0  0
   33.9120   21.7420   37.5900 F   0  0  0  0  0  0  0  0  0  0  0  0
   33.3290   22.2510   39.6800 F   0  0  0  0  0  0  0  0  0  0  0  0
   34.3870   20.2790   39.2230 F   0  0  0  0  0  0  0  0  0  0  0  0
   38.4900   26.9580   41.9890 C   0  0  0  0  0  0  0  0  0  0  0  0
   39.1860   27.4460   43.0900 C   0  0  0  0  0  0  0  0  0  0  0  0
   39.1560   28.8110   42.8850 C   0  0  0  0  0  0  0  0  0  0  0  0
   38.4590   29.1090   41.6960 C   0  0  0  0  0  0  0  0  0  0  0  0
   38.1030   27.9420   41.2370 O   0  0  0  0  0  0  0  0  0  0  0  0
   39.6280   26.8760   43.8880 H   0  0  0  0  0  0  0  0  0  0  0  0
   39.6160   29.5350   43.5700 H   0  0  0  0  0  0  0  0  0  0  0  0
   37.1300   30.7010   40.3560 C   0  0  0  0  0  3  0  0  0  0  0  0
   38.2250   30.4450   41.1550 C   0  0  0  0  0  0  0  0  0  0  0  0
   39.1530   31.4130   41.4900 C   0  0  0  0  0  0  0  0  0  0  0  0
   40.0230   31.2100   42.1240 H   0  0  0  0  0  0  0  0  0  0  0  0
   39.0090   32.6920   41.0240 C   0  0  0  0  0  0  0  0  0  0  0  0
   39.7230   33.8120   41.1730 N   0  0  0  0  0  0  0  0  0  0  0  0
   39.1050   34.7700   40.4870 C   0  0  0  0  0  0  0  0  0  0  0  0
   39.3880   35.8190   40.3710 H   0  0  0  0  0  0  0  0  0  0  0  0
   37.9850   34.2670   39.8900 N   0  0  0  0  0  0  0  0  0  0  0  0
   37.9160   32.9500   40.2260 C   0  0  0  0  0  0  0  0  0  0  0  0
   36.9620   32.0000   39.8680 C   0  0  0  0  0  3  0  0  0  0  0  0
   40.6160   33.9230   41.7330 H   0  0  0  0  0  0  0  0  0  0  0  0
  1  4  1  6  0  0  0
  1  3  1  0  0  0  0
  1  2  1  0  0  0  0
  2  5  1  0  0  0  0
  2  6  1  0  0  0  0
  3  7  1  6  0  0  0
  3 20  1  0  0  0  0
  3  2  1  0  0  0  0
  8  9  1  0  0  0  0
  9 10  2  0  0  0  0
  9 14  1  0  0  0  0
 10  1  1  0  0  0  0
 11 10  1  0  0  0  0
 12 11  2  0  0  0  0
 13 12  1  0  0  0  0
 13  8  2  0  0  0  0
 15 12  1  0  0  0  0
 16  8  1  0  0  0  0
 16 19  1  0  0  0  0
 16 18  1  0  0  0  0
 17 16  1  0  0  0  0
 20 21  2  0  0  0  0
 21 25  1  0  0  0  0
 22 21  1  0  0  0  0
 22 26  1  0  0  0  0
 23 22  2  0  0  0  0
 24 23  1  0  0  0  0
 24 20  1  0  0  0  0
 27 28  1  0  0  0  0
 28 29  2  0  0  0  0
 28 23  1  0  0  0  0
 29 30  1  0  0  0  0
 31 32  1  0  0  0  0
 31 29  1  0  0  0  0
 32 38  1  0  0  0  0
 33 32  1  0  0  0  0
 34 33  1  0  0  0  0
 35 36  1  0  0  0  0
 35 33  2  0  0  0  0
 36 31  2  0  0  0  0
 37 36  1  0  0  0  0
 37 27  2  0  0  0  0
M  END
>  <minimizedAffinity>
-6.1608119

$$$$

 OpenBabel03252501173D

 38 42  0  0  1  0  0  0  0  0999 V2000
   37.5400   25.0590   40.9270 C   0  0  1  0  0  0  0  0  0  0  0  0
   36.6990   24.7450   42.1030 C   0  0  0  0  0  0  0  0  0  0  0  0
   38.0990   25.4610   42.2150 C   0  0  2  0  0  0  0  0  0  0  0  0
   37.1190   25.8320   40.2220 H   0  0  0  0  0  0  0  0  0  0  0  0
   36.6950   23.7460   42.5660 H   0  0  0  0  0  0  0  0  0  0  0  0
   35.8180   25.3680   42.3480 H   0  0  0  0  0  0  0  0  0  0  0  0
   38.8780   24.8550   42.6770 H   0  0  0  0  0  0  0  0  0  0  0  0
   39.5960   22.8500   38.6900 C   0  0  0  0  0  0  0  0  0  0  0  0
   39.1510   24.0080   39.3040 C   0  0  0  0  0  0  0  0  0  0  0  0
   38.1060   23.8760   40.2120 C   0  0  0  0  0  0  0  0  0  0  0  0
   37.5770   22.6540   40.4550 N   0  0  0  0  0  0  0  0  0  0  0  0
   38.0500   21.5430   39.8270 C   0  0  0  0  0  0  0  0  0  0  0  0
   39.0630   21.6520   38.9430 N   0  0  0  0  0  0  0  0  0  0  0  0
   39.5550   24.9870   39.1260 H   0  0  0  0  0  0  0  0  0  0  0  0
   37.6340   20.5520   40.0110 H   0  0  0  0  0  0  0  0  0  0  0  0
   40.7290   22.9660   37.7150 C   0  0  0  0  0  0  0  0  0  0  0  0
   41.5840   23.9350   38.1880 F   0  0  0  0  0  0  0  0  0  0  0  0
   40.1980   23.4110   36.5230 F   0  0  0  0  0  0  0  0  0  0  0  0
   41.3930   21.7820   37.5880 F   0  0  0  0  0  0  0  0  0  0  0  0
   37.9650   26.9000   42.5700 C   0  0  0  0  0  0  0  0  0  0  0  0
   37.7140   27.4430   43.8260 C   0  0  0  0  0  0  0  0  0  0  0  0
   37.6970   28.7990   43.5710 C   0  0  0  0  0  0  0  0  0  0  0  0
   37.9290   29.0400   42.2010 C   0  0  0  0  0  0  0  0  0  0  0  0
   38.0750   27.8490   41.6910 O   0  0  0  0  0  0  0  0  0  0  0  0
   37.5750   26.9100   44.7510 H   0  0  0  0  0  0  0  0  0  0  0  0
   37.5220   29.5570   44.3460 H   0  0  0  0  0  0  0  0  0  0  0  0
   36.8970   30.8410   40.8650 C   0  0  0  0  0  3  0  0  0  0  0  0
   37.9820   30.3510   41.5610 C   0  0  0  0  0  0  0  0  0  0  0  0
   39.1660   31.0510   41.6960 C   0  0  0  0  0  0  0  0  0  0  0  0
   40.0290   30.6630   42.2490 H   0  0  0  0  0  0  0  0  0  0  0  0
   39.3000   32.2880   41.1260 C   0  0  0  0  0  0  0  0  0  0  0  0
   40.2960   33.1810   41.0870 N   0  0  0  0  0  0  0  0  0  0  0  0
   39.8640   34.2240   40.3810 C   0  0  0  0  0  0  0  0  0  0  0  0
   40.3920   35.1480   40.1330 H   0  0  0  0  0  0  0  0  0  0  0  0
   38.5840   34.0050   39.9630 N   0  0  0  0  0  0  0  0  0  0  0  0
   38.2180   32.7810   40.4310 C   0  0  0  0  0  0  0  0  0  0  0  0
   37.0110   32.1030   40.2740 C   0  0  0  0  0  3  0  0  0  0  0  0
   41.2520   33.0820   41.5320 H   0  0  0  0  0  0  0  0  0  0  0  0
  1  4  1  6  0  0  0
  1  2  1  0  0  0  0
  1  3  1  0  0  0  0
  2  3  1  0  0  0  0
  2  6  1  0  0  0  0
  2  5  1  0  0  0  0
  3 20  1  0  0  0  0
  3  7  1  1  0  0  0
  8 13  2  0  0  0  0
  8  9  1  0  0  0  0
  9 10  2  0  0  0  0
 10 11  1  0  0  0  0
 10  1  1  0  0  0  0
 12 15  1  0  0  0  0
 12 11  2  0  0  0  0
 13 12  1  0  0  0  0
 14  9  1  0  0  0  0
 16 17  1  0  0  0  0
 16  8  1  0  0  0  0
 18 16  1  0  0  0  0
 19 16  1  0  0  0  0
 20 21  2  0  0  0  0
 21 25  1  0  0  0  0
 22 21  1  0  0  0  0
 22 26  1  0  0  0  0
 23 22  2  0  0  0  0
 24 23  1  0  0  0  0
 24 20  1  0  0  0  0
 27 28  1  0  0  0  0
 28 29  2  0  0  0  0
 28 23  1  0  0  0  0
 29 30  1  0  0  0  0
 31 29  1  0  0  0  0
 32 31  1  0  0  0  0
 32 38  1  0  0  0  0
 33 32  1  0  0  0  0
 34 33  1  0  0  0  0
 35 33  2  0  0  0  0
 35 36  1  0  0  0  0
 36 31  2  0  0  0  0
 37 36  1  0  0  0  0
 37 27  2  0  0  0  0
M  END
>  <minimizedAffinity>
-6.15388632

$$$$
