
 OpenBabel03252509293D

 24 26  0  0  0  0  0  0  0  0999 V2000
   46.5270   34.8420   42.9570 C   0  0  0  0  0  0  0  0  0  0  0  0
   47.4620   34.6450   42.4130 H   0  0  0  0  0  0  0  0  0  0  0  0
   46.6240   35.8770   43.3510 H   0  0  0  0  0  0  0  0  0  0  0  0
   47.1510   32.7760   44.1330 C   0  0  0  0  0  3  0  0  0  0  0  0
   46.4250   33.9490   44.1430 C   0  0  0  0  0  0  0  0  0  0  0  0
   45.6330   34.2690   45.2270 C   0  0  0  0  0  0  0  0  0  0  0  0
   45.0530   35.1960   45.2470 H   0  0  0  0  0  0  0  0  0  0  0  0
   45.5530   33.4250   46.3180 C   0  0  0  0  0  0  0  0  0  0  0  0
   44.8760   33.4740   47.4990 N   0  0  0  0  0  0  0  0  0  0  0  0
   45.2110   32.3330   48.1680 C   0  0  0  0  0  0  0  0  0  0  0  0
   44.8240   32.0850   49.1490 H   0  0  0  0  0  0  0  0  0  0  0  0
   46.0700   31.5940   47.4290 N   0  0  0  0  0  0  0  0  0  0  0  0
   46.2800   32.2710   46.2870 C   0  0  0  0  0  0  0  0  0  0  0  0
   47.0910   31.9060   45.2190 C   0  0  0  0  0  3  0  0  0  0  0  0
   44.2360   34.2390   47.8100 H   0  0  0  0  0  0  0  0  0  0  0  0
   44.2530   33.8380   40.1910 C   0  0  0  0  0  0  0  0  0  0  0  0
   45.3750   33.8880   41.0460 C   0  0  0  0  0  0  0  0  0  0  0  0
   45.3570   34.8040   42.0830 C   0  0  0  0  0  0  0  0  0  0  0  0
   44.2660   35.6120   42.2340 N   0  0  0  0  0  0  0  0  0  0  0  0
   43.2130   35.5320   41.3940 C   0  0  0  0  0  0  0  0  0  0  0  0
   43.2010   34.6580   40.3840 N   0  0  0  0  0  0  0  0  0  0  0  0
   44.2180   33.1400   39.3650 H   0  0  0  0  0  0  0  0  0  0  0  0
   46.1790   33.2100   40.8390 H   0  0  0  0  0  0  0  0  0  0  0  0
   42.3610   36.2080   41.5640 H   0  0  0  0  0  0  0  0  0  0  0  0
  1  3  1  0  0  0  0
  1  5  1  0  0  0  0
  2  1  1  0  0  0  0
  4  5  2  0  0  0  0
  4 14  1  0  0  0  0
  5  6  1  0  0  0  0
  6  7  1  0  0  0  0
  6  8  2  0  0  0  0
  8  9  1  0  0  0  0
  9 15  1  0  0  0  0
  9 10  1  0  0  0  0
 10 11  1  0  0  0  0
 12 10  2  0  0  0  0
 13  8  1  0  0  0  0
 13 12  1  0  0  0  0
 14 13  2  0  0  0  0
 16 21  2  0  0  0  0
 16 17  1  0  0  0  0
 17 18  2  0  0  0  0
 18 19  1  0  0  0  0
 18  1  1  0  0  0  0
 20 24  1  0  0  0  0
 20 19  2  0  0  0  0
 21 20  1  0  0  0  0
 22 16  1  0  0  0  0
 23 17  1  0  0  0  0
M  END
>  <minimizedAffinity>
-5.05803967

>  <minimizedRMSD>
5.83911467

$$$$
