
 OpenBabel03242519473D

 41 44  0  0  1  0  0  0  0  0999 V2000
   46.5850   32.9010   46.7510 C   0  0  2  0  0  0  0  0  0  0  0  0
   47.0710   32.8080   45.3600 C   0  0  1  0  0  0  0  0  0  0  0  0
   46.6760   31.4600   44.9360 O   0  0  0  0  0  0  0  0  0  0  0  0
   47.3100   30.7880   46.0080 C   0  0  0  0  0  0  0  0  0  0  0  0
   46.5630   31.4480   47.1990 C   0  0  2  0  0  0  0  0  0  0  0  0
   47.2050   33.5200   47.4220 H   0  0  0  0  0  0  0  0  0  0  0  0
   48.1590   32.7800   45.2460 H   0  0  0  0  0  0  0  0  0  0  0  0
   47.2750   29.7280   45.9860 H   0  0  0  0  0  0  0  0  0  0  0  0
   48.3700   31.1490   46.0130 H   0  0  0  0  0  0  0  0  0  0  0  0
   47.1860   31.2230   48.0930 H   0  0  0  0  0  0  0  0  0  0  0  0
   44.7260   35.2470   43.9900 C   0  0  0  0  0  0  0  0  0  0  0  0
   45.3500   35.6960   42.8270 C   0  0  0  0  0  0  0  0  0  0  0  0
   46.6070   35.1550   42.4880 C   0  0  0  0  0  0  0  0  0  0  0  0
   47.1660   34.2080   43.3130 N   0  0  0  0  0  0  0  0  0  0  0  0
   46.5280   33.8000   44.4310 C   0  0  0  0  0  0  0  0  0  0  0  0
   45.3160   34.3060   44.7800 N   0  0  0  0  0  0  0  0  0  0  0  0
   44.8820   36.4340   42.2140 H   0  0  0  0  0  0  0  0  0  0  0  0
   47.1200   35.4810   41.5920 H   0  0  0  0  0  0  0  0  0  0  0  0
   43.4780   35.7450   44.3820 O   0  0  0  0  0  0  0  0  0  0  0  0
   42.8940   36.0720   43.6130 H   0  0  0  0  0  0  0  0  0  0  0  0
   45.2300   33.3820   46.7510 O   0  0  0  0  0  0  0  0  0  0  0  0
   44.9690   33.3490   47.7050 H   0  0  0  0  0  0  0  0  0  0  0  0
   45.2990   30.9430   47.2100 O   0  0  0  0  0  0  0  0  0  0  0  0
   45.0080   29.9920   48.1550 C   0  0  0  0  0  0  0  0  0  0  0  0
   45.3820   30.2760   49.1330 H   0  0  0  0  0  0  0  0  0  0  0  0
   43.8450   30.2020   48.3530 H   0  0  0  0  0  0  0  0  0  0  0  0
   45.1170   28.5820   47.7430 C   0  0  0  0  0  0  0  0  0  0  0  0
   46.1510   28.2210   47.5780 H   0  0  0  0  0  0  0  0  0  0  0  0
   44.5790   27.9410   48.4860 H   0  0  0  0  0  0  0  0  0  0  0  0
   43.1290   28.5600   46.0490 C   0  0  0  0  0  3  0  0  0  0  0  0
   44.4360   28.3910   46.4350 C   0  0  0  0  0  0  0  0  0  0  0  0
   45.2540   27.9470   45.3820 C   0  0  0  0  0  0  0  0  0  0  0  0
   46.3100   27.7760   45.5600 H   0  0  0  0  0  0  0  0  0  0  0  0
   44.8400   27.6970   44.0920 C   0  0  0  0  0  0  0  0  0  0  0  0
   45.4770   27.2770   42.9860 N   0  0  0  0  0  0  0  0  0  0  0  0
   44.5780   27.2050   41.9940 C   0  0  0  0  0  0  0  0  0  0  0  0
   44.7450   26.9020   40.9670 H   0  0  0  0  0  0  0  0  0  0  0  0
   43.3650   27.5840   42.4900 N   0  0  0  0  0  0  0  0  0  0  0  0
   43.5180   27.8900   43.7890 C   0  0  0  0  0  0  0  0  0  0  0  0
   42.6620   28.3240   44.7770 C   0  0  0  0  0  3  0  0  0  0  0  0
   46.4820   27.0510   42.9170 H   0  0  0  0  0  0  0  0  0  0  0  0
  1 21  1  0  0  0  0
  1  5  1  0  0  0  0
  1  6  1  1  0  0  0
  2  7  1  6  0  0  0
  2  1  1  0  0  0  0
  3  2  1  0  0  0  0
  3  4  1  0  0  0  0
  4  9  1  0  0  0  0
  4  5  1  0  0  0  0
  5 23  1  0  0  0  0
  5 10  1  1  0  0  0
  8  4  1  0  0  0  0
 11 19  1  0  0  0  0
 11 16  1  0  0  0  0
 12 11  2  0  0  0  0
 13 12  1  0  0  0  0
 13 14  2  0  0  0  0
 14 15  1  0  0  0  0
 15 16  2  0  0  0  0
 15  2  1  0  0  0  0
 17 12  1  0  0  0  0
 18 13  1  0  0  0  0
 20 19  1  0  0  0  0
 21 22  1  0  0  0  0
 23 24  1  0  0  0  0
 24 26  1  0  0  0  0
 24 25  1  0  0  0  0
 27 24  1  0  0  0  0
 27 29  1  0  0  0  0
 28 27  1  0  0  0  0
 30 31  1  0  0  0  0
 31 27  1  0  0  0  0
 32 33  1  0  0  0  0
 32 31  2  0  0  0  0
 34 32  1  0  0  0  0
 35 34  1  0  0  0  0
 36 38  2  0  0  0  0
 36 35  1  0  0  0  0
 37 36  1  0  0  0  0
 38 39  1  0  0  0  0
 39 34  2  0  0  0  0
 39 40  1  0  0  0  0
 40 30  2  0  0  0  0
 41 35  1  0  0  0  0
M  END
>  <minimizedAffinity>
-5.20435619

>  <minimizedRMSD>
0.735690653

$$$$
