
 OpenBabel03252509083D

 44 48  0  0  0  0  0  0  0  0999 V2000
   46.8920   31.6610   39.3240 C   0  0  0  0  0  0  0  0  0  0  0  0
   46.6230   32.9920   39.1870 C   0  0  0  0  0  0  0  0  0  0  0  0
   47.3520   33.7490   38.2860 C   0  0  0  0  0  0  0  0  0  0  0  0
   48.3440   33.1700   37.5290 C   0  0  0  0  0  0  0  0  0  0  0  0
   48.6490   31.8170   37.6380 C   0  0  0  0  0  0  0  0  0  0  0  0
   47.9000   31.0720   38.5550 C   0  0  0  0  0  0  0  0  0  0  0  0
   47.1550   34.8090   38.1600 H   0  0  0  0  0  0  0  0  0  0  0  0
   48.9520   33.6780   36.8120 H   0  0  0  0  0  0  0  0  0  0  0  0
   49.4030   31.2810   37.0910 H   0  0  0  0  0  0  0  0  0  0  0  0
   48.1130   30.0100   38.6650 H   0  0  0  0  0  0  0  0  0  0  0  0
   45.2290   35.7840   43.3000 Cl  0  0  0  0  0  0  0  0  0  0  0  0
   44.9230   34.9540   41.7950 C   0  0  0  0  0  0  0  0  0  0  0  0
   45.9240   34.3250   41.1260 C   0  0  0  0  0  0  0  0  0  0  0  0
   45.5890   33.6970   39.9320 C   0  0  0  0  0  0  0  0  0  0  0  0
   44.3090   33.7100   39.4420 C   0  0  0  0  0  0  0  0  0  0  0  0
   43.3190   34.3430   40.1220 C   0  0  0  0  0  0  0  0  0  0  0  0
   43.6350   34.9710   41.3130 C   0  0  0  0  0  0  0  0  0  0  0  0
   44.1090   33.2040   38.5020 H   0  0  0  0  0  0  0  0  0  0  0  0
   42.3290   34.3270   39.7040 H   0  0  0  0  0  0  0  0  0  0  0  0
   42.8220   35.4640   41.8270 H   0  0  0  0  0  0  0  0  0  0  0  0
   49.4670   35.3660   41.9460 C   0  0  0  0  0  0  0  0  0  0  0  0
   48.1740   35.3580   41.4130 C   0  0  0  0  0  0  0  0  0  0  0  0
   47.2690   34.3420   41.6700 C   0  0  0  0  0  0  0  0  0  0  0  0
   47.7530   33.3850   42.4700 N   0  0  0  0  0  0  0  0  0  0  0  0
   48.9800   33.3740   42.9880 C   0  0  0  0  0  0  0  0  0  0  0  0
   49.8330   34.3540   42.7310 N   0  0  0  0  0  0  0  0  0  0  0  0
   50.1370   36.1800   41.7170 H   0  0  0  0  0  0  0  0  0  0  0  0
   47.8610   36.1840   40.7660 H   0  0  0  0  0  0  0  0  0  0  0  0
   49.1780   32.5030   43.6140 H   0  0  0  0  0  0  0  0  0  0  0  0
   46.0540   30.6920   40.4230 S   0  0  0  0  0  0  0  0  0  0  0  0
   46.1910   29.2080   39.9940 O   0  0  0  0  0  0  0  0  0  0  0  0
   46.8440   30.7490   41.7290 O   0  0  0  0  0  0  0  0  0  0  0  0
   43.8300   31.1830   41.9610 C   0  0  0  0  0  3  0  0  0  0  0  0
   44.3700   30.7600   40.7130 C   0  0  0  0  0  0  0  0  0  0  0  0
   43.3060   30.5170   39.8550 C   0  0  0  0  0  0  0  0  0  0  0  0
   43.5710   30.2180   38.8520 H   0  0  0  0  0  0  0  0  0  0  0  0
   41.9730   30.6360   40.0910 C   0  0  0  0  0  0  0  0  0  0  0  0
   40.8740   30.4310   39.3500 N   0  0  0  0  0  0  0  0  0  0  0  0
   39.8140   30.7250   40.1570 C   0  0  0  0  0  0  0  0  0  0  0  0
   38.7850   30.6510   39.8260 H   0  0  0  0  0  0  0  0  0  0  0  0
   40.2730   31.1080   41.3810 N   0  0  0  0  0  0  0  0  0  0  0  0
   41.6210   31.0560   41.3530 C   0  0  0  0  0  0  0  0  0  0  0  0
   42.5180   31.3500   42.3490 C   0  0  0  0  0  3  0  0  0  0  0  0
   40.8570   30.1130   38.3660 H   0  0  0  0  0  0  0  0  0  0  0  0
  1 30  1  0  0  0  0
  2  1  1  0  0  0  0
  2 14  1  0  0  0  0
  3  2  2  0  0  0  0
  4  5  2  0  0  0  0
  4  3  1  0  0  0  0
  5  6  1  0  0  0  0
  6 10  1  0  0  0  0
  6  1  2  0  0  0  0
  7  3  1  0  0  0  0
  8  4  1  0  0  0  0
  9  5  1  0  0  0  0
 12 11  1  0  0  0  0
 13 23  1  0  0  0  0
 13 12  2  0  0  0  0
 14 13  1  0  0  0  0
 15 14  2  0  0  0  0
 15 16  1  0  0  0  0
 16 17  2  0  0  0  0
 17 12  1  0  0  0  0
 17 20  1  0  0  0  0
 18 15  1  0  0  0  0
 19 16  1  0  0  0  0
 21 26  1  0  0  0  0
 22 23  1  0  0  0  0
 22 21  2  0  0  0  0
 23 24  2  0  0  0  0
 24 25  1  0  0  0  0
 25 29  1  0  0  0  0
 26 25  2  0  0  0  0
 27 21  1  0  0  0  0
 28 22  1  0  0  0  0
 30 34  1  0  0  0  0
 30 32  2  0  0  0  0
 31 30  2  0  0  0  0
 33 43  1  0  0  0  0
 34 33  2  0  0  0  0
 35 37  2  0  0  0  0
 35 34  1  0  0  0  0
 36 35  1  0  0  0  0
 37 42  1  0  0  0  0
 38 37  1  0  0  0  0
 38 39  1  0  0  0  0
 39 41  2  0  0  0  0
 40 39  1  0  0  0  0
 42 41  1  0  0  0  0
 42 43  2  0  0  0  0
 44 38  1  0  0  0  0
M  END
>  <minimizedAffinity>
-5.10934401

>  <minimizedRMSD>
1.39176762

$$$$
