
 OpenBabel03242518103D

 27 29  0  0  0  0  0  0  0  0999 V2000
   36.3230   28.0660   42.1410 C   0  0  0  0  0  0  0  0  0  0  0  0
   35.4330   28.3670   42.7130 H   0  0  0  0  0  0  0  0  0  0  0  0
   36.2050   27.0360   41.7000 H   0  0  0  0  0  0  0  0  0  0  0  0
   36.6790   28.6360   39.6800 C   0  0  0  0  0  3  0  0  0  0  0  0
   36.5590   29.0000   41.0050 C   0  0  0  0  0  0  0  0  0  0  0  0
   36.6620   30.3500   41.3320 C   0  0  0  0  0  0  0  0  0  0  0  0
   36.5710   30.6830   42.3730 H   0  0  0  0  0  0  0  0  0  0  0  0
   36.8790   31.3580   40.4170 C   0  0  0  0  0  0  0  0  0  0  0  0
   37.0070   32.6920   40.5200 N   0  0  0  0  0  0  0  0  0  0  0  0
   37.2050   33.1520   39.2850 C   0  0  0  0  0  0  0  0  0  0  0  0
   37.3380   34.1950   39.0970 H   0  0  0  0  0  0  0  0  0  0  0  0
   37.2000   32.1100   38.4030 N   0  0  0  0  0  0  0  0  0  0  0  0
   36.9950   30.9550   39.0950 C   0  0  0  0  0  0  0  0  0  0  0  0
   36.8970   29.6160   38.7280 C   0  0  0  0  0  3  0  0  0  0  0  0
   36.9570   33.2220   41.4090 H   0  0  0  0  0  0  0  0  0  0  0  0
   37.5620   28.1140   43.0110 C   0  0  0  0  0  0  0  0  0  0  0  0
   37.2240   28.4020   44.0020 H   0  0  0  0  0  0  0  0  0  0  0  0
   38.2740   28.8670   42.5670 H   0  0  0  0  0  0  0  0  0  0  0  0
   38.2120   26.8050   42.9800 C   0  0  0  0  0  0  0  0  0  0  0  0
   37.6730   25.7260   42.2940 C   0  0  0  0  0  0  0  0  0  0  0  0
   38.3790   24.5020   42.3220 C   0  0  0  0  0  0  0  0  0  0  0  0
   39.5530   24.4570   43.0260 N   0  0  0  0  0  0  0  0  0  0  0  0
   40.0340   25.5310   43.6750 C   0  0  0  0  0  0  0  0  0  0  0  0
   39.3590   26.6760   43.6400 N   0  0  0  0  0  0  0  0  0  0  0  0
   36.7490   25.8250   41.7620 H   0  0  0  0  0  0  0  0  0  0  0  0
   37.9630   23.6590   41.7890 H   0  0  0  0  0  0  0  0  0  0  0  0
   40.9690   25.4170   44.2100 H   0  0  0  0  0  0  0  0  0  0  0  0
  1  2  1  0  0  0  0
  1 16  1  0  0  0  0
  3  1  1  0  0  0  0
  4  5  1  0  0  0  0
  5  6  2  0  0  0  0
  5  1  1  0  0  0  0
  6  7  1  0  0  0  0
  8  9  1  0  0  0  0
  8  6  1  0  0  0  0
  9 15  1  0  0  0  0
 10  9  1  0  0  0  0
 11 10  1  0  0  0  0
 12 13  1  0  0  0  0
 12 10  2  0  0  0  0
 13  8  2  0  0  0  0
 14 13  1  0  0  0  0
 14  4  2  0  0  0  0
 16 17  1  0  0  0  0
 18 16  1  0  0  0  0
 19 16  1  0  0  0  0
 19 24  1  0  0  0  0
 20 21  1  0  0  0  0
 20 19  2  0  0  0  0
 21 22  2  0  0  0  0
 22 23  1  0  0  0  0
 23 27  1  0  0  0  0
 24 23  2  0  0  0  0
 25 20  1  0  0  0  0
 26 21  1  0  0  0  0
M  END
>  <minimizedAffinity>
-5.39666033

$$$$

 OpenBabel03242518103D

 27 29  0  0  0  0  0  0  0  0999 V2000
   36.5660   28.4830   41.8090 C   0  0  0  0  0  0  0  0  0  0  0  0
   35.4910   28.7140   41.8330 H   0  0  0  0  0  0  0  0  0  0  0  0
   36.8180   27.7600   40.9830 H   0  0  0  0  0  0  0  0  0  0  0  0
   38.6740   29.9150   41.9440 C   0  0  0  0  0  3  0  0  0  0  0  0
   37.3630   29.7170   41.5630 C   0  0  0  0  0  0  0  0  0  0  0  0
   36.7090   30.7450   40.8880 C   0  0  0  0  0  0  0  0  0  0  0  0
   35.6670   30.6300   40.5670 H   0  0  0  0  0  0  0  0  0  0  0  0
   37.2830   31.9590   40.5730 C   0  0  0  0  0  0  0  0  0  0  0  0
   36.8380   33.0590   39.9420 N   0  0  0  0  0  0  0  0  0  0  0  0
   37.8500   33.9260   39.9300 C   0  0  0  0  0  0  0  0  0  0  0  0
   37.7480   34.8900   39.4800 H   0  0  0  0  0  0  0  0  0  0  0  0
   38.9320   33.3730   40.5520 N   0  0  0  0  0  0  0  0  0  0  0  0
   38.6010   32.1210   40.9710 C   0  0  0  0  0  0  0  0  0  0  0  0
   39.2900   31.1170   41.6470 C   0  0  0  0  0  3  0  0  0  0  0  0
   35.8840   33.1710   39.5550 H   0  0  0  0  0  0  0  0  0  0  0  0
   37.0260   27.9240   43.1390 C   0  0  0  0  0  0  0  0  0  0  0  0
   36.1330   27.8190   43.7480 H   0  0  0  0  0  0  0  0  0  0  0  0
   37.7650   28.6470   43.5870 H   0  0  0  0  0  0  0  0  0  0  0  0
   37.7180   26.6580   42.9060 C   0  0  0  0  0  0  0  0  0  0  0  0
   37.1220   25.6010   42.2330 C   0  0  0  0  0  0  0  0  0  0  0  0
   37.8750   24.4170   42.0560 C   0  0  0  0  0  0  0  0  0  0  0  0
   39.1480   24.3890   42.5610 N   0  0  0  0  0  0  0  0  0  0  0  0
   39.6820   25.4400   43.2060 C   0  0  0  0  0  0  0  0  0  0  0  0
   38.9610   26.5470   43.3650 N   0  0  0  0  0  0  0  0  0  0  0  0
   36.1210   25.6850   41.8630 H   0  0  0  0  0  0  0  0  0  0  0  0
   37.4150   23.5920   41.5330 H   0  0  0  0  0  0  0  0  0  0  0  0
   40.6950   25.3410   43.5760 H   0  0  0  0  0  0  0  0  0  0  0  0
  1  2  1  0  0  0  0
  1 16  1  0  0  0  0
  3  1  1  0  0  0  0
  5  1  1  0  0  0  0
  5  4  2  0  0  0  0
  6  5  1  0  0  0  0
  7  6  1  0  0  0  0
  8  6  2  0  0  0  0
  8 13  1  0  0  0  0
  9  8  1  0  0  0  0
 10  9  1  0  0  0  0
 10 12  2  0  0  0  0
 11 10  1  0  0  0  0
 12 13  1  0  0  0  0
 13 14  2  0  0  0  0
 14  4  1  0  0  0  0
 15  9  1  0  0  0  0
 16 18  1  0  0  0  0
 16 17  1  0  0  0  0
 19 16  1  0  0  0  0
 19 24  1  0  0  0  0
 20 19  2  0  0  0  0
 21 20  1  0  0  0  0
 21 22  2  0  0  0  0
 22 23  1  0  0  0  0
 23 24  2  0  0  0  0
 23 27  1  0  0  0  0
 25 20  1  0  0  0  0
 26 21  1  0  0  0  0
M  END
>  <minimizedAffinity>
-5.35226297

$$$$

 OpenBabel03242518103D

 27 29  0  0  0  0  0  0  0  0999 V2000
   38.8920   28.9570   42.9500 C   0  0  0  0  0  0  0  0  0  0  0  0
   39.6800   28.3830   42.4400 H   0  0  0  0  0  0  0  0  0  0  0  0
   39.2630   29.4090   43.9120 H   0  0  0  0  0  0  0  0  0  0  0  0
   37.2110   30.1400   41.4380 C   0  0  0  0  0  3  0  0  0  0  0  0
   38.4240   30.0820   42.0930 C   0  0  0  0  0  0  0  0  0  0  0  0
   39.3000   31.1550   41.9580 C   0  0  0  0  0  0  0  0  0  0  0  0
   40.2740   31.1510   42.4620 H   0  0  0  0  0  0  0  0  0  0  0  0
   39.0400   32.2830   41.2070 C   0  0  0  0  0  0  0  0  0  0  0  0
   39.7330   33.4050   40.9500 N   0  0  0  0  0  0  0  0  0  0  0  0
   38.9690   34.1490   40.1500 C   0  0  0  0  0  0  0  0  0  0  0  0
   39.2990   35.1020   39.7980 H   0  0  0  0  0  0  0  0  0  0  0  0
   37.7950   33.4960   39.9030 N   0  0  0  0  0  0  0  0  0  0  0  0
   37.8120   32.3050   40.5630 C   0  0  0  0  0  0  0  0  0  0  0  0
   36.9090   31.2520   40.6730 C   0  0  0  0  0  3  0  0  0  0  0  0
   40.6770   33.6140   41.3220 H   0  0  0  0  0  0  0  0  0  0  0  0
   37.6850   28.0840   43.2230 C   0  0  0  0  0  0  0  0  0  0  0  0
   36.8810   28.4780   42.6100 H   0  0  0  0  0  0  0  0  0  0  0  0
   37.4500   28.1440   44.3250 H   0  0  0  0  0  0  0  0  0  0  0  0
   38.0240   26.6970   42.9100 C   0  0  0  0  0  0  0  0  0  0  0  0
   39.2650   26.1530   43.2070 C   0  0  0  0  0  0  0  0  0  0  0  0
   39.4960   24.8000   42.8660 C   0  0  0  0  0  0  0  0  0  0  0  0
   38.4780   24.1110   42.2630 N   0  0  0  0  0  0  0  0  0  0  0  0
   37.2920   24.6830   41.9960 C   0  0  0  0  0  0  0  0  0  0  0  0
   37.0890   25.9570   42.3220 N   0  0  0  0  0  0  0  0  0  0  0  0
   40.0210   26.7450   43.6800 H   0  0  0  0  0  0  0  0  0  0  0  0
   40.4610   24.3720   43.0960 H   0  0  0  0  0  0  0  0  0  0  0  0
   36.5360   24.0730   41.5160 H   0  0  0  0  0  0  0  0  0  0  0  0
  1 16  1  0  0  0  0
  1  3  1  0  0  0  0
  2  1  1  0  0  0  0
  4  5  1  0  0  0  0
  5  1  1  0  0  0  0
  6  5  2  0  0  0  0
  6  7  1  0  0  0  0
  8  6  1  0  0  0  0
  9  8  1  0  0  0  0
  9 15  1  0  0  0  0
 10  9  1  0  0  0  0
 11 10  1  0  0  0  0
 12 10  2  0  0  0  0
 12 13  1  0  0  0  0
 13 14  1  0  0  0  0
 13  8  2  0  0  0  0
 14  4  2  0  0  0  0
 16 18  1  0  0  0  0
 17 16  1  0  0  0  0
 19 20  1  0  0  0  0
 19 16  1  0  0  0  0
 20 25  1  0  0  0  0
 21 26  1  0  0  0  0
 21 20  2  0  0  0  0
 22 21  1  0  0  0  0
 23 22  2  0  0  0  0
 23 24  1  0  0  0  0
 24 19  2  0  0  0  0
 27 23  1  0  0  0  0
M  END
>  <minimizedAffinity>
-5.08680916

$$$$

 OpenBabel03242518103D

 27 29  0  0  0  0  0  0  0  0999 V2000
   36.5720   30.8810   39.5490 C   0  0  0  0  0  0  0  0  0  0  0  0
   35.7600   31.3950   39.0130 H   0  0  0  0  0  0  0  0  0  0  0  0
   36.7770   29.8620   39.1150 H   0  0  0  0  0  0  0  0  0  0  0  0
   38.3340   32.5070   40.4210 C   0  0  0  0  0  3  0  0  0  0  0  0
   37.8390   31.6570   39.4530 C   0  0  0  0  0  0  0  0  0  0  0  0
   38.5710   31.4950   38.2800 C   0  0  0  0  0  0  0  0  0  0  0  0
   38.2150   30.8280   37.4850 H   0  0  0  0  0  0  0  0  0  0  0  0
   39.7650   32.1300   38.0120 C   0  0  0  0  0  0  0  0  0  0  0  0
   40.6110   32.1130   36.9680 N   0  0  0  0  0  0  0  0  0  0  0  0
   41.6130   32.9360   37.2760 C   0  0  0  0  0  0  0  0  0  0  0  0
   42.4240   33.0980   36.6010 H   0  0  0  0  0  0  0  0  0  0  0  0
   41.4000   33.4710   38.5140 N   0  0  0  0  0  0  0  0  0  0  0  0
   40.2310   32.9760   39.0070 C   0  0  0  0  0  0  0  0  0  0  0  0
   39.5290   33.1650   40.1940 C   0  0  0  0  0  3  0  0  0  0  0  0
   40.4730   31.5540   36.1070 H   0  0  0  0  0  0  0  0  0  0  0  0
   36.2460   30.7550   41.0230 C   0  0  0  0  0  0  0  0  0  0  0  0
   35.1690   30.8630   41.1050 H   0  0  0  0  0  0  0  0  0  0  0  0
   36.8000   31.5680   41.5750 H   0  0  0  0  0  0  0  0  0  0  0  0
   36.7360   29.4670   41.5070 C   0  0  0  0  0  0  0  0  0  0  0  0
   36.4720   28.2770   40.8440 C   0  0  0  0  0  0  0  0  0  0  0  0
   36.9930   27.0820   41.3910 C   0  0  0  0  0  0  0  0  0  0  0  0
   37.7270   27.1730   42.5430 N   0  0  0  0  0  0  0  0  0  0  0  0
   37.9560   28.3510   43.1490 C   0  0  0  0  0  0  0  0  0  0  0  0
   37.4600   29.4670   42.6230 N   0  0  0  0  0  0  0  0  0  0  0  0
   35.8900   28.2710   39.9450 H   0  0  0  0  0  0  0  0  0  0  0  0
   36.7900   26.1530   40.8770 H   0  0  0  0  0  0  0  0  0  0  0  0
   38.5460   28.3420   44.0580 H   0  0  0  0  0  0  0  0  0  0  0  0
  1 16  1  0  0  0  0
  2  1  1  0  0  0  0
  3  1  1  0  0  0  0
  5  1  1  0  0  0  0
  5  4  2  0  0  0  0
  6  5  1  0  0  0  0
  7  6  1  0  0  0  0
  8  6  2  0  0  0  0
  8 13  1  0  0  0  0
  9 10  1  0  0  0  0
  9  8  1  0  0  0  0
 10 12  2  0  0  0  0
 11 10  1  0  0  0  0
 12 13  1  0  0  0  0
 13 14  2  0  0  0  0
 14  4  1  0  0  0  0
 15  9  1  0  0  0  0
 16 17  1  0  0  0  0
 16 19  1  0  0  0  0
 16 18  1  0  0  0  0
 19 24  1  0  0  0  0
 20 21  1  0  0  0  0
 20 19  2  0  0  0  0
 21 22  2  0  0  0  0
 22 23  1  0  0  0  0
 23 27  1  0  0  0  0
 24 23  2  0  0  0  0
 25 20  1  0  0  0  0
 26 21  1  0  0  0  0
M  END
>  <minimizedAffinity>
-4.86521435

$$$$

 OpenBabel03242518103D

 27 29  0  0  0  0  0  0  0  0999 V2000
   36.1940   28.6490   39.7950 C   0  0  0  0  0  0  0  0  0  0  0  0
   35.2830   28.8440   39.2100 H   0  0  0  0  0  0  0  0  0  0  0  0
   36.7240   27.7200   39.4420 H   0  0  0  0  0  0  0  0  0  0  0  0
   38.4570   29.6710   39.2050 C   0  0  0  0  0  3  0  0  0  0  0  0
   37.1580   29.7770   39.6580 C   0  0  0  0  0  0  0  0  0  0  0  0
   36.6860   31.0350   40.0230 C   0  0  0  0  0  0  0  0  0  0  0  0
   35.6600   31.1640   40.3880 H   0  0  0  0  0  0  0  0  0  0  0  0
   37.4310   32.1940   39.9640 C   0  0  0  0  0  0  0  0  0  0  0  0
   37.1720   33.4780   40.2630 N   0  0  0  0  0  0  0  0  0  0  0  0
   38.2870   34.1610   40.0020 C   0  0  0  0  0  0  0  0  0  0  0  0
   38.3390   35.2160   40.1580 H   0  0  0  0  0  0  0  0  0  0  0  0
   39.2470   33.3080   39.5390 N   0  0  0  0  0  0  0  0  0  0  0  0
   38.7310   32.0490   39.5050 C   0  0  0  0  0  0  0  0  0  0  0  0
   39.2400   30.8080   39.1300 C   0  0  0  0  0  3  0  0  0  0  0  0
   36.2670   33.8290   40.6240 H   0  0  0  0  0  0  0  0  0  0  0  0
   35.8700   28.5270   41.2690 C   0  0  0  0  0  0  0  0  0  0  0  0
   34.8850   28.0730   41.3250 H   0  0  0  0  0  0  0  0  0  0  0  0
   35.8900   29.5600   41.7200 H   0  0  0  0  0  0  0  0  0  0  0  0
   36.9110   27.7320   41.9170 C   0  0  0  0  0  0  0  0  0  0  0  0
   37.5540   28.1530   43.0720 C   0  0  0  0  0  0  0  0  0  0  0  0
   38.5460   27.3110   43.6240 C   0  0  0  0  0  0  0  0  0  0  0  0
   38.8110   26.1300   42.9840 N   0  0  0  0  0  0  0  0  0  0  0  0
   38.1600   25.7650   41.8660 C   0  0  0  0  0  0  0  0  0  0  0  0
   37.2290   26.5680   41.3580 N   0  0  0  0  0  0  0  0  0  0  0  0
   37.3020   29.0900   43.5250 H   0  0  0  0  0  0  0  0  0  0  0  0
   39.0490   27.6360   44.5240 H   0  0  0  0  0  0  0  0  0  0  0  0
   38.4260   24.8160   41.4170 H   0  0  0  0  0  0  0  0  0  0  0  0
  1 16  1  0  0  0  0
  2  1  1  0  0  0  0
  3  1  1  0  0  0  0
  4  5  1  0  0  0  0
  5  1  1  0  0  0  0
  5  6  2  0  0  0  0
  6  7  1  0  0  0  0
  8  6  1  0  0  0  0
  8  9  1  0  0  0  0
  9 15  1  0  0  0  0
 10 11  1  0  0  0  0
 10  9  1  0  0  0  0
 12 10  2  0  0  0  0
 13 12  1  0  0  0  0
 13  8  2  0  0  0  0
 14  4  2  0  0  0  0
 14 13  1  0  0  0  0
 16 17  1  0  0  0  0
 16 18  1  0  0  0  0
 16 19  1  0  0  0  0
 19 20  1  0  0  0  0
 20 25  1  0  0  0  0
 20 21  2  0  0  0  0
 21 26  1  0  0  0  0
 22 21  1  0  0  0  0
 23 22  2  0  0  0  0
 24 23  1  0  0  0  0
 24 19  2  0  0  0  0
 27 23  1  0  0  0  0
M  END
>  <minimizedAffinity>
-4.83007002

$$$$

 OpenBabel03242518103D

 27 29  0  0  0  0  0  0  0  0999 V2000
   38.9370   26.8310   43.6790 C   0  0  0  0  0  0  0  0  0  0  0  0
   39.2630   27.0390   44.7090 H   0  0  0  0  0  0  0  0  0  0  0  0
   37.9380   26.3130   43.6550 H   0  0  0  0  0  0  0  0  0  0  0  0
   39.8210   28.9190   42.5070 C   0  0  0  0  0  3  0  0  0  0  0  0
   38.7870   28.0990   42.9110 C   0  0  0  0  0  0  0  0  0  0  0  0
   37.4850   28.4670   42.5820 C   0  0  0  0  0  0  0  0  0  0  0  0
   36.6340   27.8440   42.8830 H   0  0  0  0  0  0  0  0  0  0  0  0
   37.1520   29.6040   41.8770 C   0  0  0  0  0  0  0  0  0  0  0  0
   35.9860   30.1310   41.4650 N   0  0  0  0  0  0  0  0  0  0  0  0
   36.2850   31.2570   40.8180 C   0  0  0  0  0  0  0  0  0  0  0  0
   35.5220   31.8690   40.3900 H   0  0  0  0  0  0  0  0  0  0  0  0
   37.6390   31.4400   40.8220 N   0  0  0  0  0  0  0  0  0  0  0  0
   38.2160   30.4030   41.4880 C   0  0  0  0  0  0  0  0  0  0  0  0
   39.5320   30.0700   41.7970 C   0  0  0  0  0  3  0  0  0  0  0  0
   35.0560   29.7110   41.6390 H   0  0  0  0  0  0  0  0  0  0  0  0
   39.9670   25.9960   42.9480 C   0  0  0  0  0  0  0  0  0  0  0  0
   40.4840   25.4190   43.7090 H   0  0  0  0  0  0  0  0  0  0  0  0
   40.6600   26.6950   42.3980 H   0  0  0  0  0  0  0  0  0  0  0  0
   39.2850   25.1660   41.9580 C   0  0  0  0  0  0  0  0  0  0  0  0
   38.1160   24.4770   42.2460 C   0  0  0  0  0  0  0  0  0  0  0  0
   37.5300   23.7020   41.2190 C   0  0  0  0  0  0  0  0  0  0  0  0
   38.1550   23.6790   40.0010 N   0  0  0  0  0  0  0  0  0  0  0  0
   39.2880   24.3650   39.7700 C   0  0  0  0  0  0  0  0  0  0  0  0
   39.8280   25.0890   40.7460 N   0  0  0  0  0  0  0  0  0  0  0  0
   37.6750   24.5350   43.2210 H   0  0  0  0  0  0  0  0  0  0  0  0
   36.6190   23.1650   41.4400 H   0  0  0  0  0  0  0  0  0  0  0  0
   39.7230   24.2960   38.7800 H   0  0  0  0  0  0  0  0  0  0  0  0
  1  2  1  0  0  0  0
  3  1  1  0  0  0  0
  4  5  1  0  0  0  0
  5  1  1  0  0  0  0
  6  7  1  0  0  0  0
  6  5  2  0  0  0  0
  8  6  1  0  0  0  0
  9 15  1  0  0  0  0
  9  8  1  0  0  0  0
 10 12  2  0  0  0  0
 10  9  1  0  0  0  0
 11 10  1  0  0  0  0
 12 13  1  0  0  0  0
 13 14  1  0  0  0  0
 13  8  2  0  0  0  0
 14  4  2  0  0  0  0
 16  1  1  0  0  0  0
 16 17  1  0  0  0  0
 18 16  1  0  0  0  0
 19 20  1  0  0  0  0
 19 16  1  0  0  0  0
 20 25  1  0  0  0  0
 21 26  1  0  0  0  0
 21 20  2  0  0  0  0
 22 21  1  0  0  0  0
 23 22  2  0  0  0  0
 23 24  1  0  0  0  0
 24 19  2  0  0  0  0
 27 23  1  0  0  0  0
M  END
>  <minimizedAffinity>
-4.697258

$$$$

 OpenBabel03242518103D

 27 29  0  0  0  0  0  0  0  0999 V2000
   37.0450   30.6420   39.3680 C   0  0  0  0  0  0  0  0  0  0  0  0
   38.0240   30.1730   39.5480 H   0  0  0  0  0  0  0  0  0  0  0  0
   37.1480   31.7350   39.1150 H   0  0  0  0  0  0  0  0  0  0  0  0
   35.1480   29.3290   38.2780 C   0  0  0  0  0  3  0  0  0  0  0  0
   36.3560   29.9930   38.2180 C   0  0  0  0  0  0  0  0  0  0  0  0
   37.0030   30.0790   36.9880 C   0  0  0  0  0  0  0  0  0  0  0  0
   37.9640   30.5980   36.8950 H   0  0  0  0  0  0  0  0  0  0  0  0
   36.5190   29.5400   35.8140 C   0  0  0  0  0  0  0  0  0  0  0  0
   36.9750   29.5100   34.5500 N   0  0  0  0  0  0  0  0  0  0  0  0
   36.0720   28.8400   33.8360 C   0  0  0  0  0  0  0  0  0  0  0  0
   36.2040   28.6760   32.7880 H   0  0  0  0  0  0  0  0  0  0  0  0
   35.0460   28.4480   34.6480 N   0  0  0  0  0  0  0  0  0  0  0  0
   35.3040   28.8800   35.9130 C   0  0  0  0  0  0  0  0  0  0  0  0
   34.6260   28.7730   37.1240 C   0  0  0  0  0  3  0  0  0  0  0  0
   37.8640   29.9370   34.2340 H   0  0  0  0  0  0  0  0  0  0  0  0
   36.1400   30.4750   40.5710 C   0  0  0  0  0  0  0  0  0  0  0  0
   35.1870   30.1240   40.1860 H   0  0  0  0  0  0  0  0  0  0  0  0
   36.0500   31.4750   41.0840 H   0  0  0  0  0  0  0  0  0  0  0  0
   36.7650   29.5430   41.5060 C   0  0  0  0  0  0  0  0  0  0  0  0
   36.2800   28.2590   41.7080 C   0  0  0  0  0  0  0  0  0  0  0  0
   36.9560   27.4310   42.6340 C   0  0  0  0  0  0  0  0  0  0  0  0
   38.0490   27.9500   43.2750 N   0  0  0  0  0  0  0  0  0  0  0  0
   38.4810   29.2020   43.0460 C   0  0  0  0  0  0  0  0  0  0  0  0
   37.8350   29.9690   42.1720 N   0  0  0  0  0  0  0  0  0  0  0  0
   35.4180   27.9120   41.1750 H   0  0  0  0  0  0  0  0  0  0  0  0
   36.5810   26.4310   42.7930 H   0  0  0  0  0  0  0  0  0  0  0  0
   39.3530   29.5410   43.5920 H   0  0  0  0  0  0  0  0  0  0  0  0
  1  2  1  0  0  0  0
  1 16  1  0  0  0  0
  3  1  1  0  0  0  0
  5  4  1  0  0  0  0
  5  1  1  0  0  0  0
  6  5  2  0  0  0  0
  7  6  1  0  0  0  0
  8 13  2  0  0  0  0
  8  6  1  0  0  0  0
  9  8  1  0  0  0  0
 10  9  1  0  0  0  0
 10 12  2  0  0  0  0
 11 10  1  0  0  0  0
 12 13  1  0  0  0  0
 13 14  1  0  0  0  0
 14  4  2  0  0  0  0
 15  9  1  0  0  0  0
 16 18  1  0  0  0  0
 16 19  1  0  0  0  0
 17 16  1  0  0  0  0
 19 20  2  0  0  0  0
 19 24  1  0  0  0  0
 20 21  1  0  0  0  0
 21 26  1  0  0  0  0
 21 22  2  0  0  0  0
 23 22  1  0  0  0  0
 23 27  1  0  0  0  0
 24 23  2  0  0  0  0
 25 20  1  0  0  0  0
M  END
>  <minimizedAffinity>
-4.67740202

$$$$

 OpenBabel03242518103D

 27 29  0  0  0  0  0  0  0  0999 V2000
   35.5490   29.4240   40.4760 C   0  0  0  0  0  0  0  0  0  0  0  0
   35.6790   29.4240   39.3840 H   0  0  0  0  0  0  0  0  0  0  0  0
   34.4610   29.3920   40.7650 H   0  0  0  0  0  0  0  0  0  0  0  0
   36.4920   28.0660   42.4200 C   0  0  0  0  0  3  0  0  0  0  0  0
   36.1950   28.2260   41.0820 C   0  0  0  0  0  0  0  0  0  0  0  0
   36.5150   27.1920   40.2060 C   0  0  0  0  0  0  0  0  0  0  0  0
   36.2950   27.2770   39.1350 H   0  0  0  0  0  0  0  0  0  0  0  0
   37.1150   26.0100   40.5830 C   0  0  0  0  0  0  0  0  0  0  0  0
   37.5000   24.9100   39.9120 N   0  0  0  0  0  0  0  0  0  0  0  0
   38.0280   24.0810   40.8120 C   0  0  0  0  0  0  0  0  0  0  0  0
   38.4130   23.1270   40.5270 H   0  0  0  0  0  0  0  0  0  0  0  0
   37.9760   24.6570   42.0500 N   0  0  0  0  0  0  0  0  0  0  0  0
   37.3990   25.8850   41.9340 C   0  0  0  0  0  0  0  0  0  0  0  0
   37.0950   26.8950   42.8420 C   0  0  0  0  0  3  0  0  0  0  0  0
   37.3910   24.7740   38.8920 H   0  0  0  0  0  0  0  0  0  0  0  0
   36.2100   30.6380   41.0950 C   0  0  0  0  0  0  0  0  0  0  0  0
   36.6550   30.2980   42.0260 H   0  0  0  0  0  0  0  0  0  0  0  0
   35.4180   31.4220   41.2630 H   0  0  0  0  0  0  0  0  0  0  0  0
   37.1860   31.1770   40.1510 C   0  0  0  0  0  0  0  0  0  0  0  0
   36.9750   31.1670   38.7800 C   0  0  0  0  0  0  0  0  0  0  0  0
   37.9790   31.7150   37.9490 C   0  0  0  0  0  0  0  0  0  0  0  0
   39.0990   32.2220   38.5510 N   0  0  0  0  0  0  0  0  0  0  0  0
   39.2580   32.2100   39.8850 C   0  0  0  0  0  0  0  0  0  0  0  0
   38.3050   31.6910   40.6550 N   0  0  0  0  0  0  0  0  0  0  0  0
   36.0760   30.7540   38.3700 H   0  0  0  0  0  0  0  0  0  0  0  0
   37.8170   31.7090   36.8810 H   0  0  0  0  0  0  0  0  0  0  0  0
   40.1720   32.6300   40.2860 H   0  0  0  0  0  0  0  0  0  0  0  0
  1  3  1  0  0  0  0
  1  5  1  0  0  0  0
  1 16  1  0  0  0  0
  2  1  1  0  0  0  0
  4 14  1  0  0  0  0
  5  4  2  0  0  0  0
  6  8  2  0  0  0  0
  6  5  1  0  0  0  0
  7  6  1  0  0  0  0
  8 13  1  0  0  0  0
  9  8  1  0  0  0  0
  9 10  1  0  0  0  0
 10 12  2  0  0  0  0
 11 10  1  0  0  0  0
 13 12  1  0  0  0  0
 13 14  2  0  0  0  0
 15  9  1  0  0  0  0
 16 18  1  0  0  0  0
 16 17  1  0  0  0  0
 19 24  1  0  0  0  0
 19 16  1  0  0  0  0
 20 19  2  0  0  0  0
 21 22  2  0  0  0  0
 21 20  1  0  0  0  0
 22 23  1  0  0  0  0
 23 27  1  0  0  0  0
 23 24  2  0  0  0  0
 25 20  1  0  0  0  0
 26 21  1  0  0  0  0
M  END
>  <minimizedAffinity>
-4.66029263

$$$$

 OpenBabel03242518103D

 27 29  0  0  0  0  0  0  0  0999 V2000
   37.5210   31.8900   39.0680 C   0  0  0  0  0  0  0  0  0  0  0  0
   38.1580   31.5960   38.2210 H   0  0  0  0  0  0  0  0  0  0  0  0
   36.5650   32.3750   38.7210 H   0  0  0  0  0  0  0  0  0  0  0  0
   36.2990   29.6830   39.4550 C   0  0  0  0  0  3  0  0  0  0  0  0
   37.1350   30.6980   39.8740 C   0  0  0  0  0  0  0  0  0  0  0  0
   37.6770   30.6210   41.1540 C   0  0  0  0  0  0  0  0  0  0  0  0
   38.3470   31.4050   41.5270 H   0  0  0  0  0  0  0  0  0  0  0  0
   37.4350   29.5940   42.0420 C   0  0  0  0  0  0  0  0  0  0  0  0
   37.8480   29.3340   43.2940 N   0  0  0  0  0  0  0  0  0  0  0  0
   37.2810   28.1820   43.6510 C   0  0  0  0  0  0  0  0  0  0  0  0
   37.4530   27.7540   44.6140 H   0  0  0  0  0  0  0  0  0  0  0  0
   36.5110   27.7150   42.6240 N   0  0  0  0  0  0  0  0  0  0  0  0
   36.5900   28.5930   41.5870 C   0  0  0  0  0  0  0  0  0  0  0  0
   36.0280   28.6340   40.3130 C   0  0  0  0  0  3  0  0  0  0  0  0
   38.4840   29.9400   43.8430 H   0  0  0  0  0  0  0  0  0  0  0  0
   38.2630   32.8260   40.0000 C   0  0  0  0  0  0  0  0  0  0  0  0
   38.2630   32.3460   40.9740 H   0  0  0  0  0  0  0  0  0  0  0  0
   37.7200   33.8140   40.0110 H   0  0  0  0  0  0  0  0  0  0  0  0
   39.6050   33.0550   39.4680 C   0  0  0  0  0  0  0  0  0  0  0  0
   40.0500   32.4580   38.2980 C   0  0  0  0  0  0  0  0  0  0  0  0
   41.3660   32.7440   37.8650 C   0  0  0  0  0  0  0  0  0  0  0  0
   42.1190   33.5940   38.6300 N   0  0  0  0  0  0  0  0  0  0  0  0
   41.6420   34.1490   39.7570 C   0  0  0  0  0  0  0  0  0  0  0  0
   40.4030   33.8700   40.1520 N   0  0  0  0  0  0  0  0  0  0  0  0
   39.4120   31.8000   37.7440 H   0  0  0  0  0  0  0  0  0  0  0  0
   41.7160   32.2810   36.9540 H   0  0  0  0  0  0  0  0  0  0  0  0
   42.2990   34.8110   40.3080 H   0  0  0  0  0  0  0  0  0  0  0  0
  1  5  1  0  0  0  0
  1 16  1  0  0  0  0
  2  1  1  0  0  0  0
  3  1  1  0  0  0  0
  4  5  2  0  0  0  0
  4 14  1  0  0  0  0
  5  6  1  0  0  0  0
  6  7  1  0  0  0  0
  6  8  2  0  0  0  0
  8  9  1  0  0  0  0
  9 10  1  0  0  0  0
  9 15  1  0  0  0  0
 10 11  1  0  0  0  0
 12 10  2  0  0  0  0
 13  8  1  0  0  0  0
 13 12  1  0  0  0  0
 14 13  2  0  0  0  0
 16 18  1  0  0  0  0
 16 17  1  0  0  0  0
 19 16  1  0  0  0  0
 19 24  1  0  0  0  0
 20 19  2  0  0  0  0
 21 20  1  0  0  0  0
 21 22  2  0  0  0  0
 22 23  1  0  0  0  0
 23 24  2  0  0  0  0
 23 27  1  0  0  0  0
 25 20  1  0  0  0  0
 26 21  1  0  0  0  0
M  END
>  <minimizedAffinity>
-4.58402348

$$$$
