
 OpenBabel03252505413D

 31 34  0  0  1  0  0  0  0  0999 V2000
   37.9290   30.4920   39.5050 C   0  0  1  0  0  0  0  0  0  0  0  0
   36.8600   31.6100   39.5100 C   0  0  0  0  0  0  0  0  0  0  0  0
   38.1340   31.7140   40.2840 C   0  0  2  0  0  0  0  0  0  0  0  0
   38.2850   30.3300   38.4530 H   0  0  0  0  0  0  0  0  0  0  0  0
   36.7860   32.2670   38.6330 H   0  0  0  0  0  0  0  0  0  0  0  0
   35.9340   31.4020   40.0520 H   0  0  0  0  0  0  0  0  0  0  0  0
   38.0360   31.6640   41.3690 H   0  0  0  0  0  0  0  0  0  0  0  0
   39.5130   33.7550   40.4660 C   0  0  0  0  0  3  0  0  0  0  0  0
   39.2240   32.5990   39.7950 C   0  0  0  0  0  0  0  0  0  0  0  0
   39.9760   32.3160   38.6780 C   0  0  0  0  0  0  0  0  0  0  0  0
   39.7690   31.4080   38.1260 H   0  0  0  0  0  0  0  0  0  0  0  0
   40.9840   33.1340   38.2240 C   0  0  0  0  0  0  0  0  0  0  0  0
   41.8620   33.1010   37.1800 N   0  0  0  0  0  0  0  0  0  0  0  0
   42.6510   34.1830   37.2100 C   0  0  0  0  0  0  0  0  0  0  0  0
   43.4560   34.4520   36.5130 H   0  0  0  0  0  0  0  0  0  0  0  0
   42.2760   34.9100   38.2770 N   0  0  0  0  0  0  0  0  0  0  0  0
   41.2580   34.3040   38.9260 C   0  0  0  0  0  0  0  0  0  0  0  0
   40.5130   34.6210   40.0650 C   0  0  0  0  0  3  0  0  0  0  0  0
   41.9080   32.3360   36.4620 H   0  0  0  0  0  0  0  0  0  0  0  0
   37.4720   29.2240   40.1520 C   0  0  0  0  0  0  0  0  0  0  0  0
   37.0040   28.1650   39.3320 C   0  0  0  0  0  0  0  0  0  0  0  0
   36.5980   26.9920   39.9630 C   0  0  0  0  0  0  0  0  0  0  0  0
   36.6740   26.9300   41.3170 N   0  0  0  0  0  0  0  0  0  0  0  0
   37.1270   27.9680   42.0610 C   0  0  0  0  0  0  0  0  0  0  0  0
   37.5270   29.1190   41.4650 N   0  0  0  0  0  0  0  0  0  0  0  0
   36.9620   28.2560   38.2550 H   0  0  0  0  0  0  0  0  0  0  0  0
   36.2310   26.1420   39.4140 H   0  0  0  0  0  0  0  0  0  0  0  0
   37.1410   27.6870   43.5350 C   0  0  0  0  0  0  0  0  0  0  0  0
   35.9850   27.0710   43.9470 F   0  0  0  0  0  0  0  0  0  0  0  0
   37.2790   28.8850   44.2400 F   0  0  0  0  0  0  0  0  0  0  0  0
   38.2760   26.9450   43.8370 F   0  0  0  0  0  0  0  0  0  0  0  0
  1  4  1  6  0  0  0
  1  2  1  0  0  0  0
  1 20  1  0  0  0  0
  1  3  1  0  0  0  0
  2  6  1  0  0  0  0
  2  3  1  0  0  0  0
  3  7  1  1  0  0  0
  5  2  1  0  0  0  0
  9  3  1  0  0  0  0
  9  8  2  0  0  0  0
 10  9  1  0  0  0  0
 11 10  1  0  0  0  0
 12 10  2  0  0  0  0
 12 17  1  0  0  0  0
 13 14  1  0  0  0  0
 13 12  1  0  0  0  0
 14 16  2  0  0  0  0
 15 14  1  0  0  0  0
 16 17  1  0  0  0  0
 17 18  2  0  0  0  0
 18  8  1  0  0  0  0
 19 13  1  0  0  0  0
 20 25  1  0  0  0  0
 21 22  1  0  0  0  0
 21 20  2  0  0  0  0
 22 23  2  0  0  0  0
 23 24  1  0  0  0  0
 24 28  1  0  0  0  0
 25 24  2  0  0  0  0
 26 21  1  0  0  0  0
 27 22  1  0  0  0  0
 28 31  1  0  0  0  0
 28 29  1  0  0  0  0
 28 30  1  0  0  0  0
M  END
>  <minimizedAffinity>
-6.07475138

$$$$

 OpenBabel03252505413D

 31 34  0  0  1  0  0  0  0  0999 V2000
   37.3930   28.7530   40.3650 C   0  0  1  0  0  0  0  0  0  0  0  0
   35.9980   29.2720   40.7870 C   0  0  0  0  0  0  0  0  0  0  0  0
   37.2650   29.8170   41.3610 C   0  0  2  0  0  0  0  0  0  0  0  0
   37.5260   28.9140   39.2620 H   0  0  0  0  0  0  0  0  0  0  0  0
   35.4620   29.9460   40.1040 H   0  0  0  0  0  0  0  0  0  0  0  0
   35.3900   28.6030   41.4010 H   0  0  0  0  0  0  0  0  0  0  0  0
   37.4530   29.5770   42.4080 H   0  0  0  0  0  0  0  0  0  0  0  0
   36.9670   31.9470   40.1470 C   0  0  0  0  0  3  0  0  0  0  0  0
   37.7580   31.1510   40.9270 C   0  0  0  0  0  0  0  0  0  0  0  0
   38.9970   31.6420   41.2740 C   0  0  0  0  0  0  0  0  0  0  0  0
   39.6450   31.0340   41.8910 H   0  0  0  0  0  0  0  0  0  0  0  0
   39.4550   32.8750   40.8740 C   0  0  0  0  0  0  0  0  0  0  0  0
   40.6000   33.5920   41.0630 N   0  0  0  0  0  0  0  0  0  0  0  0
   40.5150   34.7690   40.4300 C   0  0  0  0  0  0  0  0  0  0  0  0
   41.2660   35.5700   40.3880 H   0  0  0  0  0  0  0  0  0  0  0  0
   39.3110   34.8060   39.8340 N   0  0  0  0  0  0  0  0  0  0  0  0
   38.6280   33.6660   40.0800 C   0  0  0  0  0  0  0  0  0  0  0  0
   37.3650   33.1970   39.7090 C   0  0  0  0  0  3  0  0  0  0  0  0
   41.4250   33.2620   41.6250 H   0  0  0  0  0  0  0  0  0  0  0  0
   37.6510   27.3370   40.7680 C   0  0  0  0  0  0  0  0  0  0  0  0
   36.9650   26.2940   40.0920 C   0  0  0  0  0  0  0  0  0  0  0  0
   37.2380   24.9860   40.4800 C   0  0  0  0  0  0  0  0  0  0  0  0
   38.1370   24.7830   41.4760 N   0  0  0  0  0  0  0  0  0  0  0  0
   38.7690   25.8100   42.0950 C   0  0  0  0  0  0  0  0  0  0  0  0
   38.5170   27.0930   41.7310 N   0  0  0  0  0  0  0  0  0  0  0  0
   36.2570   26.5010   39.3020 H   0  0  0  0  0  0  0  0  0  0  0  0
   36.7600   24.1390   40.0180 H   0  0  0  0  0  0  0  0  0  0  0  0
   39.7310   25.3670   43.1580 C   0  0  0  0  0  0  0  0  0  0  0  0
   39.7160   26.2090   44.2420 F   0  0  0  0  0  0  0  0  0  0  0  0
   41.0270   25.3410   42.6370 F   0  0  0  0  0  0  0  0  0  0  0  0
   39.4420   24.0520   43.5010 F   0  0  0  0  0  0  0  0  0  0  0  0
  1  4  1  6  0  0  0
  1 20  1  0  0  0  0
  1  2  1  0  0  0  0
  1  3  1  0  0  0  0
  2  3  1  0  0  0  0
  2  6  1  0  0  0  0
  3  7  1  1  0  0  0
  5  2  1  0  0  0  0
  8  9  1  0  0  0  0
  9 10  2  0  0  0  0
  9  3  1  0  0  0  0
 10 11  1  0  0  0  0
 12 13  1  0  0  0  0
 12 10  1  0  0  0  0
 13 19  1  0  0  0  0
 14 13  1  0  0  0  0
 15 14  1  0  0  0  0
 16 17  1  0  0  0  0
 16 14  2  0  0  0  0
 17 12  2  0  0  0  0
 18 17  1  0  0  0  0
 18  8  2  0  0  0  0
 20 25  1  0  0  0  0
 21 22  1  0  0  0  0
 21 20  2  0  0  0  0
 22 23  2  0  0  0  0
 23 24  1  0  0  0  0
 24 28  1  0  0  0  0
 25 24  2  0  0  0  0
 26 21  1  0  0  0  0
 27 22  1  0  0  0  0
 28 31  1  0  0  0  0
 28 29  1  0  0  0  0
 30 28  1  0  0  0  0
M  END
>  <minimizedAffinity>
-5.93961143

$$$$

 OpenBabel03252505413D

 31 34  0  0  1  0  0  0  0  0999 V2000
   36.6090   29.2240   39.6070 C   0  0  1  0  0  0  0  0  0  0  0  0
   35.4450   29.8750   40.3930 C   0  0  0  0  0  0  0  0  0  0  0  0
   36.8740   30.0240   40.8030 C   0  0  2  0  0  0  0  0  0  0  0  0
   36.6060   29.6170   38.5560 H   0  0  0  0  0  0  0  0  0  0  0  0
   34.9760   30.7780   39.9790 H   0  0  0  0  0  0  0  0  0  0  0  0
   34.8040   29.2010   40.9670 H   0  0  0  0  0  0  0  0  0  0  0  0
   37.1600   29.5110   41.7220 H   0  0  0  0  0  0  0  0  0  0  0  0
   36.9440   32.3200   39.8940 C   0  0  0  0  0  3  0  0  0  0  0  0
   37.5810   31.3100   40.5600 C   0  0  0  0  0  0  0  0  0  0  0  0
   38.8720   31.5460   40.9740 C   0  0  0  0  0  0  0  0  0  0  0  0
   39.4020   30.7640   41.5030 H   0  0  0  0  0  0  0  0  0  0  0  0
   39.5280   32.7330   40.7500 C   0  0  0  0  0  0  0  0  0  0  0  0
   40.7660   33.2270   41.0400 N   0  0  0  0  0  0  0  0  0  0  0  0
   40.8830   34.4770   40.5750 C   0  0  0  0  0  0  0  0  0  0  0  0
   41.7510   35.1460   40.6470 H   0  0  0  0  0  0  0  0  0  0  0  0
   39.7140   34.7860   39.9860 N   0  0  0  0  0  0  0  0  0  0  0  0
   38.8560   33.7460   40.0700 C   0  0  0  0  0  0  0  0  0  0  0  0
   37.5440   33.5380   39.6350 C   0  0  0  0  0  3  0  0  0  0  0  0
   41.5150   32.6970   41.5530 H   0  0  0  0  0  0  0  0  0  0  0  0
   36.6020   27.7300   39.6560 C   0  0  0  0  0  0  0  0  0  0  0  0
   36.1370   27.0080   38.5270 C   0  0  0  0  0  0  0  0  0  0  0  0
   36.1560   25.6180   38.5980 C   0  0  0  0  0  0  0  0  0  0  0  0
   36.6160   25.0370   39.7360 N   0  0  0  0  0  0  0  0  0  0  0  0
   37.0510   25.7670   40.7910 C   0  0  0  0  0  0  0  0  0  0  0  0
   37.0400   27.1230   40.7420 N   0  0  0  0  0  0  0  0  0  0  0  0
   35.7800   27.5110   37.6390 H   0  0  0  0  0  0  0  0  0  0  0  0
   35.8200   24.9960   37.7860 H   0  0  0  0  0  0  0  0  0  0  0  0
   37.5280   24.9310   41.9420 C   0  0  0  0  0  0  0  0  0  0  0  0
   38.4470   25.5990   42.7120 F   0  0  0  0  0  0  0  0  0  0  0  0
   38.1230   23.7620   41.4580 F   0  0  0  0  0  0  0  0  0  0  0  0
   36.4240   24.5100   42.6750 F   0  0  0  0  0  0  0  0  0  0  0  0
  1  4  1  6  0  0  0
  1 20  1  0  0  0  0
  1  2  1  0  0  0  0
  1  3  1  0  0  0  0
  2  3  1  0  0  0  0
  2  6  1  0  0  0  0
  3  7  1  1  0  0  0
  5  2  1  0  0  0  0
  8  9  1  0  0  0  0
  9  3  1  0  0  0  0
  9 10  2  0  0  0  0
 10 11  1  0  0  0  0
 12 10  1  0  0  0  0
 12 13  1  0  0  0  0
 13 19  1  0  0  0  0
 14 15  1  0  0  0  0
 14 13  1  0  0  0  0
 16 17  1  0  0  0  0
 16 14  2  0  0  0  0
 17 12  2  0  0  0  0
 18  8  2  0  0  0  0
 18 17  1  0  0  0  0
 20 25  1  0  0  0  0
 21 22  1  0  0  0  0
 21 20  2  0  0  0  0
 22 23  2  0  0  0  0
 23 24  1  0  0  0  0
 24 28  1  0  0  0  0
 25 24  2  0  0  0  0
 26 21  1  0  0  0  0
 27 22  1  0  0  0  0
 28 31  1  0  0  0  0
 28 29  1  0  0  0  0
 30 28  1  0  0  0  0
M  END
>  <minimizedAffinity>
-5.85123825

$$$$

 OpenBabel03252505413D

 31 34  0  0  1  0  0  0  0  0999 V2000
   36.8130   28.0640   40.3690 C   0  0  1  0  0  0  0  0  0  0  0  0
   35.4570   28.7620   40.6310 C   0  0  0  0  0  0  0  0  0  0  0  0
   36.6730   29.0330   41.4560 C   0  0  2  0  0  0  0  0  0  0  0  0
   37.1550   28.3070   39.3280 H   0  0  0  0  0  0  0  0  0  0  0  0
   35.1510   29.5780   39.9620 H   0  0  0  0  0  0  0  0  0  0  0  0
   34.6620   28.1460   41.0580 H   0  0  0  0  0  0  0  0  0  0  0  0
   36.6420   28.6650   42.4820 H   0  0  0  0  0  0  0  0  0  0  0  0
   38.7080   30.4080   41.7280 C   0  0  0  0  0  3  0  0  0  0  0  0
   37.4230   30.3030   41.2700 C   0  0  0  0  0  0  0  0  0  0  0  0
   36.8850   31.4080   40.6510 C   0  0  0  0  0  0  0  0  0  0  0  0
   35.8700   31.3560   40.2790 H   0  0  0  0  0  0  0  0  0  0  0  0
   37.5770   32.5840   40.4780 C   0  0  0  0  0  0  0  0  0  0  0  0
   37.3010   33.7970   39.9180 N   0  0  0  0  0  0  0  0  0  0  0  0
   38.3640   34.6050   40.0260 C   0  0  0  0  0  0  0  0  0  0  0  0
   38.4630   35.6420   39.6770 H   0  0  0  0  0  0  0  0  0  0  0  0
   39.3230   33.9060   40.6580 N   0  0  0  0  0  0  0  0  0  0  0  0
   38.8830   32.6630   40.9530 C   0  0  0  0  0  0  0  0  0  0  0  0
   39.4590   31.5590   41.5880 C   0  0  0  0  0  3  0  0  0  0  0  0
   36.3870   34.0540   39.4690 H   0  0  0  0  0  0  0  0  0  0  0  0
   36.7880   26.5920   40.6300 C   0  0  0  0  0  0  0  0  0  0  0  0
   37.1930   26.1130   41.9020 C   0  0  0  0  0  0  0  0  0  0  0  0
   37.1450   24.7390   42.1190 C   0  0  0  0  0  0  0  0  0  0  0  0
   36.7160   23.9420   41.1070 N   0  0  0  0  0  0  0  0  0  0  0  0
   36.3380   24.4430   39.9060 C   0  0  0  0  0  0  0  0  0  0  0  0
   36.3780   25.7800   39.6750 N   0  0  0  0  0  0  0  0  0  0  0  0
   37.5270   26.7840   42.6810 H   0  0  0  0  0  0  0  0  0  0  0  0
   37.4350   24.2950   43.0550 H   0  0  0  0  0  0  0  0  0  0  0  0
   35.8880   23.3940   38.9340 C   0  0  0  0  0  0  0  0  0  0  0  0
   34.5260   23.4140   38.7570 F   0  0  0  0  0  0  0  0  0  0  0  0
   36.2530   22.1300   39.4050 F   0  0  0  0  0  0  0  0  0  0  0  0
   36.5820   23.5610   37.7420 F   0  0  0  0  0  0  0  0  0  0  0  0
  1  4  1  6  0  0  0
  1 20  1  0  0  0  0
  1  2  1  0  0  0  0
  1  3  1  0  0  0  0
  2  6  1  0  0  0  0
  2  3  1  0  0  0  0
  3  7  1  1  0  0  0
  5  2  1  0  0  0  0
  9  3  1  0  0  0  0
  9  8  2  0  0  0  0
 10  9  1  0  0  0  0
 11 10  1  0  0  0  0
 12 10  2  0  0  0  0
 12 17  1  0  0  0  0
 13 14  1  0  0  0  0
 13 12  1  0  0  0  0
 14 16  2  0  0  0  0
 15 14  1  0  0  0  0
 16 17  1  0  0  0  0
 17 18  2  0  0  0  0
 18  8  1  0  0  0  0
 19 13  1  0  0  0  0
 20 21  1  0  0  0  0
 21 22  2  0  0  0  0
 21 26  1  0  0  0  0
 22 27  1  0  0  0  0
 23 22  1  0  0  0  0
 24 23  2  0  0  0  0
 25 24  1  0  0  0  0
 25 20  2  0  0  0  0
 28 30  1  0  0  0  0
 28 24  1  0  0  0  0
 29 28  1  0  0  0  0
 31 28  1  0  0  0  0
M  END
>  <minimizedAffinity>
-5.84701681

$$$$

 OpenBabel03252505413D

 31 34  0  0  1  0  0  0  0  0999 V2000
   36.5080   28.3530   39.6900 C   0  0  1  0  0  0  0  0  0  0  0  0
   35.2950   28.9180   40.4670 C   0  0  0  0  0  0  0  0  0  0  0  0
   36.6920   29.0000   40.9900 C   0  0  2  0  0  0  0  0  0  0  0  0
   36.5790   28.8690   38.6960 H   0  0  0  0  0  0  0  0  0  0  0  0
   34.8590   29.8690   40.1350 H   0  0  0  0  0  0  0  0  0  0  0  0
   34.6130   28.1880   40.9100 H   0  0  0  0  0  0  0  0  0  0  0  0
   36.9120   28.3770   41.8570 H   0  0  0  0  0  0  0  0  0  0  0  0
   38.6670   30.3930   41.5020 C   0  0  0  0  0  3  0  0  0  0  0  0
   37.4190   30.2970   40.9520 C   0  0  0  0  0  0  0  0  0  0  0  0
   36.8930   31.4350   40.3820 C   0  0  0  0  0  0  0  0  0  0  0  0
   35.9070   31.3890   39.9390 H   0  0  0  0  0  0  0  0  0  0  0  0
   37.5630   32.6350   40.3470 C   0  0  0  0  0  0  0  0  0  0  0  0
   37.2930   33.8820   39.8630 N   0  0  0  0  0  0  0  0  0  0  0  0
   38.3240   34.7020   40.1040 C   0  0  0  0  0  0  0  0  0  0  0  0
   38.4180   35.7640   39.8410 H   0  0  0  0  0  0  0  0  0  0  0  0
   39.2580   33.9770   40.7440 N   0  0  0  0  0  0  0  0  0  0  0  0
   38.8330   32.7050   40.9140 C   0  0  0  0  0  0  0  0  0  0  0  0
   39.3950   31.5690   41.5010 C   0  0  0  0  0  3  0  0  0  0  0  0
   36.4030   34.1520   39.3730 H   0  0  0  0  0  0  0  0  0  0  0  0
   36.4930   26.8640   39.5580 C   0  0  0  0  0  0  0  0  0  0  0  0
   35.8250   26.2790   38.4510 C   0  0  0  0  0  0  0  0  0  0  0  0
   35.8410   24.8910   38.3480 C   0  0  0  0  0  0  0  0  0  0  0  0
   36.4900   24.1820   39.3060 N   0  0  0  0  0  0  0  0  0  0  0  0
   37.1160   24.7830   40.3470 C   0  0  0  0  0  0  0  0  0  0  0  0
   37.1110   26.1340   40.4650 N   0  0  0  0  0  0  0  0  0  0  0  0
   35.3210   26.8830   37.7090 H   0  0  0  0  0  0  0  0  0  0  0  0
   35.3580   24.3700   37.5390 H   0  0  0  0  0  0  0  0  0  0  0  0
   37.7810   23.8170   41.2830 C   0  0  0  0  0  0  0  0  0  0  0  0
   37.5430   22.5140   40.9250 F   0  0  0  0  0  0  0  0  0  0  0  0
   37.3010   24.0140   42.5810 F   0  0  0  0  0  0  0  0  0  0  0  0
   39.1380   24.1150   41.3400 F   0  0  0  0  0  0  0  0  0  0  0  0
  1  4  1  6  0  0  0
  1  2  1  0  0  0  0
  1  3  1  0  0  0  0
  2  6  1  0  0  0  0
  2  3  1  0  0  0  0
  3  7  1  1  0  0  0
  5  2  1  0  0  0  0
  9  3  1  0  0  0  0
  9  8  2  0  0  0  0
 10  9  1  0  0  0  0
 11 10  1  0  0  0  0
 12 10  2  0  0  0  0
 12 17  1  0  0  0  0
 13 14  1  0  0  0  0
 13 12  1  0  0  0  0
 14 16  2  0  0  0  0
 15 14  1  0  0  0  0
 16 17  1  0  0  0  0
 17 18  2  0  0  0  0
 18  8  1  0  0  0  0
 19 13  1  0  0  0  0
 20  1  1  0  0  0  0
 20 25  1  0  0  0  0
 21 20  2  0  0  0  0
 22 21  1  0  0  0  0
 22 23  2  0  0  0  0
 23 24  1  0  0  0  0
 24 25  2  0  0  0  0
 24 28  1  0  0  0  0
 26 21  1  0  0  0  0
 27 22  1  0  0  0  0
 28 31  1  0  0  0  0
 28 30  1  0  0  0  0
 29 28  1  0  0  0  0
M  END
>  <minimizedAffinity>
-5.84578943

$$$$

 OpenBabel03252505413D

 31 34  0  0  1  0  0  0  0  0999 V2000
   38.5590   29.8300   40.3250 C   0  0  1  0  0  0  0  0  0  0  0  0
   37.4570   30.3550   39.3750 C   0  0  0  0  0  0  0  0  0  0  0  0
   38.1430   31.2320   40.3710 C   0  0  2  0  0  0  0  0  0  0  0  0
   39.4100   29.4290   39.7130 H   0  0  0  0  0  0  0  0  0  0  0  0
   37.7180   30.5410   38.3240 H   0  0  0  0  0  0  0  0  0  0  0  0
   36.4340   30.0290   39.5820 H   0  0  0  0  0  0  0  0  0  0  0  0
   37.5310   31.5670   41.2090 H   0  0  0  0  0  0  0  0  0  0  0  0
   39.4190   33.3270   40.6580 C   0  0  0  0  0  3  0  0  0  0  0  0
   39.1660   32.2090   39.9130 C   0  0  0  0  0  0  0  0  0  0  0  0
   39.8880   32.0500   38.7520 C   0  0  0  0  0  0  0  0  0  0  0  0
   39.7090   31.1750   38.1420 H   0  0  0  0  0  0  0  0  0  0  0  0
   40.8340   32.9530   38.3270 C   0  0  0  0  0  0  0  0  0  0  0  0
   41.6720   33.0460   37.2540 N   0  0  0  0  0  0  0  0  0  0  0  0
   42.4030   34.1640   37.3380 C   0  0  0  0  0  0  0  0  0  0  0  0
   43.1660   34.5270   36.6360 H   0  0  0  0  0  0  0  0  0  0  0  0
   42.0320   34.7900   38.4680 N   0  0  0  0  0  0  0  0  0  0  0  0
   41.0730   34.0830   39.1050 C   0  0  0  0  0  0  0  0  0  0  0  0
   40.3550   34.2750   40.2890 C   0  0  0  0  0  3  0  0  0  0  0  0
   41.7300   32.3380   36.4790 H   0  0  0  0  0  0  0  0  0  0  0  0
   38.0620   28.8370   41.3260 C   0  0  0  0  0  0  0  0  0  0  0  0
   37.8040   29.2690   42.6530 C   0  0  0  0  0  0  0  0  0  0  0  0
   37.3290   28.3250   43.5580 C   0  0  0  0  0  0  0  0  0  0  0  0
   37.1410   27.0530   43.1230 N   0  0  0  0  0  0  0  0  0  0  0  0
   37.4010   26.6840   41.8460 C   0  0  0  0  0  0  0  0  0  0  0  0
   37.8660   27.5890   40.9480 N   0  0  0  0  0  0  0  0  0  0  0  0
   37.9670   30.2940   42.9570 H   0  0  0  0  0  0  0  0  0  0  0  0
   37.1090   28.5720   44.5830 H   0  0  0  0  0  0  0  0  0  0  0  0
   37.1150   25.2370   41.5710 C   0  0  0  0  0  0  0  0  0  0  0  0
   36.4040   25.0700   40.4080 F   0  0  0  0  0  0  0  0  0  0  0  0
   36.3720   24.6970   42.6240 F   0  0  0  0  0  0  0  0  0  0  0  0
   38.3160   24.5370   41.5650 F   0  0  0  0  0  0  0  0  0  0  0  0
  1  4  1  6  0  0  0
  1  3  1  0  0  0  0
  1 20  1  0  0  0  0
  2  6  1  0  0  0  0
  2  1  1  0  0  0  0
  2  3  1  0  0  0  0
  3  7  1  1  0  0  0
  5  2  1  0  0  0  0
  9  3  1  0  0  0  0
  9  8  2  0  0  0  0
 10  9  1  0  0  0  0
 11 10  1  0  0  0  0
 12 10  2  0  0  0  0
 12 17  1  0  0  0  0
 13 14  1  0  0  0  0
 13 12  1  0  0  0  0
 14 16  2  0  0  0  0
 15 14  1  0  0  0  0
 16 17  1  0  0  0  0
 17 18  2  0  0  0  0
 18  8  1  0  0  0  0
 19 13  1  0  0  0  0
 20 21  1  0  0  0  0
 21 26  1  0  0  0  0
 21 22  2  0  0  0  0
 22 27  1  0  0  0  0
 23 22  1  0  0  0  0
 24 23  2  0  0  0  0
 25 20  2  0  0  0  0
 25 24  1  0  0  0  0
 28 24  1  0  0  0  0
 28 30  1  0  0  0  0
 29 28  1  0  0  0  0
 31 28  1  0  0  0  0
M  END
>  <minimizedAffinity>
-5.78860331

$$$$

 OpenBabel03252505413D

 31 34  0  0  1  0  0  0  0  0999 V2000
   34.2700   28.4510   37.7790 C   0  0  1  0  0  0  0  0  0  0  0  0
   35.5480   29.1260   37.2270 C   0  0  0  0  0  0  0  0  0  0  0  0
   35.0740   29.3290   38.6300 C   0  0  2  0  0  0  0  0  0  0  0  0
   34.3850   27.3370   37.7100 H   0  0  0  0  0  0  0  0  0  0  0  0
   36.4560   28.5170   37.1200 H   0  0  0  0  0  0  0  0  0  0  0  0
   35.4040   29.9330   36.5040 H   0  0  0  0  0  0  0  0  0  0  0  0
   34.6920   30.3240   38.8620 H   0  0  0  0  0  0  0  0  0  0  0  0
   36.2740   27.3900   39.5780 C   0  0  0  0  0  3  0  0  0  0  0  0
   35.7770   28.6510   39.7510 C   0  0  0  0  0  0  0  0  0  0  0  0
   35.9580   29.2350   40.9840 C   0  0  0  0  0  0  0  0  0  0  0  0
   35.5750   30.2330   41.1510 H   0  0  0  0  0  0  0  0  0  0  0  0
   36.6070   28.6100   42.0230 C   0  0  0  0  0  0  0  0  0  0  0  0
   36.9210   28.9410   43.3090 N   0  0  0  0  0  0  0  0  0  0  0  0
   37.5780   27.9330   43.8960 C   0  0  0  0  0  0  0  0  0  0  0  0
   37.9670   27.8850   44.9220 H   0  0  0  0  0  0  0  0  0  0  0  0
   37.6860   26.9530   42.9810 N   0  0  0  0  0  0  0  0  0  0  0  0
   37.1050   27.3260   41.8200 C   0  0  0  0  0  0  0  0  0  0  0  0
   36.9370   26.7040   40.5800 C   0  0  0  0  0  3  0  0  0  0  0  0
   36.6790   29.8560   43.7660 H   0  0  0  0  0  0  0  0  0  0  0  0
   33.0120   28.9330   37.1320 C   0  0  0  0  0  0  0  0  0  0  0  0
   32.7960   28.6550   35.7570 C   0  0  0  0  0  0  0  0  0  0  0  0
   31.6090   29.1050   35.1870 C   0  0  0  0  0  0  0  0  0  0  0  0
   30.7310   29.7790   35.9730 N   0  0  0  0  0  0  0  0  0  0  0  0
   30.9790   30.0230   37.2830 C   0  0  0  0  0  0  0  0  0  0  0  0
   32.1310   29.5930   37.8570 N   0  0  0  0  0  0  0  0  0  0  0  0
   33.5220   28.1130   35.1670 H   0  0  0  0  0  0  0  0  0  0  0  0
   31.3690   28.9360   34.1510 H   0  0  0  0  0  0  0  0  0  0  0  0
   29.8760   30.7720   37.9710 C   0  0  0  0  0  0  0  0  0  0  0  0
   30.1890   32.0970   38.1430 F   0  0  0  0  0  0  0  0  0  0  0  0
   29.6380   30.2070   39.2270 F   0  0  0  0  0  0  0  0  0  0  0  0
   28.6990   30.5910   37.2540 F   0  0  0  0  0  0  0  0  0  0  0  0
  1  4  1  1  0  0  0
  1  3  1  0  0  0  0
  2  1  1  0  0  0  0
  2  3  1  0  0  0  0
  3  7  1  1  0  0  0
  3  9  1  0  0  0  0
  5  2  1  0  0  0  0
  6  2  1  0  0  0  0
  8  9  2  0  0  0  0
  8 18  1  0  0  0  0
  9 10  1  0  0  0  0
 10 11  1  0  0  0  0
 10 12  2  0  0  0  0
 12 13  1  0  0  0  0
 13 19  1  0  0  0  0
 13 14  1  0  0  0  0
 14 15  1  0  0  0  0
 16 14  2  0  0  0  0
 17 12  1  0  0  0  0
 17 16  1  0  0  0  0
 18 17  2  0  0  0  0
 20  1  1  0  0  0  0
 20 25  1  0  0  0  0
 21 20  2  0  0  0  0
 22 21  1  0  0  0  0
 22 23  2  0  0  0  0
 23 24  1  0  0  0  0
 24 25  2  0  0  0  0
 24 28  1  0  0  0  0
 26 21  1  0  0  0  0
 27 22  1  0  0  0  0
 28 29  1  0  0  0  0
 28 30  1  0  0  0  0
 31 28  1  0  0  0  0
M  END
>  <minimizedAffinity>
-5.77787828

$$$$

 OpenBabel03252505413D

 31 34  0  0  1  0  0  0  0  0999 V2000
   36.3780   29.9490   39.0830 C   0  0  1  0  0  0  0  0  0  0  0  0
   37.2780   29.6820   37.8530 C   0  0  0  0  0  0  0  0  0  0  0  0
   36.0910   28.8350   38.1790 C   0  0  2  0  0  0  0  0  0  0  0  0
   35.9390   30.9780   38.9990 H   0  0  0  0  0  0  0  0  0  0  0  0
   37.1680   30.3310   36.9740 H   0  0  0  0  0  0  0  0  0  0  0  0
   38.2760   29.2830   38.0530 H   0  0  0  0  0  0  0  0  0  0  0  0
   36.3090   27.8210   38.5140 H   0  0  0  0  0  0  0  0  0  0  0  0
   34.9160   29.0690   36.0190 C   0  0  0  0  0  3  0  0  0  0  0  0
   34.8440   28.9750   37.3810 C   0  0  0  0  0  0  0  0  0  0  0  0
   33.5910   29.0180   37.9490 C   0  0  0  0  0  0  0  0  0  0  0  0
   33.5030   28.9460   39.0250 H   0  0  0  0  0  0  0  0  0  0  0  0
   32.4370   29.1470   37.2130 C   0  0  0  0  0  0  0  0  0  0  0  0
   31.1050   29.2140   37.5020 N   0  0  0  0  0  0  0  0  0  0  0  0
   30.3960   29.3430   36.3740 C   0  0  0  0  0  0  0  0  0  0  0  0
   29.3060   29.4230   36.2660 H   0  0  0  0  0  0  0  0  0  0  0  0
   31.2770   29.3580   35.3580 N   0  0  0  0  0  0  0  0  0  0  0  0
   32.5380   29.2400   35.8270 C   0  0  0  0  0  0  0  0  0  0  0  0
   33.7960   29.2010   35.2190 C   0  0  0  0  0  3  0  0  0  0  0  0
   30.7020   29.1710   38.4720 H   0  0  0  0  0  0  0  0  0  0  0  0
   37.0710   29.7310   40.3900 C   0  0  0  0  0  0  0  0  0  0  0  0
   38.0350   30.6780   40.8230 C   0  0  0  0  0  0  0  0  0  0  0  0
   38.6520   30.4560   42.0500 C   0  0  0  0  0  0  0  0  0  0  0  0
   38.2990   29.3530   42.7580 N   0  0  0  0  0  0  0  0  0  0  0  0
   37.3730   28.4730   42.3050 C   0  0  0  0  0  0  0  0  0  0  0  0
   36.7600   28.6730   41.1110 N   0  0  0  0  0  0  0  0  0  0  0  0
   38.2850   31.5460   40.2270 H   0  0  0  0  0  0  0  0  0  0  0  0
   39.3940   31.1260   42.4500 H   0  0  0  0  0  0  0  0  0  0  0  0
   37.1220   27.3310   43.2460 C   0  0  0  0  0  0  0  0  0  0  0  0
   38.1100   27.2240   44.1930 F   0  0  0  0  0  0  0  0  0  0  0  0
   37.0680   26.1340   42.5270 F   0  0  0  0  0  0  0  0  0  0  0  0
   35.8600   27.4850   43.8080 F   0  0  0  0  0  0  0  0  0  0  0  0
  1  4  1  6  0  0  0
  1 20  1  0  0  0  0
  2  6  1  0  0  0  0
  2  3  1  0  0  0  0
  2  1  1  0  0  0  0
  3  7  1  1  0  0  0
  3  1  1  0  0  0  0
  5  2  1  0  0  0  0
  8  9  1  0  0  0  0
  9 10  2  0  0  0  0
  9  3  1  0  0  0  0
 10 11  1  0  0  0  0
 12 13  1  0  0  0  0
 12 10  1  0  0  0  0
 13 19  1  0  0  0  0
 14 13  1  0  0  0  0
 15 14  1  0  0  0  0
 16 17  1  0  0  0  0
 16 14  2  0  0  0  0
 17 12  2  0  0  0  0
 18 17  1  0  0  0  0
 18  8  2  0  0  0  0
 20 21  2  0  0  0  0
 20 25  1  0  0  0  0
 21 22  1  0  0  0  0
 22 27  1  0  0  0  0
 22 23  2  0  0  0  0
 24 23  1  0  0  0  0
 24 28  1  0  0  0  0
 25 24  2  0  0  0  0
 26 21  1  0  0  0  0
 28 31  1  0  0  0  0
 28 29  1  0  0  0  0
 30 28  1  0  0  0  0
M  END
>  <minimizedAffinity>
-5.6190362

$$$$

 OpenBabel03252505413D

 31 34  0  0  1  0  0  0  0  0999 V2000
   33.0370   28.7790   37.6040 C   0  0  1  0  0  0  0  0  0  0  0  0
   34.0890   28.5470   36.4940 C   0  0  0  0  0  0  0  0  0  0  0  0
   34.4100   29.2590   37.7680 C   0  0  2  0  0  0  0  0  0  0  0  0
   32.6540   27.7860   37.9590 H   0  0  0  0  0  0  0  0  0  0  0  0
   34.5280   27.5450   36.3900 H   0  0  0  0  0  0  0  0  0  0  0  0
   33.9770   29.1360   35.5800 H   0  0  0  0  0  0  0  0  0  0  0  0
   34.6030   30.3280   37.6780 H   0  0  0  0  0  0  0  0  0  0  0  0
   35.8100   27.3760   38.5410 C   0  0  0  0  0  3  0  0  0  0  0  0
   35.1990   28.5670   38.8210 C   0  0  0  0  0  0  0  0  0  0  0  0
   35.3520   29.0680   40.0940 C   0  0  0  0  0  0  0  0  0  0  0  0
   34.8790   30.0080   40.3450 H   0  0  0  0  0  0  0  0  0  0  0  0
   36.0810   28.4290   41.0690 C   0  0  0  0  0  0  0  0  0  0  0  0
   36.3910   28.6880   42.3730 N   0  0  0  0  0  0  0  0  0  0  0  0
   37.1540   27.7040   42.8670 C   0  0  0  0  0  0  0  0  0  0  0  0
   37.5680   27.6150   43.8800 H   0  0  0  0  0  0  0  0  0  0  0  0
   37.3340   26.8140   41.8760 N   0  0  0  0  0  0  0  0  0  0  0  0
   36.6930   27.2190   40.7570 C   0  0  0  0  0  0  0  0  0  0  0  0
   36.5570   26.6820   39.4740 C   0  0  0  0  0  3  0  0  0  0  0  0
   36.0730   29.5360   42.9050 H   0  0  0  0  0  0  0  0  0  0  0  0
   31.9330   29.7020   37.1980 C   0  0  0  0  0  0  0  0  0  0  0  0
   30.9120   30.0070   38.1350 C   0  0  0  0  0  0  0  0  0  0  0  0
   29.9070   30.8800   37.7310 C   0  0  0  0  0  0  0  0  0  0  0  0
   29.9600   31.3880   36.4740 N   0  0  0  0  0  0  0  0  0  0  0  0
   30.9550   31.0690   35.6110 C   0  0  0  0  0  0  0  0  0  0  0  0
   31.9450   30.2190   35.9850 N   0  0  0  0  0  0  0  0  0  0  0  0
   30.9090   29.5800   39.1280 H   0  0  0  0  0  0  0  0  0  0  0  0
   29.0960   31.1620   38.3810 H   0  0  0  0  0  0  0  0  0  0  0  0
   30.8320   31.7480   34.2790 C   0  0  0  0  0  0  0  0  0  0  0  0
   30.8470   30.8460   33.2440 F   0  0  0  0  0  0  0  0  0  0  0  0
   31.8950   32.6380   34.1050 F   0  0  0  0  0  0  0  0  0  0  0  0
   29.6860   32.5350   34.2830 F   0  0  0  0  0  0  0  0  0  0  0  0
  1  3  1  0  0  0  0
  1  4  1  1  0  0  0
  2  1  1  0  0  0  0
  2  3  1  0  0  0  0
  3  7  1  6  0  0  0
  3  9  1  0  0  0  0
  5  2  1  0  0  0  0
  6  2  1  0  0  0  0
  8  9  2  0  0  0  0
  8 18  1  0  0  0  0
  9 10  1  0  0  0  0
 10 11  1  0  0  0  0
 10 12  2  0  0  0  0
 12 13  1  0  0  0  0
 13 14  1  0  0  0  0
 13 19  1  0  0  0  0
 14 15  1  0  0  0  0
 16 14  2  0  0  0  0
 17 12  1  0  0  0  0
 17 16  1  0  0  0  0
 18 17  2  0  0  0  0
 20  1  1  0  0  0  0
 20 21  1  0  0  0  0
 21 26  1  0  0  0  0
 22 21  2  0  0  0  0
 22 27  1  0  0  0  0
 23 22  1  0  0  0  0
 24 25  1  0  0  0  0
 24 23  2  0  0  0  0
 25 20  2  0  0  0  0
 28 31  1  0  0  0  0
 28 24  1  0  0  0  0
 29 28  1  0  0  0  0
 30 28  1  0  0  0  0
M  END
>  <minimizedAffinity>
-5.60739613

$$$$
