
 OpenBabel03242516313D

 49 54  0  0  0  0  0  0  0  0999 V2000
   37.6180   31.5600   38.9740 C   0  0  0  0  0  0  0  0  0  0  0  0
   38.1030   32.0700   37.7980 N   0  0  0  0  0  0  0  0  0  0  0  0
   37.7920   31.5830   36.5990 C   0  0  0  0  0  0  0  0  0  0  0  0
   36.9590   30.5360   36.5580 N   0  0  0  0  0  0  0  0  0  0  0  0
   36.4390   29.9760   37.6610 C   0  0  0  0  0  0  0  0  0  0  0  0
   35.5710   28.8980   37.6120 C   0  0  0  0  0  0  0  0  0  0  0  0
   35.0590   28.3610   38.7480 C   0  0  0  0  0  0  0  0  0  0  0  0
   35.3840   28.8630   39.9710 C   0  0  0  0  0  0  0  0  0  0  0  0
   36.2600   29.9520   40.0630 C   0  0  0  0  0  0  0  0  0  0  0  0
   36.7700   30.4900   38.9170 C   0  0  0  0  0  0  0  0  0  0  0  0
   38.2220   32.0480   35.7250 H   0  0  0  0  0  0  0  0  0  0  0  0
   35.2980   28.4800   36.6610 H   0  0  0  0  0  0  0  0  0  0  0  0
   34.3790   27.5130   38.6560 H   0  0  0  0  0  0  0  0  0  0  0  0
   34.9360   28.3820   40.8310 H   0  0  0  0  0  0  0  0  0  0  0  0
   36.5860   30.3970   41.4350 C   0  0  0  0  0  0  0  0  0  0  0  0
   37.3690   31.1510   41.5200 H   0  0  0  0  0  0  0  0  0  0  0  0
   35.7060   30.4850   42.0970 H   0  0  0  0  0  0  0  0  0  0  0  0
   36.6830   28.2110   42.7910 C   0  0  0  0  0  3  0  0  0  0  0  0
   37.3280   29.2860   42.1670 C   0  0  0  0  0  0  0  0  0  0  0  0
   38.7050   29.2600   42.2750 C   0  0  0  0  0  0  0  0  0  0  0  0
   39.2550   30.0670   41.8100 H   0  0  0  0  0  0  0  0  0  0  0  0
   39.4060   28.2750   42.9310 C   0  0  0  0  0  0  0  0  0  0  0  0
   40.7350   28.1200   43.1140 N   0  0  0  0  0  0  0  0  0  0  0  0
   40.8350   26.9830   43.8260 C   0  0  0  0  0  0  0  0  0  0  0  0
   41.7630   26.5570   44.1530 H   0  0  0  0  0  0  0  0  0  0  0  0
   39.6150   26.4380   44.0850 N   0  0  0  0  0  0  0  0  0  0  0  0
   38.7060   27.2460   43.5240 C   0  0  0  0  0  0  0  0  0  0  0  0
   37.3310   27.2000   43.4620 C   0  0  0  0  0  3  0  0  0  0  0  0
   41.5410   28.7160   42.7980 H   0  0  0  0  0  0  0  0  0  0  0  0
   38.0190   32.2580   40.4980 S   0  0  0  0  0  0  0  0  0  0  0  0
   41.2270   34.6570   40.3760 C   0  0  0  0  0  0  0  0  0  0  0  0
   40.3870   33.5630   40.4660 C   0  0  0  0  0  0  0  0  0  0  0  0
   39.0320   33.6810   40.3500 C   0  0  0  0  0  0  0  0  0  0  0  0
   38.4680   34.9190   40.1370 C   0  0  0  0  0  0  0  0  0  0  0  0
   39.2440   36.0350   40.0410 C   0  0  0  0  0  0  0  0  0  0  0  0
   40.6110   35.8780   40.1630 C   0  0  0  0  0  0  0  0  0  0  0  0
   40.8510   32.5980   40.6320 H   0  0  0  0  0  0  0  0  0  0  0  0
   37.4000   35.0360   40.0420 H   0  0  0  0  0  0  0  0  0  0  0  0
   38.8520   37.0450   39.8730 H   0  0  0  0  0  0  0  0  0  0  0  0
   41.2700   36.7390   40.0930 H   0  0  0  0  0  0  0  0  0  0  0  0
   44.6270   33.6320   39.5490 C   0  0  0  0  0  0  0  0  0  0  0  0
   45.3920   34.1100   40.6280 C   0  0  0  0  0  0  0  0  0  0  0  0
   44.7360   34.7910   41.6490 C   0  0  0  0  0  0  0  0  0  0  0  0
   43.3780   34.9790   41.5850 N   0  0  0  0  0  0  0  0  0  0  0  0
   42.6770   34.4900   40.5060 C   0  0  0  0  0  0  0  0  0  0  0  0
   43.2910   33.8220   39.4940 N   0  0  0  0  0  0  0  0  0  0  0  0
   45.2030   33.1150   38.7940 H   0  0  0  0  0  0  0  0  0  0  0  0
   46.4450   33.9960   40.7330 H   0  0  0  0  0  0  0  0  0  0  0  0
   45.1780   35.2100   42.5280 H   0  0  0  0  0  0  0  0  0  0  0  0
  1 30  1  0  0  0  0
  2  1  2  0  0  0  0
  3  2  1  0  0  0  0
  4  3  2  0  0  0  0
  4  5  1  0  0  0  0
  5 10  1  0  0  0  0
  6  5  2  0  0  0  0
  6  7  1  0  0  0  0
  7  8  2  0  0  0  0
  8  9  1  0  0  0  0
  8 14  1  0  0  0  0
  9 15  1  0  0  0  0
 10  1  1  0  0  0  0
 10  9  2  0  0  0  0
 11  3  1  0  0  0  0
 12  6  1  0  0  0  0
 13  7  1  0  0  0  0
 15 16  1  0  0  0  0
 15 17  1  0  0  0  0
 15 19  1  0  0  0  0
 18 28  1  0  0  0  0
 19 20  1  0  0  0  0
 19 18  2  0  0  0  0
 20 22  2  0  0  0  0
 21 20  1  0  0  0  0
 22 23  1  0  0  0  0
 22 27  1  0  0  0  0
 23 24  1  0  0  0  0
 24 26  2  0  0  0  0
 24 25  1  0  0  0  0
 27 26  1  0  0  0  0
 28 27  2  0  0  0  0
 29 23  1  0  0  0  0
 31 32  1  0  0  0  0
 31 45  1  0  0  0  0
 32 37  1  0  0  0  0
 33 32  2  0  0  0  0
 33 30  1  0  0  0  0
 34 33  1  0  0  0  0
 35 34  2  0  0  0  0
 35 36  1  0  0  0  0
 36 31  2  0  0  0  0
 38 34  1  0  0  0  0
 39 35  1  0  0  0  0
 40 36  1  0  0  0  0
 41 42  1  0  0  0  0
 42 48  1  0  0  0  0
 42 43  2  0  0  0  0
 43 49  1  0  0  0  0
 44 43  1  0  0  0  0
 45 44  2  0  0  0  0
 46 41  2  0  0  0  0
 46 45  1  0  0  0  0
 47 41  1  0  0  0  0
M  END
>  <minimizedAffinity>
-7.90716839

$$$$

 OpenBabel03242516313D

 49 54  0  0  0  0  0  0  0  0999 V2000
   39.0130   30.1590   42.2840 C   0  0  0  0  0  0  0  0  0  0  0  0
   40.2990   30.2870   42.7430 N   0  0  0  0  0  0  0  0  0  0  0  0
   41.1620   31.1840   42.2740 C   0  0  0  0  0  0  0  0  0  0  0  0
   40.7360   31.9990   41.3010 N   0  0  0  0  0  0  0  0  0  0  0  0
   39.4940   31.9400   40.7950 C   0  0  0  0  0  0  0  0  0  0  0  0
   39.0560   32.7900   39.7940 C   0  0  0  0  0  0  0  0  0  0  0  0
   37.7910   32.7070   39.3100 C   0  0  0  0  0  0  0  0  0  0  0  0
   36.9130   31.7840   39.7930 C   0  0  0  0  0  0  0  0  0  0  0  0
   37.3180   30.9050   40.8050 C   0  0  0  0  0  0  0  0  0  0  0  0
   38.5920   30.9960   41.2900 C   0  0  0  0  0  0  0  0  0  0  0  0
   42.1560   31.2140   42.6950 H   0  0  0  0  0  0  0  0  0  0  0  0
   39.7260   33.5270   39.3920 H   0  0  0  0  0  0  0  0  0  0  0  0
   37.4940   33.4000   38.5220 H   0  0  0  0  0  0  0  0  0  0  0  0
   35.9230   31.7790   39.3580 H   0  0  0  0  0  0  0  0  0  0  0  0
   36.3100   29.9120   41.2320 C   0  0  0  0  0  0  0  0  0  0  0  0
   36.6830   29.0760   41.8250 H   0  0  0  0  0  0  0  0  0  0  0  0
   35.3380   30.3550   41.5130 H   0  0  0  0  0  0  0  0  0  0  0  0
   36.6640   28.1160   39.4220 C   0  0  0  0  0  3  0  0  0  0  0  0
   35.8630   29.0910   40.0290 C   0  0  0  0  0  0  0  0  0  0  0  0
   34.6240   29.2530   39.4400 C   0  0  0  0  0  0  0  0  0  0  0  0
   33.9630   29.9940   39.8700 H   0  0  0  0  0  0  0  0  0  0  0  0
   34.1900   28.5320   38.3520 C   0  0  0  0  0  0  0  0  0  0  0  0
   33.0200   28.5810   37.6790 N   0  0  0  0  0  0  0  0  0  0  0  0
   33.1600   27.6550   36.7150 C   0  0  0  0  0  0  0  0  0  0  0  0
   32.4080   27.4260   35.9860 H   0  0  0  0  0  0  0  0  0  0  0  0
   34.3740   27.0420   36.7740 N   0  0  0  0  0  0  0  0  0  0  0  0
   35.0310   27.5880   37.8040 C   0  0  0  0  0  0  0  0  0  0  0  0
   36.2830   27.3670   38.3330 C   0  0  0  0  0  3  0  0  0  0  0  0
   32.1700   29.1820   37.8320 H   0  0  0  0  0  0  0  0  0  0  0  0
   37.9220   29.0090   42.9590 S   0  0  0  0  0  0  0  0  0  0  0  0
   38.4360   25.1410   42.0430 C   0  0  0  0  0  0  0  0  0  0  0  0
   37.9890   26.4480   42.0910 C   0  0  0  0  0  0  0  0  0  0  0  0
   38.5500   27.3720   42.9260 C   0  0  0  0  0  0  0  0  0  0  0  0
   39.5910   27.0080   43.7500 C   0  0  0  0  0  0  0  0  0  0  0  0
   40.0740   25.7340   43.7490 C   0  0  0  0  0  0  0  0  0  0  0  0
   39.4830   24.8260   42.8910 C   0  0  0  0  0  0  0  0  0  0  0  0
   37.1700   26.7140   41.4340 H   0  0  0  0  0  0  0  0  0  0  0  0
   40.0490   27.7210   44.4170 H   0  0  0  0  0  0  0  0  0  0  0  0
   40.8990   25.3870   44.3810 H   0  0  0  0  0  0  0  0  0  0  0  0
   39.8350   23.7990   42.8540 H   0  0  0  0  0  0  0  0  0  0  0  0
   35.9250   23.6540   39.8560 C   0  0  0  0  0  0  0  0  0  0  0  0
   36.5240   22.4570   39.4260 C   0  0  0  0  0  0  0  0  0  0  0  0
   37.8010   22.1560   39.8890 C   0  0  0  0  0  0  0  0  0  0  0  0
   38.4410   23.0190   40.7440 N   0  0  0  0  0  0  0  0  0  0  0  0
   37.8090   24.1780   41.1340 C   0  0  0  0  0  0  0  0  0  0  0  0
   36.5620   24.4980   40.6970 N   0  0  0  0  0  0  0  0  0  0  0  0
   34.9350   23.8220   39.4560 H   0  0  0  0  0  0  0  0  0  0  0  0
   36.0790   21.7510   38.7650 H   0  0  0  0  0  0  0  0  0  0  0  0
   38.3810   21.2900   39.6530 H   0  0  0  0  0  0  0  0  0  0  0  0
  1  2  1  0  0  0  0
  1 30  1  0  0  0  0
  3 11  1  0  0  0  0
  3  2  2  0  0  0  0
  4  3  1  0  0  0  0
  5 10  1  0  0  0  0
  5  4  2  0  0  0  0
  6  5  1  0  0  0  0
  7  8  1  0  0  0  0
  7  6  2  0  0  0  0
  8  9  2  0  0  0  0
  9 15  1  0  0  0  0
  9 10  1  0  0  0  0
 10  1  2  0  0  0  0
 12  6  1  0  0  0  0
 13  7  1  0  0  0  0
 14  8  1  0  0  0  0
 15 17  1  0  0  0  0
 15 16  1  0  0  0  0
 18 19  1  0  0  0  0
 19 15  1  0  0  0  0
 20 21  1  0  0  0  0
 20 19  2  0  0  0  0
 22 20  1  0  0  0  0
 23 29  1  0  0  0  0
 23 22  1  0  0  0  0
 24 26  2  0  0  0  0
 24 23  1  0  0  0  0
 25 24  1  0  0  0  0
 26 27  1  0  0  0  0
 27 28  1  0  0  0  0
 27 22  2  0  0  0  0
 28 18  2  0  0  0  0
 31 32  2  0  0  0  0
 31 36  1  0  0  0  0
 32 33  1  0  0  0  0
 33 30  1  0  0  0  0
 33 34  2  0  0  0  0
 34 38  1  0  0  0  0
 35 34  1  0  0  0  0
 35 39  1  0  0  0  0
 36 35  2  0  0  0  0
 37 32  1  0  0  0  0
 40 36  1  0  0  0  0
 41 46  1  0  0  0  0
 42 41  2  0  0  0  0
 42 43  1  0  0  0  0
 43 44  2  0  0  0  0
 44 45  1  0  0  0  0
 45 31  1  0  0  0  0
 46 45  2  0  0  0  0
 47 41  1  0  0  0  0
 48 42  1  0  0  0  0
 49 43  1  0  0  0  0
M  END
>  <minimizedAffinity>
-7.29878902

$$$$

 OpenBabel03242516313D

 49 54  0  0  0  0  0  0  0  0999 V2000
   36.5800   27.1860   39.1230 C   0  0  0  0  0  0  0  0  0  0  0  0
   36.6160   25.8260   38.9470 N   0  0  0  0  0  0  0  0  0  0  0  0
   36.8170   24.9600   39.9360 C   0  0  0  0  0  0  0  0  0  0  0  0
   36.9920   25.4600   41.1660 N   0  0  0  0  0  0  0  0  0  0  0  0
   36.9710   26.7760   41.4260 C   0  0  0  0  0  0  0  0  0  0  0  0
   37.1440   27.2880   42.7010 C   0  0  0  0  0  0  0  0  0  0  0  0
   37.1100   28.6250   42.9280 C   0  0  0  0  0  0  0  0  0  0  0  0
   36.9070   29.5060   41.9100 C   0  0  0  0  0  0  0  0  0  0  0  0
   36.7290   29.0290   40.6050 C   0  0  0  0  0  0  0  0  0  0  0  0
   36.7610   27.6820   40.3830 C   0  0  0  0  0  0  0  0  0  0  0  0
   36.8300   23.9060   39.7050 H   0  0  0  0  0  0  0  0  0  0  0  0
   37.3080   26.6170   43.5240 H   0  0  0  0  0  0  0  0  0  0  0  0
   37.2520   28.9780   43.9510 H   0  0  0  0  0  0  0  0  0  0  0  0
   36.8930   30.5560   42.1690 H   0  0  0  0  0  0  0  0  0  0  0  0
   36.5590   30.0630   39.5630 C   0  0  0  0  0  0  0  0  0  0  0  0
   36.7860   29.7550   38.5420 H   0  0  0  0  0  0  0  0  0  0  0  0
   35.6870   30.7210   39.7250 H   0  0  0  0  0  0  0  0  0  0  0  0
   39.0210   30.8080   39.4650 C   0  0  0  0  0  3  0  0  0  0  0  0
   37.6700   31.0990   39.6880 C   0  0  0  0  0  0  0  0  0  0  0  0
   37.4230   32.4120   40.0370 C   0  0  0  0  0  0  0  0  0  0  0  0
   36.3950   32.6920   40.2210 H   0  0  0  0  0  0  0  0  0  0  0  0
   38.4010   33.3710   40.1620 C   0  0  0  0  0  0  0  0  0  0  0  0
   38.3100   34.6770   40.4920 N   0  0  0  0  0  0  0  0  0  0  0  0
   39.5820   35.1110   40.4560 C   0  0  0  0  0  0  0  0  0  0  0  0
   39.8810   36.1190   40.6700 H   0  0  0  0  0  0  0  0  0  0  0  0
   40.4480   34.1180   40.1160 N   0  0  0  0  0  0  0  0  0  0  0  0
   39.7120   33.0150   39.9280 C   0  0  0  0  0  0  0  0  0  0  0  0
   40.0410   31.7250   39.5760 C   0  0  0  0  0  3  0  0  0  0  0  0
   37.4700   35.2630   40.7300 H   0  0  0  0  0  0  0  0  0  0  0  0
   36.2710   28.2610   37.8120 S   0  0  0  0  0  0  0  0  0  0  0  0
   32.4520   28.8800   36.7660 C   0  0  0  0  0  0  0  0  0  0  0  0
   33.7280   29.0120   37.2800 C   0  0  0  0  0  0  0  0  0  0  0  0
   34.6780   28.0450   37.1140 C   0  0  0  0  0  0  0  0  0  0  0  0
   34.3710   26.8980   36.4170 C   0  0  0  0  0  0  0  0  0  0  0  0
   33.1300   26.7090   35.8870 C   0  0  0  0  0  0  0  0  0  0  0  0
   32.1950   27.7090   36.0740 C   0  0  0  0  0  0  0  0  0  0  0  0
   33.9480   29.9230   37.8250 H   0  0  0  0  0  0  0  0  0  0  0  0
   35.1050   26.1210   36.2730 H   0  0  0  0  0  0  0  0  0  0  0  0
   32.8300   25.8190   35.3240 H   0  0  0  0  0  0  0  0  0  0  0  0
   31.1920   27.6040   35.6700 H   0  0  0  0  0  0  0  0  0  0  0  0
   30.4280   31.8300   36.0600 C   0  0  0  0  0  0  0  0  0  0  0  0
   29.6350   31.9750   37.2120 C   0  0  0  0  0  0  0  0  0  0  0  0
   29.7960   31.0530   38.2420 C   0  0  0  0  0  0  0  0  0  0  0  0
   30.7090   30.0360   38.1150 N   0  0  0  0  0  0  0  0  0  0  0  0
   31.4600   29.9400   36.9650 C   0  0  0  0  0  0  0  0  0  0  0  0
   31.3240   30.8270   35.9430 N   0  0  0  0  0  0  0  0  0  0  0  0
   30.2480   32.5810   35.3030 H   0  0  0  0  0  0  0  0  0  0  0  0
   28.9120   32.7400   37.3680 H   0  0  0  0  0  0  0  0  0  0  0  0
   29.2700   31.0320   39.1730 H   0  0  0  0  0  0  0  0  0  0  0  0
  1 10  1  0  0  0  0
  2  1  2  0  0  0  0
  2  3  1  0  0  0  0
  3  4  2  0  0  0  0
  4  5  1  0  0  0  0
  5  6  1  0  0  0  0
  6  7  2  0  0  0  0
  6 12  1  0  0  0  0
  7 13  1  0  0  0  0
  8 14  1  0  0  0  0
  8  7  1  0  0  0  0
  9  8  2  0  0  0  0
 10  9  1  0  0  0  0
 10  5  2  0  0  0  0
 11  3  1  0  0  0  0
 15 19  1  0  0  0  0
 15 17  1  0  0  0  0
 15  9  1  0  0  0  0
 16 15  1  0  0  0  0
 18 28  2  0  0  0  0
 18 19  1  0  0  0  0
 19 20  2  0  0  0  0
 20 22  1  0  0  0  0
 20 21  1  0  0  0  0
 22 23  1  0  0  0  0
 23 29  1  0  0  0  0
 24 23  1  0  0  0  0
 24 25  1  0  0  0  0
 26 24  2  0  0  0  0
 27 26  1  0  0  0  0
 27 22  2  0  0  0  0
 28 27  1  0  0  0  0
 30  1  1  0  0  0  0
 31 45  1  0  0  0  0
 31 32  1  0  0  0  0
 32 37  1  0  0  0  0
 33 32  2  0  0  0  0
 33 30  1  0  0  0  0
 34 33  1  0  0  0  0
 35 36  1  0  0  0  0
 35 34  2  0  0  0  0
 36 31  2  0  0  0  0
 38 34  1  0  0  0  0
 39 35  1  0  0  0  0
 40 36  1  0  0  0  0
 41 42  1  0  0  0  0
 42 48  1  0  0  0  0
 42 43  2  0  0  0  0
 43 49  1  0  0  0  0
 44 43  1  0  0  0  0
 45 44  2  0  0  0  0
 46 41  2  0  0  0  0
 46 45  1  0  0  0  0
 47 41  1  0  0  0  0
M  END
>  <minimizedAffinity>
-7.21078587

$$$$

 OpenBabel03242516313D

 49 54  0  0  0  0  0  0  0  0999 V2000
   37.3780   27.5400   41.3560 C   0  0  0  0  0  0  0  0  0  0  0  0
   36.5450   26.8200   40.5400 N   0  0  0  0  0  0  0  0  0  0  0  0
   36.7050   25.5250   40.2820 C   0  0  0  0  0  0  0  0  0  0  0  0
   37.7410   24.9050   40.8610 N   0  0  0  0  0  0  0  0  0  0  0  0
   38.6040   25.5350   41.6730 C   0  0  0  0  0  0  0  0  0  0  0  0
   39.6700   24.8880   42.2750 C   0  0  0  0  0  0  0  0  0  0  0  0
   40.5190   25.5560   43.0960 C   0  0  0  0  0  0  0  0  0  0  0  0
   40.3510   26.8820   43.3530 C   0  0  0  0  0  0  0  0  0  0  0  0
   39.2860   27.5730   42.7620 C   0  0  0  0  0  0  0  0  0  0  0  0
   38.4330   26.8960   41.9380 C   0  0  0  0  0  0  0  0  0  0  0  0
   36.0000   25.0370   39.6270 H   0  0  0  0  0  0  0  0  0  0  0  0
   39.8280   23.8420   42.0900 H   0  0  0  0  0  0  0  0  0  0  0  0
   41.3430   25.0010   43.5470 H   0  0  0  0  0  0  0  0  0  0  0  0
   41.0680   27.3460   44.0170 H   0  0  0  0  0  0  0  0  0  0  0  0
   39.2130   29.0180   43.0660 C   0  0  0  0  0  0  0  0  0  0  0  0
   38.3980   29.5670   42.5910 H   0  0  0  0  0  0  0  0  0  0  0  0
   39.4670   29.2680   44.1120 H   0  0  0  0  0  0  0  0  0  0  0  0
   40.9010   29.3180   41.1460 C   0  0  0  0  0  3  0  0  0  0  0  0
   40.3520   29.7450   42.3610 C   0  0  0  0  0  0  0  0  0  0  0  0
   40.9330   30.8860   42.8760 C   0  0  0  0  0  0  0  0  0  0  0  0
   40.5470   31.2620   43.8140 H   0  0  0  0  0  0  0  0  0  0  0  0
   41.9650   31.5650   42.2680 C   0  0  0  0  0  0  0  0  0  0  0  0
   42.6240   32.6800   42.6490 N   0  0  0  0  0  0  0  0  0  0  0  0
   43.5250   32.8760   41.6710 C   0  0  0  0  0  0  0  0  0  0  0  0
   44.2270   33.6860   41.6520 H   0  0  0  0  0  0  0  0  0  0  0  0
   43.4410   31.9200   40.7050 N   0  0  0  0  0  0  0  0  0  0  0  0
   42.4580   31.0880   41.0730 C   0  0  0  0  0  0  0  0  0  0  0  0
   41.9320   29.9540   40.4940 C   0  0  0  0  0  3  0  0  0  0  0  0
   42.5020   33.2880   43.4990 H   0  0  0  0  0  0  0  0  0  0  0  0
   37.0980   29.2070   41.6910 S   0  0  0  0  0  0  0  0  0  0  0  0
   38.3150   32.2380   39.3680 C   0  0  0  0  0  0  0  0  0  0  0  0
   38.0940   31.3840   40.4320 C   0  0  0  0  0  0  0  0  0  0  0  0
   37.3660   30.2370   40.2980 C   0  0  0  0  0  0  0  0  0  0  0  0
   36.8300   29.9050   39.0730 C   0  0  0  0  0  0  0  0  0  0  0  0
   37.0130   30.7080   37.9870 C   0  0  0  0  0  0  0  0  0  0  0  0
   37.7550   31.8600   38.1600 C   0  0  0  0  0  0  0  0  0  0  0  0
   38.5250   31.6630   41.3860 H   0  0  0  0  0  0  0  0  0  0  0  0
   36.2520   29.0040   38.9430 H   0  0  0  0  0  0  0  0  0  0  0  0
   36.6110   30.4960   36.9900 H   0  0  0  0  0  0  0  0  0  0  0  0
   37.9290   32.5310   37.3230 H   0  0  0  0  0  0  0  0  0  0  0  0
   39.0940   35.6900   40.2500 C   0  0  0  0  0  0  0  0  0  0  0  0
   40.4610   35.8130   39.9440 C   0  0  0  0  0  0  0  0  0  0  0  0
   41.1230   34.7010   39.4310 C   0  0  0  0  0  0  0  0  0  0  0  0
   40.4400   33.5260   39.2360 N   0  0  0  0  0  0  0  0  0  0  0  0
   39.1020   33.4610   39.5520 C   0  0  0  0  0  0  0  0  0  0  0  0
   38.4300   34.5300   40.0550 N   0  0  0  0  0  0  0  0  0  0  0  0
   38.6470   36.5910   40.6450 H   0  0  0  0  0  0  0  0  0  0  0  0
   41.0430   36.6940   40.0740 H   0  0  0  0  0  0  0  0  0  0  0  0
   42.1530   34.6400   39.1520 H   0  0  0  0  0  0  0  0  0  0  0  0
  1 30  1  0  0  0  0
  1 10  1  0  0  0  0
  2  1  2  0  0  0  0
  3  2  1  0  0  0  0
  3  4  2  0  0  0  0
  4  5  1  0  0  0  0
  5 10  2  0  0  0  0
  5  6  1  0  0  0  0
  6  7  2  0  0  0  0
  7  8  1  0  0  0  0
  7 13  1  0  0  0  0
  8 14  1  0  0  0  0
  9 15  1  0  0  0  0
  9  8  2  0  0  0  0
 10  9  1  0  0  0  0
 11  3  1  0  0  0  0
 12  6  1  0  0  0  0
 15 17  1  0  0  0  0
 16 15  1  0  0  0  0
 18 19  1  0  0  0  0
 19 20  2  0  0  0  0
 19 15  1  0  0  0  0
 20 21  1  0  0  0  0
 22 23  1  0  0  0  0
 22 20  1  0  0  0  0
 23 29  1  0  0  0  0
 24 23  1  0  0  0  0
 25 24  1  0  0  0  0
 26 27  1  0  0  0  0
 26 24  2  0  0  0  0
 27 22  2  0  0  0  0
 28 27  1  0  0  0  0
 28 18  2  0  0  0  0
 31 45  1  0  0  0  0
 31 32  1  0  0  0  0
 32 37  1  0  0  0  0
 33 32  2  0  0  0  0
 33 30  1  0  0  0  0
 34 33  1  0  0  0  0
 35 36  1  0  0  0  0
 35 34  2  0  0  0  0
 36 31  2  0  0  0  0
 38 34  1  0  0  0  0
 39 35  1  0  0  0  0
 40 36  1  0  0  0  0
 41 47  1  0  0  0  0
 42 48  1  0  0  0  0
 42 41  2  0  0  0  0
 43 42  1  0  0  0  0
 44 43  2  0  0  0  0
 44 45  1  0  0  0  0
 45 46  2  0  0  0  0
 46 41  1  0  0  0  0
 49 43  1  0  0  0  0
M  END
>  <minimizedAffinity>
-7.15384817

$$$$

 OpenBabel03242516313D

 49 54  0  0  0  0  0  0  0  0999 V2000
   39.4700   29.6230   41.1400 C   0  0  0  0  0  0  0  0  0  0  0  0
   40.7720   29.5280   41.5600 N   0  0  0  0  0  0  0  0  0  0  0  0
   41.1670   28.7530   42.5660 C   0  0  0  0  0  0  0  0  0  0  0  0
   40.2290   28.0310   43.1920 N   0  0  0  0  0  0  0  0  0  0  0  0
   38.9330   28.0650   42.8450 C   0  0  0  0  0  0  0  0  0  0  0  0
   37.9680   27.3100   43.4900 C   0  0  0  0  0  0  0  0  0  0  0  0
   36.6680   27.3640   43.1080 C   0  0  0  0  0  0  0  0  0  0  0  0
   36.2700   28.1620   42.0790 C   0  0  0  0  0  0  0  0  0  0  0  0
   37.2150   28.9420   41.4010 C   0  0  0  0  0  0  0  0  0  0  0  0
   38.5230   28.8820   41.7890 C   0  0  0  0  0  0  0  0  0  0  0  0
   42.2140   28.7410   42.8300 H   0  0  0  0  0  0  0  0  0  0  0  0
   38.2520   26.6720   44.3070 H   0  0  0  0  0  0  0  0  0  0  0  0
   35.9460   26.7500   43.6480 H   0  0  0  0  0  0  0  0  0  0  0  0
   35.2170   28.1520   41.8320 H   0  0  0  0  0  0  0  0  0  0  0  0
   36.6810   29.8080   40.3290 C   0  0  0  0  0  0  0  0  0  0  0  0
   35.8150   30.4170   40.5930 H   0  0  0  0  0  0  0  0  0  0  0  0
   37.4600   30.2630   39.6920 H   0  0  0  0  0  0  0  0  0  0  0  0
   36.5740   27.8260   38.6900 C   0  0  0  0  0  3  0  0  0  0  0  0
   35.9830   28.9500   39.2820 C   0  0  0  0  0  0  0  0  0  0  0  0
   34.7060   29.2220   38.8310 C   0  0  0  0  0  0  0  0  0  0  0  0
   34.2020   30.0800   39.2550 H   0  0  0  0  0  0  0  0  0  0  0  0
   34.0490   28.4710   37.8840 C   0  0  0  0  0  0  0  0  0  0  0  0
   32.8160   28.6140   37.3540 N   0  0  0  0  0  0  0  0  0  0  0  0
   32.7150   27.5950   36.4830 C   0  0  0  0  0  0  0  0  0  0  0  0
   31.8510   27.4040   35.8770 H   0  0  0  0  0  0  0  0  0  0  0  0
   33.8420   26.8330   36.4620 N   0  0  0  0  0  0  0  0  0  0  0  0
   34.6910   27.3780   37.3440 C   0  0  0  0  0  0  0  0  0  0  0  0
   35.9660   27.0400   37.7400 C   0  0  0  0  0  3  0  0  0  0  0  0
   32.0720   29.3340   37.5420 H   0  0  0  0  0  0  0  0  0  0  0  0
   39.0200   30.6100   39.8010 S   0  0  0  0  0  0  0  0  0  0  0  0
   40.9990   34.0060   40.5840 C   0  0  0  0  0  0  0  0  0  0  0  0
   40.6640   32.6840   40.3590 C   0  0  0  0  0  0  0  0  0  0  0  0
   39.3890   32.3050   40.0500 C   0  0  0  0  0  0  0  0  0  0  0  0
   38.3960   33.2550   39.9550 C   0  0  0  0  0  0  0  0  0  0  0  0
   38.6660   34.5740   40.1670 C   0  0  0  0  0  0  0  0  0  0  0  0
   39.9660   34.9210   40.4770 C   0  0  0  0  0  0  0  0  0  0  0  0
   41.4600   31.9530   40.4370 H   0  0  0  0  0  0  0  0  0  0  0  0
   37.3830   32.9790   39.7120 H   0  0  0  0  0  0  0  0  0  0  0  0
   37.9180   35.3730   40.1060 H   0  0  0  0  0  0  0  0  0  0  0  0
   40.2300   35.9600   40.6540 H   0  0  0  0  0  0  0  0  0  0  0  0
   44.6430   34.0550   40.4310 C   0  0  0  0  0  0  0  0  0  0  0  0
   45.0070   34.9740   41.4300 C   0  0  0  0  0  0  0  0  0  0  0  0
   43.9940   35.5830   42.1640 C   0  0  0  0  0  0  0  0  0  0  0  0
   42.6800   35.2810   41.9030 N   0  0  0  0  0  0  0  0  0  0  0  0
   42.3790   34.3730   40.9130 C   0  0  0  0  0  0  0  0  0  0  0  0
   43.3480   33.7630   40.1800 N   0  0  0  0  0  0  0  0  0  0  0  0
   45.4800   33.6230   39.9010 H   0  0  0  0  0  0  0  0  0  0  0  0
   46.0040   35.2490   41.6780 H   0  0  0  0  0  0  0  0  0  0  0  0
   44.1120   36.2970   42.9520 H   0  0  0  0  0  0  0  0  0  0  0  0
  1  2  2  0  0  0  0
  1 10  1  0  0  0  0
  2  3  1  0  0  0  0
  3 11  1  0  0  0  0
  3  4  2  0  0  0  0
  5  4  1  0  0  0  0
  5  6  1  0  0  0  0
  6 12  1  0  0  0  0
  7  6  2  0  0  0  0
  7 13  1  0  0  0  0
  8  7  1  0  0  0  0
  9 10  1  0  0  0  0
  9  8  2  0  0  0  0
 10  5  2  0  0  0  0
 14  8  1  0  0  0  0
 15 16  1  0  0  0  0
 15  9  1  0  0  0  0
 17 15  1  0  0  0  0
 18 19  1  0  0  0  0
 19 15  1  0  0  0  0
 20 21  1  0  0  0  0
 20 19  2  0  0  0  0
 22 20  1  0  0  0  0
 23 29  1  0  0  0  0
 23 22  1  0  0  0  0
 24 23  1  0  0  0  0
 25 24  1  0  0  0  0
 26 24  2  0  0  0  0
 26 27  1  0  0  0  0
 27 28  1  0  0  0  0
 27 22  2  0  0  0  0
 28 18  2  0  0  0  0
 30 33  1  0  0  0  0
 30  1  1  0  0  0  0
 31 45  1  0  0  0  0
 32 37  1  0  0  0  0
 32 31  2  0  0  0  0
 33 32  1  0  0  0  0
 34 33  2  0  0  0  0
 34 35  1  0  0  0  0
 35 36  2  0  0  0  0
 36 31  1  0  0  0  0
 36 40  1  0  0  0  0
 38 34  1  0  0  0  0
 39 35  1  0  0  0  0
 41 42  1  0  0  0  0
 42 48  1  0  0  0  0
 42 43  2  0  0  0  0
 43 49  1  0  0  0  0
 44 43  1  0  0  0  0
 45 44  2  0  0  0  0
 46 41  2  0  0  0  0
 46 45  1  0  0  0  0
 47 41  1  0  0  0  0
M  END
>  <minimizedAffinity>
-7.06177568

$$$$

 OpenBabel03242516313D

 49 54  0  0  0  0  0  0  0  0999 V2000
   40.0470   27.3350   42.9750 C   0  0  0  0  0  0  0  0  0  0  0  0
   41.3030   26.8940   43.3030 N   0  0  0  0  0  0  0  0  0  0  0  0
   41.6590   25.6120   43.2980 C   0  0  0  0  0  0  0  0  0  0  0  0
   40.7270   24.7160   42.9510 N   0  0  0  0  0  0  0  0  0  0  0  0
   39.4740   25.0620   42.6160 C   0  0  0  0  0  0  0  0  0  0  0  0
   38.5160   24.1320   42.2490 C   0  0  0  0  0  0  0  0  0  0  0  0
   37.2610   24.5180   41.9100 C   0  0  0  0  0  0  0  0  0  0  0  0
   36.9030   25.8320   41.9200 C   0  0  0  0  0  0  0  0  0  0  0  0
   37.8430   26.8030   42.2860 C   0  0  0  0  0  0  0  0  0  0  0  0
   39.1060   26.4090   42.6240 C   0  0  0  0  0  0  0  0  0  0  0  0
   42.6710   25.3550   43.5710 H   0  0  0  0  0  0  0  0  0  0  0  0
   38.7690   23.0880   42.2340 H   0  0  0  0  0  0  0  0  0  0  0  0
   36.5430   23.7470   41.6280 H   0  0  0  0  0  0  0  0  0  0  0  0
   35.8840   26.0620   41.6370 H   0  0  0  0  0  0  0  0  0  0  0  0
   37.3480   28.1960   42.3090 C   0  0  0  0  0  0  0  0  0  0  0  0
   36.4500   28.3750   42.9020 H   0  0  0  0  0  0  0  0  0  0  0  0
   38.1500   28.9550   42.3400 H   0  0  0  0  0  0  0  0  0  0  0  0
   35.3950   28.8960   40.7840 C   0  0  0  0  0  3  0  0  0  0  0  0
   36.7400   28.5430   40.9560 C   0  0  0  0  0  0  0  0  0  0  0  0
   37.4760   28.5310   39.7870 C   0  0  0  0  0  0  0  0  0  0  0  0
   38.5220   28.2650   39.8620 H   0  0  0  0  0  0  0  0  0  0  0  0
   36.9580   28.8350   38.5490 C   0  0  0  0  0  0  0  0  0  0  0  0
   37.5500   28.8650   37.3360 N   0  0  0  0  0  0  0  0  0  0  0  0
   36.5600   29.2260   36.5000 C   0  0  0  0  0  0  0  0  0  0  0  0
   36.6810   29.3470   35.4420 H   0  0  0  0  0  0  0  0  0  0  0  0
   35.3850   29.4170   37.1590 N   0  0  0  0  0  0  0  0  0  0  0  0
   35.6260   29.1730   38.4530 C   0  0  0  0  0  0  0  0  0  0  0  0
   34.8240   29.2080   39.5730 C   0  0  0  0  0  3  0  0  0  0  0  0
   38.5430   28.6620   37.0560 H   0  0  0  0  0  0  0  0  0  0  0  0
   39.6530   29.0120   42.9540 S   0  0  0  0  0  0  0  0  0  0  0  0
   40.5590   31.8880   40.3140 C   0  0  0  0  0  0  0  0  0  0  0  0
   40.0840   31.1880   41.4080 C   0  0  0  0  0  0  0  0  0  0  0  0
   40.3020   29.8480   41.5580 C   0  0  0  0  0  0  0  0  0  0  0  0
   41.0130   29.1590   40.6010 C   0  0  0  0  0  0  0  0  0  0  0  0
   41.5050   29.7940   39.5000 C   0  0  0  0  0  0  0  0  0  0  0  0
   41.2660   31.1490   39.3820 C   0  0  0  0  0  0  0  0  0  0  0  0
   39.5280   31.7500   42.1490 H   0  0  0  0  0  0  0  0  0  0  0  0
   41.1980   28.1010   40.6990 H   0  0  0  0  0  0  0  0  0  0  0  0
   42.0780   29.2980   38.7070 H   0  0  0  0  0  0  0  0  0  0  0  0
   41.6390   31.6990   38.5220 H   0  0  0  0  0  0  0  0  0  0  0  0
   41.1570   35.4000   39.5330 C   0  0  0  0  0  0  0  0  0  0  0  0
   39.9570   36.0330   39.9020 C   0  0  0  0  0  0  0  0  0  0  0  0
   38.9320   35.2490   40.4230 C   0  0  0  0  0  0  0  0  0  0  0  0
   39.1090   33.8950   40.5650 N   0  0  0  0  0  0  0  0  0  0  0  0
   40.3050   33.3260   40.1890 C   0  0  0  0  0  0  0  0  0  0  0  0
   41.3230   34.0670   39.6770 N   0  0  0  0  0  0  0  0  0  0  0  0
   41.9060   36.0700   39.1360 H   0  0  0  0  0  0  0  0  0  0  0  0
   39.7600   37.0750   39.8140 H   0  0  0  0  0  0  0  0  0  0  0  0
   37.9690   35.5830   40.7460 H   0  0  0  0  0  0  0  0  0  0  0  0
  1  2  1  0  0  0  0
  3  2  2  0  0  0  0
  3 11  1  0  0  0  0
  4  3  1  0  0  0  0
  5 10  1  0  0  0  0
  5  4  2  0  0  0  0
  6  5  1  0  0  0  0
  7  8  1  0  0  0  0
  7  6  2  0  0  0  0
  8  9  2  0  0  0  0
  9 15  1  0  0  0  0
  9 10  1  0  0  0  0
 10  1  2  0  0  0  0
 12  6  1  0  0  0  0
 13  7  1  0  0  0  0
 14  8  1  0  0  0  0
 15 17  1  0  0  0  0
 15 16  1  0  0  0  0
 18 19  1  0  0  0  0
 19 15  1  0  0  0  0
 20 21  1  0  0  0  0
 20 19  2  0  0  0  0
 22 20  1  0  0  0  0
 23 22  1  0  0  0  0
 24 26  2  0  0  0  0
 24 23  1  0  0  0  0
 25 24  1  0  0  0  0
 26 27  1  0  0  0  0
 27 22  2  0  0  0  0
 27 28  1  0  0  0  0
 28 18  2  0  0  0  0
 29 23  1  0  0  0  0
 30  1  1  0  0  0  0
 31 32  1  0  0  0  0
 32 33  2  0  0  0  0
 32 37  1  0  0  0  0
 33 30  1  0  0  0  0
 34 38  1  0  0  0  0
 34 33  1  0  0  0  0
 35 34  2  0  0  0  0
 36 35  1  0  0  0  0
 36 31  2  0  0  0  0
 39 35  1  0  0  0  0
 40 36  1  0  0  0  0
 41 46  2  0  0  0  0
 41 42  1  0  0  0  0
 42 43  2  0  0  0  0
 43 44  1  0  0  0  0
 43 49  1  0  0  0  0
 45 31  1  0  0  0  0
 45 44  2  0  0  0  0
 46 45  1  0  0  0  0
 47 41  1  0  0  0  0
 48 42  1  0  0  0  0
M  END
>  <minimizedAffinity>
-7.02221537

$$$$

 OpenBabel03242516313D

 49 54  0  0  0  0  0  0  0  0999 V2000
   37.6860   27.2240   39.6830 C   0  0  0  0  0  0  0  0  0  0  0  0
   38.0360   25.9030   39.5730 N   0  0  0  0  0  0  0  0  0  0  0  0
   38.3800   25.1430   40.6090 C   0  0  0  0  0  0  0  0  0  0  0  0
   38.3790   25.7150   41.8190 N   0  0  0  0  0  0  0  0  0  0  0  0
   38.0500   27.0010   42.0160 C   0  0  0  0  0  0  0  0  0  0  0  0
   38.0430   27.5870   43.2710 C   0  0  0  0  0  0  0  0  0  0  0  0
   37.6970   28.8880   43.4330 C   0  0  0  0  0  0  0  0  0  0  0  0
   37.3490   29.6610   42.3670 C   0  0  0  0  0  0  0  0  0  0  0  0
   37.3450   29.1070   41.0810 C   0  0  0  0  0  0  0  0  0  0  0  0
   37.6910   27.7950   40.9240 C   0  0  0  0  0  0  0  0  0  0  0  0
   38.6420   24.1110   40.4290 H   0  0  0  0  0  0  0  0  0  0  0  0
   38.3140   27.0020   44.1300 H   0  0  0  0  0  0  0  0  0  0  0  0
   37.7070   29.3020   44.4420 H   0  0  0  0  0  0  0  0  0  0  0  0
   37.0860   30.6900   42.5750 H   0  0  0  0  0  0  0  0  0  0  0  0
   36.9960   30.0360   39.9850 C   0  0  0  0  0  0  0  0  0  0  0  0
   37.2270   29.6930   38.9760 H   0  0  0  0  0  0  0  0  0  0  0  0
   36.0470   30.5780   40.1450 H   0  0  0  0  0  0  0  0  0  0  0  0
   39.3480   31.0810   39.9460 C   0  0  0  0  0  3  0  0  0  0  0  0
   37.9550   31.2190   39.9960 C   0  0  0  0  0  0  0  0  0  0  0  0
   37.5180   32.5280   40.0590 C   0  0  0  0  0  0  0  0  0  0  0  0
   36.4490   32.6930   40.0980 H   0  0  0  0  0  0  0  0  0  0  0  0
   38.3560   33.6190   40.0740 C   0  0  0  0  0  0  0  0  0  0  0  0
   38.0740   34.9380   40.1320 N   0  0  0  0  0  0  0  0  0  0  0  0
   39.2820   35.5290   40.1170 C   0  0  0  0  0  0  0  0  0  0  0  0
   39.4340   36.5900   40.1540 H   0  0  0  0  0  0  0  0  0  0  0  0
   40.2910   34.6190   40.0520 N   0  0  0  0  0  0  0  0  0  0  0  0
   39.7170   33.4090   40.0240 C   0  0  0  0  0  0  0  0  0  0  0  0
   40.2330   32.1340   39.9590 C   0  0  0  0  0  3  0  0  0  0  0  0
   37.1500   35.4370   40.1800 H   0  0  0  0  0  0  0  0  0  0  0  0
   37.2050   28.1500   38.3120 S   0  0  0  0  0  0  0  0  0  0  0  0
   33.5270   28.2390   36.7220 C   0  0  0  0  0  0  0  0  0  0  0  0
   34.7660   28.5860   37.2280 C   0  0  0  0  0  0  0  0  0  0  0  0
   35.6600   27.6460   37.6560 C   0  0  0  0  0  0  0  0  0  0  0  0
   35.3340   26.3100   37.5890 C   0  0  0  0  0  0  0  0  0  0  0  0
   34.1270   25.9060   37.1000 C   0  0  0  0  0  0  0  0  0  0  0  0
   33.2480   26.8840   36.6760 C   0  0  0  0  0  0  0  0  0  0  0  0
   35.0030   29.6420   37.2720 H   0  0  0  0  0  0  0  0  0  0  0  0
   36.0240   25.5510   37.9200 H   0  0  0  0  0  0  0  0  0  0  0  0
   33.8130   24.8590   37.0220 H   0  0  0  0  0  0  0  0  0  0  0  0
   32.2750   26.6110   36.2780 H   0  0  0  0  0  0  0  0  0  0  0  0
   31.8860   30.6130   34.4930 C   0  0  0  0  0  0  0  0  0  0  0  0
   30.9070   31.2120   35.3050 C   0  0  0  0  0  0  0  0  0  0  0  0
   30.8080   30.7980   36.6300 C   0  0  0  0  0  0  0  0  0  0  0  0
   31.6540   29.8300   37.1110 N   0  0  0  0  0  0  0  0  0  0  0  0
   32.5950   29.2760   36.2720 C   0  0  0  0  0  0  0  0  0  0  0  0
   32.7140   29.6600   34.9740 N   0  0  0  0  0  0  0  0  0  0  0  0
   31.9040   30.9820   33.4770 H   0  0  0  0  0  0  0  0  0  0  0  0
   30.2240   31.9650   34.9900 H   0  0  0  0  0  0  0  0  0  0  0  0
   30.1200   31.1580   37.3650 H   0  0  0  0  0  0  0  0  0  0  0  0
  1 10  1  0  0  0  0
  2  1  2  0  0  0  0
  2  3  1  0  0  0  0
  3  4  2  0  0  0  0
  4  5  1  0  0  0  0
  5  6  1  0  0  0  0
  6  7  2  0  0  0  0
  6 12  1  0  0  0  0
  7 13  1  0  0  0  0
  8 14  1  0  0  0  0
  8  7  1  0  0  0  0
  9  8  2  0  0  0  0
 10  9  1  0  0  0  0
 10  5  2  0  0  0  0
 11  3  1  0  0  0  0
 15 19  1  0  0  0  0
 15 17  1  0  0  0  0
 15  9  1  0  0  0  0
 16 15  1  0  0  0  0
 18 28  2  0  0  0  0
 18 19  1  0  0  0  0
 19 20  2  0  0  0  0
 20 22  1  0  0  0  0
 20 21  1  0  0  0  0
 22 23  1  0  0  0  0
 23 29  1  0  0  0  0
 24 23  1  0  0  0  0
 24 25  1  0  0  0  0
 26 24  2  0  0  0  0
 27 26  1  0  0  0  0
 27 22  2  0  0  0  0
 28 27  1  0  0  0  0
 30  1  1  0  0  0  0
 31 32  1  0  0  0  0
 32 37  1  0  0  0  0
 32 33  2  0  0  0  0
 33 30  1  0  0  0  0
 34 33  1  0  0  0  0
 34 38  1  0  0  0  0
 35 34  2  0  0  0  0
 36 31  2  0  0  0  0
 36 35  1  0  0  0  0
 39 35  1  0  0  0  0
 40 36  1  0  0  0  0
 41 46  2  0  0  0  0
 41 42  1  0  0  0  0
 42 43  2  0  0  0  0
 43 44  1  0  0  0  0
 43 49  1  0  0  0  0
 45 31  1  0  0  0  0
 45 44  2  0  0  0  0
 46 45  1  0  0  0  0
 47 41  1  0  0  0  0
 48 42  1  0  0  0  0
M  END
>  <minimizedAffinity>
-6.99766254

$$$$

 OpenBabel03242516313D

 49 54  0  0  0  0  0  0  0  0999 V2000
   36.3860   27.2880   40.0780 C   0  0  0  0  0  0  0  0  0  0  0  0
   35.7920   27.4690   38.8560 N   0  0  0  0  0  0  0  0  0  0  0  0
   35.6090   26.4910   37.9720 C   0  0  0  0  0  0  0  0  0  0  0  0
   36.0360   25.2680   38.3110 N   0  0  0  0  0  0  0  0  0  0  0  0
   36.6290   25.0040   39.4860 C   0  0  0  0  0  0  0  0  0  0  0  0
   37.0610   23.7360   39.8350 C   0  0  0  0  0  0  0  0  0  0  0  0
   37.6500   23.5030   41.0350 C   0  0  0  0  0  0  0  0  0  0  0  0
   37.8360   24.5100   41.9330 C   0  0  0  0  0  0  0  0  0  0  0  0
   37.4140   25.8070   41.6170 C   0  0  0  0  0  0  0  0  0  0  0  0
   36.8190   26.0350   40.4090 C   0  0  0  0  0  0  0  0  0  0  0  0
   35.1310   26.7250   37.0330 H   0  0  0  0  0  0  0  0  0  0  0  0
   36.9290   22.9220   39.1460 H   0  0  0  0  0  0  0  0  0  0  0  0
   37.9730   22.4870   41.2620 H   0  0  0  0  0  0  0  0  0  0  0  0
   38.3130   24.2480   42.8680 H   0  0  0  0  0  0  0  0  0  0  0  0
   37.6990   26.8390   42.6370 C   0  0  0  0  0  0  0  0  0  0  0  0
   37.5000   27.8710   42.3420 H   0  0  0  0  0  0  0  0  0  0  0  0
   37.4380   26.5330   43.6660 H   0  0  0  0  0  0  0  0  0  0  0  0
   40.0680   27.3070   41.7480 C   0  0  0  0  0  3  0  0  0  0  0  0
   39.2050   26.9880   42.8030 C   0  0  0  0  0  0  0  0  0  0  0  0
   39.8380   26.8140   44.0190 C   0  0  0  0  0  0  0  0  0  0  0  0
   39.2180   26.5670   44.8700 H   0  0  0  0  0  0  0  0  0  0  0  0
   41.1960   26.9370   44.2030 C   0  0  0  0  0  0  0  0  0  0  0  0
   41.9440   26.7980   45.3190 N   0  0  0  0  0  0  0  0  0  0  0  0
   43.2000   27.0320   44.9000 C   0  0  0  0  0  0  0  0  0  0  0  0
   44.0620   27.0030   45.5360 H   0  0  0  0  0  0  0  0  0  0  0  0
   43.2460   27.3100   43.5680 N   0  0  0  0  0  0  0  0  0  0  0  0
   41.9860   27.2520   43.1190 C   0  0  0  0  0  0  0  0  0  0  0  0
   41.4310   27.4420   41.8730 C   0  0  0  0  0  3  0  0  0  0  0  0
   41.6620   26.5630   46.3050 H   0  0  0  0  0  0  0  0  0  0  0  0
   36.5570   28.5810   41.2030 S   0  0  0  0  0  0  0  0  0  0  0  0
   38.9910   31.0040   39.1370 C   0  0  0  0  0  0  0  0  0  0  0  0
   38.3810   29.9010   39.7050 C   0  0  0  0  0  0  0  0  0  0  0  0
   37.2700   30.0150   40.4900 C   0  0  0  0  0  0  0  0  0  0  0  0
   36.7280   31.2580   40.7320 C   0  0  0  0  0  0  0  0  0  0  0  0
   37.2850   32.3820   40.2010 C   0  0  0  0  0  0  0  0  0  0  0  0
   38.4080   32.2280   39.4110 C   0  0  0  0  0  0  0  0  0  0  0  0
   38.8240   28.9330   39.5010 H   0  0  0  0  0  0  0  0  0  0  0  0
   35.8500   31.3720   41.3480 H   0  0  0  0  0  0  0  0  0  0  0  0
   36.8980   33.3950   40.3590 H   0  0  0  0  0  0  0  0  0  0  0  0
   38.8880   33.0950   38.9650 H   0  0  0  0  0  0  0  0  0  0  0  0
   41.7590   31.8960   36.9360 C   0  0  0  0  0  0  0  0  0  0  0  0
   42.4130   30.6720   36.7080 C   0  0  0  0  0  0  0  0  0  0  0  0
   41.9000   29.5290   37.3150 C   0  0  0  0  0  0  0  0  0  0  0  0
   40.7850   29.6170   38.1110 N   0  0  0  0  0  0  0  0  0  0  0  0
   40.1840   30.8410   38.3000 C   0  0  0  0  0  0  0  0  0  0  0  0
   40.6620   31.9730   37.7210 N   0  0  0  0  0  0  0  0  0  0  0  0
   42.2130   32.7390   36.4340 H   0  0  0  0  0  0  0  0  0  0  0  0
   43.2790   30.5410   36.1040 H   0  0  0  0  0  0  0  0  0  0  0  0
   42.2840   28.5340   37.2370 H   0  0  0  0  0  0  0  0  0  0  0  0
  1 10  1  0  0  0  0
  1 30  1  0  0  0  0
  2  1  2  0  0  0  0
  3  4  2  0  0  0  0
  3  2  1  0  0  0  0
  4  5  1  0  0  0  0
  5  6  2  0  0  0  0
  5 10  1  0  0  0  0
  6  7  1  0  0  0  0
  7 13  1  0  0  0  0
  7  8  2  0  0  0  0
  8 14  1  0  0  0  0
  9  8  1  0  0  0  0
  9 15  1  0  0  0  0
 10  9  2  0  0  0  0
 11  3  1  0  0  0  0
 12  6  1  0  0  0  0
 15 19  1  0  0  0  0
 15 17  1  0  0  0  0
 16 15  1  0  0  0  0
 18 28  2  0  0  0  0
 18 19  1  0  0  0  0
 19 20  2  0  0  0  0
 20 22  1  0  0  0  0
 20 21  1  0  0  0  0
 22 23  1  0  0  0  0
 23 29  1  0  0  0  0
 24 23  1  0  0  0  0
 24 25  1  0  0  0  0
 26 24  2  0  0  0  0
 27 26  1  0  0  0  0
 27 22  2  0  0  0  0
 28 27  1  0  0  0  0
 31 36  2  0  0  0  0
 31 32  1  0  0  0  0
 32 33  2  0  0  0  0
 33 34  1  0  0  0  0
 33 30  1  0  0  0  0
 34 38  1  0  0  0  0
 35 39  1  0  0  0  0
 35 34  2  0  0  0  0
 36 35  1  0  0  0  0
 37 32  1  0  0  0  0
 40 36  1  0  0  0  0
 41 46  1  0  0  0  0
 42 41  2  0  0  0  0
 42 43  1  0  0  0  0
 43 44  2  0  0  0  0
 44 45  1  0  0  0  0
 45 31  1  0  0  0  0
 46 45  2  0  0  0  0
 47 41  1  0  0  0  0
 48 42  1  0  0  0  0
 49 43  1  0  0  0  0
M  END
>  <minimizedAffinity>
-6.99094343

$$$$

 OpenBabel03242516313D

 49 54  0  0  0  0  0  0  0  0999 V2000
   36.7030   28.0490   39.9940 C   0  0  0  0  0  0  0  0  0  0  0  0
   36.5430   26.6990   39.8220 N   0  0  0  0  0  0  0  0  0  0  0  0
   36.4590   26.1120   38.6310 C   0  0  0  0  0  0  0  0  0  0  0  0
   36.5370   26.8990   37.5510 N   0  0  0  0  0  0  0  0  0  0  0  0
   36.6930   28.2300   37.6300 C   0  0  0  0  0  0  0  0  0  0  0  0
   36.7810   29.0390   36.5090 C   0  0  0  0  0  0  0  0  0  0  0  0
   36.9460   30.3800   36.6270 C   0  0  0  0  0  0  0  0  0  0  0  0
   37.0290   30.9740   37.8490 C   0  0  0  0  0  0  0  0  0  0  0  0
   36.9430   30.1910   39.0070 C   0  0  0  0  0  0  0  0  0  0  0  0
   36.7790   28.8400   38.8830 C   0  0  0  0  0  0  0  0  0  0  0  0
   36.3330   25.0410   38.5900 H   0  0  0  0  0  0  0  0  0  0  0  0
   36.7180   28.5990   35.5310 H   0  0  0  0  0  0  0  0  0  0  0  0
   37.0110   30.9730   35.7140 H   0  0  0  0  0  0  0  0  0  0  0  0
   37.1600   32.0470   37.8630 H   0  0  0  0  0  0  0  0  0  0  0  0
   36.9980   30.9300   40.2860 C   0  0  0  0  0  0  0  0  0  0  0  0
   36.1830   31.6320   40.4680 H   0  0  0  0  0  0  0  0  0  0  0  0
   37.3640   30.3260   41.1360 H   0  0  0  0  0  0  0  0  0  0  0  0
   39.4740   31.6350   40.3000 C   0  0  0  0  0  3  0  0  0  0  0  0
   38.1150   31.9650   40.2270 C   0  0  0  0  0  0  0  0  0  0  0  0
   37.8660   33.3180   40.1020 C   0  0  0  0  0  0  0  0  0  0  0  0
   36.8320   33.6290   40.0410 H   0  0  0  0  0  0  0  0  0  0  0  0
   38.8500   34.2780   40.0500 C   0  0  0  0  0  0  0  0  0  0  0  0
   38.7580   35.6200   39.9290 N   0  0  0  0  0  0  0  0  0  0  0  0
   40.0360   36.0360   39.9340 C   0  0  0  0  0  0  0  0  0  0  0  0
   40.3360   37.0620   39.8550 H   0  0  0  0  0  0  0  0  0  0  0  0
   40.9070   34.9970   40.0540 N   0  0  0  0  0  0  0  0  0  0  0  0
   40.1670   33.8820   40.1270 C   0  0  0  0  0  0  0  0  0  0  0  0
   40.4980   32.5520   40.2540 C   0  0  0  0  0  3  0  0  0  0  0  0
   37.9130   36.2410   39.8480 H   0  0  0  0  0  0  0  0  0  0  0  0
   36.8510   28.7510   41.5610 S   0  0  0  0  0  0  0  0  0  0  0  0
   40.6290   28.5940   42.8880 C   0  0  0  0  0  0  0  0  0  0  0  0
   39.4540   28.9650   42.2620 C   0  0  0  0  0  0  0  0  0  0  0  0
   38.3030   28.2430   42.4010 C   0  0  0  0  0  0  0  0  0  0  0  0
   38.2960   27.1110   43.1840 C   0  0  0  0  0  0  0  0  0  0  0  0
   39.4240   26.6940   43.8250 C   0  0  0  0  0  0  0  0  0  0  0  0
   40.5690   27.4490   43.6630 C   0  0  0  0  0  0  0  0  0  0  0  0
   39.4820   29.8600   41.6520 H   0  0  0  0  0  0  0  0  0  0  0  0
   37.3980   26.5250   43.3080 H   0  0  0  0  0  0  0  0  0  0  0  0
   39.4770   25.8020   44.4600 H   0  0  0  0  0  0  0  0  0  0  0  0
   41.4930   27.1570   44.1550 H   0  0  0  0  0  0  0  0  0  0  0  0
   44.0620   29.4270   41.9810 C   0  0  0  0  0  0  0  0  0  0  0  0
   44.1820   30.7820   42.3370 C   0  0  0  0  0  0  0  0  0  0  0  0
   43.0760   31.4170   42.8930 C   0  0  0  0  0  0  0  0  0  0  0  0
   41.9080   30.7200   43.0810 N   0  0  0  0  0  0  0  0  0  0  0  0
   41.8450   29.3950   42.7150 C   0  0  0  0  0  0  0  0  0  0  0  0
   42.9090   28.7490   42.1690 N   0  0  0  0  0  0  0  0  0  0  0  0
   44.9590   29.0010   41.5550 H   0  0  0  0  0  0  0  0  0  0  0  0
   45.0590   31.3730   42.2150 H   0  0  0  0  0  0  0  0  0  0  0  0
   43.0140   32.4350   43.2120 H   0  0  0  0  0  0  0  0  0  0  0  0
  1 30  1  0  0  0  0
  2  1  1  0  0  0  0
  3  2  2  0  0  0  0
  4  5  2  0  0  0  0
  4  3  1  0  0  0  0
  5 10  1  0  0  0  0
  6  7  2  0  0  0  0
  6  5  1  0  0  0  0
  7  8  1  0  0  0  0
  8 14  1  0  0  0  0
  8  9  2  0  0  0  0
  9 15  1  0  0  0  0
 10  9  1  0  0  0  0
 10  1  2  0  0  0  0
 11  3  1  0  0  0  0
 12  6  1  0  0  0  0
 13  7  1  0  0  0  0
 15 16  1  0  0  0  0
 15 17  1  0  0  0  0
 19 15  1  0  0  0  0
 19 18  2  0  0  0  0
 20 19  1  0  0  0  0
 21 20  1  0  0  0  0
 22 20  2  0  0  0  0
 22 27  1  0  0  0  0
 23 24  1  0  0  0  0
 23 22  1  0  0  0  0
 24 26  2  0  0  0  0
 25 24  1  0  0  0  0
 26 27  1  0  0  0  0
 27 28  2  0  0  0  0
 28 18  1  0  0  0  0
 29 23  1  0  0  0  0
 30 33  1  0  0  0  0
 31 36  1  0  0  0  0
 32 33  1  0  0  0  0
 32 31  2  0  0  0  0
 33 34  2  0  0  0  0
 34 38  1  0  0  0  0
 34 35  1  0  0  0  0
 35 39  1  0  0  0  0
 36 35  2  0  0  0  0
 36 40  1  0  0  0  0
 37 32  1  0  0  0  0
 41 46  2  0  0  0  0
 41 42  1  0  0  0  0
 42 43  2  0  0  0  0
 43 44  1  0  0  0  0
 43 49  1  0  0  0  0
 45 31  1  0  0  0  0
 45 44  2  0  0  0  0
 46 45  1  0  0  0  0
 47 41  1  0  0  0  0
 48 42  1  0  0  0  0
M  END
>  <minimizedAffinity>
-6.96788216

$$$$
