
 OpenBabel03252501163D

 38 42  0  0  1  0  0  0  0  0999 V2000
   46.7610   32.2790   44.0380 C   0  0  1  0  0  0  0  0  0  0  0  0
   45.7620   33.3700   43.9690 C   0  0  0  0  0  0  0  0  0  0  0  0
   47.3170   33.6220   43.8860 C   0  0  2  0  0  0  0  0  0  0  0  0
   46.7570   31.5610   43.1690 H   0  0  0  0  0  0  0  0  0  0  0  0
   45.3110   33.8040   44.8740 H   0  0  0  0  0  0  0  0  0  0  0  0
   45.1950   33.5540   43.0380 H   0  0  0  0  0  0  0  0  0  0  0  0
   47.7360   34.1320   44.7520 H   0  0  0  0  0  0  0  0  0  0  0  0
   46.2470   31.2620   47.6180 C   0  0  0  0  0  0  0  0  0  0  0  0
   46.0740   31.9670   46.4390 C   0  0  0  0  0  0  0  0  0  0  0  0
   46.8580   31.5840   45.3570 C   0  0  0  0  0  0  0  0  0  0  0  0
   47.7370   30.5640   45.4910 N   0  0  0  0  0  0  0  0  0  0  0  0
   47.8710   29.9000   46.6720 C   0  0  0  0  0  0  0  0  0  0  0  0
   47.1200   30.2580   47.7320 N   0  0  0  0  0  0  0  0  0  0  0  0
   45.3830   32.7790   46.3090 H   0  0  0  0  0  0  0  0  0  0  0  0
   48.5760   29.0770   46.7970 H   0  0  0  0  0  0  0  0  0  0  0  0
   45.4060   31.6510   48.7960 C   0  0  0  0  0  0  0  0  0  0  0  0
   45.8840   32.8530   49.2660 F   0  0  0  0  0  0  0  0  0  0  0  0
   45.6070   30.7000   49.7730 F   0  0  0  0  0  0  0  0  0  0  0  0
   44.0950   31.7790   48.4440 F   0  0  0  0  0  0  0  0  0  0  0  0
   47.7490   34.0010   42.5130 C   0  0  0  0  0  0  0  0  0  0  0  0
   47.9800   35.2830   42.0230 C   0  0  0  0  0  0  0  0  0  0  0  0
   48.3570   35.0430   40.7170 C   0  0  0  0  0  0  0  0  0  0  0  0
   48.3430   33.6580   40.4530 C   0  0  0  0  0  0  0  0  0  0  0  0
   47.9690   33.1240   41.5820 O   0  0  0  0  0  0  0  0  0  0  0  0
   47.8830   36.2130   42.5560 H   0  0  0  0  0  0  0  0  0  0  0  0
   48.6210   35.8390   40.0080 H   0  0  0  0  0  0  0  0  0  0  0  0
   49.4870   31.9070   39.1410 C   0  0  0  0  0  0  0  0  0  0  0  0
   48.6840   33.0270   39.1810 C   0  0  0  0  0  0  0  0  0  0  0  0
   48.1580   33.6150   38.0460 C   0  0  0  0  0  0  0  0  0  0  0  0
   47.5200   34.5050   38.0760 H   0  0  0  0  0  0  0  0  0  0  0  0
   48.4290   33.0870   36.8120 C   0  0  0  0  0  0  0  0  0  0  0  0
   48.0730   33.4250   35.5680 N   0  0  0  0  0  0  0  0  0  0  0  0
   48.6340   32.5440   34.7430 C   0  0  0  0  0  0  0  0  0  0  0  0
   48.5740   32.4930   33.6530 H   0  0  0  0  0  0  0  0  0  0  0  0
   49.3560   31.6320   35.4570 N   0  0  0  0  0  0  0  0  0  0  0  0
   49.2310   31.9680   36.7700 C   0  0  0  0  0  0  0  0  0  0  0  0
   49.7770   31.3500   37.8920 C   0  0  0  0  0  0  0  0  0  0  0  0
   47.4590   34.2410   35.2850 H   0  0  0  0  0  0  0  0  0  0  0  0
  1  4  1  6  0  0  0
  1 10  1  0  0  0  0
  2  1  1  0  0  0  0
  2  5  1  0  0  0  0
  3  2  1  0  0  0  0
  3  1  1  0  0  0  0
  3  7  1  1  0  0  0
  6  2  1  0  0  0  0
  8 13  1  0  0  0  0
  8 16  1  0  0  0  0
  9  8  2  0  0  0  0
 10 11  2  0  0  0  0
 10  9  1  0  0  0  0
 11 12  1  0  0  0  0
 12 15  1  0  0  0  0
 12 13  2  0  0  0  0
 14  9  1  0  0  0  0
 16 17  1  0  0  0  0
 16 18  1  0  0  0  0
 19 16  1  0  0  0  0
 20  3  1  0  0  0  0
 21 20  2  0  0  0  0
 21 25  1  0  0  0  0
 22 21  1  0  0  0  0
 23 22  2  0  0  0  0
 23 24  1  0  0  0  0
 24 20  1  0  0  0  0
 26 22  1  0  0  0  0
 27 28  1  0  0  0  0
 28 23  1  0  0  0  0
 29 30  1  0  0  0  0
 29 28  2  0  0  0  0
 31 29  1  0  0  0  0
 32 31  1  0  0  0  0
 33 35  2  0  0  0  0
 33 32  1  0  0  0  0
 34 33  1  0  0  0  0
 35 36  1  0  0  0  0
 36 31  2  0  0  0  0
 36 37  1  0  0  0  0
 37 27  2  0  0  0  0
 38 32  1  0  0  0  0
M  END
>  <minimizedAffinity>
-6.43174219

>  <minimizedRMSD>
4.16270828

$$$$
