
 OpenBabel03252507323D

 52 56  0  0  1  0  0  0  0  0999 V2000
   47.0190   32.5710   45.4210 C   0  0  0  0  0  0  0  0  0  0  0  0
   45.9700   33.2600   46.0100 C   0  0  0  0  0  0  0  0  0  0  0  0
   45.3150   34.2850   45.2870 C   0  0  0  0  0  0  0  0  0  0  0  0
   45.7880   34.5350   44.0010 N   0  0  0  0  0  0  0  0  0  0  0  0
   46.8060   33.8350   43.4950 C   0  0  0  0  0  0  0  0  0  0  0  0
   47.4110   32.8700   44.1900 N   0  0  0  0  0  0  0  0  0  0  0  0
   45.4820   33.2600   46.9620 H   0  0  0  0  0  0  0  0  0  0  0  0
   44.4980   34.9060   45.5830 H   0  0  0  0  0  0  0  0  0  0  0  0
   47.6410   31.5150   46.1940 C   0  0  2  0  0  0  0  0  0  0  0  0
   47.2990   30.1070   45.6160 C   0  0  0  0  0  0  0  0  0  0  0  0
   48.0910   29.0730   46.3410 C   0  0  0  0  0  0  0  0  0  0  0  0
   48.1450   29.2090   47.8260 C   0  0  0  0  0  0  0  0  0  0  0  0
   48.2310   30.5700   48.2960 C   0  0  0  0  0  0  0  0  0  0  0  0
   47.2550   31.5360   47.5900 C   0  0  2  0  0  0  0  0  0  0  0  0
   48.7470   31.5560   46.0340 H   0  0  0  0  0  0  0  0  0  0  0  0
   46.2150   29.9450   45.6000 H   0  0  0  0  0  0  0  0  0  0  0  0
   47.6250   30.1760   44.5590 H   0  0  0  0  0  0  0  0  0  0  0  0
   49.0620   29.0030   45.8130 H   0  0  0  0  0  0  0  0  0  0  0  0
   47.5890   28.0810   46.1390 H   0  0  0  0  0  0  0  0  0  0  0  0
   47.7540   28.3940   48.4350 H   0  0  0  0  0  0  0  0  0  0  0  0
   49.2510   28.8860   47.9940 H   0  0  0  0  0  0  0  0  0  0  0  0
   49.2150   31.0980   48.2390 H   0  0  0  0  0  0  0  0  0  0  0  0
   47.9540   30.6130   49.3820 H   0  0  0  0  0  0  0  0  0  0  0  0
   47.4420   32.4600   48.1390 H   0  0  0  0  0  0  0  0  0  0  0  0
   45.8940   31.0180   47.7410 N   0  0  0  0  0  0  0  0  0  0  0  0
   45.1780   30.5950   48.8740 C   0  0  0  0  0  0  0  0  0  0  0  0
   44.6570   31.4110   49.7170 O   0  0  0  0  0  0  0  0  0  0  0  0
   45.0660   29.1790   49.0140 N   0  0  0  0  0  0  0  0  0  0  0  0
   45.2540   30.8290   46.8800 H   0  0  0  0  0  0  0  0  0  0  0  0
   44.7510   28.4620   48.3570 H   0  0  0  0  0  0  0  0  0  0  0  0
   45.3370   28.7390   49.9210 H   0  0  0  0  0  0  0  0  0  0  0  0
   47.2700   34.1610   42.1420 C   0  0  0  0  0  0  0  0  0  0  0  0
   48.2970   35.0560   41.9400 C   0  0  0  0  0  0  0  0  0  0  0  0
   48.7860   35.4120   40.7020 C   0  0  0  0  0  0  0  0  0  0  0  0
   48.1660   34.7990   39.6360 C   0  0  0  0  0  0  0  0  0  0  0  0
   47.1400   33.9030   39.8200 C   0  0  0  0  0  0  0  0  0  0  0  0
   46.6920   33.5850   41.0750 N   0  0  0  0  0  0  0  0  0  0  0  0
   48.7340   35.4970   42.8300 H   0  0  0  0  0  0  0  0  0  0  0  0
   49.5830   36.1080   40.5800 H   0  0  0  0  0  0  0  0  0  0  0  0
   48.5130   35.0430   38.6430 H   0  0  0  0  0  0  0  0  0  0  0  0
   45.3950   32.4040   38.9720 C   0  0  0  0  0  3  0  0  0  0  0  0
   46.4640   33.2380   38.7150 C   0  0  0  0  0  0  0  0  0  0  0  0
   46.8100   33.3730   37.3970 C   0  0  0  0  0  0  0  0  0  0  0  0
   47.6280   34.0040   37.1310 H   0  0  0  0  0  0  0  0  0  0  0  0
   46.1670   32.7400   36.3530 C   0  0  0  0  0  0  0  0  0  0  0  0
   46.3670   32.7550   35.0100 N   0  0  0  0  0  0  0  0  0  0  0  0
   45.4550   31.9590   34.4500 C   0  0  0  0  0  0  0  0  0  0  0  0
   45.4220   31.8140   33.3720 H   0  0  0  0  0  0  0  0  0  0  0  0
   44.6710   31.4330   35.4340 N   0  0  0  0  0  0  0  0  0  0  0  0
   45.0930   31.9040   36.6290 C   0  0  0  0  0  0  0  0  0  0  0  0
   44.7160   31.7430   37.9440 C   0  0  0  0  0  3  0  0  0  0  0  0
   47.1130   33.3050   34.5290 H   0  0  0  0  0  0  0  0  0  0  0  0
  1  2  1  0  0  0  0
  1  9  1  0  0  0  0
  2  7  1  0  0  0  0
  3  8  1  0  0  0  0
  3  2  2  0  0  0  0
  4  3  1  0  0  0  0
  5  4  2  0  0  0  0
  5  6  1  0  0  0  0
  6  1  2  0  0  0  0
  9 15  1  6  0  0  0
  9 14  1  0  0  0  0
 10  9  1  0  0  0  0
 10 11  1  0  0  0  0
 11 12  1  0  0  0  0
 12 21  1  0  0  0  0
 12 13  1  0  0  0  0
 12 20  1  0  0  0  0
 13 23  1  0  0  0  0
 14 25  1  0  0  0  0
 14 24  1  1  0  0  0
 14 13  1  0  0  0  0
 16 10  1  0  0  0  0
 17 10  1  0  0  0  0
 18 11  1  0  0  0  0
 19 11  1  0  0  0  0
 22 13  1  0  0  0  0
 25 26  1  0  0  0  0
 26 28  1  0  0  0  0
 26 27  2  0  0  0  0
 28 31  1  0  0  0  0
 29 25  1  0  0  0  0
 30 28  1  0  0  0  0
 32  5  1  0  0  0  0
 33 32  1  0  0  0  0
 33 38  1  0  0  0  0
 34 33  2  0  0  0  0
 35 36  2  0  0  0  0
 35 34  1  0  0  0  0
 36 37  1  0  0  0  0
 37 32  2  0  0  0  0
 39 34  1  0  0  0  0
 40 35  1  0  0  0  0
 42 41  1  0  0  0  0
 42 36  1  0  0  0  0
 43 42  2  0  0  0  0
 44 43  1  0  0  0  0
 45 50  2  0  0  0  0
 45 43  1  0  0  0  0
 46 45  1  0  0  0  0
 47 46  1  0  0  0  0
 47 49  2  0  0  0  0
 48 47  1  0  0  0  0
 49 50  1  0  0  0  0
 50 51  1  0  0  0  0
 51 41  2  0  0  0  0
 52 46  1  0  0  0  0
M  END
>  <minimizedAffinity>
-7.06592655

>  <minimizedRMSD>
0.734636962

$$$$
