
 OpenBabel03252506373D

 47 51  0  0  1  0  0  0  0  0999 V2000
   46.6190   29.8490   46.4390 S   0  0  0  0  0  0  0  0  0  0  0  0
   44.5670   35.4130   45.2420 C   0  0  0  0  0  0  0  0  0  0  0  0
   45.1770   35.4240   43.9700 C   0  0  0  0  0  0  0  0  0  0  0  0
   46.0640   34.4530   43.6540 C   0  0  0  0  0  0  0  0  0  0  0  0
   46.3150   33.5130   44.5980 N   0  0  0  0  0  0  0  0  0  0  0  0
   45.7400   33.5050   45.7910 C   0  0  0  0  0  0  0  0  0  0  0  0
   44.8610   34.4500   46.1330 N   0  0  0  0  0  0  0  0  0  0  0  0
   46.0840   32.4590   46.7160 N   0  0  0  0  0  0  0  0  0  0  0  0
   45.3850   32.1950   47.9200 C   0  0  0  0  0  0  0  0  0  0  0  0
   46.4860   31.7960   48.8840 C   0  0  0  0  0  0  0  0  0  0  0  0
   47.7370   31.6840   48.0640 C   0  0  0  0  0  0  0  0  0  0  0  0
   47.1800   31.5240   46.6500 C   0  0  1  0  0  0  0  0  0  0  0  0
   43.8620   36.2000   45.4730 H   0  0  0  0  0  0  0  0  0  0  0  0
   46.5340   34.4430   42.7000 H   0  0  0  0  0  0  0  0  0  0  0  0
   44.5750   31.5550   48.0330 H   0  0  0  0  0  0  0  0  0  0  0  0
   45.0480   33.2040   48.3200 H   0  0  0  0  0  0  0  0  0  0  0  0
   46.6450   32.4850   49.7110 H   0  0  0  0  0  0  0  0  0  0  0  0
   46.2380   30.8040   49.3540 H   0  0  0  0  0  0  0  0  0  0  0  0
   48.3030   30.7590   48.3280 H   0  0  0  0  0  0  0  0  0  0  0  0
   48.3530   32.5840   48.1780 H   0  0  0  0  0  0  0  0  0  0  0  0
   47.9970   31.8210   45.9710 H   0  0  0  0  0  0  0  0  0  0  0  0
   44.8050   36.4910   43.0800 N   0  0  0  0  0  0  0  0  0  0  0  0
   45.5780   36.7800   42.4500 H   0  0  0  0  0  0  0  0  0  0  0  0
   43.8750   36.9390   43.0500 H   0  0  0  0  0  0  0  0  0  0  0  0
   45.2290   30.4820   43.4750 O   0  0  0  0  0  0  0  0  0  0  0  0
   44.7080   29.9150   44.4490 C   0  0  0  0  0  0  0  0  0  0  0  0
   44.9830   29.6240   45.8760 C   0  0  1  0  0  0  0  0  0  0  0  0
   44.4330   28.2270   46.0240 C   0  0  0  0  0  0  0  0  0  0  0  0
   43.0400   28.4910   45.4420 C   0  0  0  0  0  0  0  0  0  0  0  0
   43.4190   29.2930   44.2850 N   0  0  0  0  0  0  0  0  0  0  0  0
   44.1630   30.2280   46.3570 H   0  0  0  0  0  0  0  0  0  0  0  0
   44.9140   27.5060   45.3360 H   0  0  0  0  0  0  0  0  0  0  0  0
   44.3520   27.8950   47.0650 H   0  0  0  0  0  0  0  0  0  0  0  0
   42.6290   27.5220   45.1230 H   0  0  0  0  0  0  0  0  0  0  0  0
   42.3970   29.0440   46.1450 H   0  0  0  0  0  0  0  0  0  0  0  0
   42.6680   28.3260   42.2650 C   0  0  0  0  0  3  0  0  0  0  0  0
   42.4790   29.3420   43.1890 C   0  0  0  0  0  0  0  0  0  0  0  0
   41.4870   30.2680   43.0260 C   0  0  0  0  0  0  0  0  0  0  0  0
   41.4070   31.0260   43.7910 H   0  0  0  0  0  0  0  0  0  0  0  0
   40.6530   30.1960   41.9210 C   0  0  0  0  0  0  0  0  0  0  0  0
   39.6230   30.9740   41.5420 N   0  0  0  0  0  0  0  0  0  0  0  0
   39.1570   30.4480   40.3720 C   0  0  0  0  0  0  0  0  0  0  0  0
   38.3190   30.8240   39.7710 H   0  0  0  0  0  0  0  0  0  0  0  0
   39.8650   29.3710   40.0150 N   0  0  0  0  0  0  0  0  0  0  0  0
   40.8020   29.1910   40.9600 C   0  0  0  0  0  0  0  0  0  0  0  0
   41.8290   28.2660   41.1680 C   0  0  0  0  0  3  0  0  0  0  0  0
   39.2490   31.8150   42.0400 H   0  0  0  0  0  0  0  0  0  0  0  0
  1 12  1  0  0  0  0
  2 13  1  0  0  0  0
  2  7  1  0  0  0  0
  3  2  2  0  0  0  0
  4  3  1  0  0  0  0
  4  5  2  0  0  0  0
  5  6  1  0  0  0  0
  6  7  2  0  0  0  0
  6  8  1  0  0  0  0
  8  9  1  0  0  0  0
  9 15  1  0  0  0  0
  9 16  1  0  0  0  0
  9 10  1  0  0  0  0
 10 18  1  0  0  0  0
 10 17  1  0  0  0  0
 11 20  1  0  0  0  0
 11 19  1  0  0  0  0
 11 10  1  0  0  0  0
 12 21  1  6  0  0  0
 12  8  1  0  0  0  0
 12 11  1  0  0  0  0
 14  4  1  0  0  0  0
 22  3  1  0  0  0  0
 23 22  1  0  0  0  0
 24 22  1  0  0  0  0
 25 26  2  0  0  0  0
 26 27  1  0  0  0  0
 27 28  1  0  0  0  0
 27 31  1  1  0  0  0
 27  1  1  0  0  0  0
 28 33  1  0  0  0  0
 29 28  1  0  0  0  0
 29 35  1  0  0  0  0
 30 26  1  0  0  0  0
 30 29  1  0  0  0  0
 32 28  1  0  0  0  0
 34 29  1  0  0  0  0
 36 37  1  0  0  0  0
 37 30  1  0  0  0  0
 38 37  2  0  0  0  0
 38 39  1  0  0  0  0
 40 38  1  0  0  0  0
 41 40  1  0  0  0  0
 41 47  1  0  0  0  0
 42 41  1  0  0  0  0
 43 42  1  0  0  0  0
 44 42  2  0  0  0  0
 44 45  1  0  0  0  0
 45 46  1  0  0  0  0
 45 40  2  0  0  0  0
 46 36  2  0  0  0  0
M  END
>  <minimizedAffinity>
-5.6829567

>  <minimizedRMSD>
0.927822173

$$$$
