
 OpenBabel03252503343D

 25 27  0  0  0  0  0  0  0  0999 V2000
   46.1280   33.9820   40.8300 C   0  0  0  0  0  0  0  0  0  0  0  0
   45.0250   33.4340   41.1040 O   0  0  0  0  0  0  0  0  0  0  0  0
   46.6390   34.7860   41.8820 N   0  0  0  0  0  0  0  0  0  0  0  0
   47.5070   35.3510   41.7630 H   0  0  0  0  0  0  0  0  0  0  0  0
   48.0450   34.4190   39.2550 C   0  0  0  0  0  3  0  0  0  0  0  0
   46.8380   33.8280   39.5650 C   0  0  0  0  0  0  0  0  0  0  0  0
   46.2600   33.0250   38.5940 C   0  0  0  0  0  0  0  0  0  0  0  0
   45.3190   32.4970   38.6910 H   0  0  0  0  0  0  0  0  0  0  0  0
   46.8710   32.8220   37.3560 C   0  0  0  0  0  0  0  0  0  0  0  0
   46.6060   32.1400   36.2320 N   0  0  0  0  0  0  0  0  0  0  0  0
   47.5910   32.3230   35.3370 C   0  0  0  0  0  0  0  0  0  0  0  0
   47.6890   31.9180   34.3310 H   0  0  0  0  0  0  0  0  0  0  0  0
   48.5390   33.1410   35.8540 N   0  0  0  0  0  0  0  0  0  0  0  0
   48.0790   33.4320   37.0850 C   0  0  0  0  0  0  0  0  0  0  0  0
   48.6640   34.2320   38.0410 C   0  0  0  0  0  3  0  0  0  0  0  0
   45.7490   31.5520   36.0930 H   0  0  0  0  0  0  0  0  0  0  0  0
   44.5200   35.9830   44.6880 C   0  0  0  0  0  0  0  0  0  0  0  0
   45.1310   35.9280   43.4170 C   0  0  0  0  0  0  0  0  0  0  0  0
   46.0080   34.8720   43.1500 C   0  0  0  0  0  0  0  0  0  0  0  0
   46.2430   33.9480   44.1020 N   0  0  0  0  0  0  0  0  0  0  0  0
   45.6340   34.0300   45.3280 C   0  0  0  0  0  0  0  0  0  0  0  0
   44.7900   35.0400   45.5940 N   0  0  0  0  0  0  0  0  0  0  0  0
   43.8370   36.7860   44.9270 H   0  0  0  0  0  0  0  0  0  0  0  0
   44.9040   36.7020   42.6880 H   0  0  0  0  0  0  0  0  0  0  0  0
   45.8950   33.2360   46.0130 H   0  0  0  0  0  0  0  0  0  0  0  0
  1  2  2  0  0  0  0
  1  3  1  0  0  0  0
  3 19  1  0  0  0  0
  4  3  1  0  0  0  0
  5  6  1  0  0  0  0
  6  1  1  0  0  0  0
  7  8  1  0  0  0  0
  7  6  2  0  0  0  0
  9  7  1  0  0  0  0
 10  9  1  0  0  0  0
 11 13  2  0  0  0  0
 11 10  1  0  0  0  0
 12 11  1  0  0  0  0
 13 14  1  0  0  0  0
 14  9  2  0  0  0  0
 14 15  1  0  0  0  0
 15  5  2  0  0  0  0
 16 10  1  0  0  0  0
 17 23  1  0  0  0  0
 17 22  1  0  0  0  0
 18 17  2  0  0  0  0
 19 18  1  0  0  0  0
 19 20  2  0  0  0  0
 20 21  1  0  0  0  0
 21 22  2  0  0  0  0
 21 25  1  0  0  0  0
 24 18  1  0  0  0  0
M  END
>  <minimizedAffinity>
-5.03874302

>  <minimizedRMSD>
0.453675181

$$$$
