
     RDKit          3D

 30 32  0  0  0  0  0  0  0  0999 V2000
   47.7493   34.8393   42.0948 C   0  0  0  0  0  0  0  0  0  0  0  0
   48.3026   33.8052   42.8394 C   0  0  0  0  0  0  0  0  0  0  0  0
   47.6023   33.2914   43.9131 C   0  0  0  0  0  0  0  0  0  0  0  0
   46.3648   33.8278   44.2127 N   0  0  0  0  0  0  0  0  0  0  0  0
   45.8634   34.8363   43.4590 C   0  0  0  0  0  0  0  0  0  0  0  0
   46.5314   35.3338   42.4267 N   0  0  0  0  0  0  0  0  0  0  0  0
   49.9164   33.1420   42.4084 S   0  0  0  0  0  0  0  0  0  0  0  0
   48.5524   35.3404   40.9609 C   0  0  0  0  0  0  0  0  0  0  0  0
   48.1825   34.7127   39.6540 C   0  0  0  0  0  0  0  0  0  0  0  0
   47.9855   32.4993   44.5127 H   0  0  0  0  0  0  0  0  0  0  0  0
   44.8980   35.1759   43.7801 H   0  0  0  0  0  0  0  0  0  0  0  0
   50.8286   33.8410   43.2541 H   0  0  0  0  0  0  0  0  0  0  0  0
   48.4172   36.4441   40.9706 H   0  0  0  0  0  0  0  0  0  0  0  0
   49.6284   35.1720   41.1367 H   0  0  0  0  0  0  0  0  0  0  0  0
   47.0976   34.9088   39.4253 H   0  0  0  0  0  0  0  0  0  0  0  0
   48.3204   33.6175   39.7623 H   0  0  0  0  0  0  0  0  0  0  0  0
   48.6895   34.6620   37.2472 C   0  0  0  0  0  0  0  0  0  0  0  0
   48.9666   35.1942   38.5117 C   0  0  0  0  0  0  0  0  0  0  0  0
   49.9796   36.1513   38.5795 C   0  0  0  0  0  0  0  0  0  0  0  0
   50.1770   36.5456   39.5502 H   0  0  0  0  0  0  0  0  0  0  0  0
   50.6840   36.5650   37.4671 C   0  0  0  0  0  0  0  0  0  0  0  0
   51.6798   37.4588   37.3165 N   0  0  0  0  0  0  0  0  0  0  0  0
   52.0277   37.4969   36.0008 C   0  0  0  0  0  0  0  0  0  0  0  0
   52.7914   38.0982   35.4976 H   0  0  0  0  0  0  0  0  0  0  0  0
   51.2386   36.6171   35.3292 N   0  0  0  0  0  0  0  0  0  0  0  0
   50.3950   36.0247   36.2158 C   0  0  0  0  0  0  0  0  0  0  0  0
   49.3898   35.0723   36.1362 C   0  0  0  0  0  0  0  0  0  0  0  0
   47.9180   33.9166   37.1197 H   0  0  0  0  0  0  0  0  0  0  0  0
   52.1301   38.0391   38.0602 H   0  0  0  0  0  0  0  0  0  0  0  0
   49.1836   34.6699   35.1659 H   0  0  0  0  0  0  0  0  0  0  0  0
  1  6  1  0
  1  2  2  0
  2  3  1  0
  3  4  2  0
  5  4  1  0
  6  5  2  0
  7  2  1  0
  8  1  1  0
  9  8  1  0
  3 10  1  0
  5 11  1  0
  7 12  1  0
  8 13  1  0
  8 14  1  0
  9 15  1  0
  9 16  1  0
 17 18  2  0
 18 19  1  0
 19 20  1  0
 19 21  2  0
 21 22  1  0
 22 23  1  0
 23 24  1  0
 23 25  2  0
 25 26  1  0
 26 27  2  0
 27 17  1  0
 26 21  1  0
 17 28  1  0
 22 29  1  0
 27 30  1  0
  9 18  1  0
M  ISO  8  10  14  11  14  12  11  13   8  14   8  15   8  16   8  20  15
M  ISO  1  24  14
M  END
>  <DihAtoms>  (1) 
7,8,17,16

>  <DihDeg>  (1) 
-90.0000617508616

$$$$
