
     RDKit          3D

 46 49  0  0  0  0  0  0  0  0999 V2000
   45.3466   34.6877   42.3511 C   0  0  0  0  0  0  0  0  0  0  0  0
   46.4705   35.2134   41.6506 C   0  0  0  0  0  0  0  0  0  0  0  0
   47.7329   34.9209   42.2015 C   0  0  0  0  0  0  0  0  0  0  0  0
   47.7790   34.1840   43.3219 N   0  0  0  0  0  0  0  0  0  0  0  0
   46.6850   33.7084   43.9492 C   0  0  0  0  0  0  0  0  0  0  0  0
   45.4576   33.9682   43.4508 N   0  0  0  0  0  0  0  0  0  0  0  0
   43.7381   34.1467   40.7283 C   0  0  0  0  0  0  0  0  0  0  0  0
   44.6472   33.3722   40.2711 O   0  0  0  0  0  0  0  0  0  0  0  0
   44.0231   34.9395   41.8579 N   0  0  0  0  0  0  0  0  0  0  0  0
   42.4922   34.1508   40.0572 N   0  0  0  0  0  0  0  0  0  0  0  0
   42.3897   33.5487   38.7137 C   0  0  0  0  0  0  0  0  0  0  0  0
   41.3171   34.3756   38.0753 C   0  0  0  0  0  0  0  0  0  0  0  0
   40.8201   35.3100   39.1391 C   0  0  0  0  0  0  0  0  0  0  0  0
   41.1945   34.6303   40.4340 C   0  0  1  0  0  0  0  0  0  0  0  0
   38.9013   33.4974   40.7273 C   0  0  0  0  0  0  0  0  0  0  0  0
   38.4985   34.5081   40.1111 O   0  0  0  0  0  0  0  0  0  0  0  0
   40.3462   33.5064   40.8080 N   0  0  0  0  0  0  0  0  0  0  0  0
   48.8663   35.4737   41.4611 C   0  0  0  0  0  0  0  0  0  0  0  0
   50.0009   34.7216   41.7529 F   0  0  0  0  0  0  0  0  0  0  0  0
   49.1146   36.7465   42.0016 F   0  0  0  0  0  0  0  0  0  0  0  0
   48.6902   35.4998   40.1105 F   0  0  0  0  0  0  0  0  0  0  0  0
   46.2609   35.7934   40.7539 H   0  0  0  0  0  0  0  0  0  0  0  0
   46.7777   33.1165   44.8539 H   0  0  0  0  0  0  0  0  0  0  0  0
   43.2856   35.5988   42.2100 H   0  0  0  0  0  0  0  0  0  0  0  0
   42.0264   32.5002   38.7653 H   0  0  0  0  0  0  0  0  0  0  0  0
   43.3170   33.6714   38.1358 H   0  0  0  0  0  0  0  0  0  0  0  0
   41.6524   34.9092   37.1635 H   0  0  0  0  0  0  0  0  0  0  0  0
   40.4234   33.7605   37.7684 H   0  0  0  0  0  0  0  0  0  0  0  0
   41.6236   36.1288   39.1069 H   0  0  0  0  0  0  0  0  0  0  0  0
   39.9450   35.8549   39.0043 H   0  0  0  0  0  0  0  0  0  0  0  0
   41.1178   35.4242   41.1844 H   0  0  0  0  0  0  0  0  0  0  0  0
   40.8486   32.6355   41.1658 H   0  0  0  0  0  0  0  0  0  0  0  0
   36.7508   32.2147   41.0090 C   0  0  0  0  0  0  0  0  0  0  0  0
   38.1009   32.4518   41.2922 C   0  0  0  0  0  0  0  0  0  0  0  0
   38.7688   31.6337   42.1898 C   0  0  0  0  0  0  0  0  0  0  0  0
   39.8116   31.7638   42.4515 H   0  0  0  0  0  0  0  0  0  0  0  0
   38.1387   30.5686   42.8305 C   0  0  0  0  0  0  0  0  0  0  0  0
   38.5267   29.6297   43.7273 N   0  0  0  0  0  0  0  0  0  0  0  0
   37.4265   28.8655   43.9589 C   0  0  0  0  0  0  0  0  0  0  0  0
   37.3715   28.0126   44.6301 H   0  0  0  0  0  0  0  0  0  0  0  0
   36.3803   29.3080   43.2322 N   0  0  0  0  0  0  0  0  0  0  0  0
   36.8093   30.3545   42.5358 C   0  0  0  0  0  0  0  0  0  0  0  0
   36.1243   31.1527   41.6483 C   0  0  0  0  0  0  0  0  0  0  0  0
   36.2768   32.8821   40.3017 H   0  0  0  0  0  0  0  0  0  0  0  0
   39.4824   29.5429   44.1340 H   0  0  0  0  0  0  0  0  0  0  0  0
   35.0778   30.9982   41.4050 H   0  0  0  0  0  0  0  0  0  0  0  0
  1  6  2  0
  2  3  2  0
  2  1  1  0
  3  4  1  0
  4  5  2  0
  6  5  1  0
  7  9  1  0
  8  7  2  0
  9  1  1  0
 10 14  1  0
 10  7  1  0
 11 10  1  0
 12 11  1  0
 12 13  1  0
 13 14  1  0
 14 17  1  0
 15 17  1  0
 16 15  2  0
 18 19  1  0
 18 20  1  0
 18  3  1  0
 21 18  1  0
  2 22  1  0
  5 23  1  0
  9 24  1  0
 11 25  1  0
 11 26  1  0
 12 27  1  0
 12 28  1  0
 13 29  1  0
 13 30  1  0
 14 31  1  1
 17 32  1  0
 33 34  2  0
 34 35  1  0
 35 36  1  0
 35 37  2  0
 37 38  1  0
 38 39  1  0
 39 40  1  0
 39 41  2  0
 41 42  1  0
 42 43  2  0
 43 33  1  0
 42 37  1  0
 33 44  1  0
 38 45  1  0
 43 46  1  0
 15 34  1  0
M  ISO  8  22  14  23  14  25  13  26  13  27  13  28  13  29  13  30  13
M  ISO  3  31  13  36  15  40  14
M  END
>  <DihAtoms>  (1) 
16,14,33,32

>  <DihDeg>  (1) 
0.003452926385015918

$$$$
