
 OpenBabel03252506373D

 47 51  0  0  1  0  0  0  0  0999 V2000
   46.7010   29.9540   46.4920 S   0  0  0  0  0  0  0  0  0  0  0  0
   44.5360   35.4480   45.1770 C   0  0  0  0  0  0  0  0  0  0  0  0
   45.1860   35.4650   43.9250 C   0  0  0  0  0  0  0  0  0  0  0  0
   46.1100   34.5170   43.6470 C   0  0  0  0  0  0  0  0  0  0  0  0
   46.3560   33.5920   44.6070 N   0  0  0  0  0  0  0  0  0  0  0  0
   45.7430   33.5790   45.7820 C   0  0  0  0  0  0  0  0  0  0  0  0
   44.8280   34.5010   46.0860 N   0  0  0  0  0  0  0  0  0  0  0  0
   46.0850   32.5500   46.7270 N   0  0  0  0  0  0  0  0  0  0  0  0
   45.3550   32.2780   47.9100 C   0  0  0  0  0  0  0  0  0  0  0  0
   46.4340   31.9180   48.9130 C   0  0  0  0  0  0  0  0  0  0  0  0
   47.7140   31.8330   48.1350 C   0  0  0  0  0  0  0  0  0  0  0  0
   47.2070   31.6460   46.7060 C   0  0  1  0  0  0  0  0  0  0  0  0
   43.8030   36.2170   45.3760 H   0  0  0  0  0  0  0  0  0  0  0  0
   46.6120   34.5110   42.7090 H   0  0  0  0  0  0  0  0  0  0  0  0
   44.5580   31.6160   48.0030 H   0  0  0  0  0  0  0  0  0  0  0  0
   44.9770   33.2800   48.2900 H   0  0  0  0  0  0  0  0  0  0  0  0
   46.5470   32.6180   49.7380 H   0  0  0  0  0  0  0  0  0  0  0  0
   46.1980   30.9230   49.3850 H   0  0  0  0  0  0  0  0  0  0  0  0
   48.2950   30.9270   48.4270 H   0  0  0  0  0  0  0  0  0  0  0  0
   48.3000   32.7520   48.2610 H   0  0  0  0  0  0  0  0  0  0  0  0
   48.0380   31.9590   46.0510 H   0  0  0  0  0  0  0  0  0  0  0  0
   44.8150   36.5130   43.0120 N   0  0  0  0  0  0  0  0  0  0  0  0
   45.6000   36.8180   42.4050 H   0  0  0  0  0  0  0  0  0  0  0  0
   43.8740   36.9350   42.9480 H   0  0  0  0  0  0  0  0  0  0  0  0
   45.3250   30.4750   43.5000 O   0  0  0  0  0  0  0  0  0  0  0  0
   44.8080   29.9230   44.4840 C   0  0  0  0  0  0  0  0  0  0  0  0
   45.0750   29.6780   45.9220 C   0  0  1  0  0  0  0  0  0  0  0  0
   44.5540   28.2740   46.1030 C   0  0  0  0  0  0  0  0  0  0  0  0
   43.1610   28.4910   45.5010 C   0  0  0  0  0  0  0  0  0  0  0  0
   43.5340   29.2690   44.3270 N   0  0  0  0  0  0  0  0  0  0  0  0
   44.2380   30.2760   46.3780 H   0  0  0  0  0  0  0  0  0  0  0  0
   45.0570   27.5450   45.4400 H   0  0  0  0  0  0  0  0  0  0  0  0
   44.4710   27.9690   47.1520 H   0  0  0  0  0  0  0  0  0  0  0  0
   42.7750   27.5050   45.2070 H   0  0  0  0  0  0  0  0  0  0  0  0
   42.5000   29.0490   46.1840 H   0  0  0  0  0  0  0  0  0  0  0  0
   42.7880   28.2000   42.3570 C   0  0  0  0  0  3  0  0  0  0  0  0
   42.6030   29.2670   43.2210 C   0  0  0  0  0  0  0  0  0  0  0  0
   41.6240   30.1940   42.9980 C   0  0  0  0  0  0  0  0  0  0  0  0
   41.5480   30.9950   43.7190 H   0  0  0  0  0  0  0  0  0  0  0  0
   40.7980   30.0710   41.8910 C   0  0  0  0  0  0  0  0  0  0  0  0
   39.7800   30.8390   41.4610 N   0  0  0  0  0  0  0  0  0  0  0  0
   39.3180   30.2540   40.3180 C   0  0  0  0  0  0  0  0  0  0  0  0
   38.4890   30.6040   39.6900 H   0  0  0  0  0  0  0  0  0  0  0  0
   40.0160   29.1490   40.0280 N   0  0  0  0  0  0  0  0  0  0  0  0
   40.9430   29.0120   40.9900 C   0  0  0  0  0  0  0  0  0  0  0  0
   41.9580   28.0880   41.2580 C   0  0  0  0  0  3  0  0  0  0  0  0
   39.4130   31.7100   41.9080 H   0  0  0  0  0  0  0  0  0  0  0  0
  1 12  1  0  0  0  0
  2 13  1  0  0  0  0
  2  7  1  0  0  0  0
  3  2  2  0  0  0  0
  4  3  1  0  0  0  0
  4  5  2  0  0  0  0
  5  6  1  0  0  0  0
  6  7  2  0  0  0  0
  6  8  1  0  0  0  0
  8  9  1  0  0  0  0
  9 15  1  0  0  0  0
  9 16  1  0  0  0  0
  9 10  1  0  0  0  0
 10 18  1  0  0  0  0
 10 17  1  0  0  0  0
 11 20  1  0  0  0  0
 11 19  1  0  0  0  0
 11 10  1  0  0  0  0
 12 21  1  6  0  0  0
 12  8  1  0  0  0  0
 12 11  1  0  0  0  0
 14  4  1  0  0  0  0
 22  3  1  0  0  0  0
 23 22  1  0  0  0  0
 24 22  1  0  0  0  0
 25 26  2  0  0  0  0
 26 27  1  0  0  0  0
 27 28  1  0  0  0  0
 27 31  1  1  0  0  0
 27  1  1  0  0  0  0
 28 33  1  0  0  0  0
 29 28  1  0  0  0  0
 29 35  1  0  0  0  0
 30 26  1  0  0  0  0
 30 29  1  0  0  0  0
 32 28  1  0  0  0  0
 34 29  1  0  0  0  0
 36 37  1  0  0  0  0
 37 30  1  0  0  0  0
 38 37  2  0  0  0  0
 38 39  1  0  0  0  0
 40 38  1  0  0  0  0
 41 40  1  0  0  0  0
 41 47  1  0  0  0  0
 42 41  1  0  0  0  0
 43 42  1  0  0  0  0
 44 42  2  0  0  0  0
 44 45  1  0  0  0  0
 45 46  1  0  0  0  0
 45 40  2  0  0  0  0
 46 36  2  0  0  0  0
M  END
>  <minimizedAffinity>
-5.69068336

>  <minimizedRMSD>
0.63322407

$$$$
