
 OpenBabel03252500283D

 46 49  0  0  1  0  0  0  0  0999 V2000
   47.0510   33.2870   46.5850 O   0  0  0  0  0  0  0  0  0  0  0  0
   45.5900   33.0190   46.5140 P   0  0  1  0  0  0  0  0  0  0  0  0
   45.2900   31.8800   45.2970 O   0  0  0  0  0  0  0  0  0  0  0  0
   45.8560   32.0510   44.4970 H   0  0  0  0  0  0  0  0  0  0  0  0
   45.1350   32.4070   47.9760 O   0  0  0  0  0  0  0  0  0  0  0  0
   47.0610   30.9980   48.0240 C   0  0  2  0  0  0  0  0  0  0  0  0
   45.5880   31.1200   48.1160 C   0  0  2  0  0  0  0  0  0  0  0  0
   45.0430   30.2110   47.1300 C   0  0  0  0  0  0  0  0  0  0  0  0
   46.0020   29.2270   46.8450 O   0  0  0  0  0  0  0  0  0  0  0  0
   47.0340   29.4520   47.6920 C   0  0  0  0  0  0  0  0  0  0  0  0
   47.5520   31.2750   47.0770 H   0  0  0  0  0  0  0  0  0  0  0  0
   45.3880   30.8960   49.2030 H   0  0  0  0  0  0  0  0  0  0  0  0
   44.3340   30.4570   46.3710 H   0  0  0  0  0  0  0  0  0  0  0  0
   44.3500   29.5410   47.7550 H   0  0  0  0  0  0  0  0  0  0  0  0
   46.7530   29.0260   48.6940 H   0  0  0  0  0  0  0  0  0  0  0  0
   48.0250   29.1070   47.4100 H   0  0  0  0  0  0  0  0  0  0  0  0
   47.7670   31.1520   49.1570 O   0  0  0  0  0  0  0  0  0  0  0  0
   49.0460   31.3840   49.2400 C   0  0  0  0  0  0  0  0  0  0  0  0
   49.4210   32.3680   49.2040 H   0  0  0  0  0  0  0  0  0  0  0  0
   49.5150   30.9950   48.1790 H   0  0  0  0  0  0  0  0  0  0  0  0
   49.6480   30.4150   50.2460 C   0  0  0  0  0  0  0  0  0  0  0  0
   49.0410   29.5050   50.3320 H   0  0  0  0  0  0  0  0  0  0  0  0
   49.7910   30.9070   51.2370 H   0  0  0  0  0  0  0  0  0  0  0  0
   50.6680   30.1350   49.9080 H   0  0  0  0  0  0  0  0  0  0  0  0
   44.8520   34.5170   46.1660 O   0  0  0  0  0  0  0  0  0  0  0  0
   45.1970   36.9430   43.5430 C   0  0  0  0  0  0  0  0  0  0  0  0
   44.8510   36.2330   42.3700 C   0  0  0  0  0  0  0  0  0  0  0  0
   44.4950   34.8770   42.5440 C   0  0  0  0  0  0  0  0  0  0  0  0
   44.5050   34.3510   43.7840 N   0  0  0  0  0  0  0  0  0  0  0  0
   44.8410   35.0630   44.8700 C   0  0  0  0  0  0  0  0  0  0  0  0
   45.1820   36.3500   44.7350 N   0  0  0  0  0  0  0  0  0  0  0  0
   44.8560   36.6920   41.3940 H   0  0  0  0  0  0  0  0  0  0  0  0
   44.2310   34.3290   41.6620 H   0  0  0  0  0  0  0  0  0  0  0  0
   45.5500   38.2580   43.4290 O   0  0  0  0  0  0  0  0  0  0  0  0
   45.1800   38.9220   45.7220 C   0  0  0  0  0  3  0  0  0  0  0  0
   45.2390   39.2210   44.3710 C   0  0  0  0  0  0  0  0  0  0  0  0
   45.0000   40.4780   43.8330 C   0  0  0  0  0  0  0  0  0  0  0  0
   45.0490   40.6940   42.7900 H   0  0  0  0  0  0  0  0  0  0  0  0
   44.6790   41.5030   44.7170 C   0  0  0  0  0  0  0  0  0  0  0  0
   44.3960   42.8140   44.5070 N   0  0  0  0  0  0  0  0  0  0  0  0
   44.1570   43.3540   45.7220 C   0  0  0  0  0  0  0  0  0  0  0  0
   43.9010   44.3910   45.8960 H   0  0  0  0  0  0  0  0  0  0  0  0
   44.2830   42.4160   46.6710 N   0  0  0  0  0  0  0  0  0  0  0  0
   44.6080   41.2550   46.0710 C   0  0  0  0  0  0  0  0  0  0  0  0
   44.8550   39.9780   46.5730 C   0  0  0  0  0  3  0  0  0  0  0  0
   44.3870   43.2390   43.5630 H   0  0  0  0  0  0  0  0  0  0  0  0
  2  1  2  1  0  0  0
  2  5  1  0  0  0  0
  3  2  1  0  0  0  0
  4  3  1  0  0  0  0
  5  7  1  0  0  0  0
  6 11  1  6  0  0  0
  6  7  1  0  0  0  0
  6 17  1  0  0  0  0
  7 12  1  1  0  0  0
  8 14  1  0  0  0  0
  8  7  1  0  0  0  0
  9  8  1  0  0  0  0
  9 10  1  0  0  0  0
 10  6  1  0  0  0  0
 10 15  1  0  0  0  0
 13  8  1  0  0  0  0
 16 10  1  0  0  0  0
 17 18  1  0  0  0  0
 18 21  1  0  0  0  0
 19 18  1  0  0  0  0
 20 18  1  0  0  0  0
 21 22  1  0  0  0  0
 21 23  1  0  0  0  0
 24 21  1  0  0  0  0
 25  2  1  0  0  0  0
 26 31  1  0  0  0  0
 27 28  1  0  0  0  0
 27 26  2  0  0  0  0
 28 29  2  0  0  0  0
 29 30  1  0  0  0  0
 30 25  1  0  0  0  0
 31 30  2  0  0  0  0
 32 27  1  0  0  0  0
 33 28  1  0  0  0  0
 34 26  1  0  0  0  0
 34 36  1  0  0  0  0
 35 45  1  0  0  0  0
 36 35  2  0  0  0  0
 37 36  1  0  0  0  0
 37 39  2  0  0  0  0
 38 37  1  0  0  0  0
 39 44  1  0  0  0  0
 40 39  1  0  0  0  0
 40 41  1  0  0  0  0
 41 42  1  0  0  0  0
 41 43  2  0  0  0  0
 44 45  2  0  0  0  0
 44 43  1  0  0  0  0
 46 40  1  0  0  0  0
M  END
>  <minimizedAffinity>
-3.50822592

>  <minimizedRMSD>
0.598728836

$$$$
