
 OpenBabel03252504333D

 43 46  0  0  0  0  0  0  0  0999 V2000
   41.6280   35.6390   41.1750 C   0  0  0  0  0  0  0  0  0  0  0  0
   41.1480   36.4910   40.5690 H   0  0  0  0  0  0  0  0  0  0  0  0
   41.4880   35.8990   42.2150 H   0  0  0  0  0  0  0  0  0  0  0  0
   41.0820   33.2610   41.2900 C   0  0  0  0  0  0  0  0  0  0  0  0
   40.6690   34.5160   40.8670 C   0  0  0  0  0  0  0  0  0  0  0  0
   39.4640   34.6320   40.2420 C   0  0  0  0  0  0  0  0  0  0  0  0
   38.7670   33.5070   40.0860 N   0  0  0  0  0  0  0  0  0  0  0  0
   39.1420   32.3090   40.4820 C   0  0  0  0  0  0  0  0  0  0  0  0
   40.3690   32.1500   41.1250 N   0  0  0  0  0  0  0  0  0  0  0  0
   42.0210   33.0680   41.7940 H   0  0  0  0  0  0  0  0  0  0  0  0
   39.1910   35.6240   39.9340 H   0  0  0  0  0  0  0  0  0  0  0  0
   37.4440   30.6870   41.2490 C   0  0  0  0  0  3  0  0  0  0  0  0
   38.3150   31.1240   40.2720 C   0  0  0  0  0  0  0  0  0  0  0  0
   38.4620   30.4850   39.0580 C   0  0  0  0  0  0  0  0  0  0  0  0
   39.1490   30.8370   38.3010 H   0  0  0  0  0  0  0  0  0  0  0  0
   37.7020   29.3600   38.8100 C   0  0  0  0  0  0  0  0  0  0  0  0
   37.6310   28.5400   37.7340 N   0  0  0  0  0  0  0  0  0  0  0  0
   36.7170   27.5800   38.0170 C   0  0  0  0  0  0  0  0  0  0  0  0
   36.3770   26.7440   37.4170 H   0  0  0  0  0  0  0  0  0  0  0  0
   36.2230   27.7930   39.2500 N   0  0  0  0  0  0  0  0  0  0  0  0
   36.8160   28.9020   39.7810 C   0  0  0  0  0  0  0  0  0  0  0  0
   36.6890   29.5610   40.9910 C   0  0  0  0  0  3  0  0  0  0  0  0
   38.1630   28.5990   36.8330 H   0  0  0  0  0  0  0  0  0  0  0  0
   42.8690   35.4640   40.6570 O   0  0  0  0  0  0  0  0  0  0  0  0
   44.0780   35.2860   41.3080 C   0  0  0  0  0  2  0  0  0  0  0  0
   44.0690   35.6230   42.6100 C   0  0  0  0  0  2  0  0  0  0  0  0
   45.2620   35.5260   43.5320 C   0  0  0  0  0  0  0  0  0  0  0  0
   45.5420   36.5190   43.9210 H   0  0  0  0  0  0  0  0  0  0  0  0
   46.1050   35.1870   42.9070 H   0  0  0  0  0  0  0  0  0  0  0  0
   44.9840   34.5900   44.4970 O   0  0  0  0  0  0  0  0  0  0  0  0
   45.6070   32.4290   43.0700 O   0  0  0  0  0  0  0  0  0  0  0  0
   45.9690   33.2340   44.2970 P   0  0  1  0  0  0  0  0  0  0  0  0
   47.5930   33.7240   44.1140 O   0  0  0  0  0  0  0  0  0  0  0  0
   47.7270   34.5320   44.6780 H   0  0  0  0  0  0  0  0  0  0  0  0
   45.9000   32.2610   45.6700 O   0  0  0  0  0  0  0  0  0  0  0  0
   46.1980   32.9530   46.8260 C   0  0  0  0  0  0  0  0  0  0  0  0
   47.0680   32.3070   47.8600 C   0  0  0  0  0  0  0  0  0  0  0  0
   45.5710   32.4120   48.0870 C   0  0  0  0  0  0  0  0  0  0  0  0
   46.2310   34.0500   46.7220 H   0  0  0  0  0  0  0  0  0  0  0  0
   47.7240   33.0080   48.4140 H   0  0  0  0  0  0  0  0  0  0  0  0
   47.4530   31.3150   47.6300 H   0  0  0  0  0  0  0  0  0  0  0  0
   45.0070   31.4650   48.0500 H   0  0  0  0  0  0  0  0  0  0  0  0
   45.2560   33.1070   48.8880 H   0  0  0  0  0  0  0  0  0  0  0  0
  1  3  1  0  0  0  0
  2  1  1  0  0  0  0
  4 10  1  0  0  0  0
  5  1  1  0  0  0  0
  5  4  2  0  0  0  0
  6  5  1  0  0  0  0
  7  6  2  0  0  0  0
  7  8  1  0  0  0  0
  8  9  2  0  0  0  0
  9  4  1  0  0  0  0
 11  6  1  0  0  0  0
 13  8  1  0  0  0  0
 13 12  2  0  0  0  0
 14 13  1  0  0  0  0
 15 14  1  0  0  0  0
 16 14  2  0  0  0  0
 16 21  1  0  0  0  0
 17 18  1  0  0  0  0
 17 16  1  0  0  0  0
 18 20  2  0  0  0  0
 19 18  1  0  0  0  0
 20 21  1  0  0  0  0
 21 22  2  0  0  0  0
 22 12  1  0  0  0  0
 23 17  1  0  0  0  0
 24  1  1  0  0  0  0
 24 25  1  0  0  0  0
 25 26  1  0  0  0  0
 26 27  1  0  0  0  0
 27 28  1  0  0  0  0
 27 30  1  0  0  0  0
 29 27  1  0  0  0  0
 32 31  2  6  0  0  0
 32 30  1  0  0  0  0
 32 35  1  0  0  0  0
 33 32  1  0  0  0  0
 33 34  1  0  0  0  0
 35 36  1  0  0  0  0
 36 37  1  0  0  0  0
 36 38  1  0  0  0  0
 37 38  1  0  0  0  0
 37 40  1  0  0  0  0
 38 43  1  0  0  0  0
 39 36  1  0  0  0  0
 41 37  1  0  0  0  0
 42 38  1  0  0  0  0
M  END
>  <minimizedAffinity>
-5.432868

>  <minimizedRMSD>
0.963268518

$$$$
