
 OpenBabel03252505403D

 31 34  0  0  1  0  0  0  0  0999 V2000
   47.0110   32.4680   42.8040 C   0  0  1  0  0  0  0  0  0  0  0  0
   47.6420   31.0650   42.6450 C   0  0  0  0  0  0  0  0  0  0  0  0
   47.8020   31.8810   43.8860 C   0  0  2  0  0  0  0  0  0  0  0  0
   45.8970   32.3840   42.7000 H   0  0  0  0  0  0  0  0  0  0  0  0
   46.9900   30.1850   42.7390 H   0  0  0  0  0  0  0  0  0  0  0  0
   48.4900   30.9830   41.9600 H   0  0  0  0  0  0  0  0  0  0  0  0
   48.8030   32.2700   44.0720 H   0  0  0  0  0  0  0  0  0  0  0  0
   46.2860   30.3790   45.1310 C   0  0  0  0  0  3  0  0  0  0  0  0
   47.0330   31.5230   45.1080 C   0  0  0  0  0  0  0  0  0  0  0  0
   47.0290   32.2980   46.2460 C   0  0  0  0  0  0  0  0  0  0  0  0
   47.6120   33.2110   46.2570 H   0  0  0  0  0  0  0  0  0  0  0  0
   46.3190   31.9700   47.3750 C   0  0  0  0  0  0  0  0  0  0  0  0
   46.1390   32.5340   48.6050 N   0  0  0  0  0  0  0  0  0  0  0  0
   45.3230   31.7730   49.3450 C   0  0  0  0  0  0  0  0  0  0  0  0
   44.9830   31.9490   50.3740 H   0  0  0  0  0  0  0  0  0  0  0  0
   44.9790   30.7170   48.5850 N   0  0  0  0  0  0  0  0  0  0  0  0
   45.5670   30.7980   47.3720 C   0  0  0  0  0  0  0  0  0  0  0  0
   45.5490   29.9890   46.2330 C   0  0  0  0  0  3  0  0  0  0  0  0
   46.5800   33.4340   48.9190 H   0  0  0  0  0  0  0  0  0  0  0  0
   47.5920   33.4930   41.8840 C   0  0  0  0  0  0  0  0  0  0  0  0
   48.1750   34.6630   42.4380 C   0  0  0  0  0  0  0  0  0  0  0  0
   48.7200   35.5910   41.5560 C   0  0  0  0  0  0  0  0  0  0  0  0
   48.6640   35.3270   40.2260 N   0  0  0  0  0  0  0  0  0  0  0  0
   48.0970   34.1950   39.7400 C   0  0  0  0  0  0  0  0  0  0  0  0
   47.5590   33.2780   40.5840 N   0  0  0  0  0  0  0  0  0  0  0  0
   48.2000   34.8330   43.5050 H   0  0  0  0  0  0  0  0  0  0  0  0
   49.1810   36.5030   41.8940 H   0  0  0  0  0  0  0  0  0  0  0  0
   48.1500   34.0930   38.2450 C   0  0  0  0  0  0  0  0  0  0  0  0
   46.9110   33.8520   37.7050 F   0  0  0  0  0  0  0  0  0  0  0  0
   49.0040   33.0510   37.8750 F   0  0  0  0  0  0  0  0  0  0  0  0
   48.7350   35.2490   37.7390 F   0  0  0  0  0  0  0  0  0  0  0  0
  1  4  1  1  0  0  0
  1  3  1  0  0  0  0
  2  5  1  0  0  0  0
  2  1  1  0  0  0  0
  2  3  1  0  0  0  0
  3  7  1  1  0  0  0
  3  9  1  0  0  0  0
  6  2  1  0  0  0  0
  8 18  1  0  0  0  0
  9  8  2  0  0  0  0
  9 10  1  0  0  0  0
 10 11  1  0  0  0  0
 10 12  2  0  0  0  0
 12 13  1  0  0  0  0
 13 19  1  0  0  0  0
 13 14  1  0  0  0  0
 14 15  1  0  0  0  0
 16 14  2  0  0  0  0
 17 12  1  0  0  0  0
 17 16  1  0  0  0  0
 18 17  2  0  0  0  0
 20 21  1  0  0  0  0
 20  1  1  0  0  0  0
 21 26  1  0  0  0  0
 22 27  1  0  0  0  0
 22 21  2  0  0  0  0
 23 22  1  0  0  0  0
 24 23  2  0  0  0  0
 24 25  1  0  0  0  0
 25 20  2  0  0  0  0
 28 24  1  0  0  0  0
 29 28  1  0  0  0  0
 30 28  1  0  0  0  0
 31 28  1  0  0  0  0
M  END
>  <minimizedAffinity>
-5.48916197

>  <minimizedRMSD>
8.49110603

$$$$
