REMARK  Name = 
REMARK  6 active torsions:
REMARK  status: ('A' for Active; 'I' for Inactive)
REMARK    1  A    between atoms: C_1  and  C_2
REMARK    2  A    between atoms: C_1  and  C_14
REMARK    3  A    between atoms: C_6  and  C_8
REMARK    4  A    between atoms: C_14  and  N_15
REMARK    5  A    between atoms: C_20  and  S_21
REMARK    6  A    between atoms: S_21  and  C_40
REMARK                            x       y       z     vdW  Elec       q    Type
REMARK                         _______ _______ _______ _____ _____    ______ ____
ROOT
ATOM      1  N   UNL     1      41.001  33.510  40.324  0.00  0.00    +0.000 N 
ATOM      2  C   UNL     1      40.323  32.251  40.337  0.00  0.00    +0.000 C 
ATOM      3  C   UNL     1      38.952  32.726  40.811  0.00  0.00    +0.000 C 
ATOM      4  C   UNL     1      38.324  33.697  39.932  0.00  0.00    +0.000 C 
ATOM      5  C   UNL     1      39.161  34.505  39.073  0.00  0.00    +0.000 C 
ATOM      6  C   UNL     1      40.663  34.470  39.250  0.00  0.00    +0.000 C 
ATOM      7  H   UNL     1      40.306  31.654  39.443  0.00  0.00    +0.000 HD
ATOM      8  H   UNL     1      40.708  31.618  41.156  0.00  0.00    +0.000 HD
ATOM      9  H   UNL     1      39.052  33.071  41.866  0.00  0.00    +0.000 HD
ATOM     10  H   UNL     1      38.324  31.793  40.893  0.00  0.00    +0.000 HD
ATOM     11  H   UNL     1      37.591  33.162  39.258  0.00  0.00    +0.000 HD
ATOM     12  H   UNL     1      37.684  34.384  40.547  0.00  0.00    +0.000 HD
ATOM     13  H   UNL     1      38.817  35.151  38.330  0.00  0.00    +0.000 HD
ENDROOT
BRANCH   1  14
ATOM     14  C   UNL     1      41.907  33.946  41.204  0.00  0.00    +0.000 C 
ATOM     15  H   UNL     1      41.545  33.916  42.255  0.00  0.00    +0.000 HD
ATOM     16  H   UNL     1      42.190  35.046  41.061  0.00  0.00    +0.000 HD
BRANCH  14  17
ATOM     17  C   UNL     1      43.205  33.227  41.145  0.00  0.00    +0.000 C 
ATOM     18  H   UNL     1      43.137  32.284  41.735  0.00  0.00    +0.000 HD
ATOM     19  H   UNL     1      43.470  32.987  40.079  0.00  0.00    +0.000 HD
BRANCH  17  20
ATOM     20  C   UNL     1      44.234  34.073  41.775  0.00  0.00    +0.000 A 
ATOM     21  C   UNL     1      43.881  35.245  42.402  0.00  0.00    +0.000 A 
ATOM     22  C   UNL     1      44.884  36.019  42.972  0.00  0.00    +0.000 A 
ATOM     23  N   UNL     1      46.170  35.571  42.880  0.00  0.00    +0.000 NA
ATOM     24  C   UNL     1      46.473  34.428  42.267  0.00  0.00    +0.000 A 
ATOM     25  N   UNL     1      45.492  33.701  41.723  0.00  0.00    +0.000 NA
ATOM     26  H   UNL     1      42.949  35.750  42.591  0.00  0.00    +0.000 HD
ATOM     27  H   UNL     1      44.796  36.969  43.503  0.00  0.00    +0.000 HD
BRANCH  24  28
ATOM     28  C   UNL     1      47.874  34.013  42.254  0.00  0.00    +0.000 A 
ATOM     29  C   UNL     1      48.208  32.682  42.017  0.00  0.00    +0.000 A 
ATOM     30  C   UNL     1      49.533  32.294  42.023  0.00  0.00    +0.000 A 
ATOM     31  C   UNL     1      50.425  33.308  42.273  0.00  0.00    +0.000 A 
ATOM     32  C   UNL     1      50.142  34.646  42.514  0.00  0.00    +0.000 A 
ATOM     33  N   UNL     1      48.816  34.945  42.491  0.00  0.00    +0.000 NA
ATOM     34  H   UNL     1      47.433  31.962  41.830  0.00  0.00    +0.000 HD
ATOM     35  H   UNL     1      49.859  31.298  41.850  0.00  0.00    +0.000 HD
ATOM     36  H   UNL     1      51.488  33.049  42.288  0.00  0.00    +0.000 HD
ATOM     37  H   UNL     1      50.913  35.373  42.702  0.00  0.00    +0.000 HD
ENDBRANCH  24  28
ENDBRANCH  17  20
ENDBRANCH  14  17
ENDBRANCH   1  14
BRANCH   6  38
ATOM     38  S   UNL     1      41.775  35.402  38.330  0.00  0.00    +0.000 S 
BRANCH  38  40
ATOM     39  C   UNL     1      41.909  36.786  36.228  0.00  0.00    +0.000 A 
ATOM     40  C   UNL     1      41.227  36.776  37.445  0.00  0.00    +0.000 A 
ATOM     41  C   UNL     1      40.382  37.819  37.589  0.00  0.00    +0.000 A 
ATOM     42  H   UNL     1      39.876  37.830  38.535  0.00  0.00    +0.000 HD
ATOM     43  C   UNL     1      40.130  38.831  36.726  0.00  0.00    +0.000 A 
ATOM     44  N   UNL     1      39.311  39.892  36.800  0.00  0.00    +0.000 N 
ATOM     45  C   UNL     1      39.508  40.534  35.620  0.00  0.00    +0.000 A 
ATOM     46  H   UNL     1      38.961  41.454  35.398  0.00  0.00    +0.000 HD
ATOM     47  N   UNL     1      40.403  39.899  34.861  0.00  0.00    +0.000 NA
ATOM     48  C   UNL     1      40.822  38.803  35.540  0.00  0.00    +0.000 A 
ATOM     49  C   UNL     1      41.721  37.785  35.270  0.00  0.00    +0.000 A 
ATOM     50  H   UNL     1      38.670  40.157  37.589  0.00  0.00    +0.000 HD
ENDBRANCH  38  40
ENDBRANCH   6  38
TORSDOF 6
