
 OpenBabel03252503343D

 25 27  0  0  0  0  0  0  0  0999 V2000
   46.5650   33.6440   41.1180 C   0  0  0  0  0  0  0  0  0  0  0  0
   45.3790   33.2320   41.2460 O   0  0  0  0  0  0  0  0  0  0  0  0
   46.9880   34.4940   42.1710 N   0  0  0  0  0  0  0  0  0  0  0  0
   47.9200   34.9600   42.1550 H   0  0  0  0  0  0  0  0  0  0  0  0
   47.2820   33.7200   38.7030 C   0  0  0  0  0  3  0  0  0  0  0  0
   47.4460   33.2990   40.0070 C   0  0  0  0  0  0  0  0  0  0  0  0
   48.5340   32.4830   40.2740 C   0  0  0  0  0  0  0  0  0  0  0  0
   48.7930   32.0750   41.2450 H   0  0  0  0  0  0  0  0  0  0  0  0
   49.4270   32.1050   39.2720 C   0  0  0  0  0  0  0  0  0  0  0  0
   50.5380   31.3600   39.1780 N   0  0  0  0  0  0  0  0  0  0  0  0
   50.9850   31.3520   37.9110 C   0  0  0  0  0  0  0  0  0  0  0  0
   51.8550   30.8500   37.4930 H   0  0  0  0  0  0  0  0  0  0  0  0
   50.1690   32.1000   37.1290 N   0  0  0  0  0  0  0  0  0  0  0  0
   49.2270   32.5480   37.9800 C   0  0  0  0  0  0  0  0  0  0  0  0
   48.1490   33.3590   37.7010 C   0  0  0  0  0  3  0  0  0  0  0  0
   50.9790   30.8630   39.9900 H   0  0  0  0  0  0  0  0  0  0  0  0
   44.5550   36.1290   44.4530 C   0  0  0  0  0  0  0  0  0  0  0  0
   45.3480   35.8910   43.3110 C   0  0  0  0  0  0  0  0  0  0  0  0
   46.1760   34.7640   43.3050 C   0  0  0  0  0  0  0  0  0  0  0  0
   46.1940   33.9480   44.3760 N   0  0  0  0  0  0  0  0  0  0  0  0
   45.4110   34.2070   45.4720 C   0  0  0  0  0  0  0  0  0  0  0  0
   44.6120   35.2860   45.4880 N   0  0  0  0  0  0  0  0  0  0  0  0
   43.9030   36.9900   44.4910 H   0  0  0  0  0  0  0  0  0  0  0  0
   45.2930   36.5840   42.4750 H   0  0  0  0  0  0  0  0  0  0  0  0
   45.5050   33.4860   46.2710 H   0  0  0  0  0  0  0  0  0  0  0  0
  1  2  2  0  0  0  0
  1  3  1  0  0  0  0
  3 19  1  0  0  0  0
  4  3  1  0  0  0  0
  5  6  1  0  0  0  0
  6  7  2  0  0  0  0
  6  1  1  0  0  0  0
  7  8  1  0  0  0  0
  9  7  1  0  0  0  0
 10  9  1  0  0  0  0
 10 16  1  0  0  0  0
 11 10  1  0  0  0  0
 12 11  1  0  0  0  0
 13 11  2  0  0  0  0
 13 14  1  0  0  0  0
 14  9  2  0  0  0  0
 15 14  1  0  0  0  0
 15  5  2  0  0  0  0
 17 23  1  0  0  0  0
 17 22  1  0  0  0  0
 18 17  2  0  0  0  0
 19 18  1  0  0  0  0
 19 20  2  0  0  0  0
 20 21  1  0  0  0  0
 21 22  2  0  0  0  0
 21 25  1  0  0  0  0
 24 18  1  0  0  0  0
M  END
>  <minimizedAffinity>
-4.46867561

>  <minimizedRMSD>
0.966590881

$$$$
