
 OpenBabel03242519473D

 41 44  0  0  1  0  0  0  0  0999 V2000
   46.6640   32.8190   46.5980 C   0  0  2  0  0  0  0  0  0  0  0  0
   47.0670   32.7470   45.1800 C   0  0  1  0  0  0  0  0  0  0  0  0
   46.5770   31.4380   44.7370 O   0  0  0  0  0  0  0  0  0  0  0  0
   47.2310   30.6970   45.7500 C   0  0  0  0  0  0  0  0  0  0  0  0
   46.5880   31.3540   47.0010 C   0  0  2  0  0  0  0  0  0  0  0  0
   47.3530   33.3810   47.2520 H   0  0  0  0  0  0  0  0  0  0  0  0
   48.1450   32.6660   45.0030 H   0  0  0  0  0  0  0  0  0  0  0  0
   47.1370   29.6420   45.6970 H   0  0  0  0  0  0  0  0  0  0  0  0
   48.3080   31.0010   45.7060 H   0  0  0  0  0  0  0  0  0  0  0  0
   47.2450   31.0660   47.8510 H   0  0  0  0  0  0  0  0  0  0  0  0
   44.7280   35.2680   43.9570 C   0  0  0  0  0  0  0  0  0  0  0  0
   45.3590   35.7940   42.8310 C   0  0  0  0  0  0  0  0  0  0  0  0
   46.6190   35.2780   42.4650 C   0  0  0  0  0  0  0  0  0  0  0  0
   47.1740   34.2790   43.2300 N   0  0  0  0  0  0  0  0  0  0  0  0
   46.5290   33.7980   44.3140 C   0  0  0  0  0  0  0  0  0  0  0  0
   45.3140   34.2780   44.6870 N   0  0  0  0  0  0  0  0  0  0  0  0
   44.8940   36.5700   42.2640 H   0  0  0  0  0  0  0  0  0  0  0  0
   47.1380   35.6620   41.5960 H   0  0  0  0  0  0  0  0  0  0  0  0
   43.4760   35.7380   44.3720 O   0  0  0  0  0  0  0  0  0  0  0  0
   42.8980   36.1150   43.6230 H   0  0  0  0  0  0  0  0  0  0  0  0
   45.3400   33.3700   46.6890 O   0  0  0  0  0  0  0  0  0  0  0  0
   45.1300   33.3180   47.6550 H   0  0  0  0  0  0  0  0  0  0  0  0
   45.3010   30.9160   47.0680 O   0  0  0  0  0  0  0  0  0  0  0  0
   44.9840   30.0390   48.0740 C   0  0  0  0  0  0  0  0  0  0  0  0
   45.3250   30.4010   49.0380 H   0  0  0  0  0  0  0  0  0  0  0  0
   43.8140   30.2540   48.2170 H   0  0  0  0  0  0  0  0  0  0  0  0
   45.1140   28.6020   47.7770 C   0  0  0  0  0  0  0  0  0  0  0  0
   46.1530   28.2460   47.6340 H   0  0  0  0  0  0  0  0  0  0  0  0
   44.5910   28.0150   48.5730 H   0  0  0  0  0  0  0  0  0  0  0  0
   43.1490   28.5360   46.0570 C   0  0  0  0  0  3  0  0  0  0  0  0
   44.4290   28.2940   46.4940 C   0  0  0  0  0  0  0  0  0  0  0  0
   45.2060   27.6250   45.5340 C   0  0  0  0  0  0  0  0  0  0  0  0
   46.2370   27.3750   45.7590 H   0  0  0  0  0  0  0  0  0  0  0  0
   44.7800   27.2340   44.2840 C   0  0  0  0  0  0  0  0  0  0  0  0
   45.3810   26.5980   43.2640 N   0  0  0  0  0  0  0  0  0  0  0  0
   44.4870   26.4740   42.2720 C   0  0  0  0  0  0  0  0  0  0  0  0
   44.6310   26.0120   41.3010 H   0  0  0  0  0  0  0  0  0  0  0  0
   43.3160   27.0410   42.6790 N   0  0  0  0  0  0  0  0  0  0  0  0
   43.4860   27.5150   43.9250 C   0  0  0  0  0  0  0  0  0  0  0  0
   42.6720   28.1690   44.8210 C   0  0  0  0  0  3  0  0  0  0  0  0
   46.3570   26.2650   43.2510 H   0  0  0  0  0  0  0  0  0  0  0  0
  1 21  1  0  0  0  0
  1  5  1  0  0  0  0
  1  6  1  1  0  0  0
  2  7  1  6  0  0  0
  2  1  1  0  0  0  0
  3  2  1  0  0  0  0
  3  4  1  0  0  0  0
  4  5  1  0  0  0  0
  5 23  1  0  0  0  0
  5 10  1  1  0  0  0
  8  4  1  0  0  0  0
  9  4  1  0  0  0  0
 11 19  1  0  0  0  0
 11 16  1  0  0  0  0
 12 11  2  0  0  0  0
 13 12  1  0  0  0  0
 13 14  2  0  0  0  0
 14 15  1  0  0  0  0
 15 16  2  0  0  0  0
 15  2  1  0  0  0  0
 17 12  1  0  0  0  0
 18 13  1  0  0  0  0
 20 19  1  0  0  0  0
 21 22  1  0  0  0  0
 23 24  1  0  0  0  0
 24 26  1  0  0  0  0
 24 25  1  0  0  0  0
 27 24  1  0  0  0  0
 27 29  1  0  0  0  0
 28 27  1  0  0  0  0
 30 31  1  0  0  0  0
 31 27  1  0  0  0  0
 32 33  1  0  0  0  0
 32 31  2  0  0  0  0
 34 32  1  0  0  0  0
 35 34  1  0  0  0  0
 36 38  2  0  0  0  0
 36 35  1  0  0  0  0
 37 36  1  0  0  0  0
 38 39  1  0  0  0  0
 39 34  2  0  0  0  0
 39 40  1  0  0  0  0
 40 30  2  0  0  0  0
 41 35  1  0  0  0  0
M  END
>  <minimizedAffinity>
-5.15522051

>  <minimizedRMSD>
0.739383876

$$$$
