
 OpenBabel03242523353D

 40 44  0  0  0  0  0  0  0  0999 V2000
   40.7950   34.0090   39.6270 C   0  0  0  0  0  0  0  0  0  0  0  0
   41.3530   34.9450   39.5600 H   0  0  0  0  0  0  0  0  0  0  0  0
   40.9480   33.4430   38.6650 H   0  0  0  0  0  0  0  0  0  0  0  0
   43.1580   32.7640   42.2210 C   0  0  0  0  0  0  0  0  0  0  0  0
   42.4640   31.6300   42.6960 C   0  0  0  0  0  0  0  0  0  0  0  0
   41.2270   31.3340   42.1180 C   0  0  0  0  0  0  0  0  0  0  0  0
   40.7380   32.1290   41.1370 N   0  0  0  0  0  0  0  0  0  0  0  0
   41.4360   33.2150   40.7050 C   0  0  0  0  0  0  0  0  0  0  0  0
   42.6210   33.5170   41.2430 N   0  0  0  0  0  0  0  0  0  0  0  0
   44.1170   32.9870   42.6740 H   0  0  0  0  0  0  0  0  0  0  0  0
   42.8550   31.0090   43.4670 H   0  0  0  0  0  0  0  0  0  0  0  0
   41.0290   28.9610   42.6170 C   0  0  0  0  0  3  0  0  0  0  0  0
   40.4190   30.1920   42.5240 C   0  0  0  0  0  0  0  0  0  0  0  0
   39.0840   30.2480   42.8230 C   0  0  0  0  0  0  0  0  0  0  0  0
   38.5700   31.1960   42.7610 H   0  0  0  0  0  0  0  0  0  0  0  0
   38.3530   29.1420   43.2040 C   0  0  0  0  0  0  0  0  0  0  0  0
   37.0530   28.9420   43.5420 N   0  0  0  0  0  0  0  0  0  0  0  0
   36.9030   27.6170   43.8310 C   0  0  0  0  0  0  0  0  0  0  0  0
   35.9930   27.1010   44.1400 H   0  0  0  0  0  0  0  0  0  0  0  0
   38.0760   26.9620   43.6830 N   0  0  0  0  0  0  0  0  0  0  0  0
   38.9600   27.9070   43.2980 C   0  0  0  0  0  0  0  0  0  0  0  0
   40.2950   27.8620   42.9970 C   0  0  0  0  0  3  0  0  0  0  0  0
   36.3090   29.6700   43.5760 H   0  0  0  0  0  0  0  0  0  0  0  0
   39.0490   34.1830   40.0310 S   0  0  0  0  0  0  0  0  0  0  0  0
   38.1260   32.7700   39.4550 C   0  0  0  0  0  0  0  0  0  0  0  0
   38.2840   32.3980   38.1390 C   0  0  0  0  0  0  0  0  0  0  0  0
   37.5710   31.3140   37.6820 C   0  0  0  0  0  0  0  0  0  0  0  0
   36.7130   30.6010   38.5010 C   0  0  0  0  0  0  0  0  0  0  0  0
   36.0260   29.5450   38.0210 N   0  0  0  0  0  0  0  0  0  0  0  0
   35.1870   28.8490   38.8110 C   0  0  0  0  0  0  0  0  0  0  0  0
   35.0200   29.2030   40.1100 C   0  0  0  0  0  0  0  0  0  0  0  0
   35.7180   30.2750   40.5990 C   0  0  0  0  0  0  0  0  0  0  0  0
   36.6040   31.0330   39.8180 C   0  0  0  0  0  0  0  0  0  0  0  0
   37.2930   32.1080   40.3230 C   0  0  0  0  0  0  0  0  0  0  0  0
   38.9100   32.8570   37.3930 H   0  0  0  0  0  0  0  0  0  0  0  0
   37.6410   30.9570   36.6530 H   0  0  0  0  0  0  0  0  0  0  0  0
   34.6240   27.9960   38.4450 H   0  0  0  0  0  0  0  0  0  0  0  0
   34.3580   28.6700   40.7760 H   0  0  0  0  0  0  0  0  0  0  0  0
   35.6000   30.5790   41.6440 H   0  0  0  0  0  0  0  0  0  0  0  0
   37.1730   32.4030   41.3540 H   0  0  0  0  0  0  0  0  0  0  0  0
  1 24  1  0  0  0  0
  1  8  1  0  0  0  0
  2  1  1  0  0  0  0
  3  1  1  0  0  0  0
  4 10  1  0  0  0  0
  4  5  1  0  0  0  0
  5 11  1  0  0  0  0
  6 13  1  0  0  0  0
  6  5  2  0  0  0  0
  7  6  1  0  0  0  0
  8  7  2  0  0  0  0
  8  9  1  0  0  0  0
  9  4  2  0  0  0  0
 12 22  1  0  0  0  0
 13 12  2  0  0  0  0
 13 14  1  0  0  0  0
 14 16  2  0  0  0  0
 15 14  1  0  0  0  0
 16 21  1  0  0  0  0
 16 17  1  0  0  0  0
 17 23  1  0  0  0  0
 17 18  1  0  0  0  0
 18 19  1  0  0  0  0
 20 18  2  0  0  0  0
 21 20  1  0  0  0  0
 22 21  2  0  0  0  0
 25 24  1  0  0  0  0
 25 34  1  0  0  0  0
 26 25  2  0  0  0  0
 27 26  1  0  0  0  0
 27 28  2  0  0  0  0
 28 33  1  0  0  0  0
 29 28  1  0  0  0  0
 29 30  2  0  0  0  0
 30 31  1  0  0  0  0
 31 32  2  0  0  0  0
 31 38  1  0  0  0  0
 32 39  1  0  0  0  0
 33 34  2  0  0  0  0
 33 32  1  0  0  0  0
 34 40  1  0  0  0  0
 35 26  1  0  0  0  0
 36 27  1  0  0  0  0
 37 30  1  0  0  0  0
M  END
>  <minimizedAffinity>
-6.94886923

$$$$

 OpenBabel03242523353D

 40 44  0  0  0  0  0  0  0  0999 V2000
   36.9870   31.0490   39.3870 C   0  0  0  0  0  0  0  0  0  0  0  0
   36.2590   31.4360   38.6730 H   0  0  0  0  0  0  0  0  0  0  0  0
   37.4720   30.1400   38.9320 H   0  0  0  0  0  0  0  0  0  0  0  0
   38.8780   34.1250   40.2950 C   0  0  0  0  0  0  0  0  0  0  0  0
   40.1100   33.8860   39.6470 C   0  0  0  0  0  0  0  0  0  0  0  0
   40.2470   32.6960   38.9300 C   0  0  0  0  0  0  0  0  0  0  0  0
   39.2150   31.8210   38.8780 N   0  0  0  0  0  0  0  0  0  0  0  0
   38.0430   32.0850   39.5160 C   0  0  0  0  0  0  0  0  0  0  0  0
   37.8890   33.2170   40.2080 N   0  0  0  0  0  0  0  0  0  0  0  0
   38.7790   35.0510   40.8500 H   0  0  0  0  0  0  0  0  0  0  0  0
   40.9170   34.5790   39.6920 H   0  0  0  0  0  0  0  0  0  0  0  0
   42.6150   33.0510   38.4920 C   0  0  0  0  0  3  0  0  0  0  0  0
   41.4690   32.3380   38.2190 C   0  0  0  0  0  0  0  0  0  0  0  0
   41.5660   31.3380   37.2900 C   0  0  0  0  0  0  0  0  0  0  0  0
   40.6880   30.7570   37.0490 H   0  0  0  0  0  0  0  0  0  0  0  0
   42.7420   31.0300   36.6380 C   0  0  0  0  0  0  0  0  0  0  0  0
   43.0870   30.1100   35.7010 N   0  0  0  0  0  0  0  0  0  0  0  0
   44.4140   30.2790   35.4290 C   0  0  0  0  0  0  0  0  0  0  0  0
   45.0280   29.7140   34.7270 H   0  0  0  0  0  0  0  0  0  0  0  0
   44.9270   31.2870   36.1700 N   0  0  0  0  0  0  0  0  0  0  0  0
   43.8920   31.7410   36.9090 C   0  0  0  0  0  0  0  0  0  0  0  0
   43.7840   32.7400   37.8390 C   0  0  0  0  0  3  0  0  0  0  0  0
   42.4530   29.4040   35.2710 H   0  0  0  0  0  0  0  0  0  0  0  0
   36.3420   30.7090   41.0330 S   0  0  0  0  0  0  0  0  0  0  0  0
   37.2920   29.4280   41.8310 C   0  0  0  0  0  0  0  0  0  0  0  0
   36.6230   28.2920   42.2290 C   0  0  0  0  0  0  0  0  0  0  0  0
   37.3450   27.3000   42.8520 C   0  0  0  0  0  0  0  0  0  0  0  0
   38.7040   27.4150   43.0830 C   0  0  0  0  0  0  0  0  0  0  0  0
   39.3810   26.4250   43.6990 N   0  0  0  0  0  0  0  0  0  0  0  0
   40.7030   26.5320   43.9310 C   0  0  0  0  0  0  0  0  0  0  0  0
   41.3760   27.6450   43.5450 C   0  0  0  0  0  0  0  0  0  0  0  0
   40.6900   28.6500   42.9180 C   0  0  0  0  0  0  0  0  0  0  0  0
   39.3130   28.5880   42.6530 C   0  0  0  0  0  0  0  0  0  0  0  0
   38.6390   29.6080   42.0270 C   0  0  0  0  0  0  0  0  0  0  0  0
   35.5760   28.0680   42.1160 H   0  0  0  0  0  0  0  0  0  0  0  0
   36.8870   26.3710   43.1960 H   0  0  0  0  0  0  0  0  0  0  0  0
   41.2680   25.7480   44.4260 H   0  0  0  0  0  0  0  0  0  0  0  0
   42.4360   27.7680   43.7120 H   0  0  0  0  0  0  0  0  0  0  0  0
   41.2120   29.5570   42.5970 H   0  0  0  0  0  0  0  0  0  0  0  0
   39.1590   30.5000   41.7130 H   0  0  0  0  0  0  0  0  0  0  0  0
  1  8  1  0  0  0  0
  1 24  1  0  0  0  0
  2  1  1  0  0  0  0
  3  1  1  0  0  0  0
  4 10  1  0  0  0  0
  5 11  1  0  0  0  0
  5  4  2  0  0  0  0
  6  5  1  0  0  0  0
  7  6  2  0  0  0  0
  7  8  1  0  0  0  0
  8  9  2  0  0  0  0
  9  4  1  0  0  0  0
 13 12  1  0  0  0  0
 13  6  1  0  0  0  0
 14 13  2  0  0  0  0
 15 14  1  0  0  0  0
 16 21  2  0  0  0  0
 16 14  1  0  0  0  0
 17 16  1  0  0  0  0
 18 17  1  0  0  0  0
 18 20  2  0  0  0  0
 19 18  1  0  0  0  0
 20 21  1  0  0  0  0
 21 22  1  0  0  0  0
 22 12  2  0  0  0  0
 23 17  1  0  0  0  0
 24 25  1  0  0  0  0
 25 34  2  0  0  0  0
 25 26  1  0  0  0  0
 26 27  2  0  0  0  0
 27 28  1  0  0  0  0
 27 36  1  0  0  0  0
 28 29  1  0  0  0  0
 29 30  2  0  0  0  0
 30 37  1  0  0  0  0
 31 38  1  0  0  0  0
 31 30  1  0  0  0  0
 32 31  2  0  0  0  0
 33 32  1  0  0  0  0
 33 28  2  0  0  0  0
 34 33  1  0  0  0  0
 35 26  1  0  0  0  0
 39 32  1  0  0  0  0
 40 34  1  0  0  0  0
M  END
>  <minimizedAffinity>
-6.58256578

$$$$

 OpenBabel03242523353D

 40 44  0  0  0  0  0  0  0  0999 V2000
   41.5820   32.2290   40.7360 C   0  0  0  0  0  0  0  0  0  0  0  0
   41.8500   31.5970   39.8880 H   0  0  0  0  0  0  0  0  0  0  0  0
   42.2910   33.1040   40.7550 H   0  0  0  0  0  0  0  0  0  0  0  0
   38.6810   34.5090   40.2440 C   0  0  0  0  0  0  0  0  0  0  0  0
   37.6750   33.5900   39.8710 C   0  0  0  0  0  0  0  0  0  0  0  0
   38.0220   32.2390   39.8030 C   0  0  0  0  0  0  0  0  0  0  0  0
   39.2880   31.8560   40.0910 N   0  0  0  0  0  0  0  0  0  0  0  0
   40.2310   32.7700   40.4470 C   0  0  0  0  0  0  0  0  0  0  0  0
   39.9220   34.0680   40.5180 N   0  0  0  0  0  0  0  0  0  0  0  0
   38.4050   35.5560   40.2950 H   0  0  0  0  0  0  0  0  0  0  0  0
   36.6810   33.8990   39.6470 H   0  0  0  0  0  0  0  0  0  0  0  0
   36.3270   30.6080   40.4280 C   0  0  0  0  0  3  0  0  0  0  0  0
   37.0720   31.1990   39.4310 C   0  0  0  0  0  0  0  0  0  0  0  0
   36.8610   30.7560   38.1530 C   0  0  0  0  0  0  0  0  0  0  0  0
   37.4270   31.1950   37.3440 H   0  0  0  0  0  0  0  0  0  0  0  0
   35.9510   29.7680   37.8410 C   0  0  0  0  0  0  0  0  0  0  0  0
   35.5690   29.1700   36.6830 N   0  0  0  0  0  0  0  0  0  0  0  0
   34.6140   28.2450   36.9940 C   0  0  0  0  0  0  0  0  0  0  0  0
   34.0830   27.5800   36.3130 H   0  0  0  0  0  0  0  0  0  0  0  0
   34.3770   28.2360   38.3240 N   0  0  0  0  0  0  0  0  0  0  0  0
   35.2030   29.1740   38.8360 C   0  0  0  0  0  0  0  0  0  0  0  0
   35.4220   29.6230   40.1110 C   0  0  0  0  0  3  0  0  0  0  0  0
   35.9370   29.3810   35.7320 H   0  0  0  0  0  0  0  0  0  0  0  0
   41.5140   31.3900   42.3270 S   0  0  0  0  0  0  0  0  0  0  0  0
   40.5050   29.9220   42.2230 C   0  0  0  0  0  0  0  0  0  0  0  0
   40.9640   28.8880   41.4380 C   0  0  0  0  0  0  0  0  0  0  0  0
   40.1900   27.7540   41.3440 C   0  0  0  0  0  0  0  0  0  0  0  0
   38.9830   27.6310   42.0100 C   0  0  0  0  0  0  0  0  0  0  0  0
   38.2470   26.5070   41.8940 N   0  0  0  0  0  0  0  0  0  0  0  0
   37.0700   26.3820   42.5350 C   0  0  0  0  0  0  0  0  0  0  0  0
   36.6050   27.3930   43.3120 C   0  0  0  0  0  0  0  0  0  0  0  0
   37.3520   28.5340   43.4310 C   0  0  0  0  0  0  0  0  0  0  0  0
   38.5840   28.7140   42.7840 C   0  0  0  0  0  0  0  0  0  0  0  0
   39.3180   29.8680   42.9110 C   0  0  0  0  0  0  0  0  0  0  0  0
   41.8750   28.8450   40.8670 H   0  0  0  0  0  0  0  0  0  0  0  0
   40.4840   26.8920   40.7430 H   0  0  0  0  0  0  0  0  0  0  0  0
   36.4620   25.4870   42.4550 H   0  0  0  0  0  0  0  0  0  0  0  0
   35.6670   27.3310   43.8420 H   0  0  0  0  0  0  0  0  0  0  0  0
   36.9970   29.3620   44.0520 H   0  0  0  0  0  0  0  0  0  0  0  0
   38.9630   30.6810   43.5250 H   0  0  0  0  0  0  0  0  0  0  0  0
  1  3  1  0  0  0  0
  1 24  1  0  0  0  0
  2  1  1  0  0  0  0
  4 10  1  0  0  0  0
  4  9  1  0  0  0  0
  5  4  2  0  0  0  0
  6  5  1  0  0  0  0
  6  7  2  0  0  0  0
  7  8  1  0  0  0  0
  8  9  2  0  0  0  0
  8  1  1  0  0  0  0
 11  5  1  0  0  0  0
 13  6  1  0  0  0  0
 13 12  2  0  0  0  0
 14 13  1  0  0  0  0
 15 14  1  0  0  0  0
 16 14  2  0  0  0  0
 16 21  1  0  0  0  0
 17 18  1  0  0  0  0
 17 16  1  0  0  0  0
 18 20  2  0  0  0  0
 19 18  1  0  0  0  0
 20 21  1  0  0  0  0
 21 22  2  0  0  0  0
 22 12  1  0  0  0  0
 23 17  1  0  0  0  0
 25 24  1  0  0  0  0
 25 34  1  0  0  0  0
 26 25  2  0  0  0  0
 27 26  1  0  0  0  0
 27 28  2  0  0  0  0
 28 33  1  0  0  0  0
 29 28  1  0  0  0  0
 29 30  2  0  0  0  0
 30 31  1  0  0  0  0
 31 32  2  0  0  0  0
 31 38  1  0  0  0  0
 32 39  1  0  0  0  0
 33 34  2  0  0  0  0
 33 32  1  0  0  0  0
 34 40  1  0  0  0  0
 35 26  1  0  0  0  0
 36 27  1  0  0  0  0
 37 30  1  0  0  0  0
M  END
>  <minimizedAffinity>
-6.54939699

$$$$

 OpenBabel03242523353D

 40 44  0  0  0  0  0  0  0  0999 V2000
   40.7170   34.0110   39.6280 C   0  0  0  0  0  0  0  0  0  0  0  0
   41.2320   34.9620   39.4810 H   0  0  0  0  0  0  0  0  0  0  0  0
   40.8360   33.4020   38.6890 H   0  0  0  0  0  0  0  0  0  0  0  0
   43.2110   33.0580   42.2230 C   0  0  0  0  0  0  0  0  0  0  0  0
   42.6640   31.8440   42.6900 C   0  0  0  0  0  0  0  0  0  0  0  0
   41.4750   31.3990   42.1070 C   0  0  0  0  0  0  0  0  0  0  0  0
   40.8930   32.1310   41.1290 N   0  0  0  0  0  0  0  0  0  0  0  0
   41.4500   33.2980   40.7040 C   0  0  0  0  0  0  0  0  0  0  0  0
   42.5860   33.7430   41.2470 N   0  0  0  0  0  0  0  0  0  0  0  0
   44.1330   33.3980   42.6800 H   0  0  0  0  0  0  0  0  0  0  0  0
   43.1280   31.2730   43.4600 H   0  0  0  0  0  0  0  0  0  0  0  0
   39.4430   30.1560   42.6030 C   0  0  0  0  0  3  0  0  0  0  0  0
   40.8160   30.1610   42.5050 C   0  0  0  0  0  0  0  0  0  0  0  0
   41.4640   28.9900   42.7930 C   0  0  0  0  0  0  0  0  0  0  0  0
   42.5420   28.9550   42.7270 H   0  0  0  0  0  0  0  0  0  0  0  0
   40.8030   27.8380   43.1670 C   0  0  0  0  0  0  0  0  0  0  0  0
   41.2070   26.5850   43.4960 N   0  0  0  0  0  0  0  0  0  0  0  0
   40.0900   25.8550   43.7810 C   0  0  0  0  0  0  0  0  0  0  0  0
   40.0360   24.8080   44.0820 H   0  0  0  0  0  0  0  0  0  0  0  0
   38.9790   26.6120   43.6440 N   0  0  0  0  0  0  0  0  0  0  0  0
   39.4280   27.8290   43.2660 C   0  0  0  0  0  0  0  0  0  0  0  0
   38.7900   29.0050   42.9760 C   0  0  0  0  0  3  0  0  0  0  0  0
   42.1920   26.2440   43.5240 H   0  0  0  0  0  0  0  0  0  0  0  0
   38.9920   34.1430   40.1270 S   0  0  0  0  0  0  0  0  0  0  0  0
   38.0640   32.7260   39.5660 C   0  0  0  0  0  0  0  0  0  0  0  0
   38.1570   32.3900   38.2330 C   0  0  0  0  0  0  0  0  0  0  0  0
   37.4400   31.3040   37.7880 C   0  0  0  0  0  0  0  0  0  0  0  0
   36.6410   30.5540   38.6340 C   0  0  0  0  0  0  0  0  0  0  0  0
   35.9480   29.4970   38.1650 N   0  0  0  0  0  0  0  0  0  0  0  0
   35.1670   28.7650   38.9810 C   0  0  0  0  0  0  0  0  0  0  0  0
   35.0650   29.0840   40.2960 C   0  0  0  0  0  0  0  0  0  0  0  0
   35.7690   30.1570   40.7740 C   0  0  0  0  0  0  0  0  0  0  0  0
   36.5970   30.9510   39.9660 C   0  0  0  0  0  0  0  0  0  0  0  0
   37.2930   32.0270   40.4600 C   0  0  0  0  0  0  0  0  0  0  0  0
   38.7330   32.8800   37.4670 H   0  0  0  0  0  0  0  0  0  0  0  0
   37.4610   30.9740   36.7490 H   0  0  0  0  0  0  0  0  0  0  0  0
   34.6000   27.9110   38.6250 H   0  0  0  0  0  0  0  0  0  0  0  0
   34.4500   28.5220   40.9830 H   0  0  0  0  0  0  0  0  0  0  0  0
   35.7030   30.4330   41.8310 H   0  0  0  0  0  0  0  0  0  0  0  0
   37.2240   32.2940   41.5040 H   0  0  0  0  0  0  0  0  0  0  0  0
  1 24  1  0  0  0  0
  1  8  1  0  0  0  0
  2  1  1  0  0  0  0
  3  1  1  0  0  0  0
  4 10  1  0  0  0  0
  4  5  1  0  0  0  0
  5 11  1  0  0  0  0
  6 13  1  0  0  0  0
  6  5  2  0  0  0  0
  7  6  1  0  0  0  0
  8  7  2  0  0  0  0
  8  9  1  0  0  0  0
  9  4  2  0  0  0  0
 12 22  1  0  0  0  0
 13 12  2  0  0  0  0
 13 14  1  0  0  0  0
 14 16  2  0  0  0  0
 15 14  1  0  0  0  0
 16 21  1  0  0  0  0
 16 17  1  0  0  0  0
 17 23  1  0  0  0  0
 17 18  1  0  0  0  0
 18 19  1  0  0  0  0
 20 18  2  0  0  0  0
 21 20  1  0  0  0  0
 22 21  2  0  0  0  0
 25 24  1  0  0  0  0
 25 34  1  0  0  0  0
 26 25  2  0  0  0  0
 27 26  1  0  0  0  0
 27 28  2  0  0  0  0
 28 33  1  0  0  0  0
 29 28  1  0  0  0  0
 29 30  2  0  0  0  0
 30 31  1  0  0  0  0
 31 32  2  0  0  0  0
 31 38  1  0  0  0  0
 32 39  1  0  0  0  0
 33 34  2  0  0  0  0
 33 32  1  0  0  0  0
 34 40  1  0  0  0  0
 35 26  1  0  0  0  0
 36 27  1  0  0  0  0
 37 30  1  0  0  0  0
M  END
>  <minimizedAffinity>
-6.54803133

$$$$

 OpenBabel03242523353D

 40 44  0  0  0  0  0  0  0  0999 V2000
   36.1640   24.9620   37.5370 C   0  0  0  0  0  0  0  0  0  0  0  0
   35.9330   24.4150   36.6210 H   0  0  0  0  0  0  0  0  0  0  0  0
   37.2440   25.2770   37.4920 H   0  0  0  0  0  0  0  0  0  0  0  0
   33.4470   27.4310   36.9200 C   0  0  0  0  0  0  0  0  0  0  0  0
   33.9810   28.5810   37.5420 C   0  0  0  0  0  0  0  0  0  0  0  0
   35.2370   28.4720   38.1420 C   0  0  0  0  0  0  0  0  0  0  0  0
   35.8950   27.2890   38.1110 N   0  0  0  0  0  0  0  0  0  0  0  0
   35.3480   26.2020   37.5020 C   0  0  0  0  0  0  0  0  0  0  0  0
   34.1480   26.2830   36.9220 N   0  0  0  0  0  0  0  0  0  0  0  0
   32.4710   27.5230   36.4560 H   0  0  0  0  0  0  0  0  0  0  0  0
   33.4580   29.5090   37.5610 H   0  0  0  0  0  0  0  0  0  0  0  0
   35.6760   29.7540   40.1630 C   0  0  0  0  0  3  0  0  0  0  0  0
   35.8900   29.5890   38.8130 C   0  0  0  0  0  0  0  0  0  0  0  0
   36.7100   30.4970   38.1970 C   0  0  0  0  0  0  0  0  0  0  0  0
   36.9010   30.4000   37.1390 H   0  0  0  0  0  0  0  0  0  0  0  0
   37.3110   31.5410   38.8690 C   0  0  0  0  0  0  0  0  0  0  0  0
   38.1420   32.5480   38.4950 N   0  0  0  0  0  0  0  0  0  0  0  0
   38.4120   33.2920   39.6070 C   0  0  0  0  0  0  0  0  0  0  0  0
   39.0450   34.1770   39.6790 H   0  0  0  0  0  0  0  0  0  0  0  0
   37.7730   32.7850   40.6840 N   0  0  0  0  0  0  0  0  0  0  0  0
   37.0990   31.7100   40.2210 C   0  0  0  0  0  0  0  0  0  0  0  0
   36.2780   30.7980   40.8260 C   0  0  0  0  0  3  0  0  0  0  0  0
   38.5060   32.7190   37.5340 H   0  0  0  0  0  0  0  0  0  0  0  0
   35.7840   24.0920   39.0670 S   0  0  0  0  0  0  0  0  0  0  0  0
   36.9390   24.5400   40.3500 C   0  0  0  0  0  0  0  0  0  0  0  0
   37.8660   23.5950   40.7310 C   0  0  0  0  0  0  0  0  0  0  0  0
   38.7570   23.9280   41.7260 C   0  0  0  0  0  0  0  0  0  0  0  0
   38.7440   25.1670   42.3400 C   0  0  0  0  0  0  0  0  0  0  0  0
   39.6300   25.4600   43.3140 N   0  0  0  0  0  0  0  0  0  0  0  0
   39.6200   26.6620   43.9190 C   0  0  0  0  0  0  0  0  0  0  0  0
   38.7130   27.6030   43.5540 C   0  0  0  0  0  0  0  0  0  0  0  0
   37.8140   27.3080   42.5640 C   0  0  0  0  0  0  0  0  0  0  0  0
   37.7820   26.0700   41.9030 C   0  0  0  0  0  0  0  0  0  0  0  0
   36.8700   25.7890   40.9150 C   0  0  0  0  0  0  0  0  0  0  0  0
   37.9910   22.5980   40.3450 H   0  0  0  0  0  0  0  0  0  0  0  0
   39.5210   23.2350   42.0830 H   0  0  0  0  0  0  0  0  0  0  0  0
   40.3230   26.9190   44.7050 H   0  0  0  0  0  0  0  0  0  0  0  0
   38.6740   28.5790   44.0140 H   0  0  0  0  0  0  0  0  0  0  0  0
   37.0730   28.0510   42.2530 H   0  0  0  0  0  0  0  0  0  0  0  0
   36.1420   26.5260   40.6120 H   0  0  0  0  0  0  0  0  0  0  0  0
  1 24  1  0  0  0  0
  2  1  1  0  0  0  0
  3  1  1  0  0  0  0
  4  9  2  0  0  0  0
  4  5  1  0  0  0  0
  5 11  1  0  0  0  0
  5  6  2  0  0  0  0
  6 13  1  0  0  0  0
  7  6  1  0  0  0  0
  8  1  1  0  0  0  0
  8  7  2  0  0  0  0
  9  8  1  0  0  0  0
 10  4  1  0  0  0  0
 12 22  1  0  0  0  0
 13 12  2  0  0  0  0
 14 13  1  0  0  0  0
 14 16  2  0  0  0  0
 15 14  1  0  0  0  0
 16 21  1  0  0  0  0
 17 16  1  0  0  0  0
 17 18  1  0  0  0  0
 18 19  1  0  0  0  0
 18 20  2  0  0  0  0
 21 20  1  0  0  0  0
 21 22  2  0  0  0  0
 23 17  1  0  0  0  0
 24 25  1  0  0  0  0
 25 26  2  0  0  0  0
 25 34  1  0  0  0  0
 26 27  1  0  0  0  0
 27 36  1  0  0  0  0
 27 28  2  0  0  0  0
 28 29  1  0  0  0  0
 29 30  2  0  0  0  0
 30 37  1  0  0  0  0
 31 30  1  0  0  0  0
 31 38  1  0  0  0  0
 32 31  2  0  0  0  0
 33 28  1  0  0  0  0
 33 32  1  0  0  0  0
 34 33  2  0  0  0  0
 35 26  1  0  0  0  0
 39 32  1  0  0  0  0
 40 34  1  0  0  0  0
M  END
>  <minimizedAffinity>
-6.42340469

$$$$

 OpenBabel03242523353D

 40 44  0  0  0  0  0  0  0  0999 V2000
   38.0600   26.3960   42.8160 C   0  0  0  0  0  0  0  0  0  0  0  0
   38.1360   25.6180   43.5780 H   0  0  0  0  0  0  0  0  0  0  0  0
   39.1030   26.6620   42.4840 H   0  0  0  0  0  0  0  0  0  0  0  0
   36.3610   23.9930   40.5360 C   0  0  0  0  0  0  0  0  0  0  0  0
   36.1230   24.8110   39.4100 C   0  0  0  0  0  0  0  0  0  0  0  0
   36.5470   26.1400   39.4700 C   0  0  0  0  0  0  0  0  0  0  0  0
   37.1640   26.5970   40.5850 N   0  0  0  0  0  0  0  0  0  0  0  0
   37.3770   25.7790   41.6520 C   0  0  0  0  0  0  0  0  0  0  0  0
   36.9790   24.5040   41.6170 N   0  0  0  0  0  0  0  0  0  0  0  0
   36.0280   22.9620   40.4830 H   0  0  0  0  0  0  0  0  0  0  0  0
   35.6380   24.4440   38.5370 H   0  0  0  0  0  0  0  0  0  0  0  0
   35.7370   28.2790   38.6400 C   0  0  0  0  0  3  0  0  0  0  0  0
   36.3580   27.0790   38.3730 C   0  0  0  0  0  0  0  0  0  0  0  0
   36.7530   26.8580   37.0800 C   0  0  0  0  0  0  0  0  0  0  0  0
   37.2430   25.9290   36.8320 H   0  0  0  0  0  0  0  0  0  0  0  0
   36.5550   27.7740   36.0680 C   0  0  0  0  0  0  0  0  0  0  0  0
   36.8460   27.7910   34.7420 N   0  0  0  0  0  0  0  0  0  0  0  0
   36.4060   28.9810   34.2390 C   0  0  0  0  0  0  0  0  0  0  0  0
   36.4730   29.3360   33.2110 H   0  0  0  0  0  0  0  0  0  0  0  0
   35.8370   29.7260   35.2120 N   0  0  0  0  0  0  0  0  0  0  0  0
   35.9340   28.9770   36.3320 C   0  0  0  0  0  0  0  0  0  0  0  0
   35.5430   29.1870   37.6270 C   0  0  0  0  0  3  0  0  0  0  0  0
   37.3210   27.0320   34.2080 H   0  0  0  0  0  0  0  0  0  0  0  0
   37.1200   27.8540   43.3000 S   0  0  0  0  0  0  0  0  0  0  0  0
   37.7710   29.3140   42.5090 C   0  0  0  0  0  0  0  0  0  0  0  0
   39.0360   29.7240   42.8690 C   0  0  0  0  0  0  0  0  0  0  0  0
   39.5450   30.8540   42.2710 C   0  0  0  0  0  0  0  0  0  0  0  0
   38.8280   31.5740   41.3320 C   0  0  0  0  0  0  0  0  0  0  0  0
   39.3550   32.6790   40.7660 N   0  0  0  0  0  0  0  0  0  0  0  0
   38.6630   33.3870   39.8550 C   0  0  0  0  0  0  0  0  0  0  0  0
   37.4160   32.9950   39.4900 C   0  0  0  0  0  0  0  0  0  0  0  0
   36.8800   31.8730   40.0620 C   0  0  0  0  0  0  0  0  0  0  0  0
   37.5600   31.1010   41.0170 C   0  0  0  0  0  0  0  0  0  0  0  0
   37.0060   29.9800   41.5850 C   0  0  0  0  0  0  0  0  0  0  0  0
   39.7010   29.2670   43.5810 H   0  0  0  0  0  0  0  0  0  0  0  0
   40.5380   31.2420   42.5020 H   0  0  0  0  0  0  0  0  0  0  0  0
   39.0670   34.2790   39.3880 H   0  0  0  0  0  0  0  0  0  0  0  0
   36.8290   33.5350   38.7620 H   0  0  0  0  0  0  0  0  0  0  0  0
   35.8760   31.5380   39.7830 H   0  0  0  0  0  0  0  0  0  0  0  0
   36.0150   29.6540   41.3050 H   0  0  0  0  0  0  0  0  0  0  0  0
  1 24  1  0  0  0  0
  1  2  1  0  0  0  0
  3  1  1  0  0  0  0
  4  9  1  0  0  0  0
  5  6  1  0  0  0  0
  5  4  2  0  0  0  0
  6  7  2  0  0  0  0
  7  8  1  0  0  0  0
  8  1  1  0  0  0  0
  9  8  2  0  0  0  0
 10  4  1  0  0  0  0
 11  5  1  0  0  0  0
 13 12  1  0  0  0  0
 13  6  1  0  0  0  0
 14 13  2  0  0  0  0
 15 14  1  0  0  0  0
 16 21  2  0  0  0  0
 16 14  1  0  0  0  0
 17 16  1  0  0  0  0
 18 17  1  0  0  0  0
 18 20  2  0  0  0  0
 19 18  1  0  0  0  0
 20 21  1  0  0  0  0
 21 22  1  0  0  0  0
 22 12  2  0  0  0  0
 23 17  1  0  0  0  0
 25 26  1  0  0  0  0
 25 24  1  0  0  0  0
 26 35  1  0  0  0  0
 27 36  1  0  0  0  0
 27 26  2  0  0  0  0
 28 27  1  0  0  0  0
 29 28  2  0  0  0  0
 30 29  1  0  0  0  0
 31 30  2  0  0  0  0
 31 32  1  0  0  0  0
 32 33  2  0  0  0  0
 33 28  1  0  0  0  0
 33 34  1  0  0  0  0
 34 25  2  0  0  0  0
 37 30  1  0  0  0  0
 38 31  1  0  0  0  0
 39 32  1  0  0  0  0
 40 34  1  0  0  0  0
M  END
>  <minimizedAffinity>
-6.35976648

$$$$

 OpenBabel03242523353D

 40 44  0  0  0  0  0  0  0  0999 V2000
   38.9230   30.2120   41.3590 C   0  0  0  0  0  0  0  0  0  0  0  0
   39.5810   30.6900   42.0860 H   0  0  0  0  0  0  0  0  0  0  0  0
   39.5680   29.7300   40.5700 H   0  0  0  0  0  0  0  0  0  0  0  0
   37.1460   28.2000   43.9380 C   0  0  0  0  0  0  0  0  0  0  0  0
   36.9520   26.9850   43.2460 C   0  0  0  0  0  0  0  0  0  0  0  0
   37.4330   26.8970   41.9380 C   0  0  0  0  0  0  0  0  0  0  0  0
   38.0580   27.9610   41.3800 N   0  0  0  0  0  0  0  0  0  0  0  0
   38.2260   29.1170   42.0780 C   0  0  0  0  0  0  0  0  0  0  0  0
   37.7740   29.2240   43.3310 N   0  0  0  0  0  0  0  0  0  0  0  0
   36.7700   28.2620   44.9530 H   0  0  0  0  0  0  0  0  0  0  0  0
   36.4600   26.1520   43.6920 H   0  0  0  0  0  0  0  0  0  0  0  0
   36.6100   25.7900   39.9330 C   0  0  0  0  0  3  0  0  0  0  0  0
   37.2930   25.6960   41.1240 C   0  0  0  0  0  0  0  0  0  0  0  0
   37.7940   24.4660   41.4580 C   0  0  0  0  0  0  0  0  0  0  0  0
   38.3360   24.3530   42.3850 H   0  0  0  0  0  0  0  0  0  0  0  0
   37.6410   23.3510   40.6600 C   0  0  0  0  0  0  0  0  0  0  0  0
   38.0320   22.0560   40.7660 N   0  0  0  0  0  0  0  0  0  0  0  0
   37.5880   21.4000   39.6540 C   0  0  0  0  0  0  0  0  0  0  0  0
   37.7210   20.3480   39.4030 H   0  0  0  0  0  0  0  0  0  0  0  0
   36.9190   22.2460   38.8390 N   0  0  0  0  0  0  0  0  0  0  0  0
   36.9580   23.4420   39.4650 C   0  0  0  0  0  0  0  0  0  0  0  0
   36.4600   24.6760   39.1420 C   0  0  0  0  0  3  0  0  0  0  0  0
   38.5750   21.6400   41.5520 H   0  0  0  0  0  0  0  0  0  0  0  0
   37.6720   31.2850   40.6350 S   0  0  0  0  0  0  0  0  0  0  0  0
   36.9600   30.5320   39.1830 C   0  0  0  0  0  0  0  0  0  0  0  0
   37.5950   30.7420   37.9790 C   0  0  0  0  0  0  0  0  0  0  0  0
   37.0510   30.1720   36.8510 C   0  0  0  0  0  0  0  0  0  0  0  0
   35.9000   29.4060   36.8980 C   0  0  0  0  0  0  0  0  0  0  0  0
   35.3900   28.8640   35.7730 N   0  0  0  0  0  0  0  0  0  0  0  0
   34.2680   28.1210   35.8110 C   0  0  0  0  0  0  0  0  0  0  0  0
   33.6310   27.9050   36.9890 C   0  0  0  0  0  0  0  0  0  0  0  0
   34.1480   28.4530   38.1320 C   0  0  0  0  0  0  0  0  0  0  0  0
   35.3130   29.2360   38.1470 C   0  0  0  0  0  0  0  0  0  0  0  0
   35.8160   29.7820   39.3020 C   0  0  0  0  0  0  0  0  0  0  0  0
   38.4890   31.3120   37.7940 H   0  0  0  0  0  0  0  0  0  0  0  0
   37.4950   30.2920   35.8620 H   0  0  0  0  0  0  0  0  0  0  0  0
   33.8410   27.6760   34.9180 H   0  0  0  0  0  0  0  0  0  0  0  0
   32.7300   27.3140   37.0610 H   0  0  0  0  0  0  0  0  0  0  0  0
   33.6520   28.2930   39.0940 H   0  0  0  0  0  0  0  0  0  0  0  0
   35.3220   29.6200   40.2480 H   0  0  0  0  0  0  0  0  0  0  0  0
  1  8  1  0  0  0  0
  1  2  1  0  0  0  0
  3  1  1  0  0  0  0
  4 10  1  0  0  0  0
  5 11  1  0  0  0  0
  5  4  2  0  0  0  0
  6  5  1  0  0  0  0
  7  6  2  0  0  0  0
  7  8  1  0  0  0  0
  8  9  2  0  0  0  0
  9  4  1  0  0  0  0
 12 13  1  0  0  0  0
 13 14  2  0  0  0  0
 13  6  1  0  0  0  0
 14 15  1  0  0  0  0
 16 17  1  0  0  0  0
 16 14  1  0  0  0  0
 17 23  1  0  0  0  0
 18 17  1  0  0  0  0
 19 18  1  0  0  0  0
 20 21  1  0  0  0  0
 20 18  2  0  0  0  0
 21 16  2  0  0  0  0
 22 21  1  0  0  0  0
 22 12  2  0  0  0  0
 24  1  1  0  0  0  0
 25 34  1  0  0  0  0
 25 24  1  0  0  0  0
 26 25  2  0  0  0  0
 27 28  2  0  0  0  0
 27 26  1  0  0  0  0
 28 33  1  0  0  0  0
 29 30  2  0  0  0  0
 29 28  1  0  0  0  0
 30 31  1  0  0  0  0
 31 38  1  0  0  0  0
 31 32  2  0  0  0  0
 32 33  1  0  0  0  0
 32 39  1  0  0  0  0
 33 34  2  0  0  0  0
 34 40  1  0  0  0  0
 35 26  1  0  0  0  0
 36 27  1  0  0  0  0
 37 30  1  0  0  0  0
M  END
>  <minimizedAffinity>
-6.25417614

$$$$

 OpenBabel03242523353D

 40 44  0  0  0  0  0  0  0  0999 V2000
   35.7410   29.2720   40.7180 C   0  0  0  0  0  0  0  0  0  0  0  0
   35.2520   30.1540   41.1350 H   0  0  0  0  0  0  0  0  0  0  0  0
   34.9480   28.4970   40.5190 H   0  0  0  0  0  0  0  0  0  0  0  0
   36.3430   29.6460   37.0630 C   0  0  0  0  0  0  0  0  0  0  0  0
   37.4330   30.5440   37.0590 C   0  0  0  0  0  0  0  0  0  0  0  0
   37.9180   30.9830   38.2930 C   0  0  0  0  0  0  0  0  0  0  0  0
   37.3400   30.5440   39.4360 N   0  0  0  0  0  0  0  0  0  0  0  0
   36.2900   29.6790   39.4000 C   0  0  0  0  0  0  0  0  0  0  0  0
   35.8090   29.2450   38.2320 N   0  0  0  0  0  0  0  0  0  0  0  0
   35.9710   29.3090   36.1020 H   0  0  0  0  0  0  0  0  0  0  0  0
   37.8830   30.8840   36.1560 H   0  0  0  0  0  0  0  0  0  0  0  0
   39.0970   32.7150   39.5310 C   0  0  0  0  0  3  0  0  0  0  0  0
   39.0370   31.9080   38.4170 C   0  0  0  0  0  0  0  0  0  0  0  0
   40.0450   32.0400   37.5000 C   0  0  0  0  0  0  0  0  0  0  0  0
   40.0320   31.4240   36.6130 H   0  0  0  0  0  0  0  0  0  0  0  0
   41.0890   32.9290   37.6540 C   0  0  0  0  0  0  0  0  0  0  0  0
   42.1790   33.2400   36.9080 N   0  0  0  0  0  0  0  0  0  0  0  0
   42.8690   34.2120   37.5730 C   0  0  0  0  0  0  0  0  0  0  0  0
   43.7950   34.7000   37.2680 H   0  0  0  0  0  0  0  0  0  0  0  0
   42.2440   34.5320   38.7280 N   0  0  0  0  0  0  0  0  0  0  0  0
   41.1520   33.7380   38.7690 C   0  0  0  0  0  0  0  0  0  0  0  0
   40.1390   33.5990   39.6790 C   0  0  0  0  0  3  0  0  0  0  0  0
   42.4400   32.8130   35.9940 H   0  0  0  0  0  0  0  0  0  0  0  0
   37.0940   28.6070   41.7010 S   0  0  0  0  0  0  0  0  0  0  0  0
   37.3100   26.8660   41.3800 C   0  0  0  0  0  0  0  0  0  0  0  0
   36.9770   25.9860   42.3860 C   0  0  0  0  0  0  0  0  0  0  0  0
   37.1460   24.6410   42.1520 C   0  0  0  0  0  0  0  0  0  0  0  0
   37.6350   24.1600   40.9510 C   0  0  0  0  0  0  0  0  0  0  0  0
   37.7930   22.8350   40.7550 N   0  0  0  0  0  0  0  0  0  0  0  0
   38.2710   22.3600   39.5900 C   0  0  0  0  0  0  0  0  0  0  0  0
   38.6040   23.2140   38.5890 C   0  0  0  0  0  0  0  0  0  0  0  0
   38.4440   24.5600   38.7860 C   0  0  0  0  0  0  0  0  0  0  0  0
   37.9500   25.1050   39.9810 C   0  0  0  0  0  0  0  0  0  0  0  0
   37.7990   26.4580   40.1640 C   0  0  0  0  0  0  0  0  0  0  0  0
   36.5900   26.2160   43.3640 H   0  0  0  0  0  0  0  0  0  0  0  0
   36.9050   23.8810   42.8980 H   0  0  0  0  0  0  0  0  0  0  0  0
   38.4060   21.2980   39.4110 H   0  0  0  0  0  0  0  0  0  0  0  0
   38.9900   22.8730   37.6410 H   0  0  0  0  0  0  0  0  0  0  0  0
   38.7050   25.2680   37.9940 H   0  0  0  0  0  0  0  0  0  0  0  0
   38.0580   27.1520   39.3780 H   0  0  0  0  0  0  0  0  0  0  0  0
  1  2  1  0  0  0  0
  1 24  1  0  0  0  0
  3  1  1  0  0  0  0
  4  9  1  0  0  0  0
  5  4  2  0  0  0  0
  5  6  1  0  0  0  0
  6 13  1  0  0  0  0
  6  7  2  0  0  0  0
  8  7  1  0  0  0  0
  8  1  1  0  0  0  0
  9  8  2  0  0  0  0
 10  4  1  0  0  0  0
 11  5  1  0  0  0  0
 12 22  1  0  0  0  0
 13 12  2  0  0  0  0
 14 16  2  0  0  0  0
 14 13  1  0  0  0  0
 15 14  1  0  0  0  0
 16 21  1  0  0  0  0
 17 18  1  0  0  0  0
 17 16  1  0  0  0  0
 18 20  2  0  0  0  0
 19 18  1  0  0  0  0
 20 21  1  0  0  0  0
 21 22  2  0  0  0  0
 23 17  1  0  0  0  0
 25 24  1  0  0  0  0
 25 26  1  0  0  0  0
 26 35  1  0  0  0  0
 27 26  2  0  0  0  0
 27 36  1  0  0  0  0
 28 27  1  0  0  0  0
 29 28  1  0  0  0  0
 30 29  2  0  0  0  0
 31 32  2  0  0  0  0
 31 30  1  0  0  0  0
 32 33  1  0  0  0  0
 33 34  1  0  0  0  0
 33 28  2  0  0  0  0
 34 25  2  0  0  0  0
 37 30  1  0  0  0  0
 38 31  1  0  0  0  0
 39 32  1  0  0  0  0
 40 34  1  0  0  0  0
M  END
>  <minimizedAffinity>
-6.19041824

$$$$

 OpenBabel03242523353D

 40 44  0  0  0  0  0  0  0  0999 V2000
   42.7630   32.4820   38.8300 C   0  0  0  0  0  0  0  0  0  0  0  0
   43.7430   32.8840   38.5660 H   0  0  0  0  0  0  0  0  0  0  0  0
   42.6510   31.4790   38.3290 H   0  0  0  0  0  0  0  0  0  0  0  0
   43.5980   32.6060   42.4560 C   0  0  0  0  0  0  0  0  0  0  0  0
   42.6940   31.6540   42.9740 C   0  0  0  0  0  0  0  0  0  0  0  0
   41.8410   31.0100   42.0750 C   0  0  0  0  0  0  0  0  0  0  0  0
   41.9050   31.3120   40.7570 N   0  0  0  0  0  0  0  0  0  0  0  0
   42.7900   32.2360   40.2930 C   0  0  0  0  0  0  0  0  0  0  0  0
   43.6150   32.8650   41.1350 N   0  0  0  0  0  0  0  0  0  0  0  0
   44.2570   33.1030   43.1590 H   0  0  0  0  0  0  0  0  0  0  0  0
   42.6500   31.4220   44.0120 H   0  0  0  0  0  0  0  0  0  0  0  0
   41.3210   28.7490   42.8100 C   0  0  0  0  0  3  0  0  0  0  0  0
   40.8670   30.0090   42.4900 C   0  0  0  0  0  0  0  0  0  0  0  0
   39.5180   30.2270   42.5870 C   0  0  0  0  0  0  0  0  0  0  0  0
   39.1250   31.2030   42.3440 H   0  0  0  0  0  0  0  0  0  0  0  0
   38.6270   29.2520   42.9840 C   0  0  0  0  0  0  0  0  0  0  0  0
   37.2810   29.2190   43.1550 N   0  0  0  0  0  0  0  0  0  0  0  0
   36.9490   27.9620   43.5690 C   0  0  0  0  0  0  0  0  0  0  0  0
   35.9560   27.5770   43.8030 H   0  0  0  0  0  0  0  0  0  0  0  0
   38.0520   27.1880   43.6670 N   0  0  0  0  0  0  0  0  0  0  0  0
   39.0780   27.9890   43.3060 C   0  0  0  0  0  0  0  0  0  0  0  0
   40.4280   27.7820   43.2040 C   0  0  0  0  0  3  0  0  0  0  0  0
   36.6220   30.0120   42.9980 H   0  0  0  0  0  0  0  0  0  0  0  0
   41.3690   33.5650   38.4760 S   0  0  0  0  0  0  0  0  0  0  0  0
   39.8540   32.8720   39.1150 C   0  0  0  0  0  0  0  0  0  0  0  0
   39.2460   33.5270   40.1620 C   0  0  0  0  0  0  0  0  0  0  0  0
   38.0810   32.9980   40.6680 C   0  0  0  0  0  0  0  0  0  0  0  0
   37.5170   31.8420   40.1570 C   0  0  0  0  0  0  0  0  0  0  0  0
   36.3760   31.3470   40.6780 N   0  0  0  0  0  0  0  0  0  0  0  0
   35.8240   30.2210   40.1890 C   0  0  0  0  0  0  0  0  0  0  0  0
   36.4120   29.5640   39.1570 C   0  0  0  0  0  0  0  0  0  0  0  0
   37.5700   30.0660   38.6270 C   0  0  0  0  0  0  0  0  0  0  0  0
   38.1860   31.2350   39.1000 C   0  0  0  0  0  0  0  0  0  0  0  0
   39.3500   31.7230   38.5590 C   0  0  0  0  0  0  0  0  0  0  0  0
   39.5690   34.4270   40.6560 H   0  0  0  0  0  0  0  0  0  0  0  0
   37.5390   33.4580   41.4960 H   0  0  0  0  0  0  0  0  0  0  0  0
   34.9060   29.8050   40.5930 H   0  0  0  0  0  0  0  0  0  0  0  0
   36.0000   28.6590   38.7370 H   0  0  0  0  0  0  0  0  0  0  0  0
   38.0620   29.5540   37.7950 H   0  0  0  0  0  0  0  0  0  0  0  0
   39.8310   31.2130   37.7380 H   0  0  0  0  0  0  0  0  0  0  0  0
  1  8  1  0  0  0  0
  2  1  1  0  0  0  0
  3  1  1  0  0  0  0
  4  5  1  0  0  0  0
  4 10  1  0  0  0  0
  5 11  1  0  0  0  0
  6 13  1  0  0  0  0
  6  5  2  0  0  0  0
  7  6  1  0  0  0  0
  8  7  2  0  0  0  0
  8  9  1  0  0  0  0
  9  4  2  0  0  0  0
 12 22  1  0  0  0  0
 13 14  1  0  0  0  0
 13 12  2  0  0  0  0
 14 16  2  0  0  0  0
 15 14  1  0  0  0  0
 16 17  1  0  0  0  0
 16 21  1  0  0  0  0
 17 18  1  0  0  0  0
 18 20  2  0  0  0  0
 18 19  1  0  0  0  0
 21 20  1  0  0  0  0
 22 21  2  0  0  0  0
 23 17  1  0  0  0  0
 24  1  1  0  0  0  0
 24 25  1  0  0  0  0
 25 26  1  0  0  0  0
 26 35  1  0  0  0  0
 26 27  2  0  0  0  0
 27 36  1  0  0  0  0
 28 27  1  0  0  0  0
 28 29  1  0  0  0  0
 30 37  1  0  0  0  0
 30 29  2  0  0  0  0
 31 30  1  0  0  0  0
 32 33  1  0  0  0  0
 32 31  2  0  0  0  0
 33 28  2  0  0  0  0
 34 33  1  0  0  0  0
 34 25  2  0  0  0  0
 38 31  1  0  0  0  0
 39 32  1  0  0  0  0
 40 34  1  0  0  0  0
M  END
>  <minimizedAffinity>
-6.17586517

$$$$
