
 OpenBabel03242518183D

 26 28  0  0  0  0  0  0  0  0999 V2000
   35.7710   29.5460   40.5250 C   0  0  0  0  0  0  0  0  0  0  0  0
   35.1560   28.7620   39.9940 H   0  0  0  0  0  0  0  0  0  0  0  0
   35.1550   30.1660   41.1790 H   0  0  0  0  0  0  0  0  0  0  0  0
   37.4050   29.5140   42.4090 C   0  0  0  0  0  3  0  0  0  0  0  0
   36.7550   28.8100   41.3920 C   0  0  0  0  0  0  0  0  0  0  0  0
   37.0120   27.4670   41.1930 C   0  0  0  0  0  0  0  0  0  0  0  0
   36.5110   26.9230   40.4080 H   0  0  0  0  0  0  0  0  0  0  0  0
   37.9190   26.8290   42.0080 C   0  0  0  0  0  0  0  0  0  0  0  0
   38.3730   25.5620   42.0640 N   0  0  0  0  0  0  0  0  0  0  0  0
   39.2750   25.5010   43.0880 C   0  0  0  0  0  0  0  0  0  0  0  0
   39.8210   24.5980   43.3860 H   0  0  0  0  0  0  0  0  0  0  0  0
   39.3950   26.7090   43.6760 N   0  0  0  0  0  0  0  0  0  0  0  0
   38.5620   27.5430   43.0180 C   0  0  0  0  0  0  0  0  0  0  0  0
   38.3200   28.8790   43.2350 C   0  0  0  0  0  3  0  0  0  0  0  0
   38.0930   24.7670   41.4440 H   0  0  0  0  0  0  0  0  0  0  0  0
   37.3860   30.3430   37.3620 C   0  0  0  0  0  0  0  0  0  0  0  0
   37.7220   31.6990   37.4660 C   0  0  0  0  0  0  0  0  0  0  0  0
   37.3840   32.3430   38.6480 C   0  0  0  0  0  0  0  0  0  0  0  0
   36.7590   31.6520   39.6250 N   0  0  0  0  0  0  0  0  0  0  0  0
   36.4540   30.3530   39.4880 C   0  0  0  0  0  0  0  0  0  0  0  0
   36.7660   29.6800   38.3480 N   0  0  0  0  0  0  0  0  0  0  0  0
   37.6290   29.7960   36.4590 H   0  0  0  0  0  0  0  0  0  0  0  0
   37.6480   33.3830   38.7120 H   0  0  0  0  0  0  0  0  0  0  0  0
   38.3730   32.2730   36.3510 N   0  0  0  0  0  0  0  0  0  0  0  0
   38.0910   32.4500   35.3670 H   0  0  0  0  0  0  0  0  0  0  0  0
   39.3440   32.5680   36.6150 H   0  0  0  0  0  0  0  0  0  0  0  0
  1  3  1  0  0  0  0
  1  5  1  0  0  0  0
  2  1  1  0  0  0  0
  4 14  1  0  0  0  0
  5  4  2  0  0  0  0
  6  5  1  0  0  0  0
  6  8  2  0  0  0  0
  7  6  1  0  0  0  0
  8  9  1  0  0  0  0
  8 13  1  0  0  0  0
  9 10  1  0  0  0  0
 10 11  1  0  0  0  0
 10 12  2  0  0  0  0
 13 14  2  0  0  0  0
 13 12  1  0  0  0  0
 15  9  1  0  0  0  0
 16 17  2  0  0  0  0
 16 21  1  0  0  0  0
 17 18  1  0  0  0  0
 18 23  1  0  0  0  0
 18 19  2  0  0  0  0
 20 19  1  0  0  0  0
 20  1  1  0  0  0  0
 21 20  2  0  0  0  0
 22 16  1  0  0  0  0
 24 26  1  0  0  0  0
 24 17  1  0  0  0  0
 25 24  1  0  0  0  0
M  END
>  <minimizedAffinity>
-5.31606102

$$$$

 OpenBabel03242518183D

 26 28  0  0  0  0  0  0  0  0999 V2000
   36.1980   30.0960   41.1610 C   0  0  0  0  0  0  0  0  0  0  0  0
   35.2310   29.5630   40.9210 H   0  0  0  0  0  0  0  0  0  0  0  0
   36.0400   30.9230   41.8550 H   0  0  0  0  0  0  0  0  0  0  0  0
   36.5330   27.8690   42.2340 C   0  0  0  0  0  3  0  0  0  0  0  0
   37.0850   29.0930   41.8430 C   0  0  0  0  0  0  0  0  0  0  0  0
   38.4190   29.3670   42.0790 C   0  0  0  0  0  0  0  0  0  0  0  0
   38.8450   30.3110   41.7790 H   0  0  0  0  0  0  0  0  0  0  0  0
   39.1980   28.4220   42.7050 C   0  0  0  0  0  0  0  0  0  0  0  0
   40.4960   28.3930   43.0680 N   0  0  0  0  0  0  0  0  0  0  0  0
   40.7230   27.1840   43.6610 C   0  0  0  0  0  0  0  0  0  0  0  0
   41.6880   26.8580   44.0650 H   0  0  0  0  0  0  0  0  0  0  0  0
   39.5890   26.4530   43.6800 N   0  0  0  0  0  0  0  0  0  0  0  0
   38.6360   27.2070   43.0910 C   0  0  0  0  0  0  0  0  0  0  0  0
   37.3120   26.9120   42.8660 C   0  0  0  0  0  3  0  0  0  0  0  0
   41.2040   29.1500   42.9230 H   0  0  0  0  0  0  0  0  0  0  0  0
   37.6010   32.3810   38.7000 C   0  0  0  0  0  0  0  0  0  0  0  0
   37.8610   31.5810   37.5800 C   0  0  0  0  0  0  0  0  0  0  0  0
   37.5460   30.2330   37.6810 C   0  0  0  0  0  0  0  0  0  0  0  0
   37.0140   29.7600   38.8280 N   0  0  0  0  0  0  0  0  0  0  0  0
   36.7790   30.5590   39.8800 C   0  0  0  0  0  0  0  0  0  0  0  0
   37.0720   31.8860   39.8280 N   0  0  0  0  0  0  0  0  0  0  0  0
   37.8300   33.4400   38.6700 H   0  0  0  0  0  0  0  0  0  0  0  0
   37.7520   29.6330   36.8130 H   0  0  0  0  0  0  0  0  0  0  0  0
   38.4210   32.2330   36.4580 N   0  0  0  0  0  0  0  0  0  0  0  0
   39.3250   32.7170   36.2850 H   0  0  0  0  0  0  0  0  0  0  0  0
   37.7510   32.2000   35.6530 H   0  0  0  0  0  0  0  0  0  0  0  0
  1  5  1  0  0  0  0
  1  3  1  0  0  0  0
  2  1  1  0  0  0  0
  4 14  1  0  0  0  0
  5  6  1  0  0  0  0
  5  4  2  0  0  0  0
  6  8  2  0  0  0  0
  7  6  1  0  0  0  0
  8  9  1  0  0  0  0
  8 13  1  0  0  0  0
  9 10  1  0  0  0  0
 10 12  2  0  0  0  0
 10 11  1  0  0  0  0
 13 12  1  0  0  0  0
 14 13  2  0  0  0  0
 15  9  1  0  0  0  0
 16 21  1  0  0  0  0
 17 18  1  0  0  0  0
 17 16  2  0  0  0  0
 18 19  2  0  0  0  0
 19 20  1  0  0  0  0
 20  1  1  0  0  0  0
 21 20  2  0  0  0  0
 22 16  1  0  0  0  0
 23 18  1  0  0  0  0
 24 17  1  0  0  0  0
 25 24  1  0  0  0  0
 26 24  1  0  0  0  0
M  END
>  <minimizedAffinity>
-5.26588297

$$$$

 OpenBabel03242518183D

 26 28  0  0  0  0  0  0  0  0999 V2000
   36.2090   27.9720   42.0830 C   0  0  0  0  0  0  0  0  0  0  0  0
   35.8840   28.5040   43.0240 H   0  0  0  0  0  0  0  0  0  0  0  0
   35.4180   27.3310   41.6900 H   0  0  0  0  0  0  0  0  0  0  0  0
   36.6190   28.6550   39.7200 C   0  0  0  0  0  3  0  0  0  0  0  0
   36.4850   29.0360   41.0580 C   0  0  0  0  0  0  0  0  0  0  0  0
   36.6020   30.3640   41.4240 C   0  0  0  0  0  0  0  0  0  0  0  0
   36.4990   30.6580   42.4560 H   0  0  0  0  0  0  0  0  0  0  0  0
   36.8530   31.3080   40.4550 C   0  0  0  0  0  0  0  0  0  0  0  0
   37.0170   32.6450   40.4940 N   0  0  0  0  0  0  0  0  0  0  0  0
   37.2440   33.0620   39.2140 C   0  0  0  0  0  0  0  0  0  0  0  0
   37.4160   34.1020   38.9170 H   0  0  0  0  0  0  0  0  0  0  0  0
   37.2270   32.0080   38.3700 N   0  0  0  0  0  0  0  0  0  0  0  0
   36.9850   30.9150   39.1250 C   0  0  0  0  0  0  0  0  0  0  0  0
   36.8720   29.6010   38.7380 C   0  0  0  0  0  3  0  0  0  0  0  0
   36.9780   33.2570   41.3420 H   0  0  0  0  0  0  0  0  0  0  0  0
   38.5430   25.1790   42.1400 C   0  0  0  0  0  0  0  0  0  0  0  0
   39.6180   25.6300   42.9180 C   0  0  0  0  0  0  0  0  0  0  0  0
   39.5310   26.9170   43.4270 C   0  0  0  0  0  0  0  0  0  0  0  0
   38.4390   27.6660   43.1590 N   0  0  0  0  0  0  0  0  0  0  0  0
   37.4300   27.1980   42.4090 C   0  0  0  0  0  0  0  0  0  0  0  0
   37.4700   25.9420   41.8880 N   0  0  0  0  0  0  0  0  0  0  0  0
   38.5640   24.1810   41.7200 H   0  0  0  0  0  0  0  0  0  0  0  0
   40.3630   27.2490   44.0220 H   0  0  0  0  0  0  0  0  0  0  0  0
   40.6840   24.7220   43.1020 N   0  0  0  0  0  0  0  0  0  0  0  0
   41.3730   24.2810   42.4600 H   0  0  0  0  0  0  0  0  0  0  0  0
   40.7630   24.4610   44.1150 H   0  0  0  0  0  0  0  0  0  0  0  0
  1 20  1  0  0  0  0
  1  2  1  0  0  0  0
  3  1  1  0  0  0  0
  4  5  1  0  0  0  0
  5  6  2  0  0  0  0
  5  1  1  0  0  0  0
  6  7  1  0  0  0  0
  8  9  1  0  0  0  0
  8  6  1  0  0  0  0
  9 15  1  0  0  0  0
 10  9  1  0  0  0  0
 11 10  1  0  0  0  0
 12 13  1  0  0  0  0
 12 10  2  0  0  0  0
 13  8  2  0  0  0  0
 14 13  1  0  0  0  0
 14  4  2  0  0  0  0
 16 17  1  0  0  0  0
 17 24  1  0  0  0  0
 17 18  2  0  0  0  0
 18 23  1  0  0  0  0
 19 18  1  0  0  0  0
 20 19  2  0  0  0  0
 21 16  2  0  0  0  0
 21 20  1  0  0  0  0
 22 16  1  0  0  0  0
 24 26  1  0  0  0  0
 25 24  1  0  0  0  0
M  END
>  <minimizedAffinity>
-5.25463152

$$$$

 OpenBabel03242518183D

 26 28  0  0  0  0  0  0  0  0999 V2000
   37.6650   28.4590   43.6790 C   0  0  0  0  0  0  0  0  0  0  0  0
   38.3460   28.6570   44.5590 H   0  0  0  0  0  0  0  0  0  0  0  0
   36.6130   28.5380   43.9590 H   0  0  0  0  0  0  0  0  0  0  0  0
   39.2430   30.0520   42.5860 C   0  0  0  0  0  3  0  0  0  0  0  0
   37.9470   29.5330   42.6650 C   0  0  0  0  0  0  0  0  0  0  0  0
   36.9520   29.9980   41.8270 C   0  0  0  0  0  0  0  0  0  0  0  0
   35.9530   29.5990   41.8880 H   0  0  0  0  0  0  0  0  0  0  0  0
   37.2510   30.9810   40.9120 C   0  0  0  0  0  0  0  0  0  0  0  0
   36.5190   31.6260   39.9820 N   0  0  0  0  0  0  0  0  0  0  0  0
   37.3490   32.5110   39.3560 C   0  0  0  0  0  0  0  0  0  0  0  0
   37.0470   33.1860   38.5480 H   0  0  0  0  0  0  0  0  0  0  0  0
   38.5910   32.4350   39.8780 N   0  0  0  0  0  0  0  0  0  0  0  0
   38.5460   31.4910   40.8420 C   0  0  0  0  0  0  0  0  0  0  0  0
   39.5520   31.0420   41.6660 C   0  0  0  0  0  3  0  0  0  0  0  0
   35.5040   31.4800   39.7720 H   0  0  0  0  0  0  0  0  0  0  0  0
   37.1910   25.2500   42.0290 C   0  0  0  0  0  0  0  0  0  0  0  0
   38.4340   24.6110   42.1300 C   0  0  0  0  0  0  0  0  0  0  0  0
   39.4470   25.3030   42.7790 C   0  0  0  0  0  0  0  0  0  0  0  0
   39.1990   26.5340   43.2730 N   0  0  0  0  0  0  0  0  0  0  0  0
   37.9950   27.1130   43.1560 C   0  0  0  0  0  0  0  0  0  0  0  0
   36.9700   26.4740   42.5290 N   0  0  0  0  0  0  0  0  0  0  0  0
   36.3680   24.7500   41.5310 H   0  0  0  0  0  0  0  0  0  0  0  0
   40.3940   24.7990   42.8480 H   0  0  0  0  0  0  0  0  0  0  0  0
   38.5260   23.3230   41.5580 N   0  0  0  0  0  0  0  0  0  0  0  0
   38.4540   22.9610   40.5860 H   0  0  0  0  0  0  0  0  0  0  0  0
   38.7060   22.6100   42.3050 H   0  0  0  0  0  0  0  0  0  0  0  0
  1  3  1  0  0  0  0
  1  2  1  0  0  0  0
  4  5  1  0  0  0  0
  5  1  1  0  0  0  0
  6  7  1  0  0  0  0
  6  5  2  0  0  0  0
  8  6  1  0  0  0  0
  9  8  1  0  0  0  0
 10 12  2  0  0  0  0
 10  9  1  0  0  0  0
 11 10  1  0  0  0  0
 12 13  1  0  0  0  0
 13  8  2  0  0  0  0
 13 14  1  0  0  0  0
 14  4  2  0  0  0  0
 15  9  1  0  0  0  0
 16 17  2  0  0  0  0
 16 21  1  0  0  0  0
 17 18  1  0  0  0  0
 18 23  1  0  0  0  0
 18 19  2  0  0  0  0
 20 19  1  0  0  0  0
 20  1  1  0  0  0  0
 21 20  2  0  0  0  0
 22 16  1  0  0  0  0
 24 17  1  0  0  0  0
 24 26  1  0  0  0  0
 25 24  1  0  0  0  0
M  END
>  <minimizedAffinity>
-5.24757242

$$$$

 OpenBabel03242518183D

 26 28  0  0  0  0  0  0  0  0999 V2000
   36.5320   30.6510   41.0300 C   0  0  0  0  0  0  0  0  0  0  0  0
   35.4470   30.6630   40.7150 H   0  0  0  0  0  0  0  0  0  0  0  0
   36.7060   31.2920   41.8960 H   0  0  0  0  0  0  0  0  0  0  0  0
   37.3960   29.0180   42.7050 C   0  0  0  0  0  3  0  0  0  0  0  0
   36.8480   29.2390   41.4380 C   0  0  0  0  0  0  0  0  0  0  0  0
   36.6010   28.1800   40.5860 C   0  0  0  0  0  0  0  0  0  0  0  0
   36.1790   28.3500   39.6080 H   0  0  0  0  0  0  0  0  0  0  0  0
   36.9040   26.9030   40.9970 C   0  0  0  0  0  0  0  0  0  0  0  0
   36.7850   25.6950   40.4120 N   0  0  0  0  0  0  0  0  0  0  0  0
   37.2490   24.7670   41.3000 C   0  0  0  0  0  0  0  0  0  0  0  0
   37.2830   23.6880   41.1150 H   0  0  0  0  0  0  0  0  0  0  0  0
   37.6580   25.3720   42.4350 N   0  0  0  0  0  0  0  0  0  0  0  0
   37.4510   26.6950   42.2630 C   0  0  0  0  0  0  0  0  0  0  0  0
   37.7030   27.7330   43.1270 C   0  0  0  0  0  3  0  0  0  0  0  0
   36.4080   25.4960   39.4560 H   0  0  0  0  0  0  0  0  0  0  0  0
   39.4520   31.6780   39.1140 C   0  0  0  0  0  0  0  0  0  0  0  0
   38.9730   31.8680   37.8110 C   0  0  0  0  0  0  0  0  0  0  0  0
   37.6220   31.6380   37.5960 C   0  0  0  0  0  0  0  0  0  0  0  0
   36.8430   31.2480   38.6280 N   0  0  0  0  0  0  0  0  0  0  0  0
   37.3380   31.0760   39.8620 C   0  0  0  0  0  0  0  0  0  0  0  0
   38.6560   31.2900   40.1210 N   0  0  0  0  0  0  0  0  0  0  0  0
   40.5000   31.8450   39.3320 H   0  0  0  0  0  0  0  0  0  0  0  0
   37.2700   31.7880   36.5920 H   0  0  0  0  0  0  0  0  0  0  0  0
   39.9210   32.2770   36.8470 N   0  0  0  0  0  0  0  0  0  0  0  0
   40.7680   31.8340   36.4380 H   0  0  0  0  0  0  0  0  0  0  0  0
   39.6860   33.2360   36.4950 H   0  0  0  0  0  0  0  0  0  0  0  0
  1  5  1  0  0  0  0
  1  3  1  0  0  0  0
  2  1  1  0  0  0  0
  4 14  1  0  0  0  0
  5  4  2  0  0  0  0
  6  8  2  0  0  0  0
  6  5  1  0  0  0  0
  7  6  1  0  0  0  0
  8 13  1  0  0  0  0
  9  8  1  0  0  0  0
  9 10  1  0  0  0  0
 10 12  2  0  0  0  0
 11 10  1  0  0  0  0
 13 12  1  0  0  0  0
 13 14  2  0  0  0  0
 15  9  1  0  0  0  0
 16 22  1  0  0  0  0
 16 21  1  0  0  0  0
 17 16  2  0  0  0  0
 18 17  1  0  0  0  0
 18 19  2  0  0  0  0
 19 20  1  0  0  0  0
 20 21  2  0  0  0  0
 20  1  1  0  0  0  0
 23 18  1  0  0  0  0
 24 17  1  0  0  0  0
 25 24  1  0  0  0  0
 26 24  1  0  0  0  0
M  END
>  <minimizedAffinity>
-5.17944956

$$$$

 OpenBabel03242518183D

 26 28  0  0  0  0  0  0  0  0999 V2000
   37.5390   28.2190   43.6800 C   0  0  0  0  0  0  0  0  0  0  0  0
   38.1640   28.3710   44.6080 H   0  0  0  0  0  0  0  0  0  0  0  0
   36.4720   28.2920   43.8970 H   0  0  0  0  0  0  0  0  0  0  0  0
   36.9790   29.6640   41.7260 C   0  0  0  0  0  3  0  0  0  0  0  0
   37.8890   29.3350   42.7360 C   0  0  0  0  0  0  0  0  0  0  0  0
   39.0790   30.0260   42.8600 C   0  0  0  0  0  0  0  0  0  0  0  0
   39.7800   29.7720   43.6380 H   0  0  0  0  0  0  0  0  0  0  0  0
   39.3610   31.0420   41.9760 C   0  0  0  0  0  0  0  0  0  0  0  0
   40.4090   31.8780   41.8390 N   0  0  0  0  0  0  0  0  0  0  0  0
   40.1410   32.6910   40.7760 C   0  0  0  0  0  0  0  0  0  0  0  0
   40.8070   33.4820   40.4110 H   0  0  0  0  0  0  0  0  0  0  0  0
   38.9430   32.3790   40.2400 N   0  0  0  0  0  0  0  0  0  0  0  0
   38.4470   31.3600   40.9730 C   0  0  0  0  0  0  0  0  0  0  0  0
   37.2560   30.6870   40.8310 C   0  0  0  0  0  3  0  0  0  0  0  0
   41.2700   31.9060   42.4340 H   0  0  0  0  0  0  0  0  0  0  0  0
   37.1020   25.0020   42.0320 C   0  0  0  0  0  0  0  0  0  0  0  0
   38.3800   24.4270   42.0310 C   0  0  0  0  0  0  0  0  0  0  0  0
   39.4030   25.1650   42.6080 C   0  0  0  0  0  0  0  0  0  0  0  0
   39.1320   26.3780   43.1350 N   0  0  0  0  0  0  0  0  0  0  0  0
   37.8950   26.8950   43.1170 C   0  0  0  0  0  0  0  0  0  0  0  0
   36.8590   26.2100   42.5620 N   0  0  0  0  0  0  0  0  0  0  0  0
   36.2700   24.4660   41.5920 H   0  0  0  0  0  0  0  0  0  0  0  0
   40.3770   24.7100   42.5990 H   0  0  0  0  0  0  0  0  0  0  0  0
   38.4930   23.1500   41.4380 N   0  0  0  0  0  0  0  0  0  0  0  0
   38.3650   22.7920   40.4700 H   0  0  0  0  0  0  0  0  0  0  0  0
   38.7650   22.4410   42.1610 H   0  0  0  0  0  0  0  0  0  0  0  0
  1  3  1  0  0  0  0
  1  2  1  0  0  0  0
  4  5  1  0  0  0  0
  5  6  2  0  0  0  0
  5  1  1  0  0  0  0
  6  7  1  0  0  0  0
  8  6  1  0  0  0  0
  9  8  1  0  0  0  0
  9 15  1  0  0  0  0
 10  9  1  0  0  0  0
 11 10  1  0  0  0  0
 12 10  2  0  0  0  0
 12 13  1  0  0  0  0
 13  8  2  0  0  0  0
 14 13  1  0  0  0  0
 14  4  2  0  0  0  0
 16 21  1  0  0  0  0
 17 16  2  0  0  0  0
 17 18  1  0  0  0  0
 18 19  2  0  0  0  0
 20 19  1  0  0  0  0
 20  1  1  0  0  0  0
 21 20  2  0  0  0  0
 22 16  1  0  0  0  0
 23 18  1  0  0  0  0
 24 17  1  0  0  0  0
 24 26  1  0  0  0  0
 25 24  1  0  0  0  0
M  END
>  <minimizedAffinity>
-5.09994936

$$$$

 OpenBabel03242518183D

 26 28  0  0  0  0  0  0  0  0999 V2000
   34.5150   28.8340   38.5740 C   0  0  0  0  0  0  0  0  0  0  0  0
   33.8000   27.9710   38.4420 H   0  0  0  0  0  0  0  0  0  0  0  0
   33.9990   29.7370   38.9060 H   0  0  0  0  0  0  0  0  0  0  0  0
   36.1750   27.2320   39.5210 C   0  0  0  0  0  3  0  0  0  0  0  0
   35.4780   28.4360   39.6570 C   0  0  0  0  0  0  0  0  0  0  0  0
   35.6760   29.2400   40.7640 C   0  0  0  0  0  0  0  0  0  0  0  0
   35.1380   30.1690   40.8690 H   0  0  0  0  0  0  0  0  0  0  0  0
   36.5670   28.8410   41.7330 C   0  0  0  0  0  0  0  0  0  0  0  0
   36.9660   29.3890   42.8970 N   0  0  0  0  0  0  0  0  0  0  0  0
   37.8810   28.5390   43.4520 C   0  0  0  0  0  0  0  0  0  0  0  0
   38.3920   28.7080   44.4060 H   0  0  0  0  0  0  0  0  0  0  0  0
   38.0620   27.4650   42.6550 N   0  0  0  0  0  0  0  0  0  0  0  0
   37.2540   27.6370   41.5870 C   0  0  0  0  0  0  0  0  0  0  0  0
   37.0740   26.8220   40.4940 C   0  0  0  0  0  3  0  0  0  0  0  0
   36.6430   30.2960   43.3070 H   0  0  0  0  0  0  0  0  0  0  0  0
   35.2430   28.4970   35.0230 C   0  0  0  0  0  0  0  0  0  0  0  0
   36.3610   29.3130   34.8100 C   0  0  0  0  0  0  0  0  0  0  0  0
   36.8690   29.9870   35.9120 C   0  0  0  0  0  0  0  0  0  0  0  0
   36.2760   29.8330   37.1150 N   0  0  0  0  0  0  0  0  0  0  0  0
   35.2050   29.0420   37.2790 C   0  0  0  0  0  0  0  0  0  0  0  0
   34.6720   28.3610   36.2290 N   0  0  0  0  0  0  0  0  0  0  0  0
   34.8100   27.9500   34.1930 H   0  0  0  0  0  0  0  0  0  0  0  0
   37.7270   30.6090   35.7320 H   0  0  0  0  0  0  0  0  0  0  0  0
   36.8590   29.3650   33.4890 N   0  0  0  0  0  0  0  0  0  0  0  0
   36.4730   29.7120   32.5880 H   0  0  0  0  0  0  0  0  0  0  0  0
   37.8240   28.9560   33.4530 H   0  0  0  0  0  0  0  0  0  0  0  0
  1  3  1  0  0  0  0
  1  5  1  0  0  0  0
  2  1  1  0  0  0  0
  4  5  2  0  0  0  0
  4 14  1  0  0  0  0
  5  6  1  0  0  0  0
  6  7  1  0  0  0  0
  6  8  2  0  0  0  0
  8  9  1  0  0  0  0
  9 15  1  0  0  0  0
  9 10  1  0  0  0  0
 10 11  1  0  0  0  0
 12 10  2  0  0  0  0
 13  8  1  0  0  0  0
 13 12  1  0  0  0  0
 14 13  2  0  0  0  0
 16 21  1  0  0  0  0
 17 16  2  0  0  0  0
 17 18  1  0  0  0  0
 18 19  2  0  0  0  0
 19 20  1  0  0  0  0
 20  1  1  0  0  0  0
 21 20  2  0  0  0  0
 22 16  1  0  0  0  0
 23 18  1  0  0  0  0
 24 17  1  0  0  0  0
 25 24  1  0  0  0  0
 26 24  1  0  0  0  0
M  END
>  <minimizedAffinity>
-4.9607358

$$$$

 OpenBabel03242518183D

 26 28  0  0  0  0  0  0  0  0999 V2000
   35.3230   29.1250   40.5800 C   0  0  0  0  0  0  0  0  0  0  0  0
   34.6870   28.7530   39.7250 H   0  0  0  0  0  0  0  0  0  0  0  0
   34.7120   29.4560   41.4220 H   0  0  0  0  0  0  0  0  0  0  0  0
   36.4380   27.8480   42.4100 C   0  0  0  0  0  3  0  0  0  0  0  0
   36.1440   27.9550   41.0470 C   0  0  0  0  0  0  0  0  0  0  0  0
   36.5990   27.0030   40.1550 C   0  0  0  0  0  0  0  0  0  0  0  0
   36.3730   27.0860   39.1040 H   0  0  0  0  0  0  0  0  0  0  0  0
   37.3470   25.9480   40.6220 C   0  0  0  0  0  0  0  0  0  0  0  0
   37.9200   24.8880   40.0190 N   0  0  0  0  0  0  0  0  0  0  0  0
   38.5440   24.1580   40.9900 C   0  0  0  0  0  0  0  0  0  0  0  0
   39.1030   23.2320   40.8140 H   0  0  0  0  0  0  0  0  0  0  0  0
   38.3740   24.7430   42.1940 N   0  0  0  0  0  0  0  0  0  0  0  0
   37.6340   25.8520   41.9830 C   0  0  0  0  0  0  0  0  0  0  0  0
   37.1920   26.7870   42.8890 C   0  0  0  0  0  3  0  0  0  0  0  0
   37.8960   24.6590   38.9980 H   0  0  0  0  0  0  0  0  0  0  0  0
   37.4340   32.0900   40.6060 C   0  0  0  0  0  0  0  0  0  0  0  0
   37.7690   32.2990   39.2630 C   0  0  0  0  0  0  0  0  0  0  0  0
   37.2570   31.4010   38.3380 C   0  0  0  0  0  0  0  0  0  0  0  0
   36.4750   30.3850   38.7620 N   0  0  0  0  0  0  0  0  0  0  0  0
   36.1750   30.2180   40.0590 C   0  0  0  0  0  0  0  0  0  0  0  0
   36.6540   31.0730   41.0020 N   0  0  0  0  0  0  0  0  0  0  0  0
   37.8090   32.7650   41.3660 H   0  0  0  0  0  0  0  0  0  0  0  0
   37.5240   31.5740   37.3110 H   0  0  0  0  0  0  0  0  0  0  0  0
   38.5990   33.4090   38.9880 N   0  0  0  0  0  0  0  0  0  0  0  0
   39.5780   33.6550   39.2380 H   0  0  0  0  0  0  0  0  0  0  0  0
   38.0800   34.1100   38.4060 H   0  0  0  0  0  0  0  0  0  0  0  0
  1  5  1  0  0  0  0
  1  3  1  0  0  0  0
  2  1  1  0  0  0  0
  4 14  1  0  0  0  0
  5  4  2  0  0  0  0
  6  8  2  0  0  0  0
  6  5  1  0  0  0  0
  7  6  1  0  0  0  0
  8 13  1  0  0  0  0
  9  8  1  0  0  0  0
  9 10  1  0  0  0  0
 10 12  2  0  0  0  0
 11 10  1  0  0  0  0
 13 12  1  0  0  0  0
 13 14  2  0  0  0  0
 15  9  1  0  0  0  0
 16 21  1  0  0  0  0
 16 22  1  0  0  0  0
 17 16  2  0  0  0  0
 18 19  2  0  0  0  0
 18 17  1  0  0  0  0
 19 20  1  0  0  0  0
 20  1  1  0  0  0  0
 20 21  2  0  0  0  0
 23 18  1  0  0  0  0
 24 25  1  0  0  0  0
 24 17  1  0  0  0  0
 26 24  1  0  0  0  0
M  END
>  <minimizedAffinity>
-4.92631674

$$$$

 OpenBabel03242518183D

 26 28  0  0  0  0  0  0  0  0999 V2000
   37.6520   29.0630   43.2070 C   0  0  0  0  0  0  0  0  0  0  0  0
   36.6020   29.0430   43.6230 H   0  0  0  0  0  0  0  0  0  0  0  0
   38.3760   29.3860   43.9570 H   0  0  0  0  0  0  0  0  0  0  0  0
   39.2460   27.1450   43.1840 C   0  0  0  0  0  3  0  0  0  0  0  0
   37.9920   27.6480   42.8270 C   0  0  0  0  0  0  0  0  0  0  0  0
   37.0880   26.8580   42.1420 C   0  0  0  0  0  0  0  0  0  0  0  0
   36.1210   27.2470   41.8660 H   0  0  0  0  0  0  0  0  0  0  0  0
   37.4370   25.5690   41.8140 C   0  0  0  0  0  0  0  0  0  0  0  0
   36.7930   24.5780   41.1660 N   0  0  0  0  0  0  0  0  0  0  0  0
   37.6350   23.5030   41.1320 C   0  0  0  0  0  0  0  0  0  0  0  0
   37.3980   22.5390   40.6700 H   0  0  0  0  0  0  0  0  0  0  0  0
   38.7980   23.8030   41.7470 N   0  0  0  0  0  0  0  0  0  0  0  0
   38.6910   25.0790   42.1750 C   0  0  0  0  0  0  0  0  0  0  0  0
   39.6050   25.8460   42.8570 C   0  0  0  0  0  3  0  0  0  0  0  0
   35.8290   24.6160   40.7620 H   0  0  0  0  0  0  0  0  0  0  0  0
   38.9520   31.1700   40.5390 C   0  0  0  0  0  0  0  0  0  0  0  0
   37.8150   31.6220   39.8570 C   0  0  0  0  0  0  0  0  0  0  0  0
   36.5840   31.1900   40.3290 C   0  0  0  0  0  0  0  0  0  0  0  0
   36.5340   30.3700   41.4010 N   0  0  0  0  0  0  0  0  0  0  0  0
   37.6460   29.9590   42.0280 C   0  0  0  0  0  0  0  0  0  0  0  0
   38.8750   30.3560   41.6020 N   0  0  0  0  0  0  0  0  0  0  0  0
   39.9360   31.4790   40.2080 H   0  0  0  0  0  0  0  0  0  0  0  0
   35.7210   31.5450   39.7940 H   0  0  0  0  0  0  0  0  0  0  0  0
   38.0420   32.4740   38.7530 N   0  0  0  0  0  0  0  0  0  0  0  0
   38.5070   32.3500   37.8320 H   0  0  0  0  0  0  0  0  0  0  0  0
   37.6410   33.4240   38.9450 H   0  0  0  0  0  0  0  0  0  0  0  0
  1  2  1  0  0  0  0
  1  3  1  0  0  0  0
  5  4  2  0  0  0  0
  5  1  1  0  0  0  0
  6  5  1  0  0  0  0
  7  6  1  0  0  0  0
  8  6  2  0  0  0  0
  8 13  1  0  0  0  0
  9  8  1  0  0  0  0
 10  9  1  0  0  0  0
 10 12  2  0  0  0  0
 11 10  1  0  0  0  0
 12 13  1  0  0  0  0
 13 14  2  0  0  0  0
 14  4  1  0  0  0  0
 15  9  1  0  0  0  0
 16 21  1  0  0  0  0
 17 18  1  0  0  0  0
 17 16  2  0  0  0  0
 18 19  2  0  0  0  0
 19 20  1  0  0  0  0
 20  1  1  0  0  0  0
 21 20  2  0  0  0  0
 22 16  1  0  0  0  0
 23 18  1  0  0  0  0
 24 26  1  0  0  0  0
 24 17  1  0  0  0  0
 25 24  1  0  0  0  0
M  END
>  <minimizedAffinity>
-4.92247343

$$$$
