
 OpenBabel03252508323D

 35 38  0  0  1  0  0  0  0  0999 V2000
   43.7400   34.2160   41.3070 N   0  0  0  0  0  0  0  0  0  0  0  0
   43.4680   32.9080   40.8070 C   0  0  2  0  0  0  0  0  0  0  0  0
   42.9790   32.9370   39.3780 C   0  0  0  0  0  0  0  0  0  0  0  0
   41.8880   33.8450   39.2070 N   0  0  0  0  0  0  0  0  0  0  0  0
   42.0860   35.1240   39.7700 C   0  0  0  0  0  0  0  0  0  0  0  0
   43.4520   35.3040   40.3940 C   0  0  0  0  0  0  0  0  0  0  0  0
   44.4350   32.3470   40.8020 H   0  0  0  0  0  0  0  0  0  0  0  0
   43.8250   33.2900   38.7520 H   0  0  0  0  0  0  0  0  0  0  0  0
   42.6890   31.9450   39.0370 H   0  0  0  0  0  0  0  0  0  0  0  0
   41.0300   33.4100   39.6280 H   0  0  0  0  0  0  0  0  0  0  0  0
   41.3390   35.4540   40.5200 H   0  0  0  0  0  0  0  0  0  0  0  0
   42.0420   35.8670   38.9290 H   0  0  0  0  0  0  0  0  0  0  0  0
   44.1780   35.1660   39.5410 H   0  0  0  0  0  0  0  0  0  0  0  0
   43.4780   36.2990   40.8110 H   0  0  0  0  0  0  0  0  0  0  0  0
   41.1420   32.3210   41.5640 C   0  0  0  0  0  0  0  0  0  0  0  0
   42.5070   32.1020   41.5640 C   0  0  0  0  0  0  0  0  0  0  0  0
   42.8440   31.0010   42.3650 C   0  0  0  0  0  0  0  0  0  0  0  0
   43.9110   30.7400   42.4340 H   0  0  0  0  0  0  0  0  0  0  0  0
   41.9650   30.2210   43.0670 C   0  0  0  0  0  0  0  0  0  0  0  0
   42.1600   29.1520   43.8600 N   0  0  0  0  0  0  0  0  0  0  0  0
   40.9490   28.7680   44.3000 C   0  0  0  0  0  0  0  0  0  0  0  0
   40.8600   27.9020   44.9730 H   0  0  0  0  0  0  0  0  0  0  0  0
   40.0290   29.5940   43.7820 N   0  0  0  0  0  0  0  0  0  0  0  0
   40.6240   30.5110   43.0090 C   0  0  0  0  0  0  0  0  0  0  0  0
   40.2010   31.5790   42.2460 C   0  0  0  0  0  0  0  0  0  0  0  0
   43.0920   28.7100   44.0830 H   0  0  0  0  0  0  0  0  0  0  0  0
   43.9560   35.5240   43.3250 C   0  0  0  0  0  0  0  0  0  0  0  0
   44.2620   34.3680   42.6220 C   0  0  0  0  0  0  0  0  0  0  0  0
   45.0500   33.4320   43.2550 C   0  0  0  0  0  0  0  0  0  0  0  0
   45.4860   33.6690   44.5110 N   0  0  0  0  0  0  0  0  0  0  0  0
   45.1750   34.7990   45.1730 C   0  0  0  0  0  0  0  0  0  0  0  0
   44.4160   35.7100   44.5760 N   0  0  0  0  0  0  0  0  0  0  0  0
   43.3570   36.3530   42.9860 H   0  0  0  0  0  0  0  0  0  0  0  0
   45.3210   32.5270   42.7540 H   0  0  0  0  0  0  0  0  0  0  0  0
   45.5980   34.8450   46.1720 H   0  0  0  0  0  0  0  0  0  0  0  0
  1 28  1  0  0  0  0
  2  7  1  1  0  0  0
  2  1  1  0  0  0  0
  2 16  1  0  0  0  0
  3  2  1  0  0  0  0
  4  3  1  0  0  0  0
  4 10  1  0  0  0  0
  4  5  1  0  0  0  0
  5  6  1  0  0  0  0
  5 11  1  0  0  0  0
  6 14  1  0  0  0  0
  6  1  1  0  0  0  0
  8  3  1  0  0  0  0
  9  3  1  0  0  0  0
 12  5  1  0  0  0  0
 13  6  1  0  0  0  0
 15 16  2  0  0  0  0
 15 25  1  0  0  0  0
 16 17  1  0  0  0  0
 17 18  1  0  0  0  0
 17 19  2  0  0  0  0
 19 20  1  0  0  0  0
 20 26  1  0  0  0  0
 20 21  1  0  0  0  0
 21 22  1  0  0  0  0
 23 21  2  0  0  0  0
 24 19  1  0  0  0  0
 24 23  1  0  0  0  0
 25 24  2  0  0  0  0
 27 32  1  0  0  0  0
 28 29  1  0  0  0  0
 28 27  2  0  0  0  0
 29 30  2  0  0  0  0
 30 31  1  0  0  0  0
 31 35  1  0  0  0  0
 32 31  2  0  0  0  0
 33 27  1  0  0  0  0
 34 29  1  0  0  0  0
M  END
>  <minimizedAffinity>
-4.67212534

>  <minimizedRMSD>
1.73156393

$$$$
