REMARK  Name = 
REMARK  3 active torsions:
REMARK  status: ('A' for Active; 'I' for Inactive)
REMARK    1  A    between atoms: C_2  and  C_14
REMARK    2  A    between atoms: C_9  and  C_16
REMARK    3  A    between atoms: C_19  and  C_31
REMARK                            x       y       z     vdW  Elec       q    Type
REMARK                         _______ _______ _______ _____ _____    ______ ____
ROOT
ATOM      1  C   UNL     1      47.265  31.388  45.142  0.00  0.00    +0.000 A 
ATOM      2  C   UNL     1      46.870  32.722  45.131  0.00  0.00    +0.000 A 
ATOM      3  C   UNL     1      46.241  33.318  46.198  0.00  0.00    +0.000 A 
ATOM      4  C   UNL     1      45.969  32.596  47.353  0.00  0.00    +0.000 A 
ATOM      5  N   UNL     1      45.382  32.849  48.562  0.00  0.00    +0.000 N 
ATOM      6  C   UNL     1      45.414  31.705  49.295  0.00  0.00    +0.000 A 
ATOM      7  N   UNL     1      46.015  30.769  48.536  0.00  0.00    +0.000 NA
ATOM      8  C   UNL     1      46.363  31.281  47.350  0.00  0.00    +0.000 A 
ATOM      9  C   UNL     1      46.989  30.658  46.311  0.00  0.00    +0.000 A 
ATOM     10  H   UNL     1      47.761  30.911  44.307  0.00  0.00    +0.000 HD
ATOM     11  H   UNL     1      45.932  34.356  46.194  0.00  0.00    +0.000 HD
ATOM     12  H   UNL     1      45.000  33.799  48.791  0.00  0.00    +0.000 HD
ATOM     13  H   UNL     1      45.011  31.635  50.298  0.00  0.00    +0.000 HD
ENDROOT
BRANCH   2  18
ATOM     14  C   UNL     1      46.481  35.189  42.436  0.00  0.00    +0.000 A 
ATOM     15  C   UNL     1      47.664  35.018  41.699  0.00  0.00    +0.000 A 
ATOM     16  C   UNL     1      48.576  34.063  42.131  0.00  0.00    +0.000 A 
ATOM     17  N   UNL     1      48.289  33.328  43.257  0.00  0.00    +0.000 NA
ATOM     18  C   UNL     1      47.133  33.527  43.940  0.00  0.00    +0.000 A 
ATOM     19  N   UNL     1      46.233  34.443  43.545  0.00  0.00    +0.000 NA
ATOM     20  H   UNL     1      45.758  35.926  42.117  0.00  0.00    +0.000 HD
ATOM     21  H   UNL     1      47.848  35.615  40.823  0.00  0.00    +0.000 HD
ATOM     22  H   UNL     1      49.485  33.920  41.579  0.00  0.00    +0.000 HD
ENDBRANCH   2  18
BRANCH   9  23
ATOM     23  C   UNL     1      47.378  29.235  46.399  0.00  0.00    +0.000 A 
ATOM     24  C   UNL     1      48.681  28.797  46.613  0.00  0.00    +0.000 A 
ATOM     25  C   UNL     1      48.549  27.401  46.618  0.00  0.00    +0.000 A 
ATOM     26  C   UNL     1      47.215  27.083  46.413  0.00  0.00    +0.000 A 
ATOM     27  O   UNL     1      46.563  28.227  46.288  0.00  0.00    +0.000 OA
ATOM     28  H   UNL     1      49.524  29.462  46.734  0.00  0.00    +0.000 HD
ATOM     29  H   UNL     1      49.409  26.755  46.766  0.00  0.00    +0.000 HD
BRANCH  26  31
ATOM     30  C   UNL     1      46.641  25.003  45.179  0.00  0.00    +0.000 A 
ATOM     31  C   UNL     1      46.712  25.715  46.358  0.00  0.00    +0.000 A 
ATOM     32  C   UNL     1      46.286  25.096  47.536  0.00  0.00    +0.000 A 
ATOM     33  H   UNL     1      46.315  25.601  48.503  0.00  0.00    +0.000 HD
ATOM     34  C   UNL     1      45.816  23.801  47.446  0.00  0.00    +0.000 A 
ATOM     35  N   UNL     1      45.332  22.908  48.356  0.00  0.00    +0.000 N 
ATOM     36  C   UNL     1      44.996  21.747  47.763  0.00  0.00    +0.000 A 
ATOM     37  H   UNL     1      44.597  20.943  48.359  0.00  0.00    +0.000 HD
ATOM     38  N   UNL     1      45.263  21.877  46.442  0.00  0.00    +0.000 NA
ATOM     39  C   UNL     1      45.754  23.104  46.248  0.00  0.00    +0.000 A 
ATOM     40  C   UNL     1      46.177  23.724  45.094  0.00  0.00    +0.000 A 
ATOM     41  H   UNL     1      45.264  23.172  49.368  0.00  0.00    +0.000 HD
ENDBRANCH  26  31
ENDBRANCH   9  23
TORSDOF 3
