
 OpenBabel03252508393D

 44 48  0  0  0  0  0  0  0  0999 V2000
   45.1100   33.9720   40.7430 C   0  0  0  0  0  0  0  0  0  0  0  0
   44.0640   33.6250   39.9390 C   0  0  0  0  0  0  0  0  0  0  0  0
   44.3640   33.0880   38.7160 C   0  0  0  0  0  0  0  0  0  0  0  0
   45.6480   32.8840   38.2650 C   0  0  0  0  0  0  0  0  0  0  0  0
   46.6770   33.2490   39.1090 C   0  0  0  0  0  0  0  0  0  0  0  0
   46.4260   33.7950   40.3550 C   0  0  0  0  0  0  0  0  0  0  0  0
   43.5410   32.8090   38.0710 H   0  0  0  0  0  0  0  0  0  0  0  0
   45.8160   32.4610   37.3000 H   0  0  0  0  0  0  0  0  0  0  0  0
   47.7010   33.0920   38.7590 H   0  0  0  0  0  0  0  0  0  0  0  0
   40.7850   35.2900   40.8140 C   0  0  0  0  0  0  0  0  0  0  0  0
   42.0870   35.1100   40.3050 C   0  0  0  0  0  0  0  0  0  0  0  0
   42.7210   33.8540   40.4500 C   0  0  0  0  0  0  0  0  0  0  0  0
   41.9960   32.9140   41.0840 N   0  0  0  0  0  0  0  0  0  0  0  0
   40.7680   33.1050   41.5570 C   0  0  0  0  0  0  0  0  0  0  0  0
   40.1650   34.2960   41.4210 N   0  0  0  0  0  0  0  0  0  0  0  0
   40.1990   36.5730   40.6400 N   0  0  0  0  0  0  0  0  0  0  0  0
   42.6320   35.9010   39.8000 H   0  0  0  0  0  0  0  0  0  0  0  0
   40.2400   32.3010   42.0600 H   0  0  0  0  0  0  0  0  0  0  0  0
   39.9150   37.0620   39.7490 H   0  0  0  0  0  0  0  0  0  0  0  0
   39.9800   37.1960   41.4490 H   0  0  0  0  0  0  0  0  0  0  0  0
   47.5790   34.1440   41.1580 C   0  0  0  0  0  0  0  0  0  0  0  0
   48.1430   35.3780   40.8870 C   0  0  0  0  0  0  0  0  0  0  0  0
   49.2530   35.8920   41.5500 C   0  0  0  0  0  0  0  0  0  0  0  0
   49.8140   35.1000   42.5410 C   0  0  0  0  0  0  0  0  0  0  0  0
   49.2690   33.8630   42.8310 C   0  0  0  0  0  0  0  0  0  0  0  0
   48.1650   33.3990   42.1430 C   0  0  0  0  0  0  0  0  0  0  0  0
   47.7700   36.0700   40.1260 H   0  0  0  0  0  0  0  0  0  0  0  0
   49.6900   36.8400   41.3450 H   0  0  0  0  0  0  0  0  0  0  0  0
   50.6800   35.4420   43.0940 H   0  0  0  0  0  0  0  0  0  0  0  0
   49.6650   33.1950   43.5980 H   0  0  0  0  0  0  0  0  0  0  0  0
   46.8830   32.0930   43.6450 C   0  0  0  0  0  3  0  0  0  0  0  0
   47.5750   32.1000   42.4290 C   0  0  0  0  0  0  0  0  0  0  0  0
   47.5930   30.9230   41.7090 C   0  0  0  0  0  0  0  0  0  0  0  0
   48.1480   31.0210   40.7860 H   0  0  0  0  0  0  0  0  0  0  0  0
   46.9480   29.8090   42.1940 C   0  0  0  0  0  0  0  0  0  0  0  0
   46.8540   28.5940   41.6500 N   0  0  0  0  0  0  0  0  0  0  0  0
   46.1210   27.8110   42.4810 C   0  0  0  0  0  0  0  0  0  0  0  0
   45.8680   26.7670   42.3150 H   0  0  0  0  0  0  0  0  0  0  0  0
   45.7700   28.5710   43.5450 N   0  0  0  0  0  0  0  0  0  0  0  0
   46.2790   29.8150   43.3760 C   0  0  0  0  0  0  0  0  0  0  0  0
   46.2320   30.9670   44.1330 C   0  0  0  0  0  3  0  0  0  0  0  0
   47.2590   28.2620   40.7410 H   0  0  0  0  0  0  0  0  0  0  0  0
   44.6990   35.0250   43.1110 N   0  0  0  0  0  0  0  0  0  0  0  0
   44.8780   34.5490   42.0520 C   0  0  0  0  0  0  0  0  0  0  0  0
  1 44  1  0  0  0  0
  2 12  1  0  0  0  0
  2  1  2  0  0  0  0
  3  2  1  0  0  0  0
  4  3  2  0  0  0  0
  4  5  1  0  0  0  0
  5  6  2  0  0  0  0
  6  1  1  0  0  0  0
  6 21  1  0  0  0  0
  7  3  1  0  0  0  0
  8  4  1  0  0  0  0
  9  5  1  0  0  0  0
 10 15  1  0  0  0  0
 11 12  1  0  0  0  0
 11 10  2  0  0  0  0
 12 13  2  0  0  0  0
 13 14  1  0  0  0  0
 14 18  1  0  0  0  0
 15 14  2  0  0  0  0
 16 10  1  0  0  0  0
 16 20  1  0  0  0  0
 17 11  1  0  0  0  0
 19 16  1  0  0  0  0
 21 26  1  0  0  0  0
 22 21  2  0  0  0  0
 22 23  1  0  0  0  0
 23 24  2  0  0  0  0
 24 25  1  0  0  0  0
 24 29  1  0  0  0  0
 25 30  1  0  0  0  0
 26 32  1  0  0  0  0
 26 25  2  0  0  0  0
 27 22  1  0  0  0  0
 28 23  1  0  0  0  0
 31 41  1  0  0  0  0
 32 31  2  0  0  0  0
 33 35  2  0  0  0  0
 33 32  1  0  0  0  0
 34 33  1  0  0  0  0
 35 40  1  0  0  0  0
 36 35  1  0  0  0  0
 36 37  1  0  0  0  0
 37 39  2  0  0  0  0
 38 37  1  0  0  0  0
 40 39  1  0  0  0  0
 40 41  2  0  0  0  0
 42 36  1  0  0  0  0
 44 43  3  0  0  0  0
M  END
>  <minimizedAffinity>
-6.13171625

>  <minimizedRMSD>
0.564394712

$$$$
