
 OpenBabel03252500533D

 27 29  0  0  0  0  0  0  0  0999 V2000
   37.1520   28.0700   40.9710 C   0  0  0  0  0  0  0  0  0  0  0  0
   37.4720   29.2090   41.6890 C   0  0  0  0  0  0  0  0  0  0  0  0
   37.5660   29.0950   43.0970 C   0  0  0  0  0  0  0  0  0  0  0  0
   37.3390   27.8830   43.6610 N   0  0  0  0  0  0  0  0  0  0  0  0
   37.0290   26.8020   42.9200 C   0  0  0  0  0  0  0  0  0  0  0  0
   36.9380   26.8950   41.5990 N   0  0  0  0  0  0  0  0  0  0  0  0
   37.8090   29.9100   43.7650 H   0  0  0  0  0  0  0  0  0  0  0  0
   36.8510   25.8400   43.4040 H   0  0  0  0  0  0  0  0  0  0  0  0
   36.9320   31.3970   40.4450 C   0  0  0  0  0  3  0  0  0  0  0  0
   37.7120   30.5150   41.1590 C   0  0  0  0  0  0  0  0  0  0  0  0
   39.0140   30.9790   41.4160 C   0  0  0  0  0  0  0  0  0  0  0  0
   39.7630   30.4000   41.9730 H   0  0  0  0  0  0  0  0  0  0  0  0
   39.4870   32.2000   41.0020 C   0  0  0  0  0  0  0  0  0  0  0  0
   40.6560   32.8550   41.1180 N   0  0  0  0  0  0  0  0  0  0  0  0
   40.5870   34.0540   40.5140 C   0  0  0  0  0  0  0  0  0  0  0  0
   41.3210   34.8290   40.4110 H   0  0  0  0  0  0  0  0  0  0  0  0
   39.3310   34.1540   40.0010 N   0  0  0  0  0  0  0  0  0  0  0  0
   38.6470   33.0310   40.2910 C   0  0  0  0  0  0  0  0  0  0  0  0
   37.3610   32.6300   40.0090 C   0  0  0  0  0  3  0  0  0  0  0  0
   41.5100   32.5030   41.6040 H   0  0  0  0  0  0  0  0  0  0  0  0
   37.0480   28.0970   39.5180 C   0  0  0  0  0  0  0  0  0  0  0  0
   37.5030   27.1810   39.0970 H   0  0  0  0  0  0  0  0  0  0  0  0
   37.6310   28.9350   39.0870 H   0  0  0  0  0  0  0  0  0  0  0  0
   35.5850   28.1880   39.1240 C   0  0  0  0  0  0  0  0  0  0  0  0
   35.4790   29.1200   38.4910 H   0  0  0  0  0  0  0  0  0  0  0  0
   34.9000   28.3040   39.9610 H   0  0  0  0  0  0  0  0  0  0  0  0
   35.3100   27.3760   38.3980 H   0  0  0  0  0  0  0  0  0  0  0  0
  1  6  2  0  0  0  0
  1  2  1  0  0  0  0
  2  3  2  0  0  0  0
  3  4  1  0  0  0  0
  3  7  1  0  0  0  0
  5  8  1  0  0  0  0
  5  4  2  0  0  0  0
  6  5  1  0  0  0  0
  9 10  1  0  0  0  0
 10 11  2  0  0  0  0
 10  2  1  0  0  0  0
 11 12  1  0  0  0  0
 13 14  1  0  0  0  0
 13 11  1  0  0  0  0
 14 20  1  0  0  0  0
 15 14  1  0  0  0  0
 16 15  1  0  0  0  0
 17 18  1  0  0  0  0
 17 15  2  0  0  0  0
 18 13  2  0  0  0  0
 19 18  1  0  0  0  0
 19  9  2  0  0  0  0
 21  1  1  0  0  0  0
 22 21  1  0  0  0  0
 23 21  1  0  0  0  0
 24 21  1  0  0  0  0
 24 26  1  0  0  0  0
 25 24  1  0  0  0  0
 27 24  1  0  0  0  0
M  END
>  <minimizedAffinity>
-4.88367796

$$$$

 OpenBabel03252500533D

 27 29  0  0  0  0  0  0  0  0999 V2000
   38.6340   27.7640   42.7900 C   0  0  0  0  0  0  0  0  0  0  0  0
   38.9640   28.3910   41.6020 C   0  0  0  0  0  0  0  0  0  0  0  0
   39.9510   27.7850   40.7880 C   0  0  0  0  0  0  0  0  0  0  0  0
   40.5160   26.6290   41.2160 N   0  0  0  0  0  0  0  0  0  0  0  0
   40.1630   26.0550   42.3830 C   0  0  0  0  0  0  0  0  0  0  0  0
   39.2380   26.6140   43.1550 N   0  0  0  0  0  0  0  0  0  0  0  0
   40.2930   28.1760   39.8400 H   0  0  0  0  0  0  0  0  0  0  0  0
   40.6380   25.1250   42.7010 H   0  0  0  0  0  0  0  0  0  0  0  0
   37.2570   29.9110   40.4160 C   0  0  0  0  0  3  0  0  0  0  0  0
   38.4160   29.6120   41.0980 C   0  0  0  0  0  0  0  0  0  0  0  0
   39.2390   30.7240   41.3460 C   0  0  0  0  0  0  0  0  0  0  0  0
   40.1980   30.6600   41.8790 H   0  0  0  0  0  0  0  0  0  0  0  0
   38.9340   32.0040   40.9530 C   0  0  0  0  0  0  0  0  0  0  0  0
   39.5370   33.2020   41.0660 N   0  0  0  0  0  0  0  0  0  0  0  0
   38.7920   34.1610   40.4910 C   0  0  0  0  0  0  0  0  0  0  0  0
   38.9620   35.2160   40.3940 H   0  0  0  0  0  0  0  0  0  0  0  0
   37.6840   33.5430   39.9990 N   0  0  0  0  0  0  0  0  0  0  0  0
   37.7560   32.2280   40.2730 C   0  0  0  0  0  0  0  0  0  0  0  0
   36.9090   31.1770   40.0020 C   0  0  0  0  0  3  0  0  0  0  0  0
   40.4540   33.3850   41.5320 H   0  0  0  0  0  0  0  0  0  0  0  0
   37.6200   28.3140   43.6790 C   0  0  0  0  0  0  0  0  0  0  0  0
   37.3390   29.3290   43.3380 H   0  0  0  0  0  0  0  0  0  0  0  0
   38.0150   28.4530   44.7050 H   0  0  0  0  0  0  0  0  0  0  0  0
   36.4070   27.4020   43.6780 C   0  0  0  0  0  0  0  0  0  0  0  0
   36.2370   27.0890   44.7520 H   0  0  0  0  0  0  0  0  0  0  0  0
   36.5350   26.4840   43.1070 H   0  0  0  0  0  0  0  0  0  0  0  0
   35.4690   27.9760   43.4470 H   0  0  0  0  0  0  0  0  0  0  0  0
  1  6  1  0  0  0  0
  1 21  1  0  0  0  0
  2  1  2  0  0  0  0
  3  4  2  0  0  0  0
  3  2  1  0  0  0  0
  4  5  1  0  0  0  0
  5  8  1  0  0  0  0
  5  6  2  0  0  0  0
  7  3  1  0  0  0  0
  9 10  1  0  0  0  0
 10 11  2  0  0  0  0
 10  2  1  0  0  0  0
 11 12  1  0  0  0  0
 13 14  1  0  0  0  0
 13 11  1  0  0  0  0
 14 20  1  0  0  0  0
 15 14  1  0  0  0  0
 16 15  1  0  0  0  0
 17 18  1  0  0  0  0
 17 15  2  0  0  0  0
 18 13  2  0  0  0  0
 19 18  1  0  0  0  0
 19  9  2  0  0  0  0
 21 23  1  0  0  0  0
 22 21  1  0  0  0  0
 24 21  1  0  0  0  0
 24 25  1  0  0  0  0
 26 24  1  0  0  0  0
 27 24  1  0  0  0  0
M  END
>  <minimizedAffinity>
-4.75889254

$$$$

 OpenBabel03252500533D

 27 29  0  0  0  0  0  0  0  0999 V2000
   37.1650   31.1500   40.7140 C   0  0  0  0  0  0  0  0  0  0  0  0
   38.2500   30.6770   41.4310 C   0  0  0  0  0  0  0  0  0  0  0  0
   39.3740   31.5270   41.5640 C   0  0  0  0  0  0  0  0  0  0  0  0
   39.3250   32.7520   40.9850 N   0  0  0  0  0  0  0  0  0  0  0  0
   38.2460   33.1700   40.2950 C   0  0  0  0  0  0  0  0  0  0  0  0
   37.1850   32.3810   40.1640 N   0  0  0  0  0  0  0  0  0  0  0  0
   40.2780   31.2730   42.0990 H   0  0  0  0  0  0  0  0  0  0  0  0
   38.2370   34.1620   39.8400 H   0  0  0  0  0  0  0  0  0  0  0  0
   37.8890   28.8790   43.2380 C   0  0  0  0  0  3  0  0  0  0  0  0
   38.3700   29.3960   42.0560 C   0  0  0  0  0  0  0  0  0  0  0  0
   39.1460   28.4930   41.3080 C   0  0  0  0  0  0  0  0  0  0  0  0
   39.6030   28.7460   40.3420 H   0  0  0  0  0  0  0  0  0  0  0  0
   39.4130   27.2050   41.7020 C   0  0  0  0  0  0  0  0  0  0  0  0
   40.1070   26.1770   41.1810 N   0  0  0  0  0  0  0  0  0  0  0  0
   40.0490   25.1080   41.9940 C   0  0  0  0  0  0  0  0  0  0  0  0
   40.4790   24.1310   41.8980 H   0  0  0  0  0  0  0  0  0  0  0  0
   39.2930   25.4800   43.0630 N   0  0  0  0  0  0  0  0  0  0  0  0
   38.8970   26.7560   42.8990 C   0  0  0  0  0  0  0  0  0  0  0  0
   38.1300   27.5960   43.6750 C   0  0  0  0  0  3  0  0  0  0  0  0
   40.6240   26.1840   40.2740 H   0  0  0  0  0  0  0  0  0  0  0  0
   35.9640   30.3440   40.5410 C   0  0  0  0  0  0  0  0  0  0  0  0
   35.0680   30.9800   40.6780 H   0  0  0  0  0  0  0  0  0  0  0  0
   35.8860   29.5630   41.3230 H   0  0  0  0  0  0  0  0  0  0  0  0
   35.9690   29.7320   39.1530 C   0  0  0  0  0  0  0  0  0  0  0  0
   35.9050   28.6100   39.2940 H   0  0  0  0  0  0  0  0  0  0  0  0
   36.8770   29.9190   38.5820 H   0  0  0  0  0  0  0  0  0  0  0  0
   35.0130   29.9570   38.6070 H   0  0  0  0  0  0  0  0  0  0  0  0
  1  2  1  0  0  0  0
  2  3  2  0  0  0  0
  2 10  1  0  0  0  0
  3  7  1  0  0  0  0
  4  3  1  0  0  0  0
  5  4  2  0  0  0  0
  6  5  1  0  0  0  0
  6  1  2  0  0  0  0
  8  5  1  0  0  0  0
  9 19  1  0  0  0  0
 10  9  2  0  0  0  0
 11 13  2  0  0  0  0
 11 10  1  0  0  0  0
 12 11  1  0  0  0  0
 13 18  1  0  0  0  0
 14 13  1  0  0  0  0
 14 15  1  0  0  0  0
 15 17  2  0  0  0  0
 16 15  1  0  0  0  0
 18 17  1  0  0  0  0
 18 19  2  0  0  0  0
 20 14  1  0  0  0  0
 21 22  1  0  0  0  0
 21  1  1  0  0  0  0
 21 23  1  0  0  0  0
 24 25  1  0  0  0  0
 24 21  1  0  0  0  0
 26 24  1  0  0  0  0
 27 24  1  0  0  0  0
M  END
>  <minimizedAffinity>
-4.69172001

$$$$

 OpenBabel03252500533D

 27 29  0  0  0  0  0  0  0  0999 V2000
   37.4880   29.0670   41.9670 C   0  0  0  0  0  0  0  0  0  0  0  0
   36.8340   28.0750   41.2590 C   0  0  0  0  0  0  0  0  0  0  0  0
   35.8050   28.4670   40.3700 C   0  0  0  0  0  0  0  0  0  0  0  0
   35.5180   29.7880   40.2620 N   0  0  0  0  0  0  0  0  0  0  0  0
   36.1820   30.7200   40.9730 C   0  0  0  0  0  0  0  0  0  0  0  0
   37.1500   30.3640   41.8100 N   0  0  0  0  0  0  0  0  0  0  0  0
   35.2230   27.7870   39.7630 H   0  0  0  0  0  0  0  0  0  0  0  0
   35.9270   31.7760   40.8640 H   0  0  0  0  0  0  0  0  0  0  0  0
   36.9430   25.7440   42.3460 C   0  0  0  0  0  3  0  0  0  0  0  0
   37.0790   26.6670   41.3340 C   0  0  0  0  0  0  0  0  0  0  0  0
   37.5670   26.1320   40.1300 C   0  0  0  0  0  0  0  0  0  0  0  0
   37.7320   26.7320   39.2250 H   0  0  0  0  0  0  0  0  0  0  0  0
   37.8840   24.8070   39.9550 C   0  0  0  0  0  0  0  0  0  0  0  0
   38.3540   24.0700   38.9320 N   0  0  0  0  0  0  0  0  0  0  0  0
   38.4920   22.7850   39.3010 C   0  0  0  0  0  0  0  0  0  0  0  0
   38.8360   21.9320   38.7500 H   0  0  0  0  0  0  0  0  0  0  0  0
   38.0960   22.7140   40.6010 N   0  0  0  0  0  0  0  0  0  0  0  0
   37.7220   23.9400   41.0140 C   0  0  0  0  0  0  0  0  0  0  0  0
   37.2490   24.4070   42.2190 C   0  0  0  0  0  3  0  0  0  0  0  0
   38.5850   24.4240   37.9770 H   0  0  0  0  0  0  0  0  0  0  0  0
   38.5680   28.7510   42.8920 C   0  0  0  0  0  0  0  0  0  0  0  0
   38.7920   27.6680   42.8430 H   0  0  0  0  0  0  0  0  0  0  0  0
   38.2670   28.9360   43.9420 H   0  0  0  0  0  0  0  0  0  0  0  0
   39.7960   29.5610   42.5220 C   0  0  0  0  0  0  0  0  0  0  0  0
   40.0730   30.1640   43.4390 H   0  0  0  0  0  0  0  0  0  0  0  0
   39.6380   30.2770   41.7180 H   0  0  0  0  0  0  0  0  0  0  0  0
   40.6950   28.8980   42.3940 H   0  0  0  0  0  0  0  0  0  0  0  0
  1 21  1  0  0  0  0
  2 10  1  0  0  0  0
  2  1  2  0  0  0  0
  3  2  1  0  0  0  0
  4  3  2  0  0  0  0
  4  5  1  0  0  0  0
  5  6  2  0  0  0  0
  6  1  1  0  0  0  0
  7  3  1  0  0  0  0
  8  5  1  0  0  0  0
 10  9  2  0  0  0  0
 11 10  1  0  0  0  0
 12 11  1  0  0  0  0
 13 11  2  0  0  0  0
 13 18  1  0  0  0  0
 14 15  1  0  0  0  0
 14 13  1  0  0  0  0
 15 17  2  0  0  0  0
 16 15  1  0  0  0  0
 17 18  1  0  0  0  0
 18 19  2  0  0  0  0
 19  9  1  0  0  0  0
 20 14  1  0  0  0  0
 21 23  1  0  0  0  0
 22 21  1  0  0  0  0
 24 21  1  0  0  0  0
 24 25  1  0  0  0  0
 26 24  1  0  0  0  0
 27 24  1  0  0  0  0
M  END
>  <minimizedAffinity>
-4.68107748

$$$$

 OpenBabel03252500533D

 27 29  0  0  0  0  0  0  0  0999 V2000
   37.3230   26.6120   42.1600 C   0  0  0  0  0  0  0  0  0  0  0  0
   36.9960   27.3090   41.0110 C   0  0  0  0  0  0  0  0  0  0  0  0
   36.6200   26.5610   39.8700 C   0  0  0  0  0  0  0  0  0  0  0  0
   36.6010   25.2080   39.9660 N   0  0  0  0  0  0  0  0  0  0  0  0
   36.9280   24.5730   41.1070 C   0  0  0  0  0  0  0  0  0  0  0  0
   37.2820   25.2640   42.1850 N   0  0  0  0  0  0  0  0  0  0  0  0
   36.3440   26.9890   38.9160 H   0  0  0  0  0  0  0  0  0  0  0  0
   36.9030   23.4820   41.1530 H   0  0  0  0  0  0  0  0  0  0  0  0
   36.0560   29.7060   41.0370 C   0  0  0  0  0  3  0  0  0  0  0  0
   37.0070   28.7290   40.8390 C   0  0  0  0  0  0  0  0  0  0  0  0
   38.2370   29.2140   40.3630 C   0  0  0  0  0  0  0  0  0  0  0  0
   39.1010   28.5680   40.1540 H   0  0  0  0  0  0  0  0  0  0  0  0
   38.4920   30.5400   40.1110 C   0  0  0  0  0  0  0  0  0  0  0  0
   39.5530   31.2350   39.6650 N   0  0  0  0  0  0  0  0  0  0  0  0
   39.2640   32.5460   39.5980 C   0  0  0  0  0  0  0  0  0  0  0  0
   39.8640   33.3800   39.2900 H   0  0  0  0  0  0  0  0  0  0  0  0
   37.9760   32.6770   40.0160 N   0  0  0  0  0  0  0  0  0  0  0  0
   37.4910   31.4610   40.3330 C   0  0  0  0  0  0  0  0  0  0  0  0
   36.2640   31.0460   40.7990 C   0  0  0  0  0  3  0  0  0  0  0  0
   40.4820   30.8350   39.4030 H   0  0  0  0  0  0  0  0  0  0  0  0
   37.7070   27.3060   43.3820 C   0  0  0  0  0  0  0  0  0  0  0  0
   37.0700   26.9620   44.2200 H   0  0  0  0  0  0  0  0  0  0  0  0
   37.5190   28.3950   43.3040 H   0  0  0  0  0  0  0  0  0  0  0  0
   39.1670   27.0210   43.6790 C   0  0  0  0  0  0  0  0  0  0  0  0
   39.6890   28.0250   43.7280 H   0  0  0  0  0  0  0  0  0  0  0  0
   39.6790   26.4450   42.9110 H   0  0  0  0  0  0  0  0  0  0  0  0
   39.3000   26.6350   44.7260 H   0  0  0  0  0  0  0  0  0  0  0  0
  1  6  1  0  0  0  0
  1 21  1  0  0  0  0
  2  1  2  0  0  0  0
  3  4  2  0  0  0  0
  3  2  1  0  0  0  0
  4  5  1  0  0  0  0
  5  8  1  0  0  0  0
  5  6  2  0  0  0  0
  7  3  1  0  0  0  0
 10  2  1  0  0  0  0
 10  9  1  0  0  0  0
 11 10  2  0  0  0  0
 12 11  1  0  0  0  0
 13 18  2  0  0  0  0
 13 11  1  0  0  0  0
 14 13  1  0  0  0  0
 15 14  1  0  0  0  0
 15 17  2  0  0  0  0
 16 15  1  0  0  0  0
 17 18  1  0  0  0  0
 18 19  1  0  0  0  0
 19  9  2  0  0  0  0
 20 14  1  0  0  0  0
 21 24  1  0  0  0  0
 21 22  1  0  0  0  0
 23 21  1  0  0  0  0
 24 25  1  0  0  0  0
 24 27  1  0  0  0  0
 26 24  1  0  0  0  0
M  END
>  <minimizedAffinity>
-4.67958069

$$$$

 OpenBabel03252500533D

 27 29  0  0  0  0  0  0  0  0999 V2000
   38.9560   31.2530   41.6080 C   0  0  0  0  0  0  0  0  0  0  0  0
   37.8230   30.4930   41.3790 C   0  0  0  0  0  0  0  0  0  0  0  0
   36.8030   31.0560   40.5750 C   0  0  0  0  0  0  0  0  0  0  0  0
   36.9920   32.3030   40.0770 N   0  0  0  0  0  0  0  0  0  0  0  0
   38.1130   33.0060   40.3270 C   0  0  0  0  0  0  0  0  0  0  0  0
   39.0780   32.4880   41.0790 N   0  0  0  0  0  0  0  0  0  0  0  0
   35.8740   30.5630   40.3250 H   0  0  0  0  0  0  0  0  0  0  0  0
   38.2360   34.0080   39.9110 H   0  0  0  0  0  0  0  0  0  0  0  0
   37.3420   28.6880   43.1510 C   0  0  0  0  0  3  0  0  0  0  0  0
   37.5560   29.1810   41.8830 C   0  0  0  0  0  0  0  0  0  0  0  0
   37.5170   28.2050   40.8730 C   0  0  0  0  0  0  0  0  0  0  0  0
   37.6670   28.4310   39.8080 H   0  0  0  0  0  0  0  0  0  0  0  0
   37.2860   26.8720   41.1060 C   0  0  0  0  0  0  0  0  0  0  0  0
   37.2020   25.7720   40.3340 N   0  0  0  0  0  0  0  0  0  0  0  0
   36.9530   24.6870   41.0860 C   0  0  0  0  0  0  0  0  0  0  0  0
   36.8260   23.6580   40.8090 H   0  0  0  0  0  0  0  0  0  0  0  0
   36.8790   25.1200   42.3740 N   0  0  0  0  0  0  0  0  0  0  0  0
   37.0800   26.4500   42.4020 C   0  0  0  0  0  0  0  0  0  0  0  0
   37.1070   27.3610   43.4340 C   0  0  0  0  0  3  0  0  0  0  0  0
   37.3100   25.7440   39.2960 H   0  0  0  0  0  0  0  0  0  0  0  0
   40.0580   30.7440   42.4130 C   0  0  0  0  0  0  0  0  0  0  0  0
   39.6780   29.9860   43.1250 H   0  0  0  0  0  0  0  0  0  0  0  0
   40.4980   31.5400   43.0460 H   0  0  0  0  0  0  0  0  0  0  0  0
   41.1030   30.1310   41.4990 C   0  0  0  0  0  0  0  0  0  0  0  0
   42.0730   30.6770   41.7040 H   0  0  0  0  0  0  0  0  0  0  0  0
   40.8990   30.2540   40.4370 H   0  0  0  0  0  0  0  0  0  0  0  0
   41.3510   29.0810   41.8140 H   0  0  0  0  0  0  0  0  0  0  0  0
  1 21  1  0  0  0  0
  2  1  1  0  0  0  0
  2 10  1  0  0  0  0
  3  2  2  0  0  0  0
  4  5  2  0  0  0  0
  4  3  1  0  0  0  0
  5  6  1  0  0  0  0
  6  1  2  0  0  0  0
  7  3  1  0  0  0  0
  8  5  1  0  0  0  0
  9 19  1  0  0  0  0
 10  9  2  0  0  0  0
 11 13  2  0  0  0  0
 11 10  1  0  0  0  0
 12 11  1  0  0  0  0
 13 18  1  0  0  0  0
 14 15  1  0  0  0  0
 14 13  1  0  0  0  0
 15 17  2  0  0  0  0
 16 15  1  0  0  0  0
 17 18  1  0  0  0  0
 18 19  2  0  0  0  0
 20 14  1  0  0  0  0
 21 23  1  0  0  0  0
 21 22  1  0  0  0  0
 24 25  1  0  0  0  0
 24 27  1  0  0  0  0
 24 21  1  0  0  0  0
 26 24  1  0  0  0  0
M  END
>  <minimizedAffinity>
-4.66005278

$$$$

 OpenBabel03252500533D

 27 29  0  0  0  0  0  0  0  0999 V2000
   38.0010   25.3140   41.8070 C   0  0  0  0  0  0  0  0  0  0  0  0
   38.3020   26.5900   42.2500 C   0  0  0  0  0  0  0  0  0  0  0  0
   39.3140   26.7260   43.2300 C   0  0  0  0  0  0  0  0  0  0  0  0
   39.9300   25.6040   43.6780 N   0  0  0  0  0  0  0  0  0  0  0  0
   39.6030   24.3810   43.2170 C   0  0  0  0  0  0  0  0  0  0  0  0
   38.6550   24.2410   42.2980 N   0  0  0  0  0  0  0  0  0  0  0  0
   39.6380   27.6660   43.6540 H   0  0  0  0  0  0  0  0  0  0  0  0
   40.1170   23.4970   43.5980 H   0  0  0  0  0  0  0  0  0  0  0  0
   36.3780   28.1610   41.5740 C   0  0  0  0  0  3  0  0  0  0  0  0
   37.6850   27.8090   41.8290 C   0  0  0  0  0  0  0  0  0  0  0  0
   38.6090   28.8490   41.6270 C   0  0  0  0  0  0  0  0  0  0  0  0
   39.6900   28.7350   41.7860 H   0  0  0  0  0  0  0  0  0  0  0  0
   38.2620   30.1110   41.2140 C   0  0  0  0  0  0  0  0  0  0  0  0
   38.9380   31.2460   40.9550 N   0  0  0  0  0  0  0  0  0  0  0  0
   38.0950   32.2190   40.5700 C   0  0  0  0  0  0  0  0  0  0  0  0
   38.2830   33.2380   40.2900 H   0  0  0  0  0  0  0  0  0  0  0  0
   36.8470   31.6770   40.5880 N   0  0  0  0  0  0  0  0  0  0  0  0
   36.9330   30.3910   40.9780 C   0  0  0  0  0  0  0  0  0  0  0  0
   35.9820   29.4120   41.1590 C   0  0  0  0  0  3  0  0  0  0  0  0
   39.9700   31.3760   41.0360 H   0  0  0  0  0  0  0  0  0  0  0  0
   36.9820   25.0870   40.7910 C   0  0  0  0  0  0  0  0  0  0  0  0
   36.1550   25.8090   40.9270 H   0  0  0  0  0  0  0  0  0  0  0  0
   36.5150   24.0880   40.9040 H   0  0  0  0  0  0  0  0  0  0  0  0
   37.6030   25.2490   39.4160 C   0  0  0  0  0  0  0  0  0  0  0  0
   37.4300   24.2750   38.8660 H   0  0  0  0  0  0  0  0  0  0  0  0
   38.6790   25.4110   39.4240 H   0  0  0  0  0  0  0  0  0  0  0  0
   37.0200   25.9800   38.7920 H   0  0  0  0  0  0  0  0  0  0  0  0
  1  2  2  0  0  0  0
  1  6  1  0  0  0  0
  2  3  1  0  0  0  0
  3  7  1  0  0  0  0
  3  4  2  0  0  0  0
  5  8  1  0  0  0  0
  5  4  1  0  0  0  0
  6  5  2  0  0  0  0
  9 10  1  0  0  0  0
 10  2  1  0  0  0  0
 11 12  1  0  0  0  0
 11 10  2  0  0  0  0
 13 11  1  0  0  0  0
 14 20  1  0  0  0  0
 14 13  1  0  0  0  0
 15 17  2  0  0  0  0
 15 14  1  0  0  0  0
 16 15  1  0  0  0  0
 17 18  1  0  0  0  0
 18 19  1  0  0  0  0
 18 13  2  0  0  0  0
 19  9  2  0  0  0  0
 21 23  1  0  0  0  0
 21 22  1  0  0  0  0
 21  1  1  0  0  0  0
 24 26  1  0  0  0  0
 24 21  1  0  0  0  0
 25 24  1  0  0  0  0
 27 24  1  0  0  0  0
M  END
>  <minimizedAffinity>
-4.63890505

$$$$

 OpenBabel03252500533D

 27 29  0  0  0  0  0  0  0  0999 V2000
   36.4550   30.0660   38.1970 C   0  0  0  0  0  0  0  0  0  0  0  0
   36.6430   30.6990   39.4130 C   0  0  0  0  0  0  0  0  0  0  0  0
   35.8700   30.2570   40.5130 C   0  0  0  0  0  0  0  0  0  0  0  0
   34.9920   29.2430   40.3150 N   0  0  0  0  0  0  0  0  0  0  0  0
   34.8420   28.6560   39.1110 C   0  0  0  0  0  0  0  0  0  0  0  0
   35.5630   29.0610   38.0720 N   0  0  0  0  0  0  0  0  0  0  0  0
   35.9250   30.6700   41.5100 H   0  0  0  0  0  0  0  0  0  0  0  0
   34.1270   27.8420   38.9840 H   0  0  0  0  0  0  0  0  0  0  0  0
   37.3910   33.1470   39.6880 C   0  0  0  0  0  3  0  0  0  0  0  0
   37.5410   31.7780   39.6860 C   0  0  0  0  0  0  0  0  0  0  0  0
   38.8390   31.3430   40.0050 C   0  0  0  0  0  0  0  0  0  0  0  0
   39.1270   30.2840   40.0490 H   0  0  0  0  0  0  0  0  0  0  0  0
   39.8790   32.1900   40.2980 C   0  0  0  0  0  0  0  0  0  0  0  0
   41.1750   32.0260   40.6250 N   0  0  0  0  0  0  0  0  0  0  0  0
   41.7670   33.2180   40.8130 C   0  0  0  0  0  0  0  0  0  0  0  0
   42.7770   33.4620   41.0790 H   0  0  0  0  0  0  0  0  0  0  0  0
   40.8110   34.1610   40.5960 N   0  0  0  0  0  0  0  0  0  0  0  0
   39.6540   33.5490   40.2810 C   0  0  0  0  0  0  0  0  0  0  0  0
   38.4030   34.0350   39.9740 C   0  0  0  0  0  3  0  0  0  0  0  0
   41.6700   31.1130   40.7260 H   0  0  0  0  0  0  0  0  0  0  0  0
   37.2200   30.4500   37.0190 C   0  0  0  0  0  0  0  0  0  0  0  0
   38.2870   30.1960   37.1690 H   0  0  0  0  0  0  0  0  0  0  0  0
   37.2030   31.5480   36.8660 H   0  0  0  0  0  0  0  0  0  0  0  0
   36.6710   29.7200   35.8070 C   0  0  0  0  0  0  0  0  0  0  0  0
   36.3700   30.5150   35.0600 H   0  0  0  0  0  0  0  0  0  0  0  0
   35.7790   29.1290   36.0040 H   0  0  0  0  0  0  0  0  0  0  0  0
   37.4860   29.1760   35.2580 H   0  0  0  0  0  0  0  0  0  0  0  0
  1  2  1  0  0  0  0
  2 10  1  0  0  0  0
  2  3  2  0  0  0  0
  3  7  1  0  0  0  0
  4  3  1  0  0  0  0
  5  4  2  0  0  0  0
  6  1  2  0  0  0  0
  6  5  1  0  0  0  0
  8  5  1  0  0  0  0
  9 19  1  0  0  0  0
 10  9  2  0  0  0  0
 10 11  1  0  0  0  0
 11 12  1  0  0  0  0
 11 13  2  0  0  0  0
 13 14  1  0  0  0  0
 14 20  1  0  0  0  0
 14 15  1  0  0  0  0
 15 16  1  0  0  0  0
 17 15  2  0  0  0  0
 18 13  1  0  0  0  0
 18 17  1  0  0  0  0
 19 18  2  0  0  0  0
 21 22  1  0  0  0  0
 21  1  1  0  0  0  0
 23 21  1  0  0  0  0
 24 26  1  0  0  0  0
 24 21  1  0  0  0  0
 25 24  1  0  0  0  0
 27 24  1  0  0  0  0
M  END
>  <minimizedAffinity>
-4.58742857

$$$$

 OpenBabel03252500533D

 27 29  0  0  0  0  0  0  0  0999 V2000
   38.1650   27.4960   41.0600 C   0  0  0  0  0  0  0  0  0  0  0  0
   37.9890   28.6220   41.8430 C   0  0  0  0  0  0  0  0  0  0  0  0
   37.2460   28.4830   43.0400 C   0  0  0  0  0  0  0  0  0  0  0  0
   36.7500   27.2600   43.3500 N   0  0  0  0  0  0  0  0  0  0  0  0
   36.9480   26.1910   42.5550 C   0  0  0  0  0  0  0  0  0  0  0  0
   37.6440   26.3080   41.4300 N   0  0  0  0  0  0  0  0  0  0  0  0
   37.0400   29.2860   43.7340 H   0  0  0  0  0  0  0  0  0  0  0  0
   36.5360   25.2190   42.8330 H   0  0  0  0  0  0  0  0  0  0  0  0
   39.6790   30.5640   41.7990 C   0  0  0  0  0  3  0  0  0  0  0  0
   38.4730   29.9400   41.5690 C   0  0  0  0  0  0  0  0  0  0  0  0
   37.5130   30.7580   40.9490 C   0  0  0  0  0  0  0  0  0  0  0  0
   36.5000   30.4150   40.6950 H   0  0  0  0  0  0  0  0  0  0  0  0
   37.7360   32.0660   40.5940 C   0  0  0  0  0  0  0  0  0  0  0  0
   37.0020   33.0300   40.0080 N   0  0  0  0  0  0  0  0  0  0  0  0
   37.7180   34.1610   39.8910 C   0  0  0  0  0  0  0  0  0  0  0  0
   37.4550   35.1160   39.4780 H   0  0  0  0  0  0  0  0  0  0  0  0
   38.9430   33.8980   40.4230 N   0  0  0  0  0  0  0  0  0  0  0  0
   38.9690   32.6240   40.8560 C   0  0  0  0  0  0  0  0  0  0  0  0
   39.9490   31.8710   41.4620 C   0  0  0  0  0  3  0  0  0  0  0  0
   36.0150   32.9340   39.6810 H   0  0  0  0  0  0  0  0  0  0  0  0
   38.9280   27.5500   39.8200 C   0  0  0  0  0  0  0  0  0  0  0  0
   38.9400   28.5880   39.4360 H   0  0  0  0  0  0  0  0  0  0  0  0
   38.4440   26.9520   39.0220 H   0  0  0  0  0  0  0  0  0  0  0  0
   40.3430   27.0690   40.0830 C   0  0  0  0  0  0  0  0  0  0  0  0
   40.5230   26.1960   39.3840 H   0  0  0  0  0  0  0  0  0  0  0  0
   40.5120   26.6960   41.0910 H   0  0  0  0  0  0  0  0  0  0  0  0
   41.0990   27.8190   39.7240 H   0  0  0  0  0  0  0  0  0  0  0  0
  1  6  2  0  0  0  0
  1  2  1  0  0  0  0
  2  3  2  0  0  0  0
  3  4  1  0  0  0  0
  3  7  1  0  0  0  0
  5  8  1  0  0  0  0
  5  4  2  0  0  0  0
  6  5  1  0  0  0  0
 10  9  1  0  0  0  0
 10  2  1  0  0  0  0
 11 10  2  0  0  0  0
 12 11  1  0  0  0  0
 13 18  2  0  0  0  0
 13 11  1  0  0  0  0
 14 13  1  0  0  0  0
 15 14  1  0  0  0  0
 15 17  2  0  0  0  0
 16 15  1  0  0  0  0
 17 18  1  0  0  0  0
 18 19  1  0  0  0  0
 19  9  2  0  0  0  0
 20 14  1  0  0  0  0
 21 24  1  0  0  0  0
 21  1  1  0  0  0  0
 22 21  1  0  0  0  0
 23 21  1  0  0  0  0
 24 26  1  0  0  0  0
 25 24  1  0  0  0  0
 27 24  1  0  0  0  0
M  END
>  <minimizedAffinity>
-4.56551313

$$$$
