
 OpenBabel03252505213D

 31 34  0  0  0  0  0  0  0  0999 V2000
   48.4260   32.2260   41.4920 F   0  0  0  0  0  0  0  0  0  0  0  0
   48.1820   31.6610   42.6960 C   0  0  0  0  0  0  0  0  0  0  0  0
   49.0010   30.6440   43.1210 C   0  0  0  0  0  0  0  0  0  0  0  0
   48.7440   30.0830   44.3350 C   0  0  0  0  0  0  0  0  0  0  0  0
   47.6980   30.5160   45.1160 C   0  0  0  0  0  0  0  0  0  0  0  0
   46.8650   31.5370   44.7020 C   0  0  0  0  0  0  0  0  0  0  0  0
   47.1330   32.1120   43.4500 C   0  0  0  0  0  0  0  0  0  0  0  0
   49.3610   29.2710   44.7270 H   0  0  0  0  0  0  0  0  0  0  0  0
   47.4930   30.0640   46.0920 H   0  0  0  0  0  0  0  0  0  0  0  0
   46.0590   31.8520   45.3330 H   0  0  0  0  0  0  0  0  0  0  0  0
   46.1110   34.3910   43.7060 C   0  0  0  0  0  3  0  0  0  0  0  0
   46.2430   33.1730   43.0550 C   0  0  0  0  0  0  0  0  0  0  0  0
   45.4340   32.9950   41.9320 C   0  0  0  0  0  0  0  0  0  0  0  0
   45.4700   32.0620   41.3500 H   0  0  0  0  0  0  0  0  0  0  0  0
   44.5420   33.9290   41.4500 C   0  0  0  0  0  0  0  0  0  0  0  0
   43.6940   33.9580   40.4170 N   0  0  0  0  0  0  0  0  0  0  0  0
   43.0580   35.1600   40.4320 C   0  0  0  0  0  0  0  0  0  0  0  0
   42.3220   35.3890   39.6710 H   0  0  0  0  0  0  0  0  0  0  0  0
   43.5210   35.8650   41.4780 N   0  0  0  0  0  0  0  0  0  0  0  0
   44.4550   35.1300   42.1450 C   0  0  0  0  0  0  0  0  0  0  0  0
   45.2300   35.3780   43.2740 C   0  0  0  0  0  3  0  0  0  0  0  0
   43.5540   33.1740   39.7160 H   0  0  0  0  0  0  0  0  0  0  0  0
   51.3600   30.4160   40.3300 C   0  0  0  0  0  0  0  0  0  0  0  0
   52.1930   29.3450   40.7030 C   0  0  0  0  0  0  0  0  0  0  0  0
   51.9140   28.7170   41.9330 C   0  0  0  0  0  0  0  0  0  0  0  0
   50.8730   29.1730   42.6770 N   0  0  0  0  0  0  0  0  0  0  0  0
   50.1030   30.2000   42.2810 C   0  0  0  0  0  0  0  0  0  0  0  0
   50.3520   30.8080   41.1170 N   0  0  0  0  0  0  0  0  0  0  0  0
   51.6030   30.8710   39.3850 H   0  0  0  0  0  0  0  0  0  0  0  0
   53.0270   28.9520   40.1440 H   0  0  0  0  0  0  0  0  0  0  0  0
   52.4630   27.8830   42.3540 H   0  0  0  0  0  0  0  0  0  0  0  0
  1  2  1  0  0  0  0
  2  3  2  0  0  0  0
  2  7  1  0  0  0  0
  3  4  1  0  0  0  0
  4  8  1  0  0  0  0
  4  5  2  0  0  0  0
  5  9  1  0  0  0  0
  6  5  1  0  0  0  0
  6 10  1  0  0  0  0
  7  6  2  0  0  0  0
 12  7  1  0  0  0  0
 12 11  2  0  0  0  0
 13 12  1  0  0  0  0
 14 13  1  0  0  0  0
 15 13  2  0  0  0  0
 15 20  1  0  0  0  0
 16 17  1  0  0  0  0
 16 15  1  0  0  0  0
 17 19  2  0  0  0  0
 18 17  1  0  0  0  0
 19 20  1  0  0  0  0
 20 21  2  0  0  0  0
 21 11  1  0  0  0  0
 22 16  1  0  0  0  0
 23 24  2  0  0  0  0
 23 28  1  0  0  0  0
 24 25  1  0  0  0  0
 25 31  1  0  0  0  0
 25 26  2  0  0  0  0
 27 26  1  0  0  0  0
 27  3  1  0  0  0  0
 28 27  2  0  0  0  0
 29 23  1  0  0  0  0
 30 24  1  0  0  0  0
M  END
>  <minimizedAffinity>
-3.82514787

>  <minimizedRMSD>
8.57538128

$$$$
