
     RDKit          3D

 30 33  0  0  0  0  0  0  0  0999 V2000
   44.5964   35.8011   44.7176 C   0  0  0  0  0  0  0  0  0  0  0  0
   45.2791   35.5675   43.4955 C   0  0  0  0  0  0  0  0  0  0  0  0
   46.1231   34.4568   43.4260 C   0  0  0  0  0  0  0  0  0  0  0  0
   46.2461   33.6569   44.5348 N   0  0  0  0  0  0  0  0  0  0  0  0
   45.5734   33.9220   45.6778 C   0  0  0  0  0  0  0  0  0  0  0  0
   44.7460   34.9929   45.7775 N   0  0  0  0  0  0  0  0  0  0  0  0
   45.8676   32.9274   46.7155 C   0  0  0  0  0  0  0  0  0  0  0  0
   45.1079   32.7745   47.9038 C   0  0  0  0  0  0  0  0  0  0  0  0
   45.4874   31.8138   48.7819 C   0  0  0  0  0  0  0  0  0  0  0  0
   46.6174   31.0052   48.4846 C   0  0  0  0  0  0  0  0  0  0  0  0
   47.1665   31.6609   46.8521 S   0  0  0  0  0  0  0  0  0  0  0  0
   43.9348   36.6531   44.8049 H   0  0  0  0  0  0  0  0  0  0  0  0
   45.1596   36.2133   42.6486 H   0  0  0  0  0  0  0  0  0  0  0  0
   46.6775   34.2115   42.5309 H   0  0  0  0  0  0  0  0  0  0  0  0
   44.2550   33.4115   48.0904 H   0  0  0  0  0  0  0  0  0  0  0  0
   45.0057   31.6019   49.6974 H   0  0  0  0  0  0  0  0  0  0  0  0
   47.0433   28.6422   48.8119 C   0  0  0  0  0  0  0  0  0  0  0  0
   47.2185   29.9522   49.2103 C   0  0  0  0  0  0  0  0  0  0  0  0
   47.9717   30.2987   50.3124 C   0  0  0  0  0  0  0  0  0  0  0  0
   48.1323   31.3185   50.6566 H   0  0  0  0  0  0  0  0  0  0  0  0
   48.5793   29.2771   51.0509 C   0  0  0  0  0  0  0  0  0  0  0  0
   49.3644   29.3381   52.1647 N   0  0  0  0  0  0  0  0  0  0  0  0
   49.6779   28.0453   52.4572 C   0  0  0  0  0  0  0  0  0  0  0  0
   50.2933   27.6729   53.2818 H   0  0  0  0  0  0  0  0  0  0  0  0
   49.1002   27.2276   51.5481 N   0  0  0  0  0  0  0  0  0  0  0  0
   48.4119   27.9646   50.6630 C   0  0  0  0  0  0  0  0  0  0  0  0
   47.6439   27.6406   49.5427 C   0  0  0  0  0  0  0  0  0  0  0  0
   46.4329   28.4632   47.9307 H   0  0  0  0  0  0  0  0  0  0  0  0
   49.6737   30.1756   52.6977 H   0  0  0  0  0  0  0  0  0  0  0  0
   47.5041   26.6218   49.2279 H   0  0  0  0  0  0  0  0  0  0  0  0
  1  6  2  0
  2  1  1  0
  3  2  2  0
  3  4  1  0
  4  5  2  0
  5  6  1  0
  5  7  1  0
  7 11  1  0
  7  8  2  0
  8  9  1  0
 10  9  2  0
 11 10  1  0
  1 12  1  0
  2 13  1  0
  3 14  1  0
  8 15  1  0
  9 16  1  0
 17 18  2  0
 18 19  1  0
 19 20  1  0
 19 21  2  0
 21 22  1  0
 22 23  1  0
 23 24  1  0
 23 25  2  0
 25 26  1  0
 26 27  2  0
 27 17  1  0
 26 21  1  0
 17 28  1  0
 22 29  1  0
 27 30  1  0
 10 18  1  0
M  ISO  7  12  14  13  14  14  14  15  14  16  14  20  15  24  14
M  END
>  <DihAtoms>  (1) 
8,9,17,16

>  <DihDeg>  (1) 
-0.001960153637707083

$$$$
