
     RDKit          3D

 33 36  0  0  0  0  0  0  0  0999 V2000
   44.5506   35.8687   44.5856 C   0  0  0  0  0  0  0  0  0  0  0  0
   45.2017   35.8361   43.3392 C   0  0  0  0  0  0  0  0  0  0  0  0
   46.1510   34.8131   43.1421 C   0  0  0  0  0  0  0  0  0  0  0  0
   46.3797   33.9309   44.1502 N   0  0  0  0  0  0  0  0  0  0  0  0
   45.7331   34.0009   45.3252 C   0  0  0  0  0  0  0  0  0  0  0  0
   44.8294   34.9643   45.5306 N   0  0  0  0  0  0  0  0  0  0  0  0
   44.3000   33.9453   47.6671 F   0  0  0  0  0  0  0  0  0  0  0  0
   45.2837   33.0278   47.5274 C   0  0  0  0  0  0  0  0  0  0  0  0
   46.0199   33.0276   46.3685 C   0  0  0  0  0  0  0  0  0  0  0  0
   47.0081   32.0989   46.2393 C   0  0  0  0  0  0  0  0  0  0  0  0
   47.2651   31.1865   47.2358 C   0  0  0  0  0  0  0  0  0  0  0  0
   46.5328   31.1744   48.4073 C   0  0  0  0  0  0  0  0  0  0  0  0
   45.5159   32.1334   48.5355 C   0  0  0  0  0  0  0  0  0  0  0  0
   43.8328   36.6634   44.6996 H   0  0  0  0  0  0  0  0  0  0  0  0
   45.0515   36.5131   42.5152 H   0  0  0  0  0  0  0  0  0  0  0  0
   46.7323   34.6566   42.2408 H   0  0  0  0  0  0  0  0  0  0  0  0
   47.6275   32.0486   45.3411 H   0  0  0  0  0  0  0  0  0  0  0  0
   48.0600   30.4400   47.1309 H   0  0  0  0  0  0  0  0  0  0  0  0
   46.7575   30.4512   49.1643 H   0  0  0  0  0  0  0  0  0  0  0  0
   43.3970   32.1700   49.8804 C   0  0  0  0  0  0  0  0  0  0  0  0
   44.7771   32.0871   49.7698 C   0  0  0  0  0  0  0  0  0  0  0  0
   45.4741   31.9481   50.9715 C   0  0  0  0  0  0  0  0  0  0  0  0
   46.5710   31.8745   50.9833 H   0  0  0  0  0  0  0  0  0  0  0  0
   44.8877   31.8908   52.2178 C   0  0  0  0  0  0  0  0  0  0  0  0
   45.3594   31.7636   53.4614 N   0  0  0  0  0  0  0  0  0  0  0  0
   44.3004   31.7680   54.3139 C   0  0  0  0  0  0  0  0  0  0  0  0
   44.4654   31.6747   55.3799 H   0  0  0  0  0  0  0  0  0  0  0  0
   43.1783   31.8986   53.5847 N   0  0  0  0  0  0  0  0  0  0  0  0
   43.5008   31.9793   52.2627 C   0  0  0  0  0  0  0  0  0  0  0  0
   42.7399   32.1189   51.1059 C   0  0  0  0  0  0  0  0  0  0  0  0
   42.8239   32.2797   48.9501 H   0  0  0  0  0  0  0  0  0  0  0  0
   46.3845   31.6754   53.7232 H   0  0  0  0  0  0  0  0  0  0  0  0
   41.6666   32.1845   51.1781 H   0  0  0  0  0  0  0  0  0  0  0  0
  1  6  2  0
  2  1  1  0
  3  2  2  0
  3  4  1  0
  4  5  2  0
  5  6  1  0
  5  9  1  0
  8  7  1  0
  8 13  2  0
  9  8  1  0
 10  9  2  0
 10 11  1  0
 11 12  2  0
 12 13  1  0
  1 14  1  0
  2 15  1  0
  3 16  1  0
 10 17  1  0
 11 18  1  0
 12 19  1  0
 20 21  2  0
 21 22  1  0
 22 23  1  0
 22 24  2  0
 24 25  1  0
 25 26  1  0
 26 27  1  0
 26 28  2  0
 28 29  1  0
 29 30  2  0
 30 20  1  0
 29 24  1  0
 20 31  1  0
 25 32  1  0
 30 33  1  0
 13 21  1  0
M  ISO  8  14  14  15  14  16  14  17  14  18  14  19  14  23  15  27  14
M  END
>  <DihAtoms>  (1) 
7,12,20,19

>  <DihDeg>  (1) 
-45.000048801567985

$$$$
