
     RDKit          3D

 43 48  0  0  0  0  0  0  0  0999 V2000
   47.2650   31.3882   45.1423 C   0  0  0  0  0  0  0  0  0  0  0  0
   46.8705   32.7225   45.1308 C   0  0  0  0  0  0  0  0  0  0  0  0
   46.2408   33.3180   46.1982 C   0  0  0  0  0  0  0  0  0  0  0  0
   45.9686   32.5962   47.3528 C   0  0  0  0  0  0  0  0  0  0  0  0
   45.3815   32.8490   48.5620 N   0  0  0  0  0  0  0  0  0  0  0  0
   45.4142   31.7049   49.2947 C   0  0  0  0  0  0  0  0  0  0  0  0
   46.0152   30.7694   48.5358 N   0  0  0  0  0  0  0  0  0  0  0  0
   46.3634   31.2809   47.3502 C   0  0  0  0  0  0  0  0  0  0  0  0
   46.9895   30.6578   46.3107 C   0  0  0  0  0  0  0  0  0  0  0  0
   46.4815   35.1890   42.4363 C   0  0  0  0  0  0  0  0  0  0  0  0
   47.6636   35.0178   41.6986 C   0  0  0  0  0  0  0  0  0  0  0  0
   48.5764   34.0632   42.1313 C   0  0  0  0  0  0  0  0  0  0  0  0
   48.2889   33.3281   43.2574 N   0  0  0  0  0  0  0  0  0  0  0  0
   47.1332   33.5272   43.9399 C   0  0  0  0  0  0  0  0  0  0  0  0
   46.2329   34.4429   43.5446 N   0  0  0  0  0  0  0  0  0  0  0  0
   47.3782   29.2353   46.3986 C   0  0  0  0  0  0  0  0  0  0  0  0
   48.6812   28.7965   46.6130 C   0  0  0  0  0  0  0  0  0  0  0  0
   48.5486   27.4005   46.6179 C   0  0  0  0  0  0  0  0  0  0  0  0
   47.2148   27.0830   46.4125 C   0  0  0  0  0  0  0  0  0  0  0  0
   46.5630   28.2265   46.2881 O   0  0  0  0  0  0  0  0  0  0  0  0
   47.7612   30.9107   44.3071 H   0  0  0  0  0  0  0  0  0  0  0  0
   45.9319   34.3561   46.1939 H   0  0  0  0  0  0  0  0  0  0  0  0
   45.0002   33.7988   48.7915 H   0  0  0  0  0  0  0  0  0  0  0  0
   45.0108   31.6347   50.2982 H   0  0  0  0  0  0  0  0  0  0  0  0
   45.7579   35.9264   42.1170 H   0  0  0  0  0  0  0  0  0  0  0  0
   47.8476   35.6155   40.8230 H   0  0  0  0  0  0  0  0  0  0  0  0
   49.4847   33.9199   41.5789 H   0  0  0  0  0  0  0  0  0  0  0  0
   49.5244   29.4623   46.7343 H   0  0  0  0  0  0  0  0  0  0  0  0
   49.4093   26.7546   46.7661 H   0  0  0  0  0  0  0  0  0  0  0  0
   46.0027   25.1493   47.3977 C   0  0  0  0  0  0  0  0  0  0  0  0
   46.7122   25.7147   46.3583 C   0  0  0  0  0  0  0  0  0  0  0  0
   46.9530   24.9431   45.2188 C   0  0  0  0  0  0  0  0  0  0  0  0
   47.5069   25.3273   44.3610 H   0  0  0  0  0  0  0  0  0  0  0  0
   46.4622   23.6524   45.2034 C   0  0  0  0  0  0  0  0  0  0  0  0
   46.5021   22.6396   44.2920 N   0  0  0  0  0  0  0  0  0  0  0  0
   45.8630   21.5481   44.7529 C   0  0  0  0  0  0  0  0  0  0  0  0
   45.8121   20.6640   44.1386 H   0  0  0  0  0  0  0  0  0  0  0  0
   45.3943   21.8470   45.9881 N   0  0  0  0  0  0  0  0  0  0  0  0
   45.7509   23.1052   46.2613 C   0  0  0  0  0  0  0  0  0  0  0  0
   45.5200   23.8754   47.3787 C   0  0  0  0  0  0  0  0  0  0  0  0
   45.8088   25.7453   48.2945 H   0  0  0  0  0  0  0  0  0  0  0  0
   46.9888   22.7762   43.3740 H   0  0  0  0  0  0  0  0  0  0  0  0
   44.9658   23.4980   48.2430 H   0  0  0  0  0  0  0  0  0  0  0  0
  1  9  2  0
  2  1  1  0
  2  3  2  0
  3  4  1  0
  4  5  1  0
  5  6  1  0
  7  6  2  0
  8  4  2  0
  8  7  1  0
  9 16  1  0
  9  8  1  0
 10 15  2  0
 11 12  2  0
 11 10  1  0
 12 13  1  0
 13 14  2  0
 14  2  1  0
 15 14  1  0
 16 17  2  0
 17 18  1  0
 19 18  2  0
 20 16  1  0
 20 19  1  0
  1 21  1  0
  3 22  1  0
  5 23  1  0
  6 24  1  0
 10 25  1  0
 11 26  1  0
 12 27  1  0
 17 28  1  0
 18 29  1  0
 30 31  2  0
 31 32  1  0
 32 33  1  0
 32 34  2  0
 34 35  1  0
 35 36  1  0
 36 37  1  0
 36 38  2  0
 38 39  1  0
 39 40  2  0
 40 30  1  0
 39 34  1  0
 30 41  1  0
 35 42  1  0
 40 43  1  0
 19 31  1  0
M  ISO  8  21  14  22  14  23   9  24  14  25  14  26  14  27  14  28  14
M  ISO  3  29  14  33  15  37  14
M  END
>  <DihAtoms>  (1) 
17,18,30,29

>  <DihDeg>  (1) 
0.00032926798906231144

$$$$
