
 OpenBabel03252509113D

 34 38  0  0  0  0  0  0  0  0999 V2000
   45.7590   32.6050   44.6020 C   0  0  0  0  0  0  0  0  0  0  0  0
   45.7690   32.8180   43.2380 C   0  0  0  0  0  0  0  0  0  0  0  0
   46.6630   32.1790   42.4000 C   0  0  0  0  0  0  0  0  0  0  0  0
   47.5940   31.2870   42.9140 C   0  0  0  0  0  0  0  0  0  0  0  0
   48.5870   30.5110   42.3940 N   0  0  0  0  0  0  0  0  0  0  0  0
   49.1720   29.8330   43.4390 C   0  0  0  0  0  0  0  0  0  0  0  0
   48.5240   30.2080   44.5820 N   0  0  0  0  0  0  0  0  0  0  0  0
   47.5530   31.0980   44.2900 C   0  0  0  0  0  0  0  0  0  0  0  0
   46.6830   31.7130   45.1500 C   0  0  0  0  0  0  0  0  0  0  0  0
   45.0340   33.1380   45.1890 H   0  0  0  0  0  0  0  0  0  0  0  0
   48.8270   30.4700   41.3710 H   0  0  0  0  0  0  0  0  0  0  0  0
   49.9930   29.1370   43.3470 H   0  0  0  0  0  0  0  0  0  0  0  0
   46.6910   31.5350   46.2100 H   0  0  0  0  0  0  0  0  0  0  0  0
   46.1880   31.6330   39.9180 C   0  0  0  0  0  3  0  0  0  0  0  0
   46.7630   32.3410   40.9530 C   0  0  0  0  0  0  0  0  0  0  0  0
   47.6150   33.4110   40.6450 C   0  0  0  0  0  0  0  0  0  0  0  0
   48.1360   34.0550   41.3550 H   0  0  0  0  0  0  0  0  0  0  0  0
   47.8850   33.7670   39.3380 C   0  0  0  0  0  0  0  0  0  0  0  0
   48.6340   34.7120   38.7260 N   0  0  0  0  0  0  0  0  0  0  0  0
   48.5350   34.6060   37.3750 C   0  0  0  0  0  0  0  0  0  0  0  0
   49.0690   35.2830   36.7100 H   0  0  0  0  0  0  0  0  0  0  0  0
   47.7070   33.5720   37.1450 N   0  0  0  0  0  0  0  0  0  0  0  0
   47.3010   33.0470   38.3130 C   0  0  0  0  0  0  0  0  0  0  0  0
   46.4770   32.0110   38.6250 C   0  0  0  0  0  3  0  0  0  0  0  0
   49.2120   35.4300   39.2430 H   0  0  0  0  0  0  0  0  0  0  0  0
   44.1080   35.8910   42.0890 C   0  0  0  0  0  0  0  0  0  0  0  0
   42.9620   35.4090   41.4590 C   0  0  0  0  0  0  0  0  0  0  0  0
   42.7700   34.0190   41.4340 C   0  0  0  0  0  0  0  0  0  0  0  0
   43.7130   33.2290   42.0270 N   0  0  0  0  0  0  0  0  0  0  0  0
   44.8170   33.7350   42.6320 C   0  0  0  0  0  0  0  0  0  0  0  0
   45.0030   35.0490   42.6580 N   0  0  0  0  0  0  0  0  0  0  0  0
   44.2710   36.9810   42.1150 H   0  0  0  0  0  0  0  0  0  0  0  0
   42.2370   36.0400   41.0030 H   0  0  0  0  0  0  0  0  0  0  0  0
   41.9130   33.5400   40.9710 H   0  0  0  0  0  0  0  0  0  0  0  0
  1  9  1  0  0  0  0
  1 10  1  0  0  0  0
  2  1  2  0  0  0  0
  3  4  2  0  0  0  0
  3  2  1  0  0  0  0
  4  8  1  0  0  0  0
  5  4  1  0  0  0  0
  5  6  1  0  0  0  0
  6  7  2  0  0  0  0
  8  7  1  0  0  0  0
  8  9  2  0  0  0  0
  9 13  1  0  0  0  0
 11  5  1  0  0  0  0
 12  6  1  0  0  0  0
 14 15  1  0  0  0  0
 15  3  1  0  0  0  0
 16 15  2  0  0  0  0
 16 17  1  0  0  0  0
 18 16  1  0  0  0  0
 19 25  1  0  0  0  0
 19 18  1  0  0  0  0
 20 19  1  0  0  0  0
 21 20  1  0  0  0  0
 22 20  2  0  0  0  0
 22 23  1  0  0  0  0
 23 24  1  0  0  0  0
 23 18  2  0  0  0  0
 24 14  2  0  0  0  0
 26 32  1  0  0  0  0
 26 31  1  0  0  0  0
 27 26  2  0  0  0  0
 28 27  1  0  0  0  0
 28 29  2  0  0  0  0
 29 30  1  0  0  0  0
 30 31  2  0  0  0  0
 30  2  1  0  0  0  0
 33 27  1  0  0  0  0
 34 28  1  0  0  0  0
M  END
>  <minimizedAffinity>
-4.74960947

>  <minimizedRMSD>
5.99186993

$$$$
