
 OpenBabel03242518273D

 48 53  0  0  1  0  0  0  0  0999 V2000
   37.2830   33.4970   39.3520 C   0  0  0  0  0  0  0  0  0  0  0  0
   37.9380   32.3610   38.9940 C   0  0  0  0  0  0  0  0  0  0  0  0
   39.3080   32.2860   39.1660 C   0  0  0  0  0  0  0  0  0  0  0  0
   39.9740   33.3820   39.7020 C   0  0  0  0  0  0  0  0  0  0  0  0
   39.3030   34.5380   40.0660 C   0  0  0  0  0  0  0  0  0  0  0  0
   37.9330   34.6030   39.8900 C   0  0  0  0  0  0  0  0  0  0  0  0
   40.2420   35.4360   40.5630 O   0  0  0  0  0  0  0  0  0  0  0  0
   41.5360   34.9400   40.2340 C   0  0  2  0  0  0  0  0  0  0  0  0
   41.3400   33.5750   39.9790 O   0  0  0  0  0  0  0  0  0  0  0  0
   36.2200   33.6030   39.2390 H   0  0  0  0  0  0  0  0  0  0  0  0
   39.7920   31.3730   38.8720 H   0  0  0  0  0  0  0  0  0  0  0  0
   37.4060   35.5010   40.1720 H   0  0  0  0  0  0  0  0  0  0  0  0
   41.8900   35.4130   39.2950 H   0  0  0  0  0  0  0  0  0  0  0  0
   43.4740   34.2400   41.6000 C   0  0  0  0  0  3  0  0  0  0  0  0
   42.4740   35.1780   41.3600 C   0  0  0  0  0  0  0  0  0  0  0  0
   42.4180   36.2800   42.1900 C   0  0  0  0  0  0  0  0  0  0  0  0
   41.6330   37.0200   42.0030 H   0  0  0  0  0  0  0  0  0  0  0  0
   43.3250   36.4310   43.2160 C   0  0  0  0  0  0  0  0  0  0  0  0
   43.4860   37.3980   44.1540 N   0  0  0  0  0  0  0  0  0  0  0  0
   44.5380   37.0840   44.9480 C   0  0  0  0  0  0  0  0  0  0  0  0
   44.8790   37.7000   45.7830 H   0  0  0  0  0  0  0  0  0  0  0  0
   45.0440   35.9030   44.5030 N   0  0  0  0  0  0  0  0  0  0  0  0
   44.3120   35.5070   43.4560 C   0  0  0  0  0  0  0  0  0  0  0  0
   44.3830   34.3940   42.6300 C   0  0  0  0  0  3  0  0  0  0  0  0
   42.9130   38.2690   44.2840 H   0  0  0  0  0  0  0  0  0  0  0  0
   35.6550   29.4750   38.6920 C   0  0  0  0  0  0  0  0  0  0  0  0
   35.7950   29.1130   37.3480 C   0  0  0  0  0  0  0  0  0  0  0  0
   36.6680   29.8660   36.5770 C   0  0  0  0  0  0  0  0  0  0  0  0
   37.3520   30.9090   37.1180 N   0  0  0  0  0  0  0  0  0  0  0  0
   37.1830   31.2240   38.4290 C   0  0  0  0  0  0  0  0  0  0  0  0
   36.3410   30.5140   39.2190 N   0  0  0  0  0  0  0  0  0  0  0  0
   35.0140   28.9750   39.3940 H   0  0  0  0  0  0  0  0  0  0  0  0
   36.7660   29.5790   35.5520 H   0  0  0  0  0  0  0  0  0  0  0  0
   35.0310   28.0170   36.9180 N   0  0  0  0  0  0  0  0  0  0  0  0
   35.0840   26.8140   37.7210 C   0  0  0  0  0  0  0  0  0  0  0  0
   34.3390   25.6690   37.1480 C   0  0  0  0  0  0  0  0  0  0  0  0
   33.0130   26.0400   36.7550 N   0  0  0  0  0  0  0  0  0  0  0  0
   32.8400   27.3010   36.1520 C   0  0  0  0  0  0  0  0  0  0  0  0
   34.1890   27.9170   35.7770 C   0  0  0  0  0  0  0  0  0  0  0  0
   34.6290   27.0850   38.7160 H   0  0  0  0  0  0  0  0  0  0  0  0
   36.1280   26.5690   37.9440 H   0  0  0  0  0  0  0  0  0  0  0  0
   34.8800   25.3390   36.2130 H   0  0  0  0  0  0  0  0  0  0  0  0
   34.3060   24.8540   37.8690 H   0  0  0  0  0  0  0  0  0  0  0  0
   32.4940   25.2540   36.3130 H   0  0  0  0  0  0  0  0  0  0  0  0
   32.3240   27.1400   35.1660 H   0  0  0  0  0  0  0  0  0  0  0  0
   32.2380   28.0200   36.7130 H   0  0  0  0  0  0  0  0  0  0  0  0
   34.6530   27.3670   34.9320 H   0  0  0  0  0  0  0  0  0  0  0  0
   33.9680   28.9320   35.3930 H   0  0  0  0  0  0  0  0  0  0  0  0
  1  6  1  0  0  0  0
  2  3  1  0  0  0  0
  2  1  2  0  0  0  0
  3  4  2  0  0  0  0
  4  9  1  0  0  0  0
  4  5  1  0  0  0  0
  5  7  1  0  0  0  0
  6  5  2  0  0  0  0
  6 12  1  0  0  0  0
  8 13  1  6  0  0  0
  8  7  1  0  0  0  0
  8 15  1  0  0  0  0
  9  8  1  0  0  0  0
 10  1  1  0  0  0  0
 11  3  1  0  0  0  0
 14 24  1  0  0  0  0
 15 14  2  0  0  0  0
 15 16  1  0  0  0  0
 16 18  2  0  0  0  0
 17 16  1  0  0  0  0
 18 23  1  0  0  0  0
 18 19  1  0  0  0  0
 19 25  1  0  0  0  0
 19 20  1  0  0  0  0
 20 21  1  0  0  0  0
 22 20  2  0  0  0  0
 23 22  1  0  0  0  0
 24 23  2  0  0  0  0
 26 31  1  0  0  0  0
 26 32  1  0  0  0  0
 27 26  2  0  0  0  0
 28 29  2  0  0  0  0
 28 27  1  0  0  0  0
 29 30  1  0  0  0  0
 30  2  1  0  0  0  0
 30 31  2  0  0  0  0
 33 28  1  0  0  0  0
 34 27  1  0  0  0  0
 34 35  1  0  0  0  0
 35 41  1  0  0  0  0
 35 40  1  0  0  0  0
 36 35  1  0  0  0  0
 36 43  1  0  0  0  0
 37 36  1  0  0  0  0
 38 46  1  0  0  0  0
 38 37  1  0  0  0  0
 39 38  1  0  0  0  0
 39 34  1  0  0  0  0
 42 36  1  0  0  0  0
 44 37  1  0  0  0  0
 45 38  1  0  0  0  0
 47 39  1  0  0  0  0
 48 39  1  0  0  0  0
M  END
>  <minimizedAffinity>
-7.433918

$$$$

 OpenBabel03242518273D

 48 53  0  0  1  0  0  0  0  0999 V2000
   37.2700   33.5380   39.3920 C   0  0  0  0  0  0  0  0  0  0  0  0
   37.9370   32.3990   39.0670 C   0  0  0  0  0  0  0  0  0  0  0  0
   39.3030   32.3320   39.2730 C   0  0  0  0  0  0  0  0  0  0  0  0
   39.9520   33.4390   39.8080 C   0  0  0  0  0  0  0  0  0  0  0  0
   39.2680   34.5980   40.1380 C   0  0  0  0  0  0  0  0  0  0  0  0
   37.9030   34.6550   39.9280 C   0  0  0  0  0  0  0  0  0  0  0  0
   40.1920   35.5070   40.6430 O   0  0  0  0  0  0  0  0  0  0  0  0
   41.4960   35.0110   40.3530 C   0  0  2  0  0  0  0  0  0  0  0  0
   41.3100   33.6410   40.1150 O   0  0  0  0  0  0  0  0  0  0  0  0
   36.2090   33.6380   39.2510 H   0  0  0  0  0  0  0  0  0  0  0  0
   39.7970   31.4160   39.0050 H   0  0  0  0  0  0  0  0  0  0  0  0
   37.3660   35.5550   40.1830 H   0  0  0  0  0  0  0  0  0  0  0  0
   41.8710   35.4700   39.4170 H   0  0  0  0  0  0  0  0  0  0  0  0
   42.2630   36.4620   42.2020 C   0  0  0  0  0  3  0  0  0  0  0  0
   42.4040   35.2690   41.4980 C   0  0  0  0  0  0  0  0  0  0  0  0
   43.3900   34.3950   41.9130 C   0  0  0  0  0  0  0  0  0  0  0  0
   43.5040   33.4570   41.3620 H   0  0  0  0  0  0  0  0  0  0  0  0
   44.1960   34.7060   42.9870 C   0  0  0  0  0  0  0  0  0  0  0  0
   45.2150   34.0380   43.5830 N   0  0  0  0  0  0  0  0  0  0  0  0
   45.6920   34.7750   44.6150 C   0  0  0  0  0  0  0  0  0  0  0  0
   46.5150   34.4620   45.2610 H   0  0  0  0  0  0  0  0  0  0  0  0
   44.9630   35.9220   44.6660 N   0  0  0  0  0  0  0  0  0  0  0  0
   44.0580   35.8820   43.6820 C   0  0  0  0  0  0  0  0  0  0  0  0
   43.0720   36.7720   43.2790 C   0  0  0  0  0  3  0  0  0  0  0  0
   45.6070   33.0980   43.3240 H   0  0  0  0  0  0  0  0  0  0  0  0
   35.5980   29.5630   38.7230 C   0  0  0  0  0  0  0  0  0  0  0  0
   35.8480   29.1160   37.4210 C   0  0  0  0  0  0  0  0  0  0  0  0
   36.8120   29.7960   36.6920 C   0  0  0  0  0  0  0  0  0  0  0  0
   37.4770   30.8520   37.2330 N   0  0  0  0  0  0  0  0  0  0  0  0
   37.2000   31.2500   38.5020 C   0  0  0  0  0  0  0  0  0  0  0  0
   36.2680   30.6130   39.2500 N   0  0  0  0  0  0  0  0  0  0  0  0
   34.8800   29.1240   39.3910 H   0  0  0  0  0  0  0  0  0  0  0  0
   36.9920   29.4460   35.6990 H   0  0  0  0  0  0  0  0  0  0  0  0
   35.0910   28.0170   36.9870 N   0  0  0  0  0  0  0  0  0  0  0  0
   35.2210   26.7840   37.7330 C   0  0  0  0  0  0  0  0  0  0  0  0
   34.4760   25.6420   37.1530 C   0  0  0  0  0  0  0  0  0  0  0  0
   33.1210   25.9900   36.8490 N   0  0  0  0  0  0  0  0  0  0  0  0
   32.8810   27.2690   36.3110 C   0  0  0  0  0  0  0  0  0  0  0  0
   34.1890   27.9390   35.8900 C   0  0  0  0  0  0  0  0  0  0  0  0
   34.8160   26.9990   38.7620 H   0  0  0  0  0  0  0  0  0  0  0  0
   36.2830   26.5600   37.8880 H   0  0  0  0  0  0  0  0  0  0  0  0
   34.9730   25.3670   36.1760 H   0  0  0  0  0  0  0  0  0  0  0  0
   34.5060   24.7980   37.8390 H   0  0  0  0  0  0  0  0  0  0  0  0
   32.6000   25.2080   36.4020 H   0  0  0  0  0  0  0  0  0  0  0  0
   32.3150   27.1340   35.3490 H   0  0  0  0  0  0  0  0  0  0  0  0
   32.2920   27.9470   36.9350 H   0  0  0  0  0  0  0  0  0  0  0  0
   34.6200   27.4390   34.9980 H   0  0  0  0  0  0  0  0  0  0  0  0
   33.9200   28.9630   35.5630 H   0  0  0  0  0  0  0  0  0  0  0  0
  1  6  1  0  0  0  0
  2  3  1  0  0  0  0
  2  1  2  0  0  0  0
  3  4  2  0  0  0  0
  4  9  1  0  0  0  0
  4  5  1  0  0  0  0
  5  7  1  0  0  0  0
  6  5  2  0  0  0  0
  6 12  1  0  0  0  0
  8 13  1  6  0  0  0
  8  7  1  0  0  0  0
  8 15  1  0  0  0  0
  9  8  1  0  0  0  0
 10  1  1  0  0  0  0
 11  3  1  0  0  0  0
 14 24  1  0  0  0  0
 15 16  1  0  0  0  0
 15 14  2  0  0  0  0
 16 18  2  0  0  0  0
 17 16  1  0  0  0  0
 18 19  1  0  0  0  0
 18 23  1  0  0  0  0
 19 20  1  0  0  0  0
 20 22  2  0  0  0  0
 20 21  1  0  0  0  0
 23 22  1  0  0  0  0
 24 23  2  0  0  0  0
 25 19  1  0  0  0  0
 26 31  1  0  0  0  0
 26 32  1  0  0  0  0
 27 26  2  0  0  0  0
 28 29  2  0  0  0  0
 28 27  1  0  0  0  0
 29 30  1  0  0  0  0
 30  2  1  0  0  0  0
 30 31  2  0  0  0  0
 33 28  1  0  0  0  0
 34 27  1  0  0  0  0
 34 35  1  0  0  0  0
 35 41  1  0  0  0  0
 35 40  1  0  0  0  0
 36 35  1  0  0  0  0
 36 43  1  0  0  0  0
 37 36  1  0  0  0  0
 38 37  1  0  0  0  0
 38 46  1  0  0  0  0
 39 38  1  0  0  0  0
 39 34  1  0  0  0  0
 42 36  1  0  0  0  0
 44 37  1  0  0  0  0
 45 38  1  0  0  0  0
 47 39  1  0  0  0  0
 48 39  1  0  0  0  0
M  END
>  <minimizedAffinity>
-7.27939177

$$$$

 OpenBabel03242518273D

 48 53  0  0  1  0  0  0  0  0999 V2000
   37.3540   32.8760   39.2610 C   0  0  0  0  0  0  0  0  0  0  0  0
   38.2490   31.9880   38.7540 C   0  0  0  0  0  0  0  0  0  0  0  0
   39.6030   32.2370   38.8920 C   0  0  0  0  0  0  0  0  0  0  0  0
   40.0040   33.3950   39.5480 C   0  0  0  0  0  0  0  0  0  0  0  0
   39.0880   34.2980   40.0630 C   0  0  0  0  0  0  0  0  0  0  0  0
   37.7380   34.0400   39.9200 C   0  0  0  0  0  0  0  0  0  0  0  0
   39.8010   35.3370   40.6510 O   0  0  0  0  0  0  0  0  0  0  0  0
   41.1600   35.2210   40.2410 C   0  0  2  0  0  0  0  0  0  0  0  0
   41.2920   33.8880   39.8230 O   0  0  0  0  0  0  0  0  0  0  0  0
   36.2930   32.7270   39.1800 H   0  0  0  0  0  0  0  0  0  0  0  0
   40.2810   31.5140   38.4790 H   0  0  0  0  0  0  0  0  0  0  0  0
   37.0200   34.7390   40.3200 H   0  0  0  0  0  0  0  0  0  0  0  0
   41.3430   35.8720   39.3630 H   0  0  0  0  0  0  0  0  0  0  0  0
   41.8190   36.7160   42.0970 C   0  0  0  0  0  3  0  0  0  0  0  0
   42.0630   35.5530   41.3720 C   0  0  0  0  0  0  0  0  0  0  0  0
   43.1380   34.7750   41.7540 C   0  0  0  0  0  0  0  0  0  0  0  0
   43.3330   33.8600   41.1860 H   0  0  0  0  0  0  0  0  0  0  0  0
   43.9320   35.1500   42.8170 C   0  0  0  0  0  0  0  0  0  0  0  0
   45.0240   34.5780   43.3830 N   0  0  0  0  0  0  0  0  0  0  0  0
   45.4470   35.3450   44.4170 C   0  0  0  0  0  0  0  0  0  0  0  0
   46.3110   35.1060   45.0420 H   0  0  0  0  0  0  0  0  0  0  0  0
   44.6100   36.4130   44.5000 N   0  0  0  0  0  0  0  0  0  0  0  0
   43.6930   36.2970   43.5330 C   0  0  0  0  0  0  0  0  0  0  0  0
   42.6160   37.0900   43.1630 C   0  0  0  0  0  3  0  0  0  0  0  0
   45.5010   33.6850   43.1020 H   0  0  0  0  0  0  0  0  0  0  0  0
   38.2100   28.8380   36.8290 C   0  0  0  0  0  0  0  0  0  0  0  0
   36.8490   28.5180   36.7920 C   0  0  0  0  0  0  0  0  0  0  0  0
   35.9760   29.3890   37.4270 C   0  0  0  0  0  0  0  0  0  0  0  0
   36.4390   30.5020   38.0560 N   0  0  0  0  0  0  0  0  0  0  0  0
   37.7710   30.7720   38.0660 C   0  0  0  0  0  0  0  0  0  0  0  0
   38.6580   29.9490   37.4570 N   0  0  0  0  0  0  0  0  0  0  0  0
   38.9870   28.2490   36.3780 H   0  0  0  0  0  0  0  0  0  0  0  0
   34.9400   29.1330   37.3920 H   0  0  0  0  0  0  0  0  0  0  0  0
   36.5070   27.3400   36.1110 N   0  0  0  0  0  0  0  0  0  0  0  0
   35.8430   27.4810   34.8320 C   0  0  0  0  0  0  0  0  0  0  0  0
   35.4190   26.1980   34.2250 C   0  0  0  0  0  0  0  0  0  0  0  0
   36.4790   25.2350   34.2190 N   0  0  0  0  0  0  0  0  0  0  0  0
   37.3130   25.1780   35.3520 C   0  0  0  0  0  0  0  0  0  0  0  0
   36.7260   25.9920   36.5060 C   0  0  0  0  0  0  0  0  0  0  0  0
   36.5880   27.9800   34.1490 H   0  0  0  0  0  0  0  0  0  0  0  0
   35.0190   28.1970   34.9250 H   0  0  0  0  0  0  0  0  0  0  0  0
   34.5890   25.7720   34.8620 H   0  0  0  0  0  0  0  0  0  0  0  0
   35.0600   26.3720   33.2110 H   0  0  0  0  0  0  0  0  0  0  0  0
   36.1800   24.3160   33.8330 H   0  0  0  0  0  0  0  0  0  0  0  0
   37.3070   24.1180   35.7270 H   0  0  0  0  0  0  0  0  0  0  0  0
   38.3590   25.4520   35.1880 H   0  0  0  0  0  0  0  0  0  0  0  0
   35.8210   25.4990   36.9150 H   0  0  0  0  0  0  0  0  0  0  0  0
   37.4790   25.9640   37.3170 H   0  0  0  0  0  0  0  0  0  0  0  0
  1  6  1  0  0  0  0
  2  3  1  0  0  0  0
  2  1  2  0  0  0  0
  3  4  2  0  0  0  0
  4  9  1  0  0  0  0
  4  5  1  0  0  0  0
  5  7  1  0  0  0  0
  6  5  2  0  0  0  0
  6 12  1  0  0  0  0
  8 13  1  6  0  0  0
  8  7  1  0  0  0  0
  8 15  1  0  0  0  0
  9  8  1  0  0  0  0
 10  1  1  0  0  0  0
 11  3  1  0  0  0  0
 14 24  1  0  0  0  0
 15 16  1  0  0  0  0
 15 14  2  0  0  0  0
 16 18  2  0  0  0  0
 17 16  1  0  0  0  0
 18 19  1  0  0  0  0
 18 23  1  0  0  0  0
 19 20  1  0  0  0  0
 20 22  2  0  0  0  0
 20 21  1  0  0  0  0
 23 22  1  0  0  0  0
 24 23  2  0  0  0  0
 25 19  1  0  0  0  0
 26 31  1  0  0  0  0
 27 26  2  0  0  0  0
 27 28  1  0  0  0  0
 28 29  2  0  0  0  0
 29 30  1  0  0  0  0
 30  2  1  0  0  0  0
 31 30  2  0  0  0  0
 32 26  1  0  0  0  0
 33 28  1  0  0  0  0
 34 39  1  0  0  0  0
 34 27  1  0  0  0  0
 35 41  1  0  0  0  0
 35 34  1  0  0  0  0
 36 35  1  0  0  0  0
 36 42  1  0  0  0  0
 37 36  1  0  0  0  0
 37 38  1  0  0  0  0
 38 45  1  0  0  0  0
 38 39  1  0  0  0  0
 39 47  1  0  0  0  0
 39 48  1  0  0  0  0
 40 35  1  0  0  0  0
 43 36  1  0  0  0  0
 44 37  1  0  0  0  0
 46 38  1  0  0  0  0
M  END
>  <minimizedAffinity>
-7.22479248

$$$$

 OpenBabel03242518273D

 48 53  0  0  1  0  0  0  0  0999 V2000
   37.3060   29.0200   42.5250 C   0  0  0  0  0  0  0  0  0  0  0  0
   38.1540   29.2660   41.4920 C   0  0  0  0  0  0  0  0  0  0  0  0
   38.5710   28.2170   40.6930 C   0  0  0  0  0  0  0  0  0  0  0  0
   38.1070   26.9380   40.9760 C   0  0  0  0  0  0  0  0  0  0  0  0
   37.2420   26.6910   42.0300 C   0  0  0  0  0  0  0  0  0  0  0  0
   36.8320   27.7460   42.8230 C   0  0  0  0  0  0  0  0  0  0  0  0
   36.9680   25.3280   42.0450 O   0  0  0  0  0  0  0  0  0  0  0  0
   37.8970   24.6870   41.1750 C   0  0  2  0  0  0  0  0  0  0  0  0
   38.3650   25.7110   40.3380 O   0  0  0  0  0  0  0  0  0  0  0  0
   36.9540   29.8010   43.1740 H   0  0  0  0  0  0  0  0  0  0  0  0
   39.2410   28.4490   39.8860 H   0  0  0  0  0  0  0  0  0  0  0  0
   36.1580   27.5600   43.6450 H   0  0  0  0  0  0  0  0  0  0  0  0
   38.7580   24.3070   41.7610 H   0  0  0  0  0  0  0  0  0  0  0  0
   35.9240   23.8180   39.9640 C   0  0  0  0  0  3  0  0  0  0  0  0
   37.2220   23.6020   40.4200 C   0  0  0  0  0  0  0  0  0  0  0  0
   37.8040   22.3810   40.1380 C   0  0  0  0  0  0  0  0  0  0  0  0
   38.8240   22.2080   40.4940 H   0  0  0  0  0  0  0  0  0  0  0  0
   37.1120   21.4220   39.4300 C   0  0  0  0  0  0  0  0  0  0  0  0
   37.4460   20.1700   39.0290 N   0  0  0  0  0  0  0  0  0  0  0  0
   36.4070   19.6230   38.3530 C   0  0  0  0  0  0  0  0  0  0  0  0
   36.4180   18.6190   37.9220 H   0  0  0  0  0  0  0  0  0  0  0  0
   35.4080   20.5450   38.3290 N   0  0  0  0  0  0  0  0  0  0  0  0
   35.8320   21.6330   38.9800 C   0  0  0  0  0  0  0  0  0  0  0  0
   35.2320   22.8550   39.2540 C   0  0  0  0  0  3  0  0  0  0  0  0
   38.3510   19.6620   39.1930 H   0  0  0  0  0  0  0  0  0  0  0  0
   40.3330   32.2330   41.2060 C   0  0  0  0  0  0  0  0  0  0  0  0
   39.4520   33.2160   40.7450 C   0  0  0  0  0  0  0  0  0  0  0  0
   38.1330   32.8410   40.5430 C   0  0  0  0  0  0  0  0  0  0  0  0
   37.7280   31.5670   40.7860 N   0  0  0  0  0  0  0  0  0  0  0  0
   38.6190   30.6440   41.2340 C   0  0  0  0  0  0  0  0  0  0  0  0
   39.9170   30.9690   41.4460 N   0  0  0  0  0  0  0  0  0  0  0  0
   41.3770   32.3930   41.4030 H   0  0  0  0  0  0  0  0  0  0  0  0
   37.4710   33.6020   40.1900 H   0  0  0  0  0  0  0  0  0  0  0  0
   40.0020   34.4910   40.5330 N   0  0  0  0  0  0  0  0  0  0  0  0
   39.0820   35.5720   40.2500 C   0  0  0  0  0  0  0  0  0  0  0  0
   39.7400   36.8610   39.9330 C   0  0  0  0  0  0  0  0  0  0  0  0
   40.7440   37.1980   40.8980 N   0  0  0  0  0  0  0  0  0  0  0  0
   41.5510   36.1540   41.3900 C   0  0  0  0  0  0  0  0  0  0  0  0
   41.3680   34.8830   40.5600 C   0  0  0  0  0  0  0  0  0  0  0  0
   38.4570   35.7000   41.1780 H   0  0  0  0  0  0  0  0  0  0  0  0
   38.3760   35.2570   39.4730 H   0  0  0  0  0  0  0  0  0  0  0  0
   40.2640   36.7450   38.9390 H   0  0  0  0  0  0  0  0  0  0  0  0
   38.9930   37.6500   39.8720 H   0  0  0  0  0  0  0  0  0  0  0  0
   41.2410   38.0800   40.6620 H   0  0  0  0  0  0  0  0  0  0  0  0
   42.6240   36.4450   41.2220 H   0  0  0  0  0  0  0  0  0  0  0  0
   41.4440   35.9300   42.4550 H   0  0  0  0  0  0  0  0  0  0  0  0
   41.8130   35.0040   39.5510 H   0  0  0  0  0  0  0  0  0  0  0  0
   41.9660   34.0980   41.0630 H   0  0  0  0  0  0  0  0  0  0  0  0
  1  6  1  0  0  0  0
  1 10  1  0  0  0  0
  2  1  2  0  0  0  0
  3  4  2  0  0  0  0
  3  2  1  0  0  0  0
  4  5  1  0  0  0  0
  5  7  1  0  0  0  0
  5  6  2  0  0  0  0
  6 12  1  0  0  0  0
  8 13  1  1  0  0  0
  8  7  1  0  0  0  0
  9  4  1  0  0  0  0
  9  8  1  0  0  0  0
 11  3  1  0  0  0  0
 14 15  1  0  0  0  0
 15  8  1  0  0  0  0
 16 15  2  0  0  0  0
 16 17  1  0  0  0  0
 18 16  1  0  0  0  0
 19 25  1  0  0  0  0
 19 18  1  0  0  0  0
 20 19  1  0  0  0  0
 21 20  1  0  0  0  0
 22 20  2  0  0  0  0
 22 23  1  0  0  0  0
 23 24  1  0  0  0  0
 23 18  2  0  0  0  0
 24 14  2  0  0  0  0
 26 32  1  0  0  0  0
 26 31  1  0  0  0  0
 27 26  2  0  0  0  0
 28 27  1  0  0  0  0
 28 29  2  0  0  0  0
 29 30  1  0  0  0  0
 30 31  2  0  0  0  0
 30  2  1  0  0  0  0
 33 28  1  0  0  0  0
 34 39  1  0  0  0  0
 34 27  1  0  0  0  0
 35 34  1  0  0  0  0
 35 40  1  0  0  0  0
 36 35  1  0  0  0  0
 36 37  1  0  0  0  0
 37 38  1  0  0  0  0
 38 46  1  0  0  0  0
 39 48  1  0  0  0  0
 39 38  1  0  0  0  0
 41 35  1  0  0  0  0
 42 36  1  0  0  0  0
 43 36  1  0  0  0  0
 44 37  1  0  0  0  0
 45 38  1  0  0  0  0
 47 39  1  0  0  0  0
M  END
>  <minimizedAffinity>
-7.19105244

$$$$

 OpenBabel03242518273D

 48 53  0  0  1  0  0  0  0  0999 V2000
   37.4550   29.0910   42.5730 C   0  0  0  0  0  0  0  0  0  0  0  0
   38.3560   29.3140   41.5800 C   0  0  0  0  0  0  0  0  0  0  0  0
   38.7930   28.2500   40.8120 C   0  0  0  0  0  0  0  0  0  0  0  0
   38.2950   26.9810   41.0850 C   0  0  0  0  0  0  0  0  0  0  0  0
   37.3760   26.7590   42.0970 C   0  0  0  0  0  0  0  0  0  0  0  0
   36.9450   27.8290   42.8590 C   0  0  0  0  0  0  0  0  0  0  0  0
   37.0790   25.4000   42.1110 O   0  0  0  0  0  0  0  0  0  0  0  0
   38.0380   24.7360   41.2940 C   0  0  2  0  0  0  0  0  0  0  0  0
   38.5640   25.7440   40.4720 O   0  0  0  0  0  0  0  0  0  0  0  0
   37.0840   29.8850   43.1960 H   0  0  0  0  0  0  0  0  0  0  0  0
   39.5060   28.4630   40.0370 H   0  0  0  0  0  0  0  0  0  0  0  0
   36.2290   27.6620   43.6490 H   0  0  0  0  0  0  0  0  0  0  0  0
   38.8630   24.3490   41.9250 H   0  0  0  0  0  0  0  0  0  0  0  0
   38.0850   22.4710   40.3030 C   0  0  0  0  0  3  0  0  0  0  0  0
   37.3830   23.6540   40.5170 C   0  0  0  0  0  0  0  0  0  0  0  0
   36.1100   23.7460   39.9890 C   0  0  0  0  0  0  0  0  0  0  0  0
   35.5550   24.6740   40.1560 H   0  0  0  0  0  0  0  0  0  0  0  0
   35.5680   22.6970   39.2780 C   0  0  0  0  0  0  0  0  0  0  0  0
   34.3670   22.5350   38.6690 N   0  0  0  0  0  0  0  0  0  0  0  0
   34.3160   21.3070   38.0980 C   0  0  0  0  0  0  0  0  0  0  0  0
   33.4550   20.9260   37.5440 H   0  0  0  0  0  0  0  0  0  0  0  0
   35.5010   20.6910   38.3520 N   0  0  0  0  0  0  0  0  0  0  0  0
   36.2590   21.5300   39.0660 C   0  0  0  0  0  0  0  0  0  0  0  0
   37.5400   21.4200   39.5900 C   0  0  0  0  0  3  0  0  0  0  0  0
   33.5730   23.2200   38.6200 H   0  0  0  0  0  0  0  0  0  0  0  0
   38.4500   32.9240   40.8110 C   0  0  0  0  0  0  0  0  0  0  0  0
   39.8160   33.2140   40.8740 C   0  0  0  0  0  0  0  0  0  0  0  0
   40.6730   32.1680   41.1780 C   0  0  0  0  0  0  0  0  0  0  0  0
   40.1910   30.9170   41.4040 N   0  0  0  0  0  0  0  0  0  0  0  0
   38.8550   30.6810   41.3320 C   0  0  0  0  0  0  0  0  0  0  0  0
   37.9820   31.6740   41.0370 N   0  0  0  0  0  0  0  0  0  0  0  0
   37.6830   33.6410   40.5860 H   0  0  0  0  0  0  0  0  0  0  0  0
   41.7140   32.4040   41.2240 H   0  0  0  0  0  0  0  0  0  0  0  0
   40.1790   34.5470   40.6210 N   0  0  0  0  0  0  0  0  0  0  0  0
   39.1170   35.4720   40.2880 C   0  0  0  0  0  0  0  0  0  0  0  0
   39.5870   36.8310   39.9300 C   0  0  0  0  0  0  0  0  0  0  0  0
   40.5160   37.3430   40.8910 N   0  0  0  0  0  0  0  0  0  0  0  0
   41.4580   36.4460   41.4310 C   0  0  0  0  0  0  0  0  0  0  0  0
   41.4730   35.1330   40.6460 C   0  0  0  0  0  0  0  0  0  0  0  0
   38.4660   35.5410   41.2050 H   0  0  0  0  0  0  0  0  0  0  0  0
   38.4750   35.0310   39.5170 H   0  0  0  0  0  0  0  0  0  0  0  0
   40.1370   36.7570   38.9460 H   0  0  0  0  0  0  0  0  0  0  0  0
   38.7340   37.5010   39.8330 H   0  0  0  0  0  0  0  0  0  0  0  0
   40.8850   38.2800   40.6290 H   0  0  0  0  0  0  0  0  0  0  0  0
   42.4800   36.8830   41.2630 H   0  0  0  0  0  0  0  0  0  0  0  0
   41.3690   36.2460   42.5020 H   0  0  0  0  0  0  0  0  0  0  0  0
   41.9120   35.2810   39.6380 H   0  0  0  0  0  0  0  0  0  0  0  0
   42.1710   34.4610   41.1840 H   0  0  0  0  0  0  0  0  0  0  0  0
  1  6  1  0  0  0  0
  1 10  1  0  0  0  0
  2  1  2  0  0  0  0
  3  4  2  0  0  0  0
  3  2  1  0  0  0  0
  4  5  1  0  0  0  0
  5  7  1  0  0  0  0
  5  6  2  0  0  0  0
  6 12  1  0  0  0  0
  8 13  1  1  0  0  0
  8  7  1  0  0  0  0
  9  4  1  0  0  0  0
  9  8  1  0  0  0  0
 11  3  1  0  0  0  0
 14 15  1  0  0  0  0
 15  8  1  0  0  0  0
 16 17  1  0  0  0  0
 16 15  2  0  0  0  0
 18 16  1  0  0  0  0
 19 18  1  0  0  0  0
 20 22  2  0  0  0  0
 20 19  1  0  0  0  0
 21 20  1  0  0  0  0
 22 23  1  0  0  0  0
 23 18  2  0  0  0  0
 23 24  1  0  0  0  0
 24 14  2  0  0  0  0
 25 19  1  0  0  0  0
 26 27  2  0  0  0  0
 26 31  1  0  0  0  0
 27 28  1  0  0  0  0
 28 33  1  0  0  0  0
 28 29  2  0  0  0  0
 30 29  1  0  0  0  0
 30  2  1  0  0  0  0
 31 30  2  0  0  0  0
 32 26  1  0  0  0  0
 34 39  1  0  0  0  0
 34 27  1  0  0  0  0
 35 34  1  0  0  0  0
 35 40  1  0  0  0  0
 36 35  1  0  0  0  0
 36 37  1  0  0  0  0
 37 38  1  0  0  0  0
 38 46  1  0  0  0  0
 39 48  1  0  0  0  0
 39 38  1  0  0  0  0
 41 35  1  0  0  0  0
 42 36  1  0  0  0  0
 43 36  1  0  0  0  0
 44 37  1  0  0  0  0
 45 38  1  0  0  0  0
 47 39  1  0  0  0  0
M  END
>  <minimizedAffinity>
-7.10122967

$$$$

 OpenBabel03242518273D

 48 53  0  0  1  0  0  0  0  0999 V2000
   36.9540   32.1600   39.3220 C   0  0  0  0  0  0  0  0  0  0  0  0
   37.7880   31.0870   39.3180 C   0  0  0  0  0  0  0  0  0  0  0  0
   39.1370   31.2770   39.5530 C   0  0  0  0  0  0  0  0  0  0  0  0
   39.5980   32.5680   39.7860 C   0  0  0  0  0  0  0  0  0  0  0  0
   38.7440   33.6590   39.7890 C   0  0  0  0  0  0  0  0  0  0  0  0
   37.3970   33.4580   39.5530 C   0  0  0  0  0  0  0  0  0  0  0  0
   39.5050   34.7940   40.0500 O   0  0  0  0  0  0  0  0  0  0  0  0
   40.8780   34.4380   39.9190 C   0  0  2  0  0  0  0  0  0  0  0  0
   40.8970   33.0410   40.0470 O   0  0  0  0  0  0  0  0  0  0  0  0
   35.8980   32.0630   39.1450 H   0  0  0  0  0  0  0  0  0  0  0  0
   39.7670   30.4070   39.5420 H   0  0  0  0  0  0  0  0  0  0  0  0
   36.7270   34.3040   39.5540 H   0  0  0  0  0  0  0  0  0  0  0  0
   41.2340   34.6890   38.8990 H   0  0  0  0  0  0  0  0  0  0  0  0
   41.2440   36.3450   41.4490 C   0  0  0  0  0  3  0  0  0  0  0  0
   41.6820   35.1150   40.9670 C   0  0  0  0  0  0  0  0  0  0  0  0
   42.8460   34.5980   41.5010 C   0  0  0  0  0  0  0  0  0  0  0  0
   43.1940   33.6300   41.1250 H   0  0  0  0  0  0  0  0  0  0  0  0
   43.5380   35.2870   42.4730 C   0  0  0  0  0  0  0  0  0  0  0  0
   44.6820   35.0070   43.1470 N   0  0  0  0  0  0  0  0  0  0  0  0
   44.9510   36.0150   44.0120 C   0  0  0  0  0  0  0  0  0  0  0  0
   45.8180   36.0350   44.6760 H   0  0  0  0  0  0  0  0  0  0  0  0
   43.9630   36.9390   43.8790 N   0  0  0  0  0  0  0  0  0  0  0  0
   43.1080   36.5000   42.9490 C   0  0  0  0  0  0  0  0  0  0  0  0
   41.9390   37.0350   42.4240 C   0  0  0  0  0  3  0  0  0  0  0  0
   45.2950   34.1600   43.0490 H   0  0  0  0  0  0  0  0  0  0  0  0
   37.1300   27.4660   39.6110 C   0  0  0  0  0  0  0  0  0  0  0  0
   36.2270   27.2330   38.5680 C   0  0  0  0  0  0  0  0  0  0  0  0
   35.8650   28.3220   37.7900 C   0  0  0  0  0  0  0  0  0  0  0  0
   36.3730   29.5570   38.0410 N   0  0  0  0  0  0  0  0  0  0  0  0
   37.2480   29.7360   39.0650 C   0  0  0  0  0  0  0  0  0  0  0  0
   37.6300   28.6990   39.8500 N   0  0  0  0  0  0  0  0  0  0  0  0
   37.4920   26.7110   40.2850 H   0  0  0  0  0  0  0  0  0  0  0  0
   35.1740   28.1310   36.9980 H   0  0  0  0  0  0  0  0  0  0  0  0
   35.7790   25.9110   38.4190 N   0  0  0  0  0  0  0  0  0  0  0  0
   34.8100   25.6520   37.3760 C   0  0  0  0  0  0  0  0  0  0  0  0
   34.3050   24.2590   37.3500 C   0  0  0  0  0  0  0  0  0  0  0  0
   35.3730   23.3060   37.3920 N   0  0  0  0  0  0  0  0  0  0  0  0
   36.4680   23.5890   38.2310 C   0  0  0  0  0  0  0  0  0  0  0  0
   36.1520   24.7590   39.1640 C   0  0  0  0  0  0  0  0  0  0  0  0
   35.3350   25.8690   36.4030 H   0  0  0  0  0  0  0  0  0  0  0  0
   34.0030   26.3920   37.4350 H   0  0  0  0  0  0  0  0  0  0  0  0
   33.6840   24.1000   38.2790 H   0  0  0  0  0  0  0  0  0  0  0  0
   33.6960   24.1060   36.4600 H   0  0  0  0  0  0  0  0  0  0  0  0
   35.0290   22.3240   37.4160 H   0  0  0  0  0  0  0  0  0  0  0  0
   36.6050   22.7120   38.9210 H   0  0  0  0  0  0  0  0  0  0  0  0
   37.4250   23.7530   37.7290 H   0  0  0  0  0  0  0  0  0  0  0  0
   35.4030   24.4650   39.9270 H   0  0  0  0  0  0  0  0  0  0  0  0
   37.0860   24.9690   39.7220 H   0  0  0  0  0  0  0  0  0  0  0  0
  1  6  1  0  0  0  0
  2  1  2  0  0  0  0
  2  3  1  0  0  0  0
  3  4  2  0  0  0  0
  4  5  1  0  0  0  0
  4  9  1  0  0  0  0
  5  7  1  0  0  0  0
  6 12  1  0  0  0  0
  6  5  2  0  0  0  0
  8 13  1  6  0  0  0
  8  9  1  0  0  0  0
  8  7  1  0  0  0  0
  8 15  1  0  0  0  0
 10  1  1  0  0  0  0
 11  3  1  0  0  0  0
 14 24  1  0  0  0  0
 15 14  2  0  0  0  0
 15 16  1  0  0  0  0
 16 18  2  0  0  0  0
 17 16  1  0  0  0  0
 18 23  1  0  0  0  0
 18 19  1  0  0  0  0
 19 20  1  0  0  0  0
 20 21  1  0  0  0  0
 22 20  2  0  0  0  0
 23 22  1  0  0  0  0
 24 23  2  0  0  0  0
 25 19  1  0  0  0  0
 26 31  1  0  0  0  0
 26 32  1  0  0  0  0
 27 26  2  0  0  0  0
 28 29  2  0  0  0  0
 28 27  1  0  0  0  0
 29 30  1  0  0  0  0
 30  2  1  0  0  0  0
 30 31  2  0  0  0  0
 33 28  1  0  0  0  0
 34 27  1  0  0  0  0
 34 39  1  0  0  0  0
 35 41  1  0  0  0  0
 35 34  1  0  0  0  0
 36 35  1  0  0  0  0
 36 37  1  0  0  0  0
 36 42  1  0  0  0  0
 37 44  1  0  0  0  0
 37 38  1  0  0  0  0
 38 45  1  0  0  0  0
 38 39  1  0  0  0  0
 39 48  1  0  0  0  0
 39 47  1  0  0  0  0
 40 35  1  0  0  0  0
 43 36  1  0  0  0  0
 46 38  1  0  0  0  0
M  END
>  <minimizedAffinity>
-7.019629

$$$$

 OpenBabel03242518273D

 48 53  0  0  1  0  0  0  0  0999 V2000
   37.0360   32.1670   39.2440 C   0  0  0  0  0  0  0  0  0  0  0  0
   37.9360   31.4560   38.5150 C   0  0  0  0  0  0  0  0  0  0  0  0
   39.2530   31.8780   38.4670 C   0  0  0  0  0  0  0  0  0  0  0  0
   39.6120   33.0220   39.1690 C   0  0  0  0  0  0  0  0  0  0  0  0
   38.6910   33.7430   39.9120 C   0  0  0  0  0  0  0  0  0  0  0  0
   37.3780   33.3140   39.9530 C   0  0  0  0  0  0  0  0  0  0  0  0
   39.3580   34.8200   40.4870 O   0  0  0  0  0  0  0  0  0  0  0  0
   40.6340   34.9270   39.8620 C   0  0  2  0  0  0  0  0  0  0  0  0
   40.8580   33.6650   39.2920 O   0  0  0  0  0  0  0  0  0  0  0  0
   36.0030   31.8790   39.3120 H   0  0  0  0  0  0  0  0  0  0  0  0
   39.9370   31.2920   37.8810 H   0  0  0  0  0  0  0  0  0  0  0  0
   36.6560   33.8710   40.5290 H   0  0  0  0  0  0  0  0  0  0  0  0
   40.5860   35.6670   39.0380 H   0  0  0  0  0  0  0  0  0  0  0  0
   42.8010   34.4880   40.9690 C   0  0  0  0  0  3  0  0  0  0  0  0
   41.6640   35.2860   40.8680 C   0  0  0  0  0  0  0  0  0  0  0  0
   41.5690   36.3710   41.7170 C   0  0  0  0  0  0  0  0  0  0  0  0
   40.6770   37.0010   41.6400 H   0  0  0  0  0  0  0  0  0  0  0  0
   42.5690   36.6410   42.6260 C   0  0  0  0  0  0  0  0  0  0  0  0
   42.7170   37.6210   43.5520 N   0  0  0  0  0  0  0  0  0  0  0  0
   43.8910   37.4480   44.2060 C   0  0  0  0  0  0  0  0  0  0  0  0
   44.2500   38.1030   45.0020 H   0  0  0  0  0  0  0  0  0  0  0  0
   44.4880   36.3440   43.6820 N   0  0  0  0  0  0  0  0  0  0  0  0
   43.6900   35.8550   42.7270 C   0  0  0  0  0  0  0  0  0  0  0  0
   43.8030   34.7600   41.8810 C   0  0  0  0  0  3  0  0  0  0  0  0
   42.0560   38.4090   43.7660 H   0  0  0  0  0  0  0  0  0  0  0  0
   36.8450   29.2050   35.8000 C   0  0  0  0  0  0  0  0  0  0  0  0
   36.6990   27.9790   36.4580 C   0  0  0  0  0  0  0  0  0  0  0  0
   36.9780   27.9530   37.8160 C   0  0  0  0  0  0  0  0  0  0  0  0
   37.3760   29.0780   38.4670 N   0  0  0  0  0  0  0  0  0  0  0  0
   37.5030   30.2470   37.7860 C   0  0  0  0  0  0  0  0  0  0  0  0
   37.2400   30.3180   36.4590 N   0  0  0  0  0  0  0  0  0  0  0  0
   36.6600   29.3610   34.7530 H   0  0  0  0  0  0  0  0  0  0  0  0
   36.8630   27.0100   38.3070 H   0  0  0  0  0  0  0  0  0  0  0  0
   36.2820   26.8970   35.6680 N   0  0  0  0  0  0  0  0  0  0  0  0
   35.6150   27.2030   34.4210 C   0  0  0  0  0  0  0  0  0  0  0  0
   35.1100   26.0130   33.6950 C   0  0  0  0  0  0  0  0  0  0  0  0
   36.1130   24.9970   33.5770 N   0  0  0  0  0  0  0  0  0  0  0  0
   36.9550   24.7800   34.6840 C   0  0  0  0  0  0  0  0  0  0  0  0
   36.4270   25.5060   35.9230 C   0  0  0  0  0  0  0  0  0  0  0  0
   36.3790   27.7250   33.7790 H   0  0  0  0  0  0  0  0  0  0  0  0
   34.8340   27.9510   34.5980 H   0  0  0  0  0  0  0  0  0  0  0  0
   34.2640   25.5740   34.3000 H   0  0  0  0  0  0  0  0  0  0  0  0
   34.7520   26.3090   32.7100 H   0  0  0  0  0  0  0  0  0  0  0  0
   35.7570   24.1410   33.1050 H   0  0  0  0  0  0  0  0  0  0  0  0
   36.8910   23.6900   34.9520 H   0  0  0  0  0  0  0  0  0  0  0  0
   38.0120   25.0100   34.5320 H   0  0  0  0  0  0  0  0  0  0  0  0
   35.4990   25.0260   36.2960 H   0  0  0  0  0  0  0  0  0  0  0  0
   37.1860   25.3540   36.7150 H   0  0  0  0  0  0  0  0  0  0  0  0
  1 10  1  0  0  0  0
  1  6  1  0  0  0  0
  2  1  2  0  0  0  0
  3  2  1  0  0  0  0
  3  4  2  0  0  0  0
  4  9  1  0  0  0  0
  4  5  1  0  0  0  0
  5  6  2  0  0  0  0
  5  7  1  0  0  0  0
  6 12  1  0  0  0  0
  8 13  1  6  0  0  0
  8  7  1  0  0  0  0
  8 15  1  0  0  0  0
  9  8  1  0  0  0  0
 11  3  1  0  0  0  0
 14 24  1  0  0  0  0
 15 14  2  0  0  0  0
 15 16  1  0  0  0  0
 16 18  2  0  0  0  0
 17 16  1  0  0  0  0
 18 23  1  0  0  0  0
 18 19  1  0  0  0  0
 19 25  1  0  0  0  0
 19 20  1  0  0  0  0
 20 21  1  0  0  0  0
 22 20  2  0  0  0  0
 23 22  1  0  0  0  0
 24 23  2  0  0  0  0
 26 27  2  0  0  0  0
 26 31  1  0  0  0  0
 27 28  1  0  0  0  0
 28 33  1  0  0  0  0
 28 29  2  0  0  0  0
 30 29  1  0  0  0  0
 30  2  1  0  0  0  0
 31 30  2  0  0  0  0
 32 26  1  0  0  0  0
 34 39  1  0  0  0  0
 34 27  1  0  0  0  0
 35 41  1  0  0  0  0
 35 34  1  0  0  0  0
 36 42  1  0  0  0  0
 36 35  1  0  0  0  0
 37 36  1  0  0  0  0
 37 38  1  0  0  0  0
 38 45  1  0  0  0  0
 38 39  1  0  0  0  0
 39 47  1  0  0  0  0
 39 48  1  0  0  0  0
 40 35  1  0  0  0  0
 43 36  1  0  0  0  0
 44 37  1  0  0  0  0
 46 38  1  0  0  0  0
M  END
>  <minimizedAffinity>
-6.9004178

$$$$

 OpenBabel03242518273D

 48 53  0  0  1  0  0  0  0  0999 V2000
   37.1190   26.5720   42.3530 C   0  0  0  0  0  0  0  0  0  0  0  0
   37.2840   26.2580   41.0410 C   0  0  0  0  0  0  0  0  0  0  0  0
   37.4830   27.2720   40.1220 C   0  0  0  0  0  0  0  0  0  0  0  0
   37.5070   28.5870   40.5750 C   0  0  0  0  0  0  0  0  0  0  0  0
   37.3390   28.9020   41.9130 C   0  0  0  0  0  0  0  0  0  0  0  0
   37.1410   27.8810   42.8230 C   0  0  0  0  0  0  0  0  0  0  0  0
   37.4150   30.2850   42.0370 O   0  0  0  0  0  0  0  0  0  0  0  0
   37.3390   30.8450   40.7290 C   0  0  2  0  0  0  0  0  0  0  0  0
   37.6870   29.7910   39.8700 O   0  0  0  0  0  0  0  0  0  0  0  0
   36.9620   25.8190   43.1040 H   0  0  0  0  0  0  0  0  0  0  0  0
   37.6090   26.9880   39.0940 H   0  0  0  0  0  0  0  0  0  0  0  0
   37.0100   28.1200   43.8670 H   0  0  0  0  0  0  0  0  0  0  0  0
   36.2920   31.1320   40.5050 H   0  0  0  0  0  0  0  0  0  0  0  0
   39.6140   31.7990   40.8930 C   0  0  0  0  0  3  0  0  0  0  0  0
   38.2650   31.9990   40.6140 C   0  0  0  0  0  0  0  0  0  0  0  0
   37.8700   33.2700   40.2460 C   0  0  0  0  0  0  0  0  0  0  0  0
   36.8100   33.4320   40.0260 H   0  0  0  0  0  0  0  0  0  0  0  0
   38.7900   34.2930   40.1620 C   0  0  0  0  0  0  0  0  0  0  0  0
   38.6670   35.6030   39.8300 N   0  0  0  0  0  0  0  0  0  0  0  0
   39.8820   36.1990   39.8970 C   0  0  0  0  0  0  0  0  0  0  0  0
   40.0580   37.2540   39.6770 H   0  0  0  0  0  0  0  0  0  0  0  0
   40.7800   35.2500   40.2760 N   0  0  0  0  0  0  0  0  0  0  0  0
   40.1210   34.0970   40.4360 C   0  0  0  0  0  0  0  0  0  0  0  0
   40.5350   32.8260   40.8070 C   0  0  0  0  0  3  0  0  0  0  0  0
   37.7930   36.1180   39.5590 H   0  0  0  0  0  0  0  0  0  0  0  0
   38.2350   22.7270   40.5310 C   0  0  0  0  0  0  0  0  0  0  0  0
   37.1570   22.2230   39.7970 C   0  0  0  0  0  0  0  0  0  0  0  0
   36.1290   23.1030   39.4940 C   0  0  0  0  0  0  0  0  0  0  0  0
   36.1810   24.3990   39.9010 N   0  0  0  0  0  0  0  0  0  0  0  0
   37.2500   24.8450   40.6120 C   0  0  0  0  0  0  0  0  0  0  0  0
   38.2760   24.0190   40.9290 N   0  0  0  0  0  0  0  0  0  0  0  0
   39.0920   22.1520   40.8300 H   0  0  0  0  0  0  0  0  0  0  0  0
   35.3120   22.7050   38.9340 H   0  0  0  0  0  0  0  0  0  0  0  0
   37.2290   20.8660   39.4420 N   0  0  0  0  0  0  0  0  0  0  0  0
   36.2850   20.3870   38.4550 C   0  0  0  0  0  0  0  0  0  0  0  0
   36.3510   18.9270   38.2120 C   0  0  0  0  0  0  0  0  0  0  0  0
   37.6940   18.4860   37.9840 N   0  0  0  0  0  0  0  0  0  0  0  0
   38.7120   19.0650   38.7660 C   0  0  0  0  0  0  0  0  0  0  0  0
   38.1200   19.8700   39.9240 C   0  0  0  0  0  0  0  0  0  0  0  0
   36.5330   20.9290   37.4990 H   0  0  0  0  0  0  0  0  0  0  0  0
   35.2760   20.7250   38.7190 H   0  0  0  0  0  0  0  0  0  0  0  0
   35.9850   18.4050   39.1440 H   0  0  0  0  0  0  0  0  0  0  0  0
   35.7180   18.6670   37.3640 H   0  0  0  0  0  0  0  0  0  0  0  0
   37.7570   17.4560   37.8530 H   0  0  0  0  0  0  0  0  0  0  0  0
   39.2760   18.2310   39.2650 H   0  0  0  0  0  0  0  0  0  0  0  0
   39.4460   19.6670   38.2240 H   0  0  0  0  0  0  0  0  0  0  0  0
   37.6650   19.1970   40.6800 H   0  0  0  0  0  0  0  0  0  0  0  0
   38.9770   20.3570   40.4300 H   0  0  0  0  0  0  0  0  0  0  0  0
  1  6  1  0  0  0  0
  1 10  1  0  0  0  0
  2  1  2  0  0  0  0
  3  4  2  0  0  0  0
  3  2  1  0  0  0  0
  4  5  1  0  0  0  0
  5  7  1  0  0  0  0
  5  6  2  0  0  0  0
  6 12  1  0  0  0  0
  8 13  1  6  0  0  0
  8  7  1  0  0  0  0
  9  4  1  0  0  0  0
  9  8  1  0  0  0  0
 11  3  1  0  0  0  0
 15  8  1  0  0  0  0
 15 14  2  0  0  0  0
 16 15  1  0  0  0  0
 17 16  1  0  0  0  0
 18 16  2  0  0  0  0
 18 23  1  0  0  0  0
 19 20  1  0  0  0  0
 19 18  1  0  0  0  0
 20 22  2  0  0  0  0
 21 20  1  0  0  0  0
 22 23  1  0  0  0  0
 23 24  2  0  0  0  0
 24 14  1  0  0  0  0
 25 19  1  0  0  0  0
 26 32  1  0  0  0  0
 26 31  1  0  0  0  0
 27 26  2  0  0  0  0
 28 27  1  0  0  0  0
 28 29  2  0  0  0  0
 29 30  1  0  0  0  0
 30 31  2  0  0  0  0
 30  2  1  0  0  0  0
 33 28  1  0  0  0  0
 34 27  1  0  0  0  0
 34 39  1  0  0  0  0
 35 41  1  0  0  0  0
 35 34  1  0  0  0  0
 36 35  1  0  0  0  0
 36 42  1  0  0  0  0
 37 36  1  0  0  0  0
 37 38  1  0  0  0  0
 38 45  1  0  0  0  0
 38 39  1  0  0  0  0
 39 48  1  0  0  0  0
 39 47  1  0  0  0  0
 40 35  1  0  0  0  0
 43 36  1  0  0  0  0
 44 37  1  0  0  0  0
 46 38  1  0  0  0  0
M  END
>  <minimizedAffinity>
-6.73288393

$$$$

 OpenBabel03242518273D

 48 53  0  0  1  0  0  0  0  0999 V2000
   37.5910   29.0600   42.1900 C   0  0  0  0  0  0  0  0  0  0  0  0
   38.1300   29.4620   41.0090 C   0  0  0  0  0  0  0  0  0  0  0  0
   38.1320   28.5900   39.9350 C   0  0  0  0  0  0  0  0  0  0  0  0
   37.5800   27.3250   40.1010 C   0  0  0  0  0  0  0  0  0  0  0  0
   37.0310   26.9210   41.3070 C   0  0  0  0  0  0  0  0  0  0  0  0
   37.0340   27.7990   42.3750 C   0  0  0  0  0  0  0  0  0  0  0  0
   36.5690   25.6190   41.1480 O   0  0  0  0  0  0  0  0  0  0  0  0
   37.0960   25.1150   39.9240 C   0  0  2  0  0  0  0  0  0  0  0  0
   37.4520   26.2590   39.1930 O   0  0  0  0  0  0  0  0  0  0  0  0
   37.5650   29.7010   43.0530 H   0  0  0  0  0  0  0  0  0  0  0  0
   38.5660   28.9410   39.0170 H   0  0  0  0  0  0  0  0  0  0  0  0
   36.6080   27.4890   43.3160 H   0  0  0  0  0  0  0  0  0  0  0  0
   38.0220   24.5390   40.1240 H   0  0  0  0  0  0  0  0  0  0  0  0
   35.9250   24.4430   37.8530 C   0  0  0  0  0  3  0  0  0  0  0  0
   36.0740   24.2930   39.2290 C   0  0  0  0  0  0  0  0  0  0  0  0
   35.2560   23.3800   39.8650 C   0  0  0  0  0  0  0  0  0  0  0  0
   35.3710   23.2600   40.9470 H   0  0  0  0  0  0  0  0  0  0  0  0
   34.3290   22.6530   39.1500 C   0  0  0  0  0  0  0  0  0  0  0  0
   33.4240   21.7140   39.5250 N   0  0  0  0  0  0  0  0  0  0  0  0
   32.7370   21.2930   38.4360 C   0  0  0  0  0  0  0  0  0  0  0  0
   31.9480   20.5380   38.4650 H   0  0  0  0  0  0  0  0  0  0  0  0
   33.2170   21.9770   37.3630 N   0  0  0  0  0  0  0  0  0  0  0  0
   34.1800   22.8000   37.7940 C   0  0  0  0  0  0  0  0  0  0  0  0
   34.9940   23.7120   37.1380 C   0  0  0  0  0  3  0  0  0  0  0  0
   33.2470   21.3410   40.4910 H   0  0  0  0  0  0  0  0  0  0  0  0
   38.4200   33.1200   40.6020 C   0  0  0  0  0  0  0  0  0  0  0  0
   39.8030   33.3240   40.6540 C   0  0  0  0  0  0  0  0  0  0  0  0
   40.6030   32.2060   40.8270 C   0  0  0  0  0  0  0  0  0  0  0  0
   40.0530   30.9680   40.9410 N   0  0  0  0  0  0  0  0  0  0  0  0
   38.7040   30.8170   40.8840 C   0  0  0  0  0  0  0  0  0  0  0  0
   37.8850   31.8830   40.7150 N   0  0  0  0  0  0  0  0  0  0  0  0
   37.6930   33.8990   40.4710 H   0  0  0  0  0  0  0  0  0  0  0  0
   41.6570   32.3760   40.8660 H   0  0  0  0  0  0  0  0  0  0  0  0
   40.2380   34.6530   40.5240 N   0  0  0  0  0  0  0  0  0  0  0  0
   39.2370   35.6530   40.2200 C   0  0  0  0  0  0  0  0  0  0  0  0
   39.7860   37.0110   39.9930 C   0  0  0  0  0  0  0  0  0  0  0  0
   40.6910   37.4000   41.0330 N   0  0  0  0  0  0  0  0  0  0  0  0
   41.5630   36.4180   41.5400 C   0  0  0  0  0  0  0  0  0  0  0  0
   41.5560   35.1710   40.6540 C   0  0  0  0  0  0  0  0  0  0  0  0
   38.5460   35.6820   41.1100 H   0  0  0  0  0  0  0  0  0  0  0  0
   38.6140   35.3060   39.3880 H   0  0  0  0  0  0  0  0  0  0  0  0
   40.3790   36.9860   39.0320 H   0  0  0  0  0  0  0  0  0  0  0  0
   38.9710   37.7270   39.9120 H   0  0  0  0  0  0  0  0  0  0  0  0
   41.1140   38.3350   40.8630 H   0  0  0  0  0  0  0  0  0  0  0  0
   42.6110   36.8150   41.4530 H   0  0  0  0  0  0  0  0  0  0  0  0
   41.4130   36.1400   42.5860 H   0  0  0  0  0  0  0  0  0  0  0  0
   42.0480   35.3750   39.6810 H   0  0  0  0  0  0  0  0  0  0  0  0
   42.1950   34.4250   41.1670 H   0  0  0  0  0  0  0  0  0  0  0  0
  1  6  1  0  0  0  0
  1 10  1  0  0  0  0
  2  1  2  0  0  0  0
  3  4  2  0  0  0  0
  3  2  1  0  0  0  0
  4  5  1  0  0  0  0
  5  6  2  0  0  0  0
  6 12  1  0  0  0  0
  7  5  1  0  0  0  0
  8 13  1  1  0  0  0
  8  7  1  0  0  0  0
  9  8  1  0  0  0  0
  9  4  1  0  0  0  0
 11  3  1  0  0  0  0
 14 15  1  0  0  0  0
 15 16  2  0  0  0  0
 15  8  1  0  0  0  0
 16 17  1  0  0  0  0
 18 19  1  0  0  0  0
 18 16  1  0  0  0  0
 19 25  1  0  0  0  0
 20 21  1  0  0  0  0
 20 19  1  0  0  0  0
 22 23  1  0  0  0  0
 22 20  2  0  0  0  0
 23 18  2  0  0  0  0
 24 23  1  0  0  0  0
 24 14  2  0  0  0  0
 26 27  2  0  0  0  0
 26 31  1  0  0  0  0
 27 28  1  0  0  0  0
 28 33  1  0  0  0  0
 28 29  2  0  0  0  0
 30 29  1  0  0  0  0
 30  2  1  0  0  0  0
 31 30  2  0  0  0  0
 32 26  1  0  0  0  0
 34 27  1  0  0  0  0
 34 39  1  0  0  0  0
 35 34  1  0  0  0  0
 35 40  1  0  0  0  0
 36 35  1  0  0  0  0
 36 37  1  0  0  0  0
 37 38  1  0  0  0  0
 38 46  1  0  0  0  0
 39 48  1  0  0  0  0
 39 38  1  0  0  0  0
 41 35  1  0  0  0  0
 42 36  1  0  0  0  0
 43 36  1  0  0  0  0
 44 37  1  0  0  0  0
 45 38  1  0  0  0  0
 47 39  1  0  0  0  0
M  END
>  <minimizedAffinity>
-6.70687294

$$$$
