
 OpenBabel03252509123D

 34 38  0  0  0  0  0  0  0  0999 V2000
   39.3870   30.2070   41.8990 C   0  0  0  0  0  0  0  0  0  0  0  0
   38.3030   29.6380   41.2620 C   0  0  0  0  0  0  0  0  0  0  0  0
   37.4340   30.3790   40.4850 C   0  0  0  0  0  0  0  0  0  0  0  0
   37.6280   31.7440   40.3200 C   0  0  0  0  0  0  0  0  0  0  0  0
   36.9860   32.7420   39.6490 N   0  0  0  0  0  0  0  0  0  0  0  0
   37.6810   33.9080   39.8800 C   0  0  0  0  0  0  0  0  0  0  0  0
   38.7360   33.6000   40.6910 N   0  0  0  0  0  0  0  0  0  0  0  0
   38.7280   32.2810   40.9760 C   0  0  0  0  0  0  0  0  0  0  0  0
   39.6100   31.5780   41.7520 C   0  0  0  0  0  0  0  0  0  0  0  0
   40.0200   29.5670   42.4860 H   0  0  0  0  0  0  0  0  0  0  0  0
   36.1200   32.6000   39.0710 H   0  0  0  0  0  0  0  0  0  0  0  0
   37.4190   34.8770   39.4830 H   0  0  0  0  0  0  0  0  0  0  0  0
   40.4480   32.0390   42.2420 H   0  0  0  0  0  0  0  0  0  0  0  0
   35.0070   29.5220   40.2420 C   0  0  0  0  0  3  0  0  0  0  0  0
   36.2570   29.8780   39.7810 C   0  0  0  0  0  0  0  0  0  0  0  0
   36.5300   29.7580   38.4110 C   0  0  0  0  0  0  0  0  0  0  0  0
   37.4670   30.0000   37.9080 H   0  0  0  0  0  0  0  0  0  0  0  0
   35.5790   29.2950   37.5220 C   0  0  0  0  0  0  0  0  0  0  0  0
   35.5260   29.0670   36.1910 N   0  0  0  0  0  0  0  0  0  0  0  0
   34.3040   28.5930   35.8310 C   0  0  0  0  0  0  0  0  0  0  0  0
   34.0700   28.3520   34.7950 H   0  0  0  0  0  0  0  0  0  0  0  0
   33.5860   28.5240   36.9650 N   0  0  0  0  0  0  0  0  0  0  0  0
   34.3310   28.9400   38.0010 C   0  0  0  0  0  0  0  0  0  0  0  0
   34.0800   29.0620   39.3320 C   0  0  0  0  0  3  0  0  0  0  0  0
   36.3330   29.2420   35.5320 H   0  0  0  0  0  0  0  0  0  0  0  0
   38.2380   26.0190   40.6130 C   0  0  0  0  0  0  0  0  0  0  0  0
   37.5090   25.5220   41.6940 C   0  0  0  0  0  0  0  0  0  0  0  0
   37.0450   26.4440   42.6430 C   0  0  0  0  0  0  0  0  0  0  0  0
   37.3330   27.7650   42.4510 N   0  0  0  0  0  0  0  0  0  0  0  0
   38.0450   28.2130   41.3870 C   0  0  0  0  0  0  0  0  0  0  0  0
   38.4860   27.3440   40.4850 N   0  0  0  0  0  0  0  0  0  0  0  0
   38.6090   25.3050   39.8590 H   0  0  0  0  0  0  0  0  0  0  0  0
   37.2940   24.4880   41.8260 H   0  0  0  0  0  0  0  0  0  0  0  0
   36.4690   26.1630   43.5200 H   0  0  0  0  0  0  0  0  0  0  0  0
  1 10  1  0  0  0  0
  2 30  1  0  0  0  0
  2  1  2  0  0  0  0
  3  2  1  0  0  0  0
  4  3  2  0  0  0  0
  4  8  1  0  0  0  0
  5  6  1  0  0  0  0
  5  4  1  0  0  0  0
  6  7  2  0  0  0  0
  7  8  1  0  0  0  0
  8  9  2  0  0  0  0
  9  1  1  0  0  0  0
  9 13  1  0  0  0  0
 11  5  1  0  0  0  0
 12  6  1  0  0  0  0
 15 14  1  0  0  0  0
 15  3  1  0  0  0  0
 16 15  2  0  0  0  0
 17 16  1  0  0  0  0
 18 23  2  0  0  0  0
 18 16  1  0  0  0  0
 19 18  1  0  0  0  0
 20 19  1  0  0  0  0
 20 22  2  0  0  0  0
 21 20  1  0  0  0  0
 22 23  1  0  0  0  0
 23 24  1  0  0  0  0
 24 14  2  0  0  0  0
 25 19  1  0  0  0  0
 26 27  1  0  0  0  0
 27 33  1  0  0  0  0
 27 28  2  0  0  0  0
 28 34  1  0  0  0  0
 29 28  1  0  0  0  0
 30 29  2  0  0  0  0
 31 26  2  0  0  0  0
 31 30  1  0  0  0  0
 32 26  1  0  0  0  0
M  END
>  <minimizedAffinity>
-6.16382551

$$$$

 OpenBabel03252509123D

 34 38  0  0  0  0  0  0  0  0999 V2000
   35.6640   26.9960   38.3730 C   0  0  0  0  0  0  0  0  0  0  0  0
   36.5200   27.9280   38.9230 C   0  0  0  0  0  0  0  0  0  0  0  0
   36.9970   29.0050   38.2000 C   0  0  0  0  0  0  0  0  0  0  0  0
   36.6240   29.1840   36.8750 C   0  0  0  0  0  0  0  0  0  0  0  0
   36.8970   30.1000   35.9040 N   0  0  0  0  0  0  0  0  0  0  0  0
   36.2090   29.7210   34.7730 C   0  0  0  0  0  0  0  0  0  0  0  0
   35.5260   28.5780   35.0760 N   0  0  0  0  0  0  0  0  0  0  0  0
   35.7620   28.2250   36.3570 C   0  0  0  0  0  0  0  0  0  0  0  0
   35.2690   27.1480   37.0420 C   0  0  0  0  0  0  0  0  0  0  0  0
   35.3350   26.1850   38.9970 H   0  0  0  0  0  0  0  0  0  0  0  0
   37.5280   30.9310   36.0390 H   0  0  0  0  0  0  0  0  0  0  0  0
   36.2230   30.2490   33.8310 H   0  0  0  0  0  0  0  0  0  0  0  0
   34.6040   26.4300   36.5970 H   0  0  0  0  0  0  0  0  0  0  0  0
   39.2890   30.0810   38.7250 C   0  0  0  0  0  3  0  0  0  0  0  0
   37.9110   30.0370   38.6820 C   0  0  0  0  0  0  0  0  0  0  0  0
   37.1860   31.1290   39.1780 C   0  0  0  0  0  0  0  0  0  0  0  0
   36.1000   31.2320   39.2100 H   0  0  0  0  0  0  0  0  0  0  0  0
   37.8200   32.2390   39.7040 C   0  0  0  0  0  0  0  0  0  0  0  0
   37.4270   33.4140   40.2450 N   0  0  0  0  0  0  0  0  0  0  0  0
   38.5030   34.1610   40.6090 C   0  0  0  0  0  0  0  0  0  0  0  0
   38.3850   35.1440   41.0640 H   0  0  0  0  0  0  0  0  0  0  0  0
   39.5850   33.4320   40.2870 N   0  0  0  0  0  0  0  0  0  0  0  0
   39.2020   32.2670   39.7400 C   0  0  0  0  0  0  0  0  0  0  0  0
   39.8920   31.2010   39.2560 C   0  0  0  0  0  3  0  0  0  0  0  0
   36.4160   33.6990   40.3600 H   0  0  0  0  0  0  0  0  0  0  0  0
   36.6390   28.1900   42.5880 C   0  0  0  0  0  0  0  0  0  0  0  0
   37.8270   27.5330   42.9100 C   0  0  0  0  0  0  0  0  0  0  0  0
   38.5810   27.0020   41.8530 C   0  0  0  0  0  0  0  0  0  0  0  0
   38.1090   27.1600   40.5820 N   0  0  0  0  0  0  0  0  0  0  0  0
   36.9470   27.8060   40.3070 C   0  0  0  0  0  0  0  0  0  0  0  0
   36.2300   28.3110   41.3040 N   0  0  0  0  0  0  0  0  0  0  0  0
   36.0360   28.6120   43.4100 H   0  0  0  0  0  0  0  0  0  0  0  0
   38.1810   27.4210   43.9070 H   0  0  0  0  0  0  0  0  0  0  0  0
   39.5200   26.4740   41.9930 H   0  0  0  0  0  0  0  0  0  0  0  0
  1  2  1  0  0  0  0
  1 10  1  0  0  0  0
  2 30  1  0  0  0  0
  3 15  1  0  0  0  0
  3  2  2  0  0  0  0
  4  3  1  0  0  0  0
  5 11  1  0  0  0  0
  5  4  1  0  0  0  0
  6  7  2  0  0  0  0
  6  5  1  0  0  0  0
  7  8  1  0  0  0  0
  8  4  2  0  0  0  0
  8  9  1  0  0  0  0
  9  1  2  0  0  0  0
 12  6  1  0  0  0  0
 13  9  1  0  0  0  0
 14 24  1  0  0  0  0
 15 14  2  0  0  0  0
 15 16  1  0  0  0  0
 16 17  1  0  0  0  0
 16 18  2  0  0  0  0
 18 23  1  0  0  0  0
 18 19  1  0  0  0  0
 19 25  1  0  0  0  0
 19 20  1  0  0  0  0
 20 21  1  0  0  0  0
 22 20  2  0  0  0  0
 23 22  1  0  0  0  0
 24 23  2  0  0  0  0
 26 27  1  0  0  0  0
 26 32  1  0  0  0  0
 27 33  1  0  0  0  0
 28 34  1  0  0  0  0
 28 27  2  0  0  0  0
 29 28  1  0  0  0  0
 30 29  2  0  0  0  0
 30 31  1  0  0  0  0
 31 26  2  0  0  0  0
M  END
>  <minimizedAffinity>
-5.80435705

$$$$

 OpenBabel03252509123D

 34 38  0  0  0  0  0  0  0  0999 V2000
   35.5220   28.8540   39.1400 C   0  0  0  0  0  0  0  0  0  0  0  0
   36.8630   29.1680   39.0540 C   0  0  0  0  0  0  0  0  0  0  0  0
   37.4690   29.4830   37.8530 C   0  0  0  0  0  0  0  0  0  0  0  0
   36.7340   29.4910   36.6750 C   0  0  0  0  0  0  0  0  0  0  0  0
   37.0030   29.7440   35.3630 N   0  0  0  0  0  0  0  0  0  0  0  0
   35.8300   29.5830   34.6620 C   0  0  0  0  0  0  0  0  0  0  0  0
   34.8630   29.2330   35.5600 N   0  0  0  0  0  0  0  0  0  0  0  0
   35.3880   29.1690   36.8020 C   0  0  0  0  0  0  0  0  0  0  0  0
   34.7550   28.8530   37.9730 C   0  0  0  0  0  0  0  0  0  0  0  0
   35.1210   28.6200   40.1090 H   0  0  0  0  0  0  0  0  0  0  0  0
   37.9530   30.0110   34.9990 H   0  0  0  0  0  0  0  0  0  0  0  0
   35.7200   29.7140   33.5950 H   0  0  0  0  0  0  0  0  0  0  0  0
   33.7090   28.6090   38.0210 H   0  0  0  0  0  0  0  0  0  0  0  0
   39.9820   29.0170   37.4650 C   0  0  0  0  0  3  0  0  0  0  0  0
   38.8760   29.8180   37.6520 C   0  0  0  0  0  0  0  0  0  0  0  0
   39.0480   31.2090   37.6770 C   0  0  0  0  0  0  0  0  0  0  0  0
   38.2700   31.9610   37.8160 H   0  0  0  0  0  0  0  0  0  0  0  0
   40.2930   31.7870   37.5190 C   0  0  0  0  0  0  0  0  0  0  0  0
   40.7810   33.0470   37.4960 N   0  0  0  0  0  0  0  0  0  0  0  0
   42.1270   33.0400   37.3030 C   0  0  0  0  0  0  0  0  0  0  0  0
   42.6990   33.9650   37.2540 H   0  0  0  0  0  0  0  0  0  0  0  0
   42.4790   31.7460   37.2060 N   0  0  0  0  0  0  0  0  0  0  0  0
   41.3920   30.9680   37.3340 C   0  0  0  0  0  0  0  0  0  0  0  0
   41.2110   29.6210   37.3120 C   0  0  0  0  0  3  0  0  0  0  0  0
   40.1840   33.9110   37.6110 H   0  0  0  0  0  0  0  0  0  0  0  0
   38.6430   30.2970   42.0660 C   0  0  0  0  0  0  0  0  0  0  0  0
   39.2800   29.1370   42.5060 C   0  0  0  0  0  0  0  0  0  0  0  0
   39.0880   27.9680   41.7550 C   0  0  0  0  0  0  0  0  0  0  0  0
   38.2950   28.0380   40.6470 N   0  0  0  0  0  0  0  0  0  0  0  0
   37.6910   29.1850   40.2490 C   0  0  0  0  0  0  0  0  0  0  0  0
   37.8690   30.2950   40.9560 N   0  0  0  0  0  0  0  0  0  0  0  0
   38.7850   31.2240   42.6480 H   0  0  0  0  0  0  0  0  0  0  0  0
   39.8960   29.1010   43.3720 H   0  0  0  0  0  0  0  0  0  0  0  0
   39.5380   27.0120   42.0090 H   0  0  0  0  0  0  0  0  0  0  0  0
  1 10  1  0  0  0  0
  2  1  1  0  0  0  0
  2 30  1  0  0  0  0
  3  2  2  0  0  0  0
  4  8  2  0  0  0  0
  4  3  1  0  0  0  0
  5  4  1  0  0  0  0
  6  5  1  0  0  0  0
  6  7  2  0  0  0  0
  7  8  1  0  0  0  0
  8  9  1  0  0  0  0
  9 13  1  0  0  0  0
  9  1  2  0  0  0  0
 11  5  1  0  0  0  0
 12  6  1  0  0  0  0
 14 15  1  0  0  0  0
 15 16  2  0  0  0  0
 15  3  1  0  0  0  0
 16 17  1  0  0  0  0
 18 16  1  0  0  0  0
 19 18  1  0  0  0  0
 19 25  1  0  0  0  0
 20 19  1  0  0  0  0
 21 20  1  0  0  0  0
 22 20  2  0  0  0  0
 22 23  1  0  0  0  0
 23 18  2  0  0  0  0
 24 23  1  0  0  0  0
 24 14  2  0  0  0  0
 26 27  1  0  0  0  0
 26 32  1  0  0  0  0
 27 33  1  0  0  0  0
 28 34  1  0  0  0  0
 28 27  2  0  0  0  0
 29 28  1  0  0  0  0
 30 29  2  0  0  0  0
 30 31  1  0  0  0  0
 31 26  2  0  0  0  0
M  END
>  <minimizedAffinity>
-5.63897705

$$$$

 OpenBabel03252509123D

 34 38  0  0  0  0  0  0  0  0999 V2000
   36.3060   26.2240   39.2180 C   0  0  0  0  0  0  0  0  0  0  0  0
   36.7410   27.4440   39.6930 C   0  0  0  0  0  0  0  0  0  0  0  0
   36.6500   28.6000   38.9410 C   0  0  0  0  0  0  0  0  0  0  0  0
   36.1090   28.5680   37.6630 C   0  0  0  0  0  0  0  0  0  0  0  0
   35.8780   29.4860   36.6830 N   0  0  0  0  0  0  0  0  0  0  0  0
   35.3060   28.8210   35.6210 C   0  0  0  0  0  0  0  0  0  0  0  0
   35.1990   27.5060   35.9740 N   0  0  0  0  0  0  0  0  0  0  0  0
   35.6840   27.3220   37.2200 C   0  0  0  0  0  0  0  0  0  0  0  0
   35.7570   26.1580   37.9350 C   0  0  0  0  0  0  0  0  0  0  0  0
   36.4100   25.3680   39.8590 H   0  0  0  0  0  0  0  0  0  0  0  0
   36.1110   30.5080   36.7660 H   0  0  0  0  0  0  0  0  0  0  0  0
   35.0070   29.2790   34.6900 H   0  0  0  0  0  0  0  0  0  0  0  0
   35.4150   25.2150   37.5480 H   0  0  0  0  0  0  0  0  0  0  0  0
   36.4570   30.9110   40.0870 C   0  0  0  0  0  3  0  0  0  0  0  0
   37.0880   29.9340   39.3450 C   0  0  0  0  0  0  0  0  0  0  0  0
   38.3720   30.1910   38.8460 C   0  0  0  0  0  0  0  0  0  0  0  0
   38.9870   29.5170   38.2480 H   0  0  0  0  0  0  0  0  0  0  0  0
   39.0120   31.3930   39.0810 C   0  0  0  0  0  0  0  0  0  0  0  0
   40.2060   31.9360   38.7530 N   0  0  0  0  0  0  0  0  0  0  0  0
   40.3210   33.1910   39.2620 C   0  0  0  0  0  0  0  0  0  0  0  0
   41.2170   33.7890   39.1030 H   0  0  0  0  0  0  0  0  0  0  0  0
   39.1730   33.4300   39.9200 N   0  0  0  0  0  0  0  0  0  0  0  0
   38.3650   32.3620   39.8260 C   0  0  0  0  0  0  0  0  0  0  0  0
   37.1190   32.0990   40.3040 C   0  0  0  0  0  3  0  0  0  0  0  0
   40.9400   31.4390   38.1790 H   0  0  0  0  0  0  0  0  0  0  0  0
   37.1040   27.9290   43.3190 C   0  0  0  0  0  0  0  0  0  0  0  0
   38.4710   27.7420   43.5240 C   0  0  0  0  0  0  0  0  0  0  0  0
   39.2610   27.4480   42.4020 C   0  0  0  0  0  0  0  0  0  0  0  0
   38.6460   27.3640   41.1860 N   0  0  0  0  0  0  0  0  0  0  0  0
   37.3120   27.5520   41.0250 C   0  0  0  0  0  0  0  0  0  0  0  0
   36.5600   27.8310   42.0840 N   0  0  0  0  0  0  0  0  0  0  0  0
   36.4720   28.1600   44.1930 H   0  0  0  0  0  0  0  0  0  0  0  0
   38.9340   27.8120   44.4790 H   0  0  0  0  0  0  0  0  0  0  0  0
   40.3340   27.2850   42.4500 H   0  0  0  0  0  0  0  0  0  0  0  0
  1  2  1  0  0  0  0
  1 10  1  0  0  0  0
  2 30  1  0  0  0  0
  3 15  1  0  0  0  0
  3  2  2  0  0  0  0
  4  3  1  0  0  0  0
  5 11  1  0  0  0  0
  5  4  1  0  0  0  0
  6  7  2  0  0  0  0
  6  5  1  0  0  0  0
  7  8  1  0  0  0  0
  8  4  2  0  0  0  0
  8  9  1  0  0  0  0
  9  1  2  0  0  0  0
 12  6  1  0  0  0  0
 13  9  1  0  0  0  0
 14 24  1  0  0  0  0
 15 14  2  0  0  0  0
 16 18  2  0  0  0  0
 16 15  1  0  0  0  0
 17 16  1  0  0  0  0
 18 23  1  0  0  0  0
 19 18  1  0  0  0  0
 19 20  1  0  0  0  0
 20 22  2  0  0  0  0
 21 20  1  0  0  0  0
 23 22  1  0  0  0  0
 23 24  2  0  0  0  0
 25 19  1  0  0  0  0
 26 27  1  0  0  0  0
 26 32  1  0  0  0  0
 27 33  1  0  0  0  0
 28 34  1  0  0  0  0
 28 27  2  0  0  0  0
 29 28  1  0  0  0  0
 30 29  2  0  0  0  0
 30 31  1  0  0  0  0
 31 26  2  0  0  0  0
M  END
>  <minimizedAffinity>
-5.56960392

$$$$

 OpenBabel03252509123D

 34 38  0  0  0  0  0  0  0  0999 V2000
   36.7260   26.1870   39.7190 C   0  0  0  0  0  0  0  0  0  0  0  0
   37.2080   27.4290   39.3580 C   0  0  0  0  0  0  0  0  0  0  0  0
   37.9830   28.1930   40.2090 C   0  0  0  0  0  0  0  0  0  0  0  0
   38.3060   27.7270   41.4760 C   0  0  0  0  0  0  0  0  0  0  0  0
   39.0220   28.2030   42.5340 N   0  0  0  0  0  0  0  0  0  0  0  0
   38.9720   27.2520   43.5280 C   0  0  0  0  0  0  0  0  0  0  0  0
   38.2240   26.2100   43.0580 N   0  0  0  0  0  0  0  0  0  0  0  0
   37.8030   26.4740   41.8040 C   0  0  0  0  0  0  0  0  0  0  0  0
   37.0340   25.6900   40.9880 C   0  0  0  0  0  0  0  0  0  0  0  0
   36.1300   25.6510   39.0040 H   0  0  0  0  0  0  0  0  0  0  0  0
   39.5080   29.1350   42.5430 H   0  0  0  0  0  0  0  0  0  0  0  0
   39.4460   27.3380   44.4950 H   0  0  0  0  0  0  0  0  0  0  0  0
   36.6650   24.7250   41.2870 H   0  0  0  0  0  0  0  0  0  0  0  0
   39.7380   29.9030   39.3820 C   0  0  0  0  0  3  0  0  0  0  0  0
   38.5320   29.5170   39.9290 C   0  0  0  0  0  0  0  0  0  0  0  0
   37.6210   30.5090   40.3200 C   0  0  0  0  0  0  0  0  0  0  0  0
   36.6370   30.3530   40.7640 H   0  0  0  0  0  0  0  0  0  0  0  0
   37.9060   31.8530   40.1690 C   0  0  0  0  0  0  0  0  0  0  0  0
   37.2690   33.0150   40.4360 N   0  0  0  0  0  0  0  0  0  0  0  0
   38.0350   34.0780   40.0750 C   0  0  0  0  0  0  0  0  0  0  0  0
   37.6870   35.1010   40.2130 H   0  0  0  0  0  0  0  0  0  0  0  0
   39.1710   33.5630   39.5740 N   0  0  0  0  0  0  0  0  0  0  0  0
   39.1200   32.2220   39.6200 C   0  0  0  0  0  0  0  0  0  0  0  0
   39.9940   31.2500   39.2450 C   0  0  0  0  0  3  0  0  0  0  0  0
   36.3060   33.0710   40.8660 H   0  0  0  0  0  0  0  0  0  0  0  0
   35.5560   29.1920   36.5870 C   0  0  0  0  0  0  0  0  0  0  0  0
   36.4270   28.9790   35.5180 C   0  0  0  0  0  0  0  0  0  0  0  0
   37.5840   28.2260   35.7650 C   0  0  0  0  0  0  0  0  0  0  0  0
   37.7850   27.7490   37.0280 N   0  0  0  0  0  0  0  0  0  0  0  0
   36.9140   27.9760   38.0440 C   0  0  0  0  0  0  0  0  0  0  0  0
   35.8170   28.6880   37.8160 N   0  0  0  0  0  0  0  0  0  0  0  0
   34.6420   29.7830   36.4070 H   0  0  0  0  0  0  0  0  0  0  0  0
   36.2530   29.3580   34.5390 H   0  0  0  0  0  0  0  0  0  0  0  0
   38.3260   28.0020   35.0040 H   0  0  0  0  0  0  0  0  0  0  0  0
  1  9  1  0  0  0  0
  2  1  2  0  0  0  0
  2  3  1  0  0  0  0
  3  4  2  0  0  0  0
  4  8  1  0  0  0  0
  4  5  1  0  0  0  0
  5 11  1  0  0  0  0
  5  6  1  0  0  0  0
  6 12  1  0  0  0  0
  7  6  2  0  0  0  0
  8  7  1  0  0  0  0
  9 13  1  0  0  0  0
  9  8  2  0  0  0  0
 10  1  1  0  0  0  0
 14 15  1  0  0  0  0
 15  3  1  0  0  0  0
 15 16  2  0  0  0  0
 16 17  1  0  0  0  0
 18 16  1  0  0  0  0
 18 19  1  0  0  0  0
 19 25  1  0  0  0  0
 20 21  1  0  0  0  0
 20 19  1  0  0  0  0
 22 23  1  0  0  0  0
 22 20  2  0  0  0  0
 23 18  2  0  0  0  0
 24 14  2  0  0  0  0
 24 23  1  0  0  0  0
 26 31  1  0  0  0  0
 27 28  1  0  0  0  0
 27 26  2  0  0  0  0
 28 29  2  0  0  0  0
 29 30  1  0  0  0  0
 30  2  1  0  0  0  0
 31 30  2  0  0  0  0
 32 26  1  0  0  0  0
 33 27  1  0  0  0  0
 34 28  1  0  0  0  0
M  END
>  <minimizedAffinity>
-5.5247612

$$$$

 OpenBabel03252509123D

 34 38  0  0  0  0  0  0  0  0999 V2000
   36.4800   29.9610   35.2540 C   0  0  0  0  0  0  0  0  0  0  0  0
   36.6980   29.8000   36.6070 C   0  0  0  0  0  0  0  0  0  0  0  0
   35.7670   29.2050   37.4360 C   0  0  0  0  0  0  0  0  0  0  0  0
   34.5620   28.7440   36.9250 C   0  0  0  0  0  0  0  0  0  0  0  0
   33.4580   28.1320   37.4390 N   0  0  0  0  0  0  0  0  0  0  0  0
   32.5790   27.9250   36.4010 C   0  0  0  0  0  0  0  0  0  0  0  0
   33.1630   28.4160   35.2680 N   0  0  0  0  0  0  0  0  0  0  0  0
   34.3780   28.9240   35.5590 C   0  0  0  0  0  0  0  0  0  0  0  0
   35.2780   29.5070   34.7080 C   0  0  0  0  0  0  0  0  0  0  0  0
   37.2510   30.4320   34.6730 H   0  0  0  0  0  0  0  0  0  0  0  0
   33.3430   27.8830   38.4540 H   0  0  0  0  0  0  0  0  0  0  0  0
   31.6090   27.4580   36.4910 H   0  0  0  0  0  0  0  0  0  0  0  0
   35.0900   29.6260   33.6560 H   0  0  0  0  0  0  0  0  0  0  0  0
   35.5900   29.8170   39.9430 C   0  0  0  0  0  3  0  0  0  0  0  0
   35.8950   28.9970   38.8760 C   0  0  0  0  0  0  0  0  0  0  0  0
   36.4350   27.7300   39.1340 C   0  0  0  0  0  0  0  0  0  0  0  0
   36.7240   26.9800   38.3960 H   0  0  0  0  0  0  0  0  0  0  0  0
   36.6660   27.2910   40.4240 C   0  0  0  0  0  0  0  0  0  0  0  0
   37.1590   26.1670   40.9920 N   0  0  0  0  0  0  0  0  0  0  0  0
   37.1640   26.2750   42.3470 C   0  0  0  0  0  0  0  0  0  0  0  0
   37.5260   25.4650   42.9800 H   0  0  0  0  0  0  0  0  0  0  0  0
   36.6630   27.4910   42.6240 N   0  0  0  0  0  0  0  0  0  0  0  0
   36.3560   28.1260   41.4810 C   0  0  0  0  0  0  0  0  0  0  0  0
   35.8320   29.3530   41.2170 C   0  0  0  0  0  3  0  0  0  0  0  0
   37.4900   25.3280   40.4430 H   0  0  0  0  0  0  0  0  0  0  0  0
   39.2490   31.9060   38.2140 C   0  0  0  0  0  0  0  0  0  0  0  0
   40.3350   31.0390   38.3380 C   0  0  0  0  0  0  0  0  0  0  0  0
   40.1780   29.7290   37.8640 C   0  0  0  0  0  0  0  0  0  0  0  0
   38.9770   29.3840   37.3130 N   0  0  0  0  0  0  0  0  0  0  0  0
   37.9420   30.2540   37.2090 C   0  0  0  0  0  0  0  0  0  0  0  0
   38.0850   31.4960   37.6560 N   0  0  0  0  0  0  0  0  0  0  0  0
   39.3590   32.9390   38.5840 H   0  0  0  0  0  0  0  0  0  0  0  0
   41.2640   31.3260   38.7700 H   0  0  0  0  0  0  0  0  0  0  0  0
   40.9590   28.9760   37.9120 H   0  0  0  0  0  0  0  0  0  0  0  0
  1  2  1  0  0  0  0
  2 30  1  0  0  0  0
  2  3  2  0  0  0  0
  3 15  1  0  0  0  0
  4  3  1  0  0  0  0
  4  5  1  0  0  0  0
  5 11  1  0  0  0  0
  6 12  1  0  0  0  0
  6  5  1  0  0  0  0
  7  8  1  0  0  0  0
  7  6  2  0  0  0  0
  8  4  2  0  0  0  0
  9  1  2  0  0  0  0
  9  8  1  0  0  0  0
 10  1  1  0  0  0  0
 13  9  1  0  0  0  0
 14 24  1  0  0  0  0
 15 16  1  0  0  0  0
 15 14  2  0  0  0  0
 16 18  2  0  0  0  0
 17 16  1  0  0  0  0
 18 19  1  0  0  0  0
 18 23  1  0  0  0  0
 19 20  1  0  0  0  0
 20 22  2  0  0  0  0
 20 21  1  0  0  0  0
 23 22  1  0  0  0  0
 24 23  2  0  0  0  0
 25 19  1  0  0  0  0
 26 27  1  0  0  0  0
 26 32  1  0  0  0  0
 27 33  1  0  0  0  0
 28 34  1  0  0  0  0
 28 27  2  0  0  0  0
 29 28  1  0  0  0  0
 30 29  2  0  0  0  0
 30 31  1  0  0  0  0
 31 26  2  0  0  0  0
M  END
>  <minimizedAffinity>
-5.40082264

$$$$

 OpenBabel03252509123D

 34 38  0  0  0  0  0  0  0  0999 V2000
   37.1050   25.4320   41.3270 C   0  0  0  0  0  0  0  0  0  0  0  0
   37.4420   26.7600   41.1620 C   0  0  0  0  0  0  0  0  0  0  0  0
   38.5890   27.3020   41.7090 C   0  0  0  0  0  0  0  0  0  0  0  0
   39.4530   26.5130   42.4570 C   0  0  0  0  0  0  0  0  0  0  0  0
   40.6270   26.7150   43.1180 N   0  0  0  0  0  0  0  0  0  0  0  0
   40.9970   25.5140   43.6790 C   0  0  0  0  0  0  0  0  0  0  0  0
   40.0390   24.5980   43.3490 N   0  0  0  0  0  0  0  0  0  0  0  0
   39.0800   25.1820   42.6010 C   0  0  0  0  0  0  0  0  0  0  0  0
   37.9540   24.6120   42.0730 C   0  0  0  0  0  0  0  0  0  0  0  0
   36.1980   25.0820   40.8710 H   0  0  0  0  0  0  0  0  0  0  0  0
   41.1250   27.6400   43.1640 H   0  0  0  0  0  0  0  0  0  0  0  0
   41.8870   25.3510   44.2690 H   0  0  0  0  0  0  0  0  0  0  0  0
   37.7070   23.5740   42.2140 H   0  0  0  0  0  0  0  0  0  0  0  0
   38.8370   29.7700   42.4400 C   0  0  0  0  0  3  0  0  0  0  0  0
   39.0280   28.6910   41.6030 C   0  0  0  0  0  0  0  0  0  0  0  0
   39.7530   28.8770   40.4180 C   0  0  0  0  0  0  0  0  0  0  0  0
   39.9810   28.1210   39.6660 H   0  0  0  0  0  0  0  0  0  0  0  0
   40.2740   30.1110   40.0760 C   0  0  0  0  0  0  0  0  0  0  0  0
   40.9920   30.6070   39.0430 N   0  0  0  0  0  0  0  0  0  0  0  0
   41.2400   31.9320   39.2210 C   0  0  0  0  0  0  0  0  0  0  0  0
   41.8080   32.5070   38.4910 H   0  0  0  0  0  0  0  0  0  0  0  0
   40.6620   32.2620   40.3890 N   0  0  0  0  0  0  0  0  0  0  0  0
   40.0720   31.1830   40.9250 C   0  0  0  0  0  0  0  0  0  0  0  0
   39.3670   30.9870   42.0720 C   0  0  0  0  0  3  0  0  0  0  0  0
   41.3100   30.0300   38.2180 H   0  0  0  0  0  0  0  0  0  0  0  0
   34.9500   29.3000   40.2350 C   0  0  0  0  0  0  0  0  0  0  0  0
   34.9920   29.2850   38.8410 C   0  0  0  0  0  0  0  0  0  0  0  0
   35.8860   28.3940   38.2290 C   0  0  0  0  0  0  0  0  0  0  0  0
   36.6540   27.6010   39.0320 N   0  0  0  0  0  0  0  0  0  0  0  0
   36.5860   27.6430   40.3860 C   0  0  0  0  0  0  0  0  0  0  0  0
   35.7410   28.4840   40.9700 N   0  0  0  0  0  0  0  0  0  0  0  0
   34.2520   29.9970   40.7300 H   0  0  0  0  0  0  0  0  0  0  0  0
   34.3850   29.9110   38.2320 H   0  0  0  0  0  0  0  0  0  0  0  0
   35.9970   28.3020   37.1530 H   0  0  0  0  0  0  0  0  0  0  0  0
  1  9  1  0  0  0  0
  2  1  2  0  0  0  0
  2  3  1  0  0  0  0
  3  4  2  0  0  0  0
  4  8  1  0  0  0  0
  4  5  1  0  0  0  0
  5 11  1  0  0  0  0
  5  6  1  0  0  0  0
  6 12  1  0  0  0  0
  7  6  2  0  0  0  0
  8  7  1  0  0  0  0
  9 13  1  0  0  0  0
  9  8  2  0  0  0  0
 10  1  1  0  0  0  0
 15  3  1  0  0  0  0
 15 14  2  0  0  0  0
 16 15  1  0  0  0  0
 17 16  1  0  0  0  0
 18 16  2  0  0  0  0
 18 23  1  0  0  0  0
 19 20  1  0  0  0  0
 19 18  1  0  0  0  0
 20 22  2  0  0  0  0
 21 20  1  0  0  0  0
 22 23  1  0  0  0  0
 23 24  2  0  0  0  0
 24 14  1  0  0  0  0
 25 19  1  0  0  0  0
 26 32  1  0  0  0  0
 26 31  1  0  0  0  0
 27 26  2  0  0  0  0
 28 27  1  0  0  0  0
 28 29  2  0  0  0  0
 29 30  1  0  0  0  0
 30 31  2  0  0  0  0
 30  2  1  0  0  0  0
 33 27  1  0  0  0  0
 34 28  1  0  0  0  0
M  END
>  <minimizedAffinity>
-5.398283

$$$$

 OpenBabel03252509123D

 34 38  0  0  0  0  0  0  0  0999 V2000
   36.0300   25.3910   38.5240 C   0  0  0  0  0  0  0  0  0  0  0  0
   36.4170   26.5420   39.1800 C   0  0  0  0  0  0  0  0  0  0  0  0
   35.8430   27.7700   38.9120 C   0  0  0  0  0  0  0  0  0  0  0  0
   34.8420   27.8850   37.9570 C   0  0  0  0  0  0  0  0  0  0  0  0
   34.0870   28.9050   37.4590 N   0  0  0  0  0  0  0  0  0  0  0  0
   33.2490   28.3710   36.5060 C   0  0  0  0  0  0  0  0  0  0  0  0
   33.5080   27.0310   36.4400 N   0  0  0  0  0  0  0  0  0  0  0  0
   34.4800   26.7060   37.3170 C   0  0  0  0  0  0  0  0  0  0  0  0
   35.0250   25.4740   37.5570 C   0  0  0  0  0  0  0  0  0  0  0  0
   36.5220   24.4720   38.7860 H   0  0  0  0  0  0  0  0  0  0  0  0
   34.1660   29.9040   37.7760 H   0  0  0  0  0  0  0  0  0  0  0  0
   32.5270   28.9300   35.9300 H   0  0  0  0  0  0  0  0  0  0  0  0
   34.7120   24.5880   37.0340 H   0  0  0  0  0  0  0  0  0  0  0  0
   35.7070   29.6490   40.6830 C   0  0  0  0  0  3  0  0  0  0  0  0
   36.1850   29.0430   39.5400 C   0  0  0  0  0  0  0  0  0  0  0  0
   37.1650   29.7030   38.7860 C   0  0  0  0  0  0  0  0  0  0  0  0
   37.6320   29.3480   37.8660 H   0  0  0  0  0  0  0  0  0  0  0  0
   37.6570   30.9390   39.1640 C   0  0  0  0  0  0  0  0  0  0  0  0
   38.5680   31.8100   38.6750 N   0  0  0  0  0  0  0  0  0  0  0  0
   38.6600   32.9080   39.4710 C   0  0  0  0  0  0  0  0  0  0  0  0
   39.3450   33.7220   39.2390 H   0  0  0  0  0  0  0  0  0  0  0  0
   37.7860   32.7130   40.4730 N   0  0  0  0  0  0  0  0  0  0  0  0
   37.1660   31.5320   40.3120 C   0  0  0  0  0  0  0  0  0  0  0  0
   36.2160   30.8800   41.0330 C   0  0  0  0  0  3  0  0  0  0  0  0
   39.1260   31.6430   37.7940 H   0  0  0  0  0  0  0  0  0  0  0  0
   39.6960   26.5590   40.8430 C   0  0  0  0  0  0  0  0  0  0  0  0
   39.3650   26.3870   42.1870 C   0  0  0  0  0  0  0  0  0  0  0  0
   38.0060   26.2670   42.5100 C   0  0  0  0  0  0  0  0  0  0  0  0
   37.0950   26.3250   41.4940 N   0  0  0  0  0  0  0  0  0  0  0  0
   37.4540   26.4930   40.1970 C   0  0  0  0  0  0  0  0  0  0  0  0
   38.7400   26.6060   39.8850 N   0  0  0  0  0  0  0  0  0  0  0  0
   40.7620   26.6550   40.5750 H   0  0  0  0  0  0  0  0  0  0  0  0
   40.0890   26.3440   42.9650 H   0  0  0  0  0  0  0  0  0  0  0  0
   37.6400   26.1300   43.5240 H   0  0  0  0  0  0  0  0  0  0  0  0
  1 10  1  0  0  0  0
  1  2  1  0  0  0  0
  2 30  1  0  0  0  0
  3  2  2  0  0  0  0
  3 15  1  0  0  0  0
  4  3  1  0  0  0  0
  5 11  1  0  0  0  0
  5  4  1  0  0  0  0
  6  5  1  0  0  0  0
  7  6  2  0  0  0  0
  7  8  1  0  0  0  0
  8  9  1  0  0  0  0
  8  4  2  0  0  0  0
  9  1  2  0  0  0  0
 12  6  1  0  0  0  0
 13  9  1  0  0  0  0
 14 24  1  0  0  0  0
 15 14  2  0  0  0  0
 16 18  2  0  0  0  0
 16 15  1  0  0  0  0
 17 16  1  0  0  0  0
 18 23  1  0  0  0  0
 19 18  1  0  0  0  0
 19 20  1  0  0  0  0
 20 22  2  0  0  0  0
 21 20  1  0  0  0  0
 23 22  1  0  0  0  0
 23 24  2  0  0  0  0
 25 19  1  0  0  0  0
 26 27  1  0  0  0  0
 27 28  2  0  0  0  0
 27 33  1  0  0  0  0
 28 34  1  0  0  0  0
 29 28  1  0  0  0  0
 30 29  2  0  0  0  0
 31 30  1  0  0  0  0
 31 26  2  0  0  0  0
 32 26  1  0  0  0  0
M  END
>  <minimizedAffinity>
-5.37486696

$$$$

 OpenBabel03252509123D

 34 38  0  0  0  0  0  0  0  0999 V2000
   36.1600   25.3690   38.7160 C   0  0  0  0  0  0  0  0  0  0  0  0
   36.1450   26.7430   38.8450 C   0  0  0  0  0  0  0  0  0  0  0  0
   36.7470   27.3880   39.9090 C   0  0  0  0  0  0  0  0  0  0  0  0
   37.3950   26.6610   40.8980 C   0  0  0  0  0  0  0  0  0  0  0  0
   38.0680   26.9630   42.0440 N   0  0  0  0  0  0  0  0  0  0  0  0
   38.4870   25.7770   42.6020 C   0  0  0  0  0  0  0  0  0  0  0  0
   38.0610   24.7680   41.7850 N   0  0  0  0  0  0  0  0  0  0  0  0
   37.3890   25.2810   40.7330 C   0  0  0  0  0  0  0  0  0  0  0  0
   36.8050   24.6080   39.6940 C   0  0  0  0  0  0  0  0  0  0  0  0
   35.6710   24.9380   37.8610 H   0  0  0  0  0  0  0  0  0  0  0  0
   38.2160   27.9420   42.3980 H   0  0  0  0  0  0  0  0  0  0  0  0
   39.0480   25.6860   43.5210 H   0  0  0  0  0  0  0  0  0  0  0  0
   36.8250   23.5370   39.6100 H   0  0  0  0  0  0  0  0  0  0  0  0
   35.8990   29.6610   40.8040 C   0  0  0  0  0  3  0  0  0  0  0  0
   36.7790   28.8290   40.1440 C   0  0  0  0  0  0  0  0  0  0  0  0
   37.9240   29.3870   39.5590 C   0  0  0  0  0  0  0  0  0  0  0  0
   38.7020   28.8550   39.0090 H   0  0  0  0  0  0  0  0  0  0  0  0
   38.1860   30.7420   39.6310 C   0  0  0  0  0  0  0  0  0  0  0  0
   39.1630   31.5660   39.1890 N   0  0  0  0  0  0  0  0  0  0  0  0
   38.9110   32.8510   39.5530 C   0  0  0  0  0  0  0  0  0  0  0  0
   39.5890   33.6600   39.2870 H   0  0  0  0  0  0  0  0  0  0  0  0
   37.7530   32.8220   40.2350 N   0  0  0  0  0  0  0  0  0  0  0  0
   37.2930   31.5620   40.2960 C   0  0  0  0  0  0  0  0  0  0  0  0
   36.1860   31.0070   40.8590 C   0  0  0  0  0  3  0  0  0  0  0  0
   40.0020   31.2380   38.6380 H   0  0  0  0  0  0  0  0  0  0  0  0
   33.6320   28.7310   37.0420 C   0  0  0  0  0  0  0  0  0  0  0  0
   34.3160   29.1300   35.8940 C   0  0  0  0  0  0  0  0  0  0  0  0
   35.6450   28.7070   35.7500 C   0  0  0  0  0  0  0  0  0  0  0  0
   36.1850   27.9360   36.7380 N   0  0  0  0  0  0  0  0  0  0  0  0
   35.4900   27.5670   37.8430 C   0  0  0  0  0  0  0  0  0  0  0  0
   34.2310   27.9640   37.9840 N   0  0  0  0  0  0  0  0  0  0  0  0
   32.5860   29.0570   37.1680 H   0  0  0  0  0  0  0  0  0  0  0  0
   33.8780   29.7310   35.1330 H   0  0  0  0  0  0  0  0  0  0  0  0
   36.2660   28.9600   34.8950 H   0  0  0  0  0  0  0  0  0  0  0  0
  1  2  2  0  0  0  0
  1  9  1  0  0  0  0
  2  3  1  0  0  0  0
  3 15  1  0  0  0  0
  3  4  2  0  0  0  0
  4  5  1  0  0  0  0
  5 11  1  0  0  0  0
  5  6  1  0  0  0  0
  6 12  1  0  0  0  0
  7  6  2  0  0  0  0
  8  4  1  0  0  0  0
  8  7  1  0  0  0  0
  9  8  2  0  0  0  0
 10  1  1  0  0  0  0
 13  9  1  0  0  0  0
 14 24  1  0  0  0  0
 15 14  2  0  0  0  0
 16 18  2  0  0  0  0
 16 15  1  0  0  0  0
 17 16  1  0  0  0  0
 18 23  1  0  0  0  0
 19 20  1  0  0  0  0
 19 18  1  0  0  0  0
 20 22  2  0  0  0  0
 21 20  1  0  0  0  0
 22 23  1  0  0  0  0
 23 24  2  0  0  0  0
 25 19  1  0  0  0  0
 26 32  1  0  0  0  0
 26 31  1  0  0  0  0
 27 26  2  0  0  0  0
 28 27  1  0  0  0  0
 28 29  2  0  0  0  0
 29 30  1  0  0  0  0
 30 31  2  0  0  0  0
 30  2  1  0  0  0  0
 33 27  1  0  0  0  0
 34 28  1  0  0  0  0
M  END
>  <minimizedAffinity>
-5.35989094

$$$$
