
 OpenBabel03242511203D

 42 46  0  0  1  0  0  0  0  0999 V2000
   47.3430   33.0520   41.2920 C   0  0  0  0  0  0  0  0  0  0  0  0
   48.0680   33.4520   42.0020 H   0  0  0  0  0  0  0  0  0  0  0  0
   46.9280   32.1130   41.7330 H   0  0  0  0  0  0  0  0  0  0  0  0
   47.8430   32.7540   39.9500 C   0  0  0  0  0  0  0  0  0  0  0  0
   49.0740   32.3860   39.7820 C   0  0  0  0  0  0  0  0  0  0  0  0
   49.5880   32.0880   38.5100 N   0  0  0  0  0  0  0  0  0  0  0  0
   50.3550   31.1780   37.6900 C   0  0  0  0  0  0  0  0  0  0  0  0
   51.2960   30.3560   37.8930 O   0  0  0  0  0  0  0  0  0  0  0  0
   49.5020   31.6910   36.5480 C   0  0  0  0  0  0  0  0  0  0  0  0
   49.3610   32.9580   37.3470 C   0  0  1  0  0  0  0  0  0  0  0  0
   47.7170   33.6770   37.4540 S   0  0  0  0  0  0  0  0  0  0  0  0
   46.8650   32.8990   38.8420 C   0  0  0  0  0  0  0  0  0  0  0  0
   50.1010   31.8330   35.6060 H   0  0  0  0  0  0  0  0  0  0  0  0
   48.5980   31.0940   36.4510 H   0  0  0  0  0  0  0  0  0  0  0  0
   50.1830   33.6750   37.1800 H   0  0  0  0  0  0  0  0  0  0  0  0
   46.4700   31.8900   38.5770 H   0  0  0  0  0  0  0  0  0  0  0  0
   46.0160   33.5370   39.0980 H   0  0  0  0  0  0  0  0  0  0  0  0
   49.9610   32.2790   40.9540 C   0  0  0  0  0  0  0  0  0  0  0  0
   51.2130   32.0810   40.8950 O   0  0  0  0  0  0  0  0  0  0  0  0
   50.5070   32.2270   42.2050 O   0  0  0  0  0  0  0  0  0  0  0  0
   50.1550   32.7340   43.0320 H   0  0  0  0  0  0  0  0  0  0  0  0
   45.9560   34.2640   41.1920 S   0  0  0  0  0  0  0  0  0  0  0  0
   44.3760   36.0580   44.4750 C   0  0  0  0  0  0  0  0  0  0  0  0
   44.7240   35.8100   43.1090 C   0  0  0  0  0  0  0  0  0  0  0  0
   45.4920   34.6300   42.8760 C   0  0  0  0  0  0  0  0  0  0  0  0
   45.8360   33.8380   43.9280 N   0  0  0  0  0  0  0  0  0  0  0  0
   45.4760   34.1320   45.1740 C   0  0  0  0  0  0  0  0  0  0  0  0
   44.7570   35.2210   45.4670 N   0  0  0  0  0  0  0  0  0  0  0  0
   43.7980   36.9610   44.5850 H   0  0  0  0  0  0  0  0  0  0  0  0
   44.4290   36.4640   42.3220 H   0  0  0  0  0  0  0  0  0  0  0  0
   45.2160   33.2160   47.4620 C   0  0  0  0  0  0  0  0  0  0  0  0
   45.8810   33.2360   46.2520 C   0  0  0  0  0  0  0  0  0  0  0  0
   46.9510   32.3730   46.0940 C   0  0  0  0  0  0  0  0  0  0  0  0
   47.5220   32.3290   45.1770 H   0  0  0  0  0  0  0  0  0  0  0  0
   47.2880   31.5420   47.1630 C   0  0  0  0  0  0  0  0  0  0  0  0
   48.2650   30.6020   47.3210 N   0  0  0  0  0  0  0  0  0  0  0  0
   48.1900   30.0540   48.5480 C   0  0  0  0  0  0  0  0  0  0  0  0
   48.8000   29.2930   48.9960 H   0  0  0  0  0  0  0  0  0  0  0  0
   47.1700   30.6290   49.1930 N   0  0  0  0  0  0  0  0  0  0  0  0
   46.6110   31.5330   48.3700 C   0  0  0  0  0  0  0  0  0  0  0  0
   45.5450   32.3940   48.5260 C   0  0  0  0  0  0  0  0  0  0  0  0
   48.9780   30.3340   46.6020 H   0  0  0  0  0  0  0  0  0  0  0  0
  1  3  1  0  0  0  0
  1  2  1  0  0  0  0
  4  1  1  0  0  0  0
  5  4  2  0  0  0  0
  5 18  1  0  0  0  0
  6  5  1  0  0  0  0
  7  8  2  0  0  0  0
  7  6  1  0  0  0  0
  9 10  1  0  0  0  0
  9  7  1  0  0  0  0
 10 15  1  6  0  0  0
 10 11  1  0  0  0  0
 10  6  1  0  0  0  0
 11 12  1  0  0  0  0
 12 17  1  0  0  0  0
 12  4  1  0  0  0  0
 13  9  1  0  0  0  0
 14  9  1  0  0  0  0
 16 12  1  0  0  0  0
 18 20  1  0  0  0  0
 19 18  2  0  0  0  0
 20 21  1  0  0  0  0
 22  1  1  0  0  0  0
 22 25  1  0  0  0  0
 23 29  1  0  0  0  0
 23 28  1  0  0  0  0
 24 23  2  0  0  0  0
 25 24  1  0  0  0  0
 25 26  2  0  0  0  0
 26 27  1  0  0  0  0
 27 28  2  0  0  0  0
 27 32  1  0  0  0  0
 30 24  1  0  0  0  0
 31 41  1  0  0  0  0
 32 31  2  0  0  0  0
 33 32  1  0  0  0  0
 33 35  2  0  0  0  0
 34 33  1  0  0  0  0
 35 36  1  0  0  0  0
 35 40  1  0  0  0  0
 36 37  1  0  0  0  0
 37 38  1  0  0  0  0
 37 39  2  0  0  0  0
 40 41  2  0  0  0  0
 40 39  1  0  0  0  0
 42 36  1  0  0  0  0
M  END
>  <minimizedAffinity>
-6.0858264

>  <minimizedRMSD>
0.959843099

$$$$
