
 OpenBabel03252508383D

 44 48  0  0  0  0  0  0  0  0999 V2000
   45.1260   33.9590   40.7280 C   0  0  0  0  0  0  0  0  0  0  0  0
   44.0800   33.6280   39.9170 C   0  0  0  0  0  0  0  0  0  0  0  0
   44.3800   33.1130   38.6840 C   0  0  0  0  0  0  0  0  0  0  0  0
   45.6650   32.9170   38.2320 C   0  0  0  0  0  0  0  0  0  0  0  0
   46.6930   33.2650   39.0820 C   0  0  0  0  0  0  0  0  0  0  0  0
   46.4420   33.7890   40.3380 C   0  0  0  0  0  0  0  0  0  0  0  0
   43.5580   32.8460   38.0340 H   0  0  0  0  0  0  0  0  0  0  0  0
   45.8340   32.5110   37.2580 H   0  0  0  0  0  0  0  0  0  0  0  0
   47.7170   33.1140   38.7310 H   0  0  0  0  0  0  0  0  0  0  0  0
   40.7940   35.2720   40.8050 C   0  0  0  0  0  0  0  0  0  0  0  0
   42.0970   35.1020   40.2930 C   0  0  0  0  0  0  0  0  0  0  0  0
   42.7360   33.8470   40.4310 C   0  0  0  0  0  0  0  0  0  0  0  0
   42.0170   32.9010   41.0610 N   0  0  0  0  0  0  0  0  0  0  0  0
   40.7890   33.0840   41.5370 C   0  0  0  0  0  0  0  0  0  0  0  0
   40.1800   34.2730   41.4080 N   0  0  0  0  0  0  0  0  0  0  0  0
   40.2020   36.5540   40.6380 N   0  0  0  0  0  0  0  0  0  0  0  0
   42.6370   35.8970   39.7910 H   0  0  0  0  0  0  0  0  0  0  0  0
   40.2650   32.2740   42.0370 H   0  0  0  0  0  0  0  0  0  0  0  0
   39.9150   37.0460   39.7500 H   0  0  0  0  0  0  0  0  0  0  0  0
   39.9820   37.1710   41.4500 H   0  0  0  0  0  0  0  0  0  0  0  0
   47.5940   34.1230   41.1480 C   0  0  0  0  0  0  0  0  0  0  0  0
   48.1400   35.3730   40.9210 C   0  0  0  0  0  0  0  0  0  0  0  0
   49.2480   35.8770   41.5980 C   0  0  0  0  0  0  0  0  0  0  0  0
   49.8240   35.0560   42.5560 C   0  0  0  0  0  0  0  0  0  0  0  0
   49.2960   33.8020   42.8010 C   0  0  0  0  0  0  0  0  0  0  0  0
   48.1950   33.3500   42.1020 C   0  0  0  0  0  0  0  0  0  0  0  0
   47.7540   36.0880   40.1880 H   0  0  0  0  0  0  0  0  0  0  0  0
   49.6700   36.8380   41.4260 H   0  0  0  0  0  0  0  0  0  0  0  0
   50.6870   35.3890   43.1170 H   0  0  0  0  0  0  0  0  0  0  0  0
   49.7050   33.1110   43.5420 H   0  0  0  0  0  0  0  0  0  0  0  0
   46.8900   31.9870   43.5320 C   0  0  0  0  0  3  0  0  0  0  0  0
   47.6240   32.0320   42.3420 C   0  0  0  0  0  0  0  0  0  0  0  0
   47.6920   30.8710   41.6010 C   0  0  0  0  0  0  0  0  0  0  0  0
   48.2750   31.0000   40.6990 H   0  0  0  0  0  0  0  0  0  0  0  0
   47.0540   29.7340   42.0400 C   0  0  0  0  0  0  0  0  0  0  0  0
   47.0050   28.5300   41.4690 N   0  0  0  0  0  0  0  0  0  0  0  0
   46.2620   27.7140   42.2590 C   0  0  0  0  0  0  0  0  0  0  0  0
   46.0370   26.6680   42.0640 H   0  0  0  0  0  0  0  0  0  0  0  0
   45.8580   28.4440   43.3250 N   0  0  0  0  0  0  0  0  0  0  0  0
   46.3450   29.7020   43.1990 C   0  0  0  0  0  0  0  0  0  0  0  0
   46.2470   30.8380   43.9750 C   0  0  0  0  0  3  0  0  0  0  0  0
   47.4490   28.2240   40.5680 H   0  0  0  0  0  0  0  0  0  0  0  0
   44.7130   34.9690   43.1140 N   0  0  0  0  0  0  0  0  0  0  0  0
   44.8930   34.5120   42.0470 C   0  0  0  0  0  0  0  0  0  0  0  0
  1 44  1  0  0  0  0
  2 12  1  0  0  0  0
  2  1  2  0  0  0  0
  3  2  1  0  0  0  0
  4  3  2  0  0  0  0
  4  5  1  0  0  0  0
  5  6  2  0  0  0  0
  6  1  1  0  0  0  0
  6 21  1  0  0  0  0
  7  3  1  0  0  0  0
  8  4  1  0  0  0  0
  9  5  1  0  0  0  0
 10 15  1  0  0  0  0
 11 12  1  0  0  0  0
 11 10  2  0  0  0  0
 12 13  2  0  0  0  0
 13 14  1  0  0  0  0
 14 18  1  0  0  0  0
 15 14  2  0  0  0  0
 16 10  1  0  0  0  0
 16 20  1  0  0  0  0
 17 11  1  0  0  0  0
 19 16  1  0  0  0  0
 21 26  1  0  0  0  0
 22 21  2  0  0  0  0
 22 23  1  0  0  0  0
 23 24  2  0  0  0  0
 24 25  1  0  0  0  0
 24 29  1  0  0  0  0
 25 30  1  0  0  0  0
 26 32  1  0  0  0  0
 26 25  2  0  0  0  0
 27 22  1  0  0  0  0
 28 23  1  0  0  0  0
 31 41  1  0  0  0  0
 32 31  2  0  0  0  0
 33 35  2  0  0  0  0
 33 32  1  0  0  0  0
 34 33  1  0  0  0  0
 35 40  1  0  0  0  0
 36 35  1  0  0  0  0
 36 37  1  0  0  0  0
 37 39  2  0  0  0  0
 38 37  1  0  0  0  0
 40 39  1  0  0  0  0
 40 41  2  0  0  0  0
 42 36  1  0  0  0  0
 44 43  3  0  0  0  0
M  END
>  <minimizedAffinity>
-6.1038866

>  <minimizedRMSD>
0.844888151

$$$$
