
 OpenBabel03252502083D

 51 56  0  0  0  0  0  0  0  0999 V2000
   45.6830   33.7970   45.4050 C   0  0  0  0  0  0  0  0  0  0  0  0
   44.8280   34.7490   45.7940 N   0  0  0  0  0  0  0  0  0  0  0  0
   44.4930   35.8210   45.0820 C   0  0  0  0  0  0  0  0  0  0  0  0
   45.0360   36.0060   43.8600 N   0  0  0  0  0  0  0  0  0  0  0  0
   45.9040   35.1260   43.3590 C   0  0  0  0  0  0  0  0  0  0  0  0
   46.4590   35.3130   42.1090 C   0  0  0  0  0  0  0  0  0  0  0  0
   47.3490   34.4240   41.5790 C   0  0  0  0  0  0  0  0  0  0  0  0
   47.6840   33.3100   42.3410 C   0  0  0  0  0  0  0  0  0  0  0  0
   47.0920   33.1720   43.5940 C   0  0  0  0  0  0  0  0  0  0  0  0
   46.2120   34.0350   44.1430 C   0  0  0  0  0  0  0  0  0  0  0  0
   43.7850   36.5070   45.5320 H   0  0  0  0  0  0  0  0  0  0  0  0
   46.1480   36.2040   41.5830 H   0  0  0  0  0  0  0  0  0  0  0  0
   47.7620   34.6060   40.5970 H   0  0  0  0  0  0  0  0  0  0  0  0
   47.5740   31.9970   47.9100 C   0  0  0  0  0  0  0  0  0  0  0  0
   47.0580   30.6970   47.9240 C   0  0  0  0  0  0  0  0  0  0  0  0
   46.0250   30.4280   47.0660 C   0  0  0  0  0  0  0  0  0  0  0  0
   45.5640   31.3880   46.2670 N   0  0  0  0  0  0  0  0  0  0  0  0
   46.0330   32.6170   46.2320 C   0  0  0  0  0  0  0  0  0  0  0  0
   47.0520   32.9070   47.0740 N   0  0  0  0  0  0  0  0  0  0  0  0
   45.4620   29.1740   47.0500 N   0  0  0  0  0  0  0  0  0  0  0  0
   44.2310   28.8270   46.2850 C   0  0  0  0  0  0  0  0  0  0  0  0
   44.1350   27.3290   46.3200 C   0  0  0  0  0  0  0  0  0  0  0  0
   44.8750   26.9610   47.5610 C   0  0  0  0  0  0  0  0  0  0  0  0
   45.9160   28.0080   47.7340 C   0  0  0  0  0  0  0  0  0  0  0  0
   48.3970   32.2550   48.5800 H   0  0  0  0  0  0  0  0  0  0  0  0
   44.4600   29.1310   45.2370 H   0  0  0  0  0  0  0  0  0  0  0  0
   43.3590   29.3520   46.7100 H   0  0  0  0  0  0  0  0  0  0  0  0
   44.6120   26.8670   45.4490 H   0  0  0  0  0  0  0  0  0  0  0  0
   43.0590   27.0540   46.4180 H   0  0  0  0  0  0  0  0  0  0  0  0
   45.3400   25.9610   47.4260 H   0  0  0  0  0  0  0  0  0  0  0  0
   44.1610   26.8650   48.3940 H   0  0  0  0  0  0  0  0  0  0  0  0
   45.9590   28.1330   48.8590 H   0  0  0  0  0  0  0  0  0  0  0  0
   46.8640   27.6190   47.3160 H   0  0  0  0  0  0  0  0  0  0  0  0
   47.6470   29.7870   48.7660 N   0  0  0  0  0  0  0  0  0  0  0  0
   47.3990   29.8090   49.7960 H   0  0  0  0  0  0  0  0  0  0  0  0
   48.3350   29.0240   48.5910 H   0  0  0  0  0  0  0  0  0  0  0  0
   48.4010   31.2080   41.1260 C   0  0  0  0  0  0  0  0  0  0  0  0
   48.6310   32.4150   41.7220 C   0  0  0  0  0  0  0  0  0  0  0  0
   49.9510   32.8290   41.7220 C   0  0  0  0  0  0  0  0  0  0  0  0
   50.2700   33.7650   42.1610 H   0  0  0  0  0  0  0  0  0  0  0  0
   50.9910   32.0970   41.1660 C   0  0  0  0  0  0  0  0  0  0  0  0
   52.3140   32.2520   41.0290 N   0  0  0  0  0  0  0  0  0  0  0  0
   52.8420   31.1770   40.3780 C   0  0  0  0  0  0  0  0  0  0  0  0
   53.8890   31.0280   40.1270 H   0  0  0  0  0  0  0  0  0  0  0  0
   51.8150   30.3550   40.1150 N   0  0  0  0  0  0  0  0  0  0  0  0
   50.6730   30.8850   40.5820 C   0  0  0  0  0  0  0  0  0  0  0  0
   49.3820   30.4360   40.5580 C   0  0  0  0  0  0  0  0  0  0  0  0
   52.8670   33.0670   41.3660 H   0  0  0  0  0  0  0  0  0  0  0  0
   47.5430   31.9710   44.2330 N   0  0  0  0  0  0  0  0  0  0  0  0
   46.8710   31.2410   43.8470 H   0  0  0  0  0  0  0  0  0  0  0  0
   48.3010   31.7300   44.9020 H   0  0  0  0  0  0  0  0  0  0  0  0
  1  2  1  0  0  0  0
  1 18  1  0  0  0  0
  3 11  1  0  0  0  0
  3  2  2  0  0  0  0
  4  3  1  0  0  0  0
  5  4  2  0  0  0  0
  5 10  1  0  0  0  0
  6  5  1  0  0  0  0
  7  6  2  0  0  0  0
  7  8  1  0  0  0  0
  8  9  2  0  0  0  0
  9 10  1  0  0  0  0
  9 49  1  0  0  0  0
 10  1  2  0  0  0  0
 12  6  1  0  0  0  0
 13  7  1  0  0  0  0
 14 15  1  0  0  0  0
 14 25  1  0  0  0  0
 15 34  1  0  0  0  0
 16 15  2  0  0  0  0
 17 16  1  0  0  0  0
 18 17  2  0  0  0  0
 18 19  1  0  0  0  0
 19 14  2  0  0  0  0
 20 16  1  0  0  0  0
 20 24  1  0  0  0  0
 21 22  1  0  0  0  0
 21 27  1  0  0  0  0
 21 20  1  0  0  0  0
 22 29  1  0  0  0  0
 22 23  1  0  0  0  0
 23 24  1  0  0  0  0
 23 31  1  0  0  0  0
 24 32  1  0  0  0  0
 26 21  1  0  0  0  0
 28 22  1  0  0  0  0
 30 23  1  0  0  0  0
 33 24  1  0  0  0  0
 34 35  1  0  0  0  0
 36 34  1  0  0  0  0
 37 38  1  0  0  0  0
 38  8  1  0  0  0  0
 39 38  2  0  0  0  0
 39 40  1  0  0  0  0
 41 39  1  0  0  0  0
 42 41  1  0  0  0  0
 42 48  1  0  0  0  0
 43 42  1  0  0  0  0
 44 43  1  0  0  0  0
 45 43  2  0  0  0  0
 45 46  1  0  0  0  0
 46 41  2  0  0  0  0
 47 46  1  0  0  0  0
 47 37  2  0  0  0  0
 49 51  1  0  0  0  0
 50 49  1  0  0  0  0
M  END
>  <minimizedAffinity>
-8.05216694

>  <minimizedRMSD>
0.661487699

$$$$
