
 OpenBabel03242511033D

 49 53  0  0  0  0  0  0  0  0999 V2000
   35.4370   28.8500   39.8620 C   0  0  0  0  0  0  0  0  0  0  0  0
   35.0050   29.4270   40.7020 H   0  0  0  0  0  0  0  0  0  0  0  0
   34.6090   28.3570   39.3610 H   0  0  0  0  0  0  0  0  0  0  0  0
   36.6520   31.1760   41.2430 Cl  0  0  0  0  0  0  0  0  0  0  0  0
   36.8140   30.8260   39.5250 C   0  0  0  0  0  0  0  0  0  0  0  0
   36.2190   29.7220   38.9460 C   0  0  0  0  0  0  0  0  0  0  0  0
   36.3460   29.4500   37.6000 C   0  0  0  0  0  0  0  0  0  0  0  0
   37.1020   30.3190   36.7950 C   0  0  0  0  0  0  0  0  0  0  0  0
   37.6920   31.4200   37.3880 C   0  0  0  0  0  0  0  0  0  0  0  0
   37.5560   31.6830   38.7440 C   0  0  0  0  0  0  0  0  0  0  0  0
   35.8780   28.5900   37.1680 H   0  0  0  0  0  0  0  0  0  0  0  0
   37.1960   30.0980   35.7410 H   0  0  0  0  0  0  0  0  0  0  0  0
   38.2800   32.1030   36.7740 H   0  0  0  0  0  0  0  0  0  0  0  0
   37.6330   34.0840   39.6010 C   0  0  0  0  0  3  0  0  0  0  0  0
   38.2110   32.8690   39.2910 C   0  0  0  0  0  0  0  0  0  0  0  0
   39.5860   32.7070   39.5110 C   0  0  0  0  0  0  0  0  0  0  0  0
   40.1100   31.7660   39.2880 H   0  0  0  0  0  0  0  0  0  0  0  0
   40.3690   33.7360   40.0290 C   0  0  0  0  0  0  0  0  0  0  0  0
   41.6690   33.8710   40.3390 N   0  0  0  0  0  0  0  0  0  0  0  0
   41.8760   35.1120   40.8160 C   0  0  0  0  0  0  0  0  0  0  0  0
   42.7880   35.6120   41.1740 H   0  0  0  0  0  0  0  0  0  0  0  0
   40.7050   35.7600   40.8070 N   0  0  0  0  0  0  0  0  0  0  0  0
   39.7540   34.9350   40.3250 C   0  0  0  0  0  0  0  0  0  0  0  0
   38.3990   35.1090   40.1140 C   0  0  0  0  0  3  0  0  0  0  0  0
   42.4060   33.1570   40.2370 H   0  0  0  0  0  0  0  0  0  0  0  0
   36.7660   27.6190   41.6010 C   0  0  0  0  0  3  0  0  0  0  0  0
   36.2780   27.7290   40.3940 C   0  0  0  0  0  3  0  0  0  0  0  0
   39.6070   25.5920   42.7540 C   0  0  0  0  0  0  0  0  0  0  0  0
   39.0410   24.3140   42.6280 C   0  0  0  0  0  0  0  0  0  0  0  0
   37.7560   24.0890   42.1750 C   0  0  0  0  0  0  0  0  0  0  0  0
   37.0120   25.1940   41.8390 C   0  0  0  0  0  0  0  0  0  0  0  0
   37.5670   26.4650   41.9630 C   0  0  0  0  0  0  0  0  0  0  0  0
   38.8170   26.6140   42.4060 N   0  0  0  0  0  0  0  0  0  0  0  0
   39.6310   23.4410   42.8940 H   0  0  0  0  0  0  0  0  0  0  0  0
   37.3930   23.0750   42.1050 H   0  0  0  0  0  0  0  0  0  0  0  0
   36.0080   25.0000   41.4870 H   0  0  0  0  0  0  0  0  0  0  0  0
   44.0050   27.3580   46.4920 C   0  0  0  0  0  0  0  0  0  0  0  0
   45.0960   26.9270   45.7180 C   0  0  0  0  0  0  0  0  0  0  0  0
   44.8220   26.3730   44.4670 C   0  0  0  0  0  0  0  0  0  0  0  0
   43.5350   26.2630   44.0320 N   0  0  0  0  0  0  0  0  0  0  0  0
   42.5150   26.6990   44.8290 C   0  0  0  0  0  0  0  0  0  0  0  0
   42.7540   27.2430   46.0520 N   0  0  0  0  0  0  0  0  0  0  0  0
   40.9750   25.7260   43.2410 C   0  0  0  0  0  0  0  0  0  0  0  0
   41.8820   25.0840   42.6400 O   0  0  0  0  0  0  0  0  0  0  0  0
   41.1680   26.5810   44.3670 N   0  0  0  0  0  0  0  0  0  0  0  0
   44.0980   27.8010   47.4730 H   0  0  0  0  0  0  0  0  0  0  0  0
   46.0810   27.0470   46.1280 H   0  0  0  0  0  0  0  0  0  0  0  0
   45.6510   26.0390   43.8630 H   0  0  0  0  0  0  0  0  0  0  0  0
   40.4160   27.1070   44.8580 H   0  0  0  0  0  0  0  0  0  0  0  0
  1 27  1  0  0  0  0
  1  2  1  0  0  0  0
  3  1  1  0  0  0  0
  5  4  1  0  0  0  0
  6  5  1  0  0  0  0
  6  1  1  0  0  0  0
  7  6  2  0  0  0  0
  8  9  2  0  0  0  0
  8  7  1  0  0  0  0
  9 10  1  0  0  0  0
 10 15  1  0  0  0  0
 10  5  2  0  0  0  0
 11  7  1  0  0  0  0
 12  8  1  0  0  0  0
 13  9  1  0  0  0  0
 14 24  1  0  0  0  0
 15 16  1  0  0  0  0
 15 14  2  0  0  0  0
 16 18  2  0  0  0  0
 17 16  1  0  0  0  0
 18 23  1  0  0  0  0
 18 19  1  0  0  0  0
 19 20  1  0  0  0  0
 20 21  1  0  0  0  0
 22 20  2  0  0  0  0
 23 22  1  0  0  0  0
 24 23  2  0  0  0  0
 25 19  1  0  0  0  0
 26 32  1  0  0  0  0
 27 26  2  0  0  0  0
 28 43  1  0  0  0  0
 29 28  1  0  0  0  0
 29 34  1  0  0  0  0
 30 29  2  0  0  0  0
 31 32  2  0  0  0  0
 31 30  1  0  0  0  0
 32 33  1  0  0  0  0
 33 28  2  0  0  0  0
 35 30  1  0  0  0  0
 36 31  1  0  0  0  0
 37 46  1  0  0  0  0
 38 47  1  0  0  0  0
 38 37  2  0  0  0  0
 39 38  1  0  0  0  0
 40 39  2  0  0  0  0
 40 41  1  0  0  0  0
 41 42  2  0  0  0  0
 42 37  1  0  0  0  0
 43 45  1  0  0  0  0
 44 43  2  0  0  0  0
 45 41  1  0  0  0  0
 45 49  1  0  0  0  0
 48 39  1  0  0  0  0
M  END
>  <minimizedAffinity>
-8.44203949

$$$$

 OpenBabel03242511033D

 49 53  0  0  0  0  0  0  0  0999 V2000
   35.9670   29.7610   40.8770 C   0  0  0  0  0  0  0  0  0  0  0  0
   35.7010   29.4130   39.8600 H   0  0  0  0  0  0  0  0  0  0  0  0
   35.0350   29.9940   41.3830 H   0  0  0  0  0  0  0  0  0  0  0  0
   36.2160   27.2030   39.3980 Cl  0  0  0  0  0  0  0  0  0  0  0  0
   36.9320   27.5310   40.9730 C   0  0  0  0  0  0  0  0  0  0  0  0
   36.7750   28.7490   41.6060 C   0  0  0  0  0  0  0  0  0  0  0  0
   37.3360   29.0050   42.8400 C   0  0  0  0  0  0  0  0  0  0  0  0
   38.0880   27.9990   43.4700 C   0  0  0  0  0  0  0  0  0  0  0  0
   38.2370   26.7850   42.8260 C   0  0  0  0  0  0  0  0  0  0  0  0
   37.6670   26.5400   41.5840 C   0  0  0  0  0  0  0  0  0  0  0  0
   37.2040   29.9540   43.3160 H   0  0  0  0  0  0  0  0  0  0  0  0
   38.5240   28.2080   44.4380 H   0  0  0  0  0  0  0  0  0  0  0  0
   38.8180   25.9960   43.3040 H   0  0  0  0  0  0  0  0  0  0  0  0
   37.1180   24.0880   41.1510 C   0  0  0  0  0  3  0  0  0  0  0  0
   37.8730   25.2300   40.9710 C   0  0  0  0  0  0  0  0  0  0  0  0
   38.9750   25.1730   40.1080 C   0  0  0  0  0  0  0  0  0  0  0  0
   39.6180   26.0450   39.9190 H   0  0  0  0  0  0  0  0  0  0  0  0
   39.3190   24.0030   39.4370 C   0  0  0  0  0  0  0  0  0  0  0  0
   40.2890   23.6560   38.5740 N   0  0  0  0  0  0  0  0  0  0  0  0
   40.1340   22.3620   38.2420 C   0  0  0  0  0  0  0  0  0  0  0  0
   40.7120   21.7070   37.5730 H   0  0  0  0  0  0  0  0  0  0  0  0
   39.0650   21.8910   38.8970 N   0  0  0  0  0  0  0  0  0  0  0  0
   38.5400   22.8820   39.6440 C   0  0  0  0  0  0  0  0  0  0  0  0
   37.4490   22.9240   40.4920 C   0  0  0  0  0  3  0  0  0  0  0  0
   41.0390   24.2630   38.2120 H   0  0  0  0  0  0  0  0  0  0  0  0
   37.7070   31.3600   40.0260 C   0  0  0  0  0  3  0  0  0  0  0  0
   36.6880   31.0730   40.7920 C   0  0  0  0  0  3  0  0  0  0  0  0
   40.1720   34.0500   40.4770 C   0  0  0  0  0  0  0  0  0  0  0  0
   39.3760   35.1500   40.1240 C   0  0  0  0  0  0  0  0  0  0  0  0
   38.0520   35.0440   39.7420 C   0  0  0  0  0  0  0  0  0  0  0  0
   37.5120   33.7810   39.7130 C   0  0  0  0  0  0  0  0  0  0  0  0
   38.2970   32.6850   40.0620 C   0  0  0  0  0  0  0  0  0  0  0  0
   39.5700   32.8560   40.4230 N   0  0  0  0  0  0  0  0  0  0  0  0
   39.8050   36.1480   40.1470 H   0  0  0  0  0  0  0  0  0  0  0  0
   37.5060   35.9380   39.4860 H   0  0  0  0  0  0  0  0  0  0  0  0
   36.4760   33.7170   39.4120 H   0  0  0  0  0  0  0  0  0  0  0  0
   44.7480   36.6000   43.4750 C   0  0  0  0  0  0  0  0  0  0  0  0
   45.7990   35.9470   42.8080 C   0  0  0  0  0  0  0  0  0  0  0  0
   45.4640   35.0930   41.7570 C   0  0  0  0  0  0  0  0  0  0  0  0
   44.1600   34.9120   41.4070 N   0  0  0  0  0  0  0  0  0  0  0  0
   43.1810   35.5730   42.0930 C   0  0  0  0  0  0  0  0  0  0  0  0
   43.4790   36.4120   43.1210 N   0  0  0  0  0  0  0  0  0  0  0  0
   41.5600   34.2650   40.8670 C   0  0  0  0  0  0  0  0  0  0  0  0
   42.4300   33.4610   40.4280 O   0  0  0  0  0  0  0  0  0  0  0  0
   41.8150   35.3790   41.7220 N   0  0  0  0  0  0  0  0  0  0  0  0
   44.8880   37.2810   44.3010 H   0  0  0  0  0  0  0  0  0  0  0  0
   46.8010   36.1410   43.1400 H   0  0  0  0  0  0  0  0  0  0  0  0
   46.2620   34.5870   41.2360 H   0  0  0  0  0  0  0  0  0  0  0  0
   41.0930   36.0380   42.0800 H   0  0  0  0  0  0  0  0  0  0  0  0
  1  3  1  0  0  0  0
  1  6  1  0  0  0  0
  2  1  1  0  0  0  0
  4  5  1  0  0  0  0
  5 10  2  0  0  0  0
  5  6  1  0  0  0  0
  6  7  2  0  0  0  0
  7 11  1  0  0  0  0
  7  8  1  0  0  0  0
  8 12  1  0  0  0  0
  9 13  1  0  0  0  0
  9  8  2  0  0  0  0
 10  9  1  0  0  0  0
 15 14  1  0  0  0  0
 15 10  1  0  0  0  0
 16 15  2  0  0  0  0
 17 16  1  0  0  0  0
 18 23  2  0  0  0  0
 18 16  1  0  0  0  0
 19 18  1  0  0  0  0
 20 19  1  0  0  0  0
 20 22  2  0  0  0  0
 21 20  1  0  0  0  0
 22 23  1  0  0  0  0
 23 24  1  0  0  0  0
 24 14  2  0  0  0  0
 25 19  1  0  0  0  0
 26 32  1  0  0  0  0
 26 27  2  0  0  0  0
 27  1  1  0  0  0  0
 28 43  1  0  0  0  0
 29 34  1  0  0  0  0
 29 28  2  0  0  0  0
 30 29  1  0  0  0  0
 31 30  2  0  0  0  0
 31 32  1  0  0  0  0
 32 33  2  0  0  0  0
 33 28  1  0  0  0  0
 35 30  1  0  0  0  0
 36 31  1  0  0  0  0
 37 46  1  0  0  0  0
 38 47  1  0  0  0  0
 38 37  2  0  0  0  0
 39 38  1  0  0  0  0
 40 39  2  0  0  0  0
 40 41  1  0  0  0  0
 41 42  2  0  0  0  0
 42 37  1  0  0  0  0
 43 45  1  0  0  0  0
 44 43  2  0  0  0  0
 45 49  1  0  0  0  0
 45 41  1  0  0  0  0
 48 39  1  0  0  0  0
M  END
>  <minimizedAffinity>
-8.34863949

$$$$

 OpenBabel03242511033D

 49 53  0  0  0  0  0  0  0  0999 V2000
   37.9340   28.2370   43.5980 C   0  0  0  0  0  0  0  0  0  0  0  0
   36.8820   27.9500   43.4070 H   0  0  0  0  0  0  0  0  0  0  0  0
   37.9820   28.5890   44.6240 H   0  0  0  0  0  0  0  0  0  0  0  0
   36.9530   26.3980   41.4880 Cl  0  0  0  0  0  0  0  0  0  0  0  0
   38.4670   26.2100   42.3650 C   0  0  0  0  0  0  0  0  0  0  0  0
   38.8630   27.1060   43.3390 C   0  0  0  0  0  0  0  0  0  0  0  0
   40.0500   26.9570   44.0260 C   0  0  0  0  0  0  0  0  0  0  0  0
   40.8800   25.8630   43.7270 C   0  0  0  0  0  0  0  0  0  0  0  0
   40.4720   24.9730   42.7500 C   0  0  0  0  0  0  0  0  0  0  0  0
   39.2740   25.1350   42.0670 C   0  0  0  0  0  0  0  0  0  0  0  0
   40.3420   27.6610   44.7770 H   0  0  0  0  0  0  0  0  0  0  0  0
   41.8090   25.7530   44.2700 H   0  0  0  0  0  0  0  0  0  0  0  0
   41.1060   24.1190   42.5090 H   0  0  0  0  0  0  0  0  0  0  0  0
   37.9990   23.1220   41.1570 C   0  0  0  0  0  3  0  0  0  0  0  0
   38.9160   24.1490   41.0490 C   0  0  0  0  0  0  0  0  0  0  0  0
   39.6090   24.3020   39.8410 C   0  0  0  0  0  0  0  0  0  0  0  0
   40.3530   25.0990   39.6870 H   0  0  0  0  0  0  0  0  0  0  0  0
   39.3940   23.4510   38.7610 C   0  0  0  0  0  0  0  0  0  0  0  0
   39.8920   23.3540   37.5170 N   0  0  0  0  0  0  0  0  0  0  0  0
   39.3060   22.3160   36.8930 C   0  0  0  0  0  0  0  0  0  0  0  0
   39.4350   21.9090   35.8800 H   0  0  0  0  0  0  0  0  0  0  0  0
   38.4380   21.7570   37.7440 N   0  0  0  0  0  0  0  0  0  0  0  0
   38.4690   22.4360   38.9080 C   0  0  0  0  0  0  0  0  0  0  0  0
   37.7770   22.2730   40.0940 C   0  0  0  0  0  3  0  0  0  0  0  0
   40.6060   23.9620   37.0890 H   0  0  0  0  0  0  0  0  0  0  0  0
   37.5620   29.9920   41.8400 C   0  0  0  0  0  3  0  0  0  0  0  0
   38.2920   29.4350   42.7700 C   0  0  0  0  0  3  0  0  0  0  0  0
   39.8550   32.5650   40.5610 C   0  0  0  0  0  0  0  0  0  0  0  0
   38.9510   33.3130   39.7910 C   0  0  0  0  0  0  0  0  0  0  0  0
   37.6100   33.0050   39.6750 C   0  0  0  0  0  0  0  0  0  0  0  0
   37.1630   31.9010   40.3590 C   0  0  0  0  0  0  0  0  0  0  0  0
   38.0550   31.1540   41.1240 C   0  0  0  0  0  0  0  0  0  0  0  0
   39.3400   31.5060   41.1960 N   0  0  0  0  0  0  0  0  0  0  0  0
   39.3070   34.1860   39.2500 H   0  0  0  0  0  0  0  0  0  0  0  0
   36.9780   33.6300   39.0620 H   0  0  0  0  0  0  0  0  0  0  0  0
   36.1100   31.6740   40.2560 H   0  0  0  0  0  0  0  0  0  0  0  0
   44.6110   35.7750   42.4340 C   0  0  0  0  0  0  0  0  0  0  0  0
   45.5590   35.2490   41.5380 C   0  0  0  0  0  0  0  0  0  0  0  0
   45.1100   34.3310   40.5890 C   0  0  0  0  0  0  0  0  0  0  0  0
   43.7960   33.9700   40.5490 N   0  0  0  0  0  0  0  0  0  0  0  0
   42.9210   34.5140   41.4450 C   0  0  0  0  0  0  0  0  0  0  0  0
   43.3320   35.4110   42.3810 N   0  0  0  0  0  0  0  0  0  0  0  0
   41.2540   32.9720   40.6210 C   0  0  0  0  0  0  0  0  0  0  0  0
   42.1000   32.2780   39.9890 O   0  0  0  0  0  0  0  0  0  0  0  0
   41.5450   34.1320   41.3990 N   0  0  0  0  0  0  0  0  0  0  0  0
   44.8440   36.4900   43.2090 H   0  0  0  0  0  0  0  0  0  0  0  0
   46.5750   35.5820   41.6320 H   0  0  0  0  0  0  0  0  0  0  0  0
   45.8280   33.9210   39.8950 H   0  0  0  0  0  0  0  0  0  0  0  0
   40.8430   34.6990   41.9170 H   0  0  0  0  0  0  0  0  0  0  0  0
  1  3  1  0  0  0  0
  2  1  1  0  0  0  0
  4  5  1  0  0  0  0
  5  6  1  0  0  0  0
  6  1  1  0  0  0  0
  6  7  2  0  0  0  0
  7 11  1  0  0  0  0
  8  7  1  0  0  0  0
  8 12  1  0  0  0  0
  9  8  2  0  0  0  0
 10  5  2  0  0  0  0
 10  9  1  0  0  0  0
 13  9  1  0  0  0  0
 15 14  1  0  0  0  0
 15 10  1  0  0  0  0
 16 15  2  0  0  0  0
 17 16  1  0  0  0  0
 18 23  2  0  0  0  0
 18 16  1  0  0  0  0
 19 18  1  0  0  0  0
 20 19  1  0  0  0  0
 20 22  2  0  0  0  0
 21 20  1  0  0  0  0
 22 23  1  0  0  0  0
 23 24  1  0  0  0  0
 24 14  2  0  0  0  0
 25 19  1  0  0  0  0
 26 27  2  0  0  0  0
 27  1  1  0  0  0  0
 28 43  1  0  0  0  0
 28 33  1  0  0  0  0
 29 28  2  0  0  0  0
 30 29  1  0  0  0  0
 30 31  2  0  0  0  0
 31 32  1  0  0  0  0
 32 33  2  0  0  0  0
 32 26  1  0  0  0  0
 34 29  1  0  0  0  0
 35 30  1  0  0  0  0
 36 31  1  0  0  0  0
 37 46  1  0  0  0  0
 38 47  1  0  0  0  0
 38 37  2  0  0  0  0
 39 38  1  0  0  0  0
 40 39  2  0  0  0  0
 40 41  1  0  0  0  0
 41 42  2  0  0  0  0
 42 37  1  0  0  0  0
 43 45  1  0  0  0  0
 44 43  2  0  0  0  0
 45 41  1  0  0  0  0
 45 49  1  0  0  0  0
 48 39  1  0  0  0  0
M  END
>  <minimizedAffinity>
-7.81809139

$$$$

 OpenBabel03242511033D

 49 53  0  0  0  0  0  0  0  0999 V2000
   37.9580   31.4890   38.7760 C   0  0  0  0  0  0  0  0  0  0  0  0
   37.1980   32.2130   39.1290 H   0  0  0  0  0  0  0  0  0  0  0  0
   37.5700   31.0470   37.8630 H   0  0  0  0  0  0  0  0  0  0  0  0
   38.5500   33.5450   40.8280 Cl  0  0  0  0  0  0  0  0  0  0  0  0
   39.6200   33.1090   39.5010 C   0  0  0  0  0  0  0  0  0  0  0  0
   39.2800   32.1390   38.5770 C   0  0  0  0  0  0  0  0  0  0  0  0
   40.1190   31.7980   37.5380 C   0  0  0  0  0  0  0  0  0  0  0  0
   41.3550   32.4550   37.4130 C   0  0  0  0  0  0  0  0  0  0  0  0
   41.6830   33.4240   38.3440 C   0  0  0  0  0  0  0  0  0  0  0  0
   40.8290   33.7570   39.3860 C   0  0  0  0  0  0  0  0  0  0  0  0
   39.8390   31.0440   36.8320 H   0  0  0  0  0  0  0  0  0  0  0  0
   42.0070   32.1820   36.5950 H   0  0  0  0  0  0  0  0  0  0  0  0
   42.6390   33.9420   38.2580 H   0  0  0  0  0  0  0  0  0  0  0  0
   40.7490   36.0730   40.4520 C   0  0  0  0  0  3  0  0  0  0  0  0
   41.2520   34.7930   40.3260 C   0  0  0  0  0  0  0  0  0  0  0  0
   42.2900   34.3960   41.1800 C   0  0  0  0  0  0  0  0  0  0  0  0
   42.7360   33.3910   41.1340 H   0  0  0  0  0  0  0  0  0  0  0  0
   42.8170   35.2560   42.1390 C   0  0  0  0  0  0  0  0  0  0  0  0
   43.7830   35.1590   43.0680 N   0  0  0  0  0  0  0  0  0  0  0  0
   43.8660   36.3270   43.7320 C   0  0  0  0  0  0  0  0  0  0  0  0
   44.5200   36.6520   44.5540 H   0  0  0  0  0  0  0  0  0  0  0  0
   42.9530   37.1610   43.2200 N   0  0  0  0  0  0  0  0  0  0  0  0
   42.2880   36.5270   42.2330 C   0  0  0  0  0  0  0  0  0  0  0  0
   41.2630   36.9320   41.3990 C   0  0  0  0  0  3  0  0  0  0  0  0
   44.3750   34.3380   43.2600 H   0  0  0  0  0  0  0  0  0  0  0  0
   37.4150   30.2150   40.8710 C   0  0  0  0  0  3  0  0  0  0  0  0
   38.0550   30.3440   39.7390 C   0  0  0  0  0  3  0  0  0  0  0  0
   37.8750   26.7020   41.8520 C   0  0  0  0  0  0  0  0  0  0  0  0
   38.0000   26.8670   43.2390 C   0  0  0  0  0  0  0  0  0  0  0  0
   37.9370   28.0940   43.8710 C   0  0  0  0  0  0  0  0  0  0  0  0
   37.7440   29.1960   43.0740 C   0  0  0  0  0  0  0  0  0  0  0  0
   37.6210   29.0380   41.6960 C   0  0  0  0  0  0  0  0  0  0  0  0
   37.6880   27.8240   41.1470 N   0  0  0  0  0  0  0  0  0  0  0  0
   38.1530   25.9940   43.8680 H   0  0  0  0  0  0  0  0  0  0  0  0
   38.0420   28.1380   44.9440 H   0  0  0  0  0  0  0  0  0  0  0  0
   37.6980   30.1470   43.5850 H   0  0  0  0  0  0  0  0  0  0  0  0
   35.9480   21.8640   38.8000 C   0  0  0  0  0  0  0  0  0  0  0  0
   37.0370   21.0190   39.0760 C   0  0  0  0  0  0  0  0  0  0  0  0
   38.0340   21.5070   39.9220 C   0  0  0  0  0  0  0  0  0  0  0  0
   37.9350   22.7600   40.4490 N   0  0  0  0  0  0  0  0  0  0  0  0
   36.8530   23.5360   40.1440 C   0  0  0  0  0  0  0  0  0  0  0  0
   35.8670   23.0850   39.3220 N   0  0  0  0  0  0  0  0  0  0  0  0
   37.9540   25.3630   41.2780 C   0  0  0  0  0  0  0  0  0  0  0  0
   39.0630   24.7600   41.3340 O   0  0  0  0  0  0  0  0  0  0  0  0
   36.7560   24.8480   40.7000 N   0  0  0  0  0  0  0  0  0  0  0  0
   35.1210   21.5930   38.1600 H   0  0  0  0  0  0  0  0  0  0  0  0
   37.0440   20.0450   38.6240 H   0  0  0  0  0  0  0  0  0  0  0  0
   38.8740   20.8670   40.1430 H   0  0  0  0  0  0  0  0  0  0  0  0
   35.8450   25.3500   40.6580 H   0  0  0  0  0  0  0  0  0  0  0  0
  1  2  1  0  0  0  0
  1 27  1  0  0  0  0
  3  1  1  0  0  0  0
  5  4  1  0  0  0  0
  6  1  1  0  0  0  0
  6  5  2  0  0  0  0
  7  6  1  0  0  0  0
  8  7  2  0  0  0  0
  8  9  1  0  0  0  0
  9 10  2  0  0  0  0
 10  5  1  0  0  0  0
 10 15  1  0  0  0  0
 11  7  1  0  0  0  0
 12  8  1  0  0  0  0
 13  9  1  0  0  0  0
 14 24  1  0  0  0  0
 15 14  2  0  0  0  0
 15 16  1  0  0  0  0
 16 18  2  0  0  0  0
 17 16  1  0  0  0  0
 18 23  1  0  0  0  0
 18 19  1  0  0  0  0
 19 25  1  0  0  0  0
 19 20  1  0  0  0  0
 20 21  1  0  0  0  0
 22 20  2  0  0  0  0
 23 22  1  0  0  0  0
 24 23  2  0  0  0  0
 26 32  1  0  0  0  0
 27 26  2  0  0  0  0
 28 29  1  0  0  0  0
 29 34  1  0  0  0  0
 29 30  2  0  0  0  0
 30 35  1  0  0  0  0
 31 36  1  0  0  0  0
 31 30  1  0  0  0  0
 32 31  2  0  0  0  0
 33 32  1  0  0  0  0
 33 28  2  0  0  0  0
 37 38  2  0  0  0  0
 37 42  1  0  0  0  0
 38 39  1  0  0  0  0
 39 48  1  0  0  0  0
 39 40  2  0  0  0  0
 41 40  1  0  0  0  0
 41 45  1  0  0  0  0
 42 41  2  0  0  0  0
 43 44  2  0  0  0  0
 43 28  1  0  0  0  0
 45 43  1  0  0  0  0
 46 37  1  0  0  0  0
 47 38  1  0  0  0  0
 49 45  1  0  0  0  0
M  END
>  <minimizedAffinity>
-7.81652975

$$$$

 OpenBabel03242511033D

 49 53  0  0  0  0  0  0  0  0999 V2000
   36.5530   30.2880   40.7150 C   0  0  0  0  0  0  0  0  0  0  0  0
   36.1050   29.9550   39.7590 H   0  0  0  0  0  0  0  0  0  0  0  0
   35.7860   30.8460   41.2440 H   0  0  0  0  0  0  0  0  0  0  0  0
   36.4520   27.7260   39.2250 Cl  0  0  0  0  0  0  0  0  0  0  0  0
   37.0530   27.9140   40.8690 C   0  0  0  0  0  0  0  0  0  0  0  0
   37.0710   29.1400   41.5040 C   0  0  0  0  0  0  0  0  0  0  0  0
   37.5420   29.2860   42.7920 C   0  0  0  0  0  0  0  0  0  0  0  0
   38.0170   28.1550   43.4780 C   0  0  0  0  0  0  0  0  0  0  0  0
   37.9930   26.9330   42.8310 C   0  0  0  0  0  0  0  0  0  0  0  0
   37.5160   26.8010   41.5340 C   0  0  0  0  0  0  0  0  0  0  0  0
   37.5490   30.2440   43.2690 H   0  0  0  0  0  0  0  0  0  0  0  0
   38.3840   28.2770   44.4880 H   0  0  0  0  0  0  0  0  0  0  0  0
   38.3580   26.0470   43.3520 H   0  0  0  0  0  0  0  0  0  0  0  0
   36.5240   24.5230   40.9570 C   0  0  0  0  0  3  0  0  0  0  0  0
   37.5250   25.4740   40.9220 C   0  0  0  0  0  0  0  0  0  0  0  0
   38.7070   25.1750   40.2310 C   0  0  0  0  0  0  0  0  0  0  0  0
   39.5430   25.8870   40.1630 H   0  0  0  0  0  0  0  0  0  0  0  0
   38.8890   23.9540   39.5860 C   0  0  0  0  0  0  0  0  0  0  0  0
   39.8800   23.4020   38.8670 N   0  0  0  0  0  0  0  0  0  0  0  0
   39.5020   22.1700   38.4800 C   0  0  0  0  0  0  0  0  0  0  0  0
   40.0200   21.4020   37.8870 H   0  0  0  0  0  0  0  0  0  0  0  0
   38.2720   21.9440   38.9560 N   0  0  0  0  0  0  0  0  0  0  0  0
   37.8650   23.0300   39.6450 C   0  0  0  0  0  0  0  0  0  0  0  0
   36.6930   23.3110   40.3230 C   0  0  0  0  0  3  0  0  0  0  0  0
   40.7880   23.8300   38.6370 H   0  0  0  0  0  0  0  0  0  0  0  0
   37.4840   32.5810   40.2850 C   0  0  0  0  0  3  0  0  0  0  0  0
   37.6330   31.2930   40.4460 C   0  0  0  0  0  3  0  0  0  0  0  0
   40.7760   33.6830   39.0770 C   0  0  0  0  0  0  0  0  0  0  0  0
   40.7690   34.9990   39.5650 C   0  0  0  0  0  0  0  0  0  0  0  0
   39.7200   35.5430   40.2800 C   0  0  0  0  0  0  0  0  0  0  0  0
   38.6370   34.7300   40.5110 C   0  0  0  0  0  0  0  0  0  0  0  0
   38.6370   33.4240   40.0290 C   0  0  0  0  0  0  0  0  0  0  0  0
   39.6840   32.9580   39.3450 N   0  0  0  0  0  0  0  0  0  0  0  0
   41.6270   35.6400   39.3810 H   0  0  0  0  0  0  0  0  0  0  0  0
   39.7900   36.5640   40.6220 H   0  0  0  0  0  0  0  0  0  0  0  0
   37.8250   35.1730   41.0710 H   0  0  0  0  0  0  0  0  0  0  0  0
   43.8420   30.0580   35.3500 C   0  0  0  0  0  0  0  0  0  0  0  0
   45.1160   30.6210   35.5430 C   0  0  0  0  0  0  0  0  0  0  0  0
   45.2310   31.6520   36.4760 C   0  0  0  0  0  0  0  0  0  0  0  0
   44.1350   32.0830   37.1620 N   0  0  0  0  0  0  0  0  0  0  0  0
   42.9230   31.4980   36.9320 C   0  0  0  0  0  0  0  0  0  0  0  0
   42.7820   30.4910   36.0290 N   0  0  0  0  0  0  0  0  0  0  0  0
   41.9340   33.2000   38.3330 C   0  0  0  0  0  0  0  0  0  0  0  0
   42.9790   33.9090   38.3400 O   0  0  0  0  0  0  0  0  0  0  0  0
   41.7780   31.9540   37.6550 N   0  0  0  0  0  0  0  0  0  0  0  0
   43.6350   29.2580   34.6550 H   0  0  0  0  0  0  0  0  0  0  0  0
   45.9310   30.2280   34.9650 H   0  0  0  0  0  0  0  0  0  0  0  0
   46.2040   32.0920   36.6340 H   0  0  0  0  0  0  0  0  0  0  0  0
   40.9140   31.3750   37.6540 H   0  0  0  0  0  0  0  0  0  0  0  0
  1  3  1  0  0  0  0
  1  6  1  0  0  0  0
  2  1  1  0  0  0  0
  4  5  1  0  0  0  0
  5  6  2  0  0  0  0
  5 10  1  0  0  0  0
  6  7  1  0  0  0  0
  7 11  1  0  0  0  0
  7  8  2  0  0  0  0
  8 12  1  0  0  0  0
  9 13  1  0  0  0  0
  9  8  1  0  0  0  0
 10  9  2  0  0  0  0
 15 14  1  0  0  0  0
 15 10  1  0  0  0  0
 16 15  2  0  0  0  0
 17 16  1  0  0  0  0
 18 23  2  0  0  0  0
 18 16  1  0  0  0  0
 19 18  1  0  0  0  0
 20 19  1  0  0  0  0
 20 22  2  0  0  0  0
 21 20  1  0  0  0  0
 22 23  1  0  0  0  0
 23 24  1  0  0  0  0
 24 14  2  0  0  0  0
 25 19  1  0  0  0  0
 26 27  2  0  0  0  0
 27  1  1  0  0  0  0
 28 33  2  0  0  0  0
 28 29  1  0  0  0  0
 29 30  2  0  0  0  0
 30 31  1  0  0  0  0
 30 35  1  0  0  0  0
 31 36  1  0  0  0  0
 32 26  1  0  0  0  0
 32 31  2  0  0  0  0
 33 32  1  0  0  0  0
 34 29  1  0  0  0  0
 37 38  2  0  0  0  0
 37 42  1  0  0  0  0
 38 39  1  0  0  0  0
 39 48  1  0  0  0  0
 39 40  2  0  0  0  0
 41 40  1  0  0  0  0
 41 45  1  0  0  0  0
 42 41  2  0  0  0  0
 43 44  2  0  0  0  0
 43 28  1  0  0  0  0
 45 43  1  0  0  0  0
 46 37  1  0  0  0  0
 47 38  1  0  0  0  0
 49 45  1  0  0  0  0
M  END
>  <minimizedAffinity>
-7.66407633

$$$$

 OpenBabel03242511033D

 49 53  0  0  0  0  0  0  0  0999 V2000
   36.6710   30.1540   41.0410 C   0  0  0  0  0  0  0  0  0  0  0  0
   36.7930   30.8980   41.8520 H   0  0  0  0  0  0  0  0  0  0  0  0
   35.6120   29.9190   40.9870 H   0  0  0  0  0  0  0  0  0  0  0  0
   39.1960   31.6750   41.3630 Cl  0  0  0  0  0  0  0  0  0  0  0  0
   38.3870   31.3780   39.8280 C   0  0  0  0  0  0  0  0  0  0  0  0
   37.2090   30.6600   39.7510 C   0  0  0  0  0  0  0  0  0  0  0  0
   36.5760   30.4290   38.5480 C   0  0  0  0  0  0  0  0  0  0  0  0
   37.1440   30.9380   37.3680 C   0  0  0  0  0  0  0  0  0  0  0  0
   38.3230   31.6550   37.4590 C   0  0  0  0  0  0  0  0  0  0  0  0
   38.9500   31.8810   38.6770 C   0  0  0  0  0  0  0  0  0  0  0  0
   35.6640   29.8700   38.5060 H   0  0  0  0  0  0  0  0  0  0  0  0
   36.6410   30.7520   36.4280 H   0  0  0  0  0  0  0  0  0  0  0  0
   38.7740   32.0560   36.5510 H   0  0  0  0  0  0  0  0  0  0  0  0
   40.4480   33.8300   39.3550 C   0  0  0  0  0  3  0  0  0  0  0  0
   40.1930   32.6490   38.6860 C   0  0  0  0  0  0  0  0  0  0  0  0
   41.2160   32.0830   37.9140 C   0  0  0  0  0  0  0  0  0  0  0  0
   41.0810   31.1450   37.3570 H   0  0  0  0  0  0  0  0  0  0  0  0
   42.4690   32.6820   37.8090 C   0  0  0  0  0  0  0  0  0  0  0  0
   43.6090   32.3830   37.1650 N   0  0  0  0  0  0  0  0  0  0  0  0
   44.5200   33.3380   37.4280 C   0  0  0  0  0  0  0  0  0  0  0  0
   45.5620   33.4620   37.0970 H   0  0  0  0  0  0  0  0  0  0  0  0
   43.9540   34.2400   38.2380 N   0  0  0  0  0  0  0  0  0  0  0  0
   42.6850   33.8620   38.4920 C   0  0  0  0  0  0  0  0  0  0  0  0
   41.6850   34.4310   39.2580 C   0  0  0  0  0  3  0  0  0  0  0  0
   43.7830   31.5650   36.5630 H   0  0  0  0  0  0  0  0  0  0  0  0
   36.7350   27.7200   41.6560 C   0  0  0  0  0  3  0  0  0  0  0  0
   37.3260   28.8640   41.4340 C   0  0  0  0  0  3  0  0  0  0  0  0
   39.5460   25.6520   42.8110 C   0  0  0  0  0  0  0  0  0  0  0  0
   38.9490   24.3850   42.7210 C   0  0  0  0  0  0  0  0  0  0  0  0
   37.6510   24.1810   42.2930 C   0  0  0  0  0  0  0  0  0  0  0  0
   36.9280   25.2960   41.9440 C   0  0  0  0  0  0  0  0  0  0  0  0
   37.5150   26.5550   42.0310 C   0  0  0  0  0  0  0  0  0  0  0  0
   38.7750   26.6850   42.4510 N   0  0  0  0  0  0  0  0  0  0  0  0
   39.5220   23.5050   42.9990 H   0  0  0  0  0  0  0  0  0  0  0  0
   37.2640   23.1750   42.2520 H   0  0  0  0  0  0  0  0  0  0  0  0
   35.9150   25.1170   41.6120 H   0  0  0  0  0  0  0  0  0  0  0  0
   44.0320   27.3150   46.4910 C   0  0  0  0  0  0  0  0  0  0  0  0
   45.1030   26.8850   45.6900 C   0  0  0  0  0  0  0  0  0  0  0  0
   44.8000   26.3530   44.4360 C   0  0  0  0  0  0  0  0  0  0  0  0
   43.5040   26.2630   44.0250 N   0  0  0  0  0  0  0  0  0  0  0  0
   42.5030   26.6970   44.8460 C   0  0  0  0  0  0  0  0  0  0  0  0
   42.7720   27.2200   46.0730 N   0  0  0  0  0  0  0  0  0  0  0  0
   40.9240   25.7640   43.2740 C   0  0  0  0  0  0  0  0  0  0  0  0
   41.8130   25.1230   42.6460 O   0  0  0  0  0  0  0  0  0  0  0  0
   41.1470   26.6000   44.4090 N   0  0  0  0  0  0  0  0  0  0  0  0
   44.1470   27.7410   47.4770 H   0  0  0  0  0  0  0  0  0  0  0  0
   46.0970   26.9880   46.0840 H   0  0  0  0  0  0  0  0  0  0  0  0
   45.6140   26.0190   43.8120 H   0  0  0  0  0  0  0  0  0  0  0  0
   40.4100   27.1260   44.9210 H   0  0  0  0  0  0  0  0  0  0  0  0
  1 27  1  0  0  0  0
  1  2  1  0  0  0  0
  3  1  1  0  0  0  0
  5  4  1  0  0  0  0
  6  5  1  0  0  0  0
  6  1  1  0  0  0  0
  7  6  2  0  0  0  0
  8  9  2  0  0  0  0
  8  7  1  0  0  0  0
  9 10  1  0  0  0  0
 10 15  1  0  0  0  0
 10  5  2  0  0  0  0
 11  7  1  0  0  0  0
 12  8  1  0  0  0  0
 13  9  1  0  0  0  0
 15 14  2  0  0  0  0
 16 15  1  0  0  0  0
 17 16  1  0  0  0  0
 18 16  2  0  0  0  0
 18 23  1  0  0  0  0
 19 20  1  0  0  0  0
 19 18  1  0  0  0  0
 20 22  2  0  0  0  0
 21 20  1  0  0  0  0
 22 23  1  0  0  0  0
 23 24  2  0  0  0  0
 24 14  1  0  0  0  0
 25 19  1  0  0  0  0
 26 32  1  0  0  0  0
 27 26  2  0  0  0  0
 28 43  1  0  0  0  0
 29 28  1  0  0  0  0
 29 34  1  0  0  0  0
 30 29  2  0  0  0  0
 31 32  2  0  0  0  0
 31 30  1  0  0  0  0
 32 33  1  0  0  0  0
 33 28  2  0  0  0  0
 35 30  1  0  0  0  0
 36 31  1  0  0  0  0
 37 46  1  0  0  0  0
 38 47  1  0  0  0  0
 38 37  2  0  0  0  0
 39 38  1  0  0  0  0
 40 39  2  0  0  0  0
 40 41  1  0  0  0  0
 41 42  2  0  0  0  0
 42 37  1  0  0  0  0
 43 45  1  0  0  0  0
 44 43  2  0  0  0  0
 45 41  1  0  0  0  0
 45 49  1  0  0  0  0
 48 39  1  0  0  0  0
M  END
>  <minimizedAffinity>
-7.58590937

$$$$

 OpenBabel03242511033D

 49 53  0  0  0  0  0  0  0  0999 V2000
   37.8410   31.2560   38.8790 C   0  0  0  0  0  0  0  0  0  0  0  0
   37.1190   31.9070   39.4090 H   0  0  0  0  0  0  0  0  0  0  0  0
   37.3460   30.9050   37.9780 H   0  0  0  0  0  0  0  0  0  0  0  0
   38.4720   33.3420   40.8890 Cl  0  0  0  0  0  0  0  0  0  0  0  0
   39.4660   32.9590   39.4880 C   0  0  0  0  0  0  0  0  0  0  0  0
   39.1110   31.9720   38.5890 C   0  0  0  0  0  0  0  0  0  0  0  0
   39.8910   31.6720   37.4920 C   0  0  0  0  0  0  0  0  0  0  0  0
   41.0800   32.3910   37.2820 C   0  0  0  0  0  0  0  0  0  0  0  0
   41.4240   33.3760   38.1890 C   0  0  0  0  0  0  0  0  0  0  0  0
   40.6300   33.6680   39.2900 C   0  0  0  0  0  0  0  0  0  0  0  0
   39.6010   30.9040   36.8060 H   0  0  0  0  0  0  0  0  0  0  0  0
   41.6860   32.1500   36.4190 H   0  0  0  0  0  0  0  0  0  0  0  0
   42.3440   33.9420   38.0380 H   0  0  0  0  0  0  0  0  0  0  0  0
   40.5680   36.0090   40.3000 C   0  0  0  0  0  3  0  0  0  0  0  0
   41.0650   34.7240   40.2010 C   0  0  0  0  0  0  0  0  0  0  0  0
   42.1090   34.3450   41.0540 C   0  0  0  0  0  0  0  0  0  0  0  0
   42.5520   33.3380   41.0280 H   0  0  0  0  0  0  0  0  0  0  0  0
   42.6490   35.2260   41.9870 C   0  0  0  0  0  0  0  0  0  0  0  0
   43.6220   35.1490   42.9090 N   0  0  0  0  0  0  0  0  0  0  0  0
   43.7160   36.3320   43.5430 C   0  0  0  0  0  0  0  0  0  0  0  0
   44.3790   36.6750   44.3510 H   0  0  0  0  0  0  0  0  0  0  0  0
   42.8010   37.1570   43.0200 N   0  0  0  0  0  0  0  0  0  0  0  0
   42.1250   36.5010   42.0550 C   0  0  0  0  0  0  0  0  0  0  0  0
   41.0940   36.8900   41.2200 C   0  0  0  0  0  3  0  0  0  0  0  0
   44.2140   34.3310   43.1160 H   0  0  0  0  0  0  0  0  0  0  0  0
   37.3440   29.5400   40.6440 C   0  0  0  0  0  3  0  0  0  0  0  0
   38.0890   30.0140   39.6810 C   0  0  0  0  0  3  0  0  0  0  0  0
   39.3990   27.0120   42.3460 C   0  0  0  0  0  0  0  0  0  0  0  0
   38.4120   26.0450   42.5940 C   0  0  0  0  0  0  0  0  0  0  0  0
   37.0900   26.1910   42.2220 C   0  0  0  0  0  0  0  0  0  0  0  0
   36.7490   27.3550   41.5770 C   0  0  0  0  0  0  0  0  0  0  0  0
   37.7240   28.3180   41.3290 C   0  0  0  0  0  0  0  0  0  0  0  0
   38.9860   28.1160   41.7130 N   0  0  0  0  0  0  0  0  0  0  0  0
   38.6840   25.1250   43.1050 H   0  0  0  0  0  0  0  0  0  0  0  0
   36.3900   25.4010   42.4490 H   0  0  0  0  0  0  0  0  0  0  0  0
   35.7100   27.4520   41.2940 H   0  0  0  0  0  0  0  0  0  0  0  0
   44.1200   27.0960   46.1070 C   0  0  0  0  0  0  0  0  0  0  0  0
   45.0830   26.5990   45.2130 C   0  0  0  0  0  0  0  0  0  0  0  0
   44.6810   26.3560   43.8990 C   0  0  0  0  0  0  0  0  0  0  0  0
   43.3950   26.6000   43.5190 N   0  0  0  0  0  0  0  0  0  0  0  0
   42.5020   27.0830   44.4320 C   0  0  0  0  0  0  0  0  0  0  0  0
   42.8680   27.3280   45.7190 N   0  0  0  0  0  0  0  0  0  0  0  0
   40.7700   26.7650   42.7780 C   0  0  0  0  0  0  0  0  0  0  0  0
   41.5110   26.0710   42.0260 O   0  0  0  0  0  0  0  0  0  0  0  0
   41.1560   27.3360   44.0270 N   0  0  0  0  0  0  0  0  0  0  0  0
   44.3170   27.3200   47.1450 H   0  0  0  0  0  0  0  0  0  0  0  0
   46.0760   26.4320   45.5860 H   0  0  0  0  0  0  0  0  0  0  0  0
   45.4110   25.9740   43.2030 H   0  0  0  0  0  0  0  0  0  0  0  0
   40.5400   27.9070   44.6420 H   0  0  0  0  0  0  0  0  0  0  0  0
  1  2  1  0  0  0  0
  1 27  1  0  0  0  0
  3  1  1  0  0  0  0
  5  4  1  0  0  0  0
  6  1  1  0  0  0  0
  6  5  2  0  0  0  0
  7  6  1  0  0  0  0
  8  7  2  0  0  0  0
  8  9  1  0  0  0  0
  9 10  2  0  0  0  0
 10  5  1  0  0  0  0
 10 15  1  0  0  0  0
 11  7  1  0  0  0  0
 12  8  1  0  0  0  0
 13  9  1  0  0  0  0
 14 24  1  0  0  0  0
 15 14  2  0  0  0  0
 15 16  1  0  0  0  0
 16 18  2  0  0  0  0
 17 16  1  0  0  0  0
 18 23  1  0  0  0  0
 18 19  1  0  0  0  0
 19 25  1  0  0  0  0
 19 20  1  0  0  0  0
 20 21  1  0  0  0  0
 22 20  2  0  0  0  0
 23 22  1  0  0  0  0
 24 23  2  0  0  0  0
 26 32  1  0  0  0  0
 27 26  2  0  0  0  0
 28 29  1  0  0  0  0
 28 43  1  0  0  0  0
 29 34  1  0  0  0  0
 30 35  1  0  0  0  0
 30 29  2  0  0  0  0
 31 30  1  0  0  0  0
 32 31  2  0  0  0  0
 32 33  1  0  0  0  0
 33 28  2  0  0  0  0
 36 31  1  0  0  0  0
 37 46  1  0  0  0  0
 38 47  1  0  0  0  0
 38 37  2  0  0  0  0
 39 38  1  0  0  0  0
 40 39  2  0  0  0  0
 40 41  1  0  0  0  0
 41 42  2  0  0  0  0
 42 37  1  0  0  0  0
 43 45  1  0  0  0  0
 44 43  2  0  0  0  0
 45 41  1  0  0  0  0
 45 49  1  0  0  0  0
 48 39  1  0  0  0  0
M  END
>  <minimizedAffinity>
-7.57954645

$$$$

 OpenBabel03242511033D

 49 53  0  0  0  0  0  0  0  0999 V2000
   36.7950   30.5700   41.4210 C   0  0  0  0  0  0  0  0  0  0  0  0
   35.8570   31.1140   41.6490 H   0  0  0  0  0  0  0  0  0  0  0  0
   37.1620   30.1710   42.3620 H   0  0  0  0  0  0  0  0  0  0  0  0
   37.6840   27.8910   42.3290 Cl  0  0  0  0  0  0  0  0  0  0  0  0
   36.9710   28.2370   40.7580 C   0  0  0  0  0  0  0  0  0  0  0  0
   36.5780   29.5130   40.3990 C   0  0  0  0  0  0  0  0  0  0  0  0
   36.0190   29.7830   39.1680 C   0  0  0  0  0  0  0  0  0  0  0  0
   35.8440   28.7320   38.2520 C   0  0  0  0  0  0  0  0  0  0  0  0
   36.2410   27.4600   38.6230 C   0  0  0  0  0  0  0  0  0  0  0  0
   36.8020   27.2020   39.8660 C   0  0  0  0  0  0  0  0  0  0  0  0
   35.7210   30.7770   38.9070 H   0  0  0  0  0  0  0  0  0  0  0  0
   35.4060   28.9520   37.2880 H   0  0  0  0  0  0  0  0  0  0  0  0
   36.1120   26.6360   37.9200 H   0  0  0  0  0  0  0  0  0  0  0  0
   37.9720   25.3970   41.2360 C   0  0  0  0  0  3  0  0  0  0  0  0
   37.1960   25.8300   40.1790 C   0  0  0  0  0  0  0  0  0  0  0  0
   36.7050   24.8780   39.2760 C   0  0  0  0  0  0  0  0  0  0  0  0
   36.0810   25.1540   38.4130 H   0  0  0  0  0  0  0  0  0  0  0  0
   36.9810   23.5210   39.4220 C   0  0  0  0  0  0  0  0  0  0  0  0
   36.6600   22.4110   38.7370 N   0  0  0  0  0  0  0  0  0  0  0  0
   37.2140   21.3480   39.3470 C   0  0  0  0  0  0  0  0  0  0  0  0
   37.1910   20.2750   39.1050 H   0  0  0  0  0  0  0  0  0  0  0  0
   37.8870   21.7880   40.4180 N   0  0  0  0  0  0  0  0  0  0  0  0
   37.7620   23.1280   40.4900 C   0  0  0  0  0  0  0  0  0  0  0  0
   38.2520   24.0560   41.3900 C   0  0  0  0  0  3  0  0  0  0  0  0
   36.0860   22.3570   37.8830 H   0  0  0  0  0  0  0  0  0  0  0  0
   37.6620   32.7220   40.4610 C   0  0  0  0  0  3  0  0  0  0  0  0
   37.8510   31.5400   40.9840 C   0  0  0  0  0  3  0  0  0  0  0  0
   40.8880   33.7360   39.0190 C   0  0  0  0  0  0  0  0  0  0  0  0
   40.8960   35.0850   39.4030 C   0  0  0  0  0  0  0  0  0  0  0  0
   39.8770   35.6800   40.1220 C   0  0  0  0  0  0  0  0  0  0  0  0
   38.8110   34.8850   40.4660 C   0  0  0  0  0  0  0  0  0  0  0  0
   38.7970   33.5460   40.0870 C   0  0  0  0  0  0  0  0  0  0  0  0
   39.8150   33.0300   39.3930 N   0  0  0  0  0  0  0  0  0  0  0  0
   41.7400   35.7120   39.1300 H   0  0  0  0  0  0  0  0  0  0  0  0
   39.9570   36.7250   40.3800 H   0  0  0  0  0  0  0  0  0  0  0  0
   38.0230   35.3680   41.0270 H   0  0  0  0  0  0  0  0  0  0  0  0
   43.7500   29.9420   35.2980 C   0  0  0  0  0  0  0  0  0  0  0  0
   45.0460   30.4620   35.4570 C   0  0  0  0  0  0  0  0  0  0  0  0
   45.2170   31.5040   36.3690 C   0  0  0  0  0  0  0  0  0  0  0  0
   44.1500   31.9840   37.0690 N   0  0  0  0  0  0  0  0  0  0  0  0
   42.9140   31.4400   36.8720 C   0  0  0  0  0  0  0  0  0  0  0  0
   42.7200   30.4230   35.9890 N   0  0  0  0  0  0  0  0  0  0  0  0
   42.0130   33.1990   38.2610 C   0  0  0  0  0  0  0  0  0  0  0  0
   43.0830   33.8700   38.2360 O   0  0  0  0  0  0  0  0  0  0  0  0
   41.8010   31.9480   37.6090 N   0  0  0  0  0  0  0  0  0  0  0  0
   43.5010   29.1380   34.6210 H   0  0  0  0  0  0  0  0  0  0  0  0
   45.8360   30.0310   34.8700 H   0  0  0  0  0  0  0  0  0  0  0  0
   46.2070   31.9110   36.5010 H   0  0  0  0  0  0  0  0  0  0  0  0
   40.9160   31.4000   37.6340 H   0  0  0  0  0  0  0  0  0  0  0  0
  1  2  1  0  0  0  0
  1  3  1  0  0  0  0
  5  4  1  0  0  0  0
  6  5  1  0  0  0  0
  6  1  1  0  0  0  0
  7  6  2  0  0  0  0
  8  9  2  0  0  0  0
  8  7  1  0  0  0  0
  9 10  1  0  0  0  0
 10 15  1  0  0  0  0
 10  5  2  0  0  0  0
 11  7  1  0  0  0  0
 12  8  1  0  0  0  0
 13  9  1  0  0  0  0
 14 24  1  0  0  0  0
 15 14  2  0  0  0  0
 16 18  2  0  0  0  0
 16 15  1  0  0  0  0
 17 16  1  0  0  0  0
 18 23  1  0  0  0  0
 19 20  1  0  0  0  0
 19 18  1  0  0  0  0
 20 22  2  0  0  0  0
 21 20  1  0  0  0  0
 22 23  1  0  0  0  0
 23 24  2  0  0  0  0
 25 19  1  0  0  0  0
 26 27  2  0  0  0  0
 27  1  1  0  0  0  0
 28 33  2  0  0  0  0
 28 29  1  0  0  0  0
 29 30  2  0  0  0  0
 30 35  1  0  0  0  0
 30 31  1  0  0  0  0
 31 36  1  0  0  0  0
 32 26  1  0  0  0  0
 32 31  2  0  0  0  0
 33 32  1  0  0  0  0
 34 29  1  0  0  0  0
 37 38  2  0  0  0  0
 37 42  1  0  0  0  0
 38 39  1  0  0  0  0
 39 48  1  0  0  0  0
 39 40  2  0  0  0  0
 41 40  1  0  0  0  0
 41 45  1  0  0  0  0
 42 41  2  0  0  0  0
 43 28  1  0  0  0  0
 44 43  2  0  0  0  0
 45 49  1  0  0  0  0
 45 43  1  0  0  0  0
 46 37  1  0  0  0  0
 47 38  1  0  0  0  0
M  END
>  <minimizedAffinity>
-7.35133696

$$$$

 OpenBabel03242511033D

 49 53  0  0  0  0  0  0  0  0999 V2000
   33.7940   29.0410   39.0180 C   0  0  0  0  0  0  0  0  0  0  0  0
   32.9670   29.7030   39.3400 H   0  0  0  0  0  0  0  0  0  0  0  0
   33.5600   28.0460   39.3820 H   0  0  0  0  0  0  0  0  0  0  0  0
   31.2800   29.6040   37.5500 Cl  0  0  0  0  0  0  0  0  0  0  0  0
   32.8490   29.3380   36.7980 C   0  0  0  0  0  0  0  0  0  0  0  0
   33.9820   29.0800   37.5440 C   0  0  0  0  0  0  0  0  0  0  0  0
   35.2100   28.8720   36.9530 C   0  0  0  0  0  0  0  0  0  0  0  0
   35.3130   28.9240   35.5530 C   0  0  0  0  0  0  0  0  0  0  0  0
   34.1710   29.1830   34.8170 C   0  0  0  0  0  0  0  0  0  0  0  0
   32.9400   29.3910   35.4250 C   0  0  0  0  0  0  0  0  0  0  0  0
   36.0780   28.6730   37.5470 H   0  0  0  0  0  0  0  0  0  0  0  0
   36.2800   28.7590   35.0970 H   0  0  0  0  0  0  0  0  0  0  0  0
   34.2360   29.2260   33.7290 H   0  0  0  0  0  0  0  0  0  0  0  0
   30.9040   28.7410   34.0340 C   0  0  0  0  0  3  0  0  0  0  0  0
   31.7820   29.6590   34.5750 C   0  0  0  0  0  0  0  0  0  0  0  0
   31.5780   31.0190   34.3050 C   0  0  0  0  0  0  0  0  0  0  0  0
   32.2390   31.8020   34.7050 H   0  0  0  0  0  0  0  0  0  0  0  0
   30.5210   31.4570   33.5120 C   0  0  0  0  0  0  0  0  0  0  0  0
   30.0860   32.6560   33.0920 N   0  0  0  0  0  0  0  0  0  0  0  0
   28.9920   32.4800   32.3300 C   0  0  0  0  0  0  0  0  0  0  0  0
   28.3470   33.1990   31.8040 H   0  0  0  0  0  0  0  0  0  0  0  0
   28.7360   31.1680   32.2670 N   0  0  0  0  0  0  0  0  0  0  0  0
   29.6650   30.5080   32.9890 C   0  0  0  0  0  0  0  0  0  0  0  0
   29.8540   29.1630   33.2470 C   0  0  0  0  0  3  0  0  0  0  0  0
   30.5040   33.5740   33.3060 H   0  0  0  0  0  0  0  0  0  0  0  0
   35.5260   28.8820   40.8300 C   0  0  0  0  0  3  0  0  0  0  0  0
   35.0550   29.4190   39.7360 C   0  0  0  0  0  3  0  0  0  0  0  0
   38.6000   30.8410   41.3020 C   0  0  0  0  0  0  0  0  0  0  0  0
   39.0710   30.2460   42.4820 C   0  0  0  0  0  0  0  0  0  0  0  0
   38.4160   29.2190   43.1330 C   0  0  0  0  0  0  0  0  0  0  0  0
   37.2410   28.7770   42.5750 C   0  0  0  0  0  0  0  0  0  0  0  0
   36.7680   29.3640   41.4050 C   0  0  0  0  0  0  0  0  0  0  0  0
   37.4500   30.3530   40.8230 N   0  0  0  0  0  0  0  0  0  0  0  0
   40.0010   30.5970   42.9220 H   0  0  0  0  0  0  0  0  0  0  0  0
   38.8430   28.8130   44.0380 H   0  0  0  0  0  0  0  0  0  0  0  0
   36.7420   27.9740   43.0990 H   0  0  0  0  0  0  0  0  0  0  0  0
   42.3290   33.4060   37.3080 C   0  0  0  0  0  0  0  0  0  0  0  0
   42.4180   34.6700   37.9160 C   0  0  0  0  0  0  0  0  0  0  0  0
   41.7520   34.8510   39.1290 C   0  0  0  0  0  0  0  0  0  0  0  0
   41.0480   33.8260   39.6850 N   0  0  0  0  0  0  0  0  0  0  0  0
   40.9960   32.6190   39.0480 C   0  0  0  0  0  0  0  0  0  0  0  0
   41.6360   32.4160   37.8650 N   0  0  0  0  0  0  0  0  0  0  0  0
   39.3660   31.9200   40.6880 C   0  0  0  0  0  0  0  0  0  0  0  0
   39.1900   33.0920   41.1240 O   0  0  0  0  0  0  0  0  0  0  0  0
   40.2560   31.5490   39.6360 N   0  0  0  0  0  0  0  0  0  0  0  0
   42.8010   33.1530   36.3700 H   0  0  0  0  0  0  0  0  0  0  0  0
   42.9920   35.4280   37.4170 H   0  0  0  0  0  0  0  0  0  0  0  0
   41.8140   35.8170   39.6070 H   0  0  0  0  0  0  0  0  0  0  0  0
   40.3960   30.5810   39.2820 H   0  0  0  0  0  0  0  0  0  0  0  0
  1  2  1  0  0  0  0
  1  3  1  0  0  0  0
  1 27  1  0  0  0  0
  5  6  1  0  0  0  0
  5  4  1  0  0  0  0
  6  1  1  0  0  0  0
  7  6  2  0  0  0  0
  7 11  1  0  0  0  0
  8  7  1  0  0  0  0
  9 10  1  0  0  0  0
  9  8  2  0  0  0  0
 10  5  2  0  0  0  0
 12  8  1  0  0  0  0
 13  9  1  0  0  0  0
 14 15  1  0  0  0  0
 15 10  1  0  0  0  0
 16 15  2  0  0  0  0
 16 17  1  0  0  0  0
 18 16  1  0  0  0  0
 19 25  1  0  0  0  0
 19 18  1  0  0  0  0
 20 19  1  0  0  0  0
 21 20  1  0  0  0  0
 22 20  2  0  0  0  0
 22 23  1  0  0  0  0
 23 24  1  0  0  0  0
 23 18  2  0  0  0  0
 24 14  2  0  0  0  0
 26 32  1  0  0  0  0
 27 26  2  0  0  0  0
 28 29  1  0  0  0  0
 29 34  1  0  0  0  0
 29 30  2  0  0  0  0
 30 35  1  0  0  0  0
 31 36  1  0  0  0  0
 31 30  1  0  0  0  0
 32 31  2  0  0  0  0
 33 28  2  0  0  0  0
 33 32  1  0  0  0  0
 37 42  2  0  0  0  0
 37 38  1  0  0  0  0
 38 39  2  0  0  0  0
 39 48  1  0  0  0  0
 39 40  1  0  0  0  0
 41 45  1  0  0  0  0
 41 40  2  0  0  0  0
 42 41  1  0  0  0  0
 43 44  2  0  0  0  0
 43 28  1  0  0  0  0
 45 43  1  0  0  0  0
 46 37  1  0  0  0  0
 47 38  1  0  0  0  0
 49 45  1  0  0  0  0
M  END
>  <minimizedAffinity>
-7.34211397

$$$$
