
 OpenBabel03252508333D

 35 38  0  0  1  0  0  0  0  0999 V2000
   44.2580   34.3600   41.8340 N   0  0  0  0  0  0  0  0  0  0  0  0
   44.2920   33.2150   40.9840 C   0  0  2  0  0  0  0  0  0  0  0  0
   43.8590   33.5410   39.5750 C   0  0  0  0  0  0  0  0  0  0  0  0
   42.6040   34.2270   39.5480 N   0  0  0  0  0  0  0  0  0  0  0  0
   42.5010   35.3120   40.4450 C   0  0  0  0  0  0  0  0  0  0  0  0
   43.7740   35.5780   41.2180 C   0  0  0  0  0  0  0  0  0  0  0  0
   45.3580   32.8810   40.9210 H   0  0  0  0  0  0  0  0  0  0  0  0
   44.6290   34.2150   39.1440 H   0  0  0  0  0  0  0  0  0  0  0  0
   43.8020   32.6460   38.9580 H   0  0  0  0  0  0  0  0  0  0  0  0
   41.8460   33.5300   39.7590 H   0  0  0  0  0  0  0  0  0  0  0  0
   41.6750   35.2660   41.1830 H   0  0  0  0  0  0  0  0  0  0  0  0
   42.3270   36.2340   39.8290 H   0  0  0  0  0  0  0  0  0  0  0  0
   44.5420   35.8290   40.4300 H   0  0  0  0  0  0  0  0  0  0  0  0
   43.5700   36.4040   41.8830 H   0  0  0  0  0  0  0  0  0  0  0  0
   42.2180   32.1370   41.9140 C   0  0  0  0  0  3  0  0  0  0  0  0
   43.5020   32.0570   41.4100 C   0  0  0  0  0  0  0  0  0  0  0  0
   43.9370   30.7260   41.3420 C   0  0  0  0  0  0  0  0  0  0  0  0
   44.9510   30.5490   40.9530 H   0  0  0  0  0  0  0  0  0  0  0  0
   43.2130   29.6240   41.7160 C   0  0  0  0  0  0  0  0  0  0  0  0
   43.5130   28.3130   41.6990 N   0  0  0  0  0  0  0  0  0  0  0  0
   42.4380   27.6620   42.1770 C   0  0  0  0  0  0  0  0  0  0  0  0
   42.4540   26.5650   42.2570 H   0  0  0  0  0  0  0  0  0  0  0  0
   41.4960   28.5670   42.4810 N   0  0  0  0  0  0  0  0  0  0  0  0
   41.9430   29.7980   42.2060 C   0  0  0  0  0  0  0  0  0  0  0  0
   41.4320   31.0760   42.3090 C   0  0  0  0  0  3  0  0  0  0  0  0
   44.4230   27.8920   41.3710 H   0  0  0  0  0  0  0  0  0  0  0  0
   44.3770   35.2640   44.0700 C   0  0  0  0  0  0  0  0  0  0  0  0
   44.6880   34.2420   43.1850 C   0  0  0  0  0  0  0  0  0  0  0  0
   45.3920   33.1660   43.6820 C   0  0  0  0  0  0  0  0  0  0  0  0
   45.7450   33.1470   44.9850 N   0  0  0  0  0  0  0  0  0  0  0  0
   45.4300   34.1500   45.8250 C   0  0  0  0  0  0  0  0  0  0  0  0
   44.7530   35.1930   45.3610 N   0  0  0  0  0  0  0  0  0  0  0  0
   43.8370   36.1700   43.8540 H   0  0  0  0  0  0  0  0  0  0  0  0
   45.6640   32.3560   43.0390 H   0  0  0  0  0  0  0  0  0  0  0  0
   45.7810   33.9910   46.8400 H   0  0  0  0  0  0  0  0  0  0  0  0
  1 28  1  0  0  0  0
  2  7  1  6  0  0  0
  2 16  1  0  0  0  0
  2  1  1  0  0  0  0
  3  2  1  0  0  0  0
  4  3  1  0  0  0  0
  4 10  1  0  0  0  0
  4  5  1  0  0  0  0
  5 11  1  0  0  0  0
  5  6  1  0  0  0  0
  6  1  1  0  0  0  0
  6 14  1  0  0  0  0
  8  3  1  0  0  0  0
  9  3  1  0  0  0  0
 12  5  1  0  0  0  0
 13  6  1  0  0  0  0
 15 25  1  0  0  0  0
 16 15  2  0  0  0  0
 17 16  1  0  0  0  0
 17 19  2  0  0  0  0
 18 17  1  0  0  0  0
 19 24  1  0  0  0  0
 20 19  1  0  0  0  0
 20 21  1  0  0  0  0
 21 22  1  0  0  0  0
 21 23  2  0  0  0  0
 24 25  2  0  0  0  0
 24 23  1  0  0  0  0
 26 20  1  0  0  0  0
 27 32  1  0  0  0  0
 28 29  1  0  0  0  0
 28 27  2  0  0  0  0
 29 30  2  0  0  0  0
 30 31  1  0  0  0  0
 31 35  1  0  0  0  0
 32 31  2  0  0  0  0
 33 27  1  0  0  0  0
 34 29  1  0  0  0  0
M  END
>  <minimizedAffinity>
-3.83110857

>  <minimizedRMSD>
0.482742965

$$$$
