
 OpenBabel03242510273D

 21 23  0  0  0  0  0  0  0  0999 V2000
   47.8830   35.2180   41.9220 C   0  0  0  0  0  0  0  0  0  0  0  0
   46.6070   34.7070   42.0310 C   0  0  0  0  0  0  0  0  0  0  0  0
   46.0480   34.0800   40.9370 C   0  0  0  0  0  0  0  0  0  0  0  0
   45.0670   33.6790   40.9990 H   0  0  0  0  0  0  0  0  0  0  0  0
   46.7180   33.9440   39.7330 C   0  0  0  0  0  0  0  0  0  0  0  0
   46.3760   33.3780   38.5490 N   0  0  0  0  0  0  0  0  0  0  0  0
   47.4340   33.5330   37.6980 C   0  0  0  0  0  0  0  0  0  0  0  0
   47.4490   33.1790   36.6760 H   0  0  0  0  0  0  0  0  0  0  0  0
   48.4190   34.1960   38.3720 N   0  0  0  0  0  0  0  0  0  0  0  0
   47.9980   34.4560   39.6220 C   0  0  0  0  0  0  0  0  0  0  0  0
   48.5670   35.0850   40.7080 C   0  0  0  0  0  0  0  0  0  0  0  0
   45.4530   32.9230   38.3860 H   0  0  0  0  0  0  0  0  0  0  0  0
   44.4660   35.9550   44.8830 C   0  0  0  0  0  0  0  0  0  0  0  0
   45.0660   35.9250   43.5940 C   0  0  0  0  0  0  0  0  0  0  0  0
   45.9230   34.8640   43.3120 C   0  0  0  0  0  0  0  0  0  0  0  0
   46.1510   33.9170   44.2560 N   0  0  0  0  0  0  0  0  0  0  0  0
   45.5570   33.9810   45.4810 C   0  0  0  0  0  0  0  0  0  0  0  0
   44.7280   34.9940   45.7740 N   0  0  0  0  0  0  0  0  0  0  0  0
   43.8130   36.8060   45.0300 H   0  0  0  0  0  0  0  0  0  0  0  0
   44.8860   36.6700   42.8510 H   0  0  0  0  0  0  0  0  0  0  0  0
   45.7430   33.2220   46.2300 H   0  0  0  0  0  0  0  0  0  0  0  0
  1  2  1  0  0  0  0
  2 15  1  0  0  0  0
  3  4  1  0  0  0  0
  3  2  2  0  0  0  0
  5  3  1  0  0  0  0
  6  5  1  0  0  0  0
  7  9  2  0  0  0  0
  7  6  1  0  0  0  0
  8  7  1  0  0  0  0
  9 10  1  0  0  0  0
 10  5  2  0  0  0  0
 10 11  1  0  0  0  0
 11  1  2  0  0  0  0
 12  6  1  0  0  0  0
 13 19  1  0  0  0  0
 13 18  1  0  0  0  0
 14 13  2  0  0  0  0
 15 14  1  0  0  0  0
 15 16  2  0  0  0  0
 16 17  1  0  0  0  0
 17 18  2  0  0  0  0
 17 21  1  0  0  0  0
 20 14  1  0  0  0  0
M  END
>  <minimizedAffinity>
-5.45176411

>  <minimizedRMSD>
1.18978608

$$$$
