
 OpenBabel03242517173D

 36 39  0  0  0  0  0  0  0  0999 V2000
   44.2940   35.0310   42.8750 C   0  0  0  0  0  0  0  0  0  0  0  0
   43.5980   34.2690   41.9250 C   0  0  0  0  0  0  0  0  0  0  0  0
   43.7060   32.8940   41.9850 C   0  0  0  0  0  0  0  0  0  0  0  0
   44.4830   32.3680   42.9620 N   0  0  0  0  0  0  0  0  0  0  0  0
   45.1500   33.1060   43.8710 C   0  0  0  0  0  0  0  0  0  0  0  0
   45.0340   34.4330   43.7990 N   0  0  0  0  0  0  0  0  0  0  0  0
   44.1980   36.1090   42.8130 H   0  0  0  0  0  0  0  0  0  0  0  0
   43.1980   32.2260   41.2870 H   0  0  0  0  0  0  0  0  0  0  0  0
   46.3570   31.1460   44.6800 C   0  0  0  0  0  0  0  0  0  0  0  0
   45.9660   32.4540   44.8920 C   0  0  0  0  0  0  0  0  0  0  0  0
   46.3160   33.1620   46.0240 C   0  0  0  0  0  0  0  0  0  0  0  0
   46.0230   34.1680   46.2010 H   0  0  0  0  0  0  0  0  0  0  0  0
   47.0880   32.4770   46.9420 C   0  0  0  0  0  0  0  0  0  0  0  0
   47.5990   32.8530   48.1330 N   0  0  0  0  0  0  0  0  0  0  0  0
   48.3040   31.8270   48.6890 C   0  0  0  0  0  0  0  0  0  0  0  0
   48.8370   31.7900   49.6290 H   0  0  0  0  0  0  0  0  0  0  0  0
   48.2130   30.8120   47.8090 N   0  0  0  0  0  0  0  0  0  0  0  0
   47.4850   31.1720   46.7430 C   0  0  0  0  0  0  0  0  0  0  0  0
   47.1290   30.4670   45.6030 C   0  0  0  0  0  0  0  0  0  0  0  0
   47.5250   33.7670   48.6410 H   0  0  0  0  0  0  0  0  0  0  0  0
   42.7680   34.8840   40.8840 C   0  0  0  0  0  0  0  0  0  0  0  0
   41.6030   35.4390   41.0400 C   0  0  0  0  0  0  0  0  0  0  0  0
   40.8140   36.0460   39.9390 C   0  0  0  0  0  0  0  0  0  0  0  0
   41.4950   36.3880   39.1100 H   0  0  0  0  0  0  0  0  0  0  0  0
   40.2570   36.9030   40.3630 H   0  0  0  0  0  0  0  0  0  0  0  0
   40.6750   35.6190   37.1830 F   0  0  0  0  0  0  0  0  0  0  0  0
   39.8510   34.9000   37.9720 C   0  0  0  0  0  0  0  0  0  0  0  0
   39.8790   35.0770   39.3690 C   0  0  0  0  0  0  0  0  0  0  0  0
   38.9930   34.2850   40.0340 C   0  0  0  0  0  0  0  0  0  0  0  0
   38.1150   33.3750   39.5160 C   0  0  0  0  0  0  0  0  0  0  0  0
   38.1610   33.2680   38.1130 C   0  0  0  0  0  0  0  0  0  0  0  0
   39.0040   34.0040   37.3160 C   0  0  0  0  0  0  0  0  0  0  0  0
   38.9660   34.3790   41.1170 H   0  0  0  0  0  0  0  0  0  0  0  0
   37.4400   32.7820   40.1150 H   0  0  0  0  0  0  0  0  0  0  0  0
   37.4890   32.5630   37.6410 H   0  0  0  0  0  0  0  0  0  0  0  0
   39.0250   33.9120   36.2600 H   0  0  0  0  0  0  0  0  0  0  0  0
  1  6  1  0  0  0  0
  2  3  1  0  0  0  0
  2  1  2  0  0  0  0
  3  4  2  0  0  0  0
  4  5  1  0  0  0  0
  5 10  1  0  0  0  0
  6  5  2  0  0  0  0
  7  1  1  0  0  0  0
  8  3  1  0  0  0  0
  9 10  2  0  0  0  0
  9 19  1  0  0  0  0
 10 11  1  0  0  0  0
 11 12  1  0  0  0  0
 11 13  2  0  0  0  0
 13 14  1  0  0  0  0
 14 20  1  0  0  0  0
 14 15  1  0  0  0  0
 15 16  1  0  0  0  0
 17 15  2  0  0  0  0
 18 13  1  0  0  0  0
 18 17  1  0  0  0  0
 19 18  2  0  0  0  0
 21 22  2  0  0  0  0
 21  2  1  0  0  0  0
 23 25  1  0  0  0  0
 23 22  1  0  0  0  0
 24 23  1  0  0  0  0
 26 27  1  0  0  0  0
 27 28  1  0  0  0  0
 28 23  1  0  0  0  0
 28 29  2  0  0  0  0
 29 33  1  0  0  0  0
 30 29  1  0  0  0  0
 30 34  1  0  0  0  0
 31 30  2  0  0  0  0
 32 27  2  0  0  0  0
 32 31  1  0  0  0  0
 35 31  1  0  0  0  0
 36 32  1  0  0  0  0
M  END
>  <minimizedAffinity>
-7.06418991

>  <minimizedRMSD>
1.3646121

$$$$
