REMARK  Name = 
REMARK  3 active torsions:
REMARK  status: ('A' for Active; 'I' for Inactive)
REMARK    1  A    between atoms: C_1  and  C_13
REMARK    2  A    between atoms: C_5  and  C_7
REMARK    3  A    between atoms: C_18  and  C_36
REMARK                            x       y       z     vdW  Elec       q    Type
REMARK                         _______ _______ _______ _____ _____    ______ ____
ROOT
ATOM      1  C   UNL     1      45.998  32.760  46.578  0.00  0.00    +0.000 C 
ATOM      2  C   UNL     1      46.218  31.400  46.111  0.00  0.00    +0.000 C 
ATOM      3  C   UNL     1      46.645  30.504  47.228  0.00  0.00    +0.000 C 
ATOM      4  C   UNL     1      46.016  30.735  48.559  0.00  0.00    +0.000 C 
ATOM      5  C   UNL     1      45.868  32.175  48.886  0.00  0.00    +0.000 C 
ATOM      6  C   UNL     1      45.114  32.870  47.751  0.00  0.00    +0.000 C 
ATOM      7  H   UNL     1      47.036  33.077  46.986  0.00  0.00    +0.000 HD
ATOM      8  H   UNL     1      47.171  31.462  45.444  0.00  0.00    +0.000 HD
ATOM      9  H   UNL     1      45.531  30.890  45.464  0.00  0.00    +0.000 HD
ATOM     10  H   UNL     1      47.774  30.459  47.328  0.00  0.00    +0.000 HD
ATOM     11  H   UNL     1      46.383  29.440  46.936  0.00  0.00    +0.000 HD
ATOM     12  H   UNL     1      46.728  30.312  49.313  0.00  0.00    +0.000 HD
ATOM     13  H   UNL     1      45.109  30.116  48.660  0.00  0.00    +0.000 HD
ATOM     14  H   UNL     1      45.503  32.419  49.865  0.00  0.00    +0.000 HD
ATOM     15  H   UNL     1      46.906  32.617  48.826  0.00  0.00    +0.000 HD
ATOM     16  H   UNL     1      45.147  33.947  48.180  0.00  0.00    +0.000 HD
ENDROOT
BRANCH   6  18
ATOM     17  C   UNL     1      42.866  33.200  48.444  0.00  0.00    +0.000 A 
ATOM     18  C   UNL     1      43.774  32.355  47.768  0.00  0.00    +0.000 A 
ATOM     19  C   UNL     1      43.131  31.256  47.306  0.00  0.00    +0.000 A 
ATOM     20  H   UNL     1      43.772  30.570  46.786  0.00  0.00    +0.000 HD
ATOM     21  C   UNL     1      41.804  30.912  47.417  0.00  0.00    +0.000 A 
ATOM     22  N   UNL     1      41.127  29.838  46.976  0.00  0.00    +0.000 N 
ATOM     23  C   UNL     1      39.849  30.069  47.395  0.00  0.00    +0.000 A 
ATOM     24  H   UNL     1      39.018  29.391  47.209  0.00  0.00    +0.000 HD
ATOM     25  N   UNL     1      39.766  31.230  48.057  0.00  0.00    +0.000 NA
ATOM     26  C   UNL     1      40.993  31.783  48.084  0.00  0.00    +0.000 A 
ATOM     27  C   UNL     1      41.502  32.926  48.603  0.00  0.00    +0.000 A 
ATOM     28  H   UNL     1      41.528  29.039  46.442  0.00  0.00    +0.000 HD
ENDBRANCH   6  18
BRANCH   1  29
ATOM     29  C   UNL     1      45.743  33.783  45.559  0.00  0.00    +0.000 A 
ATOM     30  C   UNL     1      44.815  34.771  45.852  0.00  0.00    +0.000 A 
ATOM     31  C   UNL     1      44.567  35.737  44.858  0.00  0.00    +0.000 A 
ATOM     32  N   UNL     1      45.258  35.638  43.669  0.00  0.00    +0.000 NA
ATOM     33  C   UNL     1      46.139  34.661  43.455  0.00  0.00    +0.000 A 
ATOM     34  N   UNL     1      46.377  33.751  44.384  0.00  0.00    +0.000 NA
ATOM     35  H   UNL     1      44.221  34.966  46.720  0.00  0.00    +0.000 HD
ATOM     36  H   UNL     1      43.886  36.544  44.945  0.00  0.00    +0.000 HD
BRANCH  33  37
ATOM     37  C   UNL     1      46.838  34.616  42.170  0.00  0.00    +0.000 A 
ATOM     38  C   UNL     1      48.012  35.319  41.992  0.00  0.00    +0.000 A 
ATOM     39  C   UNL     1      48.746  35.341  40.828  0.00  0.00    +0.000 A 
ATOM     40  C   UNL     1      48.191  34.568  39.800  0.00  0.00    +0.000 A 
ATOM     41  C   UNL     1      47.015  33.855  39.953  0.00  0.00    +0.000 A 
ATOM     42  N   UNL     1      46.328  33.874  41.144  0.00  0.00    +0.000 NA
ATOM     43  H   UNL     1      48.373  35.891  42.837  0.00  0.00    +0.000 HD
ATOM     44  H   UNL     1      49.643  35.901  40.750  0.00  0.00    +0.000 HD
ATOM     45  H   UNL     1      48.741  34.555  38.853  0.00  0.00    +0.000 HD
ATOM     46  H   UNL     1      46.679  33.296  39.103  0.00  0.00    +0.000 HD
ENDBRANCH  33  37
ENDBRANCH   1  29
TORSDOF 3
