
 OpenBabel03252505203D

 37 41  0  0  0  0  0  0  0  0999 V2000
   38.7260   32.0460   40.0710 C   0  0  0  0  0  0  0  0  0  0  0  0
   38.4750   33.3360   40.4890 C   0  0  0  0  0  0  0  0  0  0  0  0
   39.3700   34.3470   40.1690 C   0  0  0  0  0  0  0  0  0  0  0  0
   40.4970   33.9980   39.4280 C   0  0  0  0  0  0  0  0  0  0  0  0
   40.6950   32.6840   39.0380 C   0  0  0  0  0  0  0  0  0  0  0  0
   39.8170   31.7030   39.3530 N   0  0  0  0  0  0  0  0  0  0  0  0
   37.5850   33.5730   41.0650 H   0  0  0  0  0  0  0  0  0  0  0  0
   39.2190   35.3740   40.4720 H   0  0  0  0  0  0  0  0  0  0  0  0
   41.1810   34.7770   39.1860 H   0  0  0  0  0  0  0  0  0  0  0  0
   43.0790   32.8830   38.5470 C   0  0  0  0  0  3  0  0  0  0  0  0
   41.8610   32.2920   38.2650 C   0  0  0  0  0  0  0  0  0  0  0  0
   41.8680   31.3700   37.2540 C   0  0  0  0  0  0  0  0  0  0  0  0
   40.9550   30.8840   36.9950 H   0  0  0  0  0  0  0  0  0  0  0  0
   43.0130   31.0430   36.5570 C   0  0  0  0  0  0  0  0  0  0  0  0
   43.2680   30.1940   35.5520 N   0  0  0  0  0  0  0  0  0  0  0  0
   44.5770   30.2530   35.2290 C   0  0  0  0  0  0  0  0  0  0  0  0
   44.9730   29.6350   34.4360 H   0  0  0  0  0  0  0  0  0  0  0  0
   45.1540   31.1530   36.0400 N   0  0  0  0  0  0  0  0  0  0  0  0
   44.2040   31.6450   36.8610 C   0  0  0  0  0  0  0  0  0  0  0  0
   44.2670   32.5940   37.8770 C   0  0  0  0  0  3  0  0  0  0  0  0
   42.5120   29.5970   35.1250 H   0  0  0  0  0  0  0  0  0  0  0  0
   35.8310   29.7600   40.0130 C   0  0  0  0  0  0  0  0  0  0  0  0
   35.9750   29.0040   41.1900 C   0  0  0  0  0  0  0  0  0  0  0  0
   37.0710   29.3100   41.9620 C   0  0  0  0  0  0  0  0  0  0  0  0
   37.9480   30.2950   41.5790 N   0  0  0  0  0  0  0  0  0  0  0  0
   37.7660   31.0040   40.4260 C   0  0  0  0  0  0  0  0  0  0  0  0
   36.7090   30.7250   39.6570 N   0  0  0  0  0  0  0  0  0  0  0  0
   34.9870   29.5640   39.3650 H   0  0  0  0  0  0  0  0  0  0  0  0
   35.2680   28.2380   41.4610 H   0  0  0  0  0  0  0  0  0  0  0  0
   37.3130   28.5870   43.2560 C   0  0  0  0  0  0  0  0  0  0  0  0
   36.7650   27.1590   43.2500 C   0  0  0  0  0  0  0  0  0  0  0  0
   38.2830   27.5250   43.3050 C   0  0  0  0  0  0  0  0  0  0  0  0
   36.8760   29.1430   44.1260 H   0  0  0  0  0  0  0  0  0  0  0  0
   36.3490   26.7190   44.1570 H   0  0  0  0  0  0  0  0  0  0  0  0
   36.4740   26.6990   42.2950 H   0  0  0  0  0  0  0  0  0  0  0  0
   38.8930   27.3220   42.4270 H   0  0  0  0  0  0  0  0  0  0  0  0
   38.7670   27.3020   44.2930 H   0  0  0  0  0  0  0  0  0  0  0  0
  1 26  1  0  0  0  0
  1  2  1  0  0  0  0
  2  7  1  0  0  0  0
  3  8  1  0  0  0  0
  3  2  2  0  0  0  0
  4  3  1  0  0  0  0
  5  6  1  0  0  0  0
  5  4  2  0  0  0  0
  6  1  2  0  0  0  0
  9  4  1  0  0  0  0
 11 10  1  0  0  0  0
 11  5  1  0  0  0  0
 12 11  2  0  0  0  0
 13 12  1  0  0  0  0
 14 19  2  0  0  0  0
 14 12  1  0  0  0  0
 15 14  1  0  0  0  0
 16 15  1  0  0  0  0
 16 18  2  0  0  0  0
 17 16  1  0  0  0  0
 18 19  1  0  0  0  0
 19 20  1  0  0  0  0
 20 10  2  0  0  0  0
 21 15  1  0  0  0  0
 22 23  1  0  0  0  0
 23 29  1  0  0  0  0
 23 24  2  0  0  0  0
 24 30  1  0  0  0  0
 25 24  1  0  0  0  0
 26 25  2  0  0  0  0
 27 22  2  0  0  0  0
 27 26  1  0  0  0  0
 28 22  1  0  0  0  0
 30 32  1  0  0  0  0
 30 33  1  0  0  0  0
 31 30  1  0  0  0  0
 31 32  1  0  0  0  0
 31 34  1  0  0  0  0
 32 37  1  0  0  0  0
 35 31  1  0  0  0  0
 36 32  1  0  0  0  0
M  END
>  <minimizedAffinity>
-6.15967035

$$$$

 OpenBabel03252505203D

 37 41  0  0  0  0  0  0  0  0999 V2000
   37.3500   28.6460   39.2560 C   0  0  0  0  0  0  0  0  0  0  0  0
   36.2750   28.7530   38.3980 C   0  0  0  0  0  0  0  0  0  0  0  0
   36.1860   29.8400   37.5410 C   0  0  0  0  0  0  0  0  0  0  0  0
   37.2080   30.7860   37.5940 C   0  0  0  0  0  0  0  0  0  0  0  0
   38.2620   30.6240   38.4780 C   0  0  0  0  0  0  0  0  0  0  0  0
   38.3420   29.5610   39.3110 N   0  0  0  0  0  0  0  0  0  0  0  0
   35.4960   27.9960   38.3830 H   0  0  0  0  0  0  0  0  0  0  0  0
   35.3650   29.9700   36.8500 H   0  0  0  0  0  0  0  0  0  0  0  0
   37.1350   31.6190   36.9350 H   0  0  0  0  0  0  0  0  0  0  0  0
   39.5160   32.3100   39.7250 C   0  0  0  0  0  3  0  0  0  0  0  0
   39.3410   31.5950   38.5530 C   0  0  0  0  0  0  0  0  0  0  0  0
   40.2230   31.8780   37.5470 C   0  0  0  0  0  0  0  0  0  0  0  0
   40.1330   31.3560   36.6220 H   0  0  0  0  0  0  0  0  0  0  0  0
   41.2280   32.8140   37.6830 C   0  0  0  0  0  0  0  0  0  0  0  0
   42.1920   33.2560   36.8640 N   0  0  0  0  0  0  0  0  0  0  0  0
   42.9270   34.1950   37.4940 C   0  0  0  0  0  0  0  0  0  0  0  0
   43.7560   34.6710   36.9890 H   0  0  0  0  0  0  0  0  0  0  0  0
   42.4200   34.3480   38.7260 N   0  0  0  0  0  0  0  0  0  0  0  0
   41.3760   33.5040   38.8560 C   0  0  0  0  0  0  0  0  0  0  0  0
   40.5110   33.2660   39.9200 C   0  0  0  0  0  3  0  0  0  0  0  0
   42.3020   32.8820   35.8850 H   0  0  0  0  0  0  0  0  0  0  0  0
   36.8930   25.2780   40.6900 C   0  0  0  0  0  0  0  0  0  0  0  0
   37.5740   25.3400   41.9190 C   0  0  0  0  0  0  0  0  0  0  0  0
   38.1690   26.5450   42.2080 C   0  0  0  0  0  0  0  0  0  0  0  0
   38.0860   27.5990   41.3310 N   0  0  0  0  0  0  0  0  0  0  0  0
   37.4130   27.4910   40.1470 C   0  0  0  0  0  0  0  0  0  0  0  0
   36.8260   26.3300   39.8430 N   0  0  0  0  0  0  0  0  0  0  0  0
   36.4050   24.3550   40.4090 H   0  0  0  0  0  0  0  0  0  0  0  0
   37.6200   24.4940   42.5850 H   0  0  0  0  0  0  0  0  0  0  0  0
   38.9010   26.7390   43.5060 C   0  0  0  0  0  0  0  0  0  0  0  0
   40.0690   25.7660   43.6800 C   0  0  0  0  0  0  0  0  0  0  0  0
   40.2220   27.3100   43.4970 C   0  0  0  0  0  0  0  0  0  0  0  0
   38.2110   26.6440   44.3840 H   0  0  0  0  0  0  0  0  0  0  0  0
   40.3250   25.3760   44.6640 H   0  0  0  0  0  0  0  0  0  0  0  0
   40.4300   25.1990   42.8100 H   0  0  0  0  0  0  0  0  0  0  0  0
   40.6350   27.6790   42.5600 H   0  0  0  0  0  0  0  0  0  0  0  0
   40.5680   27.8440   44.4220 H   0  0  0  0  0  0  0  0  0  0  0  0
  1  6  1  0  0  0  0
  1 26  1  0  0  0  0
  2  1  2  0  0  0  0
  3  4  2  0  0  0  0
  3  2  1  0  0  0  0
  4  5  1  0  0  0  0
  5 11  1  0  0  0  0
  5  6  2  0  0  0  0
  7  2  1  0  0  0  0
  8  3  1  0  0  0  0
  9  4  1  0  0  0  0
 10 20  1  0  0  0  0
 11 10  2  0  0  0  0
 12 14  2  0  0  0  0
 12 11  1  0  0  0  0
 13 12  1  0  0  0  0
 14 19  1  0  0  0  0
 15 16  1  0  0  0  0
 15 14  1  0  0  0  0
 16 18  2  0  0  0  0
 17 16  1  0  0  0  0
 18 19  1  0  0  0  0
 19 20  2  0  0  0  0
 21 15  1  0  0  0  0
 22 23  1  0  0  0  0
 23 24  2  0  0  0  0
 23 29  1  0  0  0  0
 24 30  1  0  0  0  0
 25 24  1  0  0  0  0
 26 25  2  0  0  0  0
 27 26  1  0  0  0  0
 27 22  2  0  0  0  0
 28 22  1  0  0  0  0
 30 31  1  0  0  0  0
 30 33  1  0  0  0  0
 31 34  1  0  0  0  0
 32 30  1  0  0  0  0
 32 31  1  0  0  0  0
 32 37  1  0  0  0  0
 35 31  1  0  0  0  0
 36 32  1  0  0  0  0
M  END
>  <minimizedAffinity>
-6.11234331

$$$$

 OpenBabel03252505203D

 37 41  0  0  0  0  0  0  0  0999 V2000
   37.2610   29.0520   39.9380 C   0  0  0  0  0  0  0  0  0  0  0  0
   36.3470   28.9210   38.9140 C   0  0  0  0  0  0  0  0  0  0  0  0
   36.4590   29.7240   37.7870 C   0  0  0  0  0  0  0  0  0  0  0  0
   37.5100   30.6380   37.7510 C   0  0  0  0  0  0  0  0  0  0  0  0
   38.3950   30.7240   38.8120 C   0  0  0  0  0  0  0  0  0  0  0  0
   38.2800   29.9380   39.9080 N   0  0  0  0  0  0  0  0  0  0  0  0
   35.5400   28.1970   38.9750 H   0  0  0  0  0  0  0  0  0  0  0  0
   35.7690   29.6600   36.9570 H   0  0  0  0  0  0  0  0  0  0  0  0
   37.5910   31.2530   36.8850 H   0  0  0  0  0  0  0  0  0  0  0  0
   39.8450   32.3080   39.9770 C   0  0  0  0  0  3  0  0  0  0  0  0
   39.5000   31.6680   38.8000 C   0  0  0  0  0  0  0  0  0  0  0  0
   40.2510   31.9940   37.7040 C   0  0  0  0  0  0  0  0  0  0  0  0
   40.0280   31.5300   36.7710 H   0  0  0  0  0  0  0  0  0  0  0  0
   41.2890   32.9020   37.7600 C   0  0  0  0  0  0  0  0  0  0  0  0
   42.1490   33.3740   36.8470 N   0  0  0  0  0  0  0  0  0  0  0  0
   42.9850   34.2600   37.4280 C   0  0  0  0  0  0  0  0  0  0  0  0
   43.7530   34.7510   36.8460 H   0  0  0  0  0  0  0  0  0  0  0  0
   42.6470   34.3480   38.7230 N   0  0  0  0  0  0  0  0  0  0  0  0
   41.6070   33.5180   38.9410 C   0  0  0  0  0  0  0  0  0  0  0  0
   40.8820   33.2330   40.0940 C   0  0  0  0  0  3  0  0  0  0  0  0
   42.1210   33.0570   35.8430 H   0  0  0  0  0  0  0  0  0  0  0  0
   36.8750   27.8790   43.4150 C   0  0  0  0  0  0  0  0  0  0  0  0
   36.8540   26.4780   43.2970 C   0  0  0  0  0  0  0  0  0  0  0  0
   36.9710   25.9880   42.0170 C   0  0  0  0  0  0  0  0  0  0  0  0
   37.0990   26.8390   40.9470 N   0  0  0  0  0  0  0  0  0  0  0  0
   37.1140   28.1950   41.1110 C   0  0  0  0  0  0  0  0  0  0  0  0
   37.0020   28.6960   42.3450 N   0  0  0  0  0  0  0  0  0  0  0  0
   36.7870   28.3220   44.3970 H   0  0  0  0  0  0  0  0  0  0  0  0
   36.7530   25.8380   44.1570 H   0  0  0  0  0  0  0  0  0  0  0  0
   36.9900   24.5060   41.7710 C   0  0  0  0  0  0  0  0  0  0  0  0
   36.4170   24.1240   40.4050 C   0  0  0  0  0  0  0  0  0  0  0  0
   37.9150   23.9570   40.8150 C   0  0  0  0  0  0  0  0  0  0  0  0
   36.4340   23.9490   42.5690 H   0  0  0  0  0  0  0  0  0  0  0  0
   35.8530   23.2000   40.2770 H   0  0  0  0  0  0  0  0  0  0  0  0
   36.2690   24.9060   39.6460 H   0  0  0  0  0  0  0  0  0  0  0  0
   38.6510   24.6120   40.3510 H   0  0  0  0  0  0  0  0  0  0  0  0
   38.2330   22.8890   40.9460 H   0  0  0  0  0  0  0  0  0  0  0  0
  1 26  1  0  0  0  0
  2  7  1  0  0  0  0
  2  1  2  0  0  0  0
  3  2  1  0  0  0  0
  4  3  2  0  0  0  0
  4  5  1  0  0  0  0
  5  6  2  0  0  0  0
  6  1  1  0  0  0  0
  8  3  1  0  0  0  0
  9  4  1  0  0  0  0
 10 20  1  0  0  0  0
 11  5  1  0  0  0  0
 11 10  2  0  0  0  0
 12 14  2  0  0  0  0
 12 11  1  0  0  0  0
 13 12  1  0  0  0  0
 14 19  1  0  0  0  0
 15 16  1  0  0  0  0
 15 14  1  0  0  0  0
 16 18  2  0  0  0  0
 17 16  1  0  0  0  0
 18 19  1  0  0  0  0
 19 20  2  0  0  0  0
 21 15  1  0  0  0  0
 22 28  1  0  0  0  0
 23 22  1  0  0  0  0
 23 29  1  0  0  0  0
 24 23  2  0  0  0  0
 25 26  2  0  0  0  0
 25 24  1  0  0  0  0
 26 27  1  0  0  0  0
 27 22  2  0  0  0  0
 30 24  1  0  0  0  0
 30 33  1  0  0  0  0
 31 32  1  0  0  0  0
 31 30  1  0  0  0  0
 32 37  1  0  0  0  0
 32 30  1  0  0  0  0
 34 31  1  0  0  0  0
 35 31  1  0  0  0  0
 36 32  1  0  0  0  0
M  END
>  <minimizedAffinity>
-6.09811211

$$$$

 OpenBabel03252505203D

 37 41  0  0  0  0  0  0  0  0999 V2000
   32.8690   29.0590   37.2090 C   0  0  0  0  0  0  0  0  0  0  0  0
   33.1320   28.4330   36.0090 C   0  0  0  0  0  0  0  0  0  0  0  0
   34.2580   27.6310   35.8850 C   0  0  0  0  0  0  0  0  0  0  0  0
   35.0790   27.4980   37.0030 C   0  0  0  0  0  0  0  0  0  0  0  0
   34.7630   28.1530   38.1810 C   0  0  0  0  0  0  0  0  0  0  0  0
   33.6630   28.9340   38.2950 N   0  0  0  0  0  0  0  0  0  0  0  0
   32.4700   28.5580   35.1570 H   0  0  0  0  0  0  0  0  0  0  0  0
   34.5080   27.1180   34.9670 H   0  0  0  0  0  0  0  0  0  0  0  0
   35.9420   26.8820   36.9030 H   0  0  0  0  0  0  0  0  0  0  0  0
   36.3980   26.9090   39.5030 C   0  0  0  0  0  3  0  0  0  0  0  0
   35.6010   28.0310   39.3620 C   0  0  0  0  0  0  0  0  0  0  0  0
   35.6770   28.9460   40.3770 C   0  0  0  0  0  0  0  0  0  0  0  0
   35.0840   29.8290   40.3190 H   0  0  0  0  0  0  0  0  0  0  0  0
   36.4960   28.7690   41.4740 C   0  0  0  0  0  0  0  0  0  0  0  0
   36.7390   29.5030   42.5680 N   0  0  0  0  0  0  0  0  0  0  0  0
   37.6400   28.8700   43.3470 C   0  0  0  0  0  0  0  0  0  0  0  0
   37.9630   29.3110   44.2800 H   0  0  0  0  0  0  0  0  0  0  0  0
   37.9690   27.7220   42.7360 N   0  0  0  0  0  0  0  0  0  0  0  0
   37.2740   27.6480   41.5830 C   0  0  0  0  0  0  0  0  0  0  0  0
   37.2430   26.6770   40.5870 C   0  0  0  0  0  3  0  0  0  0  0  0
   36.2620   30.4280   42.7330 H   0  0  0  0  0  0  0  0  0  0  0  0
   29.7700   30.6420   38.4320 C   0  0  0  0  0  0  0  0  0  0  0  0
   29.4150   31.5290   37.3990 C   0  0  0  0  0  0  0  0  0  0  0  0
   30.2630   31.5510   36.3170 C   0  0  0  0  0  0  0  0  0  0  0  0
   31.3750   30.7460   36.2790 N   0  0  0  0  0  0  0  0  0  0  0  0
   31.6790   29.8980   37.3060 C   0  0  0  0  0  0  0  0  0  0  0  0
   30.8710   29.8590   38.3700 N   0  0  0  0  0  0  0  0  0  0  0  0
   29.1400   30.5810   39.3080 H   0  0  0  0  0  0  0  0  0  0  0  0
   28.5350   32.1470   37.4610 H   0  0  0  0  0  0  0  0  0  0  0  0
   29.9700   32.4390   35.1420 C   0  0  0  0  0  0  0  0  0  0  0  0
   31.0870   32.4280   34.0960 C   0  0  0  0  0  0  0  0  0  0  0  0
   29.6540   31.8480   33.8680 C   0  0  0  0  0  0  0  0  0  0  0  0
   29.7790   33.4960   35.4620 H   0  0  0  0  0  0  0  0  0  0  0  0
   31.3310   33.3290   33.5340 H   0  0  0  0  0  0  0  0  0  0  0  0
   31.8590   31.6460   34.1430 H   0  0  0  0  0  0  0  0  0  0  0  0
   29.5430   30.7680   33.7960 H   0  0  0  0  0  0  0  0  0  0  0  0
   29.0330   32.4480   33.1510 H   0  0  0  0  0  0  0  0  0  0  0  0
  1 26  1  0  0  0  0
  1  6  1  0  0  0  0
  2  1  2  0  0  0  0
  3  2  1  0  0  0  0
  3  4  2  0  0  0  0
  4  5  1  0  0  0  0
  5  6  2  0  0  0  0
  5 11  1  0  0  0  0
  7  2  1  0  0  0  0
  8  3  1  0  0  0  0
  9  4  1  0  0  0  0
 10 20  1  0  0  0  0
 11 10  2  0  0  0  0
 11 12  1  0  0  0  0
 12 14  2  0  0  0  0
 13 12  1  0  0  0  0
 14 19  1  0  0  0  0
 14 15  1  0  0  0  0
 15 21  1  0  0  0  0
 15 16  1  0  0  0  0
 16 17  1  0  0  0  0
 18 16  2  0  0  0  0
 19 18  1  0  0  0  0
 20 19  2  0  0  0  0
 22 28  1  0  0  0  0
 23 29  1  0  0  0  0
 23 22  2  0  0  0  0
 24 23  1  0  0  0  0
 25 24  2  0  0  0  0
 25 26  1  0  0  0  0
 26 27  2  0  0  0  0
 27 22  1  0  0  0  0
 30 33  1  0  0  0  0
 30 24  1  0  0  0  0
 31 35  1  0  0  0  0
 31 30  1  0  0  0  0
 32 31  1  0  0  0  0
 32 30  1  0  0  0  0
 34 31  1  0  0  0  0
 36 32  1  0  0  0  0
 37 32  1  0  0  0  0
M  END
>  <minimizedAffinity>
-6.09282064

$$$$

 OpenBabel03252505203D

 37 41  0  0  0  0  0  0  0  0999 V2000
   37.0900   27.0300   41.3900 C   0  0  0  0  0  0  0  0  0  0  0  0
   37.0530   26.7040   42.7300 C   0  0  0  0  0  0  0  0  0  0  0  0
   37.3610   27.6680   43.6800 C   0  0  0  0  0  0  0  0  0  0  0  0
   37.6970   28.9400   43.2200 C   0  0  0  0  0  0  0  0  0  0  0  0
   37.7170   29.2070   41.8610 C   0  0  0  0  0  0  0  0  0  0  0  0
   37.4160   28.2620   40.9410 N   0  0  0  0  0  0  0  0  0  0  0  0
   36.7860   25.7020   43.0530 H   0  0  0  0  0  0  0  0  0  0  0  0
   37.3460   27.4630   44.7410 H   0  0  0  0  0  0  0  0  0  0  0  0
   37.9330   29.6760   43.9530 H   0  0  0  0  0  0  0  0  0  0  0  0
   37.1180   31.2340   40.6380 C   0  0  0  0  0  3  0  0  0  0  0  0
   38.0630   30.5240   41.3550 C   0  0  0  0  0  0  0  0  0  0  0  0
   39.2710   31.1450   41.5240 C   0  0  0  0  0  0  0  0  0  0  0  0
   40.0360   30.6420   42.0690 H   0  0  0  0  0  0  0  0  0  0  0  0
   39.5360   32.4000   41.0160 C   0  0  0  0  0  0  0  0  0  0  0  0
   40.6130   33.1980   41.0480 N   0  0  0  0  0  0  0  0  0  0  0  0
   40.3490   34.3430   40.3860 C   0  0  0  0  0  0  0  0  0  0  0  0
   41.1020   35.1140   40.3050 H   0  0  0  0  0  0  0  0  0  0  0  0
   39.0890   34.2670   39.9300 N   0  0  0  0  0  0  0  0  0  0  0  0
   38.5790   33.0780   40.3110 C   0  0  0  0  0  0  0  0  0  0  0  0
   37.3290   32.5030   40.1010 C   0  0  0  0  0  3  0  0  0  0  0  0
   41.5010   32.9100   41.5360 H   0  0  0  0  0  0  0  0  0  0  0  0
   36.7190   23.7630   39.7190 C   0  0  0  0  0  0  0  0  0  0  0  0
   36.1180   24.0810   38.4880 C   0  0  0  0  0  0  0  0  0  0  0  0
   35.8590   25.4150   38.2800 C   0  0  0  0  0  0  0  0  0  0  0  0
   36.1790   26.3500   39.2340 N   0  0  0  0  0  0  0  0  0  0  0  0
   36.7630   25.9940   40.4160 C   0  0  0  0  0  0  0  0  0  0  0  0
   37.0250   24.7020   40.6420 N   0  0  0  0  0  0  0  0  0  0  0  0
   36.9470   22.7290   39.9380 H   0  0  0  0  0  0  0  0  0  0  0  0
   35.8790   23.3220   37.7610 H   0  0  0  0  0  0  0  0  0  0  0  0
   35.2440   25.8770   36.9900 C   0  0  0  0  0  0  0  0  0  0  0  0
   33.7410   25.5980   36.9150 C   0  0  0  0  0  0  0  0  0  0  0  0
   34.3740   27.0240   36.9900 C   0  0  0  0  0  0  0  0  0  0  0  0
   35.7470   25.4110   36.1040 H   0  0  0  0  0  0  0  0  0  0  0  0
   33.2710   25.3350   35.9670 H   0  0  0  0  0  0  0  0  0  0  0  0
   33.1980   25.3260   37.8320 H   0  0  0  0  0  0  0  0  0  0  0  0
   34.2480   27.5950   37.9070 H   0  0  0  0  0  0  0  0  0  0  0  0
   34.2810   27.6110   36.0380 H   0  0  0  0  0  0  0  0  0  0  0  0
  1  2  1  0  0  0  0
  2  7  1  0  0  0  0
  2  3  2  0  0  0  0
  3  8  1  0  0  0  0
  4  3  1  0  0  0  0
  4  9  1  0  0  0  0
  5  4  2  0  0  0  0
  6  1  2  0  0  0  0
  6  5  1  0  0  0  0
 10 11  1  0  0  0  0
 11 12  2  0  0  0  0
 11  5  1  0  0  0  0
 12 13  1  0  0  0  0
 14 15  1  0  0  0  0
 14 12  1  0  0  0  0
 15 21  1  0  0  0  0
 16 15  1  0  0  0  0
 17 16  1  0  0  0  0
 18 19  1  0  0  0  0
 18 16  2  0  0  0  0
 19 14  2  0  0  0  0
 20 19  1  0  0  0  0
 20 10  2  0  0  0  0
 22 28  1  0  0  0  0
 22 27  1  0  0  0  0
 23 22  2  0  0  0  0
 24 23  1  0  0  0  0
 24 25  2  0  0  0  0
 25 26  1  0  0  0  0
 26 27  2  0  0  0  0
 26  1  1  0  0  0  0
 29 23  1  0  0  0  0
 30 32  1  0  0  0  0
 30 24  1  0  0  0  0
 31 30  1  0  0  0  0
 31 32  1  0  0  0  0
 31 35  1  0  0  0  0
 32 36  1  0  0  0  0
 33 30  1  0  0  0  0
 34 31  1  0  0  0  0
 37 32  1  0  0  0  0
M  END
>  <minimizedAffinity>
-6.07634354

$$$$

 OpenBabel03252505203D

 37 41  0  0  0  0  0  0  0  0999 V2000
   41.2190   32.9730   39.5460 C   0  0  0  0  0  0  0  0  0  0  0  0
   40.5110   34.1560   39.5460 C   0  0  0  0  0  0  0  0  0  0  0  0
   39.3100   34.2370   40.2360 C   0  0  0  0  0  0  0  0  0  0  0  0
   38.8740   33.0960   40.9050 C   0  0  0  0  0  0  0  0  0  0  0  0
   39.6290   31.9350   40.8680 C   0  0  0  0  0  0  0  0  0  0  0  0
   40.8000   31.8640   40.1930 N   0  0  0  0  0  0  0  0  0  0  0  0
   40.8810   35.0280   39.0140 H   0  0  0  0  0  0  0  0  0  0  0  0
   38.7180   35.1410   40.2680 H   0  0  0  0  0  0  0  0  0  0  0  0
   37.9510   33.1630   41.4330 H   0  0  0  0  0  0  0  0  0  0  0  0
   40.1480   29.9410   42.1800 C   0  0  0  0  0  3  0  0  0  0  0  0
   39.1980   30.7310   41.5570 C   0  0  0  0  0  0  0  0  0  0  0  0
   37.9060   30.2900   41.6490 C   0  0  0  0  0  0  0  0  0  0  0  0
   37.1340   30.8610   41.1870 H   0  0  0  0  0  0  0  0  0  0  0  0
   37.5630   29.1340   42.3200 C   0  0  0  0  0  0  0  0  0  0  0  0
   36.3980   28.5110   42.5450 N   0  0  0  0  0  0  0  0  0  0  0  0
   36.6140   27.3940   43.2700 C   0  0  0  0  0  0  0  0  0  0  0  0
   35.7880   26.7560   43.5510 H   0  0  0  0  0  0  0  0  0  0  0  0
   37.9320   27.3110   43.5050 N   0  0  0  0  0  0  0  0  0  0  0  0
   38.5270   28.3750   42.9280 C   0  0  0  0  0  0  0  0  0  0  0  0
   39.8620   28.7650   42.8710 C   0  0  0  0  0  3  0  0  0  0  0  0
   35.4870   28.8930   42.1800 H   0  0  0  0  0  0  0  0  0  0  0  0
   44.4700   33.8870   38.0610 C   0  0  0  0  0  0  0  0  0  0  0  0
   44.8580   32.7300   37.3620 C   0  0  0  0  0  0  0  0  0  0  0  0
   43.9820   31.6720   37.4320 C   0  0  0  0  0  0  0  0  0  0  0  0
   42.8140   31.7730   38.1460 N   0  0  0  0  0  0  0  0  0  0  0  0
   42.4780   32.9190   38.8090 C   0  0  0  0  0  0  0  0  0  0  0  0
   43.3130   33.9610   38.7570 N   0  0  0  0  0  0  0  0  0  0  0  0
   45.1190   34.7520   38.0420 H   0  0  0  0  0  0  0  0  0  0  0  0
   45.7830   32.6840   36.8110 H   0  0  0  0  0  0  0  0  0  0  0  0
   44.2780   30.3930   36.7020 C   0  0  0  0  0  0  0  0  0  0  0  0
   43.2350   30.0650   35.6320 C   0  0  0  0  0  0  0  0  0  0  0  0
   44.7210   30.4440   35.3330 C   0  0  0  0  0  0  0  0  0  0  0  0
   44.3630   29.5270   37.4080 H   0  0  0  0  0  0  0  0  0  0  0  0
   42.9570   29.0320   35.4250 H   0  0  0  0  0  0  0  0  0  0  0  0
   42.5270   30.8440   35.3150 H   0  0  0  0  0  0  0  0  0  0  0  0
   44.9230   31.4100   34.8750 H   0  0  0  0  0  0  0  0  0  0  0  0
   45.3380   29.5880   34.9500 H   0  0  0  0  0  0  0  0  0  0  0  0
  1  6  1  0  0  0  0
  2  1  2  0  0  0  0
  2  3  1  0  0  0  0
  3  8  1  0  0  0  0
  3  4  2  0  0  0  0
  4  9  1  0  0  0  0
  5  4  1  0  0  0  0
  5 11  1  0  0  0  0
  6  5  2  0  0  0  0
  7  2  1  0  0  0  0
 10 20  1  0  0  0  0
 11 12  1  0  0  0  0
 11 10  2  0  0  0  0
 12 14  2  0  0  0  0
 13 12  1  0  0  0  0
 14 15  1  0  0  0  0
 14 19  1  0  0  0  0
 15 16  1  0  0  0  0
 16 18  2  0  0  0  0
 16 17  1  0  0  0  0
 19 18  1  0  0  0  0
 20 19  2  0  0  0  0
 21 15  1  0  0  0  0
 22 27  1  0  0  0  0
 23 24  1  0  0  0  0
 23 22  2  0  0  0  0
 24 25  2  0  0  0  0
 25 26  1  0  0  0  0
 26  1  1  0  0  0  0
 27 26  2  0  0  0  0
 28 22  1  0  0  0  0
 29 23  1  0  0  0  0
 30 33  1  0  0  0  0
 30 24  1  0  0  0  0
 31 30  1  0  0  0  0
 32 31  1  0  0  0  0
 32 30  1  0  0  0  0
 34 31  1  0  0  0  0
 35 31  1  0  0  0  0
 36 32  1  0  0  0  0
 37 32  1  0  0  0  0
M  END
>  <minimizedAffinity>
-5.99127483

$$$$

 OpenBabel03252505203D

 37 41  0  0  0  0  0  0  0  0999 V2000
   37.5980   26.4830   41.5010 C   0  0  0  0  0  0  0  0  0  0  0  0
   36.9340   26.1940   42.6750 C   0  0  0  0  0  0  0  0  0  0  0  0
   36.6090   27.2210   43.5500 C   0  0  0  0  0  0  0  0  0  0  0  0
   36.9770   28.5150   43.1880 C   0  0  0  0  0  0  0  0  0  0  0  0
   37.6430   28.7420   41.9950 C   0  0  0  0  0  0  0  0  0  0  0  0
   37.9570   27.7360   41.1470 N   0  0  0  0  0  0  0  0  0  0  0  0
   36.6620   25.1730   42.9260 H   0  0  0  0  0  0  0  0  0  0  0  0
   36.0900   27.0470   44.4820 H   0  0  0  0  0  0  0  0  0  0  0  0
   36.7260   29.3000   43.8630 H   0  0  0  0  0  0  0  0  0  0  0  0
   39.3240   30.5100   41.8680 C   0  0  0  0  0  3  0  0  0  0  0  0
   38.0380   30.0820   41.5940 C   0  0  0  0  0  0  0  0  0  0  0  0
   37.2350   30.9850   40.9530 C   0  0  0  0  0  0  0  0  0  0  0  0
   36.2330   30.7070   40.7170 H   0  0  0  0  0  0  0  0  0  0  0  0
   37.6720   32.2450   40.5980 C   0  0  0  0  0  0  0  0  0  0  0  0
   37.0900   33.2820   39.9800 N   0  0  0  0  0  0  0  0  0  0  0  0
   37.9690   34.2990   39.8750 C   0  0  0  0  0  0  0  0  0  0  0  0
   37.6790   35.2270   39.4020 H   0  0  0  0  0  0  0  0  0  0  0  0
   39.1210   33.9000   40.4350 N   0  0  0  0  0  0  0  0  0  0  0  0
   38.9520   32.6390   40.8830 C   0  0  0  0  0  0  0  0  0  0  0  0
   39.8210   31.7690   41.5340 C   0  0  0  0  0  3  0  0  0  0  0  0
   36.0900   33.2400   39.6500 H   0  0  0  0  0  0  0  0  0  0  0  0
   39.4590   24.1220   39.3630 C   0  0  0  0  0  0  0  0  0  0  0  0
   38.4650   23.2570   38.8720 C   0  0  0  0  0  0  0  0  0  0  0  0
   37.1850   23.5190   39.3010 C   0  0  0  0  0  0  0  0  0  0  0  0
   36.9290   24.5650   40.1530 N   0  0  0  0  0  0  0  0  0  0  0  0
   37.9280   25.3800   40.6030 C   0  0  0  0  0  0  0  0  0  0  0  0
   39.1820   25.1460   40.2010 N   0  0  0  0  0  0  0  0  0  0  0  0
   40.4850   23.9650   39.0600 H   0  0  0  0  0  0  0  0  0  0  0  0
   38.7000   22.4450   38.2040 H   0  0  0  0  0  0  0  0  0  0  0  0
   36.0370   22.6780   38.8200 C   0  0  0  0  0  0  0  0  0  0  0  0
   34.7120   23.0390   39.4960 C   0  0  0  0  0  0  0  0  0  0  0  0
   35.0260   23.2700   37.9830 C   0  0  0  0  0  0  0  0  0  0  0  0
   36.2370   21.5860   38.9670 H   0  0  0  0  0  0  0  0  0  0  0  0
   33.9730   22.2690   39.7160 H   0  0  0  0  0  0  0  0  0  0  0  0
   34.6360   23.9790   40.0620 H   0  0  0  0  0  0  0  0  0  0  0  0
   35.1560   24.2930   37.6350 H   0  0  0  0  0  0  0  0  0  0  0  0
   34.4540   22.5940   37.2940 H   0  0  0  0  0  0  0  0  0  0  0  0
  1  2  1  0  0  0  0
  2  7  1  0  0  0  0
  2  3  2  0  0  0  0
  3  8  1  0  0  0  0
  4  3  1  0  0  0  0
  4  9  1  0  0  0  0
  5  4  2  0  0  0  0
  6  1  2  0  0  0  0
  6  5  1  0  0  0  0
 11 10  1  0  0  0  0
 11  5  1  0  0  0  0
 12 11  2  0  0  0  0
 13 12  1  0  0  0  0
 14 19  2  0  0  0  0
 14 12  1  0  0  0  0
 15 14  1  0  0  0  0
 16 15  1  0  0  0  0
 16 18  2  0  0  0  0
 17 16  1  0  0  0  0
 18 19  1  0  0  0  0
 19 20  1  0  0  0  0
 20 10  2  0  0  0  0
 21 15  1  0  0  0  0
 22 27  1  0  0  0  0
 23 24  1  0  0  0  0
 23 22  2  0  0  0  0
 24 25  2  0  0  0  0
 25 26  1  0  0  0  0
 26  1  1  0  0  0  0
 27 26  2  0  0  0  0
 28 22  1  0  0  0  0
 29 23  1  0  0  0  0
 30 33  1  0  0  0  0
 30 24  1  0  0  0  0
 30 31  1  0  0  0  0
 31 34  1  0  0  0  0
 31 35  1  0  0  0  0
 32 30  1  0  0  0  0
 32 31  1  0  0  0  0
 36 32  1  0  0  0  0
 37 32  1  0  0  0  0
M  END
>  <minimizedAffinity>
-5.98621035

$$$$

 OpenBabel03252505203D

 37 41  0  0  0  0  0  0  0  0999 V2000
   37.8990   30.6450   40.8500 C   0  0  0  0  0  0  0  0  0  0  0  0
   36.8170   31.3460   40.3620 C   0  0  0  0  0  0  0  0  0  0  0  0
   37.0250   32.4950   39.6120 C   0  0  0  0  0  0  0  0  0  0  0  0
   38.3420   32.8860   39.3860 C   0  0  0  0  0  0  0  0  0  0  0  0
   39.3890   32.1410   39.9030 C   0  0  0  0  0  0  0  0  0  0  0  0
   39.1790   31.0210   40.6340 N   0  0  0  0  0  0  0  0  0  0  0  0
   35.8020   31.0120   40.5570 H   0  0  0  0  0  0  0  0  0  0  0  0
   36.2100   33.0790   39.2070 H   0  0  0  0  0  0  0  0  0  0  0  0
   38.4970   33.7690   38.8100 H   0  0  0  0  0  0  0  0  0  0  0  0
   41.6010   32.6970   40.7780 C   0  0  0  0  0  3  0  0  0  0  0  0
   40.7720   32.5260   39.6830 C   0  0  0  0  0  0  0  0  0  0  0  0
   41.3490   32.7440   38.4610 C   0  0  0  0  0  0  0  0  0  0  0  0
   40.7550   32.6260   37.5840 H   0  0  0  0  0  0  0  0  0  0  0  0
   42.6720   33.1090   38.3210 C   0  0  0  0  0  0  0  0  0  0  0  0
   43.4470   33.3720   37.2590 N   0  0  0  0  0  0  0  0  0  0  0  0
   44.6910   33.6880   37.6740 C   0  0  0  0  0  0  0  0  0  0  0  0
   45.4610   33.9330   36.9550 H   0  0  0  0  0  0  0  0  0  0  0  0
   44.7010   33.6250   39.0140 N   0  0  0  0  0  0  0  0  0  0  0  0
   43.4670   33.2690   39.4240 C   0  0  0  0  0  0  0  0  0  0  0  0
   42.9430   33.0650   40.6970 C   0  0  0  0  0  3  0  0  0  0  0  0
   43.0750   33.3200   36.2750 H   0  0  0  0  0  0  0  0  0  0  0  0
   37.4660   28.3180   43.6800 C   0  0  0  0  0  0  0  0  0  0  0  0
   37.1680   27.0900   43.0630 C   0  0  0  0  0  0  0  0  0  0  0  0
   37.1250   27.1100   41.6890 C   0  0  0  0  0  0  0  0  0  0  0  0
   37.3620   28.2720   40.9950 N   0  0  0  0  0  0  0  0  0  0  0  0
   37.6480   29.4420   41.6380 C   0  0  0  0  0  0  0  0  0  0  0  0
   37.6950   29.4490   42.9740 N   0  0  0  0  0  0  0  0  0  0  0  0
   37.5140   28.3630   44.7590 H   0  0  0  0  0  0  0  0  0  0  0  0
   36.9870   26.1960   43.6370 H   0  0  0  0  0  0  0  0  0  0  0  0
   36.8430   25.8510   40.9190 C   0  0  0  0  0  0  0  0  0  0  0  0
   38.0970   25.0060   40.6840 C   0  0  0  0  0  0  0  0  0  0  0  0
   36.9000   24.5810   41.5940 C   0  0  0  0  0  0  0  0  0  0  0  0
   36.3590   26.0710   39.9330 H   0  0  0  0  0  0  0  0  0  0  0  0
   38.2190   24.4380   39.7620 H   0  0  0  0  0  0  0  0  0  0  0  0
   39.0090   25.2260   41.2570 H   0  0  0  0  0  0  0  0  0  0  0  0
   37.0560   24.5570   42.6700 H   0  0  0  0  0  0  0  0  0  0  0  0
   36.2910   23.7370   41.1740 H   0  0  0  0  0  0  0  0  0  0  0  0
  1 26  1  0  0  0  0
  2  7  1  0  0  0  0
  2  1  2  0  0  0  0
  3  2  1  0  0  0  0
  4  3  2  0  0  0  0
  4  5  1  0  0  0  0
  5  6  2  0  0  0  0
  6  1  1  0  0  0  0
  8  3  1  0  0  0  0
  9  4  1  0  0  0  0
 11  5  1  0  0  0  0
 11 10  2  0  0  0  0
 12 11  1  0  0  0  0
 13 12  1  0  0  0  0
 14 12  2  0  0  0  0
 14 19  1  0  0  0  0
 15 16  1  0  0  0  0
 15 14  1  0  0  0  0
 16 18  2  0  0  0  0
 17 16  1  0  0  0  0
 18 19  1  0  0  0  0
 19 20  2  0  0  0  0
 20 10  1  0  0  0  0
 21 15  1  0  0  0  0
 22 28  1  0  0  0  0
 23 29  1  0  0  0  0
 23 22  1  0  0  0  0
 24 23  2  0  0  0  0
 25 26  2  0  0  0  0
 25 24  1  0  0  0  0
 26 27  1  0  0  0  0
 27 22  2  0  0  0  0
 30 32  1  0  0  0  0
 30 24  1  0  0  0  0
 31 30  1  0  0  0  0
 31 35  1  0  0  0  0
 31 32  1  0  0  0  0
 32 36  1  0  0  0  0
 33 30  1  0  0  0  0
 34 31  1  0  0  0  0
 37 32  1  0  0  0  0
M  END
>  <minimizedAffinity>
-5.91458607

$$$$

 OpenBabel03252505203D

 37 41  0  0  0  0  0  0  0  0999 V2000
   37.2740   26.8880   41.3690 C   0  0  0  0  0  0  0  0  0  0  0  0
   37.0410   26.5870   42.6950 C   0  0  0  0  0  0  0  0  0  0  0  0
   37.1020   27.5940   43.6470 C   0  0  0  0  0  0  0  0  0  0  0  0
   37.4000   28.8810   43.2050 C   0  0  0  0  0  0  0  0  0  0  0  0
   37.6250   29.1210   41.8590 C   0  0  0  0  0  0  0  0  0  0  0  0
   37.5640   28.1340   40.9360 N   0  0  0  0  0  0  0  0  0  0  0  0
   36.8110   25.5720   43.0050 H   0  0  0  0  0  0  0  0  0  0  0  0
   36.9280   27.4110   44.6980 H   0  0  0  0  0  0  0  0  0  0  0  0
   37.4460   29.6510   43.9400 H   0  0  0  0  0  0  0  0  0  0  0  0
   36.9770   31.1440   40.6540 C   0  0  0  0  0  3  0  0  0  0  0  0
   37.9370   30.4530   41.3710 C   0  0  0  0  0  0  0  0  0  0  0  0
   39.1250   31.1060   41.5570 C   0  0  0  0  0  0  0  0  0  0  0  0
   39.9000   30.6190   42.1020 H   0  0  0  0  0  0  0  0  0  0  0  0
   39.3590   32.3740   41.0650 C   0  0  0  0  0  0  0  0  0  0  0  0
   40.4120   33.2020   41.1150 N   0  0  0  0  0  0  0  0  0  0  0  0
   40.1200   34.3470   40.4640 C   0  0  0  0  0  0  0  0  0  0  0  0
   40.8510   35.1400   40.3970 H   0  0  0  0  0  0  0  0  0  0  0  0
   38.8670   34.2400   39.9970 N   0  0  0  0  0  0  0  0  0  0  0  0
   38.3870   33.0330   40.3600 C   0  0  0  0  0  0  0  0  0  0  0  0
   37.1560   32.4260   40.1340 C   0  0  0  0  0  3  0  0  0  0  0  0
   41.3040   32.9340   41.6070 H   0  0  0  0  0  0  0  0  0  0  0  0
   36.6200   23.6310   39.7630 C   0  0  0  0  0  0  0  0  0  0  0  0
   37.1310   23.7890   38.4620 C   0  0  0  0  0  0  0  0  0  0  0  0
   37.6810   25.0190   38.1850 C   0  0  0  0  0  0  0  0  0  0  0  0
   37.7130   26.0060   39.1390 N   0  0  0  0  0  0  0  0  0  0  0  0
   37.2050   25.8060   40.3910 C   0  0  0  0  0  0  0  0  0  0  0  0
   36.6640   24.6190   40.6850 N   0  0  0  0  0  0  0  0  0  0  0  0
   36.1750   22.6850   40.0390 H   0  0  0  0  0  0  0  0  0  0  0  0
   37.0890   22.9940   37.7360 H   0  0  0  0  0  0  0  0  0  0  0  0
   38.2820   25.2940   36.8360 C   0  0  0  0  0  0  0  0  0  0  0  0
   37.7250   26.5610   36.1840 C   0  0  0  0  0  0  0  0  0  0  0  0
   39.1970   26.3940   36.6790 C   0  0  0  0  0  0  0  0  0  0  0  0
   38.1400   24.4290   36.1380 H   0  0  0  0  0  0  0  0  0  0  0  0
   37.5890   26.6160   35.1040 H   0  0  0  0  0  0  0  0  0  0  0  0
   37.1490   27.2710   36.7950 H   0  0  0  0  0  0  0  0  0  0  0  0
   39.5100   26.9550   37.5580 H   0  0  0  0  0  0  0  0  0  0  0  0
   39.9500   26.3360   35.8490 H   0  0  0  0  0  0  0  0  0  0  0  0
  1  2  1  0  0  0  0
  2  7  1  0  0  0  0
  2  3  2  0  0  0  0
  3  8  1  0  0  0  0
  4  3  1  0  0  0  0
  4  9  1  0  0  0  0
  5  4  2  0  0  0  0
  6  1  2  0  0  0  0
  6  5  1  0  0  0  0
 10 11  1  0  0  0  0
 11 12  2  0  0  0  0
 11  5  1  0  0  0  0
 12 13  1  0  0  0  0
 14 15  1  0  0  0  0
 14 12  1  0  0  0  0
 15 21  1  0  0  0  0
 16 15  1  0  0  0  0
 17 16  1  0  0  0  0
 18 19  1  0  0  0  0
 18 16  2  0  0  0  0
 19 14  2  0  0  0  0
 20 19  1  0  0  0  0
 20 10  2  0  0  0  0
 22 28  1  0  0  0  0
 22 27  1  0  0  0  0
 23 22  2  0  0  0  0
 24 23  1  0  0  0  0
 24 25  2  0  0  0  0
 25 26  1  0  0  0  0
 26 27  2  0  0  0  0
 26  1  1  0  0  0  0
 29 23  1  0  0  0  0
 30 24  1  0  0  0  0
 31 32  1  0  0  0  0
 31 35  1  0  0  0  0
 31 30  1  0  0  0  0
 32 30  1  0  0  0  0
 32 36  1  0  0  0  0
 33 30  1  0  0  0  0
 34 31  1  0  0  0  0
 37 32  1  0  0  0  0
M  END
>  <minimizedAffinity>
-5.90483189

$$$$
