
     RDKit          3D

 33 36  0  0  0  0  0  0  0  0999 V2000
   44.5506   35.8687   44.5856 C   0  0  0  0  0  0  0  0  0  0  0  0
   45.2017   35.8361   43.3392 C   0  0  0  0  0  0  0  0  0  0  0  0
   46.1510   34.8131   43.1421 C   0  0  0  0  0  0  0  0  0  0  0  0
   46.3797   33.9309   44.1502 N   0  0  0  0  0  0  0  0  0  0  0  0
   45.7331   34.0009   45.3252 C   0  0  0  0  0  0  0  0  0  0  0  0
   44.8294   34.9643   45.5306 N   0  0  0  0  0  0  0  0  0  0  0  0
   44.3000   33.9453   47.6671 F   0  0  0  0  0  0  0  0  0  0  0  0
   45.2837   33.0278   47.5274 C   0  0  0  0  0  0  0  0  0  0  0  0
   46.0199   33.0276   46.3685 C   0  0  0  0  0  0  0  0  0  0  0  0
   47.0081   32.0989   46.2393 C   0  0  0  0  0  0  0  0  0  0  0  0
   47.2651   31.1865   47.2358 C   0  0  0  0  0  0  0  0  0  0  0  0
   46.5328   31.1744   48.4073 C   0  0  0  0  0  0  0  0  0  0  0  0
   45.5159   32.1334   48.5355 C   0  0  0  0  0  0  0  0  0  0  0  0
   43.8328   36.6634   44.6996 H   0  0  0  0  0  0  0  0  0  0  0  0
   45.0515   36.5131   42.5152 H   0  0  0  0  0  0  0  0  0  0  0  0
   46.7323   34.6566   42.2408 H   0  0  0  0  0  0  0  0  0  0  0  0
   47.6275   32.0486   45.3411 H   0  0  0  0  0  0  0  0  0  0  0  0
   48.0600   30.4400   47.1309 H   0  0  0  0  0  0  0  0  0  0  0  0
   46.7575   30.4512   49.1643 H   0  0  0  0  0  0  0  0  0  0  0  0
   43.4895   31.5920   49.9141 C   0  0  0  0  0  0  0  0  0  0  0  0
   44.7771   32.0871   49.7698 C   0  0  0  0  0  0  0  0  0  0  0  0
   45.3744   32.5711   50.9352 C   0  0  0  0  0  0  0  0  0  0  0  0
   46.3935   32.9831   50.9187 H   0  0  0  0  0  0  0  0  0  0  0  0
   44.7768   32.5840   52.1774 C   0  0  0  0  0  0  0  0  0  0  0  0
   45.1628   32.9917   53.3898 N   0  0  0  0  0  0  0  0  0  0  0  0
   44.1424   32.7547   54.2564 C   0  0  0  0  0  0  0  0  0  0  0  0
   44.2509   33.0147   55.3018 H   0  0  0  0  0  0  0  0  0  0  0  0
   43.1302   32.1997   53.5671 N   0  0  0  0  0  0  0  0  0  0  0  0
   43.4856   32.0742   52.2572 C   0  0  0  0  0  0  0  0  0  0  0  0
   42.8271   31.5746   51.1376 C   0  0  0  0  0  0  0  0  0  0  0  0
   42.9960   31.2047   49.0128 H   0  0  0  0  0  0  0  0  0  0  0  0
   46.1047   33.4234   53.6213 H   0  0  0  0  0  0  0  0  0  0  0  0
   41.8263   31.1871   51.2363 H   0  0  0  0  0  0  0  0  0  0  0  0
  1  6  2  0
  2  1  1  0
  3  2  2  0
  3  4  1  0
  4  5  2  0
  5  6  1  0
  5  9  1  0
  8  7  1  0
  8 13  2  0
  9  8  1  0
 10  9  2  0
 10 11  1  0
 11 12  2  0
 12 13  1  0
  1 14  1  0
  2 15  1  0
  3 16  1  0
 10 17  1  0
 11 18  1  0
 12 19  1  0
 20 21  2  0
 21 22  1  0
 22 23  1  0
 22 24  2  0
 24 25  1  0
 25 26  1  0
 26 27  1  0
 26 28  2  0
 28 29  1  0
 29 30  2  0
 30 20  1  0
 29 24  1  0
 20 31  1  0
 25 32  1  0
 30 33  1  0
 13 21  1  0
M  ISO  8  14  14  15  14  16  14  17  14  18  14  19  14  23  15  27  14
M  END
>  <DihAtoms>  (1) 
7,12,20,19

>  <DihDeg>  (1) 
-45.000048801567985

$$$$
