
 OpenBabel03242521373D

 47 53  0  0  0  0  0  0  0  0999 V2000
   40.9480   33.2990   39.6620 C   0  0  0  0  0  0  0  0  0  0  0  0
   40.7710   32.4340   38.6080 C   0  0  0  0  0  0  0  0  0  0  0  0
   41.7890   32.2320   37.6950 C   0  0  0  0  0  0  0  0  0  0  0  0
   42.9810   32.9060   37.8550 C   0  0  0  0  0  0  0  0  0  0  0  0
   44.0610   32.8200   37.0620 N   0  0  0  0  0  0  0  0  0  0  0  0
   44.9760   33.6590   37.6200 C   0  0  0  0  0  0  0  0  0  0  0  0
   44.4510   34.2410   38.7340 N   0  0  0  0  0  0  0  0  0  0  0  0
   43.1930   33.7820   38.9040 C   0  0  0  0  0  0  0  0  0  0  0  0
   42.1490   33.9560   39.7930 C   0  0  0  0  0  0  0  0  0  0  0  0
   40.1910   33.4920   40.3970 H   0  0  0  0  0  0  0  0  0  0  0  0
   41.6190   31.5450   36.8760 H   0  0  0  0  0  0  0  0  0  0  0  0
   44.2270   32.2680   36.2140 H   0  0  0  0  0  0  0  0  0  0  0  0
   45.9770   33.8400   37.2340 H   0  0  0  0  0  0  0  0  0  0  0  0
   41.6850   36.0650   41.1490 C   0  0  0  0  0  3  0  0  0  0  0  0
   42.3740   34.8830   40.9020 C   0  0  0  0  0  0  0  0  0  0  0  0
   43.3910   34.5200   41.7900 C   0  0  0  0  0  0  0  0  0  0  0  0
   43.9620   33.5960   41.6360 H   0  0  0  0  0  0  0  0  0  0  0  0
   43.7350   35.2830   42.8930 C   0  0  0  0  0  0  0  0  0  0  0  0
   44.6730   35.0940   43.8430 N   0  0  0  0  0  0  0  0  0  0  0  0
   44.5500   36.1690   44.6710 C   0  0  0  0  0  0  0  0  0  0  0  0
   45.1680   36.3380   45.5630 H   0  0  0  0  0  0  0  0  0  0  0  0
   43.5600   36.9990   44.2380 N   0  0  0  0  0  0  0  0  0  0  0  0
   43.0280   36.4530   43.1070 C   0  0  0  0  0  0  0  0  0  0  0  0
   42.0140   36.8370   42.2430 C   0  0  0  0  0  3  0  0  0  0  0  0
   45.3580   34.3190   43.9620 H   0  0  0  0  0  0  0  0  0  0  0  0
   37.6200   31.2470   37.1480 C   0  0  0  0  0  0  0  0  0  0  0  0
   37.1540   30.3990   38.1680 C   0  0  0  0  0  0  0  0  0  0  0  0
   37.8900   30.2330   39.3230 C   0  0  0  0  0  0  0  0  0  0  0  0
   39.0620   30.9040   39.4440 N   0  0  0  0  0  0  0  0  0  0  0  0
   39.5110   31.7290   38.4470 C   0  0  0  0  0  0  0  0  0  0  0  0
   38.7770   31.8830   37.3180 N   0  0  0  0  0  0  0  0  0  0  0  0
   37.0300   31.3600   36.2600 H   0  0  0  0  0  0  0  0  0  0  0  0
   36.2400   29.8510   38.1180 H   0  0  0  0  0  0  0  0  0  0  0  0
   37.0410   28.1240   40.1350 C   0  0  0  0  0  0  0  0  0  0  0  0
   37.4950   29.3810   40.4310 C   0  0  0  0  0  0  0  0  0  0  0  0
   37.5530   29.7680   41.7560 C   0  0  0  0  0  0  0  0  0  0  0  0
   37.1720   28.9410   42.7960 C   0  0  0  0  0  0  0  0  0  0  0  0
   37.1400   29.0920   44.1300 N   0  0  0  0  0  0  0  0  0  0  0  0
   36.6700   27.9440   44.6830 C   0  0  0  0  0  0  0  0  0  0  0  0
   36.4110   27.0790   43.6570 N   0  0  0  0  0  0  0  0  0  0  0  0
   36.7120   27.6710   42.5000 C   0  0  0  0  0  0  0  0  0  0  0  0
   36.6490   27.2720   41.1780 C   0  0  0  0  0  0  0  0  0  0  0  0
   36.9650   27.7470   39.1290 H   0  0  0  0  0  0  0  0  0  0  0  0
   37.9170   30.7680   41.9730 H   0  0  0  0  0  0  0  0  0  0  0  0
   37.4380   29.9680   44.6190 H   0  0  0  0  0  0  0  0  0  0  0  0
   36.5710   27.8710   45.7620 H   0  0  0  0  0  0  0  0  0  0  0  0
   36.2890   26.2810   40.9660 H   0  0  0  0  0  0  0  0  0  0  0  0
  1  9  1  0  0  0  0
  1 10  1  0  0  0  0
  2  1  2  0  0  0  0
  3  4  2  0  0  0  0
  3  2  1  0  0  0  0
  4  8  1  0  0  0  0
  5  6  1  0  0  0  0
  5  4  1  0  0  0  0
  6  7  2  0  0  0  0
  7  8  1  0  0  0  0
  8  9  2  0  0  0  0
  9 15  1  0  0  0  0
 11  3  1  0  0  0  0
 12  5  1  0  0  0  0
 13  6  1  0  0  0  0
 14 24  1  0  0  0  0
 15 14  2  0  0  0  0
 15 16  1  0  0  0  0
 16 18  2  0  0  0  0
 17 16  1  0  0  0  0
 18 23  1  0  0  0  0
 18 19  1  0  0  0  0
 19 25  1  0  0  0  0
 19 20  1  0  0  0  0
 20 21  1  0  0  0  0
 22 20  2  0  0  0  0
 23 22  1  0  0  0  0
 24 23  2  0  0  0  0
 26 31  2  0  0  0  0
 26 27  1  0  0  0  0
 27 28  2  0  0  0  0
 28 29  1  0  0  0  0
 28 35  1  0  0  0  0
 30  2  1  0  0  0  0
 30 29  2  0  0  0  0
 31 30  1  0  0  0  0
 32 26  1  0  0  0  0
 33 27  1  0  0  0  0
 34 35  2  0  0  0  0
 34 42  1  0  0  0  0
 35 36  1  0  0  0  0
 36 44  1  0  0  0  0
 36 37  2  0  0  0  0
 37 38  1  0  0  0  0
 38 45  1  0  0  0  0
 38 39  1  0  0  0  0
 39 46  1  0  0  0  0
 40 39  2  0  0  0  0
 41 37  1  0  0  0  0
 41 40  1  0  0  0  0
 42 41  2  0  0  0  0
 43 34  1  0  0  0  0
 47 42  1  0  0  0  0
M  END
>  <minimizedAffinity>
-9.03122044

$$$$

 OpenBabel03242521373D

 47 53  0  0  0  0  0  0  0  0999 V2000
   41.0300   31.0910   39.6720 C   0  0  0  0  0  0  0  0  0  0  0  0
   41.3700   32.0440   38.7400 C   0  0  0  0  0  0  0  0  0  0  0  0
   40.4920   32.3670   37.7220 C   0  0  0  0  0  0  0  0  0  0  0  0
   39.2740   31.7240   37.6540 C   0  0  0  0  0  0  0  0  0  0  0  0
   38.3160   31.9230   36.7350 N   0  0  0  0  0  0  0  0  0  0  0  0
   37.3150   31.0690   37.0790 C   0  0  0  0  0  0  0  0  0  0  0  0
   37.6680   30.3670   38.1920 N   0  0  0  0  0  0  0  0  0  0  0  0
   38.9000   30.7630   38.5740 C   0  0  0  0  0  0  0  0  0  0  0  0
   39.8070   30.4690   39.5750 C   0  0  0  0  0  0  0  0  0  0  0  0
   41.6730   30.8040   40.4790 H   0  0  0  0  0  0  0  0  0  0  0  0
   40.7890   33.1220   37.0040 H   0  0  0  0  0  0  0  0  0  0  0  0
   38.2810   32.5580   35.9290 H   0  0  0  0  0  0  0  0  0  0  0  0
   36.3720   30.9610   36.5460 H   0  0  0  0  0  0  0  0  0  0  0  0
   39.8470   28.1320   40.5940 C   0  0  0  0  0  3  0  0  0  0  0  0
   39.4100   29.4510   40.5470 C   0  0  0  0  0  0  0  0  0  0  0  0
   38.4990   29.8740   41.5200 C   0  0  0  0  0  0  0  0  0  0  0  0
   38.1260   30.9060   41.5230 H   0  0  0  0  0  0  0  0  0  0  0  0
   38.0190   29.0390   42.5150 C   0  0  0  0  0  0  0  0  0  0  0  0
   37.1490   29.2690   43.5190 N   0  0  0  0  0  0  0  0  0  0  0  0
   37.0600   28.0800   44.1790 C   0  0  0  0  0  0  0  0  0  0  0  0
   36.4300   27.9070   45.0620 H   0  0  0  0  0  0  0  0  0  0  0  0
   37.8550   27.1430   43.5910 N   0  0  0  0  0  0  0  0  0  0  0  0
   38.4750   27.7340   42.5290 C   0  0  0  0  0  0  0  0  0  0  0  0
   39.3790   27.2880   41.5780 C   0  0  0  0  0  3  0  0  0  0  0  0
   36.6370   30.1390   43.7770 H   0  0  0  0  0  0  0  0  0  0  0  0
   44.7480   33.1890   37.8740 C   0  0  0  0  0  0  0  0  0  0  0  0
   45.0580   33.9810   38.9930 C   0  0  0  0  0  0  0  0  0  0  0  0
   44.1450   34.1240   40.0170 C   0  0  0  0  0  0  0  0  0  0  0  0
   42.9540   33.4850   39.9140 N   0  0  0  0  0  0  0  0  0  0  0  0
   42.6560   32.7150   38.8200 C   0  0  0  0  0  0  0  0  0  0  0  0
   43.5630   32.5840   37.8220 N   0  0  0  0  0  0  0  0  0  0  0  0
   45.4730   33.0930   37.0900 H   0  0  0  0  0  0  0  0  0  0  0  0
   45.9810   34.5020   39.1190 H   0  0  0  0  0  0  0  0  0  0  0  0
   45.6440   35.3640   41.4460 C   0  0  0  0  0  0  0  0  0  0  0  0
   44.3720   34.9180   41.2110 C   0  0  0  0  0  0  0  0  0  0  0  0
   43.3790   35.2450   42.1160 C   0  0  0  0  0  0  0  0  0  0  0  0
   43.6170   36.0030   43.2480 C   0  0  0  0  0  0  0  0  0  0  0  0
   42.8330   36.4380   44.2480 N   0  0  0  0  0  0  0  0  0  0  0  0
   43.5950   37.1540   45.1140 C   0  0  0  0  0  0  0  0  0  0  0  0
   44.8720   37.1510   44.6250 N   0  0  0  0  0  0  0  0  0  0  0  0
   44.9020   36.4540   43.4870 C   0  0  0  0  0  0  0  0  0  0  0  0
   45.9030   36.1340   42.5900 C   0  0  0  0  0  0  0  0  0  0  0  0
   46.4720   35.1520   40.7900 H   0  0  0  0  0  0  0  0  0  0  0  0
   42.3750   34.8840   41.9140 H   0  0  0  0  0  0  0  0  0  0  0  0
   41.8080   36.2330   44.3090 H   0  0  0  0  0  0  0  0  0  0  0  0
   43.1360   37.5920   45.9950 H   0  0  0  0  0  0  0  0  0  0  0  0
   46.8960   36.4920   42.7920 H   0  0  0  0  0  0  0  0  0  0  0  0
  1 10  1  0  0  0  0
  2 30  1  0  0  0  0
  2  1  2  0  0  0  0
  3  2  1  0  0  0  0
  4  3  2  0  0  0  0
  4  8  1  0  0  0  0
  5  6  1  0  0  0  0
  5  4  1  0  0  0  0
  6  7  2  0  0  0  0
  7  8  1  0  0  0  0
  8  9  2  0  0  0  0
  9  1  1  0  0  0  0
  9 15  1  0  0  0  0
 11  3  1  0  0  0  0
 12  5  1  0  0  0  0
 13  6  1  0  0  0  0
 14 24  1  0  0  0  0
 15 14  2  0  0  0  0
 15 16  1  0  0  0  0
 16 17  1  0  0  0  0
 16 18  2  0  0  0  0
 18 23  1  0  0  0  0
 18 19  1  0  0  0  0
 19 25  1  0  0  0  0
 19 20  1  0  0  0  0
 20 21  1  0  0  0  0
 22 20  2  0  0  0  0
 23 22  1  0  0  0  0
 24 23  2  0  0  0  0
 26 27  1  0  0  0  0
 27 33  1  0  0  0  0
 27 28  2  0  0  0  0
 28 35  1  0  0  0  0
 29 28  1  0  0  0  0
 30 29  2  0  0  0  0
 31 26  2  0  0  0  0
 31 30  1  0  0  0  0
 32 26  1  0  0  0  0
 34 42  1  0  0  0  0
 35 34  2  0  0  0  0
 35 36  1  0  0  0  0
 36 37  2  0  0  0  0
 37 41  1  0  0  0  0
 37 38  1  0  0  0  0
 38 45  1  0  0  0  0
 38 39  1  0  0  0  0
 39 46  1  0  0  0  0
 40 39  2  0  0  0  0
 41 40  1  0  0  0  0
 42 47  1  0  0  0  0
 42 41  2  0  0  0  0
 43 34  1  0  0  0  0
 44 36  1  0  0  0  0
M  END
>  <minimizedAffinity>
-8.61804485

$$$$

 OpenBabel03242521373D

 47 53  0  0  0  0  0  0  0  0999 V2000
   37.5450   31.5020   39.0550 C   0  0  0  0  0  0  0  0  0  0  0  0
   38.1750   32.0200   40.1620 C   0  0  0  0  0  0  0  0  0  0  0  0
   38.0890   31.3700   41.3790 C   0  0  0  0  0  0  0  0  0  0  0  0
   37.3670   30.1980   41.4680 C   0  0  0  0  0  0  0  0  0  0  0  0
   37.1880   29.4510   42.5680 N   0  0  0  0  0  0  0  0  0  0  0  0
   36.4150   28.4070   42.1640 C   0  0  0  0  0  0  0  0  0  0  0  0
   36.1330   28.5280   40.8360 N   0  0  0  0  0  0  0  0  0  0  0  0
   36.7230   29.6500   40.3750 C   0  0  0  0  0  0  0  0  0  0  0  0
   36.8330   30.3320   39.1770 C   0  0  0  0  0  0  0  0  0  0  0  0
   37.5800   31.9660   38.0890 H   0  0  0  0  0  0  0  0  0  0  0  0
   38.5950   31.8030   42.2330 H   0  0  0  0  0  0  0  0  0  0  0  0
   37.5290   29.5780   43.5270 H   0  0  0  0  0  0  0  0  0  0  0  0
   36.0710   27.5970   42.8030 H   0  0  0  0  0  0  0  0  0  0  0  0
   34.8430   29.2820   37.9780 C   0  0  0  0  0  3  0  0  0  0  0  0
   36.1510   29.7510   38.0210 C   0  0  0  0  0  0  0  0  0  0  0  0
   36.9150   29.6710   36.8520 C   0  0  0  0  0  0  0  0  0  0  0  0
   37.9520   30.0280   36.8390 H   0  0  0  0  0  0  0  0  0  0  0  0
   36.4240   29.1480   35.6680 C   0  0  0  0  0  0  0  0  0  0  0  0
   37.0060   28.9920   34.4610 N   0  0  0  0  0  0  0  0  0  0  0  0
   36.0420   28.4250   33.6820 C   0  0  0  0  0  0  0  0  0  0  0  0
   36.1770   28.1580   32.6250 H   0  0  0  0  0  0  0  0  0  0  0  0
   34.8960   28.2370   34.3950 N   0  0  0  0  0  0  0  0  0  0  0  0
   35.1190   28.6910   35.6620 C   0  0  0  0  0  0  0  0  0  0  0  0
   34.3390   28.7590   36.8060 C   0  0  0  0  0  3  0  0  0  0  0  0
   37.9680   29.2340   34.1450 H   0  0  0  0  0  0  0  0  0  0  0  0
   38.9890   35.5980   40.1090 C   0  0  0  0  0  0  0  0  0  0  0  0
   40.3720   35.5550   39.8610 C   0  0  0  0  0  0  0  0  0  0  0  0
   41.0140   34.3430   39.7160 C   0  0  0  0  0  0  0  0  0  0  0  0
   40.2810   33.2070   39.8170 N   0  0  0  0  0  0  0  0  0  0  0  0
   38.9330   33.2550   40.0590 C   0  0  0  0  0  0  0  0  0  0  0  0
   38.3150   34.4540   40.2000 N   0  0  0  0  0  0  0  0  0  0  0  0
   38.5130   36.5520   40.2180 H   0  0  0  0  0  0  0  0  0  0  0  0
   40.9910   36.4200   39.7730 H   0  0  0  0  0  0  0  0  0  0  0  0
   43.2840   34.2410   40.5320 C   0  0  0  0  0  0  0  0  0  0  0  0
   42.4360   34.1940   39.4590 C   0  0  0  0  0  0  0  0  0  0  0  0
   42.9730   34.0100   38.1990 C   0  0  0  0  0  0  0  0  0  0  0  0
   44.3300   33.8700   37.9760 C   0  0  0  0  0  0  0  0  0  0  0  0
   45.0690   33.6850   36.8690 N   0  0  0  0  0  0  0  0  0  0  0  0
   46.3760   33.6150   37.2300 C   0  0  0  0  0  0  0  0  0  0  0  0
   46.4280   33.7610   38.5880 N   0  0  0  0  0  0  0  0  0  0  0  0
   45.1890   33.9180   39.0590 C   0  0  0  0  0  0  0  0  0  0  0  0
   44.6640   34.1010   40.3240 C   0  0  0  0  0  0  0  0  0  0  0  0
   42.9450   34.3820   41.5450 H   0  0  0  0  0  0  0  0  0  0  0  0
   42.2850   33.9740   37.3590 H   0  0  0  0  0  0  0  0  0  0  0  0
   44.6610   33.6140   35.9080 H   0  0  0  0  0  0  0  0  0  0  0  0
   47.1350   33.4670   36.4680 H   0  0  0  0  0  0  0  0  0  0  0  0
   45.3470   34.1360   41.1540 H   0  0  0  0  0  0  0  0  0  0  0  0
  1  9  2  0  0  0  0
  1  2  1  0  0  0  0
  2  3  2  0  0  0  0
  3  4  1  0  0  0  0
  3 11  1  0  0  0  0
  4  5  1  0  0  0  0
  5 12  1  0  0  0  0
  6  5  1  0  0  0  0
  6 13  1  0  0  0  0
  7  6  2  0  0  0  0
  8  7  1  0  0  0  0
  8  4  2  0  0  0  0
  9  8  1  0  0  0  0
 10  1  1  0  0  0  0
 14 15  1  0  0  0  0
 15  9  1  0  0  0  0
 16 15  2  0  0  0  0
 17 16  1  0  0  0  0
 18 16  1  0  0  0  0
 19 18  1  0  0  0  0
 20 22  2  0  0  0  0
 20 19  1  0  0  0  0
 21 20  1  0  0  0  0
 22 23  1  0  0  0  0
 23 18  2  0  0  0  0
 23 24  1  0  0  0  0
 24 14  2  0  0  0  0
 25 19  1  0  0  0  0
 26 31  1  0  0  0  0
 26 32  1  0  0  0  0
 27 26  2  0  0  0  0
 28 29  2  0  0  0  0
 28 27  1  0  0  0  0
 29 30  1  0  0  0  0
 30  2  1  0  0  0  0
 30 31  2  0  0  0  0
 33 27  1  0  0  0  0
 34 43  1  0  0  0  0
 35 28  1  0  0  0  0
 35 34  2  0  0  0  0
 36 35  1  0  0  0  0
 37 36  2  0  0  0  0
 37 41  1  0  0  0  0
 38 39  1  0  0  0  0
 38 37  1  0  0  0  0
 39 40  2  0  0  0  0
 40 41  1  0  0  0  0
 41 42  2  0  0  0  0
 42 34  1  0  0  0  0
 42 47  1  0  0  0  0
 44 36  1  0  0  0  0
 45 38  1  0  0  0  0
 46 39  1  0  0  0  0
M  END
>  <minimizedAffinity>
-8.41765976

$$$$

 OpenBabel03242521373D

 47 53  0  0  0  0  0  0  0  0999 V2000
   40.1630   33.1930   40.7310 C   0  0  0  0  0  0  0  0  0  0  0  0
   39.5930   32.3090   39.8450 C   0  0  0  0  0  0  0  0  0  0  0  0
   40.0720   32.2130   38.5520 C   0  0  0  0  0  0  0  0  0  0  0  0
   41.1270   33.0110   38.1630 C   0  0  0  0  0  0  0  0  0  0  0  0
   41.7060   33.0380   36.9520 N   0  0  0  0  0  0  0  0  0  0  0  0
   42.6890   33.9730   37.0520 C   0  0  0  0  0  0  0  0  0  0  0  0
   42.7000   34.5000   38.3080 N   0  0  0  0  0  0  0  0  0  0  0  0
   41.7240   33.9090   39.0280 C   0  0  0  0  0  0  0  0  0  0  0  0
   41.2130   33.9750   40.3110 C   0  0  0  0  0  0  0  0  0  0  0  0
   39.8290   33.3070   41.7430 H   0  0  0  0  0  0  0  0  0  0  0  0
   39.6030   31.5070   37.8780 H   0  0  0  0  0  0  0  0  0  0  0  0
   41.5030   32.5020   36.1010 H   0  0  0  0  0  0  0  0  0  0  0  0
   43.3660   34.2580   36.2490 H   0  0  0  0  0  0  0  0  0  0  0  0
   41.3970   36.2060   41.5310 C   0  0  0  0  0  3  0  0  0  0  0  0
   41.8450   34.9260   41.2250 C   0  0  0  0  0  0  0  0  0  0  0  0
   43.0160   34.4770   41.8420 C   0  0  0  0  0  0  0  0  0  0  0  0
   43.4070   33.4740   41.6320 H   0  0  0  0  0  0  0  0  0  0  0  0
   43.7400   35.2490   42.7350 C   0  0  0  0  0  0  0  0  0  0  0  0
   44.8740   34.9870   43.4150 N   0  0  0  0  0  0  0  0  0  0  0  0
   45.1150   36.1160   44.1380 C   0  0  0  0  0  0  0  0  0  0  0  0
   45.9710   36.2500   44.8130 H   0  0  0  0  0  0  0  0  0  0  0  0
   44.1510   37.0510   43.9050 N   0  0  0  0  0  0  0  0  0  0  0  0
   43.2650   36.5180   43.0150 C   0  0  0  0  0  0  0  0  0  0  0  0
   42.1060   36.9890   42.4180 C   0  0  0  0  0  3  0  0  0  0  0  0
   45.4680   34.1320   43.4220 H   0  0  0  0  0  0  0  0  0  0  0  0
   36.2030   31.2450   40.7670 C   0  0  0  0  0  0  0  0  0  0  0  0
   36.4160   29.8850   41.0500 C   0  0  0  0  0  0  0  0  0  0  0  0
   37.6780   29.3400   40.9310 C   0  0  0  0  0  0  0  0  0  0  0  0
   38.6950   30.1460   40.5390 N   0  0  0  0  0  0  0  0  0  0  0  0
   38.4820   31.4720   40.2630 C   0  0  0  0  0  0  0  0  0  0  0  0
   37.2360   31.9930   40.3840 N   0  0  0  0  0  0  0  0  0  0  0  0
   35.2140   31.6460   40.8650 H   0  0  0  0  0  0  0  0  0  0  0  0
   35.6490   29.2130   41.3620 H   0  0  0  0  0  0  0  0  0  0  0  0
   37.4990   27.0060   40.3460 C   0  0  0  0  0  0  0  0  0  0  0  0
   37.9990   27.9500   41.2010 C   0  0  0  0  0  0  0  0  0  0  0  0
   38.7750   27.5340   42.2660 C   0  0  0  0  0  0  0  0  0  0  0  0
   39.0680   26.2040   42.5040 C   0  0  0  0  0  0  0  0  0  0  0  0
   39.7830   25.5720   43.4510 N   0  0  0  0  0  0  0  0  0  0  0  0
   39.7410   24.2370   43.2040 C   0  0  0  0  0  0  0  0  0  0  0  0
   38.9820   24.0590   42.0810 N   0  0  0  0  0  0  0  0  0  0  0  0
   38.5640   25.2470   41.6420 C   0  0  0  0  0  0  0  0  0  0  0  0
   37.7870   25.6510   40.5730 C   0  0  0  0  0  0  0  0  0  0  0  0
   36.8870   27.2480   39.4940 H   0  0  0  0  0  0  0  0  0  0  0  0
   39.1640   28.2960   42.9340 H   0  0  0  0  0  0  0  0  0  0  0  0
   40.2740   26.0690   44.2310 H   0  0  0  0  0  0  0  0  0  0  0  0
   40.2640   23.5540   43.8660 H   0  0  0  0  0  0  0  0  0  0  0  0
   37.4030   24.8950   39.9130 H   0  0  0  0  0  0  0  0  0  0  0  0
  1 10  1  0  0  0  0
  2 30  1  0  0  0  0
  2  1  2  0  0  0  0
  3  2  1  0  0  0  0
  4  3  2  0  0  0  0
  4  8  1  0  0  0  0
  5  6  1  0  0  0  0
  5  4  1  0  0  0  0
  6  7  2  0  0  0  0
  7  8  1  0  0  0  0
  8  9  2  0  0  0  0
  9  1  1  0  0  0  0
  9 15  1  0  0  0  0
 11  3  1  0  0  0  0
 12  5  1  0  0  0  0
 13  6  1  0  0  0  0
 14 24  1  0  0  0  0
 15 14  2  0  0  0  0
 15 16  1  0  0  0  0
 16 18  2  0  0  0  0
 17 16  1  0  0  0  0
 18 23  1  0  0  0  0
 18 19  1  0  0  0  0
 19 25  1  0  0  0  0
 19 20  1  0  0  0  0
 20 21  1  0  0  0  0
 22 20  2  0  0  0  0
 23 22  1  0  0  0  0
 24 23  2  0  0  0  0
 26 32  1  0  0  0  0
 26 27  1  0  0  0  0
 27 33  1  0  0  0  0
 28 27  2  0  0  0  0
 28 35  1  0  0  0  0
 29 28  1  0  0  0  0
 30 31  1  0  0  0  0
 30 29  2  0  0  0  0
 31 26  2  0  0  0  0
 34 42  2  0  0  0  0
 34 35  1  0  0  0  0
 35 36  2  0  0  0  0
 36 37  1  0  0  0  0
 36 44  1  0  0  0  0
 37 38  1  0  0  0  0
 38 45  1  0  0  0  0
 39 38  1  0  0  0  0
 39 46  1  0  0  0  0
 40 39  2  0  0  0  0
 41 40  1  0  0  0  0
 41 37  2  0  0  0  0
 42 41  1  0  0  0  0
 43 34  1  0  0  0  0
 47 42  1  0  0  0  0
M  END
>  <minimizedAffinity>
-8.19998741

$$$$

 OpenBabel03242521373D

 47 53  0  0  0  0  0  0  0  0999 V2000
   36.5100   29.8930   39.0020 C   0  0  0  0  0  0  0  0  0  0  0  0
   35.6310   28.8630   39.2460 C   0  0  0  0  0  0  0  0  0  0  0  0
   35.6130   28.2420   40.4810 C   0  0  0  0  0  0  0  0  0  0  0  0
   36.4840   28.6660   41.4620 C   0  0  0  0  0  0  0  0  0  0  0  0
   36.5910   28.1710   42.7040 N   0  0  0  0  0  0  0  0  0  0  0  0
   37.5750   28.9030   43.2930 C   0  0  0  0  0  0  0  0  0  0  0  0
   38.0520   29.8270   42.4130 N   0  0  0  0  0  0  0  0  0  0  0  0
   37.3790   29.6970   41.2500 C   0  0  0  0  0  0  0  0  0  0  0  0
   37.3660   30.2920   40.0020 C   0  0  0  0  0  0  0  0  0  0  0  0
   36.5650   30.4070   38.0630 H   0  0  0  0  0  0  0  0  0  0  0  0
   34.9090   27.4350   40.6420 H   0  0  0  0  0  0  0  0  0  0  0  0
   36.0790   27.4140   43.1710 H   0  0  0  0  0  0  0  0  0  0  0  0
   37.9290   28.7720   44.3130 H   0  0  0  0  0  0  0  0  0  0  0  0
   39.4710   31.3320   39.0110 C   0  0  0  0  0  3  0  0  0  0  0  0
   38.3140   31.3820   39.7790 C   0  0  0  0  0  0  0  0  0  0  0  0
   38.0010   32.5880   40.4140 C   0  0  0  0  0  0  0  0  0  0  0  0
   37.0970   32.6750   41.0310 H   0  0  0  0  0  0  0  0  0  0  0  0
   38.7900   33.7210   40.3090 C   0  0  0  0  0  0  0  0  0  0  0  0
   38.6480   34.9510   40.8430 N   0  0  0  0  0  0  0  0  0  0  0  0
   39.7280   35.6500   40.3940 C   0  0  0  0  0  0  0  0  0  0  0  0
   39.9310   36.7020   40.6400 H   0  0  0  0  0  0  0  0  0  0  0  0
   40.5140   34.8670   39.6040 N   0  0  0  0  0  0  0  0  0  0  0  0
   39.9340   33.6340   39.5370 C   0  0  0  0  0  0  0  0  0  0  0  0
   40.2690   32.4520   38.8960 C   0  0  0  0  0  3  0  0  0  0  0  0
   37.9020   35.3300   41.4620 H   0  0  0  0  0  0  0  0  0  0  0  0
   33.9930   26.7520   36.7300 C   0  0  0  0  0  0  0  0  0  0  0  0
   32.9940   27.6210   36.2590 C   0  0  0  0  0  0  0  0  0  0  0  0
   32.8770   28.8930   36.7810 C   0  0  0  0  0  0  0  0  0  0  0  0
   33.7450   29.2750   37.7500 N   0  0  0  0  0  0  0  0  0  0  0  0
   34.7170   28.4230   38.2070 C   0  0  0  0  0  0  0  0  0  0  0  0
   34.8190   27.1770   37.6840 N   0  0  0  0  0  0  0  0  0  0  0  0
   34.0650   25.7690   36.3090 H   0  0  0  0  0  0  0  0  0  0  0  0
   32.2900   27.3660   35.4990 H   0  0  0  0  0  0  0  0  0  0  0  0
   31.0650   30.3910   37.3240 C   0  0  0  0  0  0  0  0  0  0  0  0
   31.8810   29.8620   36.3610 C   0  0  0  0  0  0  0  0  0  0  0  0
   31.7150   30.2750   35.0530 C   0  0  0  0  0  0  0  0  0  0  0  0
   30.7590   31.2000   34.6750 C   0  0  0  0  0  0  0  0  0  0  0  0
   30.4170   31.7430   33.4950 N   0  0  0  0  0  0  0  0  0  0  0  0
   29.3920   32.6100   33.6990 C   0  0  0  0  0  0  0  0  0  0  0  0
   29.1080   32.5900   35.0360 N   0  0  0  0  0  0  0  0  0  0  0  0
   29.9330   31.7350   35.6450 C   0  0  0  0  0  0  0  0  0  0  0  0
   30.0890   31.3310   36.9570 C   0  0  0  0  0  0  0  0  0  0  0  0
   31.1300   30.1210   38.3650 H   0  0  0  0  0  0  0  0  0  0  0  0
   32.3720   29.8460   34.3020 H   0  0  0  0  0  0  0  0  0  0  0  0
   30.8910   31.5050   32.5910 H   0  0  0  0  0  0  0  0  0  0  0  0
   28.9740   33.1520   32.8570 H   0  0  0  0  0  0  0  0  0  0  0  0
   29.4380   31.7570   37.6990 H   0  0  0  0  0  0  0  0  0  0  0  0
  1  2  2  0  0  0  0
  1  9  1  0  0  0  0
  2  3  1  0  0  0  0
  3 11  1  0  0  0  0
  3  4  2  0  0  0  0
  4  5  1  0  0  0  0
  5 12  1  0  0  0  0
  5  6  1  0  0  0  0
  6 13  1  0  0  0  0
  7  6  2  0  0  0  0
  8  4  1  0  0  0  0
  8  7  1  0  0  0  0
  9  8  2  0  0  0  0
 10  1  1  0  0  0  0
 14 15  1  0  0  0  0
 15  9  1  0  0  0  0
 15 16  2  0  0  0  0
 16 17  1  0  0  0  0
 18 16  1  0  0  0  0
 18 19  1  0  0  0  0
 19 25  1  0  0  0  0
 20 21  1  0  0  0  0
 20 19  1  0  0  0  0
 22 20  2  0  0  0  0
 23 22  1  0  0  0  0
 23 18  2  0  0  0  0
 24 14  2  0  0  0  0
 24 23  1  0  0  0  0
 26 31  1  0  0  0  0
 27 26  2  0  0  0  0
 27 28  1  0  0  0  0
 28 29  2  0  0  0  0
 29 30  1  0  0  0  0
 30  2  1  0  0  0  0
 31 30  2  0  0  0  0
 32 26  1  0  0  0  0
 33 27  1  0  0  0  0
 34 43  1  0  0  0  0
 35 28  1  0  0  0  0
 35 34  2  0  0  0  0
 36 35  1  0  0  0  0
 37 36  2  0  0  0  0
 37 41  1  0  0  0  0
 38 39  1  0  0  0  0
 38 37  1  0  0  0  0
 39 40  2  0  0  0  0
 40 41  1  0  0  0  0
 41 42  2  0  0  0  0
 42 34  1  0  0  0  0
 42 47  1  0  0  0  0
 44 36  1  0  0  0  0
 45 38  1  0  0  0  0
 46 39  1  0  0  0  0
M  END
>  <minimizedAffinity>
-8.13383198

$$$$

 OpenBabel03242521373D

 47 53  0  0  0  0  0  0  0  0999 V2000
   40.5920   32.7660   40.3910 C   0  0  0  0  0  0  0  0  0  0  0  0
   39.2400   32.8000   40.6410 C   0  0  0  0  0  0  0  0  0  0  0  0
   38.5440   33.9900   40.5430 C   0  0  0  0  0  0  0  0  0  0  0  0
   39.2200   35.1390   40.1920 C   0  0  0  0  0  0  0  0  0  0  0  0
   38.6930   36.3660   40.0530 N   0  0  0  0  0  0  0  0  0  0  0  0
   39.7380   37.1610   39.7000 C   0  0  0  0  0  0  0  0  0  0  0  0
   40.8790   36.4200   39.6260 N   0  0  0  0  0  0  0  0  0  0  0  0
   40.5770   35.1410   39.9320 C   0  0  0  0  0  0  0  0  0  0  0  0
   41.2370   33.9300   40.0420 C   0  0  0  0  0  0  0  0  0  0  0  0
   41.1790   31.8710   40.4530 H   0  0  0  0  0  0  0  0  0  0  0  0
   37.4800   33.9840   40.7470 H   0  0  0  0  0  0  0  0  0  0  0  0
   37.7300   36.6990   40.1720 H   0  0  0  0  0  0  0  0  0  0  0  0
   39.6750   38.2290   39.5040 H   0  0  0  0  0  0  0  0  0  0  0  0
   43.6940   34.1230   40.6920 C   0  0  0  0  0  3  0  0  0  0  0  0
   42.6730   33.9330   39.7670 C   0  0  0  0  0  0  0  0  0  0  0  0
   43.0290   33.7190   38.4320 C   0  0  0  0  0  0  0  0  0  0  0  0
   42.2570   33.5640   37.6680 H   0  0  0  0  0  0  0  0  0  0  0  0
   44.3440   33.6910   37.9990 C   0  0  0  0  0  0  0  0  0  0  0  0
   44.8670   33.5020   36.7710 N   0  0  0  0  0  0  0  0  0  0  0  0
   46.2150   33.5780   36.9530 C   0  0  0  0  0  0  0  0  0  0  0  0
   46.9560   33.4680   36.1500 H   0  0  0  0  0  0  0  0  0  0  0  0
   46.5110   33.8100   38.2630 N   0  0  0  0  0  0  0  0  0  0  0  0
   45.3330   33.8840   38.9460 C   0  0  0  0  0  0  0  0  0  0  0  0
   45.0090   34.0980   40.2770 C   0  0  0  0  0  3  0  0  0  0  0  0
   44.3930   33.3320   35.8600 H   0  0  0  0  0  0  0  0  0  0  0  0
   36.5270   30.3900   41.1900 C   0  0  0  0  0  0  0  0  0  0  0  0
   37.2400   29.2970   41.7130 C   0  0  0  0  0  0  0  0  0  0  0  0
   38.6080   29.3740   41.8760 C   0  0  0  0  0  0  0  0  0  0  0  0
   39.2370   30.5220   41.5220 N   0  0  0  0  0  0  0  0  0  0  0  0
   38.5370   31.5840   41.0120 C   0  0  0  0  0  0  0  0  0  0  0  0
   37.1930   31.4930   40.8580 N   0  0  0  0  0  0  0  0  0  0  0  0
   35.4660   30.3060   41.0730 H   0  0  0  0  0  0  0  0  0  0  0  0
   36.7900   28.3750   42.0060 H   0  0  0  0  0  0  0  0  0  0  0  0
   38.8860   27.4990   43.3710 C   0  0  0  0  0  0  0  0  0  0  0  0
   39.4320   28.3020   42.4060 C   0  0  0  0  0  0  0  0  0  0  0  0
   40.7260   28.0520   41.9930 C   0  0  0  0  0  0  0  0  0  0  0  0
   41.4940   27.0250   42.5110 C   0  0  0  0  0  0  0  0  0  0  0  0
   42.7450   26.5980   42.2730 N   0  0  0  0  0  0  0  0  0  0  0  0
   42.9970   25.5330   43.0770 C   0  0  0  0  0  0  0  0  0  0  0  0
   41.8700   25.3120   43.8190 N   0  0  0  0  0  0  0  0  0  0  0  0
   40.9440   26.2130   43.4860 C   0  0  0  0  0  0  0  0  0  0  0  0
   39.6510   26.4530   43.9080 C   0  0  0  0  0  0  0  0  0  0  0  0
   37.8850   27.6290   43.7470 H   0  0  0  0  0  0  0  0  0  0  0  0
   41.1440   28.6980   41.2260 H   0  0  0  0  0  0  0  0  0  0  0  0
   43.3840   27.0440   41.5740 H   0  0  0  0  0  0  0  0  0  0  0  0
   43.9650   25.0440   43.0290 H   0  0  0  0  0  0  0  0  0  0  0  0
   39.2390   25.8120   44.6670 H   0  0  0  0  0  0  0  0  0  0  0  0
  1 10  1  0  0  0  0
  1  2  1  0  0  0  0
  2 30  1  0  0  0  0
  3  2  2  0  0  0  0
  3 11  1  0  0  0  0
  4  3  1  0  0  0  0
  5 12  1  0  0  0  0
  5  4  1  0  0  0  0
  6  5  1  0  0  0  0
  7  6  2  0  0  0  0
  7  8  1  0  0  0  0
  8  9  1  0  0  0  0
  8  4  2  0  0  0  0
  9  1  2  0  0  0  0
 13  6  1  0  0  0  0
 15  9  1  0  0  0  0
 15 14  2  0  0  0  0
 16 15  1  0  0  0  0
 17 16  1  0  0  0  0
 18 16  2  0  0  0  0
 18 23  1  0  0  0  0
 19 20  1  0  0  0  0
 19 18  1  0  0  0  0
 20 22  2  0  0  0  0
 21 20  1  0  0  0  0
 22 23  1  0  0  0  0
 23 24  2  0  0  0  0
 24 14  1  0  0  0  0
 25 19  1  0  0  0  0
 26 27  1  0  0  0  0
 27 28  2  0  0  0  0
 27 33  1  0  0  0  0
 28 35  1  0  0  0  0
 29 28  1  0  0  0  0
 30 29  2  0  0  0  0
 31 30  1  0  0  0  0
 31 26  2  0  0  0  0
 32 26  1  0  0  0  0
 34 43  1  0  0  0  0
 34 42  1  0  0  0  0
 35 34  2  0  0  0  0
 36 35  1  0  0  0  0
 36 37  2  0  0  0  0
 37 41  1  0  0  0  0
 38 37  1  0  0  0  0
 38 39  1  0  0  0  0
 39 40  2  0  0  0  0
 41 40  1  0  0  0  0
 41 42  2  0  0  0  0
 42 47  1  0  0  0  0
 44 36  1  0  0  0  0
 45 38  1  0  0  0  0
 46 39  1  0  0  0  0
M  END
>  <minimizedAffinity>
-7.97277164

$$$$

 OpenBabel03242521373D

 47 53  0  0  0  0  0  0  0  0999 V2000
   39.3110   32.0950   39.9800 C   0  0  0  0  0  0  0  0  0  0  0  0
   38.9740   30.9280   39.3340 C   0  0  0  0  0  0  0  0  0  0  0  0
   39.7070   30.5000   38.2430 C   0  0  0  0  0  0  0  0  0  0  0  0
   40.7760   31.2560   37.8100 C   0  0  0  0  0  0  0  0  0  0  0  0
   41.5830   30.9790   36.7740 N   0  0  0  0  0  0  0  0  0  0  0  0
   42.4780   32.0030   36.7420 C   0  0  0  0  0  0  0  0  0  0  0  0
   42.2120   32.8820   37.7480 N   0  0  0  0  0  0  0  0  0  0  0  0
   41.1430   32.4320   38.4360 C   0  0  0  0  0  0  0  0  0  0  0  0
   40.3840   32.8250   39.5230 C   0  0  0  0  0  0  0  0  0  0  0  0
   38.7770   32.4710   40.8290 H   0  0  0  0  0  0  0  0  0  0  0  0
   39.4170   29.5770   37.7560 H   0  0  0  0  0  0  0  0  0  0  0  0
   41.5810   30.1930   36.1140 H   0  0  0  0  0  0  0  0  0  0  0  0
   43.2870   32.1060   36.0210 H   0  0  0  0  0  0  0  0  0  0  0  0
   40.2110   35.3270   39.9830 C   0  0  0  0  0  3  0  0  0  0  0  0
   40.7720   34.0700   40.1840 C   0  0  0  0  0  0  0  0  0  0  0  0
   41.8150   33.9590   41.1090 C   0  0  0  0  0  0  0  0  0  0  0  0
   42.2870   32.9870   41.3010 H   0  0  0  0  0  0  0  0  0  0  0  0
   42.3060   35.0380   41.8230 C   0  0  0  0  0  0  0  0  0  0  0  0
   43.2900   35.1180   42.7410 N   0  0  0  0  0  0  0  0  0  0  0  0
   43.3260   36.4330   43.0980 C   0  0  0  0  0  0  0  0  0  0  0  0
   44.0210   36.8560   43.8360 H   0  0  0  0  0  0  0  0  0  0  0  0
   42.3860   37.1430   42.4130 N   0  0  0  0  0  0  0  0  0  0  0  0
   41.7240   36.2730   41.5970 C   0  0  0  0  0  0  0  0  0  0  0  0
   40.6890   36.4130   40.6860 C   0  0  0  0  0  3  0  0  0  0  0  0
   43.9110   34.3750   43.1240 H   0  0  0  0  0  0  0  0  0  0  0  0
   35.6090   30.0310   40.4920 C   0  0  0  0  0  0  0  0  0  0  0  0
   35.7450   28.6420   40.6620 C   0  0  0  0  0  0  0  0  0  0  0  0
   36.9480   28.0240   40.3910 C   0  0  0  0  0  0  0  0  0  0  0  0
   37.9840   28.7860   39.9620 N   0  0  0  0  0  0  0  0  0  0  0  0
   37.8460   30.1390   39.7960 C   0  0  0  0  0  0  0  0  0  0  0  0
   36.6570   30.7330   40.0670 N   0  0  0  0  0  0  0  0  0  0  0  0
   34.6650   30.4880   40.7080 H   0  0  0  0  0  0  0  0  0  0  0  0
   34.9600   28.0020   40.9980 H   0  0  0  0  0  0  0  0  0  0  0  0
   37.1380   26.0710   41.7980 C   0  0  0  0  0  0  0  0  0  0  0  0
   37.1880   26.5990   40.5360 C   0  0  0  0  0  0  0  0  0  0  0  0
   37.4610   25.7550   39.4770 C   0  0  0  0  0  0  0  0  0  0  0  0
   37.6860   24.4000   39.6370 C   0  0  0  0  0  0  0  0  0  0  0  0
   37.9630   23.4030   38.7800 N   0  0  0  0  0  0  0  0  0  0  0  0
   38.0900   22.2500   39.4850 C   0  0  0  0  0  0  0  0  0  0  0  0
   37.8840   22.5580   40.8010 N   0  0  0  0  0  0  0  0  0  0  0  0
   37.6370   23.8640   40.9110 C   0  0  0  0  0  0  0  0  0  0  0  0
   37.3640   24.6980   41.9780 C   0  0  0  0  0  0  0  0  0  0  0  0
   36.9320   26.6620   42.6750 H   0  0  0  0  0  0  0  0  0  0  0  0
   37.4960   26.1900   38.4820 H   0  0  0  0  0  0  0  0  0  0  0  0
   38.0570   23.5410   37.7460 H   0  0  0  0  0  0  0  0  0  0  0  0
   38.3160   21.3250   38.9630 H   0  0  0  0  0  0  0  0  0  0  0  0
   37.3300   24.2650   42.9620 H   0  0  0  0  0  0  0  0  0  0  0  0
  1 10  1  0  0  0  0
  2 30  1  0  0  0  0
  2  1  2  0  0  0  0
  3  2  1  0  0  0  0
  4  3  2  0  0  0  0
  4  8  1  0  0  0  0
  5  4  1  0  0  0  0
  6  5  1  0  0  0  0
  6  7  2  0  0  0  0
  7  8  1  0  0  0  0
  8  9  2  0  0  0  0
  9  1  1  0  0  0  0
  9 15  1  0  0  0  0
 11  3  1  0  0  0  0
 12  5  1  0  0  0  0
 13  6  1  0  0  0  0
 14 15  2  0  0  0  0
 14 24  1  0  0  0  0
 15 16  1  0  0  0  0
 16 17  1  0  0  0  0
 16 18  2  0  0  0  0
 18 19  1  0  0  0  0
 19 20  1  0  0  0  0
 19 25  1  0  0  0  0
 20 21  1  0  0  0  0
 22 20  2  0  0  0  0
 23 18  1  0  0  0  0
 23 22  1  0  0  0  0
 24 23  2  0  0  0  0
 26 27  1  0  0  0  0
 26 32  1  0  0  0  0
 27 33  1  0  0  0  0
 28 35  1  0  0  0  0
 28 27  2  0  0  0  0
 29 28  1  0  0  0  0
 30 29  2  0  0  0  0
 30 31  1  0  0  0  0
 31 26  2  0  0  0  0
 34 42  1  0  0  0  0
 34 43  1  0  0  0  0
 35 34  2  0  0  0  0
 36 37  2  0  0  0  0
 36 35  1  0  0  0  0
 37 41  1  0  0  0  0
 38 39  1  0  0  0  0
 38 37  1  0  0  0  0
 39 40  2  0  0  0  0
 40 41  1  0  0  0  0
 41 42  2  0  0  0  0
 42 47  1  0  0  0  0
 44 36  1  0  0  0  0
 45 38  1  0  0  0  0
 46 39  1  0  0  0  0
M  END
>  <minimizedAffinity>
-7.79701328

$$$$

 OpenBabel03242521373D

 47 53  0  0  0  0  0  0  0  0999 V2000
   40.0130   30.6120   40.0100 C   0  0  0  0  0  0  0  0  0  0  0  0
   39.9120   31.5370   38.9970 C   0  0  0  0  0  0  0  0  0  0  0  0
   38.8110   31.5340   38.1600 C   0  0  0  0  0  0  0  0  0  0  0  0
   37.8200   30.5960   38.3540 C   0  0  0  0  0  0  0  0  0  0  0  0
   36.6950   30.4610   37.6340 N   0  0  0  0  0  0  0  0  0  0  0  0
   36.0390   29.4110   38.1970 C   0  0  0  0  0  0  0  0  0  0  0  0
   36.7620   28.9220   39.2430 N   0  0  0  0  0  0  0  0  0  0  0  0
   37.8890   29.6530   39.3630 C   0  0  0  0  0  0  0  0  0  0  0  0
   39.0070   29.6890   40.1770 C   0  0  0  0  0  0  0  0  0  0  0  0
   40.8440   30.5700   40.6860 H   0  0  0  0  0  0  0  0  0  0  0  0
   38.7600   32.2750   37.3720 H   0  0  0  0  0  0  0  0  0  0  0  0
   36.3460   30.9940   36.8290 H   0  0  0  0  0  0  0  0  0  0  0  0
   35.0810   29.0190   37.8640 H   0  0  0  0  0  0  0  0  0  0  0  0
   38.5040   28.7820   42.5050 C   0  0  0  0  0  3  0  0  0  0  0  0
   39.0800   28.6920   41.2430 C   0  0  0  0  0  0  0  0  0  0  0  0
   39.8080   27.5380   40.9360 C   0  0  0  0  0  0  0  0  0  0  0  0
   40.2800   27.4220   39.9520 H   0  0  0  0  0  0  0  0  0  0  0  0
   39.9770   26.4950   41.8300 C   0  0  0  0  0  0  0  0  0  0  0  0
   40.6360   25.3250   41.7100 N   0  0  0  0  0  0  0  0  0  0  0  0
   40.4580   24.7020   42.9090 C   0  0  0  0  0  0  0  0  0  0  0  0
   40.8670   23.7140   43.1620 H   0  0  0  0  0  0  0  0  0  0  0  0
   39.7070   25.4730   43.7450 N   0  0  0  0  0  0  0  0  0  0  0  0
   39.3900   26.6190   43.0760 C   0  0  0  0  0  0  0  0  0  0  0  0
   38.6620   27.7510   43.4080 C   0  0  0  0  0  3  0  0  0  0  0  0
   41.1730   24.9380   40.9070 H   0  0  0  0  0  0  0  0  0  0  0  0
   42.2740   33.8090   37.3460 C   0  0  0  0  0  0  0  0  0  0  0  0
   42.9320   34.3660   38.4560 C   0  0  0  0  0  0  0  0  0  0  0  0
   42.5830   33.9810   39.7350 C   0  0  0  0  0  0  0  0  0  0  0  0
   41.6000   33.0600   39.8870 N   0  0  0  0  0  0  0  0  0  0  0  0
   40.9610   32.5210   38.8010 C   0  0  0  0  0  0  0  0  0  0  0  0
   41.3150   32.9090   37.5510 N   0  0  0  0  0  0  0  0  0  0  0  0
   42.5620   34.1230   36.3630 H   0  0  0  0  0  0  0  0  0  0  0  0
   43.7110   35.0910   38.3870 H   0  0  0  0  0  0  0  0  0  0  0  0
   44.3790   33.9260   41.3470 C   0  0  0  0  0  0  0  0  0  0  0  0
   43.2030   34.4970   40.9430 C   0  0  0  0  0  0  0  0  0  0  0  0
   42.6720   35.5240   41.6990 C   0  0  0  0  0  0  0  0  0  0  0  0
   43.2780   36.0010   42.8470 C   0  0  0  0  0  0  0  0  0  0  0  0
   42.9600   36.9660   43.7250 N   0  0  0  0  0  0  0  0  0  0  0  0
   43.9220   37.0130   44.6830 C   0  0  0  0  0  0  0  0  0  0  0  0
   44.8440   36.0510   44.3740 N   0  0  0  0  0  0  0  0  0  0  0  0
   44.4660   35.4260   43.2580 C   0  0  0  0  0  0  0  0  0  0  0  0
   45.0070   34.3970   42.5100 C   0  0  0  0  0  0  0  0  0  0  0  0
   44.8560   33.1210   40.8140 H   0  0  0  0  0  0  0  0  0  0  0  0
   41.7380   35.9670   41.3630 H   0  0  0  0  0  0  0  0  0  0  0  0
   42.1000   37.5590   43.6450 H   0  0  0  0  0  0  0  0  0  0  0  0
   43.8410   37.7360   45.4880 H   0  0  0  0  0  0  0  0  0  0  0  0
   45.9310   33.9610   42.8450 H   0  0  0  0  0  0  0  0  0  0  0  0
  1  9  1  0  0  0  0
  1 10  1  0  0  0  0
  2  1  2  0  0  0  0
  3  4  2  0  0  0  0
  3  2  1  0  0  0  0
  4  8  1  0  0  0  0
  5  6  1  0  0  0  0
  5  4  1  0  0  0  0
  6  7  2  0  0  0  0
  7  8  1  0  0  0  0
  8  9  2  0  0  0  0
  9 15  1  0  0  0  0
 11  3  1  0  0  0  0
 12  5  1  0  0  0  0
 13  6  1  0  0  0  0
 14 24  1  0  0  0  0
 15 14  2  0  0  0  0
 16 15  1  0  0  0  0
 16 18  2  0  0  0  0
 17 16  1  0  0  0  0
 18 23  1  0  0  0  0
 19 18  1  0  0  0  0
 19 20  1  0  0  0  0
 20 21  1  0  0  0  0
 20 22  2  0  0  0  0
 23 24  2  0  0  0  0
 23 22  1  0  0  0  0
 25 19  1  0  0  0  0
 26 31  2  0  0  0  0
 26 27  1  0  0  0  0
 27 28  2  0  0  0  0
 28 29  1  0  0  0  0
 28 35  1  0  0  0  0
 30  2  1  0  0  0  0
 30 29  2  0  0  0  0
 31 30  1  0  0  0  0
 32 26  1  0  0  0  0
 33 27  1  0  0  0  0
 34 42  1  0  0  0  0
 35 34  2  0  0  0  0
 35 36  1  0  0  0  0
 36 37  2  0  0  0  0
 37 41  1  0  0  0  0
 37 38  1  0  0  0  0
 38 39  1  0  0  0  0
 39 46  1  0  0  0  0
 40 39  2  0  0  0  0
 41 40  1  0  0  0  0
 42 47  1  0  0  0  0
 42 41  2  0  0  0  0
 43 34  1  0  0  0  0
 44 36  1  0  0  0  0
 45 38  1  0  0  0  0
M  END
>  <minimizedAffinity>
-7.66593409

$$$$

 OpenBabel03242521373D

 47 53  0  0  0  0  0  0  0  0999 V2000
   34.6670   28.9060   38.0380 C   0  0  0  0  0  0  0  0  0  0  0  0
   35.5920   28.0800   38.6340 C   0  0  0  0  0  0  0  0  0  0  0  0
   35.6350   26.7370   38.3110 C   0  0  0  0  0  0  0  0  0  0  0  0
   34.7420   26.2360   37.3880 C   0  0  0  0  0  0  0  0  0  0  0  0
   34.6550   24.9650   36.9680 N   0  0  0  0  0  0  0  0  0  0  0  0
   33.6370   24.9600   36.0660 C   0  0  0  0  0  0  0  0  0  0  0  0
   33.1200   26.2140   35.9460 N   0  0  0  0  0  0  0  0  0  0  0  0
   33.8010   27.0380   36.7700 C   0  0  0  0  0  0  0  0  0  0  0  0
   33.7900   28.3750   37.1210 C   0  0  0  0  0  0  0  0  0  0  0  0
   34.5900   29.9530   38.2530 H   0  0  0  0  0  0  0  0  0  0  0  0
   36.3750   26.1130   38.7970 H   0  0  0  0  0  0  0  0  0  0  0  0
   35.2000   24.1350   37.2260 H   0  0  0  0  0  0  0  0  0  0  0  0
   33.2860   24.0860   35.5220 H   0  0  0  0  0  0  0  0  0  0  0  0
   32.7840   29.6150   35.1330 C   0  0  0  0  0  3  0  0  0  0  0  0
   32.7930   29.2220   36.4670 C   0  0  0  0  0  0  0  0  0  0  0  0
   31.7530   29.6670   37.2880 C   0  0  0  0  0  0  0  0  0  0  0  0
   31.7190   29.3830   38.3470 H   0  0  0  0  0  0  0  0  0  0  0  0
   30.7270   30.4770   36.8310 C   0  0  0  0  0  0  0  0  0  0  0  0
   29.6580   30.9960   37.4680 N   0  0  0  0  0  0  0  0  0  0  0  0
   28.9970   31.7080   36.5130 C   0  0  0  0  0  0  0  0  0  0  0  0
   28.0690   32.2690   36.6890 H   0  0  0  0  0  0  0  0  0  0  0  0
   29.6470   31.6280   35.3180 N   0  0  0  0  0  0  0  0  0  0  0  0
   30.7510   30.8480   35.4990 C   0  0  0  0  0  0  0  0  0  0  0  0
   31.7690   30.4200   34.6610 C   0  0  0  0  0  3  0  0  0  0  0  0
   29.3600   30.9030   38.4620 H   0  0  0  0  0  0  0  0  0  0  0  0
   37.9270   28.2830   41.4580 C   0  0  0  0  0  0  0  0  0  0  0  0
   38.2790   29.6440   41.4180 C   0  0  0  0  0  0  0  0  0  0  0  0
   37.7380   30.4730   40.4570 C   0  0  0  0  0  0  0  0  0  0  0  0
   36.8670   29.9440   39.5630 N   0  0  0  0  0  0  0  0  0  0  0  0
   36.5280   28.6170   39.6060 C   0  0  0  0  0  0  0  0  0  0  0  0
   37.0680   27.8140   40.5560 N   0  0  0  0  0  0  0  0  0  0  0  0
   38.3600   27.6590   42.2130 H   0  0  0  0  0  0  0  0  0  0  0  0
   38.9590   30.1050   42.0990 H   0  0  0  0  0  0  0  0  0  0  0  0
   37.1300   32.6760   39.6800 C   0  0  0  0  0  0  0  0  0  0  0  0
   38.0390   31.8880   40.3340 C   0  0  0  0  0  0  0  0  0  0  0  0
   39.1820   32.4770   40.8380 C   0  0  0  0  0  0  0  0  0  0  0  0
   39.4490   33.8280   40.7100 C   0  0  0  0  0  0  0  0  0  0  0  0
   40.4670   34.6090   41.1070 N   0  0  0  0  0  0  0  0  0  0  0  0
   40.2140   35.8830   40.7110 C   0  0  0  0  0  0  0  0  0  0  0  0
   39.0130   35.8710   40.0580 N   0  0  0  0  0  0  0  0  0  0  0  0
   38.5330   34.6260   40.0490 C   0  0  0  0  0  0  0  0  0  0  0  0
   37.3850   34.0490   39.5400 C   0  0  0  0  0  0  0  0  0  0  0  0
   36.2160   32.2940   39.2580 H   0  0  0  0  0  0  0  0  0  0  0  0
   39.8920   31.8380   41.3560 H   0  0  0  0  0  0  0  0  0  0  0  0
   41.2990   34.2500   41.6330 H   0  0  0  0  0  0  0  0  0  0  0  0
   40.9280   36.6670   40.9410 H   0  0  0  0  0  0  0  0  0  0  0  0
   36.6840   34.6830   39.0290 H   0  0  0  0  0  0  0  0  0  0  0  0
  1 10  1  0  0  0  0
  1  2  1  0  0  0  0
  2 30  1  0  0  0  0
  3  2  2  0  0  0  0
  3 11  1  0  0  0  0
  4  3  1  0  0  0  0
  5 12  1  0  0  0  0
  5  4  1  0  0  0  0
  6  5  1  0  0  0  0
  7  6  2  0  0  0  0
  7  8  1  0  0  0  0
  8  9  1  0  0  0  0
  8  4  2  0  0  0  0
  9  1  2  0  0  0  0
 13  6  1  0  0  0  0
 14 15  1  0  0  0  0
 15  9  1  0  0  0  0
 15 16  2  0  0  0  0
 16 17  1  0  0  0  0
 18 16  1  0  0  0  0
 18 19  1  0  0  0  0
 19 25  1  0  0  0  0
 20 21  1  0  0  0  0
 20 19  1  0  0  0  0
 22 23  1  0  0  0  0
 22 20  2  0  0  0  0
 23 18  2  0  0  0  0
 24 14  2  0  0  0  0
 24 23  1  0  0  0  0
 26 32  1  0  0  0  0
 27 26  1  0  0  0  0
 27 33  1  0  0  0  0
 28 27  2  0  0  0  0
 29 30  2  0  0  0  0
 29 28  1  0  0  0  0
 30 31  1  0  0  0  0
 31 26  2  0  0  0  0
 34 35  1  0  0  0  0
 35 28  1  0  0  0  0
 35 36  2  0  0  0  0
 36 44  1  0  0  0  0
 37 36  1  0  0  0  0
 37 38  1  0  0  0  0
 38 45  1  0  0  0  0
 39 46  1  0  0  0  0
 39 38  1  0  0  0  0
 40 39  2  0  0  0  0
 41 40  1  0  0  0  0
 41 37  2  0  0  0  0
 42 34  2  0  0  0  0
 42 41  1  0  0  0  0
 43 34  1  0  0  0  0
 47 42  1  0  0  0  0
M  END
>  <minimizedAffinity>
-7.60733318

$$$$
