
 OpenBabel03252509163D

 28 31  0  0  0  0  0  0  0  0999 V2000
   45.9190   33.1680   45.9380 C   0  0  0  0  0  0  0  0  0  0  0  0
   45.4710   33.0930   47.2820 C   0  0  0  0  0  0  0  0  0  0  0  0
   46.1480   32.2830   48.1340 C   0  0  0  0  0  0  0  0  0  0  0  0
   47.2670   31.5500   47.6560 C   0  0  0  0  0  0  0  0  0  0  0  0
   47.3520   32.0500   45.8840 S   0  0  0  0  0  0  0  0  0  0  0  0
   44.6140   33.6670   47.6040 H   0  0  0  0  0  0  0  0  0  0  0  0
   45.9140   32.1410   49.1530 H   0  0  0  0  0  0  0  0  0  0  0  0
   48.7910   31.0340   49.4680 C   0  0  0  0  0  3  0  0  0  0  0  0
   48.1340   30.6500   48.3150 C   0  0  0  0  0  0  0  0  0  0  0  0
   48.2860   29.3990   47.7570 C   0  0  0  0  0  0  0  0  0  0  0  0
   47.7860   29.0610   46.8510 H   0  0  0  0  0  0  0  0  0  0  0  0
   49.1390   28.4870   48.3880 C   0  0  0  0  0  0  0  0  0  0  0  0
   49.4650   27.2050   48.0560 N   0  0  0  0  0  0  0  0  0  0  0  0
   50.3350   26.7910   49.0180 C   0  0  0  0  0  0  0  0  0  0  0  0
   50.8270   25.8190   49.1070 H   0  0  0  0  0  0  0  0  0  0  0  0
   50.5300   27.7930   49.9060 N   0  0  0  0  0  0  0  0  0  0  0  0
   49.8000   28.8580   49.5400 C   0  0  0  0  0  0  0  0  0  0  0  0
   49.6290   30.1320   50.0860 C   0  0  0  0  0  3  0  0  0  0  0  0
   49.1360   26.6390   47.2480 H   0  0  0  0  0  0  0  0  0  0  0  0
   44.2780   35.8820   43.9870 C   0  0  0  0  0  0  0  0  0  0  0  0
   44.1390   35.2300   42.7330 C   0  0  0  0  0  0  0  0  0  0  0  0
   44.6090   33.9190   42.6300 C   0  0  0  0  0  0  0  0  0  0  0  0
   45.1750   33.3360   43.7370 N   0  0  0  0  0  0  0  0  0  0  0  0
   45.2840   34.0000   44.9100 C   0  0  0  0  0  0  0  0  0  0  0  0
   44.8380   35.2750   45.0430 N   0  0  0  0  0  0  0  0  0  0  0  0
   43.9250   36.8990   44.1010 H   0  0  0  0  0  0  0  0  0  0  0  0
   43.6930   35.7160   41.8900 H   0  0  0  0  0  0  0  0  0  0  0  0
   44.5400   33.3550   41.7100 H   0  0  0  0  0  0  0  0  0  0  0  0
  1  2  2  0  0  0  0
  2  6  1  0  0  0  0
  2  3  1  0  0  0  0
  3  7  1  0  0  0  0
  4  3  2  0  0  0  0
  4  9  1  0  0  0  0
  5  1  1  0  0  0  0
  5  4  1  0  0  0  0
  8 18  1  0  0  0  0
  9  8  2  0  0  0  0
 10  9  1  0  0  0  0
 10 12  2  0  0  0  0
 11 10  1  0  0  0  0
 12 17  1  0  0  0  0
 13 12  1  0  0  0  0
 13 14  1  0  0  0  0
 14 15  1  0  0  0  0
 14 16  2  0  0  0  0
 17 16  1  0  0  0  0
 17 18  2  0  0  0  0
 19 13  1  0  0  0  0
 20 26  1  0  0  0  0
 20 25  1  0  0  0  0
 21 20  2  0  0  0  0
 22 21  1  0  0  0  0
 22 23  2  0  0  0  0
 23 24  1  0  0  0  0
 24 25  2  0  0  0  0
 24  1  1  0  0  0  0
 27 21  1  0  0  0  0
 28 22  1  0  0  0  0
M  END
>  <minimizedAffinity>
-4.85356426

>  <minimizedRMSD>
1.51046395

$$$$
