
 OpenBabel03252508333D

 35 38  0  0  1  0  0  0  0  0999 V2000
   44.0060   34.3330   41.4680 N   0  0  0  0  0  0  0  0  0  0  0  0
   43.4450   33.2660   40.7060 C   0  0  2  0  0  0  0  0  0  0  0  0
   42.3090   33.7330   39.8270 C   0  0  0  0  0  0  0  0  0  0  0  0
   41.3330   34.4720   40.5660 N   0  0  0  0  0  0  0  0  0  0  0  0
   41.8600   35.4790   41.4030 C   0  0  0  0  0  0  0  0  0  0  0  0
   43.3630   35.6210   41.3030 C   0  0  0  0  0  0  0  0  0  0  0  0
   44.2450   32.8920   40.0200 H   0  0  0  0  0  0  0  0  0  0  0  0
   42.7450   34.4060   39.0600 H   0  0  0  0  0  0  0  0  0  0  0  0
   41.8300   32.8970   39.3190 H   0  0  0  0  0  0  0  0  0  0  0  0
   40.7780   33.7950   41.1460 H   0  0  0  0  0  0  0  0  0  0  0  0
   41.6100   35.4060   42.4800 H   0  0  0  0  0  0  0  0  0  0  0  0
   41.4430   36.4590   41.0460 H   0  0  0  0  0  0  0  0  0  0  0  0
   43.5540   35.9050   40.2280 H   0  0  0  0  0  0  0  0  0  0  0  0
   43.6520   36.3940   41.9990 H   0  0  0  0  0  0  0  0  0  0  0  0
   43.7620   31.1870   42.0880 C   0  0  0  0  0  3  0  0  0  0  0  0
   42.9480   32.1110   41.4590 C   0  0  0  0  0  0  0  0  0  0  0  0
   41.5930   31.8090   41.6530 C   0  0  0  0  0  0  0  0  0  0  0  0
   40.8570   32.4840   41.1920 H   0  0  0  0  0  0  0  0  0  0  0  0
   41.1020   30.7480   42.3670 C   0  0  0  0  0  0  0  0  0  0  0  0
   39.8430   30.3550   42.6240 N   0  0  0  0  0  0  0  0  0  0  0  0
   39.9280   29.2420   43.3750 C   0  0  0  0  0  0  0  0  0  0  0  0
   39.0090   28.7370   43.7110 H   0  0  0  0  0  0  0  0  0  0  0  0
   41.2250   28.9640   43.5730 N   0  0  0  0  0  0  0  0  0  0  0  0
   41.9840   29.8800   42.9600 C   0  0  0  0  0  0  0  0  0  0  0  0
   43.3400   30.0990   42.8210 C   0  0  0  0  0  3  0  0  0  0  0  0
   38.9650   30.8360   42.2920 H   0  0  0  0  0  0  0  0  0  0  0  0
   44.9790   34.2680   43.6770 C   0  0  0  0  0  0  0  0  0  0  0  0
   45.1240   34.0790   42.3100 C   0  0  0  0  0  0  0  0  0  0  0  0
   46.3510   33.6440   41.8580 C   0  0  0  0  0  0  0  0  0  0  0  0
   47.3460   33.4220   42.7440 N   0  0  0  0  0  0  0  0  0  0  0  0
   47.1800   33.6120   44.0660 C   0  0  0  0  0  0  0  0  0  0  0  0
   46.0040   34.0310   44.5160 N   0  0  0  0  0  0  0  0  0  0  0  0
   44.0970   34.6010   44.1980 H   0  0  0  0  0  0  0  0  0  0  0  0
   46.5170   33.4900   40.8130 H   0  0  0  0  0  0  0  0  0  0  0  0
   48.0690   33.3910   44.6490 H   0  0  0  0  0  0  0  0  0  0  0  0
  1 28  1  0  0  0  0
  2  7  1  6  0  0  0
  2 16  1  0  0  0  0
  2  1  1  0  0  0  0
  3  4  1  0  0  0  0
  3  2  1  0  0  0  0
  4 10  1  0  0  0  0
  4  5  1  0  0  0  0
  5 11  1  0  0  0  0
  6  5  1  0  0  0  0
  6  1  1  0  0  0  0
  6 14  1  0  0  0  0
  8  3  1  0  0  0  0
  9  3  1  0  0  0  0
 12  5  1  0  0  0  0
 13  6  1  0  0  0  0
 15 25  1  0  0  0  0
 16 17  1  0  0  0  0
 16 15  2  0  0  0  0
 17 19  2  0  0  0  0
 18 17  1  0  0  0  0
 19 20  1  0  0  0  0
 19 24  1  0  0  0  0
 20 21  1  0  0  0  0
 21 23  2  0  0  0  0
 21 22  1  0  0  0  0
 24 23  1  0  0  0  0
 25 24  2  0  0  0  0
 26 20  1  0  0  0  0
 27 33  1  0  0  0  0
 27 32  1  0  0  0  0
 28 27  2  0  0  0  0
 29 28  1  0  0  0  0
 29 30  2  0  0  0  0
 30 31  1  0  0  0  0
 31 32  2  0  0  0  0
 31 35  1  0  0  0  0
 34 29  1  0  0  0  0
M  END
>  <minimizedAffinity>
-4.22212505

>  <minimizedRMSD>
1.64135861

$$$$
