
 OpenBabel03242522093D

 47 51  0  0  1  0  0  0  0  0999 V2000
   42.0050   29.6080   42.7100 C   0  0  0  0  0  0  0  0  0  0  0  0
   41.8530   30.8240   42.0250 C   0  0  0  0  0  0  0  0  0  0  0  0
   40.5780   31.1900   41.5880 C   0  0  0  0  0  0  0  0  0  0  0  0
   39.5790   30.3140   41.8750 N   0  0  0  0  0  0  0  0  0  0  0  0
   39.7490   29.1580   42.5310 C   0  0  0  0  0  0  0  0  0  0  0  0
   40.9800   28.8070   42.9520 N   0  0  0  0  0  0  0  0  0  0  0  0
   43.0200   29.3900   43.0180 H   0  0  0  0  0  0  0  0  0  0  0  0
   42.6420   31.5000   41.8060 H   0  0  0  0  0  0  0  0  0  0  0  0
   40.2780   32.3930   40.8830 N   0  0  0  0  0  0  0  0  0  0  0  0
   41.0300   32.7440   39.7000 C   0  0  0  0  0  0  0  0  0  0  0  0
   40.9260   34.2230   39.4120 C   0  0  0  0  0  0  0  0  0  0  0  0
   39.6160   34.7370   39.4000 N   0  0  0  0  0  0  0  0  0  0  0  0
   38.7070   34.1930   40.3370 C   0  0  2  0  0  0  0  0  0  0  0  0
   39.2310   33.2530   41.3460 C   0  0  0  0  0  0  0  0  0  0  0  0
   40.6250   32.1510   38.8570 H   0  0  0  0  0  0  0  0  0  0  0  0
   42.0890   32.4790   39.8510 H   0  0  0  0  0  0  0  0  0  0  0  0
   41.4650   34.4220   38.4780 H   0  0  0  0  0  0  0  0  0  0  0  0
   41.5130   34.7670   40.2080 H   0  0  0  0  0  0  0  0  0  0  0  0
   39.2300   34.8570   38.4520 H   0  0  0  0  0  0  0  0  0  0  0  0
   38.2330   35.0490   40.8770 H   0  0  0  0  0  0  0  0  0  0  0  0
   39.5620   33.8180   42.2430 H   0  0  0  0  0  0  0  0  0  0  0  0
   38.3900   32.6180   41.6980 H   0  0  0  0  0  0  0  0  0  0  0  0
   37.5970   33.4950   39.5800 C   0  0  0  0  0  0  0  0  0  0  0  0
   36.9800   32.5530   40.4030 F   0  0  0  0  0  0  0  0  0  0  0  0
   38.2170   32.7690   38.5670 F   0  0  0  0  0  0  0  0  0  0  0  0
   36.6350   34.3380   39.1190 F   0  0  0  0  0  0  0  0  0  0  0  0
   38.6130   28.2870   42.7900 C   0  0  0  0  0  0  0  0  0  0  0  0
   37.7340   28.5860   43.8080 C   0  0  0  0  0  0  0  0  0  0  0  0
   36.6580   27.7170   44.0150 C   0  0  0  0  0  0  0  0  0  0  0  0
   36.5610   26.6310   43.1860 C   0  0  0  0  0  0  0  0  0  0  0  0
   37.4320   26.3330   42.1740 C   0  0  0  0  0  0  0  0  0  0  0  0
   38.4650   27.1850   41.9900 N   0  0  0  0  0  0  0  0  0  0  0  0
   37.8720   29.4620   44.4250 H   0  0  0  0  0  0  0  0  0  0  0  0
   35.9670   27.9240   44.7930 H   0  0  0  0  0  0  0  0  0  0  0  0
   35.7290   25.9680   43.3540 H   0  0  0  0  0  0  0  0  0  0  0  0
   36.6050   25.3390   40.1280 C   0  0  0  0  0  3  0  0  0  0  0  0
   37.3310   25.1780   41.2890 C   0  0  0  0  0  0  0  0  0  0  0  0
   37.9240   23.9750   41.5810 C   0  0  0  0  0  0  0  0  0  0  0  0
   38.4870   23.8320   42.4690 H   0  0  0  0  0  0  0  0  0  0  0  0
   37.7600   22.9540   40.6670 C   0  0  0  0  0  0  0  0  0  0  0  0
   38.2470   21.6960   40.7370 N   0  0  0  0  0  0  0  0  0  0  0  0
   37.8340   21.0550   39.6250 C   0  0  0  0  0  0  0  0  0  0  0  0
   37.9900   20.0460   39.2740 H   0  0  0  0  0  0  0  0  0  0  0  0
   37.0960   21.8650   38.8430 N   0  0  0  0  0  0  0  0  0  0  0  0
   37.0500   23.0600   39.4990 C   0  0  0  0  0  0  0  0  0  0  0  0
   36.4500   24.2920   39.2130 C   0  0  0  0  0  3  0  0  0  0  0  0
   38.8310   21.2520   41.4780 H   0  0  0  0  0  0  0  0  0  0  0  0
  1  6  1  0  0  0  0
  1  7  1  0  0  0  0
  2  1  2  0  0  0  0
  3  4  2  0  0  0  0
  3  2  1  0  0  0  0
  4  5  1  0  0  0  0
  5 27  1  0  0  0  0
  5  6  2  0  0  0  0
  8  2  1  0  0  0  0
  9 14  1  0  0  0  0
  9  3  1  0  0  0  0
 10 16  1  0  0  0  0
 10  9  1  0  0  0  0
 11 10  1  0  0  0  0
 11 18  1  0  0  0  0
 12 11  1  0  0  0  0
 12 13  1  0  0  0  0
 13 20  1  1  0  0  0
 13 14  1  0  0  0  0
 14 22  1  0  0  0  0
 14 21  1  0  0  0  0
 15 10  1  0  0  0  0
 17 11  1  0  0  0  0
 19 12  1  0  0  0  0
 23 13  1  0  0  0  0
 23 24  1  0  0  0  0
 25 23  1  0  0  0  0
 26 23  1  0  0  0  0
 27 28  1  0  0  0  0
 28 29  2  0  0  0  0
 28 33  1  0  0  0  0
 29 34  1  0  0  0  0
 30 35  1  0  0  0  0
 30 29  1  0  0  0  0
 31 30  2  0  0  0  0
 32 31  1  0  0  0  0
 32 27  2  0  0  0  0
 36 37  1  0  0  0  0
 37 38  2  0  0  0  0
 37 31  1  0  0  0  0
 38 39  1  0  0  0  0
 40 41  1  0  0  0  0
 40 38  1  0  0  0  0
 41 47  1  0  0  0  0
 42 41  1  0  0  0  0
 43 42  1  0  0  0  0
 44 45  1  0  0  0  0
 44 42  2  0  0  0  0
 45 40  2  0  0  0  0
 46 45  1  0  0  0  0
 46 36  2  0  0  0  0
M  END
>  <minimizedAffinity>
-7.53592634

$$$$

 OpenBabel03242522093D

 47 51  0  0  1  0  0  0  0  0999 V2000
   36.7270   30.0570   37.1450 C   0  0  0  0  0  0  0  0  0  0  0  0
   36.6150   28.9580   38.0110 C   0  0  0  0  0  0  0  0  0  0  0  0
   37.1160   29.0760   39.3090 C   0  0  0  0  0  0  0  0  0  0  0  0
   37.6790   30.2730   39.6210 N   0  0  0  0  0  0  0  0  0  0  0  0
   37.7750   31.3090   38.7760 C   0  0  0  0  0  0  0  0  0  0  0  0
   37.2910   31.1930   37.5240 N   0  0  0  0  0  0  0  0  0  0  0  0
   36.3190   29.8940   36.1560 H   0  0  0  0  0  0  0  0  0  0  0  0
   36.1730   28.0270   37.7550 H   0  0  0  0  0  0  0  0  0  0  0  0
   37.0690   28.0430   40.2920 N   0  0  0  0  0  0  0  0  0  0  0  0
   37.5410   26.7150   39.9680 C   0  0  0  0  0  0  0  0  0  0  0  0
   36.9580   25.6900   40.9110 C   0  0  0  0  0  0  0  0  0  0  0  0
   37.0840   25.9980   42.2780 N   0  0  0  0  0  0  0  0  0  0  0  0
   36.9590   27.3580   42.6430 C   0  0  2  0  0  0  0  0  0  0  0  0
   36.5550   28.3200   41.5990 C   0  0  0  0  0  0  0  0  0  0  0  0
   38.6460   26.7270   40.0360 H   0  0  0  0  0  0  0  0  0  0  0  0
   37.2460   26.4660   38.9360 H   0  0  0  0  0  0  0  0  0  0  0  0
   37.3920   24.7150   40.6570 H   0  0  0  0  0  0  0  0  0  0  0  0
   35.8600   25.5900   40.6700 H   0  0  0  0  0  0  0  0  0  0  0  0
   37.8610   25.5030   42.7410 H   0  0  0  0  0  0  0  0  0  0  0  0
   36.2090   27.4140   43.4700 H   0  0  0  0  0  0  0  0  0  0  0  0
   35.4480   28.3950   41.5720 H   0  0  0  0  0  0  0  0  0  0  0  0
   36.9070   29.3300   41.9030 H   0  0  0  0  0  0  0  0  0  0  0  0
   38.2760   27.8250   43.2230 C   0  0  0  0  0  0  0  0  0  0  0  0
   38.6830   26.9580   44.2380 F   0  0  0  0  0  0  0  0  0  0  0  0
   38.0160   29.0430   43.8440 F   0  0  0  0  0  0  0  0  0  0  0  0
   39.2810   27.8970   42.3110 F   0  0  0  0  0  0  0  0  0  0  0  0
   38.3970   32.5510   39.2070 C   0  0  0  0  0  0  0  0  0  0  0  0
   37.6180   33.5760   39.7010 C   0  0  0  0  0  0  0  0  0  0  0  0
   38.2650   34.7490   40.1010 C   0  0  0  0  0  0  0  0  0  0  0  0
   39.6280   34.7890   39.9720 C   0  0  0  0  0  0  0  0  0  0  0  0
   40.4030   33.7740   39.4830 C   0  0  0  0  0  0  0  0  0  0  0  0
   39.7590   32.6480   39.1010 N   0  0  0  0  0  0  0  0  0  0  0  0
   36.5460   33.4750   39.7740 H   0  0  0  0  0  0  0  0  0  0  0  0
   37.6880   35.5530   40.4840 H   0  0  0  0  0  0  0  0  0  0  0  0
   40.1160   35.6980   40.2830 H   0  0  0  0  0  0  0  0  0  0  0  0
   42.5910   33.9470   40.5020 C   0  0  0  0  0  3  0  0  0  0  0  0
   41.8540   33.8130   39.3440 C   0  0  0  0  0  0  0  0  0  0  0  0
   42.4780   33.7240   38.1250 C   0  0  0  0  0  0  0  0  0  0  0  0
   41.9270   33.6210   37.2230 H   0  0  0  0  0  0  0  0  0  0  0  0
   43.8570   33.7730   38.1190 C   0  0  0  0  0  0  0  0  0  0  0  0
   44.6820   33.7040   37.0500 N   0  0  0  0  0  0  0  0  0  0  0  0
   45.9410   33.7930   37.5230 C   0  0  0  0  0  0  0  0  0  0  0  0
   46.9000   33.7810   37.0270 H   0  0  0  0  0  0  0  0  0  0  0  0
   45.9490   33.9160   38.8640 N   0  0  0  0  0  0  0  0  0  0  0  0
   44.6370   33.9040   39.2380 C   0  0  0  0  0  0  0  0  0  0  0  0
   43.9900   33.9940   40.4750 C   0  0  0  0  0  3  0  0  0  0  0  0
   44.4490   33.6030   36.0400 H   0  0  0  0  0  0  0  0  0  0  0  0
  1  6  2  0  0  0  0
  1  2  1  0  0  0  0
  2  3  2  0  0  0  0
  3  4  1  0  0  0  0
  3  9  1  0  0  0  0
  5 27  1  0  0  0  0
  5  4  2  0  0  0  0
  6  5  1  0  0  0  0
  7  1  1  0  0  0  0
  8  2  1  0  0  0  0
  9 14  1  0  0  0  0
 10 15  1  0  0  0  0
 10  9  1  0  0  0  0
 10 11  1  0  0  0  0
 11 12  1  0  0  0  0
 12 13  1  0  0  0  0
 12 19  1  0  0  0  0
 13 23  1  0  0  0  0
 13 20  1  1  0  0  0
 14 22  1  0  0  0  0
 14 13  1  0  0  0  0
 16 10  1  0  0  0  0
 17 11  1  0  0  0  0
 18 11  1  0  0  0  0
 21 14  1  0  0  0  0
 23 25  1  0  0  0  0
 23 24  1  0  0  0  0
 26 23  1  0  0  0  0
 27 28  1  0  0  0  0
 28 33  1  0  0  0  0
 28 29  2  0  0  0  0
 29 34  1  0  0  0  0
 30 29  1  0  0  0  0
 30 35  1  0  0  0  0
 31 30  2  0  0  0  0
 32 27  2  0  0  0  0
 32 31  1  0  0  0  0
 37 31  1  0  0  0  0
 37 36  2  0  0  0  0
 38 37  1  0  0  0  0
 39 38  1  0  0  0  0
 40 38  2  0  0  0  0
 40 45  1  0  0  0  0
 41 42  1  0  0  0  0
 41 40  1  0  0  0  0
 42 44  2  0  0  0  0
 43 42  1  0  0  0  0
 44 45  1  0  0  0  0
 45 46  2  0  0  0  0
 46 36  1  0  0  0  0
 47 41  1  0  0  0  0
M  END
>  <minimizedAffinity>
-7.37910461

$$$$

 OpenBabel03242522093D

 47 51  0  0  1  0  0  0  0  0999 V2000
   35.8250   30.4120   40.6880 C   0  0  0  0  0  0  0  0  0  0  0  0
   36.2620   29.1960   41.2340 C   0  0  0  0  0  0  0  0  0  0  0  0
   37.6290   29.0120   41.4500 C   0  0  0  0  0  0  0  0  0  0  0  0
   38.4290   30.0550   41.1030 N   0  0  0  0  0  0  0  0  0  0  0  0
   37.9880   31.2080   40.5820 C   0  0  0  0  0  0  0  0  0  0  0  0
   36.6690   31.3830   40.3750 N   0  0  0  0  0  0  0  0  0  0  0  0
   34.7540   30.4840   40.5480 H   0  0  0  0  0  0  0  0  0  0  0  0
   35.6260   28.3880   41.5020 H   0  0  0  0  0  0  0  0  0  0  0  0
   38.2110   27.8310   41.9980 N   0  0  0  0  0  0  0  0  0  0  0  0
   38.3380   27.6850   43.4310 C   0  0  0  0  0  0  0  0  0  0  0  0
   39.3930   26.6620   43.7790 C   0  0  0  0  0  0  0  0  0  0  0  0
   39.2700   25.4290   43.1120 N   0  0  0  0  0  0  0  0  0  0  0  0
   38.8230   25.4680   41.7710 C   0  0  2  0  0  0  0  0  0  0  0  0
   38.6690   26.7880   41.1300 C   0  0  0  0  0  0  0  0  0  0  0  0
   37.3500   27.3790   43.8250 H   0  0  0  0  0  0  0  0  0  0  0  0
   38.6160   28.6560   43.8720 H   0  0  0  0  0  0  0  0  0  0  0  0
   39.4060   26.5520   44.8700 H   0  0  0  0  0  0  0  0  0  0  0  0
   40.3970   27.1070   43.5200 H   0  0  0  0  0  0  0  0  0  0  0  0
   38.8330   24.6930   43.6850 H   0  0  0  0  0  0  0  0  0  0  0  0
   39.5450   24.8720   41.1610 H   0  0  0  0  0  0  0  0  0  0  0  0
   39.6260   27.0790   40.6470 H   0  0  0  0  0  0  0  0  0  0  0  0
   37.9420   26.6870   40.2960 H   0  0  0  0  0  0  0  0  0  0  0  0
   37.4930   24.7510   41.6870 C   0  0  0  0  0  0  0  0  0  0  0  0
   37.6990   23.3730   41.6170 F   0  0  0  0  0  0  0  0  0  0  0  0
   36.9330   25.1150   40.4650 F   0  0  0  0  0  0  0  0  0  0  0  0
   36.6710   24.9960   42.7420 F   0  0  0  0  0  0  0  0  0  0  0  0
   38.9280   32.2650   40.2430 C   0  0  0  0  0  0  0  0  0  0  0  0
   38.7040   33.5520   40.6820 C   0  0  0  0  0  0  0  0  0  0  0  0
   39.6370   34.5310   40.3290 C   0  0  0  0  0  0  0  0  0  0  0  0
   40.7060   34.1350   39.5700 C   0  0  0  0  0  0  0  0  0  0  0  0
   40.9300   32.8580   39.1320 C   0  0  0  0  0  0  0  0  0  0  0  0
   40.0170   31.9260   39.4840 N   0  0  0  0  0  0  0  0  0  0  0  0
   37.8370   33.7940   41.2790 H   0  0  0  0  0  0  0  0  0  0  0  0
   39.4880   35.5310   40.6540 H   0  0  0  0  0  0  0  0  0  0  0  0
   41.4180   34.8970   39.3020 H   0  0  0  0  0  0  0  0  0  0  0  0
   43.2820   33.0300   38.5860 C   0  0  0  0  0  3  0  0  0  0  0  0
   42.0660   32.4330   38.3230 C   0  0  0  0  0  0  0  0  0  0  0  0
   41.9530   31.4830   37.3400 C   0  0  0  0  0  0  0  0  0  0  0  0
   41.0270   31.0120   37.1230 H   0  0  0  0  0  0  0  0  0  0  0  0
   43.0990   31.1610   36.6400 C   0  0  0  0  0  0  0  0  0  0  0  0
   43.2320   30.2640   35.6390 N   0  0  0  0  0  0  0  0  0  0  0  0
   44.5260   30.2880   35.2620 C   0  0  0  0  0  0  0  0  0  0  0  0
   45.0680   29.7380   34.5070 H   0  0  0  0  0  0  0  0  0  0  0  0
   45.2290   31.1730   35.9940 N   0  0  0  0  0  0  0  0  0  0  0  0
   44.3300   31.7220   36.8610 C   0  0  0  0  0  0  0  0  0  0  0  0
   44.4330   32.6900   37.8670 C   0  0  0  0  0  3  0  0  0  0  0  0
   42.5130   29.6490   35.2020 H   0  0  0  0  0  0  0  0  0  0  0  0
  1  2  1  0  0  0  0
  2  3  2  0  0  0  0
  2  8  1  0  0  0  0
  3  9  1  0  0  0  0
  4  3  1  0  0  0  0
  5  4  2  0  0  0  0
  6  5  1  0  0  0  0
  6  1  2  0  0  0  0
  7  1  1  0  0  0  0
  9 10  1  0  0  0  0
 10 11  1  0  0  0  0
 10 15  1  0  0  0  0
 10 16  1  0  0  0  0
 11 17  1  0  0  0  0
 12 19  1  0  0  0  0
 12 11  1  0  0  0  0
 13 20  1  6  0  0  0
 13 12  1  0  0  0  0
 14 13  1  0  0  0  0
 14  9  1  0  0  0  0
 18 11  1  0  0  0  0
 21 14  1  0  0  0  0
 22 14  1  0  0  0  0
 23 13  1  0  0  0  0
 23 26  1  0  0  0  0
 24 23  1  0  0  0  0
 25 23  1  0  0  0  0
 27  5  1  0  0  0  0
 27 28  1  0  0  0  0
 28 33  1  0  0  0  0
 29 34  1  0  0  0  0
 29 28  2  0  0  0  0
 30 29  1  0  0  0  0
 31 32  1  0  0  0  0
 31 30  2  0  0  0  0
 32 27  2  0  0  0  0
 35 30  1  0  0  0  0
 37 36  1  0  0  0  0
 37 31  1  0  0  0  0
 38 37  2  0  0  0  0
 39 38  1  0  0  0  0
 40 45  2  0  0  0  0
 40 38  1  0  0  0  0
 41 40  1  0  0  0  0
 42 41  1  0  0  0  0
 42 44  2  0  0  0  0
 43 42  1  0  0  0  0
 44 45  1  0  0  0  0
 45 46  1  0  0  0  0
 46 36  2  0  0  0  0
 47 41  1  0  0  0  0
M  END
>  <minimizedAffinity>
-7.14643812

$$$$

 OpenBabel03242522093D

 47 51  0  0  1  0  0  0  0  0999 V2000
   36.2390   29.8750   38.6430 C   0  0  0  0  0  0  0  0  0  0  0  0
   36.6140   28.7940   39.4550 C   0  0  0  0  0  0  0  0  0  0  0  0
   37.6390   28.9800   40.3850 C   0  0  0  0  0  0  0  0  0  0  0  0
   38.1900   30.2220   40.4190 N   0  0  0  0  0  0  0  0  0  0  0  0
   37.8150   31.2400   39.6330 C   0  0  0  0  0  0  0  0  0  0  0  0
   36.8260   31.0580   38.7350 N   0  0  0  0  0  0  0  0  0  0  0  0
   35.4400   29.6580   37.9460 H   0  0  0  0  0  0  0  0  0  0  0  0
   36.1750   27.8270   39.4200 H   0  0  0  0  0  0  0  0  0  0  0  0
   38.1200   27.9730   41.2730 N   0  0  0  0  0  0  0  0  0  0  0  0
   38.0450   28.1730   42.7030 C   0  0  0  0  0  0  0  0  0  0  0  0
   39.0250   27.2810   43.4260 C   0  0  0  0  0  0  0  0  0  0  0  0
   38.9760   25.9230   43.0610 N   0  0  0  0  0  0  0  0  0  0  0  0
   38.7190   25.6350   41.7000 C   0  0  2  0  0  0  0  0  0  0  0  0
   38.6780   26.7620   40.7490 C   0  0  0  0  0  0  0  0  0  0  0  0
   37.0070   27.9520   43.0180 H   0  0  0  0  0  0  0  0  0  0  0  0
   38.2760   29.2260   42.9350 H   0  0  0  0  0  0  0  0  0  0  0  0
   38.8850   27.4320   44.5030 H   0  0  0  0  0  0  0  0  0  0  0  0
   40.0630   27.6680   43.2110 H   0  0  0  0  0  0  0  0  0  0  0  0
   38.4510   25.3360   43.7260 H   0  0  0  0  0  0  0  0  0  0  0  0
   39.5090   24.9230   41.3550 H   0  0  0  0  0  0  0  0  0  0  0  0
   39.6960   26.9470   40.3480 H   0  0  0  0  0  0  0  0  0  0  0  0
   38.0710   26.4530   39.8710 H   0  0  0  0  0  0  0  0  0  0  0  0
   37.4020   24.8950   41.6050 C   0  0  0  0  0  0  0  0  0  0  0  0
   37.6330   23.5230   41.5030 F   0  0  0  0  0  0  0  0  0  0  0  0
   36.8300   25.2770   40.3950 F   0  0  0  0  0  0  0  0  0  0  0  0
   36.5810   25.1000   42.6690 F   0  0  0  0  0  0  0  0  0  0  0  0
   38.4690   32.5340   39.7460 C   0  0  0  0  0  0  0  0  0  0  0  0
   37.7370   33.6480   40.0930 C   0  0  0  0  0  0  0  0  0  0  0  0
   38.4130   34.8680   40.1880 C   0  0  0  0  0  0  0  0  0  0  0  0
   39.7570   34.8620   39.9270 C   0  0  0  0  0  0  0  0  0  0  0  0
   40.4870   33.7570   39.5820 C   0  0  0  0  0  0  0  0  0  0  0  0
   39.8150   32.5880   39.4950 N   0  0  0  0  0  0  0  0  0  0  0  0
   36.6760   33.5800   40.2850 H   0  0  0  0  0  0  0  0  0  0  0  0
   37.8710   35.7410   40.4540 H   0  0  0  0  0  0  0  0  0  0  0  0
   40.2690   35.8070   40.0020 H   0  0  0  0  0  0  0  0  0  0  0  0
   42.7660   33.9710   40.3670 C   0  0  0  0  0  3  0  0  0  0  0  0
   41.9180   33.7470   39.3030 C   0  0  0  0  0  0  0  0  0  0  0  0
   42.4200   33.5260   38.0450 C   0  0  0  0  0  0  0  0  0  0  0  0
   41.7840   33.3520   37.2130 H   0  0  0  0  0  0  0  0  0  0  0  0
   43.7930   33.5400   37.9030 C   0  0  0  0  0  0  0  0  0  0  0  0
   44.5090   33.3480   36.7730 N   0  0  0  0  0  0  0  0  0  0  0  0
   45.8100   33.4500   37.1140 C   0  0  0  0  0  0  0  0  0  0  0  0
   46.7160   33.3670   36.5340 H   0  0  0  0  0  0  0  0  0  0  0  0
   45.9490   33.7000   38.4300 N   0  0  0  0  0  0  0  0  0  0  0  0
   44.6800   33.7570   38.9250 C   0  0  0  0  0  0  0  0  0  0  0  0
   44.1560   33.9800   40.2040 C   0  0  0  0  0  3  0  0  0  0  0  0
   44.1780   33.1570   35.8040 H   0  0  0  0  0  0  0  0  0  0  0  0
  1  6  2  0  0  0  0
  1  2  1  0  0  0  0
  2  3  2  0  0  0  0
  3  4  1  0  0  0  0
  3  9  1  0  0  0  0
  5 27  1  0  0  0  0
  5  4  2  0  0  0  0
  6  5  1  0  0  0  0
  7  1  1  0  0  0  0
  8  2  1  0  0  0  0
  9 10  1  0  0  0  0
 10 16  1  0  0  0  0
 10 15  1  0  0  0  0
 10 11  1  0  0  0  0
 11 17  1  0  0  0  0
 12 11  1  0  0  0  0
 12 19  1  0  0  0  0
 13 20  1  6  0  0  0
 13 12  1  0  0  0  0
 14  9  1  0  0  0  0
 14 13  1  0  0  0  0
 18 11  1  0  0  0  0
 21 14  1  0  0  0  0
 22 14  1  0  0  0  0
 23 13  1  0  0  0  0
 23 26  1  0  0  0  0
 24 23  1  0  0  0  0
 25 23  1  0  0  0  0
 27 28  1  0  0  0  0
 28 29  2  0  0  0  0
 28 33  1  0  0  0  0
 29 34  1  0  0  0  0
 30 35  1  0  0  0  0
 30 29  1  0  0  0  0
 31 30  2  0  0  0  0
 32 31  1  0  0  0  0
 32 27  2  0  0  0  0
 37 31  1  0  0  0  0
 37 36  2  0  0  0  0
 38 37  1  0  0  0  0
 39 38  1  0  0  0  0
 40 38  2  0  0  0  0
 40 45  1  0  0  0  0
 41 42  1  0  0  0  0
 41 40  1  0  0  0  0
 42 44  2  0  0  0  0
 43 42  1  0  0  0  0
 44 45  1  0  0  0  0
 45 46  2  0  0  0  0
 46 36  1  0  0  0  0
 47 41  1  0  0  0  0
M  END
>  <minimizedAffinity>
-7.10181665

$$$$

 OpenBabel03242522093D

 47 51  0  0  1  0  0  0  0  0999 V2000
   36.9450   31.9910   39.5730 C   0  0  0  0  0  0  0  0  0  0  0  0
   38.1500   32.7100   39.5720 C   0  0  0  0  0  0  0  0  0  0  0  0
   39.2090   32.2400   40.3520 C   0  0  0  0  0  0  0  0  0  0  0  0
   38.9680   31.1020   41.0550 N   0  0  0  0  0  0  0  0  0  0  0  0
   37.8080   30.4330   41.0400 C   0  0  0  0  0  0  0  0  0  0  0  0
   36.7870   30.8880   40.2880 N   0  0  0  0  0  0  0  0  0  0  0  0
   36.1690   32.4140   38.9470 H   0  0  0  0  0  0  0  0  0  0  0  0
   38.3270   33.5980   39.0170 H   0  0  0  0  0  0  0  0  0  0  0  0
   40.4880   32.8670   40.4440 N   0  0  0  0  0  0  0  0  0  0  0  0
   41.5590   32.2190   41.1670 C   0  0  0  0  0  0  0  0  0  0  0  0
   42.6140   33.2180   41.5770 C   0  0  0  0  0  0  0  0  0  0  0  0
   43.0780   34.0550   40.5450 N   0  0  0  0  0  0  0  0  0  0  0  0
   42.1270   34.4740   39.5860 C   0  0  2  0  0  0  0  0  0  0  0  0
   40.7090   34.1370   39.8220 C   0  0  0  0  0  0  0  0  0  0  0  0
   41.9900   31.4440   40.5040 H   0  0  0  0  0  0  0  0  0  0  0  0
   41.1490   31.7350   42.0680 H   0  0  0  0  0  0  0  0  0  0  0  0
   43.4260   32.6670   42.0680 H   0  0  0  0  0  0  0  0  0  0  0  0
   42.1730   33.8670   42.3880 H   0  0  0  0  0  0  0  0  0  0  0  0
   43.9800   33.7560   40.1470 H   0  0  0  0  0  0  0  0  0  0  0  0
   42.2060   35.5860   39.5020 H   0  0  0  0  0  0  0  0  0  0  0  0
   40.2290   34.9460   40.4110 H   0  0  0  0  0  0  0  0  0  0  0  0
   40.1840   34.1400   38.8430 H   0  0  0  0  0  0  0  0  0  0  0  0
   42.5220   33.9110   38.2380 C   0  0  0  0  0  0  0  0  0  0  0  0
   43.3950   32.8360   38.4090 F   0  0  0  0  0  0  0  0  0  0  0  0
   43.2620   34.9050   37.6050 F   0  0  0  0  0  0  0  0  0  0  0  0
   41.4690   33.4770   37.4960 F   0  0  0  0  0  0  0  0  0  0  0  0
   37.6490   29.2220   41.8310 C   0  0  0  0  0  0  0  0  0  0  0  0
   37.6040   29.2990   43.2060 C   0  0  0  0  0  0  0  0  0  0  0  0
   37.4490   28.1070   43.9190 C   0  0  0  0  0  0  0  0  0  0  0  0
   37.3550   26.9490   43.1930 C   0  0  0  0  0  0  0  0  0  0  0  0
   37.3990   26.8700   41.8280 C   0  0  0  0  0  0  0  0  0  0  0  0
   37.5490   28.0340   41.1570 N   0  0  0  0  0  0  0  0  0  0  0  0
   37.6850   30.2480   43.7140 H   0  0  0  0  0  0  0  0  0  0  0  0
   37.4120   28.1380   44.9800 H   0  0  0  0  0  0  0  0  0  0  0  0
   37.2370   26.0360   43.7520 H   0  0  0  0  0  0  0  0  0  0  0  0
   36.6230   25.7090   39.8520 C   0  0  0  0  0  3  0  0  0  0  0  0
   37.2990   25.6400   41.0520 C   0  0  0  0  0  0  0  0  0  0  0  0
   37.8460   24.4560   41.4780 C   0  0  0  0  0  0  0  0  0  0  0  0
   38.3700   24.3830   42.3980 H   0  0  0  0  0  0  0  0  0  0  0  0
   37.6870   23.3580   40.6570 C   0  0  0  0  0  0  0  0  0  0  0  0
   38.1350   22.0990   40.8640 N   0  0  0  0  0  0  0  0  0  0  0  0
   37.7450   21.3670   39.8010 C   0  0  0  0  0  0  0  0  0  0  0  0
   37.8860   20.3260   39.5520 H   0  0  0  0  0  0  0  0  0  0  0  0
   37.0620   22.1190   38.9170 N   0  0  0  0  0  0  0  0  0  0  0  0
   37.0260   23.3710   39.4570 C   0  0  0  0  0  0  0  0  0  0  0  0
   36.4720   24.5840   39.0330 C   0  0  0  0  0  3  0  0  0  0  0  0
   38.6760   21.7130   41.6660 H   0  0  0  0  0  0  0  0  0  0  0  0
  1  6  1  0  0  0  0
  2  1  2  0  0  0  0
  2  3  1  0  0  0  0
  3  9  1  0  0  0  0
  3  4  2  0  0  0  0
  5  4  1  0  0  0  0
  5 27  1  0  0  0  0
  6  5  2  0  0  0  0
  7  1  1  0  0  0  0
  8  2  1  0  0  0  0
  9 10  1  0  0  0  0
 10 11  1  0  0  0  0
 10 16  1  0  0  0  0
 11 17  1  0  0  0  0
 11 18  1  0  0  0  0
 12 11  1  0  0  0  0
 13 20  1  6  0  0  0
 13 14  1  0  0  0  0
 13 12  1  0  0  0  0
 14 21  1  0  0  0  0
 14  9  1  0  0  0  0
 15 10  1  0  0  0  0
 19 12  1  0  0  0  0
 22 14  1  0  0  0  0
 23 24  1  0  0  0  0
 23 13  1  0  0  0  0
 25 23  1  0  0  0  0
 26 23  1  0  0  0  0
 27 28  1  0  0  0  0
 28 33  1  0  0  0  0
 28 29  2  0  0  0  0
 29 34  1  0  0  0  0
 30 35  1  0  0  0  0
 30 29  1  0  0  0  0
 31 30  2  0  0  0  0
 32 31  1  0  0  0  0
 32 27  2  0  0  0  0
 36 37  1  0  0  0  0
 37 38  2  0  0  0  0
 37 31  1  0  0  0  0
 38 39  1  0  0  0  0
 40 41  1  0  0  0  0
 40 38  1  0  0  0  0
 41 47  1  0  0  0  0
 42 41  1  0  0  0  0
 43 42  1  0  0  0  0
 44 45  1  0  0  0  0
 44 42  2  0  0  0  0
 45 40  2  0  0  0  0
 46 45  1  0  0  0  0
 46 36  2  0  0  0  0
M  END
>  <minimizedAffinity>
-7.03159046

$$$$

 OpenBabel03242522093D

 47 51  0  0  1  0  0  0  0  0999 V2000
   36.2440   24.3320   39.5900 C   0  0  0  0  0  0  0  0  0  0  0  0
   36.1010   24.7240   38.2500 C   0  0  0  0  0  0  0  0  0  0  0  0
   36.3400   26.0580   37.9130 C   0  0  0  0  0  0  0  0  0  0  0  0
   36.6990   26.8730   38.9400 N   0  0  0  0  0  0  0  0  0  0  0  0
   36.8290   26.4760   40.2130 C   0  0  0  0  0  0  0  0  0  0  0  0
   36.5980   25.1880   40.5360 N   0  0  0  0  0  0  0  0  0  0  0  0
   36.0420   23.2850   39.7770 H   0  0  0  0  0  0  0  0  0  0  0  0
   35.8200   24.0760   37.4550 H   0  0  0  0  0  0  0  0  0  0  0  0
   36.2340   26.5920   36.5950 N   0  0  0  0  0  0  0  0  0  0  0  0
   35.1670   26.1560   35.7220 C   0  0  0  0  0  0  0  0  0  0  0  0
   35.5090   26.4230   34.2760 C   0  0  0  0  0  0  0  0  0  0  0  0
   35.9420   27.7330   33.9980 N   0  0  0  0  0  0  0  0  0  0  0  0
   36.7400   28.3650   34.9800 C   0  0  2  0  0  0  0  0  0  0  0  0
   37.1820   27.5610   36.1360 C   0  0  0  0  0  0  0  0  0  0  0  0
   34.2500   26.7010   36.0150 H   0  0  0  0  0  0  0  0  0  0  0  0
   35.0030   25.0750   35.8610 H   0  0  0  0  0  0  0  0  0  0  0  0
   34.6460   26.1270   33.6670 H   0  0  0  0  0  0  0  0  0  0  0  0
   36.3310   25.7080   33.9820 H   0  0  0  0  0  0  0  0  0  0  0  0
   35.2070   28.3330   33.5960 H   0  0  0  0  0  0  0  0  0  0  0  0
   37.6510   28.7590   34.4660 H   0  0  0  0  0  0  0  0  0  0  0  0
   38.1510   27.0730   35.8990 H   0  0  0  0  0  0  0  0  0  0  0  0
   37.4050   28.2540   36.9750 H   0  0  0  0  0  0  0  0  0  0  0  0
   35.9890   29.5680   35.5080 C   0  0  0  0  0  0  0  0  0  0  0  0
   34.6620   29.5280   35.0780 F   0  0  0  0  0  0  0  0  0  0  0  0
   36.5560   30.6800   34.8910 F   0  0  0  0  0  0  0  0  0  0  0  0
   35.9830   29.6580   36.8650 F   0  0  0  0  0  0  0  0  0  0  0  0
   37.2190   27.4280   41.2420 C   0  0  0  0  0  0  0  0  0  0  0  0
   37.2720   27.0330   42.5610 C   0  0  0  0  0  0  0  0  0  0  0  0
   37.6520   27.9860   43.5100 C   0  0  0  0  0  0  0  0  0  0  0  0
   37.9430   29.2440   43.0550 C   0  0  0  0  0  0  0  0  0  0  0  0
   37.8910   29.6390   41.7460 C   0  0  0  0  0  0  0  0  0  0  0  0
   37.5210   28.7030   40.8430 N   0  0  0  0  0  0  0  0  0  0  0  0
   37.0280   26.0210   42.8500 H   0  0  0  0  0  0  0  0  0  0  0  0
   37.7010   27.7070   44.5340 H   0  0  0  0  0  0  0  0  0  0  0  0
   38.2340   29.9710   43.7940 H   0  0  0  0  0  0  0  0  0  0  0  0
   37.2210   31.6190   40.5260 C   0  0  0  0  0  3  0  0  0  0  0  0
   38.1990   30.9780   41.2570 C   0  0  0  0  0  0  0  0  0  0  0  0
   39.4030   31.5900   41.5010 C   0  0  0  0  0  0  0  0  0  0  0  0
   40.1680   31.1120   42.0610 H   0  0  0  0  0  0  0  0  0  0  0  0
   39.5800   32.8580   40.9870 C   0  0  0  0  0  0  0  0  0  0  0  0
   40.6690   33.6510   41.0980 N   0  0  0  0  0  0  0  0  0  0  0  0
   40.3880   34.7940   40.4400 C   0  0  0  0  0  0  0  0  0  0  0  0
   40.9650   35.6920   40.2760 H   0  0  0  0  0  0  0  0  0  0  0  0
   39.1500   34.7590   39.9120 N   0  0  0  0  0  0  0  0  0  0  0  0
   38.6420   33.5410   40.2560 C   0  0  0  0  0  0  0  0  0  0  0  0
   37.4180   32.9070   40.0140 C   0  0  0  0  0  3  0  0  0  0  0  0
   41.5740   33.4680   41.5810 H   0  0  0  0  0  0  0  0  0  0  0  0
  1  7  1  0  0  0  0
  1  6  1  0  0  0  0
  2  1  2  0  0  0  0
  3  2  1  0  0  0  0
  3  4  2  0  0  0  0
  4  5  1  0  0  0  0
  5  6  2  0  0  0  0
  5 27  1  0  0  0  0
  8  2  1  0  0  0  0
  9  3  1  0  0  0  0
 10 16  1  0  0  0  0
 10 15  1  0  0  0  0
 10  9  1  0  0  0  0
 11 10  1  0  0  0  0
 12 11  1  0  0  0  0
 12 13  1  0  0  0  0
 13 20  1  6  0  0  0
 13 23  1  0  0  0  0
 13 14  1  0  0  0  0
 14  9  1  0  0  0  0
 14 22  1  0  0  0  0
 17 11  1  0  0  0  0
 18 11  1  0  0  0  0
 19 12  1  0  0  0  0
 21 14  1  0  0  0  0
 23 26  1  0  0  0  0
 24 23  1  0  0  0  0
 25 23  1  0  0  0  0
 27 28  1  0  0  0  0
 28 33  1  0  0  0  0
 28 29  2  0  0  0  0
 29 34  1  0  0  0  0
 30 29  1  0  0  0  0
 30 35  1  0  0  0  0
 31 30  2  0  0  0  0
 32 27  2  0  0  0  0
 32 31  1  0  0  0  0
 36 37  1  0  0  0  0
 37 38  2  0  0  0  0
 37 31  1  0  0  0  0
 38 39  1  0  0  0  0
 40 41  1  0  0  0  0
 40 38  1  0  0  0  0
 41 47  1  0  0  0  0
 42 41  1  0  0  0  0
 43 42  1  0  0  0  0
 44 45  1  0  0  0  0
 44 42  2  0  0  0  0
 45 40  2  0  0  0  0
 46 45  1  0  0  0  0
 46 36  2  0  0  0  0
M  END
>  <minimizedAffinity>
-6.87383842

$$$$

 OpenBabel03242522093D

 47 51  0  0  1  0  0  0  0  0999 V2000
   35.4130   29.2270   40.5330 C   0  0  0  0  0  0  0  0  0  0  0  0
   36.1690   30.2490   39.9370 C   0  0  0  0  0  0  0  0  0  0  0  0
   37.5600   30.1300   39.9250 C   0  0  0  0  0  0  0  0  0  0  0  0
   38.0650   29.0090   40.5050 N   0  0  0  0  0  0  0  0  0  0  0  0
   37.3220   28.0480   41.0690 C   0  0  0  0  0  0  0  0  0  0  0  0
   35.9800   28.1630   41.0790 N   0  0  0  0  0  0  0  0  0  0  0  0
   34.3420   29.3860   40.5050 H   0  0  0  0  0  0  0  0  0  0  0  0
   35.7630   31.1210   39.4860 H   0  0  0  0  0  0  0  0  0  0  0  0
   38.4500   31.0890   39.3550 N   0  0  0  0  0  0  0  0  0  0  0  0
   38.2140   31.5890   38.0200 C   0  0  0  0  0  0  0  0  0  0  0  0
   39.4780   32.1630   37.4260 C   0  0  0  0  0  0  0  0  0  0  0  0
   40.1560   33.0850   38.2440 N   0  0  0  0  0  0  0  0  0  0  0  0
   40.1510   32.8310   39.6350 C   0  0  2  0  0  0  0  0  0  0  0  0
   39.5770   31.5550   40.1040 C   0  0  0  0  0  0  0  0  0  0  0  0
   37.4260   32.3640   38.0870 H   0  0  0  0  0  0  0  0  0  0  0  0
   37.8550   30.7660   37.3810 H   0  0  0  0  0  0  0  0  0  0  0  0
   39.2280   32.5770   36.4410 H   0  0  0  0  0  0  0  0  0  0  0  0
   40.1750   31.3020   37.2100 H   0  0  0  0  0  0  0  0  0  0  0  0
   39.9790   34.0680   37.9900 H   0  0  0  0  0  0  0  0  0  0  0  0
   41.2100   32.8820   39.9880 H   0  0  0  0  0  0  0  0  0  0  0  0
   40.3720   30.7800   40.1320 H   0  0  0  0  0  0  0  0  0  0  0  0
   39.2620   31.6840   41.1620 H   0  0  0  0  0  0  0  0  0  0  0  0
   39.4120   33.9570   40.3270 C   0  0  0  0  0  0  0  0  0  0  0  0
   40.3250   34.8430   40.9000 F   0  0  0  0  0  0  0  0  0  0  0  0
   38.7270   33.3750   41.3900 F   0  0  0  0  0  0  0  0  0  0  0  0
   38.6030   34.6700   39.5000 F   0  0  0  0  0  0  0  0  0  0  0  0
   37.9590   26.8840   41.6660 C   0  0  0  0  0  0  0  0  0  0  0  0
   37.2570   25.7050   41.7950 C   0  0  0  0  0  0  0  0  0  0  0  0
   37.9150   24.6170   42.3750 C   0  0  0  0  0  0  0  0  0  0  0  0
   39.2120   24.8060   42.7720 C   0  0  0  0  0  0  0  0  0  0  0  0
   39.9110   25.9750   42.6450 C   0  0  0  0  0  0  0  0  0  0  0  0
   39.2570   27.0160   42.0820 N   0  0  0  0  0  0  0  0  0  0  0  0
   36.2340   25.6260   41.4600 H   0  0  0  0  0  0  0  0  0  0  0  0
   37.3960   23.6970   42.4870 H   0  0  0  0  0  0  0  0  0  0  0  0
   39.7090   23.9620   43.2190 H   0  0  0  0  0  0  0  0  0  0  0  0
   41.6300   27.4420   43.5130 C   0  0  0  0  0  3  0  0  0  0  0  0
   41.2920   26.1810   43.0670 C   0  0  0  0  0  0  0  0  0  0  0  0
   42.2290   25.1800   43.0290 C   0  0  0  0  0  0  0  0  0  0  0  0
   41.9880   24.2030   42.6900 H   0  0  0  0  0  0  0  0  0  0  0  0
   43.5040   25.4940   43.4540 C   0  0  0  0  0  0  0  0  0  0  0  0
   44.5810   24.6800   43.5080 N   0  0  0  0  0  0  0  0  0  0  0  0
   45.6040   25.4180   43.9860 C   0  0  0  0  0  0  0  0  0  0  0  0
   46.6350   25.1740   44.1900 H   0  0  0  0  0  0  0  0  0  0  0  0
   45.2140   26.6810   44.2420 N   0  0  0  0  0  0  0  0  0  0  0  0
   43.8920   26.7280   43.9060 C   0  0  0  0  0  0  0  0  0  0  0  0
   42.9280   27.7420   43.9400 C   0  0  0  0  0  3  0  0  0  0  0  0
   44.6650   23.6750   43.2460 H   0  0  0  0  0  0  0  0  0  0  0  0
  1  6  1  0  0  0  0
  2  1  2  0  0  0  0
  3  2  1  0  0  0  0
  3  4  2  0  0  0  0
  4  5  1  0  0  0  0
  5  6  2  0  0  0  0
  5 27  1  0  0  0  0
  7  1  1  0  0  0  0
  8  2  1  0  0  0  0
  9  3  1  0  0  0  0
  9 14  1  0  0  0  0
 10 15  1  0  0  0  0
 10  9  1  0  0  0  0
 11 10  1  0  0  0  0
 11 12  1  0  0  0  0
 12 13  1  0  0  0  0
 13 20  1  1  0  0  0
 13 14  1  0  0  0  0
 13 23  1  0  0  0  0
 14 21  1  0  0  0  0
 14 22  1  0  0  0  0
 16 10  1  0  0  0  0
 17 11  1  0  0  0  0
 18 11  1  0  0  0  0
 19 12  1  0  0  0  0
 23 24  1  0  0  0  0
 23 25  1  0  0  0  0
 26 23  1  0  0  0  0
 27 28  2  0  0  0  0
 27 32  1  0  0  0  0
 28 29  1  0  0  0  0
 29 34  1  0  0  0  0
 29 30  2  0  0  0  0
 30 35  1  0  0  0  0
 31 30  1  0  0  0  0
 31 37  1  0  0  0  0
 32 31  2  0  0  0  0
 33 28  1  0  0  0  0
 36 46  1  0  0  0  0
 37 36  2  0  0  0  0
 38 37  1  0  0  0  0
 38 40  2  0  0  0  0
 39 38  1  0  0  0  0
 40 41  1  0  0  0  0
 40 45  1  0  0  0  0
 41 42  1  0  0  0  0
 42 43  1  0  0  0  0
 42 44  2  0  0  0  0
 45 46  2  0  0  0  0
 45 44  1  0  0  0  0
 47 41  1  0  0  0  0
M  END
>  <minimizedAffinity>
-6.84860277

$$$$

 OpenBabel03242522093D

 47 51  0  0  1  0  0  0  0  0999 V2000
   42.2510   29.8050   42.7190 C   0  0  0  0  0  0  0  0  0  0  0  0
   42.3080   30.5860   41.5540 C   0  0  0  0  0  0  0  0  0  0  0  0
   41.2020   30.5970   40.7020 C   0  0  0  0  0  0  0  0  0  0  0  0
   40.1470   29.8330   41.0890 N   0  0  0  0  0  0  0  0  0  0  0  0
   40.1160   29.0940   42.2070 C   0  0  0  0  0  0  0  0  0  0  0  0
   41.1840   29.0850   43.0280 N   0  0  0  0  0  0  0  0  0  0  0  0
   43.1430   29.8450   43.3310 H   0  0  0  0  0  0  0  0  0  0  0  0
   43.1390   31.1800   41.2620 H   0  0  0  0  0  0  0  0  0  0  0  0
   41.1220   31.3440   39.4890 N   0  0  0  0  0  0  0  0  0  0  0  0
   39.8500   31.8680   39.0460 C   0  0  0  0  0  0  0  0  0  0  0  0
   39.8720   32.1600   37.5650 C   0  0  0  0  0  0  0  0  0  0  0  0
   40.9650   32.9310   37.1250 N   0  0  0  0  0  0  0  0  0  0  0  0
   42.2070   32.6990   37.7590 C   0  0  2  0  0  0  0  0  0  0  0  0
   42.3010   31.5740   38.7100 C   0  0  0  0  0  0  0  0  0  0  0  0
   39.6480   32.7900   39.6240 H   0  0  0  0  0  0  0  0  0  0  0  0
   39.0590   31.1300   39.2570 H   0  0  0  0  0  0  0  0  0  0  0  0
   38.9070   32.6070   37.2960 H   0  0  0  0  0  0  0  0  0  0  0  0
   39.8950   31.1710   37.0220 H   0  0  0  0  0  0  0  0  0  0  0  0
   40.7370   33.9260   36.9870 H   0  0  0  0  0  0  0  0  0  0  0  0
   42.9660   32.5330   36.9550 H   0  0  0  0  0  0  0  0  0  0  0  0
   42.5920   30.6520   38.1660 H   0  0  0  0  0  0  0  0  0  0  0  0
   43.1430   31.7780   39.4060 H   0  0  0  0  0  0  0  0  0  0  0  0
   42.6200   33.9600   38.4860 C   0  0  0  0  0  0  0  0  0  0  0  0
   41.5890   34.9000   38.4320 F   0  0  0  0  0  0  0  0  0  0  0  0
   43.6700   34.5050   37.7520 F   0  0  0  0  0  0  0  0  0  0  0  0
   42.9330   33.7610   39.7940 F   0  0  0  0  0  0  0  0  0  0  0  0
   38.9370   28.3080   42.5330 C   0  0  0  0  0  0  0  0  0  0  0  0
   38.1070   28.7050   43.5590 C   0  0  0  0  0  0  0  0  0  0  0  0
   36.9870   27.9140   43.8330 C   0  0  0  0  0  0  0  0  0  0  0  0
   36.8000   26.8010   43.0570 C   0  0  0  0  0  0  0  0  0  0  0  0
   37.6230   26.4040   42.0380 C   0  0  0  0  0  0  0  0  0  0  0  0
   38.7000   27.1820   41.7900 N   0  0  0  0  0  0  0  0  0  0  0  0
   38.3150   29.5960   44.1320 H   0  0  0  0  0  0  0  0  0  0  0  0
   36.3310   28.1980   44.6180 H   0  0  0  0  0  0  0  0  0  0  0  0
   35.9350   26.1980   43.2760 H   0  0  0  0  0  0  0  0  0  0  0  0
   36.5860   25.3460   40.1240 C   0  0  0  0  0  3  0  0  0  0  0  0
   37.4280   25.2200   41.2100 C   0  0  0  0  0  0  0  0  0  0  0  0
   38.0430   24.0240   41.4820 C   0  0  0  0  0  0  0  0  0  0  0  0
   38.6940   23.9080   42.3120 H   0  0  0  0  0  0  0  0  0  0  0  0
   37.7820   22.9730   40.6260 C   0  0  0  0  0  0  0  0  0  0  0  0
   38.2690   21.7140   40.6910 N   0  0  0  0  0  0  0  0  0  0  0  0
   37.7410   21.0380   39.6510 C   0  0  0  0  0  0  0  0  0  0  0  0
   37.8560   20.0160   39.3220 H   0  0  0  0  0  0  0  0  0  0  0  0
   36.9300   21.8260   38.9200 N   0  0  0  0  0  0  0  0  0  0  0  0
   36.9560   23.0430   39.5350 C   0  0  0  0  0  0  0  0  0  0  0  0
   36.3340   24.2680   39.2680 C   0  0  0  0  0  3  0  0  0  0  0  0
   38.9240   21.2920   41.3830 H   0  0  0  0  0  0  0  0  0  0  0  0
  1  6  1  0  0  0  0
  1  7  1  0  0  0  0
  2  1  2  0  0  0  0
  3  4  2  0  0  0  0
  3  2  1  0  0  0  0
  4  5  1  0  0  0  0
  5 27  1  0  0  0  0
  5  6  2  0  0  0  0
  8  2  1  0  0  0  0
  9  3  1  0  0  0  0
 10 16  1  0  0  0  0
 10  9  1  0  0  0  0
 10 15  1  0  0  0  0
 11 10  1  0  0  0  0
 12 11  1  0  0  0  0
 12 13  1  0  0  0  0
 13 20  1  6  0  0  0
 13 23  1  0  0  0  0
 13 14  1  0  0  0  0
 14 22  1  0  0  0  0
 14  9  1  0  0  0  0
 17 11  1  0  0  0  0
 18 11  1  0  0  0  0
 19 12  1  0  0  0  0
 21 14  1  0  0  0  0
 23 26  1  0  0  0  0
 24 23  1  0  0  0  0
 25 23  1  0  0  0  0
 27 28  1  0  0  0  0
 28 29  2  0  0  0  0
 28 33  1  0  0  0  0
 29 34  1  0  0  0  0
 30 35  1  0  0  0  0
 30 29  1  0  0  0  0
 31 30  2  0  0  0  0
 32 31  1  0  0  0  0
 32 27  2  0  0  0  0
 36 37  1  0  0  0  0
 37 38  2  0  0  0  0
 37 31  1  0  0  0  0
 38 39  1  0  0  0  0
 40 41  1  0  0  0  0
 40 38  1  0  0  0  0
 41 47  1  0  0  0  0
 42 41  1  0  0  0  0
 43 42  1  0  0  0  0
 44 45  1  0  0  0  0
 44 42  2  0  0  0  0
 45 40  2  0  0  0  0
 46 45  1  0  0  0  0
 46 36  2  0  0  0  0
M  END
>  <minimizedAffinity>
-6.78493023

$$$$

 OpenBabel03242522093D

 47 51  0  0  1  0  0  0  0  0999 V2000
   41.8930   30.0980   42.9950 C   0  0  0  0  0  0  0  0  0  0  0  0
   41.1120   31.0990   42.3970 C   0  0  0  0  0  0  0  0  0  0  0  0
   39.8830   30.7430   41.8380 C   0  0  0  0  0  0  0  0  0  0  0  0
   39.5490   29.4280   41.9280 N   0  0  0  0  0  0  0  0  0  0  0  0
   40.3120   28.4900   42.5040 C   0  0  0  0  0  0  0  0  0  0  0  0
   41.4980   28.8350   43.0430 N   0  0  0  0  0  0  0  0  0  0  0  0
   42.8320   30.4460   43.4060 H   0  0  0  0  0  0  0  0  0  0  0  0
   41.3840   32.1240   42.3330 H   0  0  0  0  0  0  0  0  0  0  0  0
   38.9880   31.6540   41.2010 N   0  0  0  0  0  0  0  0  0  0  0  0
   39.4690   32.9370   40.7420 C   0  0  0  0  0  0  0  0  0  0  0  0
   38.3300   33.9140   40.5790 C   0  0  0  0  0  0  0  0  0  0  0  0
   37.2390   33.4390   39.8290 N   0  0  0  0  0  0  0  0  0  0  0  0
   36.9040   32.0730   39.9810 C   0  0  2  0  0  0  0  0  0  0  0  0
   37.6140   31.2970   41.0170 C   0  0  0  0  0  0  0  0  0  0  0  0
   39.9880   32.7740   39.7770 H   0  0  0  0  0  0  0  0  0  0  0  0
   40.1890   33.3390   41.4740 H   0  0  0  0  0  0  0  0  0  0  0  0
   38.7430   34.8470   40.1760 H   0  0  0  0  0  0  0  0  0  0  0  0
   37.9610   34.1830   41.6110 H   0  0  0  0  0  0  0  0  0  0  0  0
   37.2340   33.7720   38.8530 H   0  0  0  0  0  0  0  0  0  0  0  0
   35.8100   32.0210   40.2020 H   0  0  0  0  0  0  0  0  0  0  0  0
   37.0620   31.3700   41.9780 H   0  0  0  0  0  0  0  0  0  0  0  0
   37.5680   30.2230   40.7370 H   0  0  0  0  0  0  0  0  0  0  0  0
   37.1100   31.3760   38.6530 C   0  0  0  0  0  0  0  0  0  0  0  0
   38.2630   30.5920   38.7010 F   0  0  0  0  0  0  0  0  0  0  0  0
   37.3700   32.3810   37.7250 F   0  0  0  0  0  0  0  0  0  0  0  0
   36.0750   30.5720   38.2910 F   0  0  0  0  0  0  0  0  0  0  0  0
   39.8650   27.1060   42.5490 C   0  0  0  0  0  0  0  0  0  0  0  0
   40.4000   26.2400   43.4770 C   0  0  0  0  0  0  0  0  0  0  0  0
   39.9360   24.9210   43.4790 C   0  0  0  0  0  0  0  0  0  0  0  0
   38.9820   24.5900   42.5540 C   0  0  0  0  0  0  0  0  0  0  0  0
   38.4490   25.4490   41.6310 C   0  0  0  0  0  0  0  0  0  0  0  0
   38.9110   26.7190   41.6460 N   0  0  0  0  0  0  0  0  0  0  0  0
   41.1520   26.5690   44.1790 H   0  0  0  0  0  0  0  0  0  0  0  0
   40.3330   24.2330   44.1830 H   0  0  0  0  0  0  0  0  0  0  0  0
   38.6320   23.5720   42.5620 H   0  0  0  0  0  0  0  0  0  0  0  0
   36.8010   23.8850   40.7980 C   0  0  0  0  0  3  0  0  0  0  0  0
   37.4330   25.1010   40.6450 C   0  0  0  0  0  0  0  0  0  0  0  0
   37.1070   25.9310   39.6020 C   0  0  0  0  0  0  0  0  0  0  0  0
   37.5820   26.8700   39.4670 H   0  0  0  0  0  0  0  0  0  0  0  0
   36.1290   25.4930   38.7320 C   0  0  0  0  0  0  0  0  0  0  0  0
   35.6440   26.1320   37.6440 N   0  0  0  0  0  0  0  0  0  0  0  0
   34.7070   25.3280   37.1040 C   0  0  0  0  0  0  0  0  0  0  0  0
   34.0730   25.4400   36.2370 H   0  0  0  0  0  0  0  0  0  0  0  0
   34.5740   24.1920   37.8150 N   0  0  0  0  0  0  0  0  0  0  0  0
   35.4690   24.2970   38.8380 C   0  0  0  0  0  0  0  0  0  0  0  0
   35.8110   23.4580   39.9060 C   0  0  0  0  0  3  0  0  0  0  0  0
   35.9060   27.0620   37.2510 H   0  0  0  0  0  0  0  0  0  0  0  0
  1  6  1  0  0  0  0
  1  7  1  0  0  0  0
  2  1  2  0  0  0  0
  3  4  2  0  0  0  0
  3  2  1  0  0  0  0
  4  5  1  0  0  0  0
  5 27  1  0  0  0  0
  5  6  2  0  0  0  0
  8  2  1  0  0  0  0
  9  3  1  0  0  0  0
 10  9  1  0  0  0  0
 10 16  1  0  0  0  0
 11 10  1  0  0  0  0
 11 18  1  0  0  0  0
 12 13  1  0  0  0  0
 12 11  1  0  0  0  0
 13 20  1  1  0  0  0
 13 14  1  0  0  0  0
 14  9  1  0  0  0  0
 14 21  1  0  0  0  0
 15 10  1  0  0  0  0
 17 11  1  0  0  0  0
 19 12  1  0  0  0  0
 22 14  1  0  0  0  0
 23 24  1  0  0  0  0
 23 13  1  0  0  0  0
 25 23  1  0  0  0  0
 26 23  1  0  0  0  0
 27 28  1  0  0  0  0
 28 29  2  0  0  0  0
 28 33  1  0  0  0  0
 29 34  1  0  0  0  0
 30 35  1  0  0  0  0
 30 29  1  0  0  0  0
 31 32  1  0  0  0  0
 31 30  2  0  0  0  0
 32 27  2  0  0  0  0
 37 36  1  0  0  0  0
 37 31  1  0  0  0  0
 38 37  2  0  0  0  0
 39 38  1  0  0  0  0
 40 45  2  0  0  0  0
 40 38  1  0  0  0  0
 41 40  1  0  0  0  0
 42 41  1  0  0  0  0
 42 44  2  0  0  0  0
 43 42  1  0  0  0  0
 44 45  1  0  0  0  0
 45 46  1  0  0  0  0
 46 36  2  0  0  0  0
 47 41  1  0  0  0  0
M  END
>  <minimizedAffinity>
-6.77231884

$$$$
