REMARK  Name = 
REMARK  9 active torsions:
REMARK  status: ('A' for Active; 'I' for Inactive)
REMARK    1  A    between atoms: O_1  and  C_2
REMARK    2  A    between atoms: O_1  and  P_10
REMARK    3  A    between atoms: C_6  and  C_7
REMARK    4  A    between atoms: C_7  and  O_8
REMARK    5  A    between atoms: P_10  and  O_11
REMARK    6  A    between atoms: P_10  and  O_12
REMARK    7  A    between atoms: O_12  and  C_13
REMARK    8  A    between atoms: C_13  and  C_16
REMARK    9  A    between atoms: C_18  and  C_37
REMARK                            x       y       z     vdW  Elec       q    Type
REMARK                         _______ _______ _______ _____ _____    ______ ____
ROOT
ATOM      1  O   UNL     1      46.476  33.495  45.606  0.00  0.00    +0.000 OA
ENDROOT
BRANCH   1   2
ATOM      2  C   UNL     1      46.237  32.154  45.569  0.00  0.00    +0.000 C 
ATOM      3  H   UNL     1      45.504  31.782  44.860  0.00  0.00    +0.000 HD
ATOM      4  H   UNL     1      47.212  31.662  45.286  0.00  0.00    +0.000 HD
BRANCH   2   7
ATOM      5  C   UNL     1      45.650  31.910  49.240  0.00  0.00    +0.000 A 
ATOM      6  C   UNL     1      45.987  32.455  47.993  0.00  0.00    +0.000 A 
ATOM      7  C   UNL     1      45.886  31.606  46.893  0.00  0.00    +0.000 A 
ATOM      8  N   UNL     1      45.472  30.308  47.074  0.00  0.00    +0.000 NA
ATOM      9  C   UNL     1      45.155  29.814  48.287  0.00  0.00    +0.000 A 
ATOM     10  N   UNL     1      45.244  30.608  49.352  0.00  0.00    +0.000 NA
ATOM     11  H   UNL     1      45.719  32.547  50.114  0.00  0.00    +0.000 HD
ATOM     12  H   UNL     1      46.306  33.481  47.908  0.00  0.00    +0.000 HD
BRANCH   9  14
ATOM     13  C   UNL     1      44.637  27.624  47.292  0.00  0.00    +0.000 A 
ATOM     14  C   UNL     1      44.722  28.427  48.410  0.00  0.00    +0.000 A 
ATOM     15  C   UNL     1      44.391  27.897  49.646  0.00  0.00    +0.000 A 
ATOM     16  H   UNL     1      44.444  28.494  50.543  0.00  0.00    +0.000 HD
ATOM     17  C   UNL     1      43.982  26.590  49.770  0.00  0.00    +0.000 A 
ATOM     18  N   UNL     1      43.615  25.876  50.865  0.00  0.00    +0.000 N 
ATOM     19  C   UNL     1      43.299  24.622  50.433  0.00  0.00    +0.000 A 
ATOM     20  H   UNL     1      42.960  23.754  51.001  0.00  0.00    +0.000 HD
ATOM     21  N   UNL     1      43.474  24.577  49.089  0.00  0.00    +0.000 NA
ATOM     22  C   UNL     1      43.896  25.787  48.658  0.00  0.00    +0.000 A 
ATOM     23  C   UNL     1      44.226  26.314  47.427  0.00  0.00    +0.000 A 
ATOM     24  H   UNL     1      43.560  26.161  51.871  0.00  0.00    +0.000 HD
ENDBRANCH   9  14
ENDBRANCH   2   7
ENDBRANCH   1   2
BRANCH   1  26
ATOM     25  O   UNL     1      44.726  35.349  44.993  0.00  0.00    +0.000 OA
ATOM     26  P   UNL     1      45.580  34.239  44.413  0.00  0.00    +0.000 P 
BRANCH  26  27
ATOM     27  O   UNL     1      44.604  33.042  43.716  0.00  0.00    +0.000 OA
ATOM     28  H   UNL     1      43.799  33.454  43.285  0.00  0.00    +0.000 HD
ENDBRANCH  26  27
BRANCH  26  29
ATOM     29  O   UNL     1      46.574  34.910  43.250  0.00  0.00    +0.000 OA
BRANCH  29  30
ATOM     30  C   UNL     1      46.803  33.976  42.229  0.00  0.00    +0.000 C 
ATOM     31  C   UNL     1      46.074  34.414  40.956  0.00  0.00    +0.000 C 
ATOM     32  C   UNL     1      46.690  33.477  39.948  0.00  0.00    +0.000 C 
ATOM     33  C   UNL     1      48.073  33.138  40.475  0.00  0.00    +0.000 C 
ATOM     34  C   UNL     1      48.218  33.958  41.745  0.00  0.00    +0.000 C 
ATOM     35  H   UNL     1      46.450  32.969  42.456  0.00  0.00    +0.000 HD
ATOM     36  H   UNL     1      44.983  34.172  41.088  0.00  0.00    +0.000 HD
ATOM     37  H   UNL     1      46.164  35.471  40.735  0.00  0.00    +0.000 HD
ATOM     38  H   UNL     1      46.050  32.580  39.816  0.00  0.00    +0.000 HD
ATOM     39  H   UNL     1      46.722  34.016  38.979  0.00  0.00    +0.000 HD
ATOM     40  H   UNL     1      48.820  33.376  39.712  0.00  0.00    +0.000 HD
ATOM     41  H   UNL     1      48.046  32.051  40.753  0.00  0.00    +0.000 HD
ATOM     42  H   UNL     1      48.863  33.377  42.445  0.00  0.00    +0.000 HD
BRANCH  34  43
ATOM     43  C   UNL     1      48.759  35.333  41.460  0.00  0.00    +0.000 C 
ATOM     44  H   UNL     1      47.985  36.122  41.385  0.00  0.00    +0.000 HD
ATOM     45  H   UNL     1      49.284  35.338  40.474  0.00  0.00    +0.000 HD
BRANCH  43  46
ATOM     46  O   UNL     1      49.655  35.759  42.417  0.00  0.00    +0.000 OA
ATOM     47  H   UNL     1      50.068  34.973  42.885  0.00  0.00    +0.000 HD
ENDBRANCH  43  46
ENDBRANCH  34  43
ENDBRANCH  29  30
ENDBRANCH  26  29
ENDBRANCH   1  26
TORSDOF 9
