
 OpenBabel03252504493D

 27 29  0  0  0  0  0  0  0  0999 V2000
   48.2580   34.3540   42.8380 C   0  0  0  0  0  0  0  0  0  0  0  0
   47.6510   34.1420   41.5840 C   0  0  0  0  0  0  0  0  0  0  0  0
   46.5770   33.2490   41.5260 C   0  0  0  0  0  0  0  0  0  0  0  0
   46.1880   32.6420   42.6800 N   0  0  0  0  0  0  0  0  0  0  0  0
   46.7950   32.8730   43.8500 C   0  0  0  0  0  0  0  0  0  0  0  0
   47.8410   33.7370   43.9390 N   0  0  0  0  0  0  0  0  0  0  0  0
   49.0910   35.0450   42.8940 H   0  0  0  0  0  0  0  0  0  0  0  0
   46.0950   33.0650   40.5890 H   0  0  0  0  0  0  0  0  0  0  0  0
   46.0470   30.8550   45.0400 C   0  0  0  0  0  3  0  0  0  0  0  0
   46.3580   32.2050   45.0910 C   0  0  0  0  0  0  0  0  0  0  0  0
   46.2560   32.9140   46.2910 C   0  0  0  0  0  0  0  0  0  0  0  0
   46.5160   33.9740   46.2560 H   0  0  0  0  0  0  0  0  0  0  0  0
   45.8410   32.2400   47.4270 C   0  0  0  0  0  0  0  0  0  0  0  0
   45.6730   32.7150   48.6760 N   0  0  0  0  0  0  0  0  0  0  0  0
   45.2620   31.6700   49.3980 C   0  0  0  0  0  0  0  0  0  0  0  0
   45.0170   31.6450   50.4610 H   0  0  0  0  0  0  0  0  0  0  0  0
   45.1820   30.5940   48.6130 N   0  0  0  0  0  0  0  0  0  0  0  0
   45.5390   30.8950   47.3480 C   0  0  0  0  0  0  0  0  0  0  0  0
   45.6290   30.1700   46.1790 C   0  0  0  0  0  3  0  0  0  0  0  0
   45.8250   33.6890   49.0290 H   0  0  0  0  0  0  0  0  0  0  0  0
   48.1610   34.8550   40.4140 C   0  0  0  0  0  0  0  0  0  0  0  0
   47.7730   35.8670   40.2820 H   0  0  0  0  0  0  0  0  0  0  0  0
   49.2650   34.9090   40.4670 H   0  0  0  0  0  0  0  0  0  0  0  0
   47.8550   33.9960   39.1780 C   0  0  0  0  0  0  0  0  0  0  0  0
   46.8750   34.3650   38.7880 H   0  0  0  0  0  0  0  0  0  0  0  0
   48.6550   34.1360   38.4370 H   0  0  0  0  0  0  0  0  0  0  0  0
   47.8560   32.9550   39.5010 H   0  0  0  0  0  0  0  0  0  0  0  0
  1  7  1  0  0  0  0
  1  6  1  0  0  0  0
  2  1  2  0  0  0  0
  3  2  1  0  0  0  0
  3  4  2  0  0  0  0
  4  5  1  0  0  0  0
  5  6  2  0  0  0  0
  5 10  1  0  0  0  0
  8  3  1  0  0  0  0
  9 10  2  0  0  0  0
  9 19  1  0  0  0  0
 10 11  1  0  0  0  0
 11 13  2  0  0  0  0
 12 11  1  0  0  0  0
 13 14  1  0  0  0  0
 14 20  1  0  0  0  0
 14 15  1  0  0  0  0
 15 16  1  0  0  0  0
 17 15  2  0  0  0  0
 18 13  1  0  0  0  0
 18 17  1  0  0  0  0
 19 18  2  0  0  0  0
 21 23  1  0  0  0  0
 21  2  1  0  0  0  0
 22 21  1  0  0  0  0
 24 27  1  0  0  0  0
 24 21  1  0  0  0  0
 25 24  1  0  0  0  0
 26 24  1  0  0  0  0
M  END
>  <minimizedAffinity>
-4.81230211

>  <minimizedRMSD>
3.21198606

$$$$
