
     RDKit          3D

 29 31  0  0  0  0  0  0  0  0999 V2000
   47.2733   34.1882   43.2762 C   0  0  0  0  0  0  0  0  0  0  0  0
   46.6205   35.1682   42.5498 C   0  0  0  0  0  0  0  0  0  0  0  0
   45.3738   35.6301   43.0377 C   0  0  0  0  0  0  0  0  0  0  0  0
   44.8918   35.0885   44.1836 N   0  0  0  0  0  0  0  0  0  0  0  0
   45.5639   34.1352   44.8566 C   0  0  0  0  0  0  0  0  0  0  0  0
   46.7338   33.6939   44.4097 N   0  0  0  0  0  0  0  0  0  0  0  0
   48.5648   33.6675   42.8508 C   0  0  0  0  0  0  0  0  0  0  0  0
   49.5120   34.8255   42.5976 C   0  0  0  0  0  0  0  0  0  0  0  0
   44.7699   36.3897   42.5617 H   0  0  0  0  0  0  0  0  0  0  0  0
   45.1487   33.7189   45.7767 H   0  0  0  0  0  0  0  0  0  0  0  0
   48.4379   33.0662   41.9299 H   0  0  0  0  0  0  0  0  0  0  0  0
   48.9830   32.9640   43.5985 H   0  0  0  0  0  0  0  0  0  0  0  0
   50.4079   34.6630   43.2709 H   0  0  0  0  0  0  0  0  0  0  0  0
   49.1070   35.8018   42.8550 H   0  0  0  0  0  0  0  0  0  0  0  0
   49.9700   34.7585   41.5743 H   0  0  0  0  0  0  0  0  0  0  0  0
   47.6954   36.9632   41.0502 C   0  0  0  0  0  0  0  0  0  0  0  0
   47.0659   35.7707   41.3319 C   0  0  0  0  0  0  0  0  0  0  0  0
   46.7934   34.9837   40.2002 C   0  0  0  0  0  0  0  0  0  0  0  0
   46.2966   34.0046   40.2499 H   0  0  0  0  0  0  0  0  0  0  0  0
   47.1167   35.3512   38.9172 C   0  0  0  0  0  0  0  0  0  0  0  0
   46.9673   34.7920   37.7024 N   0  0  0  0  0  0  0  0  0  0  0  0
   47.4727   35.5934   36.7495 C   0  0  0  0  0  0  0  0  0  0  0  0
   47.5252   35.4685   35.6846 H   0  0  0  0  0  0  0  0  0  0  0  0
   47.9557   36.6931   37.3876 N   0  0  0  0  0  0  0  0  0  0  0  0
   47.7457   36.5597   38.7109 C   0  0  0  0  0  0  0  0  0  0  0  0
   48.0388   37.3742   39.7821 C   0  0  0  0  0  0  0  0  0  0  0  0
   47.9088   37.5526   41.9086 H   0  0  0  0  0  0  0  0  0  0  0  0
   46.5249   33.8674   37.5038 H   0  0  0  0  0  0  0  0  0  0  0  0
   48.5254   38.3221   39.6815 H   0  0  0  0  0  0  0  0  0  0  0  0
  1  6  2  0
  2  3  2  0
  2  1  1  0
  3  4  1  0
  4  5  2  0
  6  5  1  0
  7  1  1  0
  8  7  1  0
  3  9  1  0
  5 10  1  0
  7 11  1  0
  7 12  1  0
  8 13  1  0
  8 14  1  0
  8 15  1  0
 16 17  2  0
 17 18  1  0
 18 19  1  0
 18 20  2  0
 20 21  1  0
 21 22  1  0
 22 23  1  0
 22 24  2  0
 24 25  1  0
 25 26  2  0
 26 16  1  0
 25 20  1  0
 16 27  1  0
 21 28  1  0
 26 29  1  0
  2 17  1  0
M  ISO  8   9  14  10  14  11   8  12   8  13   8  14   8  15   8  19  15
M  ISO  1  23  14
M  END
>  <DihAtoms>  (1) 
2,1,16,15

>  <DihDeg>  (1) 
-128.9401797330925

$$$$
