
 OpenBabel03252502533D

 34 37  0  0  0  0  0  0  0  0999 V2000
   46.3550   29.7700   44.4990 Br  0  0  0  0  0  0  0  0  0  0  0  0
   45.9140   30.7850   46.0860 C   0  0  0  0  0  0  0  0  0  0  0  0
   46.3030   32.1100   46.0900 C   0  0  0  0  0  0  0  0  0  0  0  0
   45.9700   32.8060   47.2450 C   0  0  0  0  0  0  0  0  0  0  0  0
   45.3070   32.2420   48.3120 C   0  0  0  0  0  0  0  0  0  0  0  0
   44.9490   30.9190   48.2400 C   0  0  0  0  0  0  0  0  0  0  0  0
   45.2490   30.1690   47.1250 C   0  0  0  0  0  0  0  0  0  0  0  0
   46.2320   33.8520   47.3460 H   0  0  0  0  0  0  0  0  0  0  0  0
   45.0670   32.8170   49.1880 H   0  0  0  0  0  0  0  0  0  0  0  0
   44.4250   30.4510   49.0690 H   0  0  0  0  0  0  0  0  0  0  0  0
   43.8590   28.1550   46.3450 C   0  0  0  0  0  0  0  0  0  0  0  0
   44.8560   28.7660   47.0770 C   0  0  0  0  0  0  0  0  0  0  0  0
   45.6380   27.9650   47.9120 C   0  0  0  0  0  0  0  0  0  0  0  0
   46.4460   28.3250   48.5320 H   0  0  0  0  0  0  0  0  0  0  0  0
   45.4350   26.6050   48.0160 C   0  0  0  0  0  0  0  0  0  0  0  0
   46.0090   25.5950   48.7160 N   0  0  0  0  0  0  0  0  0  0  0  0
   45.4120   24.4210   48.4440 C   0  0  0  0  0  0  0  0  0  0  0  0
   45.6700   23.4450   48.8650 H   0  0  0  0  0  0  0  0  0  0  0  0
   44.4430   24.6860   47.5570 N   0  0  0  0  0  0  0  0  0  0  0  0
   44.4310   26.0010   47.2770 C   0  0  0  0  0  0  0  0  0  0  0  0
   43.6620   26.8010   46.4530 C   0  0  0  0  0  0  0  0  0  0  0  0
   46.8140   25.7050   49.3850 H   0  0  0  0  0  0  0  0  0  0  0  0
   47.0090   32.8090   45.0180 C   0  0  0  0  0  0  0  0  0  0  0  0
   47.1760   32.0990   44.1840 H   0  0  0  0  0  0  0  0  0  0  0  0
   47.9720   33.1960   45.4420 H   0  0  0  0  0  0  0  0  0  0  0  0
   44.5530   35.5870   44.5400 C   0  0  0  0  0  0  0  0  0  0  0  0
   44.9290   36.0850   43.2950 C   0  0  0  0  0  0  0  0  0  0  0  0
   45.9920   35.4830   42.6470 C   0  0  0  0  0  0  0  0  0  0  0  0
   46.6250   34.4380   43.2390 N   0  0  0  0  0  0  0  0  0  0  0  0
   46.2360   33.9650   44.4660 C   0  0  0  0  0  0  0  0  0  0  0  0
   45.1990   34.5610   45.0850 N   0  0  0  0  0  0  0  0  0  0  0  0
   43.7180   36.0760   45.0250 H   0  0  0  0  0  0  0  0  0  0  0  0
   44.4620   36.9100   42.7820 H   0  0  0  0  0  0  0  0  0  0  0  0
   46.4000   35.7550   41.6810 H   0  0  0  0  0  0  0  0  0  0  0  0
  1  2  1  0  0  0  0
  2  3  2  0  0  0  0
  2  7  1  0  0  0  0
  3  4  1  0  0  0  0
  4  8  1  0  0  0  0
  4  5  2  0  0  0  0
  5  9  1  0  0  0  0
  6  5  1  0  0  0  0
  6 10  1  0  0  0  0
  7  6  2  0  0  0  0
 11 21  2  0  0  0  0
 11 12  1  0  0  0  0
 12  7  1  0  0  0  0
 12 13  2  0  0  0  0
 13 15  1  0  0  0  0
 13 14  1  0  0  0  0
 15 16  1  0  0  0  0
 16 22  1  0  0  0  0
 17 16  1  0  0  0  0
 17 18  1  0  0  0  0
 19 17  2  0  0  0  0
 20 19  1  0  0  0  0
 20 15  2  0  0  0  0
 21 20  1  0  0  0  0
 23 25  1  0  0  0  0
 23  3  1  0  0  0  0
 24 23  1  0  0  0  0
 26 32  1  0  0  0  0
 26 31  1  0  0  0  0
 27 26  2  0  0  0  0
 28 29  2  0  0  0  0
 28 27  1  0  0  0  0
 29 30  1  0  0  0  0
 30 23  1  0  0  0  0
 30 31  2  0  0  0  0
 33 27  1  0  0  0  0
 34 28  1  0  0  0  0
M  END
>  <minimizedAffinity>
-5.85348511

>  <minimizedRMSD>
1.74870014

$$$$
