
 OpenBabel03242513253D

 48 52  0  0  1  0  0  0  0  0999 V2000
   38.8760   26.9540   44.2220 C   0  0  0  0  0  0  0  0  0  0  0  0
   37.9430   26.5900   44.6820 H   0  0  0  0  0  0  0  0  0  0  0  0
   39.4150   27.4810   45.0610 H   0  0  0  0  0  0  0  0  0  0  0  0
   39.7810   25.8710   43.7380 C   0  0  2  0  0  0  0  0  0  0  0  0
   41.2260   26.3070   43.6300 C   0  0  0  0  0  0  0  0  0  0  0  0
   41.7240   25.1610   42.7550 C   0  0  0  0  0  0  0  0  0  0  0  0
   40.7330   24.9820   41.8320 O   0  0  0  0  0  0  0  0  0  0  0  0
   39.5410   25.4580   42.3340 C   0  0  1  0  0  0  0  0  0  0  0  0
   39.7670   25.0520   44.4790 H   0  0  0  0  0  0  0  0  0  0  0  0
   41.2650   27.2670   43.0730 H   0  0  0  0  0  0  0  0  0  0  0  0
   41.7410   26.3360   44.6040 H   0  0  0  0  0  0  0  0  0  0  0  0
   42.6730   25.5290   42.3170 H   0  0  0  0  0  0  0  0  0  0  0  0
   41.8850   24.2810   43.3890 H   0  0  0  0  0  0  0  0  0  0  0  0
   39.2160   26.3080   41.7310 H   0  0  0  0  0  0  0  0  0  0  0  0
   38.5110   24.3820   42.2320 C   0  0  1  0  0  0  0  0  0  0  0  0
   37.1310   24.9360   41.9340 C   0  0  0  0  0  0  0  0  0  0  0  0
   36.6140   23.9770   40.8970 C   0  0  0  0  0  0  0  0  0  0  0  0
   37.4880   22.8880   40.9070 O   0  0  0  0  0  0  0  0  0  0  0  0
   38.7270   23.5250   40.9820 C   0  0  0  0  0  0  0  0  0  0  0  0
   38.4650   23.7040   43.0800 H   0  0  0  0  0  0  0  0  0  0  0  0
   36.5000   24.9560   42.8440 H   0  0  0  0  0  0  0  0  0  0  0  0
   37.1600   25.9640   41.5210 H   0  0  0  0  0  0  0  0  0  0  0  0
   36.5360   24.4360   39.8940 H   0  0  0  0  0  0  0  0  0  0  0  0
   35.6100   23.6340   41.2400 H   0  0  0  0  0  0  0  0  0  0  0  0
   38.7450   24.1680   40.0560 H   0  0  0  0  0  0  0  0  0  0  0  0
   39.5690   22.8490   41.0790 H   0  0  0  0  0  0  0  0  0  0  0  0
   37.4010   28.3920   42.9120 C   0  0  0  0  0  3  0  0  0  0  0  0
   38.6100   27.9970   43.2110 C   0  0  0  0  0  3  0  0  0  0  0  0
   35.8550   30.4120   40.2860 C   0  0  0  0  0  0  0  0  0  0  0  0
   36.8530   31.4170   40.0620 C   0  0  0  0  0  0  0  0  0  0  0  0
   38.0070   31.3410   40.8320 C   0  0  0  0  0  0  0  0  0  0  0  0
   38.1400   30.3500   41.7380 N   0  0  0  0  0  0  0  0  0  0  0  0
   37.1680   29.4140   41.9210 C   0  0  0  0  0  0  0  0  0  0  0  0
   36.0450   29.4370   41.2130 N   0  0  0  0  0  0  0  0  0  0  0  0
   34.9750   30.4840   39.6870 H   0  0  0  0  0  0  0  0  0  0  0  0
   36.7360   32.1910   39.3470 H   0  0  0  0  0  0  0  0  0  0  0  0
   38.8110   33.5730   40.3040 C   0  0  0  0  0  3  0  0  0  0  0  0
   39.1020   32.2900   40.7150 C   0  0  0  0  0  0  0  0  0  0  0  0
   40.4210   32.0010   40.9870 C   0  0  0  0  0  0  0  0  0  0  0  0
   40.6770   31.0030   41.3120 H   0  0  0  0  0  0  0  0  0  0  0  0
   41.4430   32.9090   40.8720 C   0  0  0  0  0  0  0  0  0  0  0  0
   42.7700   32.9040   41.0630 N   0  0  0  0  0  0  0  0  0  0  0  0
   43.2900   34.0990   40.7940 C   0  0  0  0  0  0  0  0  0  0  0  0
   44.3220   34.3770   40.8620 H   0  0  0  0  0  0  0  0  0  0  0  0
   42.2690   34.9110   40.4130 N   0  0  0  0  0  0  0  0  0  0  0  0
   41.1370   34.1970   40.4570 C   0  0  0  0  0  0  0  0  0  0  0  0
   39.8320   34.5070   40.1810 C   0  0  0  0  0  3  0  0  0  0  0  0
   43.3270   32.0760   41.3820 H   0  0  0  0  0  0  0  0  0  0  0  0
  1  2  1  0  0  0  0
  1  3  1  0  0  0  0
  4  1  1  0  0  0  0
  4  9  1  1  0  0  0
  5  4  1  0  0  0  0
  5 11  1  0  0  0  0
  6 13  1  0  0  0  0
  6  5  1  0  0  0  0
  7  8  1  0  0  0  0
  7  6  1  0  0  0  0
  8 14  1  6  0  0  0
  8  4  1  0  0  0  0
 10  5  1  0  0  0  0
 12  6  1  0  0  0  0
 15  8  1  0  0  0  0
 15 20  1  1  0  0  0
 16 15  1  0  0  0  0
 16 21  1  0  0  0  0
 17 18  1  0  0  0  0
 17 24  1  0  0  0  0
 17 16  1  0  0  0  0
 18 19  1  0  0  0  0
 19 26  1  0  0  0  0
 19 15  1  0  0  0  0
 22 16  1  0  0  0  0
 23 17  1  0  0  0  0
 25 19  1  0  0  0  0
 27 28  2  0  0  0  0
 28  1  1  0  0  0  0
 29 34  1  0  0  0  0
 30 29  2  0  0  0  0
 30 31  1  0  0  0  0
 31 32  2  0  0  0  0
 32 33  1  0  0  0  0
 33 27  1  0  0  0  0
 34 33  2  0  0  0  0
 35 29  1  0  0  0  0
 36 30  1  0  0  0  0
 37 38  1  0  0  0  0
 38 31  1  0  0  0  0
 38 39  2  0  0  0  0
 39 40  1  0  0  0  0
 41 39  1  0  0  0  0
 41 42  1  0  0  0  0
 42 48  1  0  0  0  0
 43 44  1  0  0  0  0
 43 42  1  0  0  0  0
 45 46  1  0  0  0  0
 45 43  2  0  0  0  0
 46 41  2  0  0  0  0
 47 37  2  0  0  0  0
 47 46  1  0  0  0  0
M  END
>  <minimizedAffinity>
-6.61792707

$$$$

 OpenBabel03242513253D

 48 52  0  0  1  0  0  0  0  0999 V2000
   36.5960   27.8010   42.6130 C   0  0  0  0  0  0  0  0  0  0  0  0
   35.5630   27.4210   42.5700 H   0  0  0  0  0  0  0  0  0  0  0  0
   36.5660   28.6080   43.4000 H   0  0  0  0  0  0  0  0  0  0  0  0
   37.5990   26.7920   43.0630 C   0  0  2  0  0  0  0  0  0  0  0  0
   38.8400   27.4130   43.6640 C   0  0  0  0  0  0  0  0  0  0  0  0
   39.7410   26.1840   43.6010 C   0  0  0  0  0  0  0  0  0  0  0  0
   39.4740   25.6280   42.3820 O   0  0  0  0  0  0  0  0  0  0  0  0
   38.2200   26.0150   41.9620 C   0  0  1  0  0  0  0  0  0  0  0  0
   37.1440   26.1880   43.8680 H   0  0  0  0  0  0  0  0  0  0  0  0
   39.2100   28.2020   42.9750 H   0  0  0  0  0  0  0  0  0  0  0  0
   38.6900   27.7620   44.6980 H   0  0  0  0  0  0  0  0  0  0  0  0
   40.7720   26.5810   43.6880 H   0  0  0  0  0  0  0  0  0  0  0  0
   39.4890   25.5230   44.4400 H   0  0  0  0  0  0  0  0  0  0  0  0
   38.3190   26.6280   41.0640 H   0  0  0  0  0  0  0  0  0  0  0  0
   37.4290   24.7960   41.6180 C   0  0  1  0  0  0  0  0  0  0  0  0
   36.6950   24.9420   40.2980 C   0  0  0  0  0  0  0  0  0  0  0  0
   36.9270   23.6040   39.6500 C   0  0  0  0  0  0  0  0  0  0  0  0
   37.4340   22.7720   40.6500 O   0  0  0  0  0  0  0  0  0  0  0  0
   38.3470   23.6180   41.2820 C   0  0  0  0  0  0  0  0  0  0  0  0
   36.7430   24.4570   42.3900 H   0  0  0  0  0  0  0  0  0  0  0  0
   35.6210   25.1550   40.4560 H   0  0  0  0  0  0  0  0  0  0  0  0
   37.1090   25.7490   39.6630 H   0  0  0  0  0  0  0  0  0  0  0  0
   37.6050   23.6650   38.7790 H   0  0  0  0  0  0  0  0  0  0  0  0
   35.9310   23.2180   39.3330 H   0  0  0  0  0  0  0  0  0  0  0  0
   39.0620   23.8920   40.4540 H   0  0  0  0  0  0  0  0  0  0  0  0
   38.8150   23.1890   42.1600 H   0  0  0  0  0  0  0  0  0  0  0  0
   36.1460   28.6160   40.3560 C   0  0  0  0  0  3  0  0  0  0  0  0
   36.9720   28.4880   41.3610 C   0  0  0  0  0  3  0  0  0  0  0  0
   36.3200   29.6930   36.8670 C   0  0  0  0  0  0  0  0  0  0  0  0
   37.3830   30.6540   36.9080 C   0  0  0  0  0  0  0  0  0  0  0  0
   37.9820   30.8770   38.1420 C   0  0  0  0  0  0  0  0  0  0  0  0
   37.5510   30.1990   39.2250 N   0  0  0  0  0  0  0  0  0  0  0  0
   36.5370   29.2940   39.1440 C   0  0  0  0  0  0  0  0  0  0  0  0
   35.9280   29.0390   37.9920 N   0  0  0  0  0  0  0  0  0  0  0  0
   35.8700   29.5330   35.9130 H   0  0  0  0  0  0  0  0  0  0  0  0
   37.7120   31.1820   36.0500 H   0  0  0  0  0  0  0  0  0  0  0  0
   39.0990   32.5530   39.5030 C   0  0  0  0  0  3  0  0  0  0  0  0
   39.0700   31.8230   38.3350 C   0  0  0  0  0  0  0  0  0  0  0  0
   40.0850   32.0440   37.4300 C   0  0  0  0  0  0  0  0  0  0  0  0
   40.0880   31.4840   36.5070 H   0  0  0  0  0  0  0  0  0  0  0  0
   41.1050   32.9400   37.6280 C   0  0  0  0  0  0  0  0  0  0  0  0
   42.1850   33.3450   36.9450 N   0  0  0  0  0  0  0  0  0  0  0  0
   42.8550   34.2700   37.6290 C   0  0  0  0  0  0  0  0  0  0  0  0
   43.7540   34.7650   37.3210 H   0  0  0  0  0  0  0  0  0  0  0  0
   42.1910   34.4750   38.7970 N   0  0  0  0  0  0  0  0  0  0  0  0
   41.1220   33.6690   38.8090 C   0  0  0  0  0  0  0  0  0  0  0  0
   40.1220   33.4650   39.7230 C   0  0  0  0  0  3  0  0  0  0  0  0
   42.4670   32.9870   36.0020 H   0  0  0  0  0  0  0  0  0  0  0  0
  1  4  1  0  0  0  0
  1  3  1  0  0  0  0
  2  1  1  0  0  0  0
  4  5  1  0  0  0  0
  4  9  1  1  0  0  0
  5 11  1  0  0  0  0
  6  5  1  0  0  0  0
  6 12  1  0  0  0  0
  6 13  1  0  0  0  0
  7  6  1  0  0  0  0
  8 14  1  6  0  0  0
  8  7  1  0  0  0  0
  8  4  1  0  0  0  0
 10  5  1  0  0  0  0
 15  8  1  0  0  0  0
 15 20  1  1  0  0  0
 16 21  1  0  0  0  0
 16 15  1  0  0  0  0
 17 16  1  0  0  0  0
 17 18  1  0  0  0  0
 18 19  1  0  0  0  0
 19 15  1  0  0  0  0
 19 26  1  0  0  0  0
 22 16  1  0  0  0  0
 23 17  1  0  0  0  0
 24 17  1  0  0  0  0
 25 19  1  0  0  0  0
 27 28  2  0  0  0  0
 28  1  1  0  0  0  0
 29 30  2  0  0  0  0
 29 34  1  0  0  0  0
 30 31  1  0  0  0  0
 31 38  1  0  0  0  0
 31 32  2  0  0  0  0
 33 32  1  0  0  0  0
 33 27  1  0  0  0  0
 34 33  2  0  0  0  0
 35 29  1  0  0  0  0
 36 30  1  0  0  0  0
 37 47  1  0  0  0  0
 38 37  2  0  0  0  0
 39 41  2  0  0  0  0
 39 38  1  0  0  0  0
 40 39  1  0  0  0  0
 41 46  1  0  0  0  0
 42 41  1  0  0  0  0
 42 43  1  0  0  0  0
 43 45  2  0  0  0  0
 44 43  1  0  0  0  0
 45 46  1  0  0  0  0
 46 47  2  0  0  0  0
 48 42  1  0  0  0  0
M  END
>  <minimizedAffinity>
-6.61157179

$$$$

 OpenBabel03242513253D

 48 52  0  0  1  0  0  0  0  0999 V2000
   36.3860   30.5600   41.1720 C   0  0  0  0  0  0  0  0  0  0  0  0
   36.2810   31.1920   42.0690 H   0  0  0  0  0  0  0  0  0  0  0  0
   35.3290   30.2610   40.9160 H   0  0  0  0  0  0  0  0  0  0  0  0
   36.9360   31.2730   39.9840 C   0  0  2  0  0  0  0  0  0  0  0  0
   36.7690   30.4980   38.6940 C   0  0  0  0  0  0  0  0  0  0  0  0
   37.7650   31.2830   37.8480 C   0  0  0  0  0  0  0  0  0  0  0  0
   38.8290   31.4910   38.6800 O   0  0  0  0  0  0  0  0  0  0  0  0
   38.4120   31.4240   39.9910 C   0  0  1  0  0  0  0  0  0  0  0  0
   36.3670   32.2100   39.8480 H   0  0  0  0  0  0  0  0  0  0  0  0
   37.1290   29.4600   38.8560 H   0  0  0  0  0  0  0  0  0  0  0  0
   35.7470   30.5560   38.2860 H   0  0  0  0  0  0  0  0  0  0  0  0
   37.9980   30.6190   36.9920 H   0  0  0  0  0  0  0  0  0  0  0  0
   37.2880   32.2150   37.5200 H   0  0  0  0  0  0  0  0  0  0  0  0
   38.8850   30.5670   40.4730 H   0  0  0  0  0  0  0  0  0  0  0  0
   38.8460   32.6650   40.6990 C   0  0  1  0  0  0  0  0  0  0  0  0
   40.2440   33.0960   40.2970 C   0  0  0  0  0  0  0  0  0  0  0  0
   40.0920   34.5850   40.1400 C   0  0  0  0  0  0  0  0  0  0  0  0
   38.8570   34.9090   40.7080 O   0  0  0  0  0  0  0  0  0  0  0  0
   38.0470   33.8820   40.2230 C   0  0  0  0  0  0  0  0  0  0  0  0
   38.7630   32.6330   41.7820 H   0  0  0  0  0  0  0  0  0  0  0  0
   40.9870   32.8260   41.0720 H   0  0  0  0  0  0  0  0  0  0  0  0
   40.5750   32.6440   39.3410 H   0  0  0  0  0  0  0  0  0  0  0  0
   40.1610   34.9100   39.0860 H   0  0  0  0  0  0  0  0  0  0  0  0
   40.8990   35.0610   40.7420 H   0  0  0  0  0  0  0  0  0  0  0  0
   38.1250   33.9970   39.1040 H   0  0  0  0  0  0  0  0  0  0  0  0
   37.0350   33.8950   40.6100 H   0  0  0  0  0  0  0  0  0  0  0  0
   36.4770   28.1400   41.4850 C   0  0  0  0  0  3  0  0  0  0  0  0
   37.0860   29.2970   41.4800 C   0  0  0  0  0  3  0  0  0  0  0  0
   37.2910   24.6060   41.9420 C   0  0  0  0  0  0  0  0  0  0  0  0
   38.6470   24.6730   42.4010 C   0  0  0  0  0  0  0  0  0  0  0  0
   39.2070   25.9380   42.5270 C   0  0  0  0  0  0  0  0  0  0  0  0
   38.4710   27.0270   42.2210 N   0  0  0  0  0  0  0  0  0  0  0  0
   37.1850   26.9210   41.7880 C   0  0  0  0  0  0  0  0  0  0  0  0
   36.5980   25.7370   41.6490 N   0  0  0  0  0  0  0  0  0  0  0  0
   36.8760   23.6270   41.8500 H   0  0  0  0  0  0  0  0  0  0  0  0
   39.2160   23.8100   42.6380 H   0  0  0  0  0  0  0  0  0  0  0  0
   40.9020   27.4070   43.4640 C   0  0  0  0  0  3  0  0  0  0  0  0
   40.5710   26.1610   42.9800 C   0  0  0  0  0  0  0  0  0  0  0  0
   41.5670   25.2090   42.9620 C   0  0  0  0  0  0  0  0  0  0  0  0
   41.3340   24.2220   42.5890 H   0  0  0  0  0  0  0  0  0  0  0  0
   42.8490   25.4340   43.3940 C   0  0  0  0  0  0  0  0  0  0  0  0
   43.9790   24.7200   43.4880 N   0  0  0  0  0  0  0  0  0  0  0  0
   44.9630   25.4590   43.9960 C   0  0  0  0  0  0  0  0  0  0  0  0
   45.9700   25.1430   44.1800 H   0  0  0  0  0  0  0  0  0  0  0  0
   44.4580   26.6960   44.2410 N   0  0  0  0  0  0  0  0  0  0  0  0
   43.1690   26.6950   43.8780 C   0  0  0  0  0  0  0  0  0  0  0  0
   42.1950   27.6570   43.9050 C   0  0  0  0  0  3  0  0  0  0  0  0
   44.0810   23.7170   43.2030 H   0  0  0  0  0  0  0  0  0  0  0  0
  1 28  1  0  0  0  0
  1  2  1  0  0  0  0
  3  1  1  0  0  0  0
  4  9  1  6  0  0  0
  4  8  1  0  0  0  0
  4  1  1  0  0  0  0
  5 10  1  0  0  0  0
  5  4  1  0  0  0  0
  6  7  1  0  0  0  0
  6  5  1  0  0  0  0
  7  8  1  0  0  0  0
  8 14  1  1  0  0  0
  8 15  1  0  0  0  0
 11  5  1  0  0  0  0
 12  6  1  0  0  0  0
 13  6  1  0  0  0  0
 15 20  1  1  0  0  0
 16 15  1  0  0  0  0
 16 21  1  0  0  0  0
 17 16  1  0  0  0  0
 17 18  1  0  0  0  0
 17 24  1  0  0  0  0
 19 26  1  0  0  0  0
 19 15  1  0  0  0  0
 19 18  1  0  0  0  0
 22 16  1  0  0  0  0
 23 17  1  0  0  0  0
 25 19  1  0  0  0  0
 27 33  1  0  0  0  0
 28 27  2  0  0  0  0
 29 30  1  0  0  0  0
 30 31  2  0  0  0  0
 30 36  1  0  0  0  0
 31 38  1  0  0  0  0
 32 31  1  0  0  0  0
 33 32  2  0  0  0  0
 34 33  1  0  0  0  0
 34 29  2  0  0  0  0
 35 29  1  0  0  0  0
 37 47  1  0  0  0  0
 38 37  2  0  0  0  0
 39 38  1  0  0  0  0
 39 41  2  0  0  0  0
 40 39  1  0  0  0  0
 41 42  1  0  0  0  0
 41 46  1  0  0  0  0
 42 43  1  0  0  0  0
 43 44  1  0  0  0  0
 43 45  2  0  0  0  0
 46 47  2  0  0  0  0
 46 45  1  0  0  0  0
 48 42  1  0  0  0  0
M  END
>  <minimizedAffinity>
-6.60012245

$$$$

 OpenBabel03242513253D

 48 52  0  0  1  0  0  0  0  0999 V2000
   37.8400   28.1580   43.8330 C   0  0  0  0  0  0  0  0  0  0  0  0
   36.9190   28.1460   44.4380 H   0  0  0  0  0  0  0  0  0  0  0  0
   38.5870   28.7130   44.4700 H   0  0  0  0  0  0  0  0  0  0  0  0
   38.4140   26.8070   43.5680 C   0  0  2  0  0  0  0  0  0  0  0  0
   39.8930   26.7170   43.8790 C   0  0  0  0  0  0  0  0  0  0  0  0
   40.1860   25.4250   43.1240 C   0  0  0  0  0  0  0  0  0  0  0  0
   39.4850   25.5440   41.9580 O   0  0  0  0  0  0  0  0  0  0  0  0
   38.4390   26.4240   42.1350 C   0  0  1  0  0  0  0  0  0  0  0  0
   37.9210   26.0830   44.2410 H   0  0  0  0  0  0  0  0  0  0  0  0
   40.4080   27.5750   43.3960 H   0  0  0  0  0  0  0  0  0  0  0  0
   40.1020   26.6220   44.9560 H   0  0  0  0  0  0  0  0  0  0  0  0
   41.2850   25.4230   42.9790 H   0  0  0  0  0  0  0  0  0  0  0  0
   39.8580   24.5780   43.7390 H   0  0  0  0  0  0  0  0  0  0  0  0
   38.6010   27.3000   41.5040 H   0  0  0  0  0  0  0  0  0  0  0  0
   37.1720   25.7600   41.7090 C   0  0  1  0  0  0  0  0  0  0  0  0
   36.8130   26.0790   40.2700 C   0  0  0  0  0  0  0  0  0  0  0  0
   36.3740   24.7410   39.7410 C   0  0  0  0  0  0  0  0  0  0  0  0
   36.2190   23.9160   40.8570 O   0  0  0  0  0  0  0  0  0  0  0  0
   37.3500   24.2430   41.6060 C   0  0  0  0  0  0  0  0  0  0  0  0
   36.3160   25.9380   42.3550 H   0  0  0  0  0  0  0  0  0  0  0  0
   36.0100   26.8400   40.2150 H   0  0  0  0  0  0  0  0  0  0  0  0
   37.6750   26.4560   39.6850 H   0  0  0  0  0  0  0  0  0  0  0  0
   37.0880   24.3180   39.0090 H   0  0  0  0  0  0  0  0  0  0  0  0
   35.3790   24.8890   39.2630 H   0  0  0  0  0  0  0  0  0  0  0  0
   38.2030   23.9870   40.9140 H   0  0  0  0  0  0  0  0  0  0  0  0
   37.3940   23.7600   42.5760 H   0  0  0  0  0  0  0  0  0  0  0  0
   38.4050   30.0380   42.3820 C   0  0  0  0  0  3  0  0  0  0  0  0
   37.6770   28.9790   42.6160 C   0  0  0  0  0  3  0  0  0  0  0  0
   38.4540   32.7980   39.9840 C   0  0  0  0  0  0  0  0  0  0  0  0
   37.8230   32.2060   38.8420 C   0  0  0  0  0  0  0  0  0  0  0  0
   37.4140   30.8840   38.9630 C   0  0  0  0  0  0  0  0  0  0  0  0
   37.6220   30.2250   40.1210 N   0  0  0  0  0  0  0  0  0  0  0  0
   38.2260   30.8230   41.1850 C   0  0  0  0  0  0  0  0  0  0  0  0
   38.6370   32.0840   41.1260 N   0  0  0  0  0  0  0  0  0  0  0  0
   38.7630   33.8130   39.8750 H   0  0  0  0  0  0  0  0  0  0  0  0
   37.6650   32.7340   37.9360 H   0  0  0  0  0  0  0  0  0  0  0  0
   35.5480   29.5550   38.1500 C   0  0  0  0  0  3  0  0  0  0  0  0
   36.7600   30.1540   37.8880 C   0  0  0  0  0  0  0  0  0  0  0  0
   37.2670   30.0160   36.6140 C   0  0  0  0  0  0  0  0  0  0  0  0
   38.2160   30.4770   36.3810 H   0  0  0  0  0  0  0  0  0  0  0  0
   36.6380   29.3240   35.6100 C   0  0  0  0  0  0  0  0  0  0  0  0
   36.8900   29.0380   34.3260 N   0  0  0  0  0  0  0  0  0  0  0  0
   35.9080   28.3070   33.8040 C   0  0  0  0  0  0  0  0  0  0  0  0
   35.8490   27.9390   32.7990 H   0  0  0  0  0  0  0  0  0  0  0  0
   34.9840   28.1100   34.7810 N   0  0  0  0  0  0  0  0  0  0  0  0
   35.4170   28.7250   35.8880 C   0  0  0  0  0  0  0  0  0  0  0  0
   34.8950   28.8490   37.1480 C   0  0  0  0  0  3  0  0  0  0  0  0
   37.7420   29.3450   33.7980 H   0  0  0  0  0  0  0  0  0  0  0  0
  1  2  1  0  0  0  0
  1  3  1  0  0  0  0
  4  1  1  0  0  0  0
  4  5  1  0  0  0  0
  4  9  1  1  0  0  0
  5 11  1  0  0  0  0
  6 13  1  0  0  0  0
  6  5  1  0  0  0  0
  7  8  1  0  0  0  0
  7  6  1  0  0  0  0
  8 14  1  6  0  0  0
  8  4  1  0  0  0  0
 10  5  1  0  0  0  0
 12  6  1  0  0  0  0
 15  8  1  0  0  0  0
 15 20  1  1  0  0  0
 16 15  1  0  0  0  0
 17 16  1  0  0  0  0
 17 18  1  0  0  0  0
 18 19  1  0  0  0  0
 19 15  1  0  0  0  0
 19 26  1  0  0  0  0
 21 16  1  0  0  0  0
 22 16  1  0  0  0  0
 23 17  1  0  0  0  0
 24 17  1  0  0  0  0
 25 19  1  0  0  0  0
 27 28  2  0  0  0  0
 28  1  1  0  0  0  0
 29 34  1  0  0  0  0
 30 31  1  0  0  0  0
 30 29  2  0  0  0  0
 31 32  2  0  0  0  0
 32 33  1  0  0  0  0
 33 27  1  0  0  0  0
 34 33  2  0  0  0  0
 35 29  1  0  0  0  0
 36 30  1  0  0  0  0
 38 37  1  0  0  0  0
 38 31  1  0  0  0  0
 39 38  2  0  0  0  0
 40 39  1  0  0  0  0
 41 46  2  0  0  0  0
 41 39  1  0  0  0  0
 42 41  1  0  0  0  0
 43 42  1  0  0  0  0
 43 45  2  0  0  0  0
 44 43  1  0  0  0  0
 45 46  1  0  0  0  0
 46 47  1  0  0  0  0
 47 37  2  0  0  0  0
 48 42  1  0  0  0  0
M  END
>  <minimizedAffinity>
-6.5574007

$$$$

 OpenBabel03242513253D

 48 52  0  0  1  0  0  0  0  0999 V2000
   36.2950   30.5420   41.2030 C   0  0  0  0  0  0  0  0  0  0  0  0
   36.3020   31.1500   42.1220 H   0  0  0  0  0  0  0  0  0  0  0  0
   35.2050   30.3070   41.0310 H   0  0  0  0  0  0  0  0  0  0  0  0
   36.7800   31.2640   39.9910 C   0  0  2  0  0  0  0  0  0  0  0  0
   36.5560   30.4920   38.7090 C   0  0  0  0  0  0  0  0  0  0  0  0
   37.5030   31.2880   37.8180 C   0  0  0  0  0  0  0  0  0  0  0  0
   38.6050   31.5020   38.5970 O   0  0  0  0  0  0  0  0  0  0  0  0
   38.2530   31.4280   39.9270 C   0  0  1  0  0  0  0  0  0  0  0  0
   36.1970   32.1960   39.8870 H   0  0  0  0  0  0  0  0  0  0  0  0
   36.9330   29.4570   38.8490 H   0  0  0  0  0  0  0  0  0  0  0  0
   35.5150   30.5420   38.3520 H   0  0  0  0  0  0  0  0  0  0  0  0
   37.6990   30.6290   36.9490 H   0  0  0  0  0  0  0  0  0  0  0  0
   37.0030   32.2170   37.5170 H   0  0  0  0  0  0  0  0  0  0  0  0
   38.7570   30.5730   40.3810 H   0  0  0  0  0  0  0  0  0  0  0  0
   38.7110   32.6700   40.6170 C   0  0  1  0  0  0  0  0  0  0  0  0
   40.1410   33.0310   40.2610 C   0  0  0  0  0  0  0  0  0  0  0  0
   40.0590   34.5190   40.0570 C   0  0  0  0  0  0  0  0  0  0  0  0
   38.8180   34.9110   40.5640 O   0  0  0  0  0  0  0  0  0  0  0  0
   37.9850   33.9040   40.0740 C   0  0  0  0  0  0  0  0  0  0  0  0
   38.5830   32.6740   41.6960 H   0  0  0  0  0  0  0  0  0  0  0  0
   40.8400   32.7530   41.0740 H   0  0  0  0  0  0  0  0  0  0  0  0
   40.4910   32.5370   39.3330 H   0  0  0  0  0  0  0  0  0  0  0  0
   40.1840   34.8100   38.9970 H   0  0  0  0  0  0  0  0  0  0  0  0
   40.8620   34.9790   40.6780 H   0  0  0  0  0  0  0  0  0  0  0  0
   38.1120   33.9830   38.9560 H   0  0  0  0  0  0  0  0  0  0  0  0
   36.9590   33.9710   40.4180 H   0  0  0  0  0  0  0  0  0  0  0  0
   37.5650   28.9300   42.5250 C   0  0  0  0  0  3  0  0  0  0  0  0
   36.9490   29.2350   41.4130 C   0  0  0  0  0  3  0  0  0  0  0  0
   39.7520   26.2600   43.7320 C   0  0  0  0  0  0  0  0  0  0  0  0
   39.3120   25.1430   42.9480 C   0  0  0  0  0  0  0  0  0  0  0  0
   38.2840   25.3740   42.0440 C   0  0  0  0  0  0  0  0  0  0  0  0
   37.7510   26.6090   41.9420 N   0  0  0  0  0  0  0  0  0  0  0  0
   38.1960   27.6450   42.7050 C   0  0  0  0  0  0  0  0  0  0  0  0
   39.1770   27.4830   43.5860 N   0  0  0  0  0  0  0  0  0  0  0  0
   40.5420   26.0660   44.4220 H   0  0  0  0  0  0  0  0  0  0  0  0
   39.7390   24.1770   43.0380 H   0  0  0  0  0  0  0  0  0  0  0  0
   38.5500   23.2820   40.8370 C   0  0  0  0  0  3  0  0  0  0  0  0
   37.7360   24.3370   41.1840 C   0  0  0  0  0  0  0  0  0  0  0  0
   36.4510   24.3310   40.6860 C   0  0  0  0  0  0  0  0  0  0  0  0
   35.7910   25.1460   40.9430 H   0  0  0  0  0  0  0  0  0  0  0  0
   35.9490   23.3440   39.8750 C   0  0  0  0  0  0  0  0  0  0  0  0
   34.7820   23.0900   39.2680 N   0  0  0  0  0  0  0  0  0  0  0  0
   34.8470   21.9520   38.5800 C   0  0  0  0  0  0  0  0  0  0  0  0
   34.0610   21.5100   38.0010 H   0  0  0  0  0  0  0  0  0  0  0  0
   36.0980   21.4470   38.7450 N   0  0  0  0  0  0  0  0  0  0  0  0
   36.7800   22.2870   39.5330 C   0  0  0  0  0  0  0  0  0  0  0  0
   38.0620   22.2730   40.0160 C   0  0  0  0  0  3  0  0  0  0  0  0
   33.9320   23.6990   39.3220 H   0  0  0  0  0  0  0  0  0  0  0  0
  1 28  1  0  0  0  0
  1  2  1  0  0  0  0
  3  1  1  0  0  0  0
  4  9  1  6  0  0  0
  4  1  1  0  0  0  0
  5 10  1  0  0  0  0
  5  4  1  0  0  0  0
  6  7  1  0  0  0  0
  6  5  1  0  0  0  0
  7  8  1  0  0  0  0
  8  4  1  0  0  0  0
  8 14  1  1  0  0  0
  8 15  1  0  0  0  0
 11  5  1  0  0  0  0
 12  6  1  0  0  0  0
 13  6  1  0  0  0  0
 15 20  1  1  0  0  0
 16 15  1  0  0  0  0
 16 21  1  0  0  0  0
 17 16  1  0  0  0  0
 17 18  1  0  0  0  0
 17 24  1  0  0  0  0
 19 26  1  0  0  0  0
 19 18  1  0  0  0  0
 19 15  1  0  0  0  0
 22 16  1  0  0  0  0
 23 17  1  0  0  0  0
 25 19  1  0  0  0  0
 27 33  1  0  0  0  0
 28 27  2  0  0  0  0
 29 35  1  0  0  0  0
 30 36  1  0  0  0  0
 30 29  2  0  0  0  0
 31 30  1  0  0  0  0
 32 31  2  0  0  0  0
 32 33  1  0  0  0  0
 33 34  2  0  0  0  0
 34 29  1  0  0  0  0
 37 38  1  0  0  0  0
 38 31  1  0  0  0  0
 39 40  1  0  0  0  0
 39 38  2  0  0  0  0
 41 39  1  0  0  0  0
 42 48  1  0  0  0  0
 42 41  1  0  0  0  0
 43 45  2  0  0  0  0
 43 42  1  0  0  0  0
 44 43  1  0  0  0  0
 45 46  1  0  0  0  0
 46 41  2  0  0  0  0
 46 47  1  0  0  0  0
 47 37  2  0  0  0  0
M  END
>  <minimizedAffinity>
-6.4793601

$$$$

 OpenBabel03242513253D

 48 52  0  0  1  0  0  0  0  0999 V2000
   38.8630   31.4680   39.1190 C   0  0  0  0  0  0  0  0  0  0  0  0
   38.2530   31.6300   38.2160 H   0  0  0  0  0  0  0  0  0  0  0  0
   39.8690   31.1480   38.7240 H   0  0  0  0  0  0  0  0  0  0  0  0
   39.0870   32.6980   39.9330 C   0  0  2  0  0  0  0  0  0  0  0  0
   37.9640   33.7060   39.8100 C   0  0  0  0  0  0  0  0  0  0  0  0
   38.7020   34.9110   40.3830 C   0  0  0  0  0  0  0  0  0  0  0  0
   39.9520   34.8370   39.8370 O   0  0  0  0  0  0  0  0  0  0  0  0
   40.2220   33.5360   39.4730 C   0  0  1  0  0  0  0  0  0  0  0  0
   39.1160   32.4080   40.9980 H   0  0  0  0  0  0  0  0  0  0  0  0
   37.7450   33.8610   38.7320 H   0  0  0  0  0  0  0  0  0  0  0  0
   37.0800   33.4400   40.4110 H   0  0  0  0  0  0  0  0  0  0  0  0
   38.1220   35.7900   40.0400 H   0  0  0  0  0  0  0  0  0  0  0  0
   38.7060   34.8310   41.4770 H   0  0  0  0  0  0  0  0  0  0  0  0
   40.3250   33.4840   38.3880 H   0  0  0  0  0  0  0  0  0  0  0  0
   41.5150   33.1200   40.0930 C   0  0  1  0  0  0  0  0  0  0  0  0
   42.4530   32.4800   39.0880 C   0  0  0  0  0  0  0  0  0  0  0  0
   43.7770   33.1020   39.4380 C   0  0  0  0  0  0  0  0  0  0  0  0
   43.5950   33.7290   40.6730 O   0  0  0  0  0  0  0  0  0  0  0  0
   42.3510   34.3360   40.4980 C   0  0  0  0  0  0  0  0  0  0  0  0
   41.4230   32.4880   40.9720 H   0  0  0  0  0  0  0  0  0  0  0  0
   42.4630   31.3770   39.1910 H   0  0  0  0  0  0  0  0  0  0  0  0
   42.1870   32.7170   38.0380 H   0  0  0  0  0  0  0  0  0  0  0  0
   44.1340   33.8070   38.6650 H   0  0  0  0  0  0  0  0  0  0  0  0
   44.5070   32.2690   39.5630 H   0  0  0  0  0  0  0  0  0  0  0  0
   42.5180   35.0180   39.6140 H   0  0  0  0  0  0  0  0  0  0  0  0
   41.9700   34.8310   41.3840 H   0  0  0  0  0  0  0  0  0  0  0  0
   38.4710   30.2680   41.2090 C   0  0  0  0  0  3  0  0  0  0  0  0
   38.3680   30.3210   39.9080 C   0  0  0  0  0  3  0  0  0  0  0  0
   37.2060   28.1640   43.9190 C   0  0  0  0  0  0  0  0  0  0  0  0
   37.0540   26.8990   43.2610 C   0  0  0  0  0  0  0  0  0  0  0  0
   37.3970   26.8430   41.9170 C   0  0  0  0  0  0  0  0  0  0  0  0
   37.8490   27.9520   41.2970 N   0  0  0  0  0  0  0  0  0  0  0  0
   37.9790   29.1360   41.9560 C   0  0  0  0  0  0  0  0  0  0  0  0
   37.6670   29.2490   43.2420 N   0  0  0  0  0  0  0  0  0  0  0  0
   36.9390   28.1920   44.9510 H   0  0  0  0  0  0  0  0  0  0  0  0
   36.6970   26.0350   43.7600 H   0  0  0  0  0  0  0  0  0  0  0  0
   36.6140   25.6900   39.9240 C   0  0  0  0  0  3  0  0  0  0  0  0
   37.2930   25.6290   41.1220 C   0  0  0  0  0  0  0  0  0  0  0  0
   37.8280   24.4110   41.4790 C   0  0  0  0  0  0  0  0  0  0  0  0
   38.3670   24.3350   42.4130 H   0  0  0  0  0  0  0  0  0  0  0  0
   37.7220   23.2750   40.7180 C   0  0  0  0  0  0  0  0  0  0  0  0
   38.1290   22.0020   40.8150 N   0  0  0  0  0  0  0  0  0  0  0  0
   37.7370   21.2990   39.7550 C   0  0  0  0  0  0  0  0  0  0  0  0
   37.9240   20.2600   39.5720 H   0  0  0  0  0  0  0  0  0  0  0  0
   37.0520   22.1420   38.9380 N   0  0  0  0  0  0  0  0  0  0  0  0
   37.0360   23.3510   39.5140 C   0  0  0  0  0  0  0  0  0  0  0  0
   36.4950   24.5520   39.1390 C   0  0  0  0  0  3  0  0  0  0  0  0
   38.6800   21.6070   41.6140 H   0  0  0  0  0  0  0  0  0  0  0  0
  1 28  1  0  0  0  0
  1  4  1  0  0  0  0
  2  1  1  0  0  0  0
  3  1  1  0  0  0  0
  4  9  1  1  0  0  0
  5  4  1  0  0  0  0
  5  6  1  0  0  0  0
  5 11  1  0  0  0  0
  6 13  1  0  0  0  0
  7  6  1  0  0  0  0
  8 14  1  6  0  0  0
  8  7  1  0  0  0  0
  8  4  1  0  0  0  0
  8 15  1  0  0  0  0
 10  5  1  0  0  0  0
 12  6  1  0  0  0  0
 15 19  1  0  0  0  0
 15 20  1  1  0  0  0
 16 21  1  0  0  0  0
 16 17  1  0  0  0  0
 16 15  1  0  0  0  0
 17 24  1  0  0  0  0
 17 18  1  0  0  0  0
 19 18  1  0  0  0  0
 19 26  1  0  0  0  0
 22 16  1  0  0  0  0
 23 17  1  0  0  0  0
 25 19  1  0  0  0  0
 27 33  1  0  0  0  0
 28 27  2  0  0  0  0
 29 35  1  0  0  0  0
 30 36  1  0  0  0  0
 30 29  1  0  0  0  0
 31 30  2  0  0  0  0
 32 31  1  0  0  0  0
 32 33  2  0  0  0  0
 33 34  1  0  0  0  0
 34 29  2  0  0  0  0
 37 38  1  0  0  0  0
 38 39  2  0  0  0  0
 38 31  1  0  0  0  0
 39 40  1  0  0  0  0
 41 42  1  0  0  0  0
 41 39  1  0  0  0  0
 42 48  1  0  0  0  0
 43 42  1  0  0  0  0
 44 43  1  0  0  0  0
 45 46  1  0  0  0  0
 45 43  2  0  0  0  0
 46 41  2  0  0  0  0
 47 46  1  0  0  0  0
 47 37  2  0  0  0  0
M  END
>  <minimizedAffinity>
-6.20356941

$$$$

 OpenBabel03242513253D

 48 52  0  0  1  0  0  0  0  0999 V2000
   35.5090   28.8340   40.8610 C   0  0  0  0  0  0  0  0  0  0  0  0
   34.8440   29.3070   41.6020 H   0  0  0  0  0  0  0  0  0  0  0  0
   35.0220   27.8410   40.6420 H   0  0  0  0  0  0  0  0  0  0  0  0
   35.6000   29.5690   39.5670 C   0  0  2  0  0  0  0  0  0  0  0  0
   35.5920   28.6540   38.3610 C   0  0  0  0  0  0  0  0  0  0  0  0
   36.1050   29.6580   37.3340 C   0  0  0  0  0  0  0  0  0  0  0  0
   37.0980   30.3340   37.9840 O   0  0  0  0  0  0  0  0  0  0  0  0
   36.8950   30.2590   39.3450 C   0  0  1  0  0  0  0  0  0  0  0  0
   34.7030   30.2060   39.4660 H   0  0  0  0  0  0  0  0  0  0  0  0
   36.3400   27.8490   38.5240 H   0  0  0  0  0  0  0  0  0  0  0  0
   34.5860   28.2830   38.1080 H   0  0  0  0  0  0  0  0  0  0  0  0
   36.4720   29.0400   36.4900 H   0  0  0  0  0  0  0  0  0  0  0  0
   35.2720   30.3040   37.0300 H   0  0  0  0  0  0  0  0  0  0  0  0
   37.7140   29.6960   39.7970 H   0  0  0  0  0  0  0  0  0  0  0  0
   36.8990   31.6400   39.9110 C   0  0  1  0  0  0  0  0  0  0  0  0
   38.0940   31.8860   40.8140 C   0  0  0  0  0  0  0  0  0  0  0  0
   38.5350   33.2630   40.3990 C   0  0  0  0  0  0  0  0  0  0  0  0
   37.5000   33.7820   39.6180 O   0  0  0  0  0  0  0  0  0  0  0  0
   37.1710   32.6830   38.8240 C   0  0  0  0  0  0  0  0  0  0  0  0
   35.9840   31.9360   40.4160 H   0  0  0  0  0  0  0  0  0  0  0  0
   37.8080   31.8370   41.8820 H   0  0  0  0  0  0  0  0  0  0  0  0
   38.9140   31.1580   40.6500 H   0  0  0  0  0  0  0  0  0  0  0  0
   39.4990   33.2560   39.8570 H   0  0  0  0  0  0  0  0  0  0  0  0
   38.6230   33.8720   41.3280 H   0  0  0  0  0  0  0  0  0  0  0  0
   38.1350   32.4550   38.2840 H   0  0  0  0  0  0  0  0  0  0  0  0
   36.3170   32.8430   38.1750 H   0  0  0  0  0  0  0  0  0  0  0  0
   37.1020   27.3200   41.9230 C   0  0  0  0  0  3  0  0  0  0  0  0
   36.8240   28.5050   41.4470 C   0  0  0  0  0  3  0  0  0  0  0  0
   39.9080   25.5610   43.4730 C   0  0  0  0  0  0  0  0  0  0  0  0
   40.8990   26.5940   43.5460 C   0  0  0  0  0  0  0  0  0  0  0  0
   40.5420   27.8440   43.0550 C   0  0  0  0  0  0  0  0  0  0  0  0
   39.3090   28.0320   42.5420 N   0  0  0  0  0  0  0  0  0  0  0  0
   38.3960   27.0240   42.4900 C   0  0  0  0  0  0  0  0  0  0  0  0
   38.6810   25.8090   42.9450 N   0  0  0  0  0  0  0  0  0  0  0  0
   40.1960   24.6070   43.8540 H   0  0  0  0  0  0  0  0  0  0  0  0
   41.8650   26.4340   43.9520 H   0  0  0  0  0  0  0  0  0  0  0  0
   42.6520   28.8580   43.7120 C   0  0  0  0  0  3  0  0  0  0  0  0
   41.4440   28.9850   43.0630 C   0  0  0  0  0  0  0  0  0  0  0  0
   41.1780   30.1970   42.4620 C   0  0  0  0  0  0  0  0  0  0  0  0
   40.2390   30.3240   41.9440 H   0  0  0  0  0  0  0  0  0  0  0  0
   42.0400   31.2640   42.4780 C   0  0  0  0  0  0  0  0  0  0  0  0
   42.0420   32.5140   41.9950 N   0  0  0  0  0  0  0  0  0  0  0  0
   43.1720   33.1410   42.3150 C   0  0  0  0  0  0  0  0  0  0  0  0
   43.4400   34.1460   42.0590 H   0  0  0  0  0  0  0  0  0  0  0  0
   43.9320   32.2710   43.0300 N   0  0  0  0  0  0  0  0  0  0  0  0
   43.2530   31.1220   43.1360 C   0  0  0  0  0  0  0  0  0  0  0  0
   43.5380   29.9260   43.7410 C   0  0  0  0  0  3  0  0  0  0  0  0
   41.2650   32.9450   41.4410 H   0  0  0  0  0  0  0  0  0  0  0  0
  1 28  1  0  0  0  0
  1  2  1  0  0  0  0
  3  1  1  0  0  0  0
  4  9  1  6  0  0  0
  4  1  1  0  0  0  0
  5 10  1  0  0  0  0
  5  4  1  0  0  0  0
  6  7  1  0  0  0  0
  6  5  1  0  0  0  0
  7  8  1  0  0  0  0
  8  4  1  0  0  0  0
  8 14  1  1  0  0  0
  8 15  1  0  0  0  0
 11  5  1  0  0  0  0
 12  6  1  0  0  0  0
 13  6  1  0  0  0  0
 15 20  1  1  0  0  0
 15 16  1  0  0  0  0
 16 21  1  0  0  0  0
 17 16  1  0  0  0  0
 17 24  1  0  0  0  0
 18 17  1  0  0  0  0
 19 18  1  0  0  0  0
 19 15  1  0  0  0  0
 22 16  1  0  0  0  0
 23 17  1  0  0  0  0
 25 19  1  0  0  0  0
 26 19  1  0  0  0  0
 27 33  1  0  0  0  0
 28 27  2  0  0  0  0
 29 30  1  0  0  0  0
 29 35  1  0  0  0  0
 30 36  1  0  0  0  0
 31 38  1  0  0  0  0
 31 30  2  0  0  0  0
 32 31  1  0  0  0  0
 33 32  2  0  0  0  0
 33 34  1  0  0  0  0
 34 29  2  0  0  0  0
 37 47  1  0  0  0  0
 38 37  2  0  0  0  0
 39 41  2  0  0  0  0
 39 38  1  0  0  0  0
 40 39  1  0  0  0  0
 41 46  1  0  0  0  0
 42 43  1  0  0  0  0
 42 41  1  0  0  0  0
 43 45  2  0  0  0  0
 44 43  1  0  0  0  0
 45 46  1  0  0  0  0
 46 47  2  0  0  0  0
 48 42  1  0  0  0  0
M  END
>  <minimizedAffinity>
-6.14842653

$$$$

 OpenBabel03242513253D

 48 52  0  0  1  0  0  0  0  0999 V2000
   36.3440   25.0460   39.3260 C   0  0  0  0  0  0  0  0  0  0  0  0
   36.3670   24.2030   38.6160 H   0  0  0  0  0  0  0  0  0  0  0  0
   35.3620   24.9290   39.8670 H   0  0  0  0  0  0  0  0  0  0  0  0
   37.4180   25.0020   40.3600 C   0  0  2  0  0  0  0  0  0  0  0  0
   37.9350   23.6040   40.6220 C   0  0  0  0  0  0  0  0  0  0  0  0
   38.6440   23.8870   41.9420 C   0  0  0  0  0  0  0  0  0  0  0  0
   37.7860   24.7050   42.6210 O   0  0  0  0  0  0  0  0  0  0  0  0
   36.9630   25.3560   41.7280 C   0  0  1  0  0  0  0  0  0  0  0  0
   38.2830   25.5780   39.9870 H   0  0  0  0  0  0  0  0  0  0  0  0
   37.0670   22.9300   40.7840 H   0  0  0  0  0  0  0  0  0  0  0  0
   38.6340   23.2510   39.8470 H   0  0  0  0  0  0  0  0  0  0  0  0
   38.7730   22.8930   42.4160 H   0  0  0  0  0  0  0  0  0  0  0  0
   39.6090   24.3610   41.7260 H   0  0  0  0  0  0  0  0  0  0  0  0
   35.9340   25.0310   41.8890 H   0  0  0  0  0  0  0  0  0  0  0  0
   37.0420   26.8260   41.9820 C   0  0  1  0  0  0  0  0  0  0  0  0
   36.6990   27.1780   43.4170 C   0  0  0  0  0  0  0  0  0  0  0  0
   37.7500   28.2000   43.7590 C   0  0  0  0  0  0  0  0  0  0  0  0
   38.3470   28.5610   42.5490 O   0  0  0  0  0  0  0  0  0  0  0  0
   38.4900   27.3200   41.9270 C   0  0  0  0  0  0  0  0  0  0  0  0
   36.4670   27.4440   41.2990 H   0  0  0  0  0  0  0  0  0  0  0  0
   35.6730   27.5840   43.4980 H   0  0  0  0  0  0  0  0  0  0  0  0
   36.7740   26.3110   44.1030 H   0  0  0  0  0  0  0  0  0  0  0  0
   38.4890   27.8210   44.4890 H   0  0  0  0  0  0  0  0  0  0  0  0
   37.2190   29.0860   44.1760 H   0  0  0  0  0  0  0  0  0  0  0  0
   39.1370   26.7410   42.6470 H   0  0  0  0  0  0  0  0  0  0  0  0
   38.8760   27.3730   40.9150 H   0  0  0  0  0  0  0  0  0  0  0  0
   37.3110   27.0330   38.2890 C   0  0  0  0  0  3  0  0  0  0  0  0
   36.2540   26.3430   38.6240 C   0  0  0  0  0  3  0  0  0  0  0  0
   36.5720   29.5740   35.7660 C   0  0  0  0  0  0  0  0  0  0  0  0
   37.0350   30.7690   36.4080 C   0  0  0  0  0  0  0  0  0  0  0  0
   37.5780   30.6310   37.6790 C   0  0  0  0  0  0  0  0  0  0  0  0
   37.6470   29.4090   38.2460 N   0  0  0  0  0  0  0  0  0  0  0  0
   37.1950   28.2970   37.6030 C   0  0  0  0  0  0  0  0  0  0  0  0
   36.6670   28.3690   36.3870 N   0  0  0  0  0  0  0  0  0  0  0  0
   36.1570   29.6970   34.7910 H   0  0  0  0  0  0  0  0  0  0  0  0
   36.9750   31.7250   35.9520 H   0  0  0  0  0  0  0  0  0  0  0  0
   37.1790   32.6230   39.0140 C   0  0  0  0  0  3  0  0  0  0  0  0
   38.0870   31.7540   38.4500 C   0  0  0  0  0  0  0  0  0  0  0  0
   39.4230   32.0170   38.6630 C   0  0  0  0  0  0  0  0  0  0  0  0
   40.1570   31.3520   38.2330 H   0  0  0  0  0  0  0  0  0  0  0  0
   39.8870   33.0810   39.3940 C   0  0  0  0  0  0  0  0  0  0  0  0
   41.0860   33.5630   39.7500 N   0  0  0  0  0  0  0  0  0  0  0  0
   40.9520   34.6620   40.4890 C   0  0  0  0  0  0  0  0  0  0  0  0
   41.7430   35.2500   40.9080 H   0  0  0  0  0  0  0  0  0  0  0  0
   39.6220   34.9060   40.6190 N   0  0  0  0  0  0  0  0  0  0  0  0
   38.9610   33.9490   39.9560 C   0  0  0  0  0  0  0  0  0  0  0  0
   37.6280   33.7070   39.7570 C   0  0  0  0  0  3  0  0  0  0  0  0
   42.0060   33.1370   39.4870 H   0  0  0  0  0  0  0  0  0  0  0  0
  1  3  1  0  0  0  0
  1  4  1  0  0  0  0
  2  1  1  0  0  0  0
  4  9  1  6  0  0  0
  4  5  1  0  0  0  0
  4  8  1  0  0  0  0
  5 10  1  0  0  0  0
  5  6  1  0  0  0  0
  6 12  1  0  0  0  0
  6  7  1  0  0  0  0
  8 14  1  1  0  0  0
  8 15  1  0  0  0  0
  8  7  1  0  0  0  0
 11  5  1  0  0  0  0
 13  6  1  0  0  0  0
 15 20  1  6  0  0  0
 15 16  1  0  0  0  0
 16 21  1  0  0  0  0
 16 17  1  0  0  0  0
 16 22  1  0  0  0  0
 17 24  1  0  0  0  0
 17 23  1  0  0  0  0
 18 17  1  0  0  0  0
 19 15  1  0  0  0  0
 19 18  1  0  0  0  0
 19 25  1  0  0  0  0
 26 19  1  0  0  0  0
 27 28  2  0  0  0  0
 28  1  1  0  0  0  0
 29 34  2  0  0  0  0
 29 30  1  0  0  0  0
 30 31  2  0  0  0  0
 31 32  1  0  0  0  0
 31 38  1  0  0  0  0
 33 32  2  0  0  0  0
 33 27  1  0  0  0  0
 34 33  1  0  0  0  0
 35 29  1  0  0  0  0
 36 30  1  0  0  0  0
 37 47  1  0  0  0  0
 38 39  1  0  0  0  0
 38 37  2  0  0  0  0
 39 41  2  0  0  0  0
 40 39  1  0  0  0  0
 41 42  1  0  0  0  0
 41 46  1  0  0  0  0
 42 43  1  0  0  0  0
 43 45  2  0  0  0  0
 43 44  1  0  0  0  0
 46 45  1  0  0  0  0
 47 46  2  0  0  0  0
 48 42  1  0  0  0  0
M  END
>  <minimizedAffinity>
-6.14609814

$$$$

 OpenBabel03242513253D

 48 52  0  0  1  0  0  0  0  0999 V2000
   36.3820   28.1440   41.9940 C   0  0  0  0  0  0  0  0  0  0  0  0
   36.0080   27.6950   41.0600 H   0  0  0  0  0  0  0  0  0  0  0  0
   35.4570   28.2940   42.6230 H   0  0  0  0  0  0  0  0  0  0  0  0
   37.2980   27.2610   42.7720 C   0  0  2  0  0  0  0  0  0  0  0  0
   38.4030   28.0190   43.4740 C   0  0  0  0  0  0  0  0  0  0  0  0
   39.3140   26.8330   43.7710 C   0  0  0  0  0  0  0  0  0  0  0  0
   39.2780   26.0820   42.6310 O   0  0  0  0  0  0  0  0  0  0  0  0
   38.1170   26.3460   41.9390 C   0  0  1  0  0  0  0  0  0  0  0  0
   36.7120   26.7730   43.5710 H   0  0  0  0  0  0  0  0  0  0  0  0
   38.8830   28.7030   42.7420 H   0  0  0  0  0  0  0  0  0  0  0  0
   38.0640   28.5200   44.3950 H   0  0  0  0  0  0  0  0  0  0  0  0
   40.3080   27.2800   43.9730 H   0  0  0  0  0  0  0  0  0  0  0  0
   38.9230   26.3030   44.6480 H   0  0  0  0  0  0  0  0  0  0  0  0
   38.3690   26.8130   40.9850 H   0  0  0  0  0  0  0  0  0  0  0  0
   37.4150   25.0570   41.6640 C   0  0  1  0  0  0  0  0  0  0  0  0
   36.7910   25.0270   40.2810 C   0  0  0  0  0  0  0  0  0  0  0  0
   37.1380   23.6450   39.7980 C   0  0  0  0  0  0  0  0  0  0  0  0
   37.5960   22.9480   40.9190 O   0  0  0  0  0  0  0  0  0  0  0  0
   38.4110   23.9020   41.5280 C   0  0  0  0  0  0  0  0  0  0  0  0
   36.6820   24.7610   42.4100 H   0  0  0  0  0  0  0  0  0  0  0  0
   35.6980   25.1960   40.3290 H   0  0  0  0  0  0  0  0  0  0  0  0
   37.2200   25.7880   39.5990 H   0  0  0  0  0  0  0  0  0  0  0  0
   37.8850   23.6550   38.9830 H   0  0  0  0  0  0  0  0  0  0  0  0
   36.1920   23.1750   39.4460 H   0  0  0  0  0  0  0  0  0  0  0  0
   39.1810   24.1300   40.7360 H   0  0  0  0  0  0  0  0  0  0  0  0
   38.8230   23.5910   42.4820 H   0  0  0  0  0  0  0  0  0  0  0  0
   37.4130   29.8720   40.6120 C   0  0  0  0  0  3  0  0  0  0  0  0
   36.9220   29.4990   41.7640 C   0  0  0  0  0  3  0  0  0  0  0  0
   37.6540   33.4500   39.8990 C   0  0  0  0  0  0  0  0  0  0  0  0
   39.0580   33.6880   40.0630 C   0  0  0  0  0  0  0  0  0  0  0  0
   39.8450   32.5980   40.4110 C   0  0  0  0  0  0  0  0  0  0  0  0
   39.2730   31.3880   40.5780 N   0  0  0  0  0  0  0  0  0  0  0  0
   37.9340   31.2020   40.4130 C   0  0  0  0  0  0  0  0  0  0  0  0
   37.1330   32.2080   40.0800 N   0  0  0  0  0  0  0  0  0  0  0  0
   37.0630   34.2970   39.6320 H   0  0  0  0  0  0  0  0  0  0  0  0
   39.4960   34.6440   39.9300 H   0  0  0  0  0  0  0  0  0  0  0  0
   41.9940   31.5210   40.7750 C   0  0  0  0  0  3  0  0  0  0  0  0
   41.2830   32.6900   40.6120 C   0  0  0  0  0  0  0  0  0  0  0  0
   41.9940   33.8690   40.6510 C   0  0  0  0  0  0  0  0  0  0  0  0
   41.4620   34.8000   40.5250 H   0  0  0  0  0  0  0  0  0  0  0  0
   43.3510   33.9380   40.8410 C   0  0  0  0  0  0  0  0  0  0  0  0
   44.2700   34.9110   40.9210 N   0  0  0  0  0  0  0  0  0  0  0  0
   45.4830   34.3990   41.1210 C   0  0  0  0  0  0  0  0  0  0  0  0
   46.3980   34.9460   41.2220 H   0  0  0  0  0  0  0  0  0  0  0  0
   45.3500   33.0470   41.1740 N   0  0  0  0  0  0  0  0  0  0  0  0
   44.0550   32.7530   41.0040 C   0  0  0  0  0  0  0  0  0  0  0  0
   43.3680   31.5690   40.9700 C   0  0  0  0  0  3  0  0  0  0  0  0
   44.0680   35.9350   40.8370 H   0  0  0  0  0  0  0  0  0  0  0  0
  1  3  1  0  0  0  0
  1  4  1  0  0  0  0
  2  1  1  0  0  0  0
  4  5  1  0  0  0  0
  4  9  1  1  0  0  0
  5  6  1  0  0  0  0
  5 11  1  0  0  0  0
  6 12  1  0  0  0  0
  6 13  1  0  0  0  0
  7  6  1  0  0  0  0
  8 14  1  6  0  0  0
  8  7  1  0  0  0  0
  8  4  1  0  0  0  0
 10  5  1  0  0  0  0
 15  8  1  0  0  0  0
 15 20  1  1  0  0  0
 16 21  1  0  0  0  0
 16 15  1  0  0  0  0
 17 16  1  0  0  0  0
 17 18  1  0  0  0  0
 18 19  1  0  0  0  0
 19 15  1  0  0  0  0
 19 26  1  0  0  0  0
 22 16  1  0  0  0  0
 23 17  1  0  0  0  0
 24 17  1  0  0  0  0
 25 19  1  0  0  0  0
 27 28  2  0  0  0  0
 28  1  1  0  0  0  0
 29 30  2  0  0  0  0
 29 34  1  0  0  0  0
 30 31  1  0  0  0  0
 31 32  2  0  0  0  0
 31 38  1  0  0  0  0
 33 32  1  0  0  0  0
 33 27  1  0  0  0  0
 34 33  2  0  0  0  0
 35 29  1  0  0  0  0
 36 30  1  0  0  0  0
 37 47  1  0  0  0  0
 38 39  1  0  0  0  0
 38 37  2  0  0  0  0
 39 41  2  0  0  0  0
 40 39  1  0  0  0  0
 41 42  1  0  0  0  0
 41 46  1  0  0  0  0
 42 43  1  0  0  0  0
 43 45  2  0  0  0  0
 43 44  1  0  0  0  0
 46 45  1  0  0  0  0
 47 46  2  0  0  0  0
 48 42  1  0  0  0  0
M  END
>  <minimizedAffinity>
-6.11575317

$$$$
