
 OpenBabel03252503543D

 39 42  0  0  1  0  0  0  0  0999 V2000
   45.9900   32.9280   46.2130 N   0  0  0  0  0  0  0  0  0  0  0  0
   45.2780   33.0760   47.4860 C   0  0  0  0  0  0  0  0  0  0  0  0
   46.0960   32.3060   48.5150 C   0  0  0  0  0  0  0  0  0  0  0  0
   45.9080   30.8410   48.2240 C   0  0  0  0  0  0  0  0  0  0  0  0
   46.3230   30.5960   46.8060 C   0  0  0  0  0  0  0  0  0  0  0  0
   46.7950   31.7750   46.0570 C   0  0  1  0  0  0  0  0  0  0  0  0
   44.3150   32.5290   47.3480 H   0  0  0  0  0  0  0  0  0  0  0  0
   45.1420   34.1300   47.7560 H   0  0  0  0  0  0  0  0  0  0  0  0
   45.8480   32.5880   49.5400 H   0  0  0  0  0  0  0  0  0  0  0  0
   47.1760   32.5230   48.2650 H   0  0  0  0  0  0  0  0  0  0  0  0
   46.3950   30.1840   48.9640 H   0  0  0  0  0  0  0  0  0  0  0  0
   44.8000   30.6370   48.2840 H   0  0  0  0  0  0  0  0  0  0  0  0
   47.1940   29.8770   46.8660 H   0  0  0  0  0  0  0  0  0  0  0  0
   45.5480   29.9970   46.2430 H   0  0  0  0  0  0  0  0  0  0  0  0
   47.8740   31.9610   46.2130 H   0  0  0  0  0  0  0  0  0  0  0  0
   45.4410   30.9660   44.0790 C   0  0  0  0  0  0  0  0  0  0  0  0
   46.6730   31.3020   44.6060 C   0  0  0  0  0  0  0  0  0  0  0  0
   47.7980   31.1510   43.7810 C   0  0  0  0  0  0  0  0  0  0  0  0
   48.7170   31.4220   44.2350 H   0  0  0  0  0  0  0  0  0  0  0  0
   47.6430   30.6840   42.5010 C   0  0  0  0  0  0  0  0  0  0  0  0
   48.6120   30.4730   41.5620 N   0  0  0  0  0  0  0  0  0  0  0  0
   47.9560   30.0110   40.4700 C   0  0  0  0  0  0  0  0  0  0  0  0
   48.5050   29.7620   39.5670 H   0  0  0  0  0  0  0  0  0  0  0  0
   46.6340   29.9400   40.7300 N   0  0  0  0  0  0  0  0  0  0  0  0
   46.4010   30.3560   41.9990 C   0  0  0  0  0  0  0  0  0  0  0  0
   45.2890   30.4970   42.7900 C   0  0  0  0  0  0  0  0  0  0  0  0
   49.6390   30.6360   41.6690 H   0  0  0  0  0  0  0  0  0  0  0  0
   46.5500   34.8780   43.1290 C   0  0  0  0  0  0  0  0  0  0  0  0
   46.7460   33.9300   44.1380 C   0  0  0  0  0  0  0  0  0  0  0  0
   45.8640   33.8780   45.2030 C   0  0  0  0  0  0  0  0  0  0  0  0
   44.8360   34.7680   45.2180 N   0  0  0  0  0  0  0  0  0  0  0  0
   44.6520   35.6880   44.2400 C   0  0  0  0  0  0  0  0  0  0  0  0
   45.5150   35.7370   43.1940 N   0  0  0  0  0  0  0  0  0  0  0  0
   47.6090   33.3020   44.0360 H   0  0  0  0  0  0  0  0  0  0  0  0
   43.8100   36.3850   44.2940 H   0  0  0  0  0  0  0  0  0  0  0  0
   47.5100   34.8690   41.9760 C   0  0  0  0  0  0  0  0  0  0  0  0
   46.8570   34.6570   40.7670 F   0  0  0  0  0  0  0  0  0  0  0  0
   48.1650   36.0810   41.9830 F   0  0  0  0  0  0  0  0  0  0  0  0
   48.4530   33.8680   42.1650 F   0  0  0  0  0  0  0  0  0  0  0  0
  1  2  1  0  0  0  0
  2  8  1  0  0  0  0
  2  3  1  0  0  0  0
  3  9  1  0  0  0  0
  4 12  1  0  0  0  0
  4  3  1  0  0  0  0
  4 11  1  0  0  0  0
  5 13  1  0  0  0  0
  5  4  1  0  0  0  0
  6  1  1  0  0  0  0
  6 15  1  1  0  0  0
  6  5  1  0  0  0  0
  7  2  1  0  0  0  0
 10  3  1  0  0  0  0
 14  5  1  0  0  0  0
 16 17  1  0  0  0  0
 17  6  1  0  0  0  0
 18 19  1  0  0  0  0
 18 17  2  0  0  0  0
 20 18  1  0  0  0  0
 21 27  1  0  0  0  0
 21 20  1  0  0  0  0
 22 24  2  0  0  0  0
 22 21  1  0  0  0  0
 23 22  1  0  0  0  0
 24 25  1  0  0  0  0
 25 20  2  0  0  0  0
 25 26  1  0  0  0  0
 26 16  2  0  0  0  0
 28 33  2  0  0  0  0
 28 29  1  0  0  0  0
 29 30  2  0  0  0  0
 30 31  1  0  0  0  0
 30  1  1  0  0  0  0
 32 35  1  0  0  0  0
 32 31  2  0  0  0  0
 33 32  1  0  0  0  0
 34 29  1  0  0  0  0
 36 38  1  0  0  0  0
 36 39  1  0  0  0  0
 36 28  1  0  0  0  0
 37 36  1  0  0  0  0
M  END
>  <minimizedAffinity>
-5.50372362

>  <minimizedRMSD>
0.938008368

$$$$
