
 OpenBabel03242513223D

 37 40  0  0  1  0  0  0  0  0999 V2000
   46.6980   30.6340   47.4690 C   0  0  2  0  0  0  0  0  0  0  0  0
   45.2310   31.0290   47.5940 C   0  0  0  0  0  0  0  0  0  0  0  0
   45.2880   31.4460   49.0690 C   0  0  0  0  0  0  0  0  0  0  0  0
   46.4450   32.1980   49.1570 O   0  0  0  0  0  0  0  0  0  0  0  0
   47.3400   31.7520   48.1930 C   0  0  1  0  0  0  0  0  0  0  0  0
   46.8060   29.7060   48.0840 H   0  0  0  0  0  0  0  0  0  0  0  0
   44.5610   30.1630   47.4530 H   0  0  0  0  0  0  0  0  0  0  0  0
   44.9920   31.9060   46.9710 H   0  0  0  0  0  0  0  0  0  0  0  0
   45.3160   30.5430   49.7050 H   0  0  0  0  0  0  0  0  0  0  0  0
   44.4160   32.1180   49.3070 H   0  0  0  0  0  0  0  0  0  0  0  0
   47.5640   32.6420   47.5660 H   0  0  0  0  0  0  0  0  0  0  0  0
   49.6020   32.1530   49.4090 C   0  0  0  0  0  0  0  0  0  0  0  0
   48.5970   31.3490   48.9150 C   0  0  0  0  0  0  0  0  0  0  0  0
   48.7010   29.9680   49.0780 C   0  0  0  0  0  0  0  0  0  0  0  0
   47.9550   29.2490   48.7200 H   0  0  0  0  0  0  0  0  0  0  0  0
   49.7670   29.3600   49.7110 C   0  0  0  0  0  0  0  0  0  0  0  0
   50.1150   28.0940   49.9980 N   0  0  0  0  0  0  0  0  0  0  0  0
   51.3030   28.1370   50.6500 C   0  0  0  0  0  0  0  0  0  0  0  0
   51.8980   27.3100   51.0390 H   0  0  0  0  0  0  0  0  0  0  0  0
   51.7220   29.4150   50.7840 N   0  0  0  0  0  0  0  0  0  0  0  0
   50.7650   30.1790   50.2000 C   0  0  0  0  0  0  0  0  0  0  0  0
   50.6660   31.5460   50.0420 C   0  0  0  0  0  0  0  0  0  0  0  0
   49.5720   27.2400   49.7620 H   0  0  0  0  0  0  0  0  0  0  0  0
   47.1310   30.4380   46.0610 C   0  0  0  0  0  0  0  0  0  0  0  0
   48.1230   29.9460   46.0690 H   0  0  0  0  0  0  0  0  0  0  0  0
   46.4620   29.7330   45.5210 H   0  0  0  0  0  0  0  0  0  0  0  0
   47.6490   31.7360   44.0400 C   0  0  0  0  0  0  0  0  0  0  0  0
   47.2550   31.7050   45.2970 C   0  0  0  0  0  0  0  0  0  0  0  0
   46.8650   34.9640   42.4800 C   0  0  0  0  0  0  0  0  0  0  0  0
   48.1350   35.3580   41.9610 C   0  0  0  0  0  0  0  0  0  0  0  0
   49.2040   34.4820   42.1790 C   0  0  0  0  0  0  0  0  0  0  0  0
   48.9870   33.3180   42.8620 N   0  0  0  0  0  0  0  0  0  0  0  0
   47.7560   32.9920   43.3340 C   0  0  0  0  0  0  0  0  0  0  0  0
   46.7160   33.7950   43.1490 N   0  0  0  0  0  0  0  0  0  0  0  0
   46.0170   35.6020   42.3380 H   0  0  0  0  0  0  0  0  0  0  0  0
   48.1940   36.2960   41.4400 H   0  0  0  0  0  0  0  0  0  0  0  0
   50.1490   34.7790   41.7920 H   0  0  0  0  0  0  0  0  0  0  0  0
  1  2  1  0  0  0  0
  1  6  1  1  0  0  0
  1  5  1  0  0  0  0
  2  3  1  0  0  0  0
  3  4  1  0  0  0  0
  3 10  1  0  0  0  0
  3  9  1  0  0  0  0
  5 11  1  6  0  0  0
  5 13  1  0  0  0  0
  5  4  1  0  0  0  0
  7  2  1  0  0  0  0
  8  2  1  0  0  0  0
 12 22  1  0  0  0  0
 13 14  1  0  0  0  0
 13 12  2  0  0  0  0
 14 16  2  0  0  0  0
 15 14  1  0  0  0  0
 16 17  1  0  0  0  0
 16 21  1  0  0  0  0
 17 18  1  0  0  0  0
 18 20  2  0  0  0  0
 18 19  1  0  0  0  0
 21 20  1  0  0  0  0
 22 21  2  0  0  0  0
 23 17  1  0  0  0  0
 24 25  1  0  0  0  0
 24  1  1  0  0  0  0
 26 24  1  0  0  0  0
 27 28  2  0  0  0  0
 28 24  1  0  0  0  0
 29 34  1  0  0  0  0
 30 31  1  0  0  0  0
 30 29  2  0  0  0  0
 31 32  2  0  0  0  0
 32 33  1  0  0  0  0
 33 27  1  0  0  0  0
 34 33  2  0  0  0  0
 35 29  1  0  0  0  0
 36 30  1  0  0  0  0
 37 31  1  0  0  0  0
M  END
>  <minimizedAffinity>
-5.10739946

>  <minimizedRMSD>
2.28549552

$$$$
