
 OpenBabel03242515063D

 42 45  0  0  0  0  0  0  0  0999 V2000
   36.2180   27.7260   36.0330 C   0  0  0  0  0  0  0  0  0  0  0  0
   36.5700   28.5260   37.1380 C   0  0  0  0  0  0  0  0  0  0  0  0
   36.8700   29.8580   36.9310 C   0  0  0  0  0  0  0  0  0  0  0  0
   36.8130   30.3310   35.6610 N   0  0  0  0  0  0  0  0  0  0  0  0
   36.4800   29.5660   34.6080 C   0  0  0  0  0  0  0  0  0  0  0  0
   36.1870   28.2780   34.8050 N   0  0  0  0  0  0  0  0  0  0  0  0
   36.5950   28.0900   38.1070 H   0  0  0  0  0  0  0  0  0  0  0  0
   36.5460   30.8350   39.2080 C   0  0  0  0  0  3  0  0  0  0  0  0
   37.2410   30.7550   38.0220 C   0  0  0  0  0  0  0  0  0  0  0  0
   38.3360   31.5730   37.8810 C   0  0  0  0  0  0  0  0  0  0  0  0
   38.8920   31.5170   36.9490 H   0  0  0  0  0  0  0  0  0  0  0  0
   38.7200   32.4330   38.8780 C   0  0  0  0  0  0  0  0  0  0  0  0
   39.7500   33.2990   38.9220 N   0  0  0  0  0  0  0  0  0  0  0  0
   39.7190   33.9250   40.1150 C   0  0  0  0  0  0  0  0  0  0  0  0
   40.4000   34.6960   40.5020 H   0  0  0  0  0  0  0  0  0  0  0  0
   38.6670   33.4570   40.8300 N   0  0  0  0  0  0  0  0  0  0  0  0
   38.0420   32.5300   40.0710 C   0  0  0  0  0  0  0  0  0  0  0  0
   36.9300   31.7080   40.2310 C   0  0  0  0  0  3  0  0  0  0  0  0
   40.5050   33.5410   38.2340 H   0  0  0  0  0  0  0  0  0  0  0  0
   36.4560   30.1850   33.3130 C   0  0  0  0  0  0  0  0  0  0  0  0
   36.0920   31.3650   33.2160 O   0  0  0  0  0  0  0  0  0  0  0  0
   36.8570   29.4160   32.1860 N   0  0  0  0  0  0  0  0  0  0  0  0
   36.1340   29.4540   31.4060 H   0  0  0  0  0  0  0  0  0  0  0  0
   37.2440   28.8320   31.4330 H   0  0  0  0  0  0  0  0  0  0  0  0
   35.8240   26.0130   36.3700 S   0  0  0  0  0  0  0  0  0  0  0  0
   35.5910   25.6920   38.1230 C   0  0  0  0  0  0  0  0  0  0  0  0
   35.0260   26.5370   38.5760 H   0  0  0  0  0  0  0  0  0  0  0  0
   34.9160   24.8100   38.2240 H   0  0  0  0  0  0  0  0  0  0  0  0
   36.8520   25.3920   38.8400 C   0  0  0  0  0  0  0  0  0  0  0  0
   36.8660   24.2820   39.0300 H   0  0  0  0  0  0  0  0  0  0  0  0
   37.7270   25.7130   38.2690 H   0  0  0  0  0  0  0  0  0  0  0  0
   37.4460   23.5100   41.1590 Cl  0  0  0  0  0  0  0  0  0  0  0  0
   37.1290   25.2100   41.3390 C   0  0  0  0  0  0  0  0  0  0  0  0
   36.8660   25.9930   40.2010 C   0  0  0  0  0  0  0  0  0  0  0  0
   36.6280   27.3170   40.4180 C   0  0  0  0  0  0  0  0  0  0  0  0
   36.6190   27.9650   41.6350 C   0  0  0  0  0  0  0  0  0  0  0  0
   36.8770   27.1870   42.7440 C   0  0  0  0  0  0  0  0  0  0  0  0
   36.8860   27.9270   44.3350 Cl  0  0  0  0  0  0  0  0  0  0  0  0
   37.1250   25.8420   42.5840 C   0  0  0  0  0  0  0  0  0  0  0  0
   36.4270   27.9040   39.5190 H   0  0  0  0  0  0  0  0  0  0  0  0
   36.4200   29.0270   41.7330 H   0  0  0  0  0  0  0  0  0  0  0  0
   37.3270   25.2590   43.4860 H   0  0  0  0  0  0  0  0  0  0  0  0
  1 25  1  0  0  0  0
  1  2  1  0  0  0  0
  2  7  1  0  0  0  0
  3  2  2  0  0  0  0
  3  9  1  0  0  0  0
  4  3  1  0  0  0  0
  5  6  1  0  0  0  0
  5  4  2  0  0  0  0
  6  1  2  0  0  0  0
  8 18  1  0  0  0  0
  9  8  2  0  0  0  0
 10  9  1  0  0  0  0
 10 12  2  0  0  0  0
 11 10  1  0  0  0  0
 12 13  1  0  0  0  0
 12 17  1  0  0  0  0
 13 14  1  0  0  0  0
 14 15  1  0  0  0  0
 14 16  2  0  0  0  0
 17 18  2  0  0  0  0
 17 16  1  0  0  0  0
 19 13  1  0  0  0  0
 20  5  1  0  0  0  0
 21 20  2  0  0  0  0
 22 20  1  0  0  0  0
 23 22  1  0  0  0  0
 24 22  1  0  0  0  0
 25 26  1  0  0  0  0
 26 28  1  0  0  0  0
 26 27  1  0  0  0  0
 26 29  1  0  0  0  0
 29 30  1  0  0  0  0
 29 34  1  0  0  0  0
 31 29  1  0  0  0  0
 32 33  1  0  0  0  0
 33 39  1  0  0  0  0
 34 35  1  0  0  0  0
 34 33  2  0  0  0  0
 35 36  2  0  0  0  0
 36 41  1  0  0  0  0
 36 37  1  0  0  0  0
 37 38  1  0  0  0  0
 39 37  2  0  0  0  0
 39 42  1  0  0  0  0
 40 35  1  0  0  0  0
M  END
>  <minimizedAffinity>
-6.75378084

$$$$

 OpenBabel03242515063D

 42 45  0  0  0  0  0  0  0  0999 V2000
   36.4170   28.1060   39.8260 C   0  0  0  0  0  0  0  0  0  0  0  0
   36.8090   29.4350   39.5640 C   0  0  0  0  0  0  0  0  0  0  0  0
   37.3470   30.1880   40.5880 C   0  0  0  0  0  0  0  0  0  0  0  0
   37.4700   29.6050   41.8070 N   0  0  0  0  0  0  0  0  0  0  0  0
   37.0950   28.3400   42.0560 C   0  0  0  0  0  0  0  0  0  0  0  0
   36.5750   27.6080   41.0670 N   0  0  0  0  0  0  0  0  0  0  0  0
   36.6830   29.8280   38.5850 H   0  0  0  0  0  0  0  0  0  0  0  0
   36.9960   32.5360   39.8080 C   0  0  0  0  0  3  0  0  0  0  0  0
   37.7800   31.5700   40.3980 C   0  0  0  0  0  0  0  0  0  0  0  0
   39.0320   31.9500   40.8210 C   0  0  0  0  0  0  0  0  0  0  0  0
   39.6570   31.1940   41.2880 H   0  0  0  0  0  0  0  0  0  0  0  0
   39.4810   33.2350   40.6620 C   0  0  0  0  0  0  0  0  0  0  0  0
   40.6600   33.7870   41.0080 N   0  0  0  0  0  0  0  0  0  0  0  0
   40.6350   35.0850   40.6470 C   0  0  0  0  0  0  0  0  0  0  0  0
   41.4190   35.8450   40.7700 H   0  0  0  0  0  0  0  0  0  0  0  0
   39.4400   35.3590   40.0710 N   0  0  0  0  0  0  0  0  0  0  0  0
   38.7160   34.2180   40.0760 C   0  0  0  0  0  0  0  0  0  0  0  0
   37.4450   33.8500   39.6410 C   0  0  0  0  0  3  0  0  0  0  0  0
   41.5160   33.3980   41.4730 H   0  0  0  0  0  0  0  0  0  0  0  0
   37.2760   27.8390   43.3890 C   0  0  0  0  0  0  0  0  0  0  0  0
   38.4100   27.4990   43.7560 O   0  0  0  0  0  0  0  0  0  0  0  0
   36.1410   27.7540   44.2420 N   0  0  0  0  0  0  0  0  0  0  0  0
   36.0500   26.7890   44.6800 H   0  0  0  0  0  0  0  0  0  0  0  0
   35.2990   27.8060   44.8300 H   0  0  0  0  0  0  0  0  0  0  0  0
   35.7430   27.1780   38.4530 S   0  0  0  0  0  0  0  0  0  0  0  0
   37.0110   26.3180   37.5140 C   0  0  0  0  0  0  0  0  0  0  0  0
   36.8210   26.4620   36.4270 H   0  0  0  0  0  0  0  0  0  0  0  0
   37.9850   26.8280   37.7050 H   0  0  0  0  0  0  0  0  0  0  0  0
   37.1570   24.8920   37.8890 C   0  0  0  0  0  0  0  0  0  0  0  0
   36.1170   24.4730   37.9980 H   0  0  0  0  0  0  0  0  0  0  0  0
   37.7380   24.3370   37.1480 H   0  0  0  0  0  0  0  0  0  0  0  0
   35.4480   23.4930   39.9860 Cl  0  0  0  0  0  0  0  0  0  0  0  0
   37.0480   24.1090   40.2820 C   0  0  0  0  0  0  0  0  0  0  0  0
   37.7540   24.7390   39.2440 C   0  0  0  0  0  0  0  0  0  0  0  0
   39.0020   25.1960   39.5480 C   0  0  0  0  0  0  0  0  0  0  0  0
   39.6390   25.1030   40.7670 C   0  0  0  0  0  0  0  0  0  0  0  0
   38.9360   24.4830   41.7790 C   0  0  0  0  0  0  0  0  0  0  0  0
   39.6690   24.3200   43.3650 Cl  0  0  0  0  0  0  0  0  0  0  0  0
   37.6710   24.0030   41.5280 C   0  0  0  0  0  0  0  0  0  0  0  0
   39.5300   25.6820   38.7250 H   0  0  0  0  0  0  0  0  0  0  0  0
   40.6370   25.4920   40.9380 H   0  0  0  0  0  0  0  0  0  0  0  0
   37.1460   23.5160   42.3540 H   0  0  0  0  0  0  0  0  0  0  0  0
  1  6  1  0  0  0  0
  2  1  2  0  0  0  0
  2  3  1  0  0  0  0
  3  4  2  0  0  0  0
  4  5  1  0  0  0  0
  5 20  1  0  0  0  0
  6  5  2  0  0  0  0
  7  2  1  0  0  0  0
  8  9  1  0  0  0  0
  9  3  1  0  0  0  0
  9 10  2  0  0  0  0
 10 11  1  0  0  0  0
 12 10  1  0  0  0  0
 12 13  1  0  0  0  0
 13 19  1  0  0  0  0
 14 15  1  0  0  0  0
 14 13  1  0  0  0  0
 16 17  1  0  0  0  0
 16 14  2  0  0  0  0
 17 12  2  0  0  0  0
 18  8  2  0  0  0  0
 18 17  1  0  0  0  0
 20 21  2  0  0  0  0
 20 22  1  0  0  0  0
 22 23  1  0  0  0  0
 22 24  1  0  0  0  0
 25  1  1  0  0  0  0
 26 28  1  0  0  0  0
 26 29  1  0  0  0  0
 26 25  1  0  0  0  0
 27 26  1  0  0  0  0
 29 30  1  0  0  0  0
 29 34  1  0  0  0  0
 31 29  1  0  0  0  0
 32 33  1  0  0  0  0
 33 39  1  0  0  0  0
 34 35  1  0  0  0  0
 34 33  2  0  0  0  0
 35 36  2  0  0  0  0
 36 41  1  0  0  0  0
 36 37  1  0  0  0  0
 37 38  1  0  0  0  0
 39 37  2  0  0  0  0
 39 42  1  0  0  0  0
 40 35  1  0  0  0  0
M  END
>  <minimizedAffinity>
-6.64195442

$$$$

 OpenBabel03242515063D

 42 45  0  0  0  0  0  0  0  0999 V2000
   38.3170   30.6900   41.1870 C   0  0  0  0  0  0  0  0  0  0  0  0
   37.6930   29.9440   40.1660 C   0  0  0  0  0  0  0  0  0  0  0  0
   37.1420   30.6110   39.0910 C   0  0  0  0  0  0  0  0  0  0  0  0
   37.2270   31.9650   39.0740 N   0  0  0  0  0  0  0  0  0  0  0  0
   37.8200   32.6750   40.0480 C   0  0  0  0  0  0  0  0  0  0  0  0
   38.3560   32.0320   41.0890 N   0  0  0  0  0  0  0  0  0  0  0  0
   37.6610   28.8850   40.2440 H   0  0  0  0  0  0  0  0  0  0  0  0
   35.2660   29.2770   38.1190 C   0  0  0  0  0  3  0  0  0  0  0  0
   36.4810   29.9130   37.9920 C   0  0  0  0  0  0  0  0  0  0  0  0
   37.0840   29.8730   36.7570 C   0  0  0  0  0  0  0  0  0  0  0  0
   38.0420   30.3730   36.6480 H   0  0  0  0  0  0  0  0  0  0  0  0
   36.5010   29.2280   35.6970 C   0  0  0  0  0  0  0  0  0  0  0  0
   36.9340   29.0840   34.4300 N   0  0  0  0  0  0  0  0  0  0  0  0
   36.0140   28.3680   33.7540 C   0  0  0  0  0  0  0  0  0  0  0  0
   36.0300   28.0560   32.7000 H   0  0  0  0  0  0  0  0  0  0  0  0
   34.9960   28.0560   34.5910 N   0  0  0  0  0  0  0  0  0  0  0  0
   35.2880   28.5860   35.8000 C   0  0  0  0  0  0  0  0  0  0  0  0
   34.6630   28.6160   37.0430 C   0  0  0  0  0  3  0  0  0  0  0  0
   37.7980   29.4120   33.9340 H   0  0  0  0  0  0  0  0  0  0  0  0
   37.8450   34.1040   39.9140 C   0  0  0  0  0  0  0  0  0  0  0  0
   38.6920   34.7540   40.5430 O   0  0  0  0  0  0  0  0  0  0  0  0
   36.8930   34.7220   39.0560 N   0  0  0  0  0  0  0  0  0  0  0  0
   36.3770   35.5120   39.5460 H   0  0  0  0  0  0  0  0  0  0  0  0
   36.2400   35.0900   38.3530 H   0  0  0  0  0  0  0  0  0  0  0  0
   39.0260   29.7640   42.5440 S   0  0  0  0  0  0  0  0  0  0  0  0
   37.9020   28.5200   43.1920 C   0  0  0  0  0  0  0  0  0  0  0  0
   37.4570   28.8900   44.1420 H   0  0  0  0  0  0  0  0  0  0  0  0
   37.0420   28.4340   42.4860 H   0  0  0  0  0  0  0  0  0  0  0  0
   38.5210   27.1810   43.3280 C   0  0  0  0  0  0  0  0  0  0  0  0
   39.6210   27.3050   43.1230 H   0  0  0  0  0  0  0  0  0  0  0  0
   38.3430   26.7520   44.3180 H   0  0  0  0  0  0  0  0  0  0  0  0
   39.6960   24.3720   43.3600 Cl  0  0  0  0  0  0  0  0  0  0  0  0
   38.5380   24.9320   42.1900 C   0  0  0  0  0  0  0  0  0  0  0  0
   38.0560   26.2500   42.2640 C   0  0  0  0  0  0  0  0  0  0  0  0
   37.1500   26.6200   41.3150 C   0  0  0  0  0  0  0  0  0  0  0  0
   36.6600   25.8340   40.2930 C   0  0  0  0  0  0  0  0  0  0  0  0
   37.1400   24.5430   40.2300 C   0  0  0  0  0  0  0  0  0  0  0  0
   36.5720   23.4710   38.9620 Cl  0  0  0  0  0  0  0  0  0  0  0  0
   38.0580   24.1160   41.1640 C   0  0  0  0  0  0  0  0  0  0  0  0
   36.7910   27.6480   41.3940 H   0  0  0  0  0  0  0  0  0  0  0  0
   35.9370   26.1960   39.5700 H   0  0  0  0  0  0  0  0  0  0  0  0
   38.4140   23.0850   41.0820 H   0  0  0  0  0  0  0  0  0  0  0  0
  1 25  1  0  0  0  0
  2  7  1  0  0  0  0
  2  1  2  0  0  0  0
  3  2  1  0  0  0  0
  4  3  2  0  0  0  0
  4  5  1  0  0  0  0
  5  6  2  0  0  0  0
  6  1  1  0  0  0  0
  9  8  1  0  0  0  0
  9  3  1  0  0  0  0
 10  9  2  0  0  0  0
 11 10  1  0  0  0  0
 12 17  2  0  0  0  0
 12 10  1  0  0  0  0
 13 12  1  0  0  0  0
 14 13  1  0  0  0  0
 14 16  2  0  0  0  0
 15 14  1  0  0  0  0
 16 17  1  0  0  0  0
 17 18  1  0  0  0  0
 18  8  2  0  0  0  0
 19 13  1  0  0  0  0
 20  5  1  0  0  0  0
 20 21  2  0  0  0  0
 22 23  1  0  0  0  0
 22 20  1  0  0  0  0
 24 22  1  0  0  0  0
 25 26  1  0  0  0  0
 26 29  1  0  0  0  0
 26 27  1  0  0  0  0
 28 26  1  0  0  0  0
 29 31  1  0  0  0  0
 30 29  1  0  0  0  0
 33 34  1  0  0  0  0
 33 32  1  0  0  0  0
 34 29  1  0  0  0  0
 35 40  1  0  0  0  0
 35 34  2  0  0  0  0
 36 35  1  0  0  0  0
 37 36  2  0  0  0  0
 37 39  1  0  0  0  0
 38 37  1  0  0  0  0
 39 33  2  0  0  0  0
 41 36  1  0  0  0  0
 42 39  1  0  0  0  0
M  END
>  <minimizedAffinity>
-6.57955503

$$$$

 OpenBabel03242515063D

 42 45  0  0  0  0  0  0  0  0999 V2000
   37.4410   30.2970   41.0430 C   0  0  0  0  0  0  0  0  0  0  0  0
   38.6670   29.9580   41.6490 C   0  0  0  0  0  0  0  0  0  0  0  0
   39.6570   30.9160   41.7390 C   0  0  0  0  0  0  0  0  0  0  0  0
   39.3960   32.1470   41.2320 N   0  0  0  0  0  0  0  0  0  0  0  0
   38.2270   32.4680   40.6530 C   0  0  0  0  0  0  0  0  0  0  0  0
   37.2670   31.5440   40.5650 N   0  0  0  0  0  0  0  0  0  0  0  0
   38.8050   28.9730   42.0240 H   0  0  0  0  0  0  0  0  0  0  0  0
   41.4270   29.3760   42.6000 C   0  0  0  0  0  3  0  0  0  0  0  0
   40.9540   30.6460   42.3540 C   0  0  0  0  0  0  0  0  0  0  0  0
   41.7620   31.6980   42.7160 C   0  0  0  0  0  0  0  0  0  0  0  0
   41.3970   32.7030   42.5250 H   0  0  0  0  0  0  0  0  0  0  0  0
   42.9860   31.4920   43.2980 C   0  0  0  0  0  0  0  0  0  0  0  0
   43.9040   32.3840   43.7160 N   0  0  0  0  0  0  0  0  0  0  0  0
   44.9500   31.7000   44.2210 C   0  0  0  0  0  0  0  0  0  0  0  0
   45.8800   32.0940   44.6540 H   0  0  0  0  0  0  0  0  0  0  0  0
   44.6960   30.3730   44.1260 N   0  0  0  0  0  0  0  0  0  0  0  0
   43.4800   30.2330   43.5530 C   0  0  0  0  0  0  0  0  0  0  0  0
   42.6740   29.1560   43.1940 C   0  0  0  0  0  3  0  0  0  0  0  0
   43.9300   33.4330   43.7080 H   0  0  0  0  0  0  0  0  0  0  0  0
   38.0740   33.8060   40.1550 C   0  0  0  0  0  0  0  0  0  0  0  0
   38.8630   34.6830   40.5310 O   0  0  0  0  0  0  0  0  0  0  0  0
   37.0160   34.0730   39.2420 N   0  0  0  0  0  0  0  0  0  0  0  0
   36.4310   34.9060   39.5500 H   0  0  0  0  0  0  0  0  0  0  0  0
   36.2920   34.1720   38.5190 H   0  0  0  0  0  0  0  0  0  0  0  0
   36.1940   29.0160   40.9720 S   0  0  0  0  0  0  0  0  0  0  0  0
   36.8690   27.4240   40.4790 C   0  0  0  0  0  0  0  0  0  0  0  0
   36.3410   27.0720   39.5650 H   0  0  0  0  0  0  0  0  0  0  0  0
   37.9240   27.5840   40.1560 H   0  0  0  0  0  0  0  0  0  0  0  0
   36.8670   26.4200   41.5680 C   0  0  0  0  0  0  0  0  0  0  0  0
   36.2850   26.8660   42.4240 H   0  0  0  0  0  0  0  0  0  0  0  0
   36.4370   25.4700   41.2420 H   0  0  0  0  0  0  0  0  0  0  0  0
   37.4600   27.7290   44.2540 Cl  0  0  0  0  0  0  0  0  0  0  0  0
   38.6060   26.7750   43.3580 C   0  0  0  0  0  0  0  0  0  0  0  0
   38.2320   26.2130   42.1260 C   0  0  0  0  0  0  0  0  0  0  0  0
   39.1800   25.4780   41.4800 C   0  0  0  0  0  0  0  0  0  0  0  0
   40.4660   25.2300   41.9130 C   0  0  0  0  0  0  0  0  0  0  0  0
   40.8220   25.7870   43.1230 C   0  0  0  0  0  0  0  0  0  0  0  0
   42.4400   25.5230   43.7520 Cl  0  0  0  0  0  0  0  0  0  0  0  0
   39.9030   26.5400   43.8180 C   0  0  0  0  0  0  0  0  0  0  0  0
   38.8650   25.0520   40.5260 H   0  0  0  0  0  0  0  0  0  0  0  0
   41.1710   24.6330   41.3440 H   0  0  0  0  0  0  0  0  0  0  0  0
   40.2220   26.9630   44.7740 H   0  0  0  0  0  0  0  0  0  0  0  0
  1  2  1  0  0  0  0
  2  3  2  0  0  0  0
  2  7  1  0  0  0  0
  3  9  1  0  0  0  0
  4  3  1  0  0  0  0
  5  4  2  0  0  0  0
  6  5  1  0  0  0  0
  6  1  2  0  0  0  0
  8 18  1  0  0  0  0
  9  8  2  0  0  0  0
  9 10  1  0  0  0  0
 10 12  2  0  0  0  0
 11 10  1  0  0  0  0
 12 17  1  0  0  0  0
 12 13  1  0  0  0  0
 13 14  1  0  0  0  0
 14 15  1  0  0  0  0
 16 14  2  0  0  0  0
 17 16  1  0  0  0  0
 18 17  2  0  0  0  0
 19 13  1  0  0  0  0
 20 21  2  0  0  0  0
 20  5  1  0  0  0  0
 22 23  1  0  0  0  0
 22 20  1  0  0  0  0
 24 22  1  0  0  0  0
 25  1  1  0  0  0  0
 26 25  1  0  0  0  0
 26 29  1  0  0  0  0
 27 26  1  0  0  0  0
 28 26  1  0  0  0  0
 29 34  1  0  0  0  0
 29 30  1  0  0  0  0
 31 29  1  0  0  0  0
 33 39  1  0  0  0  0
 33 32  1  0  0  0  0
 34 33  2  0  0  0  0
 35 36  2  0  0  0  0
 35 34  1  0  0  0  0
 36 37  1  0  0  0  0
 37 38  1  0  0  0  0
 37 39  2  0  0  0  0
 39 42  1  0  0  0  0
 40 35  1  0  0  0  0
 41 36  1  0  0  0  0
M  END
>  <minimizedAffinity>
-6.37155914

$$$$

 OpenBabel03242515063D

 42 45  0  0  0  0  0  0  0  0999 V2000
   36.3950   26.2720   38.2460 C   0  0  0  0  0  0  0  0  0  0  0  0
   36.8580   27.3310   39.0520 C   0  0  0  0  0  0  0  0  0  0  0  0
   37.1020   28.5590   38.4690 C   0  0  0  0  0  0  0  0  0  0  0  0
   36.8820   28.6820   37.1360 N   0  0  0  0  0  0  0  0  0  0  0  0
   36.4420   27.6720   36.3690 C   0  0  0  0  0  0  0  0  0  0  0  0
   36.2040   26.4830   36.9300 N   0  0  0  0  0  0  0  0  0  0  0  0
   37.0090   27.1640   40.0910 H   0  0  0  0  0  0  0  0  0  0  0  0
   38.2430   29.5940   40.4360 C   0  0  0  0  0  3  0  0  0  0  0  0
   37.5810   29.7070   39.2340 C   0  0  0  0  0  0  0  0  0  0  0  0
   37.3690   30.9760   38.7510 C   0  0  0  0  0  0  0  0  0  0  0  0
   36.8470   31.0750   37.8030 H   0  0  0  0  0  0  0  0  0  0  0  0
   37.7990   32.0830   39.4360 C   0  0  0  0  0  0  0  0  0  0  0  0
   37.6850   33.3890   39.1260 N   0  0  0  0  0  0  0  0  0  0  0  0
   38.2640   34.1040   40.1110 C   0  0  0  0  0  0  0  0  0  0  0  0
   38.3610   35.1950   40.1980 H   0  0  0  0  0  0  0  0  0  0  0  0
   38.7460   33.2520   41.0480 N   0  0  0  0  0  0  0  0  0  0  0  0
   38.4630   31.9960   40.6380 C   0  0  0  0  0  0  0  0  0  0  0  0
   38.6860   30.7180   41.1430 C   0  0  0  0  0  3  0  0  0  0  0  0
   37.2550   33.8900   38.3110 H   0  0  0  0  0  0  0  0  0  0  0  0
   36.2500   27.9290   34.9700 C   0  0  0  0  0  0  0  0  0  0  0  0
   35.3430   27.3380   34.3670 O   0  0  0  0  0  0  0  0  0  0  0  0
   37.1110   28.8610   34.3260 N   0  0  0  0  0  0  0  0  0  0  0  0
   37.5390   28.4550   33.4420 H   0  0  0  0  0  0  0  0  0  0  0  0
   37.7070   29.6090   33.9510 H   0  0  0  0  0  0  0  0  0  0  0  0
   36.0820   24.7120   39.0650 S   0  0  0  0  0  0  0  0  0  0  0  0
   37.3330   24.3160   40.2940 C   0  0  0  0  0  0  0  0  0  0  0  0
   37.5850   23.2350   40.2220 H   0  0  0  0  0  0  0  0  0  0  0  0
   38.2720   24.8480   40.0110 H   0  0  0  0  0  0  0  0  0  0  0  0
   36.9620   24.7320   41.6660 C   0  0  0  0  0  0  0  0  0  0  0  0
   36.2390   25.5890   41.5660 H   0  0  0  0  0  0  0  0  0  0  0  0
   36.5290   23.9050   42.2360 H   0  0  0  0  0  0  0  0  0  0  0  0
   36.5650   27.5040   42.8610 Cl  0  0  0  0  0  0  0  0  0  0  0  0
   38.0410   26.5920   42.9810 C   0  0  0  0  0  0  0  0  0  0  0  0
   38.1210   25.3180   42.3940 C   0  0  0  0  0  0  0  0  0  0  0  0
   39.3080   24.6610   42.5280 C   0  0  0  0  0  0  0  0  0  0  0  0
   40.4340   25.1180   43.1800 C   0  0  0  0  0  0  0  0  0  0  0  0
   40.3430   26.3700   43.7520 C   0  0  0  0  0  0  0  0  0  0  0  0
   41.7280   27.0320   44.6030 Cl  0  0  0  0  0  0  0  0  0  0  0  0
   39.1680   27.0780   43.6470 C   0  0  0  0  0  0  0  0  0  0  0  0
   39.3450   23.6740   42.0640 H   0  0  0  0  0  0  0  0  0  0  0  0
   41.3480   24.5380   43.2470 H   0  0  0  0  0  0  0  0  0  0  0  0
   39.1340   28.0660   44.1150 H   0  0  0  0  0  0  0  0  0  0  0  0
  1  2  1  0  0  0  0
  1 25  1  0  0  0  0
  2  7  1  0  0  0  0
  3  2  2  0  0  0  0
  3  9  1  0  0  0  0
  4  3  1  0  0  0  0
  5  6  1  0  0  0  0
  5  4  2  0  0  0  0
  6  1  2  0  0  0  0
  8 18  1  0  0  0  0
  9  8  2  0  0  0  0
 10  9  1  0  0  0  0
 10 12  2  0  0  0  0
 11 10  1  0  0  0  0
 12 17  1  0  0  0  0
 13 12  1  0  0  0  0
 13 14  1  0  0  0  0
 14 15  1  0  0  0  0
 14 16  2  0  0  0  0
 17 16  1  0  0  0  0
 17 18  2  0  0  0  0
 19 13  1  0  0  0  0
 20  5  1  0  0  0  0
 21 20  2  0  0  0  0
 22 20  1  0  0  0  0
 23 22  1  0  0  0  0
 24 22  1  0  0  0  0
 25 26  1  0  0  0  0
 26 29  1  0  0  0  0
 27 26  1  0  0  0  0
 28 26  1  0  0  0  0
 29 31  1  0  0  0  0
 29 34  1  0  0  0  0
 30 29  1  0  0  0  0
 32 33  1  0  0  0  0
 33 39  1  0  0  0  0
 34 35  1  0  0  0  0
 34 33  2  0  0  0  0
 35 36  2  0  0  0  0
 36 41  1  0  0  0  0
 36 37  1  0  0  0  0
 37 38  1  0  0  0  0
 39 37  2  0  0  0  0
 39 42  1  0  0  0  0
 40 35  1  0  0  0  0
M  END
>  <minimizedAffinity>
-6.36700583

$$$$

 OpenBabel03242515063D

 42 45  0  0  0  0  0  0  0  0999 V2000
   39.5350   30.7530   41.3960 C   0  0  0  0  0  0  0  0  0  0  0  0
   38.7340   29.7720   40.7770 C   0  0  0  0  0  0  0  0  0  0  0  0
   37.7180   30.1720   39.9330 C   0  0  0  0  0  0  0  0  0  0  0  0
   37.5400   31.5040   39.7430 N   0  0  0  0  0  0  0  0  0  0  0  0
   38.3030   32.4370   40.3340 C   0  0  0  0  0  0  0  0  0  0  0  0
   39.2880   32.0540   41.1510 N   0  0  0  0  0  0  0  0  0  0  0  0
   38.9290   28.7450   40.9720 H   0  0  0  0  0  0  0  0  0  0  0  0
   37.0490   27.8580   39.2700 C   0  0  0  0  0  3  0  0  0  0  0  0
   36.8460   29.2200   39.2520 C   0  0  0  0  0  0  0  0  0  0  0  0
   35.7600   29.6830   38.5470 C   0  0  0  0  0  0  0  0  0  0  0  0
   35.5910   30.7560   38.5270 H   0  0  0  0  0  0  0  0  0  0  0  0
   34.9150   28.8260   37.8910 C   0  0  0  0  0  0  0  0  0  0  0  0
   33.8160   29.0890   37.1590 N   0  0  0  0  0  0  0  0  0  0  0  0
   33.3190   27.9180   36.7140 C   0  0  0  0  0  0  0  0  0  0  0  0
   32.4330   27.7430   36.0890 H   0  0  0  0  0  0  0  0  0  0  0  0
   34.1040   26.9090   37.1630 N   0  0  0  0  0  0  0  0  0  0  0  0
   35.0970   27.4620   37.8950 C   0  0  0  0  0  0  0  0  0  0  0  0
   36.1920   26.9750   38.6030 C   0  0  0  0  0  3  0  0  0  0  0  0
   33.3300   29.9840   36.9040 H   0  0  0  0  0  0  0  0  0  0  0  0
   38.0130   33.8150   40.0520 C   0  0  0  0  0  0  0  0  0  0  0  0
   38.7070   34.6970   40.5770 O   0  0  0  0  0  0  0  0  0  0  0  0
   36.9360   34.1150   39.1730 N   0  0  0  0  0  0  0  0  0  0  0  0
   36.2670   34.8240   39.5980 H   0  0  0  0  0  0  0  0  0  0  0  0
   36.2070   34.2540   38.4620 H   0  0  0  0  0  0  0  0  0  0  0  0
   40.8450   30.1680   42.4650 S   0  0  0  0  0  0  0  0  0  0  0  0
   41.0770   28.3880   42.3610 C   0  0  0  0  0  0  0  0  0  0  0  0
   40.8490   28.0510   41.3250 H   0  0  0  0  0  0  0  0  0  0  0  0
   42.1630   28.1750   42.4990 H   0  0  0  0  0  0  0  0  0  0  0  0
   40.3250   27.6350   43.3910 C   0  0  0  0  0  0  0  0  0  0  0  0
   41.0540   26.9290   43.8800 H   0  0  0  0  0  0  0  0  0  0  0  0
   39.8600   28.3030   44.1210 H   0  0  0  0  0  0  0  0  0  0  0  0
   37.4080   28.2580   44.0070 Cl  0  0  0  0  0  0  0  0  0  0  0  0
   37.9330   26.9390   43.0030 C   0  0  0  0  0  0  0  0  0  0  0  0
   39.3060   26.7380   42.7800 C   0  0  0  0  0  0  0  0  0  0  0  0
   39.6440   25.6860   41.9820 C   0  0  0  0  0  0  0  0  0  0  0  0
   38.7780   24.8020   41.3730 C   0  0  0  0  0  0  0  0  0  0  0  0
   37.4340   25.0090   41.5990 C   0  0  0  0  0  0  0  0  0  0  0  0
   36.2580   23.9320   40.8640 Cl  0  0  0  0  0  0  0  0  0  0  0  0
   37.0350   26.0570   42.3980 C   0  0  0  0  0  0  0  0  0  0  0  0
   40.7160   25.5510   41.8230 H   0  0  0  0  0  0  0  0  0  0  0  0
   39.1190   23.9830   40.7480 H   0  0  0  0  0  0  0  0  0  0  0  0
   35.9610   26.1900   42.5530 H   0  0  0  0  0  0  0  0  0  0  0  0
  1 25  1  0  0  0  0
  2  7  1  0  0  0  0
  2  1  2  0  0  0  0
  3  2  1  0  0  0  0
  4  3  2  0  0  0  0
  4  5  1  0  0  0  0
  5  6  2  0  0  0  0
  6  1  1  0  0  0  0
  9  8  1  0  0  0  0
  9  3  1  0  0  0  0
 10  9  2  0  0  0  0
 11 10  1  0  0  0  0
 12 17  2  0  0  0  0
 12 10  1  0  0  0  0
 13 12  1  0  0  0  0
 14 13  1  0  0  0  0
 14 16  2  0  0  0  0
 15 14  1  0  0  0  0
 16 17  1  0  0  0  0
 17 18  1  0  0  0  0
 18  8  2  0  0  0  0
 19 13  1  0  0  0  0
 20  5  1  0  0  0  0
 20 21  2  0  0  0  0
 22 23  1  0  0  0  0
 22 20  1  0  0  0  0
 24 22  1  0  0  0  0
 26 25  1  0  0  0  0
 26 28  1  0  0  0  0
 26 29  1  0  0  0  0
 27 26  1  0  0  0  0
 29 30  1  0  0  0  0
 29 31  1  0  0  0  0
 33 32  1  0  0  0  0
 34 33  1  0  0  0  0
 34 29  1  0  0  0  0
 35 34  2  0  0  0  0
 36 37  2  0  0  0  0
 36 35  1  0  0  0  0
 37 39  1  0  0  0  0
 38 37  1  0  0  0  0
 39 42  1  0  0  0  0
 39 33  2  0  0  0  0
 40 35  1  0  0  0  0
 41 36  1  0  0  0  0
M  END
>  <minimizedAffinity>
-6.27577114

$$$$

 OpenBabel03242515063D

 42 45  0  0  0  0  0  0  0  0999 V2000
   38.7200   32.0650   40.4120 C   0  0  0  0  0  0  0  0  0  0  0  0
   39.3520   31.0630   41.1760 C   0  0  0  0  0  0  0  0  0  0  0  0
   40.6330   31.2850   41.6420 C   0  0  0  0  0  0  0  0  0  0  0  0
   41.2230   32.4670   41.3350 N   0  0  0  0  0  0  0  0  0  0  0  0
   40.6200   33.4200   40.6050 C   0  0  0  0  0  0  0  0  0  0  0  0
   39.3810   33.2090   40.1540 N   0  0  0  0  0  0  0  0  0  0  0  0
   38.8310   30.1600   41.3790 H   0  0  0  0  0  0  0  0  0  0  0  0
   42.5390   30.5720   43.0910 C   0  0  0  0  0  3  0  0  0  0  0  0
   41.3560   30.3000   42.4410 C   0  0  0  0  0  0  0  0  0  0  0  0
   40.8510   29.0270   42.5640 C   0  0  0  0  0  0  0  0  0  0  0  0
   39.9180   28.8030   42.0550 H   0  0  0  0  0  0  0  0  0  0  0  0
   41.4970   28.0700   43.3020 C   0  0  0  0  0  0  0  0  0  0  0  0
   41.1610   26.7860   43.5350 N   0  0  0  0  0  0  0  0  0  0  0  0
   42.1110   26.2430   44.3220 C   0  0  0  0  0  0  0  0  0  0  0  0
   42.1700   25.2180   44.7140 H   0  0  0  0  0  0  0  0  0  0  0  0
   43.0510   27.1800   44.5890 N   0  0  0  0  0  0  0  0  0  0  0  0
   42.6790   28.3180   43.9610 C   0  0  0  0  0  0  0  0  0  0  0  0
   43.2060   29.6010   43.8470 C   0  0  0  0  0  3  0  0  0  0  0  0
   40.3480   26.1980   43.2280 H   0  0  0  0  0  0  0  0  0  0  0  0
   41.3520   34.6280   40.3480 C   0  0  0  0  0  0  0  0  0  0  0  0
   41.3480   35.1030   39.2030 O   0  0  0  0  0  0  0  0  0  0  0  0
   42.0550   35.2380   41.4230 N   0  0  0  0  0  0  0  0  0  0  0  0
   43.0670   35.4400   41.1670 H   0  0  0  0  0  0  0  0  0  0  0  0
   42.4610   35.6710   42.2630 H   0  0  0  0  0  0  0  0  0  0  0  0
   37.0550   31.7230   39.8530 S   0  0  0  0  0  0  0  0  0  0  0  0
   36.1160   30.7500   41.0390 C   0  0  0  0  0  0  0  0  0  0  0  0
   36.7460   30.5640   41.9370 H   0  0  0  0  0  0  0  0  0  0  0  0
   35.2720   31.3790   41.4060 H   0  0  0  0  0  0  0  0  0  0  0  0
   35.5500   29.5080   40.4650 C   0  0  0  0  0  0  0  0  0  0  0  0
   34.5140   29.3910   40.8920 H   0  0  0  0  0  0  0  0  0  0  0  0
   35.5330   29.5390   39.3720 H   0  0  0  0  0  0  0  0  0  0  0  0
   35.9120   27.2460   38.4580 Cl  0  0  0  0  0  0  0  0  0  0  0  0
   36.4970   27.2010   40.0950 C   0  0  0  0  0  0  0  0  0  0  0  0
   36.2780   28.3010   40.9430 C   0  0  0  0  0  0  0  0  0  0  0  0
   36.7650   28.1960   42.2110 C   0  0  0  0  0  0  0  0  0  0  0  0
   37.4490   27.1240   42.7450 C   0  0  0  0  0  0  0  0  0  0  0  0
   37.6570   26.0510   41.9050 C   0  0  0  0  0  0  0  0  0  0  0  0
   38.5190   24.6430   42.4990 Cl  0  0  0  0  0  0  0  0  0  0  0  0
   37.1870   26.1030   40.6120 C   0  0  0  0  0  0  0  0  0  0  0  0
   36.5820   29.0620   42.8500 H   0  0  0  0  0  0  0  0  0  0  0  0
   37.8080   27.1100   43.7690 H   0  0  0  0  0  0  0  0  0  0  0  0
   37.3730   25.2340   39.9750 H   0  0  0  0  0  0  0  0  0  0  0  0
  1  2  1  0  0  0  0
  2  7  1  0  0  0  0
  2  3  2  0  0  0  0
  3  9  1  0  0  0  0
  4  3  1  0  0  0  0
  5  4  2  0  0  0  0
  6  1  2  0  0  0  0
  6  5  1  0  0  0  0
  8 18  1  0  0  0  0
  9 10  1  0  0  0  0
  9  8  2  0  0  0  0
 10 12  2  0  0  0  0
 11 10  1  0  0  0  0
 12 13  1  0  0  0  0
 12 17  1  0  0  0  0
 13 14  1  0  0  0  0
 14 16  2  0  0  0  0
 14 15  1  0  0  0  0
 17 16  1  0  0  0  0
 18 17  2  0  0  0  0
 19 13  1  0  0  0  0
 20  5  1  0  0  0  0
 20 22  1  0  0  0  0
 21 20  2  0  0  0  0
 22 24  1  0  0  0  0
 23 22  1  0  0  0  0
 25  1  1  0  0  0  0
 25 26  1  0  0  0  0
 26 28  1  0  0  0  0
 26 27  1  0  0  0  0
 29 30  1  0  0  0  0
 29 34  1  0  0  0  0
 29 26  1  0  0  0  0
 31 29  1  0  0  0  0
 32 33  1  0  0  0  0
 33 39  2  0  0  0  0
 33 34  1  0  0  0  0
 34 35  2  0  0  0  0
 35 36  1  0  0  0  0
 35 40  1  0  0  0  0
 36 41  1  0  0  0  0
 37 38  1  0  0  0  0
 37 36  2  0  0  0  0
 39 37  1  0  0  0  0
 42 39  1  0  0  0  0
M  END
>  <minimizedAffinity>
-6.25952387

$$$$

 OpenBabel03242515063D

 42 45  0  0  0  0  0  0  0  0999 V2000
   36.5300   26.2650   38.8380 C   0  0  0  0  0  0  0  0  0  0  0  0
   37.3070   27.3900   39.1810 C   0  0  0  0  0  0  0  0  0  0  0  0
   36.8750   28.6440   38.7970 C   0  0  0  0  0  0  0  0  0  0  0  0
   35.7150   28.7290   38.0990 N   0  0  0  0  0  0  0  0  0  0  0  0
   34.9770   27.6560   37.7710 C   0  0  0  0  0  0  0  0  0  0  0  0
   35.3900   26.4410   38.1420 N   0  0  0  0  0  0  0  0  0  0  0  0
   38.2060   27.2510   39.7290 H   0  0  0  0  0  0  0  0  0  0  0  0
   38.9940   29.9080   39.1930 C   0  0  0  0  0  3  0  0  0  0  0  0
   37.6200   29.8590   39.1150 C   0  0  0  0  0  0  0  0  0  0  0  0
   36.9360   31.0270   39.3560 C   0  0  0  0  0  0  0  0  0  0  0  0
   35.8520   30.9980   39.2970 H   0  0  0  0  0  0  0  0  0  0  0  0
   37.5940   32.1910   39.6600 C   0  0  0  0  0  0  0  0  0  0  0  0
   37.1020   33.4170   39.9240 N   0  0  0  0  0  0  0  0  0  0  0  0
   38.1410   34.2400   40.1660 C   0  0  0  0  0  0  0  0  0  0  0  0
   38.1230   35.3100   40.4160 H   0  0  0  0  0  0  0  0  0  0  0  0
   39.2940   33.5370   40.0570 N   0  0  0  0  0  0  0  0  0  0  0  0
   38.9650   32.2650   39.7420 C   0  0  0  0  0  0  0  0  0  0  0  0
   39.6740   31.0910   39.5020 C   0  0  0  0  0  3  0  0  0  0  0  0
   36.1240   33.7960   39.9660 H   0  0  0  0  0  0  0  0  0  0  0  0
   33.7670   27.8780   37.0290 C   0  0  0  0  0  0  0  0  0  0  0  0
   33.5330   29.0100   36.5840 O   0  0  0  0  0  0  0  0  0  0  0  0
   32.8810   26.7830   36.8330 N   0  0  0  0  0  0  0  0  0  0  0  0
   31.8850   27.0280   37.1140 H   0  0  0  0  0  0  0  0  0  0  0  0
   32.3360   25.9310   36.6510 H   0  0  0  0  0  0  0  0  0  0  0  0
   37.1350   24.6710   39.3800 S   0  0  0  0  0  0  0  0  0  0  0  0
   36.4820   24.1960   40.9860 C   0  0  0  0  0  0  0  0  0  0  0  0
   35.5320   24.7460   41.1700 H   0  0  0  0  0  0  0  0  0  0  0  0
   36.1850   23.1220   40.9320 H   0  0  0  0  0  0  0  0  0  0  0  0
   37.4600   24.3490   42.0880 C   0  0  0  0  0  0  0  0  0  0  0  0
   36.9260   24.0750   43.0410 H   0  0  0  0  0  0  0  0  0  0  0  0
   38.3460   23.7280   41.9310 H   0  0  0  0  0  0  0  0  0  0  0  0
   40.3640   25.0680   41.5200 Cl  0  0  0  0  0  0  0  0  0  0  0  0
   39.1620   26.2070   42.0510 C   0  0  0  0  0  0  0  0  0  0  0  0
   37.8460   25.7730   42.2850 C   0  0  0  0  0  0  0  0  0  0  0  0
   36.9590   26.7200   42.6990 C   0  0  0  0  0  0  0  0  0  0  0  0
   37.2190   28.0580   42.9100 C   0  0  0  0  0  0  0  0  0  0  0  0
   38.5140   28.4730   42.6770 C   0  0  0  0  0  0  0  0  0  0  0  0
   38.9370   30.1590   42.9190 Cl  0  0  0  0  0  0  0  0  0  0  0  0
   39.4530   27.5570   42.2580 C   0  0  0  0  0  0  0  0  0  0  0  0
   35.9430   26.3580   42.8740 H   0  0  0  0  0  0  0  0  0  0  0  0
   36.4600   28.7580   43.2410 H   0  0  0  0  0  0  0  0  0  0  0  0
   40.4680   27.9240   42.0820 H   0  0  0  0  0  0  0  0  0  0  0  0
  1  2  1  0  0  0  0
  1 25  1  0  0  0  0
  2  7  1  0  0  0  0
  3  9  1  0  0  0  0
  3  2  2  0  0  0  0
  4  3  1  0  0  0  0
  5  4  2  0  0  0  0
  5  6  1  0  0  0  0
  6  1  2  0  0  0  0
  8 18  1  0  0  0  0
  9  8  2  0  0  0  0
  9 10  1  0  0  0  0
 10 12  2  0  0  0  0
 11 10  1  0  0  0  0
 12 17  1  0  0  0  0
 12 13  1  0  0  0  0
 13 19  1  0  0  0  0
 13 14  1  0  0  0  0
 14 15  1  0  0  0  0
 16 14  2  0  0  0  0
 17 16  1  0  0  0  0
 18 17  2  0  0  0  0
 20  5  1  0  0  0  0
 21 20  2  0  0  0  0
 22 20  1  0  0  0  0
 22 23  1  0  0  0  0
 24 22  1  0  0  0  0
 25 26  1  0  0  0  0
 26 27  1  0  0  0  0
 26 29  1  0  0  0  0
 28 26  1  0  0  0  0
 29 34  1  0  0  0  0
 29 30  1  0  0  0  0
 31 29  1  0  0  0  0
 32 33  1  0  0  0  0
 33 39  2  0  0  0  0
 33 34  1  0  0  0  0
 34 35  2  0  0  0  0
 35 40  1  0  0  0  0
 35 36  1  0  0  0  0
 36 41  1  0  0  0  0
 37 36  2  0  0  0  0
 37 38  1  0  0  0  0
 39 37  1  0  0  0  0
 42 39  1  0  0  0  0
M  END
>  <minimizedAffinity>
-6.2471509

$$$$

 OpenBabel03242515063D

 42 45  0  0  0  0  0  0  0  0999 V2000
   37.5110   28.3500   41.5710 C   0  0  0  0  0  0  0  0  0  0  0  0
   38.6360   29.1490   41.8590 C   0  0  0  0  0  0  0  0  0  0  0  0
   39.7720   28.5490   42.3630 C   0  0  0  0  0  0  0  0  0  0  0  0
   39.7470   27.2070   42.5590 N   0  0  0  0  0  0  0  0  0  0  0  0
   38.6730   26.4470   42.2850 C   0  0  0  0  0  0  0  0  0  0  0  0
   37.5720   27.0240   41.7970 N   0  0  0  0  0  0  0  0  0  0  0  0
   38.5860   30.1960   41.6820 H   0  0  0  0  0  0  0  0  0  0  0  0
   42.0740   28.7550   43.3120 C   0  0  0  0  0  3  0  0  0  0  0  0
   40.9790   29.3050   42.6850 C   0  0  0  0  0  0  0  0  0  0  0  0
   41.0480   30.6380   42.3570 C   0  0  0  0  0  0  0  0  0  0  0  0
   40.1890   31.0820   41.8620 H   0  0  0  0  0  0  0  0  0  0  0  0
   42.1600   31.3880   42.6420 C   0  0  0  0  0  0  0  0  0  0  0  0
   42.4090   32.6890   42.4010 N   0  0  0  0  0  0  0  0  0  0  0  0
   43.6430   32.9710   42.8640 C   0  0  0  0  0  0  0  0  0  0  0  0
   44.1810   33.9300   42.8420 H   0  0  0  0  0  0  0  0  0  0  0  0
   44.1790   31.8490   43.4010 N   0  0  0  0  0  0  0  0  0  0  0  0
   43.2670   30.8600   43.2670 C   0  0  0  0  0  0  0  0  0  0  0  0
   43.2140   29.5110   43.6070 C   0  0  0  0  0  3  0  0  0  0  0  0
   41.8430   33.4490   41.9490 H   0  0  0  0  0  0  0  0  0  0  0  0
   38.7720   25.0360   42.5370 C   0  0  0  0  0  0  0  0  0  0  0  0
   37.8300   24.2990   42.2130 O   0  0  0  0  0  0  0  0  0  0  0  0
   39.9540   24.5370   43.1500 N   0  0  0  0  0  0  0  0  0  0  0  0
   39.7330   23.9270   43.9930 H   0  0  0  0  0  0  0  0  0  0  0  0
   40.8690   24.2370   43.5100 H   0  0  0  0  0  0  0  0  0  0  0  0
   36.0760   29.1860   40.9050 S   0  0  0  0  0  0  0  0  0  0  0  0
   36.3100   30.9640   40.7830 C   0  0  0  0  0  0  0  0  0  0  0  0
   35.3660   31.4770   41.0770 H   0  0  0  0  0  0  0  0  0  0  0  0
   37.0530   31.2660   41.5580 H   0  0  0  0  0  0  0  0  0  0  0  0
   36.8170   31.4030   39.4630 C   0  0  0  0  0  0  0  0  0  0  0  0
   37.2980   30.5050   38.9810 H   0  0  0  0  0  0  0  0  0  0  0  0
   36.0190   31.8140   38.8390 H   0  0  0  0  0  0  0  0  0  0  0  0
   39.6060   30.4060   38.7520 Cl  0  0  0  0  0  0  0  0  0  0  0  0
   39.2560   32.0200   39.2980 C   0  0  0  0  0  0  0  0  0  0  0  0
   37.9310   32.3800   39.6000 C   0  0  0  0  0  0  0  0  0  0  0  0
   37.7310   33.6610   40.0200 C   0  0  0  0  0  0  0  0  0  0  0  0
   38.6930   34.6360   40.1790 C   0  0  0  0  0  0  0  0  0  0  0  0
   39.9890   34.2710   39.8800 C   0  0  0  0  0  0  0  0  0  0  0  0
   41.2790   35.4480   40.0520 Cl  0  0  0  0  0  0  0  0  0  0  0  0
   40.2490   32.9900   39.4510 C   0  0  0  0  0  0  0  0  0  0  0  0
   36.6940   33.9170   40.2480 H   0  0  0  0  0  0  0  0  0  0  0  0
   38.4600   35.6390   40.5200 H   0  0  0  0  0  0  0  0  0  0  0  0
   41.2880   32.7380   39.2220 H   0  0  0  0  0  0  0  0  0  0  0  0
  1  6  2  0  0  0  0
  1  2  1  0  0  0  0
  2  3  2  0  0  0  0
  3  4  1  0  0  0  0
  3  9  1  0  0  0  0
  5 20  1  0  0  0  0
  5  4  2  0  0  0  0
  6  5  1  0  0  0  0
  7  2  1  0  0  0  0
  8 18  1  0  0  0  0
  9  8  2  0  0  0  0
 10 12  2  0  0  0  0
 10  9  1  0  0  0  0
 11 10  1  0  0  0  0
 12 17  1  0  0  0  0
 13 12  1  0  0  0  0
 13 14  1  0  0  0  0
 14 16  2  0  0  0  0
 15 14  1  0  0  0  0
 17 16  1  0  0  0  0
 17 18  2  0  0  0  0
 19 13  1  0  0  0  0
 20 22  1  0  0  0  0
 21 20  2  0  0  0  0
 22 24  1  0  0  0  0
 22 23  1  0  0  0  0
 25  1  1  0  0  0  0
 26 25  1  0  0  0  0
 26 27  1  0  0  0  0
 26 28  1  0  0  0  0
 29 34  1  0  0  0  0
 29 26  1  0  0  0  0
 30 29  1  0  0  0  0
 31 29  1  0  0  0  0
 32 33  1  0  0  0  0
 33 39  2  0  0  0  0
 33 34  1  0  0  0  0
 34 35  2  0  0  0  0
 35 36  1  0  0  0  0
 35 40  1  0  0  0  0
 36 41  1  0  0  0  0
 37 38  1  0  0  0  0
 37 36  2  0  0  0  0
 39 37  1  0  0  0  0
 42 39  1  0  0  0  0
M  END
>  <minimizedAffinity>
-6.20894814

$$$$
