
 OpenBabel03252502403D

 49 53  0  0  1  0  0  0  0  0999 V2000
   38.5400   31.1600   40.5900 C   0  0  1  0  0  0  0  0  0  0  0  0
   37.7400   31.5320   41.2970 H   0  0  0  0  0  0  0  0  0  0  0  0
   39.4320   32.2710   40.3980 N   0  0  0  0  0  0  0  0  0  0  0  0
   38.8790   33.5080   40.8050 C   0  0  0  0  0  0  0  0  0  0  0  0
   39.7810   34.5810   40.1630 C   0  0  0  0  0  0  0  0  0  0  0  0
   40.9880   34.4980   40.9460 N   0  0  0  0  0  0  0  0  0  0  0  0
   41.6170   33.2460   40.8520 C   0  0  0  0  0  0  0  0  0  0  0  0
   40.7010   32.0370   40.9500 C   0  0  0  0  0  0  0  0  0  0  0  0
   37.8230   33.6480   40.5180 H   0  0  0  0  0  0  0  0  0  0  0  0
   38.9900   33.5920   41.9090 H   0  0  0  0  0  0  0  0  0  0  0  0
   39.3110   35.5740   40.2790 H   0  0  0  0  0  0  0  0  0  0  0  0
   40.0010   34.3110   39.1090 H   0  0  0  0  0  0  0  0  0  0  0  0
   41.6350   35.2300   40.6430 H   0  0  0  0  0  0  0  0  0  0  0  0
   42.1620   33.1890   39.8730 H   0  0  0  0  0  0  0  0  0  0  0  0
   42.4400   33.1980   41.6100 H   0  0  0  0  0  0  0  0  0  0  0  0
   40.5240   32.0770   42.0730 H   0  0  0  0  0  0  0  0  0  0  0  0
   41.3290   31.2320   40.6490 H   0  0  0  0  0  0  0  0  0  0  0  0
   36.5380   30.4850   39.2670 C   0  0  0  0  0  0  0  0  0  0  0  0
   37.9030   30.6380   39.4220 C   0  0  0  0  0  0  0  0  0  0  0  0
   38.6930   30.2400   38.3240 C   0  0  0  0  0  0  0  0  0  0  0  0
   38.0890   29.7400   37.2020 N   0  0  0  0  0  0  0  0  0  0  0  0
   36.7380   29.6190   37.1250 C   0  0  0  0  0  0  0  0  0  0  0  0
   35.9680   29.9920   38.1590 N   0  0  0  0  0  0  0  0  0  0  0  0
   35.8820   30.7740   40.0760 H   0  0  0  0  0  0  0  0  0  0  0  0
   39.7710   30.3370   38.3840 H   0  0  0  0  0  0  0  0  0  0  0  0
   36.4280   29.2120   36.1830 H   0  0  0  0  0  0  0  0  0  0  0  0
   39.3100   30.0190   41.2670 C   0  0  0  0  0  0  0  0  0  0  0  0
   40.0370   29.5050   40.6450 H   0  0  0  0  0  0  0  0  0  0  0  0
   40.0140   30.6660   41.8870 H   0  0  0  0  0  0  0  0  0  0  0  0
   38.5400   29.1190   42.0600 C   0  0  0  0  0  0  0  0  0  0  0  0
   37.9850   29.0830   43.2930 C   0  0  0  0  0  0  0  0  0  0  0  0
   37.2630   28.0640   43.8850 C   0  0  0  0  0  0  0  0  0  0  0  0
   37.0990   26.9860   43.1350 N   0  0  0  0  0  0  0  0  0  0  0  0
   37.5990   26.9230   41.9210 C   0  0  0  0  0  0  0  0  0  0  0  0
   38.2830   27.9500   41.4280 N   0  0  0  0  0  0  0  0  0  0  0  0
   38.1840   30.0240   43.8430 H   0  0  0  0  0  0  0  0  0  0  0  0
   36.9190   28.2680   44.8840 H   0  0  0  0  0  0  0  0  0  0  0  0
   36.6280   25.7530   39.9740 C   0  0  0  0  0  3  0  0  0  0  0  0
   37.3910   25.6890   41.1100 C   0  0  0  0  0  0  0  0  0  0  0  0
   37.9760   24.5080   41.5260 C   0  0  0  0  0  0  0  0  0  0  0  0
   38.5840   24.4690   42.4360 H   0  0  0  0  0  0  0  0  0  0  0  0
   37.8200   23.3310   40.8170 C   0  0  0  0  0  0  0  0  0  0  0  0
   38.2280   22.0500   40.9250 N   0  0  0  0  0  0  0  0  0  0  0  0
   37.7310   21.3450   39.8870 C   0  0  0  0  0  0  0  0  0  0  0  0
   37.9930   20.2970   39.8630 H   0  0  0  0  0  0  0  0  0  0  0  0
   37.0120   22.1950   39.1310 N   0  0  0  0  0  0  0  0  0  0  0  0
   37.0410   23.4310   39.6700 C   0  0  0  0  0  0  0  0  0  0  0  0
   36.4400   24.5900   39.2200 C   0  0  0  0  0  3  0  0  0  0  0  0
   38.8360   21.8170   41.7570 H   0  0  0  0  0  0  0  0  0  0  0  0
  1 27  1  0  0  0  0
  1  2  1  1  0  0  0
  3  1  1  0  0  0  0
  3  4  1  0  0  0  0
  3  8  1  0  0  0  0
  4 10  1  0  0  0  0
  5 11  1  0  0  0  0
  5  4  1  0  0  0  0
  5  6  1  0  0  0  0
  7  6  1  0  0  0  0
  7  8  1  0  0  0  0
  7 15  1  0  0  0  0
  8 16  1  0  0  0  0
  9  4  1  0  0  0  0
 12  5  1  0  0  0  0
 13  6  1  0  0  0  0
 14  7  1  0  0  0  0
 17  8  1  0  0  0  0
 18 19  1  0  0  0  0
 18 24  1  0  0  0  0
 19  1  1  0  0  0  0
 20 25  1  0  0  0  0
 20 19  2  0  0  0  0
 21 20  1  0  0  0  0
 22 21  2  0  0  0  0
 22 23  1  0  0  0  0
 23 18  2  0  0  0  0
 26 22  1  0  0  0  0
 27 29  1  0  0  0  0
 27 30  1  0  0  0  0
 28 27  1  0  0  0  0
 30 31  1  0  0  0  0
 31 36  1  0  0  0  0
 31 32  2  0  0  0  0
 32 37  1  0  0  0  0
 33 32  1  0  0  0  0
 34 33  2  0  0  0  0
 35 34  1  0  0  0  0
 35 30  2  0  0  0  0
 38 39  1  0  0  0  0
 39 40  2  0  0  0  0
 39 34  1  0  0  0  0
 40 41  1  0  0  0  0
 42 43  1  0  0  0  0
 42 40  1  0  0  0  0
 43 49  1  0  0  0  0
 44 43  1  0  0  0  0
 45 44  1  0  0  0  0
 46 47  1  0  0  0  0
 46 44  2  0  0  0  0
 47 42  2  0  0  0  0
 48 47  1  0  0  0  0
 48 38  2  0  0  0  0
M  END
>  <minimizedAffinity>
-6.40532637

$$$$

 OpenBabel03252502403D

 49 53  0  0  1  0  0  0  0  0999 V2000
   43.1080   33.0870   40.7190 C   0  0  1  0  0  0  0  0  0  0  0  0
   42.4690   32.1840   40.9530 H   0  0  0  0  0  0  0  0  0  0  0  0
   43.8660   32.7300   39.5500 N   0  0  0  0  0  0  0  0  0  0  0  0
   43.1960   31.8080   38.7110 C   0  0  0  0  0  0  0  0  0  0  0  0
   44.2890   31.2530   37.7740 C   0  0  0  0  0  0  0  0  0  0  0  0
   44.5470   32.3610   36.8900 N   0  0  0  0  0  0  0  0  0  0  0  0
   45.0400   33.4930   37.5590 C   0  0  0  0  0  0  0  0  0  0  0  0
   44.3340   33.8550   38.8550 C   0  0  0  0  0  0  0  0  0  0  0  0
   42.6810   30.9950   39.2510 H   0  0  0  0  0  0  0  0  0  0  0  0
   42.4700   32.3710   38.0850 H   0  0  0  0  0  0  0  0  0  0  0  0
   43.8860   30.3920   37.2100 H   0  0  0  0  0  0  0  0  0  0  0  0
   45.2040   31.0190   38.3560 H   0  0  0  0  0  0  0  0  0  0  0  0
   45.2150   32.0690   36.1720 H   0  0  0  0  0  0  0  0  0  0  0  0
   46.1260   33.3310   37.7900 H   0  0  0  0  0  0  0  0  0  0  0  0
   45.0530   34.3560   36.8450 H   0  0  0  0  0  0  0  0  0  0  0  0
   43.3960   34.3020   38.3920 H   0  0  0  0  0  0  0  0  0  0  0  0
   44.9800   34.5820   39.2880 H   0  0  0  0  0  0  0  0  0  0  0  0
   44.5940   32.5370   42.6440 C   0  0  0  0  0  0  0  0  0  0  0  0
   43.8540   33.4280   41.8900 C   0  0  0  0  0  0  0  0  0  0  0  0
   43.8610   34.7640   42.3380 C   0  0  0  0  0  0  0  0  0  0  0  0
   44.5750   35.0990   43.4580 N   0  0  0  0  0  0  0  0  0  0  0  0
   45.2790   34.1640   44.1480 C   0  0  0  0  0  0  0  0  0  0  0  0
   45.2850   32.8860   43.7380 N   0  0  0  0  0  0  0  0  0  0  0  0
   44.6260   31.4980   42.3470 H   0  0  0  0  0  0  0  0  0  0  0  0
   43.3010   35.5110   41.7870 H   0  0  0  0  0  0  0  0  0  0  0  0
   45.7780   34.5880   44.9960 H   0  0  0  0  0  0  0  0  0  0  0  0
   42.1920   34.2670   40.3730 C   0  0  0  0  0  0  0  0  0  0  0  0
   42.4350   35.2110   40.8540 H   0  0  0  0  0  0  0  0  0  0  0  0
   42.6070   34.4730   39.3320 H   0  0  0  0  0  0  0  0  0  0  0  0
   40.7920   34.0030   40.3700 C   0  0  0  0  0  0  0  0  0  0  0  0
   39.6490   34.6190   39.9890 C   0  0  0  0  0  0  0  0  0  0  0  0
   38.3480   34.1660   40.0950 C   0  0  0  0  0  0  0  0  0  0  0  0
   38.2150   32.9680   40.6440 N   0  0  0  0  0  0  0  0  0  0  0  0
   39.2660   32.2880   41.0460 C   0  0  0  0  0  0  0  0  0  0  0  0
   40.4830   32.7980   40.9080 N   0  0  0  0  0  0  0  0  0  0  0  0
   39.8640   35.6130   39.5520 H   0  0  0  0  0  0  0  0  0  0  0  0
   37.5980   34.8380   39.7190 H   0  0  0  0  0  0  0  0  0  0  0  0
   40.1550   30.2650   42.1520 C   0  0  0  0  0  3  0  0  0  0  0  0
   39.0710   30.9420   41.6590 C   0  0  0  0  0  0  0  0  0  0  0  0
   37.7970   30.4090   41.7150 C   0  0  0  0  0  0  0  0  0  0  0  0
   36.9380   30.9590   41.3170 H   0  0  0  0  0  0  0  0  0  0  0  0
   37.5530   29.1670   42.2700 C   0  0  0  0  0  0  0  0  0  0  0  0
   36.4840   28.3720   42.4830 N   0  0  0  0  0  0  0  0  0  0  0  0
   36.8970   27.2390   43.0890 C   0  0  0  0  0  0  0  0  0  0  0  0
   36.1250   26.5180   43.3140 H   0  0  0  0  0  0  0  0  0  0  0  0
   38.2290   27.3330   43.2530 N   0  0  0  0  0  0  0  0  0  0  0  0
   38.6740   28.5080   42.7610 C   0  0  0  0  0  0  0  0  0  0  0  0
   39.9620   29.0040   42.7250 C   0  0  0  0  0  3  0  0  0  0  0  0
   35.5480   28.7420   42.1600 H   0  0  0  0  0  0  0  0  0  0  0  0
  1  2  1  1  0  0  0
  1 19  1  0  0  0  0
  3  1  1  0  0  0  0
  4  9  1  0  0  0  0
  4  3  1  0  0  0  0
  5 12  1  0  0  0  0
  5  4  1  0  0  0  0
  6  7  1  0  0  0  0
  6  5  1  0  0  0  0
  7 14  1  0  0  0  0
  7  8  1  0  0  0  0
  8 17  1  0  0  0  0
  8  3  1  0  0  0  0
 10  4  1  0  0  0  0
 11  5  1  0  0  0  0
 13  6  1  0  0  0  0
 15  7  1  0  0  0  0
 16  8  1  0  0  0  0
 18 23  1  0  0  0  0
 19 20  1  0  0  0  0
 19 18  2  0  0  0  0
 20 21  2  0  0  0  0
 21 22  1  0  0  0  0
 22 26  1  0  0  0  0
 23 22  2  0  0  0  0
 24 18  1  0  0  0  0
 25 20  1  0  0  0  0
 27  1  1  0  0  0  0
 27 28  1  0  0  0  0
 29 27  1  0  0  0  0
 30 27  1  0  0  0  0
 30 35  1  0  0  0  0
 31 32  1  0  0  0  0
 31 30  2  0  0  0  0
 32 33  2  0  0  0  0
 33 34  1  0  0  0  0
 34 39  1  0  0  0  0
 35 34  2  0  0  0  0
 36 31  1  0  0  0  0
 37 32  1  0  0  0  0
 38 48  1  0  0  0  0
 39 40  1  0  0  0  0
 39 38  2  0  0  0  0
 40 42  2  0  0  0  0
 41 40  1  0  0  0  0
 42 43  1  0  0  0  0
 42 47  1  0  0  0  0
 43 44  1  0  0  0  0
 44 46  2  0  0  0  0
 44 45  1  0  0  0  0
 47 46  1  0  0  0  0
 48 47  2  0  0  0  0
 49 43  1  0  0  0  0
M  END
>  <minimizedAffinity>
-6.35555124

$$$$

 OpenBabel03252502403D

 49 53  0  0  1  0  0  0  0  0999 V2000
   38.1940   26.4710   42.8960 C   0  0  1  0  0  0  0  0  0  0  0  0
   37.6840   25.7470   43.5990 H   0  0  0  0  0  0  0  0  0  0  0  0
   37.7540   26.1020   41.5780 N   0  0  0  0  0  0  0  0  0  0  0  0
   38.7910   26.1270   40.6160 C   0  0  0  0  0  0  0  0  0  0  0  0
   38.0720   26.1120   39.2510 C   0  0  0  0  0  0  0  0  0  0  0  0
   37.5830   24.7600   39.1600 N   0  0  0  0  0  0  0  0  0  0  0  0
   36.6640   24.4400   40.1720 C   0  0  0  0  0  0  0  0  0  0  0  0
   37.0380   24.8960   41.5730 C   0  0  0  0  0  0  0  0  0  0  0  0
   39.4690   26.9940   40.7020 H   0  0  0  0  0  0  0  0  0  0  0  0
   39.3680   25.1800   40.7020 H   0  0  0  0  0  0  0  0  0  0  0  0
   38.8040   26.3160   38.4490 H   0  0  0  0  0  0  0  0  0  0  0  0
   37.2160   26.8180   39.2660 H   0  0  0  0  0  0  0  0  0  0  0  0
   37.1460   24.6230   38.2450 H   0  0  0  0  0  0  0  0  0  0  0  0
   35.6710   24.8930   39.9140 H   0  0  0  0  0  0  0  0  0  0  0  0
   36.4620   23.3380   40.1410 H   0  0  0  0  0  0  0  0  0  0  0  0
   37.8300   24.1060   41.7790 H   0  0  0  0  0  0  0  0  0  0  0  0
   36.1390   24.7480   42.1240 H   0  0  0  0  0  0  0  0  0  0  0  0
   40.3630   25.2670   43.1520 C   0  0  0  0  0  0  0  0  0  0  0  0
   39.6020   26.4210   43.1410 C   0  0  0  0  0  0  0  0  0  0  0  0
   40.3010   27.6190   43.3940 C   0  0  0  0  0  0  0  0  0  0  0  0
   41.6490   27.5790   43.6280 N   0  0  0  0  0  0  0  0  0  0  0  0
   42.3300   26.4030   43.6230 C   0  0  0  0  0  0  0  0  0  0  0  0
   41.6830   25.2510   43.3850 N   0  0  0  0  0  0  0  0  0  0  0  0
   39.8800   24.3180   42.9640 H   0  0  0  0  0  0  0  0  0  0  0  0
   39.7590   28.5580   43.3970 H   0  0  0  0  0  0  0  0  0  0  0  0
   43.3720   26.5460   43.8240 H   0  0  0  0  0  0  0  0  0  0  0  0
   37.7050   27.8910   43.2030 C   0  0  0  0  0  0  0  0  0  0  0  0
   37.1790   28.0170   44.1450 H   0  0  0  0  0  0  0  0  0  0  0  0
   38.7150   28.3350   43.4880 H   0  0  0  0  0  0  0  0  0  0  0  0
   37.0750   28.5890   42.1310 C   0  0  0  0  0  0  0  0  0  0  0  0
   35.8940   28.5730   41.4720 C   0  0  0  0  0  0  0  0  0  0  0  0
   35.4850   29.3620   40.4140 C   0  0  0  0  0  0  0  0  0  0  0  0
   36.3770   30.2490   40.0010 N   0  0  0  0  0  0  0  0  0  0  0  0
   37.5540   30.3450   40.5780 C   0  0  0  0  0  0  0  0  0  0  0  0
   37.8670   29.5450   41.5900 N   0  0  0  0  0  0  0  0  0  0  0  0
   35.2230   27.7940   41.8850 H   0  0  0  0  0  0  0  0  0  0  0  0
   34.4920   29.1630   40.0520 H   0  0  0  0  0  0  0  0  0  0  0  0
   39.1150   31.1830   38.8550 C   0  0  0  0  0  3  0  0  0  0  0  0
   38.5290   31.3590   40.0810 C   0  0  0  0  0  0  0  0  0  0  0  0
   38.8170   32.4550   40.8720 C   0  0  0  0  0  0  0  0  0  0  0  0
   38.3430   32.5850   41.8500 H   0  0  0  0  0  0  0  0  0  0  0  0
   39.7120   33.4280   40.4670 C   0  0  0  0  0  0  0  0  0  0  0  0
   40.2100   34.5800   40.9600 N   0  0  0  0  0  0  0  0  0  0  0  0
   41.0770   35.0980   40.0660 C   0  0  0  0  0  0  0  0  0  0  0  0
   41.5450   36.0300   40.3500 H   0  0  0  0  0  0  0  0  0  0  0  0
   41.1160   34.2630   39.0120 N   0  0  0  0  0  0  0  0  0  0  0  0
   40.2870   33.2180   39.2190 C   0  0  0  0  0  0  0  0  0  0  0  0
   40.0270   32.1390   38.3980 C   0  0  0  0  0  3  0  0  0  0  0  0
   39.8620   34.8750   41.9140 H   0  0  0  0  0  0  0  0  0  0  0  0
  1 19  1  0  0  0  0
  1 27  1  0  0  0  0
  1  2  1  1  0  0  0
  3  1  1  0  0  0  0
  4 10  1  0  0  0  0
  4  9  1  0  0  0  0
  4  3  1  0  0  0  0
  5 12  1  0  0  0  0
  5  4  1  0  0  0  0
  6  5  1  0  0  0  0
  6  7  1  0  0  0  0
  7  8  1  0  0  0  0
  8  3  1  0  0  0  0
  8 16  1  0  0  0  0
  8 17  1  0  0  0  0
 11  5  1  0  0  0  0
 13  6  1  0  0  0  0
 14  7  1  0  0  0  0
 15  7  1  0  0  0  0
 18 23  1  0  0  0  0
 19 18  2  0  0  0  0
 19 20  1  0  0  0  0
 20 25  1  0  0  0  0
 20 21  2  0  0  0  0
 22 21  1  0  0  0  0
 22 26  1  0  0  0  0
 23 22  2  0  0  0  0
 24 18  1  0  0  0  0
 27 29  1  0  0  0  0
 27 28  1  0  0  0  0
 30 27  1  0  0  0  0
 31 36  1  0  0  0  0
 31 30  2  0  0  0  0
 32 31  1  0  0  0  0
 33 32  2  0  0  0  0
 33 34  1  0  0  0  0
 34 35  2  0  0  0  0
 35 30  1  0  0  0  0
 37 32  1  0  0  0  0
 38 39  1  0  0  0  0
 39 34  1  0  0  0  0
 39 40  2  0  0  0  0
 40 41  1  0  0  0  0
 42 40  1  0  0  0  0
 42 43  1  0  0  0  0
 43 49  1  0  0  0  0
 44 45  1  0  0  0  0
 44 43  1  0  0  0  0
 46 47  1  0  0  0  0
 46 44  2  0  0  0  0
 47 42  2  0  0  0  0
 48 38  2  0  0  0  0
 48 47  1  0  0  0  0
M  END
>  <minimizedAffinity>
-6.1437335

$$$$

 OpenBabel03252502403D

 49 53  0  0  1  0  0  0  0  0999 V2000
   39.4400   29.9480   40.4760 C   0  0  1  0  0  0  0  0  0  0  0  0
   38.7390   29.1680   40.0530 H   0  0  0  0  0  0  0  0  0  0  0  0
   38.8690   31.2170   40.1120 N   0  0  0  0  0  0  0  0  0  0  0  0
   37.4760   31.1550   39.8750 C   0  0  0  0  0  0  0  0  0  0  0  0
   37.1390   32.4600   39.1260 C   0  0  0  0  0  0  0  0  0  0  0  0
   37.2440   33.4600   40.1570 N   0  0  0  0  0  0  0  0  0  0  0  0
   38.5360   33.5560   40.6980 C   0  0  0  0  0  0  0  0  0  0  0  0
   39.2230   32.2370   41.0090 C   0  0  0  0  0  0  0  0  0  0  0  0
   37.1520   30.2690   39.3020 H   0  0  0  0  0  0  0  0  0  0  0  0
   36.9550   31.1870   40.8570 H   0  0  0  0  0  0  0  0  0  0  0  0
   36.1040   32.4050   38.7410 H   0  0  0  0  0  0  0  0  0  0  0  0
   37.8990   32.6530   38.3400 H   0  0  0  0  0  0  0  0  0  0  0  0
   36.9640   34.3670   39.7740 H   0  0  0  0  0  0  0  0  0  0  0  0
   39.1860   34.1240   39.9810 H   0  0  0  0  0  0  0  0  0  0  0  0
   38.5010   34.2220   41.5990 H   0  0  0  0  0  0  0  0  0  0  0  0
   38.6400   31.9850   41.9530 H   0  0  0  0  0  0  0  0  0  0  0  0
   40.2300   32.5260   41.1970 H   0  0  0  0  0  0  0  0  0  0  0  0
   41.2300   30.0060   38.7410 C   0  0  0  0  0  0  0  0  0  0  0  0
   40.7600   29.6760   39.9980 C   0  0  0  0  0  0  0  0  0  0  0  0
   41.6790   29.0240   40.8450 C   0  0  0  0  0  0  0  0  0  0  0  0
   42.9450   28.7610   40.3950 N   0  0  0  0  0  0  0  0  0  0  0  0
   43.3340   29.1170   39.1430 C   0  0  0  0  0  0  0  0  0  0  0  0
   42.4740   29.7380   38.3210 N   0  0  0  0  0  0  0  0  0  0  0  0
   40.5690   30.5080   38.0490 H   0  0  0  0  0  0  0  0  0  0  0  0
   41.3700   28.7410   41.8450 H   0  0  0  0  0  0  0  0  0  0  0  0
   44.3500   28.8400   38.9480 H   0  0  0  0  0  0  0  0  0  0  0  0
   39.4500   29.8300   42.0050 C   0  0  0  0  0  0  0  0  0  0  0  0
   40.4290   29.7290   42.4650 H   0  0  0  0  0  0  0  0  0  0  0  0
   39.2450   30.9270   42.2370 H   0  0  0  0  0  0  0  0  0  0  0  0
   38.4850   28.9520   42.5790 C   0  0  0  0  0  0  0  0  0  0  0  0
   37.7020   28.8950   43.6810 C   0  0  0  0  0  0  0  0  0  0  0  0
   36.8150   27.9050   44.0580 C   0  0  0  0  0  0  0  0  0  0  0  0
   36.7280   26.8830   43.2210 N   0  0  0  0  0  0  0  0  0  0  0  0
   37.4470   26.8450   42.1210 C   0  0  0  0  0  0  0  0  0  0  0  0
   38.2780   27.8400   41.8340 N   0  0  0  0  0  0  0  0  0  0  0  0
   37.8530   29.7880   44.3190 H   0  0  0  0  0  0  0  0  0  0  0  0
   36.3000   28.0820   44.9850 H   0  0  0  0  0  0  0  0  0  0  0  0
   36.6880   25.8300   40.0010 C   0  0  0  0  0  3  0  0  0  0  0  0
   37.3190   25.6740   41.2060 C   0  0  0  0  0  0  0  0  0  0  0  0
   37.8430   24.4570   41.6000 C   0  0  0  0  0  0  0  0  0  0  0  0
   38.3450   24.3440   42.5660 H   0  0  0  0  0  0  0  0  0  0  0  0
   37.7550   23.3350   40.7960 C   0  0  0  0  0  0  0  0  0  0  0  0
   38.1360   22.0430   40.8570 N   0  0  0  0  0  0  0  0  0  0  0  0
   37.7520   21.4210   39.7220 C   0  0  0  0  0  0  0  0  0  0  0  0
   38.0040   20.3720   39.6530 H   0  0  0  0  0  0  0  0  0  0  0  0
   37.1280   22.3330   38.9540 N   0  0  0  0  0  0  0  0  0  0  0  0
   37.1090   23.5290   39.5800 C   0  0  0  0  0  0  0  0  0  0  0  0
   36.5740   24.7260   39.1500 C   0  0  0  0  0  3  0  0  0  0  0  0
   38.6460   21.7420   41.7320 H   0  0  0  0  0  0  0  0  0  0  0  0
  1  2  1  6  0  0  0
  1 27  1  0  0  0  0
  3  1  1  0  0  0  0
  3  8  1  0  0  0  0
  4  3  1  0  0  0  0
  4 10  1  0  0  0  0
  5  4  1  0  0  0  0
  5  6  1  0  0  0  0
  6  7  1  0  0  0  0
  7  8  1  0  0  0  0
  7 15  1  0  0  0  0
  8 17  1  0  0  0  0
  8 16  1  0  0  0  0
  9  4  1  0  0  0  0
 11  5  1  0  0  0  0
 12  5  1  0  0  0  0
 13  6  1  0  0  0  0
 14  7  1  0  0  0  0
 18 19  1  0  0  0  0
 19  1  1  0  0  0  0
 19 20  2  0  0  0  0
 20 25  1  0  0  0  0
 21 20  1  0  0  0  0
 22 21  2  0  0  0  0
 23 18  2  0  0  0  0
 23 22  1  0  0  0  0
 24 18  1  0  0  0  0
 26 22  1  0  0  0  0
 27 29  1  0  0  0  0
 27 28  1  0  0  0  0
 27 30  1  0  0  0  0
 30 31  1  0  0  0  0
 31 32  2  0  0  0  0
 31 36  1  0  0  0  0
 32 37  1  0  0  0  0
 33 32  1  0  0  0  0
 34 33  2  0  0  0  0
 35 34  1  0  0  0  0
 35 30  2  0  0  0  0
 38 39  1  0  0  0  0
 39 40  2  0  0  0  0
 39 34  1  0  0  0  0
 40 41  1  0  0  0  0
 42 43  1  0  0  0  0
 42 40  1  0  0  0  0
 43 49  1  0  0  0  0
 44 43  1  0  0  0  0
 45 44  1  0  0  0  0
 46 47  1  0  0  0  0
 46 44  2  0  0  0  0
 47 42  2  0  0  0  0
 48 47  1  0  0  0  0
 48 38  2  0  0  0  0
M  END
>  <minimizedAffinity>
-6.10373116

$$$$

 OpenBabel03252502403D

 49 53  0  0  1  0  0  0  0  0999 V2000
   36.1780   29.2160   39.4010 C   0  0  1  0  0  0  0  0  0  0  0  0
   35.6080   29.4980   40.3360 H   0  0  0  0  0  0  0  0  0  0  0  0
   36.7320   30.4450   38.9020 N   0  0  0  0  0  0  0  0  0  0  0  0
   36.9430   31.4130   39.9120 C   0  0  0  0  0  0  0  0  0  0  0  0
   37.1390   32.7430   39.1560 C   0  0  0  0  0  0  0  0  0  0  0  0
   38.4500   32.5940   38.5770 N   0  0  0  0  0  0  0  0  0  0  0  0
   38.5290   31.5280   37.6670 C   0  0  0  0  0  0  0  0  0  0  0  0
   37.8700   30.2320   38.1080 C   0  0  0  0  0  0  0  0  0  0  0  0
   36.1240   31.4870   40.6470 H   0  0  0  0  0  0  0  0  0  0  0  0
   37.9000   31.1740   40.4270 H   0  0  0  0  0  0  0  0  0  0  0  0
   37.1260   33.5800   39.8780 H   0  0  0  0  0  0  0  0  0  0  0  0
   36.3830   32.8360   38.3490 H   0  0  0  0  0  0  0  0  0  0  0  0
   38.7100   33.4660   38.1070 H   0  0  0  0  0  0  0  0  0  0  0  0
   38.0580   31.8440   36.6990 H   0  0  0  0  0  0  0  0  0  0  0  0
   39.6040   31.3680   37.3920 H   0  0  0  0  0  0  0  0  0  0  0  0
   38.6660   29.9060   38.8520 H   0  0  0  0  0  0  0  0  0  0  0  0
   37.8590   29.6500   37.2160 H   0  0  0  0  0  0  0  0  0  0  0  0
   34.1230   29.0240   38.0010 C   0  0  0  0  0  0  0  0  0  0  0  0
   35.2920   28.5080   38.5290 C   0  0  0  0  0  0  0  0  0  0  0  0
   35.6020   27.1850   38.1560 C   0  0  0  0  0  0  0  0  0  0  0  0
   34.7600   26.5020   37.3200 N   0  0  0  0  0  0  0  0  0  0  0  0
   33.6260   27.0770   36.8410 C   0  0  0  0  0  0  0  0  0  0  0  0
   33.3120   28.3370   37.1840 N   0  0  0  0  0  0  0  0  0  0  0  0
   33.8350   30.0350   38.2520 H   0  0  0  0  0  0  0  0  0  0  0  0
   36.5080   26.7260   38.5370 H   0  0  0  0  0  0  0  0  0  0  0  0
   33.0800   26.4110   36.2040 H   0  0  0  0  0  0  0  0  0  0  0  0
   37.3260   28.2740   39.7840 C   0  0  0  0  0  0  0  0  0  0  0  0
   37.4310   27.3830   39.1720 H   0  0  0  0  0  0  0  0  0  0  0  0
   38.1760   28.9000   39.3550 H   0  0  0  0  0  0  0  0  0  0  0  0
   37.4840   28.0020   41.1740 C   0  0  0  0  0  0  0  0  0  0  0  0
   36.7040   27.8680   42.2720 C   0  0  0  0  0  0  0  0  0  0  0  0
   37.0850   27.6050   43.5740 C   0  0  0  0  0  0  0  0  0  0  0  0
   38.3880   27.4670   43.7580 N   0  0  0  0  0  0  0  0  0  0  0  0
   39.2300   27.5790   42.7550 C   0  0  0  0  0  0  0  0  0  0  0  0
   38.7790   27.8340   41.5320 N   0  0  0  0  0  0  0  0  0  0  0  0
   35.6360   28.0080   42.0150 H   0  0  0  0  0  0  0  0  0  0  0  0
   36.2780   27.5430   44.2820 H   0  0  0  0  0  0  0  0  0  0  0  0
   41.4820   28.5300   43.1140 C   0  0  0  0  0  3  0  0  0  0  0  0
   40.6910   27.4160   43.0070 C   0  0  0  0  0  0  0  0  0  0  0  0
   41.2120   26.1420   43.1280 C   0  0  0  0  0  0  0  0  0  0  0  0
   40.5700   25.2590   43.0400 H   0  0  0  0  0  0  0  0  0  0  0  0
   42.5580   25.9270   43.3620 C   0  0  0  0  0  0  0  0  0  0  0  0
   43.3760   24.8670   43.5270 N   0  0  0  0  0  0  0  0  0  0  0  0
   44.6330   25.3130   43.7300 C   0  0  0  0  0  0  0  0  0  0  0  0
   45.3850   24.5510   43.8780 H   0  0  0  0  0  0  0  0  0  0  0  0
   44.5940   26.6580   43.6900 N   0  0  0  0  0  0  0  0  0  0  0  0
   43.3310   27.0770   43.4650 C   0  0  0  0  0  0  0  0  0  0  0  0
   42.8510   28.3660   43.3520 C   0  0  0  0  0  3  0  0  0  0  0  0
   42.9270   23.9110   43.4740 H   0  0  0  0  0  0  0  0  0  0  0  0
  1 27  1  0  0  0  0
  1  2  1  1  0  0  0
  3  1  1  0  0  0  0
  3  4  1  0  0  0  0
  4 10  1  0  0  0  0
  4  9  1  0  0  0  0
  5 11  1  0  0  0  0
  5  4  1  0  0  0  0
  6  5  1  0  0  0  0
  7  8  1  0  0  0  0
  7  6  1  0  0  0  0
  8 16  1  0  0  0  0
  8  3  1  0  0  0  0
 12  5  1  0  0  0  0
 13  6  1  0  0  0  0
 14  7  1  0  0  0  0
 15  7  1  0  0  0  0
 17  8  1  0  0  0  0
 18 24  1  0  0  0  0
 18 19  1  0  0  0  0
 19  1  1  0  0  0  0
 20 19  2  0  0  0  0
 20 25  1  0  0  0  0
 21 20  1  0  0  0  0
 22 23  1  0  0  0  0
 22 21  2  0  0  0  0
 23 18  2  0  0  0  0
 26 22  1  0  0  0  0
 27 30  1  0  0  0  0
 28 27  1  0  0  0  0
 29 27  1  0  0  0  0
 30 35  2  0  0  0  0
 30 31  1  0  0  0  0
 31 32  2  0  0  0  0
 32 33  1  0  0  0  0
 32 37  1  0  0  0  0
 34 39  1  0  0  0  0
 34 33  2  0  0  0  0
 35 34  1  0  0  0  0
 36 31  1  0  0  0  0
 38 48  1  0  0  0  0
 39 38  2  0  0  0  0
 39 40  1  0  0  0  0
 40 42  2  0  0  0  0
 41 40  1  0  0  0  0
 42 47  1  0  0  0  0
 42 43  1  0  0  0  0
 43 44  1  0  0  0  0
 44 45  1  0  0  0  0
 46 44  2  0  0  0  0
 47 46  1  0  0  0  0
 48 47  2  0  0  0  0
 49 43  1  0  0  0  0
M  END
>  <minimizedAffinity>
-6.10267019

$$$$

 OpenBabel03252502403D

 49 53  0  0  1  0  0  0  0  0999 V2000
   38.1140   24.5270   41.0080 C   0  0  1  0  0  0  0  0  0  0  0  0
   37.6170   24.0860   41.9230 H   0  0  0  0  0  0  0  0  0  0  0  0
   37.8670   23.5890   39.9460 N   0  0  0  0  0  0  0  0  0  0  0  0
   38.0600   22.2430   40.3350 C   0  0  0  0  0  0  0  0  0  0  0  0
   38.1520   21.4530   39.0130 C   0  0  0  0  0  0  0  0  0  0  0  0
   36.7910   21.4580   38.5400 N   0  0  0  0  0  0  0  0  0  0  0  0
   36.3070   22.7500   38.2760 C   0  0  0  0  0  0  0  0  0  0  0  0
   36.6270   23.8020   39.3240 C   0  0  0  0  0  0  0  0  0  0  0  0
   38.9510   22.0760   40.9640 H   0  0  0  0  0  0  0  0  0  0  0  0
   37.1460   21.9010   40.8670 H   0  0  0  0  0  0  0  0  0  0  0  0
   38.4870   20.4220   39.2240 H   0  0  0  0  0  0  0  0  0  0  0  0
   38.8000   21.9950   38.2920 H   0  0  0  0  0  0  0  0  0  0  0  0
   36.7300   20.8900   37.6910 H   0  0  0  0  0  0  0  0  0  0  0  0
   36.7250   23.0990   37.2960 H   0  0  0  0  0  0  0  0  0  0  0  0
   35.2050   22.6890   38.0810 H   0  0  0  0  0  0  0  0  0  0  0  0
   35.8690   23.4700   40.1040 H   0  0  0  0  0  0  0  0  0  0  0  0
   36.3660   24.7140   38.8400 H   0  0  0  0  0  0  0  0  0  0  0  0
   40.0460   24.6630   42.5780 C   0  0  0  0  0  0  0  0  0  0  0  0
   39.4820   24.7970   41.3230 C   0  0  0  0  0  0  0  0  0  0  0  0
   40.3530   25.2310   40.3040 C   0  0  0  0  0  0  0  0  0  0  0  0
   41.6640   25.4900   40.5980 N   0  0  0  0  0  0  0  0  0  0  0  0
   42.1460   25.3360   41.8590 C   0  0  0  0  0  0  0  0  0  0  0  0
   41.3330   24.9230   42.8450 N   0  0  0  0  0  0  0  0  0  0  0  0
   39.4250   24.3320   43.3990 H   0  0  0  0  0  0  0  0  0  0  0  0
   39.9700   25.3540   39.2960 H   0  0  0  0  0  0  0  0  0  0  0  0
   43.1870   25.5800   41.9210 H   0  0  0  0  0  0  0  0  0  0  0  0
   37.4310   25.8560   40.6620 C   0  0  0  0  0  0  0  0  0  0  0  0
   37.7120   26.2990   39.7110 H   0  0  0  0  0  0  0  0  0  0  0  0
   36.4140   25.4280   40.3790 H   0  0  0  0  0  0  0  0  0  0  0  0
   37.3550   26.8200   41.7100 C   0  0  0  0  0  0  0  0  0  0  0  0
   37.0730   26.8530   43.0320 C   0  0  0  0  0  0  0  0  0  0  0  0
   37.0460   27.9420   43.8820 C   0  0  0  0  0  0  0  0  0  0  0  0
   37.3380   29.1020   43.3140 N   0  0  0  0  0  0  0  0  0  0  0  0
   37.6280   29.1750   42.0340 C   0  0  0  0  0  0  0  0  0  0  0  0
   37.6300   28.0770   41.2870 N   0  0  0  0  0  0  0  0  0  0  0  0
   36.8340   25.8390   43.4100 H   0  0  0  0  0  0  0  0  0  0  0  0
   36.7920   27.7190   44.9030 H   0  0  0  0  0  0  0  0  0  0  0  0
   36.9960   31.1610   40.7060 C   0  0  0  0  0  3  0  0  0  0  0  0
   37.9510   30.5020   41.4340 C   0  0  0  0  0  0  0  0  0  0  0  0
   39.2110   31.0360   41.6300 C   0  0  0  0  0  0  0  0  0  0  0  0
   39.9660   30.5000   42.2130 H   0  0  0  0  0  0  0  0  0  0  0  0
   39.5700   32.2610   41.0990 C   0  0  0  0  0  0  0  0  0  0  0  0
   40.6630   33.0520   41.0890 N   0  0  0  0  0  0  0  0  0  0  0  0
   40.3900   34.1650   40.3770 C   0  0  0  0  0  0  0  0  0  0  0  0
   41.1940   34.8820   40.2970 H   0  0  0  0  0  0  0  0  0  0  0  0
   39.1200   34.0620   39.9430 N   0  0  0  0  0  0  0  0  0  0  0  0
   38.5780   32.9020   40.3670 C   0  0  0  0  0  0  0  0  0  0  0  0
   37.3090   32.4040   40.1490 C   0  0  0  0  0  3  0  0  0  0  0  0
   41.5100   32.6940   41.6110 H   0  0  0  0  0  0  0  0  0  0  0  0
  1 19  1  0  0  0  0
  1  2  1  1  0  0  0
  3  4  1  0  0  0  0
  3  1  1  0  0  0  0
  4 10  1  0  0  0  0
  4  9  1  0  0  0  0
  5 11  1  0  0  0  0
  5  4  1  0  0  0  0
  6  5  1  0  0  0  0
  7  6  1  0  0  0  0
  7  8  1  0  0  0  0
  8  3  1  0  0  0  0
  8 16  1  0  0  0  0
 12  5  1  0  0  0  0
 13  6  1  0  0  0  0
 14  7  1  0  0  0  0
 15  7  1  0  0  0  0
 17  8  1  0  0  0  0
 18 23  1  0  0  0  0
 18 24  1  0  0  0  0
 19 18  2  0  0  0  0
 20 21  2  0  0  0  0
 20 19  1  0  0  0  0
 21 22  1  0  0  0  0
 22 26  1  0  0  0  0
 22 23  2  0  0  0  0
 25 20  1  0  0  0  0
 27  1  1  0  0  0  0
 27 30  1  0  0  0  0
 28 27  1  0  0  0  0
 29 27  1  0  0  0  0
 30 31  1  0  0  0  0
 31 36  1  0  0  0  0
 31 32  2  0  0  0  0
 32 37  1  0  0  0  0
 33 32  1  0  0  0  0
 34 33  2  0  0  0  0
 35 30  2  0  0  0  0
 35 34  1  0  0  0  0
 38 39  1  0  0  0  0
 39 40  2  0  0  0  0
 39 34  1  0  0  0  0
 40 41  1  0  0  0  0
 42 40  1  0  0  0  0
 43 42  1  0  0  0  0
 43 49  1  0  0  0  0
 44 43  1  0  0  0  0
 45 44  1  0  0  0  0
 46 47  1  0  0  0  0
 46 44  2  0  0  0  0
 47 42  2  0  0  0  0
 48 47  1  0  0  0  0
 48 38  2  0  0  0  0
M  END
>  <minimizedAffinity>
-6.09194517

$$$$

 OpenBabel03252502403D

 49 53  0  0  1  0  0  0  0  0999 V2000
   37.8220   30.3160   39.6490 C   0  0  1  0  0  0  0  0  0  0  0  0
   38.8730   30.4150   39.2440 H   0  0  0  0  0  0  0  0  0  0  0  0
   37.9160   29.3890   40.7440 N   0  0  0  0  0  0  0  0  0  0  0  0
   39.2240   28.8900   40.9420 C   0  0  0  0  0  0  0  0  0  0  0  0
   39.0480   27.6540   41.8470 C   0  0  0  0  0  0  0  0  0  0  0  0
   38.7300   28.2340   43.1270 N   0  0  0  0  0  0  0  0  0  0  0  0
   37.5360   28.9730   43.1120 C   0  0  0  0  0  0  0  0  0  0  0  0
   37.3440   29.8960   41.9210 C   0  0  0  0  0  0  0  0  0  0  0  0
   39.7570   28.6320   40.0110 H   0  0  0  0  0  0  0  0  0  0  0  0
   39.8020   29.6480   41.5160 H   0  0  0  0  0  0  0  0  0  0  0  0
   40.0020   27.0980   41.8990 H   0  0  0  0  0  0  0  0  0  0  0  0
   38.1930   27.0420   41.4920 H   0  0  0  0  0  0  0  0  0  0  0  0
   38.6640   27.4900   43.8260 H   0  0  0  0  0  0  0  0  0  0  0  0
   36.6710   28.2590   43.1400 H   0  0  0  0  0  0  0  0  0  0  0  0
   37.4440   29.5290   44.0810 H   0  0  0  0  0  0  0  0  0  0  0  0
   38.0670   30.7110   42.2480 H   0  0  0  0  0  0  0  0  0  0  0  0
   36.3210   30.1820   41.9980 H   0  0  0  0  0  0  0  0  0  0  0  0
   35.6780   29.4450   38.7200 C   0  0  0  0  0  0  0  0  0  0  0  0
   36.9550   29.9530   38.5710 C   0  0  0  0  0  0  0  0  0  0  0  0
   37.4010   30.1130   37.2440 C   0  0  0  0  0  0  0  0  0  0  0  0
   36.5760   29.7680   36.2070 N   0  0  0  0  0  0  0  0  0  0  0  0
   35.3310   29.2740   36.4330 C   0  0  0  0  0  0  0  0  0  0  0  0
   34.8880   29.1140   37.6900 N   0  0  0  0  0  0  0  0  0  0  0  0
   35.2830   29.3020   39.7160 H   0  0  0  0  0  0  0  0  0  0  0  0
   38.3940   30.5090   37.0620 H   0  0  0  0  0  0  0  0  0  0  0  0
   34.8180   29.0550   35.5190 H   0  0  0  0  0  0  0  0  0  0  0  0
   37.3680   31.6780   40.1900 C   0  0  0  0  0  0  0  0  0  0  0  0
   36.3540   31.9730   39.9380 H   0  0  0  0  0  0  0  0  0  0  0  0
   37.2080   31.3580   41.2730 H   0  0  0  0  0  0  0  0  0  0  0  0
   38.2960   32.7520   40.0610 C   0  0  0  0  0  0  0  0  0  0  0  0
   38.3920   34.0520   40.4230 C   0  0  0  0  0  0  0  0  0  0  0  0
   39.4160   34.9450   40.1720 C   0  0  0  0  0  0  0  0  0  0  0  0
   40.4340   34.4490   39.4860 N   0  0  0  0  0  0  0  0  0  0  0  0
   40.4370   33.1960   39.0880 C   0  0  0  0  0  0  0  0  0  0  0  0
   39.4090   32.4050   39.3720 N   0  0  0  0  0  0  0  0  0  0  0  0
   37.4910   34.3730   40.9830 H   0  0  0  0  0  0  0  0  0  0  0  0
   39.2660   35.9350   40.5640 H   0  0  0  0  0  0  0  0  0  0  0  0
   42.8300   33.2660   38.4790 C   0  0  0  0  0  3  0  0  0  0  0  0
   41.6040   32.6780   38.3160 C   0  0  0  0  0  0  0  0  0  0  0  0
   41.4170   31.6140   37.4540 C   0  0  0  0  0  0  0  0  0  0  0  0
   40.4320   31.1530   37.3320 H   0  0  0  0  0  0  0  0  0  0  0  0
   42.4590   31.0910   36.7110 C   0  0  0  0  0  0  0  0  0  0  0  0
   42.6320   30.1010   35.8110 N   0  0  0  0  0  0  0  0  0  0  0  0
   43.9270   30.0790   35.4310 C   0  0  0  0  0  0  0  0  0  0  0  0
   44.1910   29.3210   34.7070 H   0  0  0  0  0  0  0  0  0  0  0  0
   44.5590   31.0610   36.0980 N   0  0  0  0  0  0  0  0  0  0  0  0
   43.6890   31.7100   36.9000 C   0  0  0  0  0  0  0  0  0  0  0  0
   43.9180   32.7730   37.7510 C   0  0  0  0  0  3  0  0  0  0  0  0
   41.7760   29.5330   35.5630 H   0  0  0  0  0  0  0  0  0  0  0  0
  1  2  1  6  0  0  0
  1 27  1  0  0  0  0
  1  3  1  0  0  0  0
  3  4  1  0  0  0  0
  3  8  1  0  0  0  0
  4 10  1  0  0  0  0
  4  5  1  0  0  0  0
  5 11  1  0  0  0  0
  5  6  1  0  0  0  0
  6 13  1  0  0  0  0
  7  6  1  0  0  0  0
  7 14  1  0  0  0  0
  7 15  1  0  0  0  0
  8 17  1  0  0  0  0
  8 16  1  0  0  0  0
  8  7  1  0  0  0  0
  9  4  1  0  0  0  0
 12  5  1  0  0  0  0
 18 24  1  0  0  0  0
 19 18  1  0  0  0  0
 19  1  1  0  0  0  0
 20 19  2  0  0  0  0
 21 22  2  0  0  0  0
 21 20  1  0  0  0  0
 22 23  1  0  0  0  0
 23 18  2  0  0  0  0
 25 20  1  0  0  0  0
 26 22  1  0  0  0  0
 27 29  1  0  0  0  0
 28 27  1  0  0  0  0
 30 27  1  0  0  0  0
 30 31  1  0  0  0  0
 31 36  1  0  0  0  0
 32 31  2  0  0  0  0
 32 37  1  0  0  0  0
 33 32  1  0  0  0  0
 34 35  1  0  0  0  0
 34 33  2  0  0  0  0
 35 30  2  0  0  0  0
 39 38  1  0  0  0  0
 39 34  1  0  0  0  0
 40 39  2  0  0  0  0
 41 40  1  0  0  0  0
 42 47  2  0  0  0  0
 42 40  1  0  0  0  0
 43 42  1  0  0  0  0
 44 43  1  0  0  0  0
 44 46  2  0  0  0  0
 45 44  1  0  0  0  0
 46 47  1  0  0  0  0
 47 48  1  0  0  0  0
 48 38  2  0  0  0  0
 49 43  1  0  0  0  0
M  END
>  <minimizedAffinity>
-6.07563591

$$$$

 OpenBabel03252502403D

 49 53  0  0  1  0  0  0  0  0999 V2000
   37.6380   27.3610   40.3090 C   0  0  1  0  0  0  0  0  0  0  0  0
   38.5540   27.8160   39.8260 H   0  0  0  0  0  0  0  0  0  0  0  0
   37.7170   27.7200   41.6990 N   0  0  0  0  0  0  0  0  0  0  0  0
   37.9300   29.1030   41.9070 C   0  0  0  0  0  0  0  0  0  0  0  0
   38.3840   29.2220   43.3760 C   0  0  0  0  0  0  0  0  0  0  0  0
   37.1700   28.9720   44.1100 N   0  0  0  0  0  0  0  0  0  0  0  0
   36.6500   27.6860   43.8870 C   0  0  0  0  0  0  0  0  0  0  0  0
   36.6360   27.2200   42.4410 C   0  0  0  0  0  0  0  0  0  0  0  0
   38.6680   29.5560   41.2220 H   0  0  0  0  0  0  0  0  0  0  0  0
   36.9520   29.6230   41.8140 H   0  0  0  0  0  0  0  0  0  0  0  0
   38.7480   30.2480   43.5660 H   0  0  0  0  0  0  0  0  0  0  0  0
   39.1300   28.4330   43.6080 H   0  0  0  0  0  0  0  0  0  0  0  0
   37.3490   29.1000   45.1090 H   0  0  0  0  0  0  0  0  0  0  0  0
   37.2480   26.9480   44.4830 H   0  0  0  0  0  0  0  0  0  0  0  0
   35.6300   27.6250   44.3470 H   0  0  0  0  0  0  0  0  0  0  0  0
   35.7520   27.8450   42.0920 H   0  0  0  0  0  0  0  0  0  0  0  0
   36.4150   26.1820   42.5230 H   0  0  0  0  0  0  0  0  0  0  0  0
   36.5250   25.2820   39.4990 C   0  0  0  0  0  0  0  0  0  0  0  0
   37.6160   25.9630   40.0060 C   0  0  0  0  0  0  0  0  0  0  0  0
   38.7730   25.1910   40.2260 C   0  0  0  0  0  0  0  0  0  0  0  0
   38.7590   23.8530   39.9370 N   0  0  0  0  0  0  0  0  0  0  0  0
   37.6460   23.2520   39.4400 C   0  0  0  0  0  0  0  0  0  0  0  0
   36.5330   23.9700   39.2240 N   0  0  0  0  0  0  0  0  0  0  0  0
   35.6090   25.8240   39.3090 H   0  0  0  0  0  0  0  0  0  0  0  0
   39.6630   25.6690   40.6220 H   0  0  0  0  0  0  0  0  0  0  0  0
   37.8010   22.2060   39.2700 H   0  0  0  0  0  0  0  0  0  0  0  0
   36.3850   28.0030   39.7020 C   0  0  0  0  0  0  0  0  0  0  0  0
   35.5230   27.3490   39.5950 H   0  0  0  0  0  0  0  0  0  0  0  0
   36.0620   28.5920   40.6240 H   0  0  0  0  0  0  0  0  0  0  0  0
   36.5860   28.8290   38.5590 C   0  0  0  0  0  0  0  0  0  0  0  0
   36.1140   28.9360   37.2950 C   0  0  0  0  0  0  0  0  0  0  0  0
   36.4730   29.8400   36.3140 C   0  0  0  0  0  0  0  0  0  0  0  0
   37.4040   30.7120   36.6700 N   0  0  0  0  0  0  0  0  0  0  0  0
   37.9250   30.6910   37.8760 C   0  0  0  0  0  0  0  0  0  0  0  0
   37.5230   29.7860   38.7610 N   0  0  0  0  0  0  0  0  0  0  0  0
   35.3500   28.1600   37.0930 H   0  0  0  0  0  0  0  0  0  0  0  0
   35.9550   29.7280   35.3780 H   0  0  0  0  0  0  0  0  0  0  0  0
   40.0490   31.8630   37.4080 C   0  0  0  0  0  3  0  0  0  0  0  0
   38.9710   31.6920   38.2360 C   0  0  0  0  0  0  0  0  0  0  0  0
   38.8250   32.4240   39.3990 C   0  0  0  0  0  0  0  0  0  0  0  0
   37.9600   32.2780   40.0530 H   0  0  0  0  0  0  0  0  0  0  0  0
   39.7610   33.3660   39.7860 C   0  0  0  0  0  0  0  0  0  0  0  0
   39.9330   34.2240   40.8120 N   0  0  0  0  0  0  0  0  0  0  0  0
   41.0830   34.9050   40.6220 C   0  0  0  0  0  0  0  0  0  0  0  0
   41.3310   35.6300   41.3840 H   0  0  0  0  0  0  0  0  0  0  0  0
   41.6260   34.4650   39.4720 N   0  0  0  0  0  0  0  0  0  0  0  0
   40.8410   33.5140   38.9240 C   0  0  0  0  0  0  0  0  0  0  0  0
   41.0240   32.8040   37.7540 C   0  0  0  0  0  3  0  0  0  0  0  0
   39.1840   34.2270   41.5570 H   0  0  0  0  0  0  0  0  0  0  0  0
  1  2  1  6  0  0  0
  1  3  1  0  0  0  0
  3  4  1  0  0  0  0
  3  8  1  0  0  0  0
  4  5  1  0  0  0  0
  5 11  1  0  0  0  0
  5 12  1  0  0  0  0
  5  6  1  0  0  0  0
  6 13  1  0  0  0  0
  7  6  1  0  0  0  0
  7 15  1  0  0  0  0
  7 14  1  0  0  0  0
  8 17  1  0  0  0  0
  8  7  1  0  0  0  0
  9  4  1  0  0  0  0
 10  4  1  0  0  0  0
 16  8  1  0  0  0  0
 18 19  1  0  0  0  0
 19 20  2  0  0  0  0
 19  1  1  0  0  0  0
 20 25  1  0  0  0  0
 21 20  1  0  0  0  0
 22 21  2  0  0  0  0
 23 22  1  0  0  0  0
 23 18  2  0  0  0  0
 24 18  1  0  0  0  0
 26 22  1  0  0  0  0
 27  1  1  0  0  0  0
 27 29  1  0  0  0  0
 28 27  1  0  0  0  0
 30 35  1  0  0  0  0
 30 27  1  0  0  0  0
 31 30  2  0  0  0  0
 32 33  2  0  0  0  0
 32 31  1  0  0  0  0
 33 34  1  0  0  0  0
 34 39  1  0  0  0  0
 34 35  2  0  0  0  0
 36 31  1  0  0  0  0
 37 32  1  0  0  0  0
 38 48  2  0  0  0  0
 38 39  1  0  0  0  0
 39 40  2  0  0  0  0
 40 42  1  0  0  0  0
 40 41  1  0  0  0  0
 42 43  1  0  0  0  0
 43 49  1  0  0  0  0
 44 43  1  0  0  0  0
 44 45  1  0  0  0  0
 46 44  2  0  0  0  0
 47 46  1  0  0  0  0
 47 42  2  0  0  0  0
 48 47  1  0  0  0  0
M  END
>  <minimizedAffinity>
-6.04516554

$$$$

 OpenBabel03252502403D

 49 53  0  0  1  0  0  0  0  0999 V2000
   38.5770   30.3570   39.7130 C   0  0  1  0  0  0  0  0  0  0  0  0
   39.4290   29.6970   40.0550 H   0  0  0  0  0  0  0  0  0  0  0  0
   38.2410   29.9000   38.3920 N   0  0  0  0  0  0  0  0  0  0  0  0
   38.5710   28.5430   38.1700 C   0  0  0  0  0  0  0  0  0  0  0  0
   38.5240   28.3640   36.6390 C   0  0  0  0  0  0  0  0  0  0  0  0
   37.1120   28.4010   36.3540 N   0  0  0  0  0  0  0  0  0  0  0  0
   36.5150   29.6250   36.6970 C   0  0  0  0  0  0  0  0  0  0  0  0
   36.9150   30.2010   38.0450 C   0  0  0  0  0  0  0  0  0  0  0  0
   39.5510   28.2420   38.5790 H   0  0  0  0  0  0  0  0  0  0  0  0
   37.7650   27.9140   38.6070 H   0  0  0  0  0  0  0  0  0  0  0  0
   38.9480   27.3800   36.3710 H   0  0  0  0  0  0  0  0  0  0  0  0
   39.0270   29.2190   36.1420 H   0  0  0  0  0  0  0  0  0  0  0  0
   36.9660   28.2160   35.3580 H   0  0  0  0  0  0  0  0  0  0  0  0
   36.7680   30.3830   35.9090 H   0  0  0  0  0  0  0  0  0  0  0  0
   35.4030   29.5210   36.6090 H   0  0  0  0  0  0  0  0  0  0  0  0
   36.2970   29.5000   38.6940 H   0  0  0  0  0  0  0  0  0  0  0  0
   36.5310   31.1930   38.0090 H   0  0  0  0  0  0  0  0  0  0  0  0
   38.3930   32.6510   40.6730 C   0  0  0  0  0  0  0  0  0  0  0  0
   38.9850   31.7220   39.8380 C   0  0  0  0  0  0  0  0  0  0  0  0
   40.0690   32.1910   39.0690 C   0  0  0  0  0  0  0  0  0  0  0  0
   40.4670   33.4960   39.1850 N   0  0  0  0  0  0  0  0  0  0  0  0
   39.8330   34.3520   40.0290 C   0  0  0  0  0  0  0  0  0  0  0  0
   38.7980   33.9250   40.7690 N   0  0  0  0  0  0  0  0  0  0  0  0
   37.5570   32.3480   41.2870 H   0  0  0  0  0  0  0  0  0  0  0  0
   40.5760   31.5080   38.3960 H   0  0  0  0  0  0  0  0  0  0  0  0
   40.2650   35.3320   39.9990 H   0  0  0  0  0  0  0  0  0  0  0  0
   37.3720   30.1320   40.6360 C   0  0  0  0  0  0  0  0  0  0  0  0
   36.9410   31.0260   41.0770 H   0  0  0  0  0  0  0  0  0  0  0  0
   36.6010   29.9320   39.8210 H   0  0  0  0  0  0  0  0  0  0  0  0
   37.4820   29.0620   41.5710 C   0  0  0  0  0  0  0  0  0  0  0  0
   36.6620   28.2450   42.2710 C   0  0  0  0  0  0  0  0  0  0  0  0
   36.9960   27.2460   43.1650 C   0  0  0  0  0  0  0  0  0  0  0  0
   38.2960   27.0750   43.3510 N   0  0  0  0  0  0  0  0  0  0  0  0
   39.1750   27.8180   42.7170 C   0  0  0  0  0  0  0  0  0  0  0  0
   38.7670   28.7590   41.8740 N   0  0  0  0  0  0  0  0  0  0  0  0
   35.5990   28.4720   42.0520 H   0  0  0  0  0  0  0  0  0  0  0  0
   36.1630   26.7260   43.6020 H   0  0  0  0  0  0  0  0  0  0  0  0
   41.4740   28.6680   43.0280 C   0  0  0  0  0  3  0  0  0  0  0  0
   40.6300   27.5920   42.9580 C   0  0  0  0  0  0  0  0  0  0  0  0
   41.0900   26.2970   43.1030 C   0  0  0  0  0  0  0  0  0  0  0  0
   40.4060   25.4450   43.0450 H   0  0  0  0  0  0  0  0  0  0  0  0
   42.4270   26.0230   43.3280 C   0  0  0  0  0  0  0  0  0  0  0  0
   43.1950   24.9290   43.5100 N   0  0  0  0  0  0  0  0  0  0  0  0
   44.4740   25.3190   43.6880 C   0  0  0  0  0  0  0  0  0  0  0  0
   45.1900   24.5250   43.8460 H   0  0  0  0  0  0  0  0  0  0  0  0
   44.4990   26.6630   43.6160 N   0  0  0  0  0  0  0  0  0  0  0  0
   43.2550   27.1370   43.3950 C   0  0  0  0  0  0  0  0  0  0  0  0
   42.8360   28.4450   43.2550 C   0  0  0  0  0  3  0  0  0  0  0  0
   42.7000   23.9950   43.4860 H   0  0  0  0  0  0  0  0  0  0  0  0
  1 19  1  0  0  0  0
  1  2  1  1  0  0  0
  1 27  1  0  0  0  0
  3  1  1  0  0  0  0
  4  3  1  0  0  0  0
  4  9  1  0  0  0  0
  4 10  1  0  0  0  0
  5  4  1  0  0  0  0
  6  5  1  0  0  0  0
  6  7  1  0  0  0  0
  7  8  1  0  0  0  0
  8  3  1  0  0  0  0
  8 16  1  0  0  0  0
 11  5  1  0  0  0  0
 12  5  1  0  0  0  0
 13  6  1  0  0  0  0
 14  7  1  0  0  0  0
 15  7  1  0  0  0  0
 17  8  1  0  0  0  0
 18 23  1  0  0  0  0
 18 24  1  0  0  0  0
 19 18  2  0  0  0  0
 20 21  2  0  0  0  0
 20 19  1  0  0  0  0
 21 22  1  0  0  0  0
 22 23  2  0  0  0  0
 25 20  1  0  0  0  0
 26 22  1  0  0  0  0
 27 28  1  0  0  0  0
 27 30  1  0  0  0  0
 29 27  1  0  0  0  0
 30 35  2  0  0  0  0
 30 31  1  0  0  0  0
 31 32  2  0  0  0  0
 32 33  1  0  0  0  0
 32 37  1  0  0  0  0
 34 39  1  0  0  0  0
 34 33  2  0  0  0  0
 35 34  1  0  0  0  0
 36 31  1  0  0  0  0
 38 48  1  0  0  0  0
 39 38  2  0  0  0  0
 39 40  1  0  0  0  0
 40 42  2  0  0  0  0
 41 40  1  0  0  0  0
 42 47  1  0  0  0  0
 42 43  1  0  0  0  0
 43 44  1  0  0  0  0
 44 45  1  0  0  0  0
 46 44  2  0  0  0  0
 47 46  1  0  0  0  0
 48 47  2  0  0  0  0
 49 43  1  0  0  0  0
M  END
>  <minimizedAffinity>
-5.94386339

$$$$
