
 OpenBabel03252509163D

 28 31  0  0  0  0  0  0  0  0999 V2000
   45.9860   33.1280   46.1460 C   0  0  0  0  0  0  0  0  0  0  0  0
   45.5390   32.9790   47.4840 C   0  0  0  0  0  0  0  0  0  0  0  0
   46.2220   32.1310   48.2920 C   0  0  0  0  0  0  0  0  0  0  0  0
   47.3470   31.4320   47.7760 C   0  0  0  0  0  0  0  0  0  0  0  0
   47.4270   32.0250   46.0330 S   0  0  0  0  0  0  0  0  0  0  0  0
   44.6780   33.5290   47.8360 H   0  0  0  0  0  0  0  0  0  0  0  0
   45.9900   31.9330   49.3020 H   0  0  0  0  0  0  0  0  0  0  0  0
   48.5130   29.3080   47.7670 C   0  0  0  0  0  3  0  0  0  0  0  0
   48.2220   30.5060   48.3870 C   0  0  0  0  0  0  0  0  0  0  0  0
   48.7560   30.8600   49.6090 C   0  0  0  0  0  0  0  0  0  0  0  0
   48.5510   31.7940   50.1280 H   0  0  0  0  0  0  0  0  0  0  0  0
   49.6260   29.9630   50.2390 C   0  0  0  0  0  0  0  0  0  0  0  0
   50.2830   30.0580   51.4300 N   0  0  0  0  0  0  0  0  0  0  0  0
   50.9910   28.9000   51.5460 C   0  0  0  0  0  0  0  0  0  0  0  0
   51.6490   28.5930   52.3650 H   0  0  0  0  0  0  0  0  0  0  0  0
   50.7680   28.1280   50.4590 N   0  0  0  0  0  0  0  0  0  0  0  0
   49.9250   28.7620   49.6300 C   0  0  0  0  0  0  0  0  0  0  0  0
   49.3710   28.4290   48.3920 C   0  0  0  0  0  3  0  0  0  0  0  0
   50.2680   30.8340   52.1210 H   0  0  0  0  0  0  0  0  0  0  0  0
   44.2510   35.8960   44.3580 C   0  0  0  0  0  0  0  0  0  0  0  0
   44.2210   35.3560   43.0450 C   0  0  0  0  0  0  0  0  0  0  0  0
   44.7890   34.0950   42.8500 C   0  0  0  0  0  0  0  0  0  0  0  0
   45.3400   33.4500   43.9300 N   0  0  0  0  0  0  0  0  0  0  0  0
   45.3430   34.0070   45.1630 C   0  0  0  0  0  0  0  0  0  0  0  0
   44.8000   35.2310   45.3850 N   0  0  0  0  0  0  0  0  0  0  0  0
   43.8200   36.8710   44.5430 H   0  0  0  0  0  0  0  0  0  0  0  0
   43.7830   35.8870   42.2250 H   0  0  0  0  0  0  0  0  0  0  0  0
   44.8070   33.6160   41.8810 H   0  0  0  0  0  0  0  0  0  0  0  0
  1  2  2  0  0  0  0
  2  6  1  0  0  0  0
  2  3  1  0  0  0  0
  3  7  1  0  0  0  0
  4  3  2  0  0  0  0
  4  9  1  0  0  0  0
  5  1  1  0  0  0  0
  5  4  1  0  0  0  0
  8  9  2  0  0  0  0
  8 18  1  0  0  0  0
  9 10  1  0  0  0  0
 10 11  1  0  0  0  0
 10 12  2  0  0  0  0
 12 13  1  0  0  0  0
 13 14  1  0  0  0  0
 13 19  1  0  0  0  0
 14 15  1  0  0  0  0
 16 14  2  0  0  0  0
 17 12  1  0  0  0  0
 17 16  1  0  0  0  0
 18 17  2  0  0  0  0
 20 26  1  0  0  0  0
 20 25  1  0  0  0  0
 21 20  2  0  0  0  0
 22 21  1  0  0  0  0
 22 23  2  0  0  0  0
 23 24  1  0  0  0  0
 24 25  2  0  0  0  0
 24  1  1  0  0  0  0
 27 21  1  0  0  0  0
 28 22  1  0  0  0  0
M  END
>  <minimizedAffinity>
-5.38318443

>  <minimizedRMSD>
1.53532231

$$$$
