
 OpenBabel03242513313D

 40 44  0  0  0  0  0  0  0  0999 V2000
   46.4060   33.5700   41.1120 C   0  0  0  0  0  0  0  0  0  0  0  0
   46.8020   34.6030   41.9460 C   0  0  0  0  0  0  0  0  0  0  0  0
   47.8650   35.3510   41.5470 C   0  0  0  0  0  0  0  0  0  0  0  0
   48.5340   35.0970   40.3530 C   0  0  0  0  0  0  0  0  0  0  0  0
   48.1270   34.0720   39.5420 C   0  0  0  0  0  0  0  0  0  0  0  0
   47.0360   33.2730   39.9130 C   0  0  0  0  0  0  0  0  0  0  0  0
   48.2130   36.1700   42.1640 H   0  0  0  0  0  0  0  0  0  0  0  0
   49.3760   35.6620   40.0000 H   0  0  0  0  0  0  0  0  0  0  0  0
   48.5780   33.7950   38.6010 H   0  0  0  0  0  0  0  0  0  0  0  0
   44.5500   36.0540   44.5880 C   0  0  0  0  0  0  0  0  0  0  0  0
   45.2420   35.8850   43.3860 C   0  0  0  0  0  0  0  0  0  0  0  0
   46.0700   34.8150   43.1690 C   0  0  0  0  0  0  0  0  0  0  0  0
   46.1590   33.9350   44.2170 N   0  0  0  0  0  0  0  0  0  0  0  0
   45.4940   34.0900   45.3790 C   0  0  0  0  0  0  0  0  0  0  0  0
   44.6890   35.1550   45.5580 N   0  0  0  0  0  0  0  0  0  0  0  0
   43.9530   36.9420   44.5810 H   0  0  0  0  0  0  0  0  0  0  0  0
   45.1840   36.5770   42.5380 H   0  0  0  0  0  0  0  0  0  0  0  0
   45.6300   33.3380   46.1510 H   0  0  0  0  0  0  0  0  0  0  0  0
   45.3260   32.7770   41.4730 O   0  0  0  0  0  0  0  0  0  0  0  0
   44.3660   33.0870   41.2720 H   0  0  0  0  0  0  0  0  0  0  0  0
   46.5960   32.2390   39.1320 O   0  0  0  0  0  0  0  0  0  0  0  0
   46.5500   32.2330   37.7850 C   0  0  0  0  0  0  0  0  0  0  0  0
   45.6190   32.7380   36.9020 C   0  0  0  0  0  0  0  0  0  0  0  0
   45.8150   32.5950   35.5680 C   0  0  0  0  0  0  0  0  0  0  0  0
   46.9990   31.9160   35.1700 C   0  0  0  0  0  0  0  0  0  0  0  0
   47.8210   31.4880   36.7320 S   0  0  0  0  0  0  0  0  0  0  0  0
   44.7570   33.2360   37.3160 H   0  0  0  0  0  0  0  0  0  0  0  0
   45.1490   32.9530   34.7970 H   0  0  0  0  0  0  0  0  0  0  0  0
   47.1900   30.4070   33.2550 C   0  0  0  0  0  0  0  0  0  0  0  0
   47.4510   31.6280   33.8560 C   0  0  0  0  0  0  0  0  0  0  0  0
   48.1630   32.6170   33.2050 C   0  0  0  0  0  0  0  0  0  0  0  0
   48.3740   33.5870   33.6770 H   0  0  0  0  0  0  0  0  0  0  0  0
   48.6310   32.3890   31.9170 C   0  0  0  0  0  0  0  0  0  0  0  0
   49.3360   33.1910   31.0990 N   0  0  0  0  0  0  0  0  0  0  0  0
   49.5150   32.4580   29.9740 C   0  0  0  0  0  0  0  0  0  0  0  0
   50.0550   32.8320   29.1070 H   0  0  0  0  0  0  0  0  0  0  0  0
   48.9310   31.2300   30.0980 N   0  0  0  0  0  0  0  0  0  0  0  0
   48.3610   31.1680   31.3360 C   0  0  0  0  0  0  0  0  0  0  0  0
   47.6520   30.1770   31.9780 C   0  0  0  0  0  0  0  0  0  0  0  0
   49.6750   34.1610   31.2770 H   0  0  0  0  0  0  0  0  0  0  0  0
  1 19  1  0  0  0  0
  1  2  1  0  0  0  0
  2 12  1  0  0  0  0
  3  2  2  0  0  0  0
  3  7  1  0  0  0  0
  4  3  1  0  0  0  0
  5  6  1  0  0  0  0
  5  4  2  0  0  0  0
  6  1  2  0  0  0  0
  8  4  1  0  0  0  0
  9  5  1  0  0  0  0
 10 15  1  0  0  0  0
 11 10  2  0  0  0  0
 12 11  1  0  0  0  0
 12 13  2  0  0  0  0
 13 14  1  0  0  0  0
 14 15  2  0  0  0  0
 14 18  1  0  0  0  0
 16 10  1  0  0  0  0
 17 11  1  0  0  0  0
 20 19  1  0  0  0  0
 21  6  1  0  0  0  0
 22 21  1  0  0  0  0
 23 27  1  0  0  0  0
 23 22  2  0  0  0  0
 24 23  1  0  0  0  0
 25 24  2  0  0  0  0
 25 26  1  0  0  0  0
 26 22  1  0  0  0  0
 28 24  1  0  0  0  0
 29 30  1  0  0  0  0
 30 25  1  0  0  0  0
 31 32  1  0  0  0  0
 31 30  2  0  0  0  0
 33 31  1  0  0  0  0
 34 40  1  0  0  0  0
 34 33  1  0  0  0  0
 35 37  2  0  0  0  0
 35 34  1  0  0  0  0
 36 35  1  0  0  0  0
 37 38  1  0  0  0  0
 38 33  2  0  0  0  0
 38 39  1  0  0  0  0
 39 29  2  0  0  0  0
M  END
>  <minimizedAffinity>
-7.22187233

>  <minimizedRMSD>
0.556530952

$$$$
