
     RDKit          3D

 48 52  0  0  0  0  0  0  0  0999 V2000
   45.7428   33.7833   45.5589 C   0  0  0  0  0  0  0  0  0  0  0  0
   44.8147   34.7708   45.8516 C   0  0  0  0  0  0  0  0  0  0  0  0
   44.5667   35.7366   44.8579 C   0  0  0  0  0  0  0  0  0  0  0  0
   45.2581   35.6378   43.6691 N   0  0  0  0  0  0  0  0  0  0  0  0
   46.1389   34.6615   43.4546 C   0  0  0  0  0  0  0  0  0  0  0  0
   46.3768   33.7506   44.3837 N   0  0  0  0  0  0  0  0  0  0  0  0
   46.8380   34.6157   42.1705 C   0  0  0  0  0  0  0  0  0  0  0  0
   48.0121   35.3186   41.9924 C   0  0  0  0  0  0  0  0  0  0  0  0
   48.7465   35.3410   40.8278 C   0  0  0  0  0  0  0  0  0  0  0  0
   48.1912   34.5682   39.8001 C   0  0  0  0  0  0  0  0  0  0  0  0
   47.0154   33.8545   39.9532 C   0  0  0  0  0  0  0  0  0  0  0  0
   46.3281   33.8737   41.1444 N   0  0  0  0  0  0  0  0  0  0  0  0
   45.9981   32.7603   46.5775 C   0  0  2  0  0  0  0  0  0  0  0  0
   46.2183   31.3998   46.1106 C   0  0  0  0  0  0  0  0  0  0  0  0
   46.6446   30.5043   47.2282 C   0  0  0  0  0  0  0  0  0  0  0  0
   46.0158   30.7350   48.5586 C   0  0  0  0  0  0  0  0  0  0  0  0
   45.8676   32.1754   48.8859 C   0  0  0  0  0  0  0  0  0  0  0  0
   45.1144   32.8698   47.7511 C   0  0  2  0  0  0  0  0  0  0  0  0
   44.2205   34.9661   46.7198 H   0  0  0  0  0  0  0  0  0  0  0  0
   43.8858   36.5439   44.9449 H   0  0  0  0  0  0  0  0  0  0  0  0
   48.3730   35.8910   42.8374 H   0  0  0  0  0  0  0  0  0  0  0  0
   49.6430   35.9006   40.7499 H   0  0  0  0  0  0  0  0  0  0  0  0
   48.7414   34.5552   38.8529 H   0  0  0  0  0  0  0  0  0  0  0  0
   46.6788   33.2962   39.1026 H   0  0  0  0  0  0  0  0  0  0  0  0
   47.0361   33.0773   46.9856 H   0  0  0  0  0  0  0  0  0  0  0  0
   47.1713   31.4623   45.4438 H   0  0  0  0  0  0  0  0  0  0  0  0
   45.5313   30.8903   45.4636 H   0  0  0  0  0  0  0  0  0  0  0  0
   47.7738   30.4595   47.3281 H   0  0  0  0  0  0  0  0  0  0  0  0
   46.3830   29.4404   46.9361 H   0  0  0  0  0  0  0  0  0  0  0  0
   46.7283   30.3122   49.3129 H   0  0  0  0  0  0  0  0  0  0  0  0
   45.1095   30.1161   48.6595 H   0  0  0  0  0  0  0  0  0  0  0  0
   45.5029   32.4194   49.8647 H   0  0  0  0  0  0  0  0  0  0  0  0
   46.9062   32.6170   48.8257 H   0  0  0  0  0  0  0  0  0  0  0  0
   45.1467   33.9472   48.1797 H   0  0  0  0  0  0  0  0  0  0  0  0
   42.8658   33.2002   48.4435 C   0  0  0  0  0  0  0  0  0  0  0  0
   43.7743   32.3554   47.7683 C   0  0  0  0  0  0  0  0  0  0  0  0
   43.1309   31.2563   47.3060 C   0  0  0  0  0  0  0  0  0  0  0  0
   43.7716   30.5696   46.7865 H   0  0  0  0  0  0  0  0  0  0  0  0
   41.8037   30.9118   47.4173 C   0  0  0  0  0  0  0  0  0  0  0  0
   41.1271   29.8376   46.9761 N   0  0  0  0  0  0  0  0  0  0  0  0
   39.8492   30.0693   47.3954 C   0  0  0  0  0  0  0  0  0  0  0  0
   39.0176   29.3907   47.2088 H   0  0  0  0  0  0  0  0  0  0  0  0
   39.7664   31.2302   48.0575 N   0  0  0  0  0  0  0  0  0  0  0  0
   40.9935   31.7827   48.0843 C   0  0  0  0  0  0  0  0  0  0  0  0
   41.5015   32.9264   48.6026 C   0  0  0  0  0  0  0  0  0  0  0  0
   43.1156   34.1461   48.9115 H   0  0  0  0  0  0  0  0  0  0  0  0
   41.5280   29.0391   46.4423 H   0  0  0  0  0  0  0  0  0  0  0  0
   40.8126   33.5765   49.1198 H   0  0  0  0  0  0  0  0  0  0  0  0
  1  2  2  0
  1 13  1  0
  3  2  1  0
  4  3  2  0
  5  4  1  0
  5  6  2  0
  6  1  1  0
  7  5  1  0
  8  7  2  0
  9  8  1  0
 10 11  1  0
 10  9  2  0
 11 12  2  0
 12  7  1  0
 13 18  1  0
 14 13  1  0
 14 15  1  0
 15 16  1  0
 16 17  1  0
 18 17  1  0
  2 19  1  0
  3 20  1  0
  8 21  1  0
  9 22  1  0
 10 23  1  0
 11 24  1  0
 13 25  1  1
 14 26  1  0
 14 27  1  0
 15 28  1  0
 15 29  1  0
 16 30  1  0
 16 31  1  0
 17 32  1  0
 17 33  1  0
 18 34  1  1
 35 36  2  0
 36 37  1  0
 37 38  1  0
 37 39  2  0
 39 40  1  0
 40 41  1  0
 41 42  1  0
 41 43  2  0
 43 44  1  0
 44 45  2  0
 45 35  1  0
 44 39  1  0
 35 46  1  0
 40 47  1  0
 45 48  1  0
 18 36  1  0
M  ISO  8  19  14  20  14  21  14  22  14  23  14  24  14  25  13  26  13
M  ISO  8  27  13  28  13  29  13  30  13  31  13  32  13  33  13  34  13
M  ISO  2  38  15  42  14
M  END
>  <DihAtoms>  (1) 
12,17,35,34

>  <DihDeg>  (1) 
-140.75777776912471

$$$$
