
 OpenBabel03252509163D

 28 31  0  0  0  0  0  0  0  0999 V2000
   45.9410   33.1450   45.9100 C   0  0  0  0  0  0  0  0  0  0  0  0
   45.5280   33.0900   47.2670 C   0  0  0  0  0  0  0  0  0  0  0  0
   46.2080   32.2690   48.1050 C   0  0  0  0  0  0  0  0  0  0  0  0
   47.2950   31.5040   47.6020 C   0  0  0  0  0  0  0  0  0  0  0  0
   47.3440   31.9920   45.8250 S   0  0  0  0  0  0  0  0  0  0  0  0
   44.6950   33.6880   47.6080 H   0  0  0  0  0  0  0  0  0  0  0  0
   45.9990   32.1390   49.1310 H   0  0  0  0  0  0  0  0  0  0  0  0
   48.4510   29.3760   47.6540 C   0  0  0  0  0  3  0  0  0  0  0  0
   48.1570   30.5880   48.2440 C   0  0  0  0  0  0  0  0  0  0  0  0
   48.6780   30.9650   49.4650 C   0  0  0  0  0  0  0  0  0  0  0  0
   48.4700   31.9110   49.9610 H   0  0  0  0  0  0  0  0  0  0  0  0
   49.5350   30.0780   50.1250 C   0  0  0  0  0  0  0  0  0  0  0  0
   50.1780   30.1960   51.3230 N   0  0  0  0  0  0  0  0  0  0  0  0
   50.8780   29.0370   51.4720 C   0  0  0  0  0  0  0  0  0  0  0  0
   51.5240   28.7450   52.3060 H   0  0  0  0  0  0  0  0  0  0  0  0
   50.6660   28.2430   50.3980 N   0  0  0  0  0  0  0  0  0  0  0  0
   49.8360   28.8640   49.5460 C   0  0  0  0  0  0  0  0  0  0  0  0
   49.2960   28.5060   48.3080 C   0  0  0  0  0  3  0  0  0  0  0  0
   50.1570   30.9870   51.9970 H   0  0  0  0  0  0  0  0  0  0  0  0
   44.2870   35.8770   43.9950 C   0  0  0  0  0  0  0  0  0  0  0  0
   44.1400   35.2360   42.7370 C   0  0  0  0  0  0  0  0  0  0  0  0
   44.6090   33.9260   42.6180 C   0  0  0  0  0  0  0  0  0  0  0  0
   45.1820   33.3330   43.7160 N   0  0  0  0  0  0  0  0  0  0  0  0
   45.2990   33.9860   44.8940 C   0  0  0  0  0  0  0  0  0  0  0  0
   44.8540   35.2590   45.0420 N   0  0  0  0  0  0  0  0  0  0  0  0
   43.9340   36.8920   44.1210 H   0  0  0  0  0  0  0  0  0  0  0  0
   43.6880   35.7290   41.9010 H   0  0  0  0  0  0  0  0  0  0  0  0
   44.5350   33.3710   41.6930 H   0  0  0  0  0  0  0  0  0  0  0  0
  1  2  2  0  0  0  0
  2  6  1  0  0  0  0
  2  3  1  0  0  0  0
  3  7  1  0  0  0  0
  4  3  2  0  0  0  0
  4  9  1  0  0  0  0
  5  1  1  0  0  0  0
  5  4  1  0  0  0  0
  8  9  2  0  0  0  0
  8 18  1  0  0  0  0
  9 10  1  0  0  0  0
 10 11  1  0  0  0  0
 10 12  2  0  0  0  0
 12 13  1  0  0  0  0
 13 14  1  0  0  0  0
 13 19  1  0  0  0  0
 14 15  1  0  0  0  0
 16 14  2  0  0  0  0
 17 12  1  0  0  0  0
 17 16  1  0  0  0  0
 18 17  2  0  0  0  0
 20 26  1  0  0  0  0
 20 25  1  0  0  0  0
 21 20  2  0  0  0  0
 22 21  1  0  0  0  0
 22 23  2  0  0  0  0
 23 24  1  0  0  0  0
 24 25  2  0  0  0  0
 24  1  1  0  0  0  0
 27 21  1  0  0  0  0
 28 22  1  0  0  0  0
M  END
>  <minimizedAffinity>
-5.39495754

>  <minimizedRMSD>
1.54228449

$$$$
