
 OpenBabel03252500533D

 27 29  0  0  0  0  0  0  0  0999 V2000
   47.6510   32.0390   42.9390 C   0  0  0  0  0  0  0  0  0  0  0  0
   48.3410   32.7880   42.0040 C   0  0  0  0  0  0  0  0  0  0  0  0
   48.1910   34.1950   42.0450 C   0  0  0  0  0  0  0  0  0  0  0  0
   47.3820   34.7270   42.9940 N   0  0  0  0  0  0  0  0  0  0  0  0
   46.7290   33.9560   43.8850 C   0  0  0  0  0  0  0  0  0  0  0  0
   46.8630   32.6360   43.8570 N   0  0  0  0  0  0  0  0  0  0  0  0
   48.6760   34.8860   41.3700 H   0  0  0  0  0  0  0  0  0  0  0  0
   46.0850   34.4150   44.6370 H   0  0  0  0  0  0  0  0  0  0  0  0
   48.9650   31.8480   39.6890 C   0  0  0  0  0  3  0  0  0  0  0  0
   49.1990   32.2910   40.9720 C   0  0  0  0  0  0  0  0  0  0  0  0
   50.5480   32.2370   41.3610 C   0  0  0  0  0  0  0  0  0  0  0  0
   50.9050   32.5530   42.3510 H   0  0  0  0  0  0  0  0  0  0  0  0
   51.5610   31.7880   40.5490 C   0  0  0  0  0  0  0  0  0  0  0  0
   52.8920   31.6430   40.6830 N   0  0  0  0  0  0  0  0  0  0  0  0
   53.4270   31.1460   39.5540 C   0  0  0  0  0  0  0  0  0  0  0  0
   54.4430   30.9060   39.3090 H   0  0  0  0  0  0  0  0  0  0  0  0
   52.3960   30.9730   38.6830 N   0  0  0  0  0  0  0  0  0  0  0  0
   51.2510   31.3610   39.2760 C   0  0  0  0  0  0  0  0  0  0  0  0
   49.9460   31.3900   38.8390 C   0  0  0  0  0  3  0  0  0  0  0  0
   53.4510   31.8770   41.5320 H   0  0  0  0  0  0  0  0  0  0  0  0
   47.7610   30.5870   42.9750 C   0  0  0  0  0  0  0  0  0  0  0  0
   48.2020   30.2240   42.0260 H   0  0  0  0  0  0  0  0  0  0  0  0
   46.7640   30.1070   43.0320 H   0  0  0  0  0  0  0  0  0  0  0  0
   48.6320   30.1800   44.1490 C   0  0  0  0  0  0  0  0  0  0  0  0
   48.0060   29.4900   44.7920 H   0  0  0  0  0  0  0  0  0  0  0  0
   48.9370   31.0050   44.7900 H   0  0  0  0  0  0  0  0  0  0  0  0
   49.4670   29.5040   43.8200 H   0  0  0  0  0  0  0  0  0  0  0  0
  1 21  1  0  0  0  0
  1  6  1  0  0  0  0
  2  3  1  0  0  0  0
  2  1  2  0  0  0  0
  3  4  2  0  0  0  0
  4  5  1  0  0  0  0
  5  8  1  0  0  0  0
  6  5  2  0  0  0  0
  7  3  1  0  0  0  0
  9 10  1  0  0  0  0
 10 11  2  0  0  0  0
 10  2  1  0  0  0  0
 11 12  1  0  0  0  0
 13 14  1  0  0  0  0
 13 11  1  0  0  0  0
 14 20  1  0  0  0  0
 15 14  1  0  0  0  0
 16 15  1  0  0  0  0
 17 18  1  0  0  0  0
 17 15  2  0  0  0  0
 18 13  2  0  0  0  0
 19 18  1  0  0  0  0
 19  9  2  0  0  0  0
 21 23  1  0  0  0  0
 21 24  1  0  0  0  0
 22 21  1  0  0  0  0
 24 26  1  0  0  0  0
 24 25  1  0  0  0  0
 27 24  1  0  0  0  0
M  END
>  <minimizedAffinity>
-3.58869863

>  <minimizedRMSD>
5.01062822

$$$$
