REMARK  Name = 
REMARK  4 active torsions:
REMARK  status: ('A' for Active; 'I' for Inactive)
REMARK    1  A    between atoms: C_1  and  O_11
REMARK    2  A    between atoms: C_2  and  C_7
REMARK    3  A    between atoms: C_5  and  C_18
REMARK    4  A    between atoms: O_11  and  C_12
REMARK                            x       y       z     vdW  Elec       q    Type
REMARK                         _______ _______ _______ _____ _____    ______ ____
ROOT
ATOM      1  C   UNL     1      47.088  34.385  43.093  0.00  0.00    +0.000 A 
ATOM      2  C   UNL     1      45.775  34.602  43.502  0.00  0.00    +0.000 A 
ATOM      3  C   UNL     1      45.261  33.765  44.504  0.00  0.00    +0.000 A 
ATOM      4  N   UNL     1      46.058  32.802  45.015  0.00  0.00    +0.000 NA
ATOM      5  C   UNL     1      47.327  32.625  44.590  0.00  0.00    +0.000 A 
ATOM      6  N   UNL     1      47.847  33.405  43.637  0.00  0.00    +0.000 NA
ATOM      7  H   UNL     1      44.247  33.930  44.822  0.00  0.00    +0.000 HD
ENDROOT
BRANCH   5   9
ATOM      8  C   UNL     1      48.598  30.492  44.477  0.00  0.00    +0.000 A 
ATOM      9  C   UNL     1      48.084  31.549  45.222  0.00  0.00    +0.000 A 
ATOM     10  C   UNL     1      48.297  31.578  46.575  0.00  0.00    +0.000 A 
ATOM     11  H   UNL     1      47.911  32.386  47.185  0.00  0.00    +0.000 HD
ATOM     12  C   UNL     1      49.015  30.553  47.158  0.00  0.00    +0.000 A 
ATOM     13  N   UNL     1      49.332  30.397  48.471  0.00  0.00    +0.000 N 
ATOM     14  C   UNL     1      50.041  29.234  48.503  0.00  0.00    +0.000 A 
ATOM     15  H   UNL     1      50.414  28.888  49.467  0.00  0.00    +0.000 HD
ATOM     16  N   UNL     1      50.149  28.710  47.270  0.00  0.00    +0.000 NA
ATOM     17  C   UNL     1      49.515  29.514  46.398  0.00  0.00    +0.000 A 
ATOM     18  C   UNL     1      49.326  29.445  45.034  0.00  0.00    +0.000 A 
ATOM     19  H   UNL     1      49.081  31.034  49.261  0.00  0.00    +0.000 HD
ENDBRANCH   5   9
BRANCH   2  20
ATOM     20  C   UNL     1      44.983  35.684  42.880  0.00  0.00    +0.000 C 
ATOM     21  F   UNL     1      45.621  36.899  43.065  0.00  0.00    +0.000 F 
ATOM     22  F   UNL     1      44.952  35.472  41.509  0.00  0.00    +0.000 F 
ATOM     23  F   UNL     1      43.719  35.801  43.342  0.00  0.00    +0.000 F 
ENDBRANCH   2  20
BRANCH   1  24
ATOM     24  O   UNL     1      47.577  35.200  42.123  0.00  0.00    +0.000 OA
BRANCH  24  25
ATOM     25  C   UNL     1      48.874  35.184  41.579  0.00  0.00    +0.000 C 
ATOM     26  F   UNL     1      49.765  35.492  42.610  0.00  0.00    +0.000 F 
ATOM     27  F   UNL     1      49.131  33.977  41.010  0.00  0.00    +0.000 F 
ATOM     28  F   UNL     1      49.010  36.225  40.669  0.00  0.00    +0.000 F 
ENDBRANCH  24  25
ENDBRANCH   1  24
TORSDOF 4
