
 OpenBabel03252508323D

 35 38  0  0  1  0  0  0  0  0999 V2000
   43.9020   34.1820   41.4550 N   0  0  0  0  0  0  0  0  0  0  0  0
   43.6240   32.8930   40.9110 C   0  0  2  0  0  0  0  0  0  0  0  0
   43.2000   32.9670   39.4630 C   0  0  0  0  0  0  0  0  0  0  0  0
   42.1370   33.9040   39.2670 N   0  0  0  0  0  0  0  0  0  0  0  0
   42.3370   35.1640   39.8710 C   0  0  0  0  0  0  0  0  0  0  0  0
   43.6780   35.2970   40.5580 C   0  0  0  0  0  0  0  0  0  0  0  0
   44.5780   32.3110   40.9340 H   0  0  0  0  0  0  0  0  0  0  0  0
   44.0790   33.3160   38.8840 H   0  0  0  0  0  0  0  0  0  0  0  0
   42.9040   31.9900   39.0850 H   0  0  0  0  0  0  0  0  0  0  0  0
   41.2520   33.4780   39.6390 H   0  0  0  0  0  0  0  0  0  0  0  0
   41.5650   35.4920   40.5950 H   0  0  0  0  0  0  0  0  0  0  0  0
   42.3460   35.9270   39.0470 H   0  0  0  0  0  0  0  0  0  0  0  0
   44.4380   35.1640   39.7350 H   0  0  0  0  0  0  0  0  0  0  0  0
   43.7070   36.2820   41.0000 H   0  0  0  0  0  0  0  0  0  0  0  0
   41.2680   32.4090   41.6510 C   0  0  0  0  0  3  0  0  0  0  0  0
   42.6130   32.0910   41.6050 C   0  0  0  0  0  0  0  0  0  0  0  0
   42.8750   30.8960   42.2900 C   0  0  0  0  0  0  0  0  0  0  0  0
   43.9190   30.5510   42.3150 H   0  0  0  0  0  0  0  0  0  0  0  0
   41.9470   30.1180   42.9310 C   0  0  0  0  0  0  0  0  0  0  0  0
   42.0690   28.9660   43.6130 N   0  0  0  0  0  0  0  0  0  0  0  0
   40.8370   28.6320   44.0360 C   0  0  0  0  0  0  0  0  0  0  0  0
   40.6920   27.7130   44.6250 H   0  0  0  0  0  0  0  0  0  0  0  0
   39.9760   29.5710   43.6170 N   0  0  0  0  0  0  0  0  0  0  0  0
   40.6320   30.5100   42.9250 C   0  0  0  0  0  0  0  0  0  0  0  0
   40.2810   31.6760   42.2750 C   0  0  0  0  0  3  0  0  0  0  0  0
   42.9670   28.4380   43.7770 H   0  0  0  0  0  0  0  0  0  0  0  0
   44.0840   35.4500   43.5010 C   0  0  0  0  0  0  0  0  0  0  0  0
   44.3670   34.2900   42.7950 C   0  0  0  0  0  0  0  0  0  0  0  0
   45.0790   33.3080   43.4490 C   0  0  0  0  0  0  0  0  0  0  0  0
   45.4670   33.5070   44.7270 N   0  0  0  0  0  0  0  0  0  0  0  0
   45.1790   34.6410   45.3920 C   0  0  0  0  0  0  0  0  0  0  0  0
   44.4940   35.5960   44.7750 N   0  0  0  0  0  0  0  0  0  0  0  0
   43.5430   36.3110   43.1490 H   0  0  0  0  0  0  0  0  0  0  0  0
   45.3300   32.3990   42.9460 H   0  0  0  0  0  0  0  0  0  0  0  0
   45.5570   34.6530   46.4100 H   0  0  0  0  0  0  0  0  0  0  0  0
  1 28  1  0  0  0  0
  2  7  1  1  0  0  0
  2  1  1  0  0  0  0
  2 16  1  0  0  0  0
  3  2  1  0  0  0  0
  4  3  1  0  0  0  0
  4 10  1  0  0  0  0
  4  5  1  0  0  0  0
  5  6  1  0  0  0  0
  5 11  1  0  0  0  0
  6 14  1  0  0  0  0
  6  1  1  0  0  0  0
  8  3  1  0  0  0  0
  9  3  1  0  0  0  0
 12  5  1  0  0  0  0
 13  6  1  0  0  0  0
 15 25  1  0  0  0  0
 16 15  2  0  0  0  0
 16 17  1  0  0  0  0
 17 18  1  0  0  0  0
 17 19  2  0  0  0  0
 19 20  1  0  0  0  0
 20 26  1  0  0  0  0
 20 21  1  0  0  0  0
 21 22  1  0  0  0  0
 23 21  2  0  0  0  0
 24 19  1  0  0  0  0
 24 23  1  0  0  0  0
 25 24  2  0  0  0  0
 27 32  1  0  0  0  0
 28 29  1  0  0  0  0
 28 27  2  0  0  0  0
 29 30  2  0  0  0  0
 30 31  1  0  0  0  0
 31 35  1  0  0  0  0
 32 31  2  0  0  0  0
 33 27  1  0  0  0  0
 34 29  1  0  0  0  0
M  END
>  <minimizedAffinity>
-4.62564707

>  <minimizedRMSD>
1.53344047

$$$$
