
 OpenBabel03252500103D

 34 37  0  0  0  0  0  0  0  0999 V2000
   45.8840   32.2370   40.6730 Cl  0  0  0  0  0  0  0  0  0  0  0  0
   47.0550   33.4670   40.3490 C   0  0  0  0  0  0  0  0  0  0  0  0
   47.5040   34.2850   41.3580 C   0  0  0  0  0  0  0  0  0  0  0  0
   48.4520   35.2910   41.1250 C   0  0  0  0  0  0  0  0  0  0  0  0
   48.9090   35.4120   39.8280 C   0  0  0  0  0  0  0  0  0  0  0  0
   48.4590   34.5930   38.8210 C   0  0  0  0  0  0  0  0  0  0  0  0
   47.5430   33.6300   39.0720 C   0  0  0  0  0  0  0  0  0  0  0  0
   48.7460   35.8800   41.9640 H   0  0  0  0  0  0  0  0  0  0  0  0
   49.6430   36.2060   39.6990 H   0  0  0  0  0  0  0  0  0  0  0  0
   48.8920   34.7870   37.8520 H   0  0  0  0  0  0  0  0  0  0  0  0
   47.5800   31.5080   37.7870 C   0  0  0  0  0  0  0  0  0  0  0  0
   47.1240   32.8080   37.9420 C   0  0  0  0  0  0  0  0  0  0  0  0
   46.2540   33.2960   36.9830 C   0  0  0  0  0  0  0  0  0  0  0  0
   45.8580   34.2820   37.0260 H   0  0  0  0  0  0  0  0  0  0  0  0
   45.8310   32.5570   35.8990 C   0  0  0  0  0  0  0  0  0  0  0  0
   45.0060   32.8030   34.8540 N   0  0  0  0  0  0  0  0  0  0  0  0
   44.9440   31.7090   34.0720 C   0  0  0  0  0  0  0  0  0  0  0  0
   44.3270   31.7080   33.1720 H   0  0  0  0  0  0  0  0  0  0  0  0
   45.7400   30.7550   34.6310 N   0  0  0  0  0  0  0  0  0  0  0  0
   46.2970   31.2530   35.7560 C   0  0  0  0  0  0  0  0  0  0  0  0
   47.1650   30.7480   36.7020 C   0  0  0  0  0  0  0  0  0  0  0  0
   44.5060   33.7220   34.7040 H   0  0  0  0  0  0  0  0  0  0  0  0
   46.9400   32.9310   44.7360 C   0  0  0  0  0  0  0  0  0  0  0  0
   45.9660   33.8110   45.2530 C   0  0  0  0  0  0  0  0  0  0  0  0
   45.5270   34.8420   44.4420 C   0  0  0  0  0  0  0  0  0  0  0  0
   46.0390   34.9720   43.1900 N   0  0  0  0  0  0  0  0  0  0  0  0
   46.9810   34.1060   42.7110 C   0  0  0  0  0  0  0  0  0  0  0  0
   47.4220   33.0940   43.4920 N   0  0  0  0  0  0  0  0  0  0  0  0
   47.2770   32.1260   45.3830 H   0  0  0  0  0  0  0  0  0  0  0  0
   45.5430   33.7400   46.2280 H   0  0  0  0  0  0  0  0  0  0  0  0
   44.4950   35.8440   44.8780 C   0  0  0  0  0  0  0  0  0  0  0  0
   44.9450   37.1290   44.6710 F   0  0  0  0  0  0  0  0  0  0  0  0
   43.3360   35.6460   44.1400 F   0  0  0  0  0  0  0  0  0  0  0  0
   44.2670   35.6220   46.2110 F   0  0  0  0  0  0  0  0  0  0  0  0
  2  1  1  0  0  0  0
  2  3  1  0  0  0  0
  3 27  1  0  0  0  0
  4  3  2  0  0  0  0
  4  8  1  0  0  0  0
  5  4  1  0  0  0  0
  6  7  1  0  0  0  0
  6  5  2  0  0  0  0
  7  2  2  0  0  0  0
  9  5  1  0  0  0  0
 10  6  1  0  0  0  0
 11 12  1  0  0  0  0
 12  7  1  0  0  0  0
 13 14  1  0  0  0  0
 13 12  2  0  0  0  0
 15 13  1  0  0  0  0
 16 15  1  0  0  0  0
 17 19  2  0  0  0  0
 17 16  1  0  0  0  0
 18 17  1  0  0  0  0
 19 20  1  0  0  0  0
 20 15  2  0  0  0  0
 20 21  1  0  0  0  0
 21 11  2  0  0  0  0
 22 16  1  0  0  0  0
 23 24  1  0  0  0  0
 23 29  1  0  0  0  0
 24 30  1  0  0  0  0
 25 31  1  0  0  0  0
 25 24  2  0  0  0  0
 26 25  1  0  0  0  0
 27 26  2  0  0  0  0
 27 28  1  0  0  0  0
 28 23  2  0  0  0  0
 31 34  1  0  0  0  0
 32 31  1  0  0  0  0
 33 31  1  0  0  0  0
M  END
>  <minimizedAffinity>
-6.55875015

>  <minimizedRMSD>
2.01684952

$$$$
