
     RDKit          3D

 30 32  0  0  0  0  0  0  0  0999 V2000
   47.0881   34.3850   43.0934 C   0  0  0  0  0  0  0  0  0  0  0  0
   45.7752   34.6018   43.5020 C   0  0  0  0  0  0  0  0  0  0  0  0
   45.2612   33.7650   44.5035 C   0  0  0  0  0  0  0  0  0  0  0  0
   46.0578   32.8022   45.0146 N   0  0  0  0  0  0  0  0  0  0  0  0
   47.3267   32.6248   44.5903 C   0  0  0  0  0  0  0  0  0  0  0  0
   47.8471   33.4051   43.6374 N   0  0  0  0  0  0  0  0  0  0  0  0
   44.9830   35.6841   42.8799 C   0  0  0  0  0  0  0  0  0  0  0  0
   45.6213   36.8991   43.0653 F   0  0  0  0  0  0  0  0  0  0  0  0
   44.9521   35.4725   41.5092 F   0  0  0  0  0  0  0  0  0  0  0  0
   43.7195   35.8006   43.3418 F   0  0  0  0  0  0  0  0  0  0  0  0
   47.5768   35.1999   42.1235 O   0  0  0  0  0  0  0  0  0  0  0  0
   48.8745   35.1835   41.5792 C   0  0  0  0  0  0  0  0  0  0  0  0
   49.7647   35.4917   42.6099 F   0  0  0  0  0  0  0  0  0  0  0  0
   49.1312   33.9775   41.0095 F   0  0  0  0  0  0  0  0  0  0  0  0
   49.0099   36.2254   40.6694 F   0  0  0  0  0  0  0  0  0  0  0  0
   44.2468   33.9300   44.8216 H   0  0  0  0  0  0  0  0  0  0  0  0
   49.2694   31.0766   44.6658 C   0  0  0  0  0  0  0  0  0  0  0  0
   48.0844   31.5493   45.2222 C   0  0  0  0  0  0  0  0  0  0  0  0
   47.6234   30.9919   46.3855 C   0  0  0  0  0  0  0  0  0  0  0  0
   46.7043   31.3368   46.8447 H   0  0  0  0  0  0  0  0  0  0  0  0
   48.3516   29.9750   46.9712 C   0  0  0  0  0  0  0  0  0  0  0  0
   48.0682   29.2973   48.1144 N   0  0  0  0  0  0  0  0  0  0  0  0
   49.0968   28.4129   48.2371 C   0  0  0  0  0  0  0  0  0  0  0  0
   49.0960   27.7414   49.0953 H   0  0  0  0  0  0  0  0  0  0  0  0
   49.9626   28.5472   47.2178 N   0  0  0  0  0  0  0  0  0  0  0  0
   49.5244   29.5225   46.4012 C   0  0  0  0  0  0  0  0  0  0  0  0
   50.0259   30.0539   45.2314 C   0  0  0  0  0  0  0  0  0  0  0  0
   49.6434   31.5046   43.7529 H   0  0  0  0  0  0  0  0  0  0  0  0
   47.2444   29.4360   48.7437 H   0  0  0  0  0  0  0  0  0  0  0  0
   50.9325   29.6873   44.8122 H   0  0  0  0  0  0  0  0  0  0  0  0
  1  2  2  0
  1  6  1  0
  2  3  1  0
  3  4  2  0
  5  4  1  0
  6  5  2  0
  7  8  1  0
  7 10  1  0
  7  2  1  0
  9  7  1  0
 11  1  1  0
 12 11  1  0
 12 13  1  0
 14 12  1  0
 15 12  1  0
  3 16  1  0
 17 18  2  0
 18 19  1  0
 19 20  1  0
 19 21  2  0
 21 22  1  0
 22 23  1  0
 23 24  1  0
 23 25  2  0
 25 26  1  0
 26 27  2  0
 27 17  1  0
 26 21  1  0
 17 28  1  0
 22 29  1  0
 27 30  1  0
  5 18  1  0
M  ISO  3  16  14  20  15  24  14
M  END
>  <DihAtoms>  (1) 
3,4,17,16

>  <DihDeg>  (1) 
-179.99918822821093

$$$$
