
     RDKit          3D

 49 53  0  0  0  0  0  0  0  0999 V2000
   46.0211   35.7244   42.8293 C   0  0  0  0  0  0  0  0  0  0  0  0
   46.3914   34.4815   43.3906 C   0  0  0  0  0  0  0  0  0  0  0  0
   45.7742   34.0497   44.5504 C   0  0  0  0  0  0  0  0  0  0  0  0
   44.8332   34.8393   45.1068 N   0  0  0  0  0  0  0  0  0  0  0  0
   44.4690   36.0364   44.5759 C   0  0  0  0  0  0  0  0  0  0  0  0
   45.0722   36.4563   43.4443 N   0  0  0  0  0  0  0  0  0  0  0  0
   46.1717   32.7750   45.1117 C   0  0  0  0  0  0  0  0  0  0  0  0
   45.7911   31.6144   44.5056 C   0  0  0  0  0  0  0  0  0  0  0  0
   46.1780   30.4086   45.0536 C   0  0  0  0  0  0  0  0  0  0  0  0
   46.9455   30.3203   46.2070 C   0  0  0  0  0  0  0  0  0  0  0  0
   47.3037   31.5371   46.7812 C   0  0  0  0  0  0  0  0  0  0  0  0
   46.9098   32.6927   46.2210 N   0  0  0  0  0  0  0  0  0  0  0  0
   47.4113   33.7085   42.7193 C   0  0  0  0  0  0  0  0  0  0  0  0
   48.5032   33.5343   43.3253 O   0  0  0  0  0  0  0  0  0  0  0  0
   47.1147   33.1920   41.4112 N   0  0  0  0  0  0  0  0  0  0  0  0
   45.9311   32.5282   40.8982 C   0  0  0  0  0  0  0  0  0  0  0  0
   45.4820   33.2403   39.6083 C   0  0  0  0  0  0  0  0  0  0  0  0
   46.5544   33.0959   38.5539 C   0  0  0  0  0  0  0  0  0  0  0  0
   47.8235   32.5893   39.1809 C   0  0  0  0  0  0  0  0  0  0  0  0
   48.1669   33.3627   40.4306 C   0  0  2  0  0  0  0  0  0  0  0  0
   46.4848   36.0911   41.9225 H   0  0  0  0  0  0  0  0  0  0  0  0
   43.7161   36.6571   45.0304 H   0  0  0  0  0  0  0  0  0  0  0  0
   45.1963   31.5180   43.6145 H   0  0  0  0  0  0  0  0  0  0  0  0
   45.9077   29.4556   44.6194 H   0  0  0  0  0  0  0  0  0  0  0  0
   47.2705   29.4035   46.6702 H   0  0  0  0  0  0  0  0  0  0  0  0
   47.9062   31.6135   47.6907 H   0  0  0  0  0  0  0  0  0  0  0  0
   45.0808   32.7413   41.6087 H   0  0  0  0  0  0  0  0  0  0  0  0
   46.0345   31.4553   40.7438 H   0  0  0  0  0  0  0  0  0  0  0  0
   44.5266   32.7621   39.3038 H   0  0  0  0  0  0  0  0  0  0  0  0
   45.3498   34.3105   39.8991 H   0  0  0  0  0  0  0  0  0  0  0  0
   46.8033   34.1154   38.1528 H   0  0  0  0  0  0  0  0  0  0  0  0
   46.2754   32.4102   37.7324 H   0  0  0  0  0  0  0  0  0  0  0  0
   47.7131   31.5069   39.4006 H   0  0  0  0  0  0  0  0  0  0  0  0
   48.6845   32.7209   38.4961 H   0  0  0  0  0  0  0  0  0  0  0  0
   48.1664   34.4355   40.1525 H   0  0  0  0  0  0  0  0  0  0  0  0
   49.8269   32.5170   42.1782 C   0  0  0  0  0  0  0  0  0  0  0  0
   49.5143   33.0088   40.9287 C   0  0  0  0  0  0  0  0  0  0  0  0
   50.6273   33.1654   40.0971 C   0  0  0  0  0  0  0  0  0  0  0  0
   50.4174   33.5559   39.0912 H   0  0  0  0  0  0  0  0  0  0  0  0
   51.9315   32.8758   40.4322 C   0  0  0  0  0  0  0  0  0  0  0  0
   53.0698   32.9833   39.7271 N   0  0  0  0  0  0  0  0  0  0  0  0
   54.0484   32.5614   40.5452 C   0  0  0  0  0  0  0  0  0  0  0  0
   55.0918   32.5331   40.2503 H   0  0  0  0  0  0  0  0  0  0  0  0
   53.5151   32.1966   41.7459 N   0  0  0  0  0  0  0  0  0  0  0  0
   52.1764   32.3877   41.6957 C   0  0  0  0  0  0  0  0  0  0  0  0
   51.1147   32.2133   42.5581 C   0  0  0  0  0  0  0  0  0  0  0  0
   48.9856   32.3793   42.8603 H   0  0  0  0  0  0  0  0  0  0  0  0
   53.1243   33.3357   38.7321 H   0  0  0  0  0  0  0  0  0  0  0  0
   51.3158   31.8297   43.5482 H   0  0  0  0  0  0  0  0  0  0  0  0
  1  2  2  0
  1  6  1  0
  2  3  1  0
  3  7  1  0
  3  4  2  0
  5  4  1  0
  6  5  2  0
  7 12  2  0
  8  9  2  0
  8  7  1  0
  9 10  1  0
 10 11  2  0
 12 11  1  0
 13 14  2  0
 13  2  1  0
 15 13  1  0
 16 15  1  0
 17 16  1  0
 18 19  1  0
 18 17  1  0
 19 20  1  0
 20 15  1  0
  1 21  1  0
  5 22  1  0
  8 23  1  0
  9 24  1  0
 10 25  1  0
 11 26  1  0
 16 27  1  0
 16 28  1  0
 17 29  1  0
 17 30  1  0
 18 31  1  0
 18 32  1  0
 19 33  1  0
 19 34  1  0
 20 35  1  6
 36 37  2  0
 37 38  1  0
 38 39  1  0
 38 40  2  0
 40 41  1  0
 41 42  1  0
 42 43  1  0
 42 44  2  0
 44 45  1  0
 45 46  2  0
 46 36  1  0
 45 40  1  0
 36 47  1  0
 41 48  1  0
 46 49  1  0
 20 37  1  0
M  ISO  8  21  14  22  14  23  14  24  14  25  14  26  14  27  13  28  13
M  ISO  8  29  13  30  13  31  13  32  13  33  13  34  13  35  13  39  15
M  ISO  1  43  14
M  END
>  <DihAtoms>  (1) 
18,19,36,35

>  <DihDeg>  (1) 
-77.56509917791496

$$$$
