
 OpenBabel03252508173D

 50 55  0  0  1  0  0  0  0  0999 V2000
   46.7600   31.6140   48.2930 C   0  0  1  0  0  0  0  0  0  0  0  0
   46.3060   30.5700   49.2550 C   0  0  0  0  0  0  0  0  0  0  0  0
   47.5800   31.2450   49.4630 C   0  0  1  0  0  0  0  0  0  0  0  0
   46.0190   32.4650   48.2970 H   0  0  0  0  0  0  0  0  0  0  0  0
   46.3760   29.4930   48.9540 H   0  0  0  0  0  0  0  0  0  0  0  0
   45.4740   30.7360   49.9660 H   0  0  0  0  0  0  0  0  0  0  0  0
   47.6050   31.9940   50.2830 H   0  0  0  0  0  0  0  0  0  0  0  0
   48.8950   30.5720   49.2180 C   0  0  2  0  0  0  0  0  0  0  0  0
   49.6240   30.1670   50.5240 C   0  0  0  0  0  0  0  0  0  0  0  0
   50.1470   31.2840   49.7200 C   0  0  1  0  0  0  0  0  0  0  0  0
   49.0090   29.7780   48.4690 H   0  0  0  0  0  0  0  0  0  0  0  0
   49.1450   30.4230   51.4890 H   0  0  0  0  0  0  0  0  0  0  0  0
   50.2110   29.2550   50.5660 H   0  0  0  0  0  0  0  0  0  0  0  0
   49.9830   32.3140   50.1080 H   0  0  0  0  0  0  0  0  0  0  0  0
   52.4740   31.9770   49.1550 C   0  0  0  0  0  3  0  0  0  0  0  0
   51.4260   31.0910   49.0300 C   0  0  0  0  0  0  0  0  0  0  0  0
   51.6550   29.9870   48.2030 C   0  0  0  0  0  0  0  0  0  0  0  0
   50.8080   29.2890   48.1150 H   0  0  0  0  0  0  0  0  0  0  0  0
   52.8290   29.7430   47.5280 C   0  0  0  0  0  0  0  0  0  0  0  0
   53.1780   28.7270   46.7030 N   0  0  0  0  0  0  0  0  0  0  0  0
   54.4280   28.9980   46.3350 C   0  0  0  0  0  0  0  0  0  0  0  0
   54.9890   28.3680   45.6720 H   0  0  0  0  0  0  0  0  0  0  0  0
   54.8640   30.1580   46.9070 N   0  0  0  0  0  0  0  0  0  0  0  0
   53.8650   30.6430   47.6660 C   0  0  0  0  0  0  0  0  0  0  0  0
   53.6650   31.7470   48.4810 C   0  0  0  0  0  3  0  0  0  0  0  0
   52.5960   27.8960   46.4120 H   0  0  0  0  0  0  0  0  0  0  0  0
   47.1150   31.1070   46.9420 C   0  0  0  0  0  0  0  0  0  0  0  0
   48.0950   30.7080   46.7720 H   0  0  0  0  0  0  0  0  0  0  0  0
   46.3730   30.2900   46.7010 H   0  0  0  0  0  0  0  0  0  0  0  0
   46.0250   33.0570   46.1960 C   0  0  0  0  0  3  0  0  0  0  0  0
   46.8660   32.1620   45.8900 C   0  0  0  0  0  3  0  0  0  0  0  0
   44.5300   35.9470   44.4620 C   0  0  0  0  0  0  0  0  0  0  0  0
   45.1810   35.9530   43.2420 C   0  0  0  0  0  0  0  0  0  0  0  0
   46.1090   34.9700   43.0430 C   0  0  0  0  0  0  0  0  0  0  0  0
   46.3440   34.0560   44.0270 N   0  0  0  0  0  0  0  0  0  0  0  0
   45.6920   34.0800   45.2000 C   0  0  0  0  0  0  0  0  0  0  0  0
   44.7940   35.0340   45.3890 N   0  0  0  0  0  0  0  0  0  0  0  0
   43.7910   36.7370   44.6080 H   0  0  0  0  0  0  0  0  0  0  0  0
   45.0300   36.6450   42.4510 H   0  0  0  0  0  0  0  0  0  0  0  0
   46.8750   34.8460   41.8110 C   0  0  0  0  0  0  0  0  0  0  0  0
   48.0800   35.4460   41.5860 C   0  0  0  0  0  0  0  0  0  0  0  0
   48.7970   35.3210   40.4110 C   0  0  0  0  0  0  0  0  0  0  0  0
   48.2960   34.5530   39.3870 C   0  0  0  0  0  0  0  0  0  0  0  0
   47.0900   33.9280   39.5580 C   0  0  0  0  0  0  0  0  0  0  0  0
   46.4240   34.0930   40.7530 C   0  0  0  0  0  0  0  0  0  0  0  0
   48.5180   36.0700   42.3810 H   0  0  0  0  0  0  0  0  0  0  0  0
   49.7490   35.8150   40.2780 H   0  0  0  0  0  0  0  0  0  0  0  0
   48.8140   34.4210   38.4470 H   0  0  0  0  0  0  0  0  0  0  0  0
   46.6820   33.3160   38.7520 H   0  0  0  0  0  0  0  0  0  0  0  0
   45.4640   33.5580   40.8080 H   0  0  0  0  0  0  0  0  0  0  0  0
  1  4  1  1  0  0  0
  1  2  1  0  0  0  0
  1  3  1  0  0  0  0
  2  3  1  0  0  0  0
  2  6  1  0  0  0  0
  3  7  1  1  0  0  0
  5  2  1  0  0  0  0
  8 11  1  6  0  0  0
  8  3  1  0  0  0  0
  8 10  1  0  0  0  0
  8  9  1  0  0  0  0
  9 13  1  0  0  0  0
  9 12  1  0  0  0  0
 10 14  1  1  0  0  0
 10  9  1  0  0  0  0
 16 15  1  0  0  0  0
 16 10  1  0  0  0  0
 17 16  2  0  0  0  0
 18 17  1  0  0  0  0
 19 24  2  0  0  0  0
 19 17  1  0  0  0  0
 20 19  1  0  0  0  0
 21 20  1  0  0  0  0
 21 23  2  0  0  0  0
 22 21  1  0  0  0  0
 23 24  1  0  0  0  0
 24 25  1  0  0  0  0
 25 15  2  0  0  0  0
 26 20  1  0  0  0  0
 27  1  1  0  0  0  0
 28 27  1  0  0  0  0
 29 27  1  0  0  0  0
 31 30  2  0  0  0  0
 31 27  1  0  0  0  0
 32 38  1  0  0  0  0
 32 37  1  0  0  0  0
 33 32  2  0  0  0  0
 34 33  1  0  0  0  0
 34 35  2  0  0  0  0
 35 36  1  0  0  0  0
 36 37  2  0  0  0  0
 36 30  1  0  0  0  0
 39 33  1  0  0  0  0
 40 34  1  0  0  0  0
 41 40  1  0  0  0  0
 41 46  1  0  0  0  0
 42 41  2  0  0  0  0
 43 44  2  0  0  0  0
 43 42  1  0  0  0  0
 44 45  1  0  0  0  0
 45 50  1  0  0  0  0
 45 40  2  0  0  0  0
 47 42  1  0  0  0  0
 48 43  1  0  0  0  0
 49 44  1  0  0  0  0
M  END
>  <minimizedAffinity>
-6.75083685

>  <minimizedRMSD>
0.925328493

$$$$
