
     RDKit          3D

 31 33  0  0  0  0  0  0  0  0999 V2000
   46.5322   33.6253   44.3358 C   0  0  0  0  0  0  0  0  0  0  0  0
   46.2378   33.2055   45.6471 C   0  0  0  0  0  0  0  0  0  0  0  0
   45.2965   33.9030   46.3647 C   0  0  0  0  0  0  0  0  0  0  0  0
   44.6964   34.9642   45.7693 N   0  0  0  0  0  0  0  0  0  0  0  0
   44.9867   35.3513   44.5218 C   0  0  0  0  0  0  0  0  0  0  0  0
   45.8998   34.6901   43.8011 N   0  0  0  0  0  0  0  0  0  0  0  0
   45.0368   33.4641   47.6450 O   0  0  0  0  0  0  0  0  0  0  0  0
   45.3118   30.8687   47.4697 O   0  0  0  0  0  0  0  0  0  0  0  0
   45.8126   32.1018   48.2674 P   0  0  2  0  0  0  0  0  0  0  0  0
   45.3181   31.8226   49.8525 O   0  0  0  0  0  0  0  0  0  0  0  0
   47.4562   32.1893   48.1147 O   0  0  0  0  0  0  0  0  0  0  0  0
   48.4696   31.4179   48.5446 C   0  0  0  0  0  0  0  0  0  0  0  0
   49.2356   32.0383   49.4293 O   0  0  0  0  0  0  0  0  0  0  0  0
   47.2550   33.1458   43.6904 H   0  0  0  0  0  0  0  0  0  0  0  0
   46.8140   32.3593   45.9128 H   0  0  0  0  0  0  0  0  0  0  0  0
   44.4188   36.2229   44.1850 H   0  0  0  0  0  0  0  0  0  0  0  0
   45.7808   32.4720   50.4493 H   0  0  0  0  0  0  0  0  0  0  0  0
   50.4530   29.9628   48.6564 C   0  0  0  0  0  0  0  0  0  0  0  0
   49.1179   30.0706   48.4147 C   0  0  0  0  0  0  0  0  0  0  0  0
   48.4497   28.9166   48.0443 C   0  0  0  0  0  0  0  0  0  0  0  0
   47.3871   29.0693   47.8657 H   0  0  0  0  0  0  0  0  0  0  0  0
   48.9682   27.6597   47.8872 C   0  0  0  0  0  0  0  0  0  0  0  0
   48.4482   26.4775   47.5403 N   0  0  0  0  0  0  0  0  0  0  0  0
   49.5288   25.6463   47.5823 C   0  0  0  0  0  0  0  0  0  0  0  0
   49.5022   24.5735   47.3555 H   0  0  0  0  0  0  0  0  0  0  0  0
   50.6494   26.3075   47.9405 N   0  0  0  0  0  0  0  0  0  0  0  0
   50.3157   27.6142   48.1442 C   0  0  0  0  0  0  0  0  0  0  0  0
   51.0540   28.7048   48.5155 C   0  0  0  0  0  0  0  0  0  0  0  0
   51.1511   30.7208   48.9517 H   0  0  0  0  0  0  0  0  0  0  0  0
   47.4618   26.2475   47.2977 H   0  0  0  0  0  0  0  0  0  0  0  0
   52.1009   28.5697   48.6947 H   0  0  0  0  0  0  0  0  0  0  0  0
  1  2  2  0
  2  3  1  0
  3  7  1  0
  4  3  2  0
  5  4  1  0
  6  1  1  0
  6  5  2  0
  9  7  1  6
  9  8  2  0
  9 10  1  0
 11  9  1  0
 11 12  1  0
 12 13  2  0
  1 14  1  0
  2 15  1  0
  5 16  1  0
 10 17  1  0
 18 19  2  0
 19 20  1  0
 20 21  1  0
 20 22  2  0
 22 23  1  0
 23 24  1  0
 24 25  1  0
 24 26  2  0
 26 27  1  0
 27 28  2  0
 28 18  1  0
 27 22  1  0
 18 29  1  0
 23 30  1  0
 28 31  1  0
 12 19  1  0
M  ISO  6  14  14  15  14  16  14  17   3  21  15  25  14
M  END
>  <DihAtoms>  (1) 
10,11,18,17

>  <DihDeg>  (1) 
-177.78169654894813

$$$$
