
 OpenBabel03242522493D

 29 31  0  0  0  0  0  0  0  0999 V2000
   47.6620   32.1920   48.3260 O   0  0  0  0  0  0  0  0  0  0  0  0
   45.7080   30.5730   47.7650 O   0  0  0  0  0  0  0  0  0  0  0  0
   46.0290   31.9530   48.3960 P   0  0  1  0  0  0  0  0  0  0  0  0
   45.4510   31.8520   49.9740 O   0  0  0  0  0  0  0  0  0  0  0  0
   45.8050   32.6250   50.4930 H   0  0  0  0  0  0  0  0  0  0  0  0
   45.1710   33.1220   47.5340 O   0  0  0  0  0  0  0  0  0  0  0  0
   47.0430   33.1660   44.4190 C   0  0  0  0  0  0  0  0  0  0  0  0
   46.6030   32.8010   45.7050 C   0  0  0  0  0  0  0  0  0  0  0  0
   45.5730   33.5080   46.2740 C   0  0  0  0  0  0  0  0  0  0  0  0
   45.0280   34.5270   45.5620 N   0  0  0  0  0  0  0  0  0  0  0  0
   45.4580   34.8640   44.3410 C   0  0  0  0  0  0  0  0  0  0  0  0
   46.4600   34.1910   43.7640 N   0  0  0  0  0  0  0  0  0  0  0  0
   47.8450   32.6750   43.8860 H   0  0  0  0  0  0  0  0  0  0  0  0
   47.1580   31.9800   46.0770 H   0  0  0  0  0  0  0  0  0  0  0  0
   44.9190   35.7070   43.8980 H   0  0  0  0  0  0  0  0  0  0  0  0
   48.7100   31.6350   48.9590 C   0  0  0  0  0  0  0  0  0  0  0  0
   49.6030   32.5330   49.3430 O   0  0  0  0  0  0  0  0  0  0  0  0
   49.9410   30.3070   50.6260 C   0  0  0  0  0  3  0  0  0  0  0  0
   49.3050   30.3390   49.4240 C   0  0  0  0  0  0  0  0  0  0  0  0
   49.2690   29.1600   48.6980 C   0  0  0  0  0  0  0  0  0  0  0  0
   48.7470   29.2510   47.7480 H   0  0  0  0  0  0  0  0  0  0  0  0
   49.8010   27.9460   49.0430 C   0  0  0  0  0  0  0  0  0  0  0  0
   49.8400   26.7480   48.4500 N   0  0  0  0  0  0  0  0  0  0  0  0
   50.5280   25.9870   49.3490 C   0  0  0  0  0  0  0  0  0  0  0  0
   50.7680   24.9250   49.2150 H   0  0  0  0  0  0  0  0  0  0  0  0
   50.8860   26.7040   50.4340 N   0  0  0  0  0  0  0  0  0  0  0  0
   50.4280   27.9770   50.2630 C   0  0  0  0  0  0  0  0  0  0  0  0
   50.5110   29.0970   51.0450 C   0  0  0  0  0  3  0  0  0  0  0  0
   49.4420   26.4650   47.5290 H   0  0  0  0  0  0  0  0  0  0  0  0
  1  3  1  0  0  0  0
  1 16  1  0  0  0  0
  3  2  2  6  0  0  0
  3  4  1  0  0  0  0
  4  5  1  0  0  0  0
  6  3  1  0  0  0  0
  7  8  1  0  0  0  0
  8 14  1  0  0  0  0
  8  9  2  0  0  0  0
  9  6  1  0  0  0  0
 10  9  1  0  0  0  0
 11 10  2  0  0  0  0
 12 11  1  0  0  0  0
 12  7  2  0  0  0  0
 13  7  1  0  0  0  0
 15 11  1  0  0  0  0
 16 17  2  0  0  0  0
 16 19  1  0  0  0  0
 18 28  1  0  0  0  0
 19 18  2  0  0  0  0
 20 22  2  0  0  0  0
 20 19  1  0  0  0  0
 21 20  1  0  0  0  0
 22 27  1  0  0  0  0
 23 22  1  0  0  0  0
 23 24  1  0  0  0  0
 24 26  2  0  0  0  0
 25 24  1  0  0  0  0
 27 26  1  0  0  0  0
 27 28  2  0  0  0  0
 29 23  1  0  0  0  0
M  END
>  <minimizedAffinity>
-5.25161457

>  <minimizedRMSD>
1.35942578

$$$$
