
 OpenBabel03242522503D

 29 31  0  0  0  0  0  0  0  0999 V2000
   47.6620   32.1930   48.3230 O   0  0  0  0  0  0  0  0  0  0  0  0
   45.7070   30.5750   47.7620 O   0  0  0  0  0  0  0  0  0  0  0  0
   46.0280   31.9540   48.3940 P   0  0  1  0  0  0  0  0  0  0  0  0
   45.4510   31.8520   49.9730 O   0  0  0  0  0  0  0  0  0  0  0  0
   45.8060   32.6250   50.4920 H   0  0  0  0  0  0  0  0  0  0  0  0
   45.1710   33.1240   47.5340 O   0  0  0  0  0  0  0  0  0  0  0  0
   47.0410   33.1710   44.4180 C   0  0  0  0  0  0  0  0  0  0  0  0
   46.6020   32.8040   45.7040 C   0  0  0  0  0  0  0  0  0  0  0  0
   45.5710   33.5110   46.2740 C   0  0  0  0  0  0  0  0  0  0  0  0
   45.0260   34.5300   45.5620 N   0  0  0  0  0  0  0  0  0  0  0  0
   45.4550   34.8670   44.3410 C   0  0  0  0  0  0  0  0  0  0  0  0
   46.4580   34.1960   43.7630 N   0  0  0  0  0  0  0  0  0  0  0  0
   47.8430   32.6800   43.8840 H   0  0  0  0  0  0  0  0  0  0  0  0
   47.1580   31.9840   46.0760 H   0  0  0  0  0  0  0  0  0  0  0  0
   44.9150   35.7100   43.8990 H   0  0  0  0  0  0  0  0  0  0  0  0
   48.7090   31.6370   48.9580 C   0  0  0  0  0  0  0  0  0  0  0  0
   49.6020   32.5360   49.3420 O   0  0  0  0  0  0  0  0  0  0  0  0
   49.9410   30.3100   50.6260 C   0  0  0  0  0  3  0  0  0  0  0  0
   49.3050   30.3410   49.4240 C   0  0  0  0  0  0  0  0  0  0  0  0
   49.2700   29.1620   48.7000 C   0  0  0  0  0  0  0  0  0  0  0  0
   48.7480   29.2520   47.7490 H   0  0  0  0  0  0  0  0  0  0  0  0
   49.8020   27.9490   49.0440 C   0  0  0  0  0  0  0  0  0  0  0  0
   49.8410   26.7500   48.4520 N   0  0  0  0  0  0  0  0  0  0  0  0
   50.5310   25.9900   49.3510 C   0  0  0  0  0  0  0  0  0  0  0  0
   50.7700   24.9280   49.2190 H   0  0  0  0  0  0  0  0  0  0  0  0
   50.8870   26.7080   50.4370 N   0  0  0  0  0  0  0  0  0  0  0  0
   50.4280   27.9800   50.2650 C   0  0  0  0  0  0  0  0  0  0  0  0
   50.5110   29.1010   51.0460 C   0  0  0  0  0  3  0  0  0  0  0  0
   49.4440   26.4670   47.5320 H   0  0  0  0  0  0  0  0  0  0  0  0
  1  3  1  0  0  0  0
  1 16  1  0  0  0  0
  3  2  2  6  0  0  0
  3  4  1  0  0  0  0
  4  5  1  0  0  0  0
  6  3  1  0  0  0  0
  7  8  1  0  0  0  0
  8 14  1  0  0  0  0
  8  9  2  0  0  0  0
  9  6  1  0  0  0  0
 10  9  1  0  0  0  0
 11 10  2  0  0  0  0
 12 11  1  0  0  0  0
 12  7  2  0  0  0  0
 13  7  1  0  0  0  0
 15 11  1  0  0  0  0
 16 17  2  0  0  0  0
 16 19  1  0  0  0  0
 18 28  1  0  0  0  0
 19 18  2  0  0  0  0
 20 22  2  0  0  0  0
 20 19  1  0  0  0  0
 21 20  1  0  0  0  0
 22 27  1  0  0  0  0
 23 22  1  0  0  0  0
 23 24  1  0  0  0  0
 24 26  2  0  0  0  0
 25 24  1  0  0  0  0
 27 26  1  0  0  0  0
 27 28  2  0  0  0  0
 29 23  1  0  0  0  0
M  END
>  <minimizedAffinity>
-5.25314045

>  <minimizedRMSD>
1.43403244

$$$$
