REMARK  Name = 
REMARK  6 active torsions:
REMARK  status: ('A' for Active; 'I' for Inactive)
REMARK    1  A    between atoms: C_3  and  O_7
REMARK    2  A    between atoms: O_7  and  P_9
REMARK    3  A    between atoms: P_9  and  O_10
REMARK    4  A    between atoms: P_9  and  O_11
REMARK    5  A    between atoms: O_11  and  C_12
REMARK    6  A    between atoms: C_12  and  C_19
REMARK                            x       y       z     vdW  Elec       q    Type
REMARK                         _______ _______ _______ _____ _____    ______ ____
ROOT
ATOM      1  O   UNL     1      47.456  32.189  48.115  0.00  0.00    +0.000 OA
ENDROOT
BRANCH   1   3
ATOM      2  O   UNL     1      45.312  30.869  47.470  0.00  0.00    +0.000 OA
ATOM      3  P   UNL     1      45.813  32.102  48.267  0.00  0.00    +0.000 P 
BRANCH   3   4
ATOM      4  O   UNL     1      45.318  31.823  49.852  0.00  0.00    +0.000 OA
ATOM      5  H   UNL     1      45.781  32.472  50.449  0.00  0.00    +0.000 HD
ENDBRANCH   3   4
BRANCH   3   6
ATOM      6  O   UNL     1      45.037  33.464  47.645  0.00  0.00    +0.000 OA
BRANCH   6   9
ATOM      7  C   UNL     1      46.532  33.625  44.336  0.00  0.00    +0.000 A 
ATOM      8  C   UNL     1      46.238  33.206  45.647  0.00  0.00    +0.000 A 
ATOM      9  C   UNL     1      45.297  33.903  46.365  0.00  0.00    +0.000 A 
ATOM     10  N   UNL     1      44.696  34.964  45.769  0.00  0.00    +0.000 NA
ATOM     11  C   UNL     1      44.987  35.351  44.522  0.00  0.00    +0.000 A 
ATOM     12  N   UNL     1      45.900  34.690  43.801  0.00  0.00    +0.000 NA
ATOM     13  H   UNL     1      47.255  33.146  43.690  0.00  0.00    +0.000 HD
ATOM     14  H   UNL     1      46.814  32.359  45.913  0.00  0.00    +0.000 HD
ATOM     15  H   UNL     1      44.419  36.223  44.185  0.00  0.00    +0.000 HD
ENDBRANCH   6   9
ENDBRANCH   3   6
ENDBRANCH   1   3
BRANCH   1  16
ATOM     16  C   UNL     1      48.470  31.418  48.545  0.00  0.00    +0.000 C 
ATOM     17  O   UNL     1      49.236  32.038  49.429  0.00  0.00    +0.000 OA
BRANCH  16  19
ATOM     18  C   UNL     1      49.173  29.265  49.510  0.00  0.00    +0.000 A 
ATOM     19  C   UNL     1      49.118  30.071  48.415  0.00  0.00    +0.000 A 
ATOM     20  C   UNL     1      49.687  29.589  47.249  0.00  0.00    +0.000 A 
ATOM     21  H   UNL     1      49.610  30.279  46.411  0.00  0.00    +0.000 HD
ATOM     22  C   UNL     1      50.309  28.386  47.053  0.00  0.00    +0.000 A 
ATOM     23  N   UNL     1      50.893  27.802  46.001  0.00  0.00    +0.000 N 
ATOM     24  C   UNL     1      51.306  26.605  46.507  0.00  0.00    +0.000 A 
ATOM     25  H   UNL     1      51.836  25.833  45.936  0.00  0.00    +0.000 HD
ATOM     26  N   UNL     1      50.981  26.479  47.811  0.00  0.00    +0.000 NA
ATOM     27  C   UNL     1      50.334  27.619  48.191  0.00  0.00    +0.000 A 
ATOM     28  C   UNL     1      49.796  28.016  49.385  0.00  0.00    +0.000 A 
ATOM     29  H   UNL     1      51.005  28.171  45.033  0.00  0.00    +0.000 HD
ENDBRANCH  16  19
ENDBRANCH   1  16
TORSDOF 6
