
 OpenBabel03242519413D

 32 34  0  0  0  0  0  0  0  0999 V2000
   48.1040   32.8800   41.5710 O   0  0  0  0  0  0  0  0  0  0  0  0
   47.1690   34.0700   41.2260 P   0  0  2  0  0  0  0  0  0  0  0  0
   45.6180   33.7470   41.8860 O   0  0  0  0  0  0  0  0  0  0  0  0
   44.4120   35.8580   44.6010 C   0  0  0  0  0  0  0  0  0  0  0  0
   44.6910   35.3980   43.2950 C   0  0  0  0  0  0  0  0  0  0  0  0
   45.3570   34.1690   43.1740 C   0  0  0  0  0  0  0  0  0  0  0  0
   45.6890   33.5030   44.2940 N   0  0  0  0  0  0  0  0  0  0  0  0
   45.4050   33.9740   45.5300 C   0  0  0  0  0  0  0  0  0  0  0  0
   44.7720   35.1420   45.6950 N   0  0  0  0  0  0  0  0  0  0  0  0
   43.9010   36.8030   44.6670 H   0  0  0  0  0  0  0  0  0  0  0  0
   44.3910   35.9910   42.4620 H   0  0  0  0  0  0  0  0  0  0  0  0
   45.7200   33.3520   46.3750 H   0  0  0  0  0  0  0  0  0  0  0  0
   47.0180   34.2230   39.5810 O   0  0  0  0  0  0  0  0  0  0  0  0
   47.3660   33.3440   38.5970 C   0  0  0  0  0  0  0  0  0  0  0  0
   48.6980   33.1490   38.3880 O   0  0  0  0  0  0  0  0  0  0  0  0
   47.2780   31.0960   37.6090 C   0  0  0  0  0  3  0  0  0  0  0  0
   46.8910   32.3890   37.5400 C   0  0  0  0  0  0  0  0  0  0  0  0
   46.0410   32.7230   36.4900 C   0  0  0  0  0  0  0  0  0  0  0  0
   45.7670   33.7990   36.4950 H   0  0  0  0  0  0  0  0  0  0  0  0
   45.5250   31.9400   35.5030 C   0  0  0  0  0  0  0  0  0  0  0  0
   44.7130   32.1490   34.4620 N   0  0  0  0  0  0  0  0  0  0  0  0
   44.6260   30.9050   33.9020 C   0  0  0  0  0  0  0  0  0  0  0  0
   44.0220   30.7150   33.0040 H   0  0  0  0  0  0  0  0  0  0  0  0
   45.3650   30.0010   34.5950 N   0  0  0  0  0  0  0  0  0  0  0  0
   45.9460   30.6440   35.6220 C   0  0  0  0  0  0  0  0  0  0  0  0
   46.7800   30.2300   36.6190 C   0  0  0  0  0  3  0  0  0  0  0  0
   44.2730   33.0380   34.1740 H   0  0  0  0  0  0  0  0  0  0  0  0
   47.8040   35.4020   41.9810 O   0  0  0  0  0  0  0  0  0  0  0  0
   49.0410   35.7640   41.4690 C   0  0  0  0  0  0  0  0  0  0  0  0
   49.4230   37.0380   41.8560 F   0  0  0  0  0  0  0  0  0  0  0  0
   49.9730   34.8230   41.7710 F   0  0  0  0  0  0  0  0  0  0  0  0
   48.8920   35.8060   40.0880 F   0  0  0  0  0  0  0  0  0  0  0  0
  2  1  2  1  0  0  0
  2  3  1  0  0  0  0
  2 28  1  0  0  0  0
  3  6  1  0  0  0  0
  4 10  1  0  0  0  0
  4  9  1  0  0  0  0
  5  4  2  0  0  0  0
  6  5  1  0  0  0  0
  6  7  2  0  0  0  0
  7  8  1  0  0  0  0
  8  9  2  0  0  0  0
  8 12  1  0  0  0  0
 11  5  1  0  0  0  0
 13  2  1  0  0  0  0
 14 13  1  0  0  0  0
 15 14  2  0  0  0  0
 17 16  1  0  0  0  0
 17 14  1  0  0  0  0
 18 19  1  0  0  0  0
 18 17  2  0  0  0  0
 20 25  2  0  0  0  0
 20 18  1  0  0  0  0
 21 20  1  0  0  0  0
 22 21  1  0  0  0  0
 22 24  2  0  0  0  0
 23 22  1  0  0  0  0
 24 25  1  0  0  0  0
 25 26  1  0  0  0  0
 26 16  2  0  0  0  0
 27 21  1  0  0  0  0
 29 31  1  0  0  0  0
 29 30  1  0  0  0  0
 29 28  1  0  0  0  0
 32 29  1  0  0  0  0
M  END
>  <minimizedAffinity>
-5.87790108

>  <minimizedRMSD>
2.19787192

$$$$
