
 OpenBabel03242519413D

 32 34  0  0  0  0  0  0  0  0999 V2000
   47.9930   32.8670   41.7110 O   0  0  0  0  0  0  0  0  0  0  0  0
   47.1410   34.0890   41.2750 P   0  0  2  0  0  0  0  0  0  0  0  0
   45.5510   33.8840   41.8850 O   0  0  0  0  0  0  0  0  0  0  0  0
   44.3950   35.9200   44.6790 C   0  0  0  0  0  0  0  0  0  0  0  0
   44.6640   35.5030   43.3560 C   0  0  0  0  0  0  0  0  0  0  0  0
   45.2990   34.2630   43.1880 C   0  0  0  0  0  0  0  0  0  0  0  0
   45.6120   33.5470   44.2830 N   0  0  0  0  0  0  0  0  0  0  0  0
   45.3400   33.9770   45.5360 C   0  0  0  0  0  0  0  0  0  0  0  0
   44.7360   35.1540   45.7440 N   0  0  0  0  0  0  0  0  0  0  0  0
   43.9080   36.8740   44.7810 H   0  0  0  0  0  0  0  0  0  0  0  0
   44.3800   36.1350   42.5470 H   0  0  0  0  0  0  0  0  0  0  0  0
   45.6380   33.3160   46.3560 H   0  0  0  0  0  0  0  0  0  0  0  0
   47.0620   34.1710   39.6190 O   0  0  0  0  0  0  0  0  0  0  0  0
   46.5870   33.2510   38.7310 C   0  0  0  0  0  0  0  0  0  0  0  0
   46.8860   33.4510   37.4170 O   0  0  0  0  0  0  0  0  0  0  0  0
   44.7250   31.7510   39.3010 C   0  0  0  0  0  3  0  0  0  0  0  0
   45.8130   31.9790   38.5330 C   0  0  0  0  0  0  0  0  0  0  0  0
   46.1090   31.0090   37.5790 C   0  0  0  0  0  0  0  0  0  0  0  0
   47.0140   31.2620   36.9870 H   0  0  0  0  0  0  0  0  0  0  0  0
   45.4650   29.8460   37.2890 C   0  0  0  0  0  0  0  0  0  0  0  0
   45.6540   28.8560   36.4120 N   0  0  0  0  0  0  0  0  0  0  0  0
   44.6160   28.0120   36.6900 C   0  0  0  0  0  0  0  0  0  0  0  0
   44.4670   27.0730   36.1390 H   0  0  0  0  0  0  0  0  0  0  0  0
   43.8460   28.4940   37.6980 N   0  0  0  0  0  0  0  0  0  0  0  0
   44.3720   29.6670   38.0950 C   0  0  0  0  0  0  0  0  0  0  0  0
   44.0110   30.5660   39.0550 C   0  0  0  0  0  3  0  0  0  0  0  0
   46.4060   28.7730   35.7080 H   0  0  0  0  0  0  0  0  0  0  0  0
   47.8220   35.4180   41.9930 O   0  0  0  0  0  0  0  0  0  0  0  0
   49.0530   35.7480   41.4440 C   0  0  0  0  0  0  0  0  0  0  0  0
   49.4570   37.0300   41.7780 F   0  0  0  0  0  0  0  0  0  0  0  0
   49.9810   34.8070   41.7600 F   0  0  0  0  0  0  0  0  0  0  0  0
   48.8760   35.7430   40.0650 F   0  0  0  0  0  0  0  0  0  0  0  0
  2  1  2  1  0  0  0
  2  3  1  0  0  0  0
  2 28  1  0  0  0  0
  3  6  1  0  0  0  0
  4 10  1  0  0  0  0
  4  9  1  0  0  0  0
  5  4  2  0  0  0  0
  6  5  1  0  0  0  0
  6  7  2  0  0  0  0
  7  8  1  0  0  0  0
  8  9  2  0  0  0  0
  8 12  1  0  0  0  0
 11  5  1  0  0  0  0
 13  2  1  0  0  0  0
 14 13  1  0  0  0  0
 15 14  2  0  0  0  0
 17 14  1  0  0  0  0
 17 16  2  0  0  0  0
 18 17  1  0  0  0  0
 19 18  1  0  0  0  0
 20 18  2  0  0  0  0
 20 25  1  0  0  0  0
 21 22  1  0  0  0  0
 21 20  1  0  0  0  0
 22 24  2  0  0  0  0
 23 22  1  0  0  0  0
 24 25  1  0  0  0  0
 25 26  2  0  0  0  0
 26 16  1  0  0  0  0
 27 21  1  0  0  0  0
 29 31  1  0  0  0  0
 29 30  1  0  0  0  0
 29 28  1  0  0  0  0
 32 29  1  0  0  0  0
M  END
>  <minimizedAffinity>
-4.97352362

>  <minimizedRMSD>
0.800304115

$$$$
