
 OpenBabel03242519413D

 32 34  0  0  0  0  0  0  0  0999 V2000
   47.8890   32.7240   41.8560 O   0  0  0  0  0  0  0  0  0  0  0  0
   46.9580   33.8440   41.3190 P   0  0  2  0  0  0  0  0  0  0  0  0
   45.4060   33.6400   42.0210 O   0  0  0  0  0  0  0  0  0  0  0  0
   44.3610   35.9350   44.6530 C   0  0  0  0  0  0  0  0  0  0  0  0
   44.5870   35.3990   43.3660 C   0  0  0  0  0  0  0  0  0  0  0  0
   45.1960   34.1370   43.2920 C   0  0  0  0  0  0  0  0  0  0  0  0
   45.5250   33.5130   44.4370 N   0  0  0  0  0  0  0  0  0  0  0  0
   45.2940   34.0570   45.6540 C   0  0  0  0  0  0  0  0  0  0  0  0
   44.7160   35.2590   45.7730 N   0  0  0  0  0  0  0  0  0  0  0  0
   43.8940   36.9050   44.6830 H   0  0  0  0  0  0  0  0  0  0  0  0
   44.2930   35.9630   42.5110 H   0  0  0  0  0  0  0  0  0  0  0  0
   45.6010   33.4640   46.5220 H   0  0  0  0  0  0  0  0  0  0  0  0
   46.8090   33.7220   39.6710 O   0  0  0  0  0  0  0  0  0  0  0  0
   45.8050   33.1650   38.9340 C   0  0  0  0  0  0  0  0  0  0  0  0
   46.1690   32.2540   37.9880 O   0  0  0  0  0  0  0  0  0  0  0  0
   43.8370   32.0180   38.0140 C   0  0  0  0  0  3  0  0  0  0  0  0
   44.3270   33.0870   38.6790 C   0  0  0  0  0  0  0  0  0  0  0  0
   43.3950   34.0270   39.1090 C   0  0  0  0  0  0  0  0  0  0  0  0
   43.8690   34.8760   39.6460 H   0  0  0  0  0  0  0  0  0  0  0  0
   42.0410   34.0420   38.9660 C   0  0  0  0  0  0  0  0  0  0  0  0
   41.0640   34.8760   39.3300 N   0  0  0  0  0  0  0  0  0  0  0  0
   39.9480   34.2520   38.8500 C   0  0  0  0  0  0  0  0  0  0  0  0
   38.9430   34.6780   38.9790 H   0  0  0  0  0  0  0  0  0  0  0  0
   40.2660   33.0900   38.2240 N   0  0  0  0  0  0  0  0  0  0  0  0
   41.5990   32.9380   38.2870 C   0  0  0  0  0  0  0  0  0  0  0  0
   42.4440   31.9690   37.8300 C   0  0  0  0  0  3  0  0  0  0  0  0
   41.1560   35.7670   39.8480 H   0  0  0  0  0  0  0  0  0  0  0  0
   47.5980   35.2800   41.8430 O   0  0  0  0  0  0  0  0  0  0  0  0
   48.8540   35.5290   41.3090 C   0  0  0  0  0  0  0  0  0  0  0  0
   49.3610   36.7580   41.6990 F   0  0  0  0  0  0  0  0  0  0  0  0
   49.6990   34.5020   41.5860 F   0  0  0  0  0  0  0  0  0  0  0  0
   48.6830   35.5980   39.9320 F   0  0  0  0  0  0  0  0  0  0  0  0
  2 28  1  0  0  0  0
  2  1  2  1  0  0  0
  2  3  1  0  0  0  0
  3  6  1  0  0  0  0
  4 10  1  0  0  0  0
  4  9  1  0  0  0  0
  5  4  2  0  0  0  0
  6  5  1  0  0  0  0
  6  7  2  0  0  0  0
  7  8  1  0  0  0  0
  8  9  2  0  0  0  0
  8 12  1  0  0  0  0
 11  5  1  0  0  0  0
 13  2  1  0  0  0  0
 14 13  1  0  0  0  0
 15 14  2  0  0  0  0
 16 17  1  0  0  0  0
 17 14  1  0  0  0  0
 17 18  2  0  0  0  0
 18 19  1  0  0  0  0
 20 18  1  0  0  0  0
 20 21  1  0  0  0  0
 21 27  1  0  0  0  0
 22 23  1  0  0  0  0
 22 21  1  0  0  0  0
 24 25  1  0  0  0  0
 24 22  2  0  0  0  0
 25 20  2  0  0  0  0
 26 16  2  0  0  0  0
 26 25  1  0  0  0  0
 29 31  1  0  0  0  0
 29 30  1  0  0  0  0
 29 28  1  0  0  0  0
 32 29  1  0  0  0  0
M  END
>  <minimizedAffinity>
-5.81879997

>  <minimizedRMSD>
3.3427515

$$$$
