
 OpenBabel03242519413D

 32 34  0  0  0  0  0  0  0  0999 V2000
   47.8840   32.7260   41.8620 O   0  0  0  0  0  0  0  0  0  0  0  0
   46.9560   33.8460   41.3200 P   0  0  2  0  0  0  0  0  0  0  0  0
   45.4030   33.6480   42.0210 O   0  0  0  0  0  0  0  0  0  0  0  0
   44.3630   35.9370   44.6600 C   0  0  0  0  0  0  0  0  0  0  0  0
   44.5870   35.4040   43.3710 C   0  0  0  0  0  0  0  0  0  0  0  0
   45.1940   34.1410   43.2930 C   0  0  0  0  0  0  0  0  0  0  0  0
   45.5230   33.5130   44.4360 N   0  0  0  0  0  0  0  0  0  0  0  0
   45.2930   34.0540   45.6540 C   0  0  0  0  0  0  0  0  0  0  0  0
   44.7170   35.2560   45.7780 N   0  0  0  0  0  0  0  0  0  0  0  0
   43.8960   36.9060   44.6920 H   0  0  0  0  0  0  0  0  0  0  0  0
   44.2930   35.9710   42.5180 H   0  0  0  0  0  0  0  0  0  0  0  0
   45.6000   33.4580   46.5210 H   0  0  0  0  0  0  0  0  0  0  0  0
   46.8090   33.7210   39.6720 O   0  0  0  0  0  0  0  0  0  0  0  0
   45.8060   33.1630   38.9350 C   0  0  0  0  0  0  0  0  0  0  0  0
   46.1690   32.2490   37.9920 O   0  0  0  0  0  0  0  0  0  0  0  0
   43.8360   32.0170   38.0150 C   0  0  0  0  0  3  0  0  0  0  0  0
   44.3280   33.0870   38.6790 C   0  0  0  0  0  0  0  0  0  0  0  0
   43.3960   34.0260   39.1100 C   0  0  0  0  0  0  0  0  0  0  0  0
   43.8700   34.8750   39.6470 H   0  0  0  0  0  0  0  0  0  0  0  0
   42.0430   34.0420   38.9650 C   0  0  0  0  0  0  0  0  0  0  0  0
   41.0650   34.8770   39.3300 N   0  0  0  0  0  0  0  0  0  0  0  0
   39.9490   34.2530   38.8490 C   0  0  0  0  0  0  0  0  0  0  0  0
   38.9450   34.6800   38.9780 H   0  0  0  0  0  0  0  0  0  0  0  0
   40.2660   33.0920   38.2230 N   0  0  0  0  0  0  0  0  0  0  0  0
   41.6010   32.9390   38.2870 C   0  0  0  0  0  0  0  0  0  0  0  0
   42.4440   31.9690   37.8290 C   0  0  0  0  0  3  0  0  0  0  0  0
   41.1580   35.7670   39.8480 H   0  0  0  0  0  0  0  0  0  0  0  0
   47.5980   35.2820   41.8420 O   0  0  0  0  0  0  0  0  0  0  0  0
   48.8540   35.5300   41.3070 C   0  0  0  0  0  0  0  0  0  0  0  0
   49.3640   36.7570   41.6960 F   0  0  0  0  0  0  0  0  0  0  0  0
   49.6970   34.5010   41.5830 F   0  0  0  0  0  0  0  0  0  0  0  0
   48.6820   35.5990   39.9300 F   0  0  0  0  0  0  0  0  0  0  0  0
  2 28  1  0  0  0  0
  2  1  2  1  0  0  0
  2  3  1  0  0  0  0
  3  6  1  0  0  0  0
  4 10  1  0  0  0  0
  4  9  1  0  0  0  0
  5  4  2  0  0  0  0
  6  5  1  0  0  0  0
  6  7  2  0  0  0  0
  7  8  1  0  0  0  0
  8  9  2  0  0  0  0
  8 12  1  0  0  0  0
 11  5  1  0  0  0  0
 13  2  1  0  0  0  0
 14 13  1  0  0  0  0
 15 14  2  0  0  0  0
 16 17  1  0  0  0  0
 17 14  1  0  0  0  0
 17 18  2  0  0  0  0
 18 19  1  0  0  0  0
 20 18  1  0  0  0  0
 20 21  1  0  0  0  0
 21 27  1  0  0  0  0
 22 23  1  0  0  0  0
 22 21  1  0  0  0  0
 24 25  1  0  0  0  0
 24 22  2  0  0  0  0
 25 20  2  0  0  0  0
 26 16  2  0  0  0  0
 26 25  1  0  0  0  0
 29 31  1  0  0  0  0
 29 30  1  0  0  0  0
 29 28  1  0  0  0  0
 32 29  1  0  0  0  0
M  END
>  <minimizedAffinity>
-5.81700802

>  <minimizedRMSD>
3.86255455

$$$$
