
 OpenBabel03242519413D

 32 34  0  0  0  0  0  0  0  0999 V2000
   48.0440   32.7720   42.0090 O   0  0  0  0  0  0  0  0  0  0  0  0
   47.0990   33.8440   41.4020 P   0  0  2  0  0  0  0  0  0  0  0  0
   45.5300   33.6140   42.0570 O   0  0  0  0  0  0  0  0  0  0  0  0
   44.3520   35.9230   44.6200 C   0  0  0  0  0  0  0  0  0  0  0  0
   44.6320   35.3740   43.3490 C   0  0  0  0  0  0  0  0  0  0  0  0
   45.2670   34.1230   43.3130 C   0  0  0  0  0  0  0  0  0  0  0  0
   45.5700   33.5210   44.4770 N   0  0  0  0  0  0  0  0  0  0  0  0
   45.2870   34.0770   45.6770 C   0  0  0  0  0  0  0  0  0  0  0  0
   44.6830   35.2680   45.7600 N   0  0  0  0  0  0  0  0  0  0  0  0
   43.8650   36.8830   44.6200 H   0  0  0  0  0  0  0  0  0  0  0  0
   44.3560   35.9210   42.4770 H   0  0  0  0  0  0  0  0  0  0  0  0
   45.5770   33.5020   46.5640 H   0  0  0  0  0  0  0  0  0  0  0  0
   47.0110   33.6640   39.7550 O   0  0  0  0  0  0  0  0  0  0  0  0
   45.9780   33.2080   38.9900 C   0  0  0  0  0  0  0  0  0  0  0  0
   46.2910   32.7270   37.7540 O   0  0  0  0  0  0  0  0  0  0  0  0
   44.0110   31.7630   39.2790 C   0  0  0  0  0  3  0  0  0  0  0  0
   44.5000   32.9630   38.8930 C   0  0  0  0  0  0  0  0  0  0  0  0
   43.5640   33.8990   38.4610 C   0  0  0  0  0  0  0  0  0  0  0  0
   44.0370   34.8580   38.1590 H   0  0  0  0  0  0  0  0  0  0  0  0
   42.2100   33.7990   38.3640 C   0  0  0  0  0  0  0  0  0  0  0  0
   41.2300   34.6170   37.9710 N   0  0  0  0  0  0  0  0  0  0  0  0
   40.1160   33.8460   38.1410 C   0  0  0  0  0  0  0  0  0  0  0  0
   39.1090   34.2200   37.9060 H   0  0  0  0  0  0  0  0  0  0  0  0
   40.4370   32.6160   38.6180 N   0  0  0  0  0  0  0  0  0  0  0  0
   41.7720   32.5670   38.7680 C   0  0  0  0  0  0  0  0  0  0  0  0
   42.6190   31.5910   39.2040 C   0  0  0  0  0  3  0  0  0  0  0  0
   41.3190   35.5880   37.6280 H   0  0  0  0  0  0  0  0  0  0  0  0
   47.6750   35.3160   41.8990 O   0  0  0  0  0  0  0  0  0  0  0  0
   48.9210   35.6080   41.3640 C   0  0  0  0  0  0  0  0  0  0  0  0
   49.3830   36.8580   41.7440 F   0  0  0  0  0  0  0  0  0  0  0  0
   49.8040   34.6150   41.6470 F   0  0  0  0  0  0  0  0  0  0  0  0
   48.7480   35.6600   39.9850 F   0  0  0  0  0  0  0  0  0  0  0  0
  2 28  1  0  0  0  0
  2  1  2  1  0  0  0
  2  3  1  0  0  0  0
  3  6  1  0  0  0  0
  4  9  1  0  0  0  0
  5  4  2  0  0  0  0
  6  5  1  0  0  0  0
  6  7  2  0  0  0  0
  7  8  1  0  0  0  0
  8  9  2  0  0  0  0
  8 12  1  0  0  0  0
 10  4  1  0  0  0  0
 11  5  1  0  0  0  0
 13  2  1  0  0  0  0
 14 13  1  0  0  0  0
 15 14  2  0  0  0  0
 17 14  1  0  0  0  0
 17 16  2  0  0  0  0
 18 17  1  0  0  0  0
 19 18  1  0  0  0  0
 20 18  2  0  0  0  0
 20 25  1  0  0  0  0
 21 22  1  0  0  0  0
 21 20  1  0  0  0  0
 22 24  2  0  0  0  0
 23 22  1  0  0  0  0
 24 25  1  0  0  0  0
 25 26  2  0  0  0  0
 26 16  1  0  0  0  0
 27 21  1  0  0  0  0
 29 31  1  0  0  0  0
 29 30  1  0  0  0  0
 29 28  1  0  0  0  0
 32 29  1  0  0  0  0
M  END
>  <minimizedAffinity>
-5.73232174

>  <minimizedRMSD>
3.05926657

$$$$
