
 OpenBabel03242515003D

 40 43  0  0  0  0  0  0  0  0999 V2000
   45.1330   34.3680   41.9230 C   0  0  0  0  0  0  0  0  0  0  0  0
   46.4030   34.6630   41.4290 C   0  0  0  0  0  0  0  0  0  0  0  0
   47.4920   34.5830   42.3180 C   0  0  0  0  0  0  0  0  0  0  0  0
   47.2570   34.2280   43.5980 N   0  0  0  0  0  0  0  0  0  0  0  0
   46.0220   33.9460   44.0490 C   0  0  0  0  0  0  0  0  0  0  0  0
   44.9760   34.0170   43.2190 N   0  0  0  0  0  0  0  0  0  0  0  0
   46.6160   34.9480   40.4040 H   0  0  0  0  0  0  0  0  0  0  0  0
   48.4850   34.7970   42.0000 H   0  0  0  0  0  0  0  0  0  0  0  0
   45.8520   33.5280   45.4430 C   0  0  0  0  0  0  0  0  0  0  0  0
   45.0440   34.2350   46.1430 O   0  0  0  0  0  0  0  0  0  0  0  0
   46.7930   31.1080   45.5390 C   0  0  0  0  0  0  0  0  0  0  0  0
   46.5600   32.3630   46.0250 C   0  0  0  0  0  0  0  0  0  0  0  0
   47.0440   32.6340   47.3110 C   0  0  0  0  0  0  0  0  0  0  0  0
   46.9380   33.5850   47.8220 H   0  0  0  0  0  0  0  0  0  0  0  0
   47.7310   31.7120   48.0960 C   0  0  0  0  0  0  0  0  0  0  0  0
   48.2910   31.6760   49.3230 N   0  0  0  0  0  0  0  0  0  0  0  0
   48.8260   30.4550   49.5420 C   0  0  0  0  0  0  0  0  0  0  0  0
   49.3350   30.2050   50.4830 H   0  0  0  0  0  0  0  0  0  0  0  0
   48.6110   29.6890   48.4490 N   0  0  0  0  0  0  0  0  0  0  0  0
   47.9430   30.4570   47.5670 C   0  0  0  0  0  0  0  0  0  0  0  0
   47.4690   30.1850   46.3020 C   0  0  0  0  0  0  0  0  0  0  0  0
   48.2790   32.5120   49.9710 H   0  0  0  0  0  0  0  0  0  0  0  0
   43.7760   34.4990   40.7590 S   0  0  0  0  0  0  0  0  0  0  0  0
   42.2140   34.8420   41.5520 C   0  0  0  0  0  0  0  0  0  0  0  0
   42.4060   35.2000   42.5830 H   0  0  0  0  0  0  0  0  0  0  0  0
   41.6000   33.8920   41.5650 H   0  0  0  0  0  0  0  0  0  0  0  0
   41.3770   35.8510   40.8280 C   0  0  0  0  0  0  0  0  0  0  0  0
   40.7330   36.4350   41.5540 H   0  0  0  0  0  0  0  0  0  0  0  0
   41.9920   36.6070   40.3040 H   0  0  0  0  0  0  0  0  0  0  0  0
   42.0870   36.0890   37.8610 Cl  0  0  0  0  0  0  0  0  0  0  0  0
   40.7010   35.2460   38.4640 C   0  0  0  0  0  0  0  0  0  0  0  0
   40.4800   35.2130   39.8450 C   0  0  0  0  0  0  0  0  0  0  0  0
   39.3480   34.5260   40.2540 C   0  0  0  0  0  0  0  0  0  0  0  0
   38.4250   33.8760   39.4480 C   0  0  0  0  0  0  0  0  0  0  0  0
   38.6790   33.9320   38.0850 C   0  0  0  0  0  0  0  0  0  0  0  0
   37.5800   33.1460   36.9530 Cl  0  0  0  0  0  0  0  0  0  0  0  0
   39.7940   34.6050   37.6160 C   0  0  0  0  0  0  0  0  0  0  0  0
   39.1440   34.4790   41.3230 H   0  0  0  0  0  0  0  0  0  0  0  0
   37.5750   33.3700   39.8580 H   0  0  0  0  0  0  0  0  0  0  0  0
   40.0250   34.6690   36.5610 H   0  0  0  0  0  0  0  0  0  0  0  0
  1  6  1  0  0  0  0
  2  1  2  0  0  0  0
  2  3  1  0  0  0  0
  3  4  2  0  0  0  0
  4  5  1  0  0  0  0
  5  9  1  0  0  0  0
  6  5  2  0  0  0  0
  7  2  1  0  0  0  0
  8  3  1  0  0  0  0
  9 12  1  0  0  0  0
  9 10  2  0  0  0  0
 11 12  2  0  0  0  0
 11 21  1  0  0  0  0
 12 13  1  0  0  0  0
 13 14  1  0  0  0  0
 13 15  2  0  0  0  0
 15 16  1  0  0  0  0
 16 17  1  0  0  0  0
 16 22  1  0  0  0  0
 17 18  1  0  0  0  0
 19 17  2  0  0  0  0
 20 15  1  0  0  0  0
 20 19  1  0  0  0  0
 21 20  2  0  0  0  0
 23 24  1  0  0  0  0
 23  1  1  0  0  0  0
 24 26  1  0  0  0  0
 24 25  1  0  0  0  0
 27 24  1  0  0  0  0
 27 28  1  0  0  0  0
 29 27  1  0  0  0  0
 30 31  1  0  0  0  0
 31 32  1  0  0  0  0
 32 33  2  0  0  0  0
 32 27  1  0  0  0  0
 33 38  1  0  0  0  0
 34 39  1  0  0  0  0
 34 33  1  0  0  0  0
 35 34  2  0  0  0  0
 36 35  1  0  0  0  0
 37 35  1  0  0  0  0
 37 31  2  0  0  0  0
 40 37  1  0  0  0  0
M  END
>  <minimizedAffinity>
-7.3726244

>  <minimizedRMSD>
0.873784244

$$$$
