
 OpenBabel03242519413D

 32 34  0  0  0  0  0  0  0  0999 V2000
   47.9850   32.8830   41.7820 O   0  0  0  0  0  0  0  0  0  0  0  0
   47.1360   34.0880   41.2940 P   0  0  2  0  0  0  0  0  0  0  0  0
   45.5400   33.9040   41.8970 O   0  0  0  0  0  0  0  0  0  0  0  0
   44.3920   35.9340   44.6980 C   0  0  0  0  0  0  0  0  0  0  0  0
   44.6600   35.5210   43.3740 C   0  0  0  0  0  0  0  0  0  0  0  0
   45.2890   34.2790   43.2010 C   0  0  0  0  0  0  0  0  0  0  0  0
   45.5970   33.5560   44.2930 N   0  0  0  0  0  0  0  0  0  0  0  0
   45.3250   33.9830   45.5470 C   0  0  0  0  0  0  0  0  0  0  0  0
   44.7270   35.1620   45.7600 N   0  0  0  0  0  0  0  0  0  0  0  0
   43.9100   36.8910   44.8030 H   0  0  0  0  0  0  0  0  0  0  0  0
   44.3810   36.1580   42.5660 H   0  0  0  0  0  0  0  0  0  0  0  0
   45.6180   33.3160   46.3660 H   0  0  0  0  0  0  0  0  0  0  0  0
   47.0720   34.1100   39.6370 O   0  0  0  0  0  0  0  0  0  0  0  0
   46.5130   33.2060   38.7820 C   0  0  0  0  0  0  0  0  0  0  0  0
   46.7530   33.3840   37.4530 O   0  0  0  0  0  0  0  0  0  0  0  0
   45.6210   31.3590   37.4290 C   0  0  0  0  0  3  0  0  0  0  0  0
   45.6760   31.9680   38.6350 C   0  0  0  0  0  0  0  0  0  0  0  0
   44.9640   31.3610   39.6650 C   0  0  0  0  0  0  0  0  0  0  0  0
   45.0550   31.9150   40.6230 H   0  0  0  0  0  0  0  0  0  0  0  0
   44.2070   30.2300   39.6540 C   0  0  0  0  0  0  0  0  0  0  0  0
   43.4910   29.5660   40.5660 N   0  0  0  0  0  0  0  0  0  0  0  0
   42.9980   28.5140   39.8460 C   0  0  0  0  0  0  0  0  0  0  0  0
   42.3510   27.7510   40.3010 H   0  0  0  0  0  0  0  0  0  0  0  0
   43.4120   28.5650   38.5540 N   0  0  0  0  0  0  0  0  0  0  0  0
   44.1870   29.6550   38.4120 C   0  0  0  0  0  0  0  0  0  0  0  0
   44.8550   30.1820   37.3470 C   0  0  0  0  0  3  0  0  0  0  0  0
   43.3600   29.8070   41.5630 H   0  0  0  0  0  0  0  0  0  0  0  0
   47.8100   35.4420   41.9710 O   0  0  0  0  0  0  0  0  0  0  0  0
   49.0470   35.7510   41.4250 C   0  0  0  0  0  0  0  0  0  0  0  0
   49.4750   37.0240   41.7640 F   0  0  0  0  0  0  0  0  0  0  0  0
   49.9570   34.7920   41.7380 F   0  0  0  0  0  0  0  0  0  0  0  0
   48.8710   35.7550   40.0460 F   0  0  0  0  0  0  0  0  0  0  0  0
  2  1  2  1  0  0  0
  2  3  1  0  0  0  0
  2 28  1  0  0  0  0
  3  6  1  0  0  0  0
  4 10  1  0  0  0  0
  4  9  1  0  0  0  0
  5  4  2  0  0  0  0
  6  5  1  0  0  0  0
  6  7  2  0  0  0  0
  7  8  1  0  0  0  0
  8  9  2  0  0  0  0
  8 12  1  0  0  0  0
 11  5  1  0  0  0  0
 13  2  1  0  0  0  0
 14 13  1  0  0  0  0
 15 14  2  0  0  0  0
 16 17  1  0  0  0  0
 17 14  1  0  0  0  0
 17 18  2  0  0  0  0
 18 19  1  0  0  0  0
 20 18  1  0  0  0  0
 20 21  1  0  0  0  0
 21 27  1  0  0  0  0
 22 23  1  0  0  0  0
 22 21  1  0  0  0  0
 24 22  2  0  0  0  0
 25 24  1  0  0  0  0
 25 20  2  0  0  0  0
 26 16  2  0  0  0  0
 26 25  1  0  0  0  0
 29 31  1  0  0  0  0
 29 30  1  0  0  0  0
 29 28  1  0  0  0  0
 32 29  1  0  0  0  0
M  END
>  <minimizedAffinity>
-4.91899776

>  <minimizedRMSD>
1.46479893

$$$$
