
 OpenBabel03242519413D

 32 34  0  0  0  0  0  0  0  0999 V2000
   48.0560   32.8480   41.4930 O   0  0  0  0  0  0  0  0  0  0  0  0
   47.1050   34.0340   41.1790 P   0  0  2  0  0  0  0  0  0  0  0  0
   45.5740   33.6970   41.8750 O   0  0  0  0  0  0  0  0  0  0  0  0
   44.4110   35.8370   44.5870 C   0  0  0  0  0  0  0  0  0  0  0  0
   44.6690   35.3630   43.2820 C   0  0  0  0  0  0  0  0  0  0  0  0
   45.3320   34.1330   43.1630 C   0  0  0  0  0  0  0  0  0  0  0  0
   45.6810   33.4780   44.2850 N   0  0  0  0  0  0  0  0  0  0  0  0
   45.4170   33.9620   45.5200 C   0  0  0  0  0  0  0  0  0  0  0  0
   44.7870   35.1320   45.6820 N   0  0  0  0  0  0  0  0  0  0  0  0
   43.9010   36.7830   44.6500 H   0  0  0  0  0  0  0  0  0  0  0  0
   44.3570   35.9480   42.4470 H   0  0  0  0  0  0  0  0  0  0  0  0
   45.7440   33.3490   46.3670 H   0  0  0  0  0  0  0  0  0  0  0  0
   46.9120   34.1950   39.5390 O   0  0  0  0  0  0  0  0  0  0  0  0
   47.2280   33.3190   38.5430 C   0  0  0  0  0  0  0  0  0  0  0  0
   48.5510   33.1600   38.2580 O   0  0  0  0  0  0  0  0  0  0  0  0
   46.8870   31.0190   37.7440 C   0  0  0  0  0  3  0  0  0  0  0  0
   46.7200   32.3420   37.5220 C   0  0  0  0  0  0  0  0  0  0  0  0
   46.0450   32.6900   36.3550 C   0  0  0  0  0  0  0  0  0  0  0  0
   45.9450   33.7910   36.2380 H   0  0  0  0  0  0  0  0  0  0  0  0
   45.5150   31.8970   35.3850 C   0  0  0  0  0  0  0  0  0  0  0  0
   44.8570   32.1160   34.2420 N   0  0  0  0  0  0  0  0  0  0  0  0
   44.6320   30.8490   33.7830 C   0  0  0  0  0  0  0  0  0  0  0  0
   44.1010   30.6590   32.8390 H   0  0  0  0  0  0  0  0  0  0  0  0
   45.1440   29.9210   34.6300 N   0  0  0  0  0  0  0  0  0  0  0  0
   45.7120   30.5710   35.6610 C   0  0  0  0  0  0  0  0  0  0  0  0
   46.3630   30.1420   36.7790 C   0  0  0  0  0  3  0  0  0  0  0  0
   44.5960   33.0280   33.8300 H   0  0  0  0  0  0  0  0  0  0  0  0
   47.7500   35.3650   41.9260 O   0  0  0  0  0  0  0  0  0  0  0  0
   48.9970   35.7060   41.4230 C   0  0  0  0  0  0  0  0  0  0  0  0
   49.3960   36.9760   41.8070 F   0  0  0  0  0  0  0  0  0  0  0  0
   49.9120   34.7520   41.7380 F   0  0  0  0  0  0  0  0  0  0  0  0
   48.8600   35.7420   40.0400 F   0  0  0  0  0  0  0  0  0  0  0  0
  2  1  2  1  0  0  0
  2  3  1  0  0  0  0
  2 28  1  0  0  0  0
  3  6  1  0  0  0  0
  4 10  1  0  0  0  0
  4  9  1  0  0  0  0
  5  4  2  0  0  0  0
  6  5  1  0  0  0  0
  6  7  2  0  0  0  0
  7  8  1  0  0  0  0
  8  9  2  0  0  0  0
  8 12  1  0  0  0  0
 11  5  1  0  0  0  0
 13  2  1  0  0  0  0
 14 13  1  0  0  0  0
 15 14  2  0  0  0  0
 17 16  1  0  0  0  0
 17 14  1  0  0  0  0
 18 17  2  0  0  0  0
 19 18  1  0  0  0  0
 20 25  2  0  0  0  0
 20 18  1  0  0  0  0
 21 20  1  0  0  0  0
 22 21  1  0  0  0  0
 22 24  2  0  0  0  0
 23 22  1  0  0  0  0
 24 25  1  0  0  0  0
 25 26  1  0  0  0  0
 26 16  2  0  0  0  0
 27 21  1  0  0  0  0
 29 31  1  0  0  0  0
 29 30  1  0  0  0  0
 29 28  1  0  0  0  0
 32 29  1  0  0  0  0
M  END
>  <minimizedAffinity>
-5.85206366

>  <minimizedRMSD>
1.91368783

$$$$
