
 OpenBabel03242516553D

 48 52  0  0  1  0  0  0  0  0999 V2000
   38.9260   27.4180   42.0680 C   0  0  1  0  0  0  0  0  0  0  0  0
   40.1450   27.8420   41.3730 C   0  0  0  0  0  0  0  0  0  0  0  0
   40.9290   28.7110   42.3680 C   0  0  0  0  0  0  0  0  0  0  0  0
   40.1350   29.9890   42.5330 C   0  0  0  0  0  0  0  0  0  0  0  0
   38.7020   29.7900   42.9280 C   0  0  0  0  0  0  0  0  0  0  0  0
   38.0180   28.6110   42.3980 C   0  0  1  0  0  0  0  0  0  0  0  0
   39.2100   27.0400   43.0920 H   0  0  0  0  0  0  0  0  0  0  0  0
   40.0200   28.4060   40.4560 H   0  0  0  0  0  0  0  0  0  0  0  0
   40.7360   26.9260   41.1160 H   0  0  0  0  0  0  0  0  0  0  0  0
   41.8760   28.9770   41.8920 H   0  0  0  0  0  0  0  0  0  0  0  0
   41.0520   28.1740   43.3360 H   0  0  0  0  0  0  0  0  0  0  0  0
   40.2170   30.5240   41.5510 H   0  0  0  0  0  0  0  0  0  0  0  0
   40.6460   30.6190   43.2970 H   0  0  0  0  0  0  0  0  0  0  0  0
   38.1390   30.7120   42.5850 H   0  0  0  0  0  0  0  0  0  0  0  0
   38.6660   29.8430   44.0310 H   0  0  0  0  0  0  0  0  0  0  0  0
   37.3390   28.2090   43.2110 H   0  0  0  0  0  0  0  0  0  0  0  0
   36.6240   24.4550   41.6430 C   0  0  0  0  0  0  0  0  0  0  0  0
   37.3920   25.4950   42.1860 C   0  0  0  0  0  0  0  0  0  0  0  0
   38.1550   26.3700   41.4340 C   0  0  0  0  0  0  0  0  0  0  0  0
   38.1260   26.1680   40.1100 N   0  0  0  0  0  0  0  0  0  0  0  0
   37.3950   25.1740   39.5610 C   0  0  0  0  0  0  0  0  0  0  0  0
   36.6600   24.3340   40.2950 N   0  0  0  0  0  0  0  0  0  0  0  0
   36.0440   23.7920   42.2670 H   0  0  0  0  0  0  0  0  0  0  0  0
   37.3160   25.5460   43.2590 H   0  0  0  0  0  0  0  0  0  0  0  0
   37.3480   24.9810   38.4880 H   0  0  0  0  0  0  0  0  0  0  0  0
   37.1130   28.9170   41.2920 C   0  0  0  0  0  0  0  0  0  0  0  0
   35.7970   28.4870   41.1380 C   0  0  0  0  0  0  0  0  0  0  0  0
   35.1280   28.9250   39.9980 C   0  0  0  0  0  0  0  0  0  0  0  0
   35.8090   29.7450   39.1120 C   0  0  0  0  0  0  0  0  0  0  0  0
   37.0950   30.1560   39.2740 C   0  0  0  0  0  0  0  0  0  0  0  0
   37.7430   29.7210   40.3970 N   0  0  0  0  0  0  0  0  0  0  0  0
   35.4290   27.8580   41.9230 H   0  0  0  0  0  0  0  0  0  0  0  0
   34.1100   28.5890   39.8830 H   0  0  0  0  0  0  0  0  0  0  0  0
   35.2300   30.0590   38.2410 H   0  0  0  0  0  0  0  0  0  0  0  0
   37.7650   31.0550   38.3050 C   0  0  0  0  0  0  0  0  0  0  0  0
   37.2810   31.0650   37.1240 O   0  0  0  0  0  0  0  0  0  0  0  0
   39.1040   32.7970   39.6240 C   0  0  0  0  0  3  0  0  0  0  0  0
   38.9090   31.9250   38.5740 C   0  0  0  0  0  0  0  0  0  0  0  0
   39.9360   31.9080   37.6120 C   0  0  0  0  0  0  0  0  0  0  0  0
   39.8410   31.2280   36.7510 H   0  0  0  0  0  0  0  0  0  0  0  0
   41.0580   32.6620   37.6440 C   0  0  0  0  0  0  0  0  0  0  0  0
   42.1230   32.7780   36.8170 N   0  0  0  0  0  0  0  0  0  0  0  0
   42.9560   33.7140   37.3560 C   0  0  0  0  0  0  0  0  0  0  0  0
   43.9000   34.0550   36.9580 H   0  0  0  0  0  0  0  0  0  0  0  0
   42.3840   34.1600   38.5180 N   0  0  0  0  0  0  0  0  0  0  0  0
   41.2070   33.5200   38.7110 C   0  0  0  0  0  0  0  0  0  0  0  0
   40.2460   33.6010   39.7100 C   0  0  0  0  0  3  0  0  0  0  0  0
   42.2980   32.2580   35.9280 H   0  0  0  0  0  0  0  0  0  0  0  0
  1  6  1  0  0  0  0
  1  7  1  1  0  0  0
  2  1  1  0  0  0  0
  2  3  1  0  0  0  0
  3  4  1  0  0  0  0
  3 11  1  0  0  0  0
  4  5  1  0  0  0  0
  4 13  1  0  0  0  0
  5 15  1  0  0  0  0
  6  5  1  0  0  0  0
  6 16  1  1  0  0  0
  8  2  1  0  0  0  0
  9  2  1  0  0  0  0
 10  3  1  0  0  0  0
 12  4  1  0  0  0  0
 14  5  1  0  0  0  0
 17 18  1  0  0  0  0
 17 23  1  0  0  0  0
 18 24  1  0  0  0  0
 19  1  1  0  0  0  0
 19 18  2  0  0  0  0
 20 19  1  0  0  0  0
 21 20  2  0  0  0  0
 21 22  1  0  0  0  0
 22 17  2  0  0  0  0
 25 21  1  0  0  0  0
 26  6  1  0  0  0  0
 27 26  1  0  0  0  0
 27 32  1  0  0  0  0
 28 27  2  0  0  0  0
 29 30  2  0  0  0  0
 29 28  1  0  0  0  0
 30 31  1  0  0  0  0
 31 26  2  0  0  0  0
 33 28  1  0  0  0  0
 34 29  1  0  0  0  0
 35 38  1  0  0  0  0
 35 30  1  0  0  0  0
 36 35  2  0  0  0  0
 37 47  1  0  0  0  0
 38 37  2  0  0  0  0
 39 41  2  0  0  0  0
 39 38  1  0  0  0  0
 40 39  1  0  0  0  0
 41 46  1  0  0  0  0
 42 43  1  0  0  0  0
 42 41  1  0  0  0  0
 43 45  2  0  0  0  0
 44 43  1  0  0  0  0
 45 46  1  0  0  0  0
 46 47  2  0  0  0  0
 48 42  1  0  0  0  0
M  END
>  <minimizedAffinity>
-6.63438702

$$$$

 OpenBabel03242516553D

 48 52  0  0  1  0  0  0  0  0999 V2000
   38.5110   26.5580   41.4020 C   0  0  1  0  0  0  0  0  0  0  0  0
   37.5880   25.9240   42.3480 C   0  0  0  0  0  0  0  0  0  0  0  0
   37.3680   24.4900   41.8420 C   0  0  0  0  0  0  0  0  0  0  0  0
   36.5640   24.6100   40.5650 C   0  0  0  0  0  0  0  0  0  0  0  0
   37.1640   25.5130   39.5290 C   0  0  0  0  0  0  0  0  0  0  0  0
   37.8890   26.6910   40.0060 C   0  0  1  0  0  0  0  0  0  0  0  0
   39.3730   25.8540   41.2170 H   0  0  0  0  0  0  0  0  0  0  0  0
   36.6180   26.3890   42.4790 H   0  0  0  0  0  0  0  0  0  0  0  0
   38.0790   25.9040   43.3550 H   0  0  0  0  0  0  0  0  0  0  0  0
   36.7390   23.9790   42.5750 H   0  0  0  0  0  0  0  0  0  0  0  0
   38.3470   23.9890   41.6680 H   0  0  0  0  0  0  0  0  0  0  0  0
   35.5490   24.9670   40.8800 H   0  0  0  0  0  0  0  0  0  0  0  0
   36.4390   23.5880   40.1370 H   0  0  0  0  0  0  0  0  0  0  0  0
   36.3100   25.8640   38.8710 H   0  0  0  0  0  0  0  0  0  0  0  0
   37.7760   24.8760   38.8660 H   0  0  0  0  0  0  0  0  0  0  0  0
   38.7860   26.8430   39.3300 H   0  0  0  0  0  0  0  0  0  0  0  0
   40.9480   29.4250   41.7150 C   0  0  0  0  0  0  0  0  0  0  0  0
   40.3290   28.2180   41.3590 C   0  0  0  0  0  0  0  0  0  0  0  0
   39.0840   27.8230   41.8110 C   0  0  0  0  0  0  0  0  0  0  0  0
   38.4730   28.6800   42.6390 N   0  0  0  0  0  0  0  0  0  0  0  0
   39.0460   29.8490   42.9980 C   0  0  0  0  0  0  0  0  0  0  0  0
   40.2500   30.2230   42.5550 N   0  0  0  0  0  0  0  0  0  0  0  0
   41.9250   29.6950   41.3400 H   0  0  0  0  0  0  0  0  0  0  0  0
   40.9290   27.6310   40.6830 H   0  0  0  0  0  0  0  0  0  0  0  0
   38.5780   30.5700   43.6700 H   0  0  0  0  0  0  0  0  0  0  0  0
   37.1260   27.9310   39.8750 C   0  0  0  0  0  0  0  0  0  0  0  0
   35.8850   28.2180   40.4360 C   0  0  0  0  0  0  0  0  0  0  0  0
   35.3630   29.4840   40.1780 C   0  0  0  0  0  0  0  0  0  0  0  0
   36.1050   30.3520   39.3940 C   0  0  0  0  0  0  0  0  0  0  0  0
   37.3160   30.0580   38.8510 C   0  0  0  0  0  0  0  0  0  0  0  0
   37.8200   28.8130   39.1100 N   0  0  0  0  0  0  0  0  0  0  0  0
   35.4540   27.4290   41.0170 H   0  0  0  0  0  0  0  0  0  0  0  0
   34.4010   29.7020   40.6140 H   0  0  0  0  0  0  0  0  0  0  0  0
   35.6460   31.3300   39.2320 H   0  0  0  0  0  0  0  0  0  0  0  0
   38.0770   31.0370   38.0390 C   0  0  0  0  0  0  0  0  0  0  0  0
   37.6830   31.1940   36.8360 O   0  0  0  0  0  0  0  0  0  0  0  0
   39.4860   32.3320   39.7450 C   0  0  0  0  0  3  0  0  0  0  0  0
   39.2180   31.8370   38.4870 C   0  0  0  0  0  0  0  0  0  0  0  0
   40.1500   32.1890   37.4940 C   0  0  0  0  0  0  0  0  0  0  0  0
   39.9920   31.8200   36.4670 H   0  0  0  0  0  0  0  0  0  0  0  0
   41.2490   32.9540   37.6810 C   0  0  0  0  0  0  0  0  0  0  0  0
   42.2280   33.3910   36.8550 N   0  0  0  0  0  0  0  0  0  0  0  0
   43.0820   34.1480   37.6020 C   0  0  0  0  0  0  0  0  0  0  0  0
   43.9750   34.6520   37.2640 H   0  0  0  0  0  0  0  0  0  0  0  0
   42.6100   34.1610   38.8880 N   0  0  0  0  0  0  0  0  0  0  0  0
   41.4740   33.4280   38.9530 C   0  0  0  0  0  0  0  0  0  0  0  0
   40.6090   33.1270   39.9980 C   0  0  0  0  0  3  0  0  0  0  0  0
   42.3330   33.1970   35.8340 H   0  0  0  0  0  0  0  0  0  0  0  0
  1  7  1  6  0  0  0
  1 19  1  0  0  0  0
  1  2  1  0  0  0  0
  2  8  1  0  0  0  0
  2  9  1  0  0  0  0
  3  2  1  0  0  0  0
  3 10  1  0  0  0  0
  4 12  1  0  0  0  0
  4  3  1  0  0  0  0
  5  6  1  0  0  0  0
  5  4  1  0  0  0  0
  6 16  1  6  0  0  0
  6  1  1  0  0  0  0
 11  3  1  0  0  0  0
 13  4  1  0  0  0  0
 14  5  1  0  0  0  0
 15  5  1  0  0  0  0
 17 22  1  0  0  0  0
 18 17  2  0  0  0  0
 18 19  1  0  0  0  0
 19 20  2  0  0  0  0
 20 21  1  0  0  0  0
 21 25  1  0  0  0  0
 22 21  2  0  0  0  0
 23 17  1  0  0  0  0
 24 18  1  0  0  0  0
 26  6  1  0  0  0  0
 26 27  1  0  0  0  0
 27 32  1  0  0  0  0
 28 27  2  0  0  0  0
 28 33  1  0  0  0  0
 29 28  1  0  0  0  0
 30 31  1  0  0  0  0
 30 29  2  0  0  0  0
 31 26  2  0  0  0  0
 34 29  1  0  0  0  0
 35 38  1  0  0  0  0
 35 30  1  0  0  0  0
 36 35  2  0  0  0  0
 37 47  1  0  0  0  0
 38 37  2  0  0  0  0
 39 41  2  0  0  0  0
 39 38  1  0  0  0  0
 40 39  1  0  0  0  0
 41 46  1  0  0  0  0
 42 43  1  0  0  0  0
 42 41  1  0  0  0  0
 43 45  2  0  0  0  0
 44 43  1  0  0  0  0
 45 46  1  0  0  0  0
 46 47  2  0  0  0  0
 48 42  1  0  0  0  0
M  END
>  <minimizedAffinity>
-6.56938362

$$$$

 OpenBabel03242516553D

 48 52  0  0  1  0  0  0  0  0999 V2000
   39.0160   26.6950   41.7850 C   0  0  1  0  0  0  0  0  0  0  0  0
   39.0470   28.1540   41.9220 C   0  0  0  0  0  0  0  0  0  0  0  0
   38.5410   28.4660   43.3390 C   0  0  0  0  0  0  0  0  0  0  0  0
   37.0660   28.1260   43.3460 C   0  0  0  0  0  0  0  0  0  0  0  0
   36.7420   26.7320   42.9000 C   0  0  0  0  0  0  0  0  0  0  0  0
   37.5830   26.1500   41.8540 C   0  0  1  0  0  0  0  0  0  0  0  0
   39.4920   26.2390   42.7010 H   0  0  0  0  0  0  0  0  0  0  0  0
   38.4580   28.7300   41.2180 H   0  0  0  0  0  0  0  0  0  0  0  0
   40.1090   28.4920   41.8120 H   0  0  0  0  0  0  0  0  0  0  0  0
   38.6260   29.5460   43.4840 H   0  0  0  0  0  0  0  0  0  0  0  0
   39.1060   27.8690   44.0900 H   0  0  0  0  0  0  0  0  0  0  0  0
   36.5760   28.8900   42.6870 H   0  0  0  0  0  0  0  0  0  0  0  0
   36.6790   28.2830   44.3800 H   0  0  0  0  0  0  0  0  0  0  0  0
   35.6720   26.7510   42.5260 H   0  0  0  0  0  0  0  0  0  0  0  0
   36.7020   26.1070   43.8110 H   0  0  0  0  0  0  0  0  0  0  0  0
   37.7290   25.0530   42.0960 H   0  0  0  0  0  0  0  0  0  0  0  0
   40.8310   26.4950   38.4800 C   0  0  0  0  0  0  0  0  0  0  0  0
   40.1640   26.9600   39.6230 C   0  0  0  0  0  0  0  0  0  0  0  0
   39.7010   26.1410   40.6370 C   0  0  0  0  0  0  0  0  0  0  0  0
   39.9280   24.8320   40.4700 N   0  0  0  0  0  0  0  0  0  0  0  0
   40.5680   24.3580   39.3790 C   0  0  0  0  0  0  0  0  0  0  0  0
   41.0130   25.1560   38.4040 N   0  0  0  0  0  0  0  0  0  0  0  0
   41.1740   27.1690   37.7100 H   0  0  0  0  0  0  0  0  0  0  0  0
   40.0570   28.0320   39.6310 H   0  0  0  0  0  0  0  0  0  0  0  0
   40.7700   23.2990   39.2090 H   0  0  0  0  0  0  0  0  0  0  0  0
   36.9480   26.1460   40.5380 C   0  0  0  0  0  0  0  0  0  0  0  0
   36.4730   25.0410   39.8360 C   0  0  0  0  0  0  0  0  0  0  0  0
   35.8900   25.2940   38.5960 C   0  0  0  0  0  0  0  0  0  0  0  0
   35.8260   26.6060   38.1570 C   0  0  0  0  0  0  0  0  0  0  0  0
   36.2950   27.6770   38.8520 C   0  0  0  0  0  0  0  0  0  0  0  0
   36.8650   27.4180   40.0680 N   0  0  0  0  0  0  0  0  0  0  0  0
   36.6040   24.0990   40.3280 H   0  0  0  0  0  0  0  0  0  0  0  0
   35.5250   24.4350   38.0560 H   0  0  0  0  0  0  0  0  0  0  0  0
   35.3550   26.7410   37.1810 H   0  0  0  0  0  0  0  0  0  0  0  0
   36.1770   29.0630   38.3430 C   0  0  0  0  0  0  0  0  0  0  0  0
   35.1060   29.3370   37.7050 O   0  0  0  0  0  0  0  0  0  0  0  0
   38.4510   30.2060   38.0360 C   0  0  0  0  0  3  0  0  0  0  0  0
   37.1580   30.1370   38.5080 C   0  0  0  0  0  0  0  0  0  0  0  0
   36.7470   31.2320   39.2900 C   0  0  0  0  0  0  0  0  0  0  0  0
   35.7210   31.2370   39.6930 H   0  0  0  0  0  0  0  0  0  0  0  0
   37.5060   32.3060   39.6010 C   0  0  0  0  0  0  0  0  0  0  0  0
   37.2810   33.4220   40.3330 N   0  0  0  0  0  0  0  0  0  0  0  0
   38.4260   34.1610   40.3100 C   0  0  0  0  0  0  0  0  0  0  0  0
   38.6000   35.1120   40.7910 H   0  0  0  0  0  0  0  0  0  0  0  0
   39.3450   33.4810   39.5560 N   0  0  0  0  0  0  0  0  0  0  0  0
   38.7920   32.3290   39.1100 C   0  0  0  0  0  0  0  0  0  0  0  0
   39.2810   31.2930   38.3250 C   0  0  0  0  0  3  0  0  0  0  0  0
   36.4020   33.6900   40.8300 H   0  0  0  0  0  0  0  0  0  0  0  0
  1  6  1  0  0  0  0
  1  2  1  0  0  0  0
  1  7  1  1  0  0  0
  2  3  1  0  0  0  0
  3  4  1  0  0  0  0
  3 10  1  0  0  0  0
  3 11  1  0  0  0  0
  4 13  1  0  0  0  0
  5  4  1  0  0  0  0
  5 15  1  0  0  0  0
  6 16  1  1  0  0  0
  6  5  1  0  0  0  0
  8  2  1  0  0  0  0
  9  2  1  0  0  0  0
 12  4  1  0  0  0  0
 14  5  1  0  0  0  0
 17 18  1  0  0  0  0
 18 24  1  0  0  0  0
 18 19  2  0  0  0  0
 19  1  1  0  0  0  0
 20 19  1  0  0  0  0
 21 20  2  0  0  0  0
 22 17  2  0  0  0  0
 22 21  1  0  0  0  0
 23 17  1  0  0  0  0
 25 21  1  0  0  0  0
 26  6  1  0  0  0  0
 27 32  1  0  0  0  0
 27 26  2  0  0  0  0
 28 27  1  0  0  0  0
 29 28  2  0  0  0  0
 29 30  1  0  0  0  0
 30 31  2  0  0  0  0
 31 26  1  0  0  0  0
 33 28  1  0  0  0  0
 34 29  1  0  0  0  0
 35 38  1  0  0  0  0
 35 30  1  0  0  0  0
 36 35  2  0  0  0  0
 37 47  2  0  0  0  0
 37 38  1  0  0  0  0
 38 39  2  0  0  0  0
 39 41  1  0  0  0  0
 39 40  1  0  0  0  0
 41 42  1  0  0  0  0
 42 48  1  0  0  0  0
 43 42  1  0  0  0  0
 43 44  1  0  0  0  0
 45 43  2  0  0  0  0
 46 45  1  0  0  0  0
 46 41  2  0  0  0  0
 47 46  1  0  0  0  0
M  END
>  <minimizedAffinity>
-6.46939421

$$$$

 OpenBabel03242516553D

 48 52  0  0  1  0  0  0  0  0999 V2000
   38.9800   24.8290   40.8150 C   0  0  1  0  0  0  0  0  0  0  0  0
   38.4430   23.6240   41.4540 C   0  0  0  0  0  0  0  0  0  0  0  0
   37.6840   22.8580   40.3600 C   0  0  0  0  0  0  0  0  0  0  0  0
   36.4560   23.6830   40.0400 C   0  0  0  0  0  0  0  0  0  0  0  0
   36.7380   25.1090   39.6700 C   0  0  0  0  0  0  0  0  0  0  0  0
   37.8600   25.7650   40.3410 C   0  0  1  0  0  0  0  0  0  0  0  0
   39.4730   24.5320   39.8460 H   0  0  0  0  0  0  0  0  0  0  0  0
   37.7750   23.7660   42.2950 H   0  0  0  0  0  0  0  0  0  0  0  0
   39.3060   23.0120   41.8220 H   0  0  0  0  0  0  0  0  0  0  0  0
   37.3380   21.9190   40.8010 H   0  0  0  0  0  0  0  0  0  0  0  0
   38.3330   22.7180   39.4660 H   0  0  0  0  0  0  0  0  0  0  0  0
   35.8030   23.6180   40.9480 H   0  0  0  0  0  0  0  0  0  0  0  0
   35.9130   23.1850   39.2040 H   0  0  0  0  0  0  0  0  0  0  0  0
   35.7950   25.6950   39.8980 H   0  0  0  0  0  0  0  0  0  0  0  0
   36.8210   25.1410   38.5690 H   0  0  0  0  0  0  0  0  0  0  0  0
   38.3760   26.4310   39.5830 H   0  0  0  0  0  0  0  0  0  0  0  0
   41.1840   25.9260   43.6790 C   0  0  0  0  0  0  0  0  0  0  0  0
   40.2500   25.2460   42.8830 C   0  0  0  0  0  0  0  0  0  0  0  0
   39.9610   25.5770   41.5730 C   0  0  0  0  0  0  0  0  0  0  0  0
   40.6410   26.6200   41.0790 N   0  0  0  0  0  0  0  0  0  0  0  0
   41.5450   27.2930   41.8230 C   0  0  0  0  0  0  0  0  0  0  0  0
   41.8190   26.9650   43.0890 N   0  0  0  0  0  0  0  0  0  0  0  0
   41.3770   25.6350   44.7010 H   0  0  0  0  0  0  0  0  0  0  0  0
   39.7850   24.4250   43.4040 H   0  0  0  0  0  0  0  0  0  0  0  0
   42.1160   28.1470   41.4550 H   0  0  0  0  0  0  0  0  0  0  0  0
   37.4430   26.6820   41.4000 C   0  0  0  0  0  0  0  0  0  0  0  0
   36.9580   26.3460   42.6610 C   0  0  0  0  0  0  0  0  0  0  0  0
   36.6380   27.4050   43.5080 C   0  0  0  0  0  0  0  0  0  0  0  0
   36.8220   28.6960   43.0420 C   0  0  0  0  0  0  0  0  0  0  0  0
   37.2960   29.0110   41.8070 C   0  0  0  0  0  0  0  0  0  0  0  0
   37.6070   27.9640   40.9830 N   0  0  0  0  0  0  0  0  0  0  0  0
   36.8810   25.2960   42.8540 H   0  0  0  0  0  0  0  0  0  0  0  0
   36.2620   27.1390   44.4830 H   0  0  0  0  0  0  0  0  0  0  0  0
   36.5590   29.4830   43.7530 H   0  0  0  0  0  0  0  0  0  0  0  0
   37.4960   30.4130   41.3710 C   0  0  0  0  0  0  0  0  0  0  0  0
   36.4370   31.0830   41.1330 O   0  0  0  0  0  0  0  0  0  0  0  0
   39.2470   31.7920   40.1050 C   0  0  0  0  0  3  0  0  0  0  0  0
   38.7800   31.0940   41.1970 C   0  0  0  0  0  0  0  0  0  0  0  0
   39.6830   30.9900   42.2710 C   0  0  0  0  0  0  0  0  0  0  0  0
   39.3650   30.4470   43.1760 H   0  0  0  0  0  0  0  0  0  0  0  0
   40.9320   31.5060   42.3040 C   0  0  0  0  0  0  0  0  0  0  0  0
   41.9190   31.4940   43.2300 N   0  0  0  0  0  0  0  0  0  0  0  0
   42.9770   32.1750   42.7050 C   0  0  0  0  0  0  0  0  0  0  0  0
   43.9320   32.3600   43.1730 H   0  0  0  0  0  0  0  0  0  0  0  0
   42.6180   32.6000   41.4530 N   0  0  0  0  0  0  0  0  0  0  0  0
   41.3550   32.1930   41.1880 C   0  0  0  0  0  0  0  0  0  0  0  0
   40.5300   32.3490   40.0820 C   0  0  0  0  0  3  0  0  0  0  0  0
   41.8960   31.0540   44.1770 H   0  0  0  0  0  0  0  0  0  0  0  0
  1  7  1  6  0  0  0
  1  2  1  0  0  0  0
  1 19  1  0  0  0  0
  2  9  1  0  0  0  0
  2  8  1  0  0  0  0
  3 10  1  0  0  0  0
  3  2  1  0  0  0  0
  4  3  1  0  0  0  0
  4 12  1  0  0  0  0
  5 14  1  0  0  0  0
  5  4  1  0  0  0  0
  5  6  1  0  0  0  0
  6 16  1  6  0  0  0
  6  1  1  0  0  0  0
  6 26  1  0  0  0  0
 11  3  1  0  0  0  0
 13  4  1  0  0  0  0
 15  5  1  0  0  0  0
 17 23  1  0  0  0  0
 18 24  1  0  0  0  0
 18 17  2  0  0  0  0
 19 18  1  0  0  0  0
 20 19  2  0  0  0  0
 20 21  1  0  0  0  0
 21 22  2  0  0  0  0
 22 17  1  0  0  0  0
 25 21  1  0  0  0  0
 26 27  1  0  0  0  0
 27 32  1  0  0  0  0
 27 28  2  0  0  0  0
 28 33  1  0  0  0  0
 29 28  1  0  0  0  0
 29 34  1  0  0  0  0
 30 29  2  0  0  0  0
 31 26  2  0  0  0  0
 31 30  1  0  0  0  0
 35 30  1  0  0  0  0
 36 35  2  0  0  0  0
 37 38  1  0  0  0  0
 38 35  1  0  0  0  0
 38 39  2  0  0  0  0
 39 41  1  0  0  0  0
 39 40  1  0  0  0  0
 41 42  1  0  0  0  0
 42 48  1  0  0  0  0
 43 44  1  0  0  0  0
 43 42  1  0  0  0  0
 45 43  2  0  0  0  0
 46 45  1  0  0  0  0
 46 41  2  0  0  0  0
 47 37  2  0  0  0  0
 47 46  1  0  0  0  0
M  END
>  <minimizedAffinity>
-6.44330502

$$$$

 OpenBabel03242516553D

 48 52  0  0  1  0  0  0  0  0999 V2000
   37.3530   30.2520   38.7150 C   0  0  1  0  0  0  0  0  0  0  0  0
   36.9730   28.8370   38.6570 C   0  0  0  0  0  0  0  0  0  0  0  0
   35.4590   28.7870   38.9100 C   0  0  0  0  0  0  0  0  0  0  0  0
   35.2600   29.1630   40.3630 C   0  0  0  0  0  0  0  0  0  0  0  0
   35.8790   30.4680   40.7630 C   0  0  0  0  0  0  0  0  0  0  0  0
   37.1370   30.8390   40.1160 C   0  0  1  0  0  0  0  0  0  0  0  0
   36.6250   30.8450   38.0900 H   0  0  0  0  0  0  0  0  0  0  0  0
   37.4560   28.1660   39.3570 H   0  0  0  0  0  0  0  0  0  0  0  0
   37.2020   28.4570   37.6280 H   0  0  0  0  0  0  0  0  0  0  0  0
   35.1440   27.7460   38.7990 H   0  0  0  0  0  0  0  0  0  0  0  0
   34.9290   29.4880   38.2260 H   0  0  0  0  0  0  0  0  0  0  0  0
   35.6830   28.3110   40.9570 H   0  0  0  0  0  0  0  0  0  0  0  0
   34.1640   29.1960   40.5660 H   0  0  0  0  0  0  0  0  0  0  0  0
   36.0560   30.4150   41.8820 H   0  0  0  0  0  0  0  0  0  0  0  0
   35.0970   31.2400   40.6470 H   0  0  0  0  0  0  0  0  0  0  0  0
   37.1180   31.9570   39.9340 H   0  0  0  0  0  0  0  0  0  0  0  0
   40.9570   29.8510   37.6590 C   0  0  0  0  0  0  0  0  0  0  0  0
   39.6510   29.6060   38.1080 C   0  0  0  0  0  0  0  0  0  0  0  0
   38.6800   30.5820   38.2390 C   0  0  0  0  0  0  0  0  0  0  0  0
   39.0600   31.8220   37.9040 N   0  0  0  0  0  0  0  0  0  0  0  0
   40.3110   32.0860   37.4690 C   0  0  0  0  0  0  0  0  0  0  0  0
   41.2430   31.1360   37.3440 N   0  0  0  0  0  0  0  0  0  0  0  0
   41.6860   29.0590   37.5740 H   0  0  0  0  0  0  0  0  0  0  0  0
   39.4810   28.5660   38.3340 H   0  0  0  0  0  0  0  0  0  0  0  0
   40.6560   33.0820   37.1880 H   0  0  0  0  0  0  0  0  0  0  0  0
   38.3070   30.6350   40.9690 C   0  0  0  0  0  0  0  0  0  0  0  0
   39.2570   31.5850   41.3360 C   0  0  0  0  0  0  0  0  0  0  0  0
   40.2800   31.1500   42.1750 C   0  0  0  0  0  0  0  0  0  0  0  0
   40.2810   29.8240   42.5760 C   0  0  0  0  0  0  0  0  0  0  0  0
   39.3480   28.9050   42.2080 C   0  0  0  0  0  0  0  0  0  0  0  0
   38.3470   29.3420   41.3850 N   0  0  0  0  0  0  0  0  0  0  0  0
   39.1000   32.5640   40.9350 H   0  0  0  0  0  0  0  0  0  0  0  0
   41.0140   31.8890   42.4560 H   0  0  0  0  0  0  0  0  0  0  0  0
   41.1050   29.5440   43.2360 H   0  0  0  0  0  0  0  0  0  0  0  0
   39.3860   27.5040   42.6890 C   0  0  0  0  0  0  0  0  0  0  0  0
   40.1560   27.2720   43.6790 O   0  0  0  0  0  0  0  0  0  0  0  0
   37.3460   25.9690   42.4540 C   0  0  0  0  0  3  0  0  0  0  0  0
   38.6260   26.3780   42.1450 C   0  0  0  0  0  0  0  0  0  0  0  0
   39.3020   25.5720   41.2110 C   0  0  0  0  0  0  0  0  0  0  0  0
   40.3280   25.8500   40.9200 H   0  0  0  0  0  0  0  0  0  0  0  0
   38.8030   24.4640   40.6190 C   0  0  0  0  0  0  0  0  0  0  0  0
   39.3060   23.5820   39.7240 N   0  0  0  0  0  0  0  0  0  0  0  0
   38.3440   22.6430   39.4940 C   0  0  0  0  0  0  0  0  0  0  0  0
   38.4060   21.7920   38.8330 H   0  0  0  0  0  0  0  0  0  0  0  0
   37.2540   22.9690   40.2570 N   0  0  0  0  0  0  0  0  0  0  0  0
   37.5220   24.0930   40.9610 C   0  0  0  0  0  0  0  0  0  0  0  0
   36.7780   24.8310   41.8720 C   0  0  0  0  0  3  0  0  0  0  0  0
   40.2510   23.5970   39.2790 H   0  0  0  0  0  0  0  0  0  0  0  0
  1  7  1  6  0  0  0
  1  6  1  0  0  0  0
  2  1  1  0  0  0  0
  2  3  1  0  0  0  0
  2  8  1  0  0  0  0
  3  4  1  0  0  0  0
  4 13  1  0  0  0  0
  4  5  1  0  0  0  0
  4 12  1  0  0  0  0
  5 14  1  0  0  0  0
  6 16  1  6  0  0  0
  6  5  1  0  0  0  0
  6 26  1  0  0  0  0
  9  2  1  0  0  0  0
 10  3  1  0  0  0  0
 11  3  1  0  0  0  0
 15  5  1  0  0  0  0
 17 18  1  0  0  0  0
 18 19  2  0  0  0  0
 18 24  1  0  0  0  0
 19  1  1  0  0  0  0
 20 19  1  0  0  0  0
 21 20  2  0  0  0  0
 22 21  1  0  0  0  0
 22 17  2  0  0  0  0
 23 17  1  0  0  0  0
 25 21  1  0  0  0  0
 26 27  2  0  0  0  0
 26 31  1  0  0  0  0
 27 28  1  0  0  0  0
 28 33  1  0  0  0  0
 28 29  2  0  0  0  0
 29 34  1  0  0  0  0
 30 29  1  0  0  0  0
 30 35  1  0  0  0  0
 31 30  2  0  0  0  0
 32 27  1  0  0  0  0
 35 36  2  0  0  0  0
 38 37  1  0  0  0  0
 38 35  1  0  0  0  0
 39 38  2  0  0  0  0
 40 39  1  0  0  0  0
 41 46  2  0  0  0  0
 41 39  1  0  0  0  0
 42 41  1  0  0  0  0
 43 42  1  0  0  0  0
 43 45  2  0  0  0  0
 44 43  1  0  0  0  0
 45 46  1  0  0  0  0
 46 47  1  0  0  0  0
 47 37  2  0  0  0  0
 48 42  1  0  0  0  0
M  END
>  <minimizedAffinity>
-6.31237125

$$$$

 OpenBabel03242516553D

 48 52  0  0  1  0  0  0  0  0999 V2000
   36.9380   31.0020   39.4470 C   0  0  1  0  0  0  0  0  0  0  0  0
   37.0080   29.9490   38.4290 C   0  0  0  0  0  0  0  0  0  0  0  0
   35.6240   29.2840   38.3990 C   0  0  0  0  0  0  0  0  0  0  0  0
   35.4890   28.5280   39.7030 C   0  0  0  0  0  0  0  0  0  0  0  0
   35.7170   29.3540   40.9340 C   0  0  0  0  0  0  0  0  0  0  0  0
   36.7160   30.4190   40.8490 C   0  0  1  0  0  0  0  0  0  0  0  0
   35.9950   31.5980   39.2810 H   0  0  0  0  0  0  0  0  0  0  0  0
   37.7530   29.1740   38.5690 H   0  0  0  0  0  0  0  0  0  0  0  0
   37.2230   30.4330   37.4420 H   0  0  0  0  0  0  0  0  0  0  0  0
   35.6350   28.5440   37.5950 H   0  0  0  0  0  0  0  0  0  0  0  0
   34.8290   30.0550   38.2840 H   0  0  0  0  0  0  0  0  0  0  0  0
   36.2200   27.6810   39.6380 H   0  0  0  0  0  0  0  0  0  0  0  0
   34.4680   28.0820   39.7420 H   0  0  0  0  0  0  0  0  0  0  0  0
   36.0310   28.6360   41.7530 H   0  0  0  0  0  0  0  0  0  0  0  0
   34.7280   29.7220   41.2580 H   0  0  0  0  0  0  0  0  0  0  0  0
   36.3310   31.3040   41.4450 H   0  0  0  0  0  0  0  0  0  0  0  0
   38.8990   34.1580   40.1170 C   0  0  0  0  0  0  0  0  0  0  0  0
   37.8860   33.1900   40.0580 C   0  0  0  0  0  0  0  0  0  0  0  0
   38.0340   31.9470   39.4720 C   0  0  0  0  0  0  0  0  0  0  0  0
   39.2380   31.7010   38.9390 N   0  0  0  0  0  0  0  0  0  0  0  0
   40.2310   32.6160   38.9800 C   0  0  0  0  0  0  0  0  0  0  0  0
   40.0790   33.8140   39.5510 N   0  0  0  0  0  0  0  0  0  0  0  0
   38.7400   35.1190   40.5830 H   0  0  0  0  0  0  0  0  0  0  0  0
   36.9750   33.5180   40.5320 H   0  0  0  0  0  0  0  0  0  0  0  0
   41.2230   32.4500   38.5570 H   0  0  0  0  0  0  0  0  0  0  0  0
   37.9820   30.0760   41.4940 C   0  0  0  0  0  0  0  0  0  0  0  0
   38.8530   30.9410   42.1520 C   0  0  0  0  0  0  0  0  0  0  0  0
   39.9990   30.3710   42.7020 C   0  0  0  0  0  0  0  0  0  0  0  0
   40.1890   29.0070   42.5550 C   0  0  0  0  0  0  0  0  0  0  0  0
   39.3310   28.1740   41.9070 C   0  0  0  0  0  0  0  0  0  0  0  0
   38.2090   28.7420   41.3720 N   0  0  0  0  0  0  0  0  0  0  0  0
   38.5470   31.9660   42.1720 H   0  0  0  0  0  0  0  0  0  0  0  0
   40.6700   31.0450   43.2100 H   0  0  0  0  0  0  0  0  0  0  0  0
   41.1020   28.6190   43.0100 H   0  0  0  0  0  0  0  0  0  0  0  0
   39.5740   26.7160   41.8020 C   0  0  0  0  0  0  0  0  0  0  0  0
   40.7390   26.3150   42.1370 O   0  0  0  0  0  0  0  0  0  0  0  0
   37.3840   25.3870   41.9030 C   0  0  0  0  0  3  0  0  0  0  0  0
   38.6120   25.7040   41.3640 C   0  0  0  0  0  0  0  0  0  0  0  0
   39.0070   24.9120   40.2690 C   0  0  0  0  0  0  0  0  0  0  0  0
   39.9780   25.1190   39.7920 H   0  0  0  0  0  0  0  0  0  0  0  0
   38.2920   23.8980   39.7320 C   0  0  0  0  0  0  0  0  0  0  0  0
   38.5180   23.0440   38.7070 N   0  0  0  0  0  0  0  0  0  0  0  0
   37.4390   22.2130   38.6250 C   0  0  0  0  0  0  0  0  0  0  0  0
   37.2850   21.4100   37.9200 H   0  0  0  0  0  0  0  0  0  0  0  0
   36.5590   22.5760   39.6100 N   0  0  0  0  0  0  0  0  0  0  0  0
   37.0730   23.6180   40.3060 C   0  0  0  0  0  0  0  0  0  0  0  0
   36.6000   24.3500   41.3880 C   0  0  0  0  0  3  0  0  0  0  0  0
   39.3530   23.0090   38.0800 H   0  0  0  0  0  0  0  0  0  0  0  0
  1  7  1  6  0  0  0
  1 19  1  0  0  0  0
  1  6  1  0  0  0  0
  2  8  1  0  0  0  0
  2  1  1  0  0  0  0
  3  2  1  0  0  0  0
  3  4  1  0  0  0  0
  4 13  1  0  0  0  0
  4  5  1  0  0  0  0
  5 15  1  0  0  0  0
  5 14  1  0  0  0  0
  6  5  1  0  0  0  0
  6 16  1  1  0  0  0
  6 26  1  0  0  0  0
  9  2  1  0  0  0  0
 10  3  1  0  0  0  0
 11  3  1  0  0  0  0
 12  4  1  0  0  0  0
 17 23  1  0  0  0  0
 18 17  1  0  0  0  0
 18 24  1  0  0  0  0
 19 18  2  0  0  0  0
 20 21  2  0  0  0  0
 20 19  1  0  0  0  0
 21 22  1  0  0  0  0
 22 17  2  0  0  0  0
 25 21  1  0  0  0  0
 26 27  1  0  0  0  0
 27 32  1  0  0  0  0
 27 28  2  0  0  0  0
 28 33  1  0  0  0  0
 29 28  1  0  0  0  0
 29 34  1  0  0  0  0
 30 29  2  0  0  0  0
 31 26  2  0  0  0  0
 31 30  1  0  0  0  0
 35 30  1  0  0  0  0
 35 36  2  0  0  0  0
 38 35  1  0  0  0  0
 38 37  2  0  0  0  0
 39 38  1  0  0  0  0
 40 39  1  0  0  0  0
 41 39  2  0  0  0  0
 41 46  1  0  0  0  0
 42 41  1  0  0  0  0
 43 42  1  0  0  0  0
 43 45  2  0  0  0  0
 44 43  1  0  0  0  0
 45 46  1  0  0  0  0
 46 47  2  0  0  0  0
 47 37  1  0  0  0  0
 48 42  1  0  0  0  0
M  END
>  <minimizedAffinity>
-6.31101179

$$$$

 OpenBabel03242516553D

 48 52  0  0  1  0  0  0  0  0999 V2000
   36.8160   30.3330   39.3890 C   0  0  1  0  0  0  0  0  0  0  0  0
   36.8600   29.4250   38.2400 C   0  0  0  0  0  0  0  0  0  0  0  0
   35.4440   29.4110   37.6460 C   0  0  0  0  0  0  0  0  0  0  0  0
   34.5710   28.6900   38.6510 C   0  0  0  0  0  0  0  0  0  0  0  0
   34.6200   29.2510   40.0410 C   0  0  0  0  0  0  0  0  0  0  0  0
   35.8970   29.7990   40.4970 C   0  0  1  0  0  0  0  0  0  0  0  0
   36.2920   31.2820   39.0770 H   0  0  0  0  0  0  0  0  0  0  0  0
   37.1590   28.4010   38.4290 H   0  0  0  0  0  0  0  0  0  0  0  0
   37.5840   29.8430   37.4930 H   0  0  0  0  0  0  0  0  0  0  0  0
   35.4750   28.7950   36.7430 H   0  0  0  0  0  0  0  0  0  0  0  0
   35.0910   30.4510   37.4640 H   0  0  0  0  0  0  0  0  0  0  0  0
   34.9060   27.6210   38.6310 H   0  0  0  0  0  0  0  0  0  0  0  0
   33.5200   28.7150   38.2790 H   0  0  0  0  0  0  0  0  0  0  0  0
   34.3220   28.4110   40.7410 H   0  0  0  0  0  0  0  0  0  0  0  0
   33.7920   29.9790   40.1190 H   0  0  0  0  0  0  0  0  0  0  0  0
   35.6770   30.7180   41.1230 H   0  0  0  0  0  0  0  0  0  0  0  0
   40.4960   30.2870   40.2340 C   0  0  0  0  0  0  0  0  0  0  0  0
   39.2290   29.9730   39.7210 C   0  0  0  0  0  0  0  0  0  0  0  0
   38.0910   30.7240   39.9510 C   0  0  0  0  0  0  0  0  0  0  0  0
   38.2620   31.8080   40.7190 N   0  0  0  0  0  0  0  0  0  0  0  0
   39.4710   32.1340   41.2260 C   0  0  0  0  0  0  0  0  0  0  0  0
   40.5650   31.4020   40.9980 N   0  0  0  0  0  0  0  0  0  0  0  0
   41.3590   29.6710   40.0320 H   0  0  0  0  0  0  0  0  0  0  0  0
   39.2390   29.0820   39.1150 H   0  0  0  0  0  0  0  0  0  0  0  0
   39.6470   33.0070   41.8560 H   0  0  0  0  0  0  0  0  0  0  0  0
   36.6150   28.9090   41.4060 C   0  0  0  0  0  0  0  0  0  0  0  0
   37.2320   29.2510   42.6070 C   0  0  0  0  0  0  0  0  0  0  0  0
   37.8460   28.2170   43.3090 C   0  0  0  0  0  0  0  0  0  0  0  0
   37.8000   26.9410   42.7710 C   0  0  0  0  0  0  0  0  0  0  0  0
   37.1940   26.6200   41.5960 C   0  0  0  0  0  0  0  0  0  0  0  0
   36.5950   27.6430   40.9140 N   0  0  0  0  0  0  0  0  0  0  0  0
   37.1690   30.2870   42.8720 H   0  0  0  0  0  0  0  0  0  0  0  0
   38.3230   28.4870   44.2380 H   0  0  0  0  0  0  0  0  0  0  0  0
   38.2940   26.1720   43.3690 H   0  0  0  0  0  0  0  0  0  0  0  0
   37.1550   25.2310   41.0810 C   0  0  0  0  0  0  0  0  0  0  0  0
   37.8240   24.3690   41.7420 O   0  0  0  0  0  0  0  0  0  0  0  0
   36.3210   25.3440   38.6600 C   0  0  0  0  0  3  0  0  0  0  0  0
   36.4230   24.7610   39.9050 C   0  0  0  0  0  0  0  0  0  0  0  0
   35.6830   23.5750   40.0730 C   0  0  0  0  0  0  0  0  0  0  0  0
   35.7280   23.0600   41.0460 H   0  0  0  0  0  0  0  0  0  0  0  0
   34.9070   22.9910   39.1320 C   0  0  0  0  0  0  0  0  0  0  0  0
   34.1360   21.8790   39.1240 N   0  0  0  0  0  0  0  0  0  0  0  0
   33.5670   21.7880   37.8880 C   0  0  0  0  0  0  0  0  0  0  0  0
   32.8940   21.0220   37.5330 H   0  0  0  0  0  0  0  0  0  0  0  0
   34.0050   22.8550   37.1490 N   0  0  0  0  0  0  0  0  0  0  0  0
   34.8350   23.6110   37.9050 C   0  0  0  0  0  0  0  0  0  0  0  0
   35.5340   24.7840   37.6480 C   0  0  0  0  0  3  0  0  0  0  0  0
   33.9890   21.2020   39.9060 H   0  0  0  0  0  0  0  0  0  0  0  0
  1  7  1  6  0  0  0
  1 19  1  0  0  0  0
  1  6  1  0  0  0  0
  2  8  1  0  0  0  0
  2  1  1  0  0  0  0
  3  2  1  0  0  0  0
  3  4  1  0  0  0  0
  4  5  1  0  0  0  0
  5 15  1  0  0  0  0
  5  6  1  0  0  0  0
  5 14  1  0  0  0  0
  6 16  1  1  0  0  0
  6 26  1  0  0  0  0
  9  2  1  0  0  0  0
 10  3  1  0  0  0  0
 11  3  1  0  0  0  0
 12  4  1  0  0  0  0
 13  4  1  0  0  0  0
 17 22  1  0  0  0  0
 18 19  1  0  0  0  0
 18 17  2  0  0  0  0
 19 20  2  0  0  0  0
 20 21  1  0  0  0  0
 21 25  1  0  0  0  0
 22 21  2  0  0  0  0
 23 17  1  0  0  0  0
 24 18  1  0  0  0  0
 26 27  1  0  0  0  0
 27 32  1  0  0  0  0
 27 28  2  0  0  0  0
 28 33  1  0  0  0  0
 29 28  1  0  0  0  0
 29 34  1  0  0  0  0
 30 29  2  0  0  0  0
 31 26  2  0  0  0  0
 31 30  1  0  0  0  0
 35 30  1  0  0  0  0
 35 36  2  0  0  0  0
 37 38  1  0  0  0  0
 38 39  2  0  0  0  0
 38 35  1  0  0  0  0
 39 40  1  0  0  0  0
 41 39  1  0  0  0  0
 42 41  1  0  0  0  0
 42 48  1  0  0  0  0
 43 42  1  0  0  0  0
 44 43  1  0  0  0  0
 45 43  2  0  0  0  0
 45 46  1  0  0  0  0
 46 41  2  0  0  0  0
 47 46  1  0  0  0  0
 47 37  2  0  0  0  0
M  END
>  <minimizedAffinity>
-6.3048048

$$$$

 OpenBabel03242516553D

 48 52  0  0  1  0  0  0  0  0999 V2000
   37.8440   26.1870   41.1980 C   0  0  1  0  0  0  0  0  0  0  0  0
   39.2780   26.4230   41.3890 C   0  0  0  0  0  0  0  0  0  0  0  0
   39.5780   26.0950   42.8590 C   0  0  0  0  0  0  0  0  0  0  0  0
   38.9130   27.1790   43.6800 C   0  0  0  0  0  0  0  0  0  0  0  0
   37.4500   27.3650   43.4060 C   0  0  0  0  0  0  0  0  0  0  0  0
   36.9940   27.1560   42.0320 C   0  0  1  0  0  0  0  0  0  0  0  0
   37.5820   25.1870   41.6490 H   0  0  0  0  0  0  0  0  0  0  0  0
   39.6460   27.4220   41.1830 H   0  0  0  0  0  0  0  0  0  0  0  0
   39.8380   25.7230   40.7170 H   0  0  0  0  0  0  0  0  0  0  0  0
   40.6570   26.1950   43.0010 H   0  0  0  0  0  0  0  0  0  0  0  0
   39.1860   25.0840   43.1160 H   0  0  0  0  0  0  0  0  0  0  0  0
   39.4910   28.1160   43.4670 H   0  0  0  0  0  0  0  0  0  0  0  0
   39.0590   26.9370   44.7580 H   0  0  0  0  0  0  0  0  0  0  0  0
   37.1960   28.4280   43.7070 H   0  0  0  0  0  0  0  0  0  0  0  0
   36.9080   26.7370   44.1340 H   0  0  0  0  0  0  0  0  0  0  0  0
   35.9820   26.6500   42.0750 H   0  0  0  0  0  0  0  0  0  0  0  0
   35.7690   25.3250   38.1630 C   0  0  0  0  0  0  0  0  0  0  0  0
   36.2800   25.3980   39.4670 C   0  0  0  0  0  0  0  0  0  0  0  0
   37.3710   26.1660   39.8300 C   0  0  0  0  0  0  0  0  0  0  0  0
   37.9400   26.8640   38.8380 N   0  0  0  0  0  0  0  0  0  0  0  0
   37.4680   26.8120   37.5730 C   0  0  0  0  0  0  0  0  0  0  0  0
   36.4130   26.0670   37.2320 N   0  0  0  0  0  0  0  0  0  0  0  0
   34.9150   24.7100   37.9220 H   0  0  0  0  0  0  0  0  0  0  0  0
   35.7220   24.7950   40.1630 H   0  0  0  0  0  0  0  0  0  0  0  0
   37.9070   27.3650   36.7420 H   0  0  0  0  0  0  0  0  0  0  0  0
   36.7420   28.4030   41.3110 C   0  0  0  0  0  0  0  0  0  0  0  0
   35.5660   28.7790   40.6670 C   0  0  0  0  0  0  0  0  0  0  0  0
   35.5630   30.0310   40.0570 C   0  0  0  0  0  0  0  0  0  0  0  0
   36.7120   30.8010   40.1350 C   0  0  0  0  0  0  0  0  0  0  0  0
   37.8550   30.4210   40.7670 C   0  0  0  0  0  0  0  0  0  0  0  0
   37.8480   29.1900   41.3620 N   0  0  0  0  0  0  0  0  0  0  0  0
   34.7740   28.0590   40.7080 H   0  0  0  0  0  0  0  0  0  0  0  0
   34.6510   30.3180   39.5590 H   0  0  0  0  0  0  0  0  0  0  0  0
   36.6470   31.7740   39.6430 H   0  0  0  0  0  0  0  0  0  0  0  0
   39.0470   31.2990   40.8390 C   0  0  0  0  0  0  0  0  0  0  0  0
   39.4450   31.6090   42.0110 O   0  0  0  0  0  0  0  0  0  0  0  0
   39.5900   31.6410   38.3570 C   0  0  0  0  0  3  0  0  0  0  0  0
   39.8050   31.8290   39.7060 C   0  0  0  0  0  0  0  0  0  0  0  0
   40.9360   32.6010   40.0290 C   0  0  0  0  0  0  0  0  0  0  0  0
   41.1600   32.7910   41.0910 H   0  0  0  0  0  0  0  0  0  0  0  0
   41.7960   33.1500   39.1410 C   0  0  0  0  0  0  0  0  0  0  0  0
   42.9160   33.8970   39.2720 N   0  0  0  0  0  0  0  0  0  0  0  0
   43.3800   34.1590   38.0170 C   0  0  0  0  0  0  0  0  0  0  0  0
   44.2560   34.7310   37.7490 H   0  0  0  0  0  0  0  0  0  0  0  0
   42.5270   33.5630   37.1260 N   0  0  0  0  0  0  0  0  0  0  0  0
   41.5410   32.9330   37.8050 C   0  0  0  0  0  0  0  0  0  0  0  0
   40.4450   32.1850   37.3930 C   0  0  0  0  0  3  0  0  0  0  0  0
   43.3610   34.2260   40.1580 H   0  0  0  0  0  0  0  0  0  0  0  0
  1  2  1  0  0  0  0
  1  7  1  1  0  0  0
  1  6  1  0  0  0  0
  2  3  1  0  0  0  0
  3 10  1  0  0  0  0
  3 11  1  0  0  0  0
  3  4  1  0  0  0  0
  4 13  1  0  0  0  0
  5  4  1  0  0  0  0
  5 14  1  0  0  0  0
  5 15  1  0  0  0  0
  6 16  1  1  0  0  0
  6  5  1  0  0  0  0
  8  2  1  0  0  0  0
  9  2  1  0  0  0  0
 12  4  1  0  0  0  0
 17 18  1  0  0  0  0
 18 19  2  0  0  0  0
 18 24  1  0  0  0  0
 19  1  1  0  0  0  0
 20 19  1  0  0  0  0
 21 20  2  0  0  0  0
 22 21  1  0  0  0  0
 22 17  2  0  0  0  0
 23 17  1  0  0  0  0
 25 21  1  0  0  0  0
 26 31  1  0  0  0  0
 26  6  1  0  0  0  0
 27 32  1  0  0  0  0
 27 26  2  0  0  0  0
 28 29  2  0  0  0  0
 28 27  1  0  0  0  0
 29 30  1  0  0  0  0
 30 35  1  0  0  0  0
 30 31  2  0  0  0  0
 33 28  1  0  0  0  0
 34 29  1  0  0  0  0
 35 36  2  0  0  0  0
 37 38  1  0  0  0  0
 38 39  2  0  0  0  0
 38 35  1  0  0  0  0
 39 40  1  0  0  0  0
 41 42  1  0  0  0  0
 41 39  1  0  0  0  0
 42 48  1  0  0  0  0
 43 42  1  0  0  0  0
 44 43  1  0  0  0  0
 45 46  1  0  0  0  0
 45 43  2  0  0  0  0
 46 41  2  0  0  0  0
 47 46  1  0  0  0  0
 47 37  2  0  0  0  0
M  END
>  <minimizedAffinity>
-6.28948641

$$$$

 OpenBabel03242516553D

 48 52  0  0  1  0  0  0  0  0999 V2000
   36.7510   30.6030   39.3080 C   0  0  1  0  0  0  0  0  0  0  0  0
   36.8850   29.6760   38.1810 C   0  0  0  0  0  0  0  0  0  0  0  0
   35.4710   29.4760   37.6160 C   0  0  0  0  0  0  0  0  0  0  0  0
   34.7070   28.6840   38.6560 C   0  0  0  0  0  0  0  0  0  0  0  0
   34.7120   29.2860   40.0290 C   0  0  0  0  0  0  0  0  0  0  0  0
   35.9210   29.9950   40.4470 C   0  0  1  0  0  0  0  0  0  0  0  0
   36.1120   31.4740   38.9820 H   0  0  0  0  0  0  0  0  0  0  0  0
   37.3080   28.7000   38.3910 H   0  0  0  0  0  0  0  0  0  0  0  0
   37.5420   30.1570   37.4100 H   0  0  0  0  0  0  0  0  0  0  0  0
   35.5620   28.8430   36.7290 H   0  0  0  0  0  0  0  0  0  0  0  0
   34.9940   30.4610   37.4140 H   0  0  0  0  0  0  0  0  0  0  0  0
   35.1690   27.6620   38.6570 H   0  0  0  0  0  0  0  0  0  0  0  0
   33.6560   28.5730   38.3040 H   0  0  0  0  0  0  0  0  0  0  0  0
   34.5290   28.4360   40.7570 H   0  0  0  0  0  0  0  0  0  0  0  0
   33.8040   29.9110   40.1060 H   0  0  0  0  0  0  0  0  0  0  0  0
   35.6030   30.8980   41.0530 H   0  0  0  0  0  0  0  0  0  0  0  0
   40.4250   31.0270   40.0710 C   0  0  0  0  0  0  0  0  0  0  0  0
   39.1970   30.5500   39.5920 C   0  0  0  0  0  0  0  0  0  0  0  0
   37.9800   31.1590   39.8340 C   0  0  0  0  0  0  0  0  0  0  0  0
   38.0310   32.2710   40.5800 N   0  0  0  0  0  0  0  0  0  0  0  0
   39.2000   32.7530   41.0550 C   0  0  0  0  0  0  0  0  0  0  0  0
   40.3710   32.1570   40.8140 N   0  0  0  0  0  0  0  0  0  0  0  0
   41.3540   30.5180   39.8600 H   0  0  0  0  0  0  0  0  0  0  0  0
   39.3050   29.6550   39.0010 H   0  0  0  0  0  0  0  0  0  0  0  0
   39.2790   33.6530   41.6650 H   0  0  0  0  0  0  0  0  0  0  0  0
   36.7560   29.2220   41.3640 C   0  0  0  0  0  0  0  0  0  0  0  0
   37.3250   29.6610   42.5570 C   0  0  0  0  0  0  0  0  0  0  0  0
   38.0740   28.7280   43.2700 C   0  0  0  0  0  0  0  0  0  0  0  0
   38.1990   27.4510   42.7490 C   0  0  0  0  0  0  0  0  0  0  0  0
   37.6400   27.0350   41.5820 C   0  0  0  0  0  0  0  0  0  0  0  0
   36.9060   27.9580   40.8890 N   0  0  0  0  0  0  0  0  0  0  0  0
   37.1230   30.6820   42.8090 H   0  0  0  0  0  0  0  0  0  0  0  0
   38.5130   29.0730   44.1930 H   0  0  0  0  0  0  0  0  0  0  0  0
   38.7940   26.7640   43.3550 H   0  0  0  0  0  0  0  0  0  0  0  0
   37.7870   25.6470   41.0850 C   0  0  0  0  0  0  0  0  0  0  0  0
   38.8480   25.0340   41.4410 O   0  0  0  0  0  0  0  0  0  0  0  0
   36.1980   23.7250   40.4930 C   0  0  0  0  0  3  0  0  0  0  0  0
   36.8370   24.9200   40.2420 C   0  0  0  0  0  0  0  0  0  0  0  0
   36.5670   25.4910   38.9850 C   0  0  0  0  0  0  0  0  0  0  0  0
   37.0450   26.4500   38.7270 H   0  0  0  0  0  0  0  0  0  0  0  0
   35.7560   24.9660   38.0390 C   0  0  0  0  0  0  0  0  0  0  0  0
   35.3970   25.3650   36.7970 N   0  0  0  0  0  0  0  0  0  0  0  0
   34.5500   24.4210   36.2950 C   0  0  0  0  0  0  0  0  0  0  0  0
   34.0720   24.4210   35.3270 H   0  0  0  0  0  0  0  0  0  0  0  0
   34.4010   23.4480   37.2470 N   0  0  0  0  0  0  0  0  0  0  0  0
   35.1420   23.7690   38.3330 C   0  0  0  0  0  0  0  0  0  0  0  0
   35.3470   23.1350   39.5520 C   0  0  0  0  0  3  0  0  0  0  0  0
   35.6970   26.2320   36.2960 H   0  0  0  0  0  0  0  0  0  0  0  0
  1  7  1  6  0  0  0
  1 19  1  0  0  0  0
  1  6  1  0  0  0  0
  2  8  1  0  0  0  0
  2  1  1  0  0  0  0
  3  2  1  0  0  0  0
  3  4  1  0  0  0  0
  4 12  1  0  0  0  0
  4  5  1  0  0  0  0
  5 15  1  0  0  0  0
  5  6  1  0  0  0  0
  5 14  1  0  0  0  0
  6 16  1  1  0  0  0
  6 26  1  0  0  0  0
  9  2  1  0  0  0  0
 10  3  1  0  0  0  0
 11  3  1  0  0  0  0
 13  4  1  0  0  0  0
 17 22  1  0  0  0  0
 18 19  1  0  0  0  0
 18 17  2  0  0  0  0
 19 20  2  0  0  0  0
 20 21  1  0  0  0  0
 21 25  1  0  0  0  0
 22 21  2  0  0  0  0
 23 17  1  0  0  0  0
 24 18  1  0  0  0  0
 26 27  1  0  0  0  0
 27 32  1  0  0  0  0
 27 28  2  0  0  0  0
 28 33  1  0  0  0  0
 29 28  1  0  0  0  0
 29 34  1  0  0  0  0
 30 29  2  0  0  0  0
 31 26  2  0  0  0  0
 31 30  1  0  0  0  0
 35 36  2  0  0  0  0
 35 30  1  0  0  0  0
 38 37  1  0  0  0  0
 38 35  1  0  0  0  0
 39 38  2  0  0  0  0
 40 39  1  0  0  0  0
 41 46  2  0  0  0  0
 41 39  1  0  0  0  0
 42 41  1  0  0  0  0
 43 42  1  0  0  0  0
 43 45  2  0  0  0  0
 44 43  1  0  0  0  0
 45 46  1  0  0  0  0
 46 47  1  0  0  0  0
 47 37  2  0  0  0  0
 48 42  1  0  0  0  0
M  END
>  <minimizedAffinity>
-6.2880311

$$$$
