REMARK  Name = 
REMARK  3 active torsions:
REMARK  status: ('A' for Active; 'I' for Inactive)
REMARK    1  A    between atoms: C_3  and  C_10
REMARK    2  A    between atoms: C_7  and  C_14
REMARK    3  A    between atoms: C_14  and  C_23
REMARK                            x       y       z     vdW  Elec       q    Type
REMARK                         _______ _______ _______ _____ _____    ______ ____
ROOT
ATOM      1 BR   UNL     1      44.576  33.116  41.208  0.00  0.00    +0.000 Br
ATOM      2  C   UNL     1      46.257  33.987  41.016  0.00  0.00    +0.000 A 
ATOM      3  C   UNL     1      46.798  34.760  42.017  0.00  0.00    +0.000 A 
ATOM      4  C   UNL     1      48.028  35.375  41.778  0.00  0.00    +0.000 A 
ATOM      5  C   UNL     1      48.704  35.231  40.584  0.00  0.00    +0.000 A 
ATOM      6  C   UNL     1      48.158  34.446  39.566  0.00  0.00    +0.000 A 
ATOM      7  C   UNL     1      46.941  33.854  39.839  0.00  0.00    +0.000 A 
ATOM      8  H   UNL     1      48.385  35.964  42.611  0.00  0.00    +0.000 HD
ATOM      9  H   UNL     1      49.664  35.740  40.462  0.00  0.00    +0.000 HD
ATOM     10  H   UNL     1      48.678  34.325  38.627  0.00  0.00    +0.000 HD
ENDROOT
BRANCH   3  13
ATOM     11  C   UNL     1      44.494  35.957  44.760  0.00  0.00    +0.000 A 
ATOM     12  C   UNL     1      45.178  35.898  43.531  0.00  0.00    +0.000 A 
ATOM     13  C   UNL     1      46.060  34.878  43.269  0.00  0.00    +0.000 A 
ATOM     14  N   UNL     1      46.202  33.964  44.279  0.00  0.00    +0.000 NA
ATOM     15  C   UNL     1      45.551  34.026  45.441  0.00  0.00    +0.000 A 
ATOM     16  N   UNL     1      44.707  35.012  45.677  0.00  0.00    +0.000 NA
ATOM     17  H   UNL     1      43.830  36.789  44.869  0.00  0.00    +0.000 HD
ATOM     18  H   UNL     1      45.041  36.631  42.767  0.00  0.00    +0.000 HD
ATOM     19  H   UNL     1      45.822  33.198  46.081  0.00  0.00    +0.000 HD
ENDBRANCH   3  13
BRANCH   7  20
ATOM     20  C   UNL     1      46.415  33.024  38.782  0.00  0.00    +0.000 C 
ATOM     21  O   UNL     1      46.490  33.383  37.547  0.00  0.00    +0.000 OA
BRANCH  20  23
ATOM     22  C   UNL     1      44.444  31.581  39.250  0.00  0.00    +0.000 A 
ATOM     23  C   UNL     1      45.750  31.729  38.851  0.00  0.00    +0.000 A 
ATOM     24  C   UNL     1      46.390  30.548  38.498  0.00  0.00    +0.000 A 
ATOM     25  H   UNL     1      47.436  30.555  38.156  0.00  0.00    +0.000 HD
ATOM     26  C   UNL     1      45.822  29.293  38.524  0.00  0.00    +0.000 A 
ATOM     27  N   UNL     1      46.260  28.060  38.230  0.00  0.00    +0.000 N 
ATOM     28  C   UNL     1      45.248  27.211  38.448  0.00  0.00    +0.000 A 
ATOM     29  H   UNL     1      45.380  26.141  38.273  0.00  0.00    +0.000 HD
ATOM     30  N   UNL     1      44.173  27.888  38.877  0.00  0.00    +0.000 NA
ATOM     31  C   UNL     1      44.509  29.184  38.931  0.00  0.00    +0.000 A 
ATOM     32  C   UNL     1      43.850  30.319  39.283  0.00  0.00    +0.000 A 
ATOM     33  H   UNL     1      47.232  27.832  37.891  0.00  0.00    +0.000 HD
ENDBRANCH  20  23
ENDBRANCH   7  20
TORSDOF 3
