
 OpenBabel03252501323D

 27 29  0  0  0  0  0  0  0  0999 V2000
   42.9670   34.3880   40.8080 C   0  0  0  0  0  0  0  0  0  0  0  0
   43.2160   33.3910   41.5610 O   0  0  0  0  0  0  0  0  0  0  0  0
   43.8830   35.4770   41.0090 N   0  0  0  0  0  0  0  0  0  0  0  0
   43.7860   36.3220   40.4590 H   0  0  0  0  0  0  0  0  0  0  0  0
   41.9370   35.3350   38.8650 C   0  0  0  0  0  0  0  0  0  0  0  0
   41.8820   34.3970   39.8680 C   0  0  0  0  0  0  0  0  0  0  0  0
   40.8620   33.4840   40.0170 C   0  0  0  0  0  0  0  0  0  0  0  0
   40.7850   32.7460   40.7780 H   0  0  0  0  0  0  0  0  0  0  0  0
   39.8550   33.5760   39.0500 C   0  0  0  0  0  0  0  0  0  0  0  0
   38.7210   32.8300   38.9140 N   0  0  0  0  0  0  0  0  0  0  0  0
   38.0250   33.2500   37.8470 C   0  0  0  0  0  0  0  0  0  0  0  0
   37.0800   32.8220   37.5160 H   0  0  0  0  0  0  0  0  0  0  0  0
   38.7240   34.2670   37.3070 N   0  0  0  0  0  0  0  0  0  0  0  0
   39.8410   34.5010   38.0010 C   0  0  0  0  0  0  0  0  0  0  0  0
   40.9130   35.3910   37.9230 C   0  0  0  0  0  0  0  0  0  0  0  0
   38.4370   32.0430   39.5530 H   0  0  0  0  0  0  0  0  0  0  0  0
   44.8240   35.0960   42.0420 C   0  0  0  0  0  0  0  0  0  0  0  0
   44.6040   35.2200   43.4020 C   0  0  0  0  0  0  0  0  0  0  0  0
   45.6210   34.8030   44.2370 C   0  0  0  0  0  0  0  0  0  0  0  0
   46.7390   34.3110   43.6770 N   0  0  0  0  0  0  0  0  0  0  0  0
   46.9270   34.2020   42.3560 C   0  0  0  0  0  0  0  0  0  0  0  0
   45.9500   34.6020   41.5050 N   0  0  0  0  0  0  0  0  0  0  0  0
   45.4360   34.9050   45.2990 H   0  0  0  0  0  0  0  0  0  0  0  0
   47.8780   33.7870   42.0500 H   0  0  0  0  0  0  0  0  0  0  0  0
   43.3520   35.7650   43.7980 N   0  0  0  0  0  0  0  0  0  0  0  0
   42.6410   35.4010   44.4610 H   0  0  0  0  0  0  0  0  0  0  0  0
   43.1200   36.6880   43.3370 H   0  0  0  0  0  0  0  0  0  0  0  0
  1  3  1  0  0  0  0
  1  2  2  0  0  0  0
  3 17  1  0  0  0  0
  4  3  1  0  0  0  0
  5  6  1  0  0  0  0
  6  7  2  0  0  0  0
  6  1  1  0  0  0  0
  7  8  1  0  0  0  0
  9  7  1  0  0  0  0
 10  9  1  0  0  0  0
 10 16  1  0  0  0  0
 11 10  1  0  0  0  0
 12 11  1  0  0  0  0
 13 11  2  0  0  0  0
 13 14  1  0  0  0  0
 14  9  2  0  0  0  0
 15 14  1  0  0  0  0
 15  5  2  0  0  0  0
 17 18  1  0  0  0  0
 18 25  1  0  0  0  0
 18 19  2  0  0  0  0
 19 23  1  0  0  0  0
 20 19  1  0  0  0  0
 21 20  2  0  0  0  0
 22 17  2  0  0  0  0
 22 21  1  0  0  0  0
 24 21  1  0  0  0  0
 25 26  1  0  0  0  0
 27 25  1  0  0  0  0
M  END
>  <minimizedAffinity>
-5.7137785

>  <minimizedRMSD>
3.76613522

$$$$
