
 OpenBabel03242520003D

 33 36  0  0  1  0  0  0  0  0999 V2000
   44.6580   33.0570   41.1850 Br  0  0  0  0  0  0  0  0  0  0  0  0
   46.3170   33.9700   40.9950 C   0  0  0  0  0  0  0  0  0  0  0  0
   46.8340   34.7620   41.9950 C   0  0  0  0  0  0  0  0  0  0  0  0
   48.0480   35.4070   41.7570 C   0  0  0  0  0  0  0  0  0  0  0  0
   48.7330   35.2740   40.5670 C   0  0  0  0  0  0  0  0  0  0  0  0
   48.2120   34.4700   39.5510 C   0  0  0  0  0  0  0  0  0  0  0  0
   47.0090   33.8490   39.8220 C   0  0  0  0  0  0  0  0  0  0  0  0
   48.3870   36.0090   42.5890 H   0  0  0  0  0  0  0  0  0  0  0  0
   49.6800   35.8070   40.4460 H   0  0  0  0  0  0  0  0  0  0  0  0
   48.7390   34.3580   38.6150 H   0  0  0  0  0  0  0  0  0  0  0  0
   44.4930   35.9160   44.7240 C   0  0  0  0  0  0  0  0  0  0  0  0
   45.1830   35.8690   43.4990 C   0  0  0  0  0  0  0  0  0  0  0  0
   46.0880   34.8670   43.2430 C   0  0  0  0  0  0  0  0  0  0  0  0
   46.2440   33.9580   44.2560 N   0  0  0  0  0  0  0  0  0  0  0  0
   45.5860   34.0090   45.4140 C   0  0  0  0  0  0  0  0  0  0  0  0
   44.7210   34.9780   45.6440 N   0  0  0  0  0  0  0  0  0  0  0  0
   43.8110   36.7340   44.8280 H   0  0  0  0  0  0  0  0  0  0  0  0
   45.0350   36.5970   42.7320 H   0  0  0  0  0  0  0  0  0  0  0  0
   45.8720   33.1880   46.0580 H   0  0  0  0  0  0  0  0  0  0  0  0
   46.5090   33.0000   38.7670 C   0  0  1  0  0  3  0  0  0  0  0  0
   45.6630   33.4370   37.8990 O   0  0  0  0  0  1  0  0  0  0  0  0
   47.5190   30.7940   39.3160 C   0  0  0  0  0  3  0  0  0  0  0  0
   46.8080   31.6060   38.4650 C   0  0  0  0  0  0  0  0  0  0  0  0
   46.3810   30.9920   37.2960 C   0  0  0  0  0  0  0  0  0  0  0  0
   45.7960   31.5510   36.5480 H   0  0  0  0  0  0  0  0  0  0  0  0
   46.6140   29.6790   36.9510 C   0  0  0  0  0  0  0  0  0  0  0  0
   46.2940   28.9170   35.8940 N   0  0  0  0  0  0  0  0  0  0  0  0
   46.7970   27.6950   36.1120 C   0  0  0  0  0  0  0  0  0  0  0  0
   46.6570   26.9030   35.3750 H   0  0  0  0  0  0  0  0  0  0  0  0
   47.4330   27.6730   37.2920 N   0  0  0  0  0  0  0  0  0  0  0  0
   47.3300   28.8960   37.8300 C   0  0  0  0  0  0  0  0  0  0  0  0
   47.7660   29.4610   38.9850 C   0  0  0  0  0  3  0  0  0  0  0  0
   45.7430   29.2470   35.0580 H   0  0  0  0  0  0  0  0  0  0  0  0
  2  1  1  0  0  0  0
  2  3  1  0  0  0  0
  3 13  1  0  0  0  0
  4  3  2  0  0  0  0
  4  8  1  0  0  0  0
  5  4  1  0  0  0  0
  6  7  1  0  0  0  0
  6  5  2  0  0  0  0
  7  2  2  0  0  0  0
  9  5  1  0  0  0  0
 10  6  1  0  0  0  0
 11 17  1  0  0  0  0
 11 16  1  0  0  0  0
 12 11  2  0  0  0  0
 13 12  1  0  0  0  0
 13 14  2  0  0  0  0
 14 15  1  0  0  0  0
 15 16  2  0  0  0  0
 15 19  1  0  0  0  0
 18 12  1  0  0  0  0
 20 21  1  6  0  0  0
 20  7  1  0  0  0  0
 23 20  1  0  0  0  0
 23 22  2  0  0  0  0
 24 23  1  0  0  0  0
 25 24  1  0  0  0  0
 26 24  2  0  0  0  0
 26 31  1  0  0  0  0
 27 28  1  0  0  0  0
 27 26  1  0  0  0  0
 28 30  2  0  0  0  0
 29 28  1  0  0  0  0
 30 31  1  0  0  0  0
 31 32  2  0  0  0  0
 32 22  1  0  0  0  0
 33 27  1  0  0  0  0
M  END
>  <minimizedAffinity>
-5.21552849

>  <minimizedRMSD>
2.27262545

$$$$
