
     RDKit          3D

 34 37  0  0  0  0  0  0  0  0999 V2000
   46.2774   34.7438   43.2351 C   0  0  0  0  0  0  0  0  0  0  0  0
   45.3128   35.7320   43.5962 C   0  0  0  0  0  0  0  0  0  0  0  0
   44.6548   35.5802   44.8241 C   0  0  0  0  0  0  0  0  0  0  0  0
   44.9768   34.5080   45.5861 N   0  0  0  0  0  0  0  0  0  0  0  0
   45.9161   33.5919   45.1786 C   0  0  0  0  0  0  0  0  0  0  0  0
   46.5631   33.6929   44.0280 N   0  0  0  0  0  0  0  0  0  0  0  0
   46.2324   32.4388   46.0813 C   0  0  1  0  0  0  0  0  0  0  0  0
   47.0333   32.6924   47.3388 C   0  0  0  0  0  0  0  0  0  0  0  0
   45.5447   32.4796   47.3876 C   0  0  1  0  0  0  0  0  0  0  0  0
   44.8352   33.6989   47.7913 N   0  0  0  0  0  0  0  0  0  0  0  0
   46.9120   34.9730   41.9734 C   0  0  0  0  0  0  0  0  0  0  0  0
   48.0764   35.4885   41.8476 O   0  0  0  0  0  0  0  0  0  0  0  0
   45.0961   36.5689   42.9466 H   0  0  0  0  0  0  0  0  0  0  0  0
   43.9190   36.3013   45.1379 H   0  0  0  0  0  0  0  0  0  0  0  0
   46.4318   31.4614   45.6041 H   0  0  0  0  0  0  0  0  0  0  0  0
   47.4567   33.7270   47.3779 H   0  0  0  0  0  0  0  0  0  0  0  0
   47.7159   31.9081   47.6718 H   0  0  0  0  0  0  0  0  0  0  0  0
   45.2017   31.5893   47.9189 H   0  0  0  0  0  0  0  0  0  0  0  0
   45.2300   33.9800   48.7385 H   0  0  0  0  0  0  0  0  0  0  0  0
   43.8337   33.5071   47.9642 H   0  0  0  0  0  0  0  0  0  0  0  0
   47.0686   34.4004   39.5513 C   0  0  0  0  0  0  0  0  0  0  0  0
   46.3153   34.6498   40.6807 C   0  0  0  0  0  0  0  0  0  0  0  0
   44.9406   34.5773   40.5255 C   0  0  0  0  0  0  0  0  0  0  0  0
   44.2880   34.7565   41.3481 H   0  0  0  0  0  0  0  0  0  0  0  0
   44.3522   34.2694   39.2964 C   0  0  0  0  0  0  0  0  0  0  0  0
   43.0693   34.1370   38.8793 N   0  0  0  0  0  0  0  0  0  0  0  0
   43.0418   33.8247   37.5716 C   0  0  0  0  0  0  0  0  0  0  0  0
   42.2126   33.6432   36.8992 H   0  0  0  0  0  0  0  0  0  0  0  0
   44.3364   33.7563   37.1437 N   0  0  0  0  0  0  0  0  0  0  0  0
   45.1412   34.0254   38.1862 C   0  0  0  0  0  0  0  0  0  0  0  0
   46.5268   34.0928   38.3189 C   0  0  0  0  0  0  0  0  0  0  0  0
   48.1571   34.4469   39.6287 H   0  0  0  0  0  0  0  0  0  0  0  0
   42.2182   34.2582   39.4806 H   0  0  0  0  0  0  0  0  0  0  0  0
   47.1631   33.9058   37.4647 H   0  0  0  0  0  0  0  0  0  0  0  0
  1  2  2  0
  1  6  1  0
  2  3  1  0
  3  4  2  0
  5  4  1  0
  5  7  1  0
  6  5  2  0
  7  8  1  0
  7  9  1  0
  8  9  1  0
  9 10  1  0
 11  1  1  0
 12 11  2  0
  2 13  1  0
  3 14  1  0
  7 15  1  6
  8 16  1  0
  8 17  1  0
  9 18  1  1
 10 19  1  0
 10 20  1  0
 21 22  2  0
 22 23  1  0
 23 24  1  0
 23 25  2  0
 25 26  1  0
 26 27  1  0
 27 28  1  0
 27 29  2  0
 29 30  1  0
 30 31  2  0
 31 21  1  0
 30 25  1  0
 21 32  1  0
 26 33  1  0
 31 34  1  0
 11 22  1  0
M  ISO  8  13  14  14  14  15  13  16  13  17  13  18  13  19   5  20   5
M  ISO  2  24  15  28  14
M  END
>  <DihAtoms>  (1) 
0,10,21,20

>  <DihDeg>  (1) 
-155.01171745969668

$$$$
