
 OpenBabel03252501323D

 27 29  0  0  0  0  0  0  0  0999 V2000
   44.0640   33.1670   41.6650 C   0  0  0  0  0  0  0  0  0  0  0  0
   45.0590   32.5210   41.2000 O   0  0  0  0  0  0  0  0  0  0  0  0
   44.0750   33.2450   43.1000 N   0  0  0  0  0  0  0  0  0  0  0  0
   43.3350   33.7430   43.5810 H   0  0  0  0  0  0  0  0  0  0  0  0
   41.7480   33.5580   41.2040 C   0  0  0  0  0  3  0  0  0  0  0  0
   43.0550   33.7460   40.8240 C   0  0  0  0  0  0  0  0  0  0  0  0
   43.4420   34.4440   39.7020 C   0  0  0  0  0  0  0  0  0  0  0  0
   44.4400   34.6090   39.3770 H   0  0  0  0  0  0  0  0  0  0  0  0
   42.3830   34.9670   38.9510 C   0  0  0  0  0  0  0  0  0  0  0  0
   42.4230   35.6980   37.7990 N   0  0  0  0  0  0  0  0  0  0  0  0
   41.1760   36.0000   37.4080 C   0  0  0  0  0  0  0  0  0  0  0  0
   40.9280   36.5770   36.5190 H   0  0  0  0  0  0  0  0  0  0  0  0
   40.3440   35.4550   38.3180 N   0  0  0  0  0  0  0  0  0  0  0  0
   41.0310   34.8200   39.2710 C   0  0  0  0  0  0  0  0  0  0  0  0
   40.7250   34.0970   40.4260 C   0  0  0  0  0  3  0  0  0  0  0  0
   43.3020   35.9820   37.2960 H   0  0  0  0  0  0  0  0  0  0  0  0
   45.2400   32.5360   43.5860 C   0  0  0  0  0  0  0  0  0  0  0  0
   45.2930   31.1780   43.8460 C   0  0  0  0  0  0  0  0  0  0  0  0
   46.4950   30.6790   44.3060 C   0  0  0  0  0  0  0  0  0  0  0  0
   47.5170   31.5360   44.4670 N   0  0  0  0  0  0  0  0  0  0  0  0
   47.4390   32.8470   44.2090 C   0  0  0  0  0  0  0  0  0  0  0  0
   46.2750   33.3740   43.7560 N   0  0  0  0  0  0  0  0  0  0  0  0
   46.5230   29.6160   44.5050 H   0  0  0  0  0  0  0  0  0  0  0  0
   48.3430   33.4150   44.3860 H   0  0  0  0  0  0  0  0  0  0  0  0
   44.1020   30.4380   43.6100 N   0  0  0  0  0  0  0  0  0  0  0  0
   43.9460   29.5790   43.0480 H   0  0  0  0  0  0  0  0  0  0  0  0
   43.2470   30.8350   44.0890 H   0  0  0  0  0  0  0  0  0  0  0  0
  1  3  1  0  0  0  0
  2  1  2  0  0  0  0
  3  4  1  0  0  0  0
  3 17  1  0  0  0  0
  6  5  1  0  0  0  0
  6  1  1  0  0  0  0
  7  6  2  0  0  0  0
  8  7  1  0  0  0  0
  9 14  2  0  0  0  0
  9  7  1  0  0  0  0
 10  9  1  0  0  0  0
 11 10  1  0  0  0  0
 11 13  2  0  0  0  0
 12 11  1  0  0  0  0
 13 14  1  0  0  0  0
 14 15  1  0  0  0  0
 15  5  2  0  0  0  0
 16 10  1  0  0  0  0
 17 22  2  0  0  0  0
 17 18  1  0  0  0  0
 18 19  2  0  0  0  0
 19 20  1  0  0  0  0
 19 23  1  0  0  0  0
 21 24  1  0  0  0  0
 21 20  2  0  0  0  0
 22 21  1  0  0  0  0
 25 18  1  0  0  0  0
 25 27  1  0  0  0  0
 26 25  1  0  0  0  0
M  END
>  <minimizedAffinity>
-4.53371525

>  <minimizedRMSD>
3.44838142

$$$$
