REMARK  Name = 
REMARK  3 active torsions:
REMARK  status: ('A' for Active; 'I' for Inactive)
REMARK    1  A    between atoms: C_1  and  N_9
REMARK    2  A    between atoms: C_2  and  N_10
REMARK    3  A    between atoms: C_7  and  C_17
REMARK                            x       y       z     vdW  Elec       q    Type
REMARK                         _______ _______ _______ _____ _____    ______ ____
ROOT
ATOM      1  C   UNL     1      43.968  35.381  43.299  0.00  0.00    +0.000 C 
ATOM      2  O   UNL     1      44.405  34.278  42.834  0.00  0.00    +0.000 OA
ATOM      3  N   UNL     1      44.458  35.657  44.622  0.00  0.00    +0.000 N 
ATOM      4  H   UNL     1      44.182  36.512  45.090  0.00  0.00    +0.000 HD
ENDROOT
BRANCH   1   6
ATOM      5  C   UNL     1      43.630  37.377  42.022  0.00  0.00    +0.000 A 
ATOM      6  C   UNL     1      43.084  36.237  42.561  0.00  0.00    +0.000 A 
ATOM      7  C   UNL     1      41.760  35.879  42.435  0.00  0.00    +0.000 A 
ATOM      8  H   UNL     1      41.303  35.008  42.837  0.00  0.00    +0.000 HD
ATOM      9  C   UNL     1      40.984  36.780  41.698  0.00  0.00    +0.000 A 
ATOM     10  N   UNL     1      39.655  36.722  41.392  0.00  0.00    +0.000 N 
ATOM     11  C   UNL     1      39.308  37.793  40.663  0.00  0.00    +0.000 A 
ATOM     12  H   UNL     1      38.305  37.990  40.288  0.00  0.00    +0.000 HD
ATOM     13  N   UNL     1      40.425  38.533  40.509  0.00  0.00    +0.000 NA
ATOM     14  C   UNL     1      41.465  37.958  41.119  0.00  0.00    +0.000 A 
ATOM     15  C   UNL     1      42.819  38.246  41.295  0.00  0.00    +0.000 A 
ATOM     16  H   UNL     1      39.003  35.950  41.684  0.00  0.00    +0.000 HD
ENDBRANCH   1   6
BRANCH   3  17
ATOM     17  C   UNL     1      45.310  34.560  45.031  0.00  0.00    +0.000 A 
ATOM     18  C   UNL     1      45.268  33.938  46.266  0.00  0.00    +0.000 A 
ATOM     19  C   UNL     1      46.162  32.907  46.474  0.00  0.00    +0.000 A 
ATOM     20  N   UNL     1      46.999  32.583  45.475  0.00  0.00    +0.000 NA
ATOM     21  C   UNL     1      47.020  33.202  44.288  0.00  0.00    +0.000 A 
ATOM     22  N   UNL     1      46.157  34.219  44.047  0.00  0.00    +0.000 NA
ATOM     23  H   UNL     1      46.118  32.429  47.444  0.00  0.00    +0.000 HD
ATOM     24  H   UNL     1      47.750  32.833  43.579  0.00  0.00    +0.000 HD
BRANCH  18  25
ATOM     25  N   UNL     1      44.307  34.427  47.192  0.00  0.00    +0.000 N 
ATOM     26  H   UNL     1      43.578  33.922  47.733  0.00  0.00    +0.000 HD
ATOM     27  H   UNL     1      44.351  35.472  47.347  0.00  0.00    +0.000 HD
ENDBRANCH  18  25
ENDBRANCH   3  17
TORSDOF 3
