
 OpenBabel03252508503D

 31 34  0  0  0  0  0  0  0  0999 V2000
   45.8820   34.1870   41.0200 C   0  0  0  0  0  0  0  0  0  0  0  0
   46.4930   34.7770   42.1220 C   0  0  0  0  0  0  0  0  0  0  0  0
   47.8560   35.0960   41.9870 C   0  0  0  0  0  0  0  0  0  0  0  0
   48.4740   34.8090   40.8020 N   0  0  0  0  0  0  0  0  0  0  0  0
   47.8410   34.2440   39.7800 C   0  0  0  0  0  0  0  0  0  0  0  0
   46.5400   33.9270   39.8770 N   0  0  0  0  0  0  0  0  0  0  0  0
   48.3430   35.5570   42.8400 H   0  0  0  0  0  0  0  0  0  0  0  0
   48.3710   34.0350   38.8580 H   0  0  0  0  0  0  0  0  0  0  0  0
   45.7320   35.0320   43.3250 C   0  0  0  0  0  0  0  0  0  0  0  0
   45.1010   36.2490   43.5710 C   0  0  0  0  0  0  0  0  0  0  0  0
   44.5100   36.0510   44.8010 C   0  0  0  0  0  0  0  0  0  0  0  0
   44.7630   34.8000   45.2740 N   0  0  0  0  0  0  0  0  0  0  0  0
   45.5030   34.2130   44.3580 N   0  0  0  0  0  0  0  0  0  0  0  0
   45.0520   37.1640   42.9790 H   0  0  0  0  0  0  0  0  0  0  0  0
   43.9110   36.7550   45.3730 H   0  0  0  0  0  0  0  0  0  0  0  0
   44.4580   34.3550   46.1640 H   0  0  0  0  0  0  0  0  0  0  0  0
   44.5400   33.8580   41.1130 O   0  0  0  0  0  0  0  0  0  0  0  0
   43.4780   34.5860   40.6600 C   0  0  0  0  0  0  0  0  0  0  0  0
   43.3060   35.8530   40.7450 O   0  0  0  0  0  0  0  0  0  0  0  0
   41.8400   34.4710   38.7590 C   0  0  0  0  0  3  0  0  0  0  0  0
   42.2990   33.9970   39.9650 C   0  0  0  0  0  0  0  0  0  0  0  0
   41.5760   32.9380   40.4790 C   0  0  0  0  0  0  0  0  0  0  0  0
   41.8930   32.5230   41.4280 H   0  0  0  0  0  0  0  0  0  0  0  0
   40.4800   32.3430   39.9030 C   0  0  0  0  0  0  0  0  0  0  0  0
   39.6850   31.3230   40.2730 N   0  0  0  0  0  0  0  0  0  0  0  0
   38.7560   31.1890   39.2940 C   0  0  0  0  0  0  0  0  0  0  0  0
   38.0040   30.4100   39.3940 H   0  0  0  0  0  0  0  0  0  0  0  0
   38.9840   32.1140   38.3410 N   0  0  0  0  0  0  0  0  0  0  0  0
   40.0620   32.8570   38.6960 C   0  0  0  0  0  0  0  0  0  0  0  0
   40.7280   33.9110   38.1190 C   0  0  0  0  0  3  0  0  0  0  0  0
   39.7950   30.7670   41.1550 H   0  0  0  0  0  0  0  0  0  0  0  0
  1 17  1  0  0  0  0
  1  2  1  0  0  0  0
  2  9  1  0  0  0  0
  3  2  2  0  0  0  0
  3  7  1  0  0  0  0
  4  3  1  0  0  0  0
  5  6  1  0  0  0  0
  5  4  2  0  0  0  0
  6  1  2  0  0  0  0
  8  5  1  0  0  0  0
  9 10  1  0  0  0  0
  9 13  2  0  0  0  0
 10 11  2  0  0  0  0
 11 12  1  0  0  0  0
 11 15  1  0  0  0  0
 12 16  1  0  0  0  0
 13 12  1  0  0  0  0
 14 10  1  0  0  0  0
 18 19  2  0  0  0  0
 18 17  1  0  0  0  0
 20 21  1  0  0  0  0
 21 22  2  0  0  0  0
 21 18  1  0  0  0  0
 22 23  1  0  0  0  0
 24 25  1  0  0  0  0
 24 22  1  0  0  0  0
 25 31  1  0  0  0  0
 26 27  1  0  0  0  0
 26 25  1  0  0  0  0
 28 29  1  0  0  0  0
 28 26  2  0  0  0  0
 29 24  2  0  0  0  0
 30 29  1  0  0  0  0
 30 20  2  0  0  0  0
M  END
>  <minimizedAffinity>
-5.76059532

>  <minimizedRMSD>
1.05479693

$$$$
