
 OpenBabel03242518493D

 26 28  0  0  0  0  0  0  0  0999 V2000
   45.4920   33.4070   46.6520 C   0  0  0  0  0  0  0  0  0  0  0  0
   44.6780   33.5690   47.5800 O   0  0  0  0  0  0  0  0  0  0  0  0
   47.3320   32.4010   47.9600 C   0  0  0  0  0  3  0  0  0  0  0  0
   46.4270   32.3220   46.9180 C   0  0  0  0  0  0  0  0  0  0  0  0
   46.4820   31.1660   46.1670 C   0  0  0  0  0  0  0  0  0  0  0  0
   45.7970   31.0440   45.3330 H   0  0  0  0  0  0  0  0  0  0  0  0
   47.3580   30.1200   46.3860 C   0  0  0  0  0  0  0  0  0  0  0  0
   47.5420   28.9360   45.7520 N   0  0  0  0  0  0  0  0  0  0  0  0
   48.5490   28.3050   46.4050 C   0  0  0  0  0  0  0  0  0  0  0  0
   48.9040   27.3270   46.1030 H   0  0  0  0  0  0  0  0  0  0  0  0
   48.9770   29.0740   47.4120 N   0  0  0  0  0  0  0  0  0  0  0  0
   48.2550   30.2180   47.4320 C   0  0  0  0  0  0  0  0  0  0  0  0
   48.2280   31.3570   48.2030 C   0  0  0  0  0  3  0  0  0  0  0  0
   47.0090   28.5990   44.9350 H   0  0  0  0  0  0  0  0  0  0  0  0
   44.6110   36.0490   44.3170 C   0  0  0  0  0  0  0  0  0  0  0  0
   45.4360   35.8290   43.1930 C   0  0  0  0  0  0  0  0  0  0  0  0
   46.2990   34.7410   43.2700 C   0  0  0  0  0  0  0  0  0  0  0  0
   46.2810   33.9910   44.3960 N   0  0  0  0  0  0  0  0  0  0  0  0
   45.4850   34.2220   45.4540 C   0  0  0  0  0  0  0  0  0  0  0  0
   44.6410   35.2640   45.4100 N   0  0  0  0  0  0  0  0  0  0  0  0
   43.9170   36.8680   44.3360 H   0  0  0  0  0  0  0  0  0  0  0  0
   45.3710   36.4920   42.3400 H   0  0  0  0  0  0  0  0  0  0  0  0
   47.1460   34.5160   42.1140 C   0  0  0  0  0  0  0  0  0  0  0  0
   48.0470   33.4840   42.3810 F   0  0  0  0  0  0  0  0  0  0  0  0
   47.9450   35.6600   41.9810 F   0  0  0  0  0  0  0  0  0  0  0  0
   46.4860   34.2290   40.9770 F   0  0  0  0  0  0  0  0  0  0  0  0
  1  4  1  0  0  0  0
  1  2  2  0  0  0  0
  3 13  1  0  0  0  0
  4  3  2  0  0  0  0
  5  7  2  0  0  0  0
  5  4  1  0  0  0  0
  6  5  1  0  0  0  0
  7 12  1  0  0  0  0
  8  7  1  0  0  0  0
  8  9  1  0  0  0  0
  9 11  2  0  0  0  0
 10  9  1  0  0  0  0
 11 12  1  0  0  0  0
 12 13  2  0  0  0  0
 14  8  1  0  0  0  0
 15 21  1  0  0  0  0
 15 20  1  0  0  0  0
 16 17  1  0  0  0  0
 16 15  2  0  0  0  0
 17 18  2  0  0  0  0
 18 19  1  0  0  0  0
 19  1  1  0  0  0  0
 20 19  2  0  0  0  0
 22 16  1  0  0  0  0
 23 24  1  0  0  0  0
 23 17  1  0  0  0  0
 25 23  1  0  0  0  0
 26 23  1  0  0  0  0
M  END
>  <minimizedAffinity>
-5.50831747

>  <minimizedRMSD>
0.557480633

$$$$
