
 OpenBabel03252508503D

 31 34  0  0  0  0  0  0  0  0999 V2000
   46.0660   34.1680   41.0330 C   0  0  0  0  0  0  0  0  0  0  0  0
   46.6050   34.8380   42.1280 C   0  0  0  0  0  0  0  0  0  0  0  0
   47.9330   35.2820   42.0000 C   0  0  0  0  0  0  0  0  0  0  0  0
   48.5900   35.0290   40.8280 N   0  0  0  0  0  0  0  0  0  0  0  0
   48.0260   34.3850   39.8130 C   0  0  0  0  0  0  0  0  0  0  0  0
   46.7600   33.9480   39.9040 N   0  0  0  0  0  0  0  0  0  0  0  0
   48.3630   35.8050   42.8480 H   0  0  0  0  0  0  0  0  0  0  0  0
   48.5860   34.2070   38.9010 H   0  0  0  0  0  0  0  0  0  0  0  0
   45.8090   35.0450   43.3170 C   0  0  0  0  0  0  0  0  0  0  0  0
   45.0730   36.2070   43.5350 C   0  0  0  0  0  0  0  0  0  0  0  0
   44.4840   35.9780   44.7610 C   0  0  0  0  0  0  0  0  0  0  0  0
   44.8350   34.7610   45.2570 N   0  0  0  0  0  0  0  0  0  0  0  0
   45.6350   34.2250   44.3600 N   0  0  0  0  0  0  0  0  0  0  0  0
   44.9540   37.1060   42.9270 H   0  0  0  0  0  0  0  0  0  0  0  0
   43.8190   36.6370   45.3140 H   0  0  0  0  0  0  0  0  0  0  0  0
   44.5570   34.3050   46.1510 H   0  0  0  0  0  0  0  0  0  0  0  0
   44.7600   33.7150   41.1200 O   0  0  0  0  0  0  0  0  0  0  0  0
   43.6380   34.3390   40.6580 C   0  0  0  0  0  0  0  0  0  0  0  0
   43.4600   35.5950   40.4780 O   0  0  0  0  0  0  0  0  0  0  0  0
   42.2010   33.0790   39.0280 C   0  0  0  0  0  3  0  0  0  0  0  0
   42.3860   33.6270   40.2740 C   0  0  0  0  0  0  0  0  0  0  0  0
   41.3180   33.4680   41.1360 C   0  0  0  0  0  0  0  0  0  0  0  0
   41.4080   33.8810   42.1330 H   0  0  0  0  0  0  0  0  0  0  0  0
   40.1340   32.8300   40.8570 C   0  0  0  0  0  0  0  0  0  0  0  0
   39.0210   32.5980   41.5780 N   0  0  0  0  0  0  0  0  0  0  0  0
   38.1770   31.9150   40.7660 C   0  0  0  0  0  0  0  0  0  0  0  0
   37.2050   31.6220   41.1550 H   0  0  0  0  0  0  0  0  0  0  0  0
   38.7680   31.7340   39.5680 N   0  0  0  0  0  0  0  0  0  0  0  0
   40.0010   32.2990   39.5940 C   0  0  0  0  0  0  0  0  0  0  0  0
   41.0190   32.4160   38.6790 C   0  0  0  0  0  3  0  0  0  0  0  0
   38.8760   32.9030   42.5700 H   0  0  0  0  0  0  0  0  0  0  0  0
  1 17  1  0  0  0  0
  1  2  1  0  0  0  0
  2  9  1  0  0  0  0
  3  2  2  0  0  0  0
  3  7  1  0  0  0  0
  4  3  1  0  0  0  0
  5  6  1  0  0  0  0
  5  4  2  0  0  0  0
  6  1  2  0  0  0  0
  8  5  1  0  0  0  0
  9 10  1  0  0  0  0
  9 13  2  0  0  0  0
 10 11  2  0  0  0  0
 11 12  1  0  0  0  0
 11 15  1  0  0  0  0
 12 16  1  0  0  0  0
 13 12  1  0  0  0  0
 14 10  1  0  0  0  0
 18 17  1  0  0  0  0
 19 18  2  0  0  0  0
 20 21  1  0  0  0  0
 21 18  1  0  0  0  0
 21 22  2  0  0  0  0
 22 23  1  0  0  0  0
 24 22  1  0  0  0  0
 24 25  1  0  0  0  0
 25 31  1  0  0  0  0
 26 27  1  0  0  0  0
 26 25  1  0  0  0  0
 28 29  1  0  0  0  0
 28 26  2  0  0  0  0
 29 24  2  0  0  0  0
 30 20  2  0  0  0  0
 30 29  1  0  0  0  0
M  END
>  <minimizedAffinity>
-6.09853649

>  <minimizedRMSD>
1.33342063

$$$$
