
 OpenBabel03252508503D

 31 34  0  0  0  0  0  0  0  0999 V2000
   45.8260   34.1460   41.0570 C   0  0  0  0  0  0  0  0  0  0  0  0
   46.4480   34.7620   42.1380 C   0  0  0  0  0  0  0  0  0  0  0  0
   47.8050   35.0930   41.9750 C   0  0  0  0  0  0  0  0  0  0  0  0
   48.4070   34.7910   40.7860 N   0  0  0  0  0  0  0  0  0  0  0  0
   47.7630   34.2010   39.7850 C   0  0  0  0  0  0  0  0  0  0  0  0
   46.4680   33.8720   39.9090 N   0  0  0  0  0  0  0  0  0  0  0  0
   48.3010   35.5740   42.8120 H   0  0  0  0  0  0  0  0  0  0  0  0
   48.2810   33.9800   38.8580 H   0  0  0  0  0  0  0  0  0  0  0  0
   45.7040   35.0320   43.3490 C   0  0  0  0  0  0  0  0  0  0  0  0
   45.0670   36.2470   43.5840 C   0  0  0  0  0  0  0  0  0  0  0  0
   44.4970   36.0650   44.8270 C   0  0  0  0  0  0  0  0  0  0  0  0
   44.7680   34.8240   45.3160 N   0  0  0  0  0  0  0  0  0  0  0  0
   45.4980   34.2280   44.3990 N   0  0  0  0  0  0  0  0  0  0  0  0
   45.0000   37.1520   42.9780 H   0  0  0  0  0  0  0  0  0  0  0  0
   43.9010   36.7740   45.3960 H   0  0  0  0  0  0  0  0  0  0  0  0
   44.4810   34.3920   46.2190 H   0  0  0  0  0  0  0  0  0  0  0  0
   44.4890   33.8050   41.1790 O   0  0  0  0  0  0  0  0  0  0  0  0
   43.4110   34.5260   40.7540 C   0  0  0  0  0  0  0  0  0  0  0  0
   43.3330   35.7950   40.5960 O   0  0  0  0  0  0  0  0  0  0  0  0
   41.4980   34.1400   39.1710 C   0  0  0  0  0  3  0  0  0  0  0  0
   42.0960   33.9270   40.3910 C   0  0  0  0  0  0  0  0  0  0  0  0
   41.3770   33.1180   41.2500 C   0  0  0  0  0  0  0  0  0  0  0  0
   41.8000   32.9150   42.2260 H   0  0  0  0  0  0  0  0  0  0  0  0
   40.1610   32.5330   40.9930 C   0  0  0  0  0  0  0  0  0  0  0  0
   39.3520   31.7340   41.7130 N   0  0  0  0  0  0  0  0  0  0  0  0
   38.2780   31.4720   40.9280 C   0  0  0  0  0  0  0  0  0  0  0  0
   37.4890   30.8360   41.3220 H   0  0  0  0  0  0  0  0  0  0  0  0
   38.4320   32.1020   39.7470 N   0  0  0  0  0  0  0  0  0  0  0  0
   39.6080   32.7780   39.7560 C   0  0  0  0  0  0  0  0  0  0  0  0
   40.2610   33.5730   38.8460 C   0  0  0  0  0  3  0  0  0  0  0  0
   39.5510   31.4030   42.6880 H   0  0  0  0  0  0  0  0  0  0  0  0
  1 17  1  0  0  0  0
  1  2  1  0  0  0  0
  2  9  1  0  0  0  0
  3  2  2  0  0  0  0
  3  7  1  0  0  0  0
  4  3  1  0  0  0  0
  5  6  1  0  0  0  0
  5  4  2  0  0  0  0
  6  1  2  0  0  0  0
  8  5  1  0  0  0  0
  9 10  1  0  0  0  0
  9 13  2  0  0  0  0
 10 11  2  0  0  0  0
 11 12  1  0  0  0  0
 11 15  1  0  0  0  0
 12 16  1  0  0  0  0
 13 12  1  0  0  0  0
 14 10  1  0  0  0  0
 18 17  1  0  0  0  0
 19 18  2  0  0  0  0
 20 21  1  0  0  0  0
 21 18  1  0  0  0  0
 21 22  2  0  0  0  0
 22 23  1  0  0  0  0
 24 22  1  0  0  0  0
 24 25  1  0  0  0  0
 25 31  1  0  0  0  0
 26 27  1  0  0  0  0
 26 25  1  0  0  0  0
 28 29  1  0  0  0  0
 28 26  2  0  0  0  0
 29 24  2  0  0  0  0
 30 20  2  0  0  0  0
 30 29  1  0  0  0  0
M  END
>  <minimizedAffinity>
-5.92495155

>  <minimizedRMSD>
1.5238421

$$$$
