
 OpenBabel03242518493D

 26 28  0  0  0  0  0  0  0  0999 V2000
   45.4940   33.3910   46.6930 C   0  0  0  0  0  0  0  0  0  0  0  0
   44.6380   33.6720   47.5520 O   0  0  0  0  0  0  0  0  0  0  0  0
   47.3750   32.4760   48.0080 C   0  0  0  0  0  3  0  0  0  0  0  0
   46.3490   32.2860   47.1020 C   0  0  0  0  0  0  0  0  0  0  0  0
   46.2060   30.9990   46.6250 C   0  0  0  0  0  0  0  0  0  0  0  0
   45.4180   30.7850   45.9090 H   0  0  0  0  0  0  0  0  0  0  0  0
   47.0010   29.9280   46.9860 C   0  0  0  0  0  0  0  0  0  0  0  0
   46.9970   28.6230   46.6170 N   0  0  0  0  0  0  0  0  0  0  0  0
   48.0110   28.0300   47.2930 C   0  0  0  0  0  0  0  0  0  0  0  0
   48.2350   26.9770   47.1820 H   0  0  0  0  0  0  0  0  0  0  0  0
   48.6260   28.9390   48.0580 N   0  0  0  0  0  0  0  0  0  0  0  0
   48.0210   30.1380   47.8920 C   0  0  0  0  0  0  0  0  0  0  0  0
   48.1920   31.4100   48.3890 C   0  0  0  0  0  3  0  0  0  0  0  0
   46.3400   28.1860   45.9500 H   0  0  0  0  0  0  0  0  0  0  0  0
   44.7840   35.7640   44.0330 C   0  0  0  0  0  0  0  0  0  0  0  0
   45.7660   35.5120   43.0510 C   0  0  0  0  0  0  0  0  0  0  0  0
   46.6740   34.4980   43.3380 C   0  0  0  0  0  0  0  0  0  0  0  0
   46.5470   33.8430   44.5150 N   0  0  0  0  0  0  0  0  0  0  0  0
   45.6020   34.1030   45.4350 C   0  0  0  0  0  0  0  0  0  0  0  0
   44.7120   35.0750   45.1870 N   0  0  0  0  0  0  0  0  0  0  0  0
   44.0460   36.5310   43.8870 H   0  0  0  0  0  0  0  0  0  0  0  0
   45.7790   36.0970   42.1400 H   0  0  0  0  0  0  0  0  0  0  0  0
   47.6820   34.2400   42.3280 C   0  0  0  0  0  0  0  0  0  0  0  0
   48.9340   34.1090   42.9320 F   0  0  0  0  0  0  0  0  0  0  0  0
   47.7780   35.4070   41.5570 F   0  0  0  0  0  0  0  0  0  0  0  0
   47.4540   33.1530   41.5680 F   0  0  0  0  0  0  0  0  0  0  0  0
  1  4  1  0  0  0  0
  1  2  2  0  0  0  0
  3 13  1  0  0  0  0
  4  3  2  0  0  0  0
  5  7  2  0  0  0  0
  5  4  1  0  0  0  0
  6  5  1  0  0  0  0
  7 12  1  0  0  0  0
  8  7  1  0  0  0  0
  8  9  1  0  0  0  0
  9 11  2  0  0  0  0
 10  9  1  0  0  0  0
 12 11  1  0  0  0  0
 12 13  2  0  0  0  0
 14  8  1  0  0  0  0
 15 20  1  0  0  0  0
 16 17  1  0  0  0  0
 16 15  2  0  0  0  0
 17 18  2  0  0  0  0
 18 19  1  0  0  0  0
 19  1  1  0  0  0  0
 20 19  2  0  0  0  0
 21 15  1  0  0  0  0
 22 16  1  0  0  0  0
 23 24  1  0  0  0  0
 23 17  1  0  0  0  0
 25 23  1  0  0  0  0
 26 23  1  0  0  0  0
M  END
>  <minimizedAffinity>
-5.47399044

>  <minimizedRMSD>
1.01048875

$$$$
