REMARK  Name = 
REMARK  3 active torsions:
REMARK  status: ('A' for Active; 'I' for Inactive)
REMARK    1  A    between atoms: C_3  and  C_7
REMARK    2  A    between atoms: C_5  and  C_11
REMARK    3  A    between atoms: C_11  and  C_16
REMARK                            x       y       z     vdW  Elec       q    Type
REMARK                         _______ _______ _______ _____ _____    ______ ____
ROOT
ATOM      1  C   UNL     1      45.798  33.162  46.448  0.00  0.00    +0.000 C 
ATOM      2  O   UNL     1      45.048  33.194  47.441  0.00  0.00    +0.000 OA
ENDROOT
BRANCH   1   4
ATOM      3  C   UNL     1      48.142  32.445  46.764  0.00  0.00    +0.000 A 
ATOM      4  C   UNL     1      46.814  32.124  46.554  0.00  0.00    +0.000 A 
ATOM      5  C   UNL     1      46.536  30.777  46.450  0.00  0.00    +0.000 A 
ATOM      6  H   UNL     1      45.510  30.460  46.283  0.00  0.00    +0.000 HD
ATOM      7  C   UNL     1      47.473  29.765  46.539  0.00  0.00    +0.000 A 
ATOM      8  N   UNL     1      47.370  28.416  46.459  0.00  0.00    +0.000 N 
ATOM      9  C   UNL     1      48.623  27.925  46.619  0.00  0.00    +0.000 A 
ATOM     10  H   UNL     1      48.830  26.863  46.597  0.00  0.00    +0.000 HD
ATOM     11  N   UNL     1      49.478  28.939  46.793  0.00  0.00    +0.000 NA
ATOM     12  C   UNL     1      48.794  30.106  46.749  0.00  0.00    +0.000 A 
ATOM     13  C   UNL     1      49.108  31.441  46.858  0.00  0.00    +0.000 A 
ATOM     14  H   UNL     1      46.497  27.884  46.306  0.00  0.00    +0.000 HD
ENDBRANCH   1   4
BRANCH   1  19
ATOM     15  C   UNL     1      44.596  35.929  44.422  0.00  0.00    +0.000 A 
ATOM     16  C   UNL     1      45.337  35.850  43.223  0.00  0.00    +0.000 A 
ATOM     17  C   UNL     1      46.258  34.811  43.140  0.00  0.00    +0.000 A 
ATOM     18  N   UNL     1      46.370  33.972  44.196  0.00  0.00    +0.000 NA
ATOM     19  C   UNL     1      45.652  34.070  45.328  0.00  0.00    +0.000 A 
ATOM     20  N   UNL     1      44.755  35.061  45.438  0.00  0.00    +0.000 NA
ATOM     21  H   UNL     1      43.864  36.703  44.564  0.00  0.00    +0.000 HD
ATOM     22  H   UNL     1      45.169  36.575  42.437  0.00  0.00    +0.000 HD
BRANCH  17  23
ATOM     23  C   UNL     1      47.019  34.730  41.908  0.00  0.00    +0.000 C 
ATOM     24  F   UNL     1      47.845  33.605  41.935  0.00  0.00    +0.000 F 
ATOM     25  F   UNL     1      47.901  35.820  41.916  0.00  0.00    +0.000 F 
ATOM     26  F   UNL     1      46.276  34.693  40.787  0.00  0.00    +0.000 F 
ENDBRANCH  17  23
ENDBRANCH   1  19
TORSDOF 3
