
 OpenBabel03252508503D

 31 34  0  0  0  0  0  0  0  0999 V2000
   45.9950   34.1610   41.0570 C   0  0  0  0  0  0  0  0  0  0  0  0
   46.5530   34.8310   42.1420 C   0  0  0  0  0  0  0  0  0  0  0  0
   47.8870   35.2530   41.9980 C   0  0  0  0  0  0  0  0  0  0  0  0
   48.5300   34.9820   40.8230 N   0  0  0  0  0  0  0  0  0  0  0  0
   47.9470   34.3380   39.8180 C   0  0  0  0  0  0  0  0  0  0  0  0
   46.6750   33.9210   39.9230 N   0  0  0  0  0  0  0  0  0  0  0  0
   48.3330   35.7760   42.8380 H   0  0  0  0  0  0  0  0  0  0  0  0
   48.4950   34.1450   38.9030 H   0  0  0  0  0  0  0  0  0  0  0  0
   45.7710   35.0600   43.3360 C   0  0  0  0  0  0  0  0  0  0  0  0
   45.0330   36.2230   43.5380 C   0  0  0  0  0  0  0  0  0  0  0  0
   44.4600   36.0170   44.7770 C   0  0  0  0  0  0  0  0  0  0  0  0
   44.8240   34.8130   45.2940 N   0  0  0  0  0  0  0  0  0  0  0  0
   45.6150   34.2620   44.3990 N   0  0  0  0  0  0  0  0  0  0  0  0
   44.9010   37.1080   42.9130 H   0  0  0  0  0  0  0  0  0  0  0  0
   43.7990   36.6850   45.3230 H   0  0  0  0  0  0  0  0  0  0  0  0
   44.5600   34.3750   46.2000 H   0  0  0  0  0  0  0  0  0  0  0  0
   44.6830   33.7300   41.1590 O   0  0  0  0  0  0  0  0  0  0  0  0
   43.6230   34.1210   40.3940 C   0  0  0  0  0  0  0  0  0  0  0  0
   43.1620   35.3080   40.2460 O   0  0  0  0  0  0  0  0  0  0  0  0
   41.5030   32.8660   39.9060 C   0  0  0  0  0  3  0  0  0  0  0  0
   42.7960   33.1910   39.5750 C   0  0  0  0  0  0  0  0  0  0  0  0
   43.2650   32.5830   38.4260 C   0  0  0  0  0  0  0  0  0  0  0  0
   44.2800   32.8020   38.1160 H   0  0  0  0  0  0  0  0  0  0  0  0
   42.5690   31.7150   37.6210 C   0  0  0  0  0  0  0  0  0  0  0  0
   42.8820   31.0530   36.4920 N   0  0  0  0  0  0  0  0  0  0  0  0
   41.7820   30.3380   36.1510 C   0  0  0  0  0  0  0  0  0  0  0  0
   41.8190   29.7220   35.2560 H   0  0  0  0  0  0  0  0  0  0  0  0
   40.8130   30.5620   37.0600 N   0  0  0  0  0  0  0  0  0  0  0  0
   41.2780   31.4240   37.9990 C   0  0  0  0  0  0  0  0  0  0  0  0
   40.7390   31.9890   39.1290 C   0  0  0  0  0  3  0  0  0  0  0  0
   43.8090   31.1090   36.0040 H   0  0  0  0  0  0  0  0  0  0  0  0
  1 17  1  0  0  0  0
  1  2  1  0  0  0  0
  2  9  1  0  0  0  0
  3  2  2  0  0  0  0
  3  7  1  0  0  0  0
  4  3  1  0  0  0  0
  5  6  1  0  0  0  0
  5  4  2  0  0  0  0
  6  1  2  0  0  0  0
  8  5  1  0  0  0  0
  9 10  1  0  0  0  0
  9 13  2  0  0  0  0
 10 11  2  0  0  0  0
 11 12  1  0  0  0  0
 11 15  1  0  0  0  0
 12 16  1  0  0  0  0
 13 12  1  0  0  0  0
 14 10  1  0  0  0  0
 18 17  1  0  0  0  0
 19 18  2  0  0  0  0
 21 20  1  0  0  0  0
 21 18  1  0  0  0  0
 22 21  2  0  0  0  0
 23 22  1  0  0  0  0
 24 29  2  0  0  0  0
 24 22  1  0  0  0  0
 25 24  1  0  0  0  0
 26 25  1  0  0  0  0
 26 28  2  0  0  0  0
 27 26  1  0  0  0  0
 28 29  1  0  0  0  0
 29 30  1  0  0  0  0
 30 20  2  0  0  0  0
 31 25  1  0  0  0  0
M  END
>  <minimizedAffinity>
-5.35693359

>  <minimizedRMSD>
0.307015151

$$$$
