
 OpenBabel03252508503D

 31 34  0  0  0  0  0  0  0  0999 V2000
   45.9340   34.1860   41.0270 C   0  0  0  0  0  0  0  0  0  0  0  0
   46.5260   34.7960   42.1290 C   0  0  0  0  0  0  0  0  0  0  0  0
   47.8820   35.1470   41.9970 C   0  0  0  0  0  0  0  0  0  0  0  0
   48.5110   34.8700   40.8160 N   0  0  0  0  0  0  0  0  0  0  0  0
   47.8950   34.2850   39.7940 C   0  0  0  0  0  0  0  0  0  0  0  0
   46.6020   33.9370   39.8880 N   0  0  0  0  0  0  0  0  0  0  0  0
   48.3540   35.6240   42.8500 H   0  0  0  0  0  0  0  0  0  0  0  0
   48.4340   34.0840   38.8750 H   0  0  0  0  0  0  0  0  0  0  0  0
   45.7560   35.0380   43.3280 C   0  0  0  0  0  0  0  0  0  0  0  0
   45.0710   36.2300   43.5520 C   0  0  0  0  0  0  0  0  0  0  0  0
   44.4900   36.0270   44.7870 C   0  0  0  0  0  0  0  0  0  0  0  0
   44.7990   34.7980   45.2820 N   0  0  0  0  0  0  0  0  0  0  0  0
   45.5640   34.2280   44.3760 N   0  0  0  0  0  0  0  0  0  0  0  0
   44.9800   37.1310   42.9440 H   0  0  0  0  0  0  0  0  0  0  0  0
   43.8600   36.7140   45.3470 H   0  0  0  0  0  0  0  0  0  0  0  0
   44.5150   34.3560   46.1800 H   0  0  0  0  0  0  0  0  0  0  0  0
   44.6000   33.8250   41.1180 O   0  0  0  0  0  0  0  0  0  0  0  0
   43.5290   34.4830   40.5860 C   0  0  0  0  0  0  0  0  0  0  0  0
   43.2890   35.7410   40.6200 O   0  0  0  0  0  0  0  0  0  0  0  0
   42.3930   32.4560   39.6300 C   0  0  0  0  0  3  0  0  0  0  0  0
   42.4200   33.8130   39.8500 C   0  0  0  0  0  0  0  0  0  0  0  0
   41.3400   34.5010   39.3300 C   0  0  0  0  0  0  0  0  0  0  0  0
   41.3080   35.5740   39.4720 H   0  0  0  0  0  0  0  0  0  0  0  0
   40.2830   33.9590   38.6390 C   0  0  0  0  0  0  0  0  0  0  0  0
   39.1790   34.4860   38.0820 N   0  0  0  0  0  0  0  0  0  0  0  0
   38.4960   33.4520   37.5330 C   0  0  0  0  0  0  0  0  0  0  0  0
   37.5590   33.6600   37.0230 H   0  0  0  0  0  0  0  0  0  0  0  0
   39.1760   32.3100   37.7540 N   0  0  0  0  0  0  0  0  0  0  0  0
   40.3070   32.5950   38.4480 C   0  0  0  0  0  0  0  0  0  0  0  0
   41.3460   31.8400   38.9350 C   0  0  0  0  0  3  0  0  0  0  0  0
   38.9330   35.5070   38.0920 H   0  0  0  0  0  0  0  0  0  0  0  0
  1 17  1  0  0  0  0
  1  2  1  0  0  0  0
  2  9  1  0  0  0  0
  3  2  2  0  0  0  0
  3  7  1  0  0  0  0
  4  3  1  0  0  0  0
  5  6  1  0  0  0  0
  5  4  2  0  0  0  0
  6  1  2  0  0  0  0
  8  5  1  0  0  0  0
  9 10  1  0  0  0  0
  9 13  2  0  0  0  0
 10 11  2  0  0  0  0
 11 12  1  0  0  0  0
 11 15  1  0  0  0  0
 12 16  1  0  0  0  0
 13 12  1  0  0  0  0
 14 10  1  0  0  0  0
 18 19  2  0  0  0  0
 18 17  1  0  0  0  0
 20 21  1  0  0  0  0
 21 18  1  0  0  0  0
 22 23  1  0  0  0  0
 22 21  2  0  0  0  0
 24 22  1  0  0  0  0
 25 31  1  0  0  0  0
 25 24  1  0  0  0  0
 26 28  2  0  0  0  0
 26 25  1  0  0  0  0
 27 26  1  0  0  0  0
 28 29  1  0  0  0  0
 29 24  2  0  0  0  0
 29 30  1  0  0  0  0
 30 20  2  0  0  0  0
M  END
>  <minimizedAffinity>
-5.93000937

>  <minimizedRMSD>
0.748260081

$$$$
