
     RDKit          3D

 28 30  0  0  0  0  0  0  0  0999 V2000
   44.5960   35.9293   44.4215 C   0  0  0  0  0  0  0  0  0  0  0  0
   45.3370   35.8496   43.2228 C   0  0  0  0  0  0  0  0  0  0  0  0
   46.2577   34.8107   43.1401 C   0  0  0  0  0  0  0  0  0  0  0  0
   46.3698   33.9722   44.1958 N   0  0  0  0  0  0  0  0  0  0  0  0
   45.6516   34.0696   45.3281 C   0  0  0  0  0  0  0  0  0  0  0  0
   44.7552   35.0609   45.4385 N   0  0  0  0  0  0  0  0  0  0  0  0
   47.0186   34.7305   41.9079 C   0  0  0  0  0  0  0  0  0  0  0  0
   47.8450   33.6050   41.9349 F   0  0  0  0  0  0  0  0  0  0  0  0
   47.9009   35.8204   41.9163 F   0  0  0  0  0  0  0  0  0  0  0  0
   46.2759   34.6931   40.7873 F   0  0  0  0  0  0  0  0  0  0  0  0
   45.7980   33.1623   46.4480 C   0  0  0  0  0  0  0  0  0  0  0  0
   45.0484   33.1944   47.4407 O   0  0  0  0  0  0  0  0  0  0  0  0
   43.8640   36.7035   44.5644 H   0  0  0  0  0  0  0  0  0  0  0  0
   45.1690   36.5751   42.4367 H   0  0  0  0  0  0  0  0  0  0  0  0
   48.0689   32.4040   47.0619 C   0  0  0  0  0  0  0  0  0  0  0  0
   46.8137   32.1240   46.5542 C   0  0  0  0  0  0  0  0  0  0  0  0
   46.6078   30.8179   46.1607 C   0  0  0  0  0  0  0  0  0  0  0  0
   45.6419   30.5345   45.7520 H   0  0  0  0  0  0  0  0  0  0  0  0
   47.5487   29.8082   46.2406 C   0  0  0  0  0  0  0  0  0  0  0  0
   47.5103   28.4964   45.9029 N   0  0  0  0  0  0  0  0  0  0  0  0
   48.7303   27.9875   46.2030 C   0  0  0  0  0  0  0  0  0  0  0  0
   48.9756   26.9468   46.0312 H   0  0  0  0  0  0  0  0  0  0  0  0
   49.5021   28.9540   46.7116 N   0  0  0  0  0  0  0  0  0  0  0  0
   48.7960   30.1077   46.7504 C   0  0  0  0  0  0  0  0  0  0  0  0
   49.0372   31.4018   47.1534 C   0  0  0  0  0  0  0  0  0  0  0  0
   48.3343   33.3975   47.3996 H   0  0  0  0  0  0  0  0  0  0  0  0
   46.7000   28.0000   45.4972 H   0  0  0  0  0  0  0  0  0  0  0  0
   50.0378   31.5643   47.5445 H   0  0  0  0  0  0  0  0  0  0  0  0
  1  6  2  0
  2  1  1  0
  3  2  2  0
  3  4  1  0
  4  5  2  0
  5  6  1  0
  5 11  1  0
  7  8  1  0
  7  3  1  0
  9  7  1  0
 10  7  1  0
 11 12  2  0
  1 13  1  0
  2 14  1  0
 15 16  2  0
 16 17  1  0
 17 18  1  0
 17 19  2  0
 19 20  1  0
 20 21  1  0
 21 22  1  0
 21 23  2  0
 23 24  1  0
 24 25  2  0
 25 15  1  0
 24 19  1  0
 15 26  1  0
 20 27  1  0
 25 28  1  0
 11 16  1  0
M  ISO  4  13  14  14  14  18  15  22  14
M  END
>  <DihAtoms>  (1) 
4,10,15,14

>  <DihDeg>  (1) 
-153.8213687551268

$$$$
