
 OpenBabel03252508503D

 31 34  0  0  0  0  0  0  0  0999 V2000
   45.8380   34.2270   41.0370 C   0  0  0  0  0  0  0  0  0  0  0  0
   46.4660   34.7810   42.1480 C   0  0  0  0  0  0  0  0  0  0  0  0
   47.8400   35.0530   42.0220 C   0  0  0  0  0  0  0  0  0  0  0  0
   48.4520   34.7590   40.8360 N   0  0  0  0  0  0  0  0  0  0  0  0
   47.8030   34.2300   39.8050 C   0  0  0  0  0  0  0  0  0  0  0  0
   46.4910   33.9590   39.8930 N   0  0  0  0  0  0  0  0  0  0  0  0
   48.3400   35.4850   42.8830 H   0  0  0  0  0  0  0  0  0  0  0  0
   48.3290   34.0130   38.8820 H   0  0  0  0  0  0  0  0  0  0  0  0
   45.7100   35.0480   43.3520 C   0  0  0  0  0  0  0  0  0  0  0  0
   45.1070   36.2780   43.6030 C   0  0  0  0  0  0  0  0  0  0  0  0
   44.5100   36.0880   44.8320 C   0  0  0  0  0  0  0  0  0  0  0  0
   44.7340   34.8300   45.2990 N   0  0  0  0  0  0  0  0  0  0  0  0
   45.4610   34.2300   44.3810 N   0  0  0  0  0  0  0  0  0  0  0  0
   45.0780   37.1970   43.0140 H   0  0  0  0  0  0  0  0  0  0  0  0
   43.9270   36.8030   45.4060 H   0  0  0  0  0  0  0  0  0  0  0  0
   44.4180   34.3880   46.1870 H   0  0  0  0  0  0  0  0  0  0  0  0
   44.4850   33.9460   41.1210 O   0  0  0  0  0  0  0  0  0  0  0  0
   43.4520   34.7140   40.6680 C   0  0  0  0  0  0  0  0  0  0  0  0
   43.2850   35.9740   40.8300 O   0  0  0  0  0  0  0  0  0  0  0  0
   41.2730   34.9870   39.4490 C   0  0  0  0  0  3  0  0  0  0  0  0
   42.3030   34.1860   39.8790 C   0  0  0  0  0  0  0  0  0  0  0  0
   42.1840   32.8560   39.5240 C   0  0  0  0  0  0  0  0  0  0  0  0
   42.9680   32.1770   39.8350 H   0  0  0  0  0  0  0  0  0  0  0  0
   41.1590   32.2930   38.8030 C   0  0  0  0  0  0  0  0  0  0  0  0
   40.9060   31.0400   38.3860 N   0  0  0  0  0  0  0  0  0  0  0  0
   39.7310   31.0920   37.7110 C   0  0  0  0  0  0  0  0  0  0  0  0
   39.3360   30.1740   37.2830 H   0  0  0  0  0  0  0  0  0  0  0  0
   39.2760   32.3600   37.7180 N   0  0  0  0  0  0  0  0  0  0  0  0
   40.1530   33.1410   38.3980 C   0  0  0  0  0  0  0  0  0  0  0  0
   40.1980   34.4770   38.7110 C   0  0  0  0  0  3  0  0  0  0  0  0
   41.5240   30.2120   38.5680 H   0  0  0  0  0  0  0  0  0  0  0  0
  1 17  1  0  0  0  0
  1  2  1  0  0  0  0
  2  9  1  0  0  0  0
  3  2  2  0  0  0  0
  3  7  1  0  0  0  0
  4  3  1  0  0  0  0
  5  6  1  0  0  0  0
  5  4  2  0  0  0  0
  6  1  2  0  0  0  0
  8  5  1  0  0  0  0
  9 10  1  0  0  0  0
  9 13  2  0  0  0  0
 10 11  2  0  0  0  0
 11 12  1  0  0  0  0
 11 15  1  0  0  0  0
 12 16  1  0  0  0  0
 13 12  1  0  0  0  0
 14 10  1  0  0  0  0
 18 19  2  0  0  0  0
 18 17  1  0  0  0  0
 20 21  1  0  0  0  0
 21 18  1  0  0  0  0
 22 23  1  0  0  0  0
 22 21  2  0  0  0  0
 24 22  1  0  0  0  0
 25 31  1  0  0  0  0
 25 24  1  0  0  0  0
 26 28  2  0  0  0  0
 26 25  1  0  0  0  0
 27 26  1  0  0  0  0
 28 29  1  0  0  0  0
 29 30  1  0  0  0  0
 29 24  2  0  0  0  0
 30 20  2  0  0  0  0
M  END
>  <minimizedAffinity>
-5.71687794

>  <minimizedRMSD>
1.07777858

$$$$
