
     RDKit          3D

 37 39  0  0  0  0  0  0  0  0999 V2000
   44.4925   35.7570   45.0194 C   0  0  0  0  0  0  0  0  0  0  0  0
   45.1224   35.7156   43.7552 C   0  0  0  0  0  0  0  0  0  0  0  0
   46.0021   34.7121   43.4830 C   0  0  0  0  0  0  0  0  0  0  0  0
   46.2211   33.7981   44.4638 N   0  0  0  0  0  0  0  0  0  0  0  0
   45.6278   33.8418   45.6469 C   0  0  0  0  0  0  0  0  0  0  0  0
   44.7547   34.8211   45.9431 N   0  0  0  0  0  0  0  0  0  0  0  0
   45.9337   32.8363   46.5960 N   0  0  0  0  0  0  0  0  0  0  0  0
   45.1507   32.5443   47.7953 C   0  0  0  0  0  0  0  0  0  0  0  0
   46.2540   32.2366   48.8093 C   0  0  0  0  0  0  0  0  0  0  0  0
   47.5285   32.0956   48.0464 C   0  0  0  0  0  0  0  0  0  0  0  0
   47.0305   31.8990   46.6226 C   0  0  1  0  0  0  0  0  0  0  0  0
   44.7715   36.7646   42.8334 N   0  0  0  0  0  0  0  0  0  0  0  0
   46.4924   30.2018   46.3965 S   0  0  0  0  0  0  0  0  0  0  0  0
   43.7895   36.5483   45.2538 H   0  0  0  0  0  0  0  0  0  0  0  0
   46.4809   34.6861   42.5135 H   0  0  0  0  0  0  0  0  0  0  0  0
   44.6061   31.6117   47.5810 H   0  0  0  0  0  0  0  0  0  0  0  0
   44.5181   33.3743   48.1093 H   0  0  0  0  0  0  0  0  0  0  0  0
   45.9533   31.3233   49.3795 H   0  0  0  0  0  0  0  0  0  0  0  0
   46.3187   33.0682   49.5405 H   0  0  0  0  0  0  0  0  0  0  0  0
   48.2047   31.3221   48.3974 H   0  0  0  0  0  0  0  0  0  0  0  0
   48.0666   33.0882   48.0476 H   0  0  0  0  0  0  0  0  0  0  0  0
   47.8614   32.1905   45.9608 H   0  0  0  0  0  0  0  0  0  0  0  0
   45.6742   37.3034   42.7410 H   0  0  0  0  0  0  0  0  0  0  0  0
   43.8092   36.8432   42.4350 H   0  0  0  0  0  0  0  0  0  0  0  0
   47.6512   28.2857   44.3064 O   0  0  0  0  0  0  0  0  0  0  0  0
   48.3804   28.2404   45.4775 C   0  0  0  0  0  0  0  0  0  0  0  0
   47.8842   29.0886   46.4383 C   0  0  0  0  0  0  0  0  0  0  0  0
   48.5285   29.1464   47.6800 C   0  0  0  0  0  0  0  0  0  0  0  0
   48.2613   29.7659   48.5464 H   0  0  0  0  0  0  0  0  0  0  0  0
   49.6545   28.3574   47.9395 C   0  0  0  0  0  0  0  0  0  0  0  0
   50.1315   27.5147   46.9579 C   0  0  0  0  0  0  0  0  0  0  0  0
   49.4760   27.4750   45.7353 C   0  0  0  0  0  0  0  0  0  0  0  0
   49.8516   26.6650   44.6481 O   0  0  0  0  0  0  0  0  0  0  0  0
   47.3742   27.4199   43.8330 H   0  0  0  0  0  0  0  0  0  0  0  0
   50.1837   28.3677   48.8794 H   0  0  0  0  0  0  0  0  0  0  0  0
   50.9883   26.8653   47.0505 H   0  0  0  0  0  0  0  0  0  0  0  0
   50.7525   26.2146   44.6197 H   0  0  0  0  0  0  0  0  0  0  0  0
  1  6  2  0
  2  1  1  0
  3  2  2  0
  3  4  1  0
  4  5  2  0
  5  6  1  0
  5  7  1  0
  7 11  1  0
  7  8  1  0
  8  9  1  0
 10  9  1  0
 11 10  1  0
 12  2  1  0
 13 11  1  0
  1 14  1  0
  3 15  1  0
  8 16  1  0
  8 17  1  0
  9 18  1  0
  9 19  1  0
 10 20  1  0
 10 21  1  0
 11 22  1  6
 12 23  1  0
 12 24  1  0
 25 26  1  0
 26 27  2  0
 27 28  1  0
 28 29  1  0
 28 30  2  0
 30 31  1  0
 31 32  2  0
 32 33  1  0
 32 26  1  0
 25 34  1  0
 30 35  1  0
 31 36  1  0
 33 37  1  0
 13 27  1  0
M  ISO  8  14  14  15  14  16  13  17  13  18  13  19  13  20  13  21  13
M  ISO  2  22  13  29  16
M  END
>  <DihAtoms>  (1) 
10,12,26,25

>  <DihDeg>  (1) 
92.00372441892272

$$$$
