
 OpenBabel03242522513D

 28 29  0  0  0  0  0  0  0  0999 V2000
   45.2200   30.7640   47.5780 O   0  0  0  0  0  0  0  0  0  0  0  0
   45.8120   32.0180   48.2760 P   0  0  2  0  0  0  0  0  0  0  0  0
   45.3400   31.8960   49.8860 O   0  0  0  0  0  0  0  0  0  0  0  0
   46.1250   31.9450   50.4850 H   0  0  0  0  0  0  0  0  0  0  0  0
   45.1040   33.3730   47.5580 O   0  0  0  0  0  0  0  0  0  0  0  0
   46.8200   33.4150   44.3530 C   0  0  0  0  0  0  0  0  0  0  0  0
   46.4500   33.0530   45.6710 C   0  0  0  0  0  0  0  0  0  0  0  0
   45.4340   33.7580   46.2750 C   0  0  0  0  0  0  0  0  0  0  0  0
   44.8480   34.7540   45.5820 N   0  0  0  0  0  0  0  0  0  0  0  0
   45.1930   35.0980   44.3380 C   0  0  0  0  0  0  0  0  0  0  0  0
   46.1810   34.4310   43.7190 N   0  0  0  0  0  0  0  0  0  0  0  0
   47.6070   32.9210   43.7960 H   0  0  0  0  0  0  0  0  0  0  0  0
   47.0350   32.2460   46.0290 H   0  0  0  0  0  0  0  0  0  0  0  0
   44.6430   35.9220   43.8820 H   0  0  0  0  0  0  0  0  0  0  0  0
   47.4580   32.0140   48.1040 O   0  0  0  0  0  0  0  0  0  0  0  0
   48.4220   31.1520   48.4750 C   0  0  0  0  0  0  0  0  0  0  0  0
   49.0420   31.5460   49.5730 O   0  0  0  0  0  0  0  0  0  0  0  0
   48.4380   28.7410   47.9320 C   0  0  0  0  0  0  0  0  0  0  0  0
   49.1380   29.8680   48.1580 C   0  0  0  0  0  0  0  0  0  0  0  0
   50.5380   29.7790   48.1040 C   0  0  0  0  0  0  0  0  0  0  0  0
   51.0260   30.7510   48.3020 H   0  0  0  0  0  0  0  0  0  0  0  0
   51.2910   28.6650   47.8440 C   0  0  0  0  0  3  0  0  0  0  0  0
   50.5240   27.5710   47.6270 C   0  0  0  0  0  3  0  0  0  0  0  0
   49.1610   27.5670   47.6610 C   0  0  0  0  0  0  0  0  0  0  0  0
   47.0610   28.5870   47.9340 O   0  0  0  0  0  0  0  0  0  0  0  0
   46.5400   28.0780   47.2310 H   0  0  0  0  0  0  0  0  0  0  0  0
   48.4690   26.3900   47.4240 O   0  0  0  0  0  0  0  0  0  0  0  0
   47.6720   26.1800   48.0170 H   0  0  0  0  0  0  0  0  0  0  0  0
  2  1  2  6  0  0  0
  2  3  1  0  0  0  0
  3  4  1  0  0  0  0
  5  2  1  0  0  0  0
  6  7  1  0  0  0  0
  7 13  1  0  0  0  0
  7  8  2  0  0  0  0
  8  5  1  0  0  0  0
  9  8  1  0  0  0  0
 10  9  2  0  0  0  0
 11 10  1  0  0  0  0
 11  6  2  0  0  0  0
 12  6  1  0  0  0  0
 14 10  1  0  0  0  0
 15  2  1  0  0  0  0
 15 16  1  0  0  0  0
 16 17  2  0  0  0  0
 18 25  1  0  0  0  0
 18 19  1  0  0  0  0
 19 16  1  0  0  0  0
 20 19  2  0  0  0  0
 20 21  1  0  0  0  0
 22 20  1  0  0  0  0
 23 24  1  0  0  0  0
 23 22  2  0  0  0  0
 24 18  2  0  0  0  0
 26 25  1  0  0  0  0
 27 24  1  0  0  0  0
 27 28  1  0  0  0  0
M  END
>  <minimizedAffinity>
-4.84159851

>  <minimizedRMSD>
0.694435

$$$$
