
 OpenBabel03242516413D

 34 35  0  0  0  0  0  0  0  0999 V2000
   49.2030   33.6680   42.7380 C   0  0  0  0  0  0  0  0  0  0  0  0
   49.4060   33.9900   43.7790 H   0  0  0  0  0  0  0  0  0  0  0  0
   49.9830   34.1650   42.1240 H   0  0  0  0  0  0  0  0  0  0  0  0
   47.8700   34.1450   42.2430 C   0  0  0  0  0  0  0  0  0  0  0  0
   47.5380   33.5040   41.4190 H   0  0  0  0  0  0  0  0  0  0  0  0
   47.9680   35.1950   41.8400 H   0  0  0  0  0  0  0  0  0  0  0  0
   44.8920   35.0750   44.3460 C   0  0  0  0  0  0  0  0  0  0  0  0
   45.8080   35.0280   43.2590 C   0  0  0  0  0  0  0  0  0  0  0  0
   46.9170   34.1950   43.3730 C   0  0  0  0  0  0  0  0  0  0  0  0
   47.0760   33.4730   44.5000 N   0  0  0  0  0  0  0  0  0  0  0  0
   46.1820   33.5440   45.5170 C   0  0  0  0  0  0  0  0  0  0  0  0
   45.1000   34.3380   45.4410 N   0  0  0  0  0  0  0  0  0  0  0  0
   43.7600   35.9080   44.2610 N   0  0  0  0  0  0  0  0  0  0  0  0
   45.6550   35.6180   42.3650 H   0  0  0  0  0  0  0  0  0  0  0  0
   46.3140   32.9610   46.4220 H   0  0  0  0  0  0  0  0  0  0  0  0
   43.2320   36.1750   45.0960 H   0  0  0  0  0  0  0  0  0  0  0  0
   43.4610   36.2570   43.3130 H   0  0  0  0  0  0  0  0  0  0  0  0
   49.3060   32.3080   42.5680 O   0  0  0  0  0  0  0  0  0  0  0  0
   50.9220   30.4740   41.6290 O   0  0  0  0  0  0  0  0  0  0  0  0
   50.4870   31.8990   41.4190 P   0  0  2  0  0  0  0  0  0  0  0  0
   51.7460   32.9990   41.5880 O   0  0  0  0  0  0  0  0  0  0  0  0
   51.7920   33.6760   40.8950 H   0  0  0  0  0  0  0  0  0  0  0  0
   49.8310   32.1280   39.8670 O   0  0  0  0  0  0  0  0  0  0  0  0
   49.4410   31.4520   37.7000 C   0  0  0  0  0  0  0  0  0  0  0  0
   50.3950   31.6830   38.6960 C   0  0  0  0  0  0  0  0  0  0  0  0
   51.7220   31.4440   38.3880 C   0  0  0  0  0  0  0  0  0  0  0  0
   52.3900   31.6470   39.2120 H   0  0  0  0  0  0  0  0  0  0  0  0
   52.0770   30.9920   37.1320 C   0  0  0  0  0  3  0  0  0  0  0  0
   51.1340   30.7660   36.1500 C   0  0  0  0  0  3  0  0  0  0  0  0
   49.8200   30.9990   36.4460 C   0  0  0  0  0  0  0  0  0  0  0  0
   48.0670   31.6490   37.8640 O   0  0  0  0  0  0  0  0  0  0  0  0
   47.7540   31.8290   38.8200 H   0  0  0  0  0  0  0  0  0  0  0  0
   48.8790   30.7620   35.4360 O   0  0  0  0  0  0  0  0  0  0  0  0
   48.0640   31.3770   35.3490 H   0  0  0  0  0  0  0  0  0  0  0  0
  1  2  1  0  0  0  0
  3  1  1  0  0  0  0
  4  1  1  0  0  0  0
  4  9  1  0  0  0  0
  5  4  1  0  0  0  0
  6  4  1  0  0  0  0
  7 12  1  0  0  0  0
  8  9  1  0  0  0  0
  8  7  2  0  0  0  0
  9 10  2  0  0  0  0
 10 11  1  0  0  0  0
 11 15  1  0  0  0  0
 12 11  2  0  0  0  0
 13  7  1  0  0  0  0
 13 16  1  0  0  0  0
 14  8  1  0  0  0  0
 17 13  1  0  0  0  0
 18  1  1  0  0  0  0
 20 21  1  0  0  0  0
 20 19  2  1  0  0  0
 20 18  1  0  0  0  0
 22 21  1  0  0  0  0
 23 20  1  0  0  0  0
 24 31  1  0  0  0  0
 24 25  1  0  0  0  0
 25 23  1  0  0  0  0
 26 25  2  0  0  0  0
 26 27  1  0  0  0  0
 28 26  1  0  0  0  0
 29 30  1  0  0  0  0
 29 28  2  0  0  0  0
 30 24  2  0  0  0  0
 31 32  1  0  0  0  0
 33 30  1  0  0  0  0
 34 33  1  0  0  0  0
M  END
>  <minimizedAffinity>
-4.76949453

>  <minimizedRMSD>
0.79016012

$$$$
