
 OpenBabel03252507163D

 31 33  0  0  0  0  0  0  0  0999 V2000
   44.9780   36.0030   43.9160 C   0  0  0  0  0  0  0  0  0  0  0  0
   45.6700   34.8770   43.4030 C   0  0  0  0  0  0  0  0  0  0  0  0
   45.8340   33.7820   44.2520 C   0  0  0  0  0  0  0  0  0  0  0  0
   45.3430   33.8250   45.5000 N   0  0  0  0  0  0  0  0  0  0  0  0
   44.6770   34.9270   45.9710 C   0  0  0  0  0  0  0  0  0  0  0  0
   44.5100   35.9850   45.1730 N   0  0  0  0  0  0  0  0  0  0  0  0
   44.8330   36.8680   43.2840 H   0  0  0  0  0  0  0  0  0  0  0  0
   44.3490   34.7940   46.9960 H   0  0  0  0  0  0  0  0  0  0  0  0
   46.5410   32.6250   43.7360 C   0  0  0  0  0  0  0  0  0  0  0  0
   45.8360   31.4950   43.3630 C   0  0  0  0  0  0  0  0  0  0  0  0
   46.5350   30.4170   42.8790 C   0  0  0  0  0  0  0  0  0  0  0  0
   47.9110   30.3920   42.7390 C   0  0  0  0  0  0  0  0  0  0  0  0
   48.5620   31.5560   43.1290 C   0  0  0  0  0  0  0  0  0  0  0  0
   47.8680   32.6120   43.6040 N   0  0  0  0  0  0  0  0  0  0  0  0
   44.7770   31.4080   43.4300 H   0  0  0  0  0  0  0  0  0  0  0  0
   46.0240   29.5040   42.5730 H   0  0  0  0  0  0  0  0  0  0  0  0
   48.5140   29.5970   42.3730 H   0  0  0  0  0  0  0  0  0  0  0  0
   49.6400   31.6790   43.0740 H   0  0  0  0  0  0  0  0  0  0  0  0
   46.1610   34.9040   42.0720 C   0  0  0  0  0  0  0  0  0  0  0  0
   47.2720   35.4510   41.8570 O   0  0  0  0  0  0  0  0  0  0  0  0
   45.9810   33.4080   40.0950 C   0  0  0  0  0  0  0  0  0  0  0  0
   45.4200   34.3240   40.9570 C   0  0  0  0  0  0  0  0  0  0  0  0
   44.1080   34.6790   40.7270 C   0  0  0  0  0  0  0  0  0  0  0  0
   43.6830   35.3970   41.4120 H   0  0  0  0  0  0  0  0  0  0  0  0
   43.3530   34.1810   39.7090 C   0  0  0  0  0  3  0  0  0  0  0  0
   43.9430   33.2560   38.8490 C   0  0  0  0  0  3  0  0  0  0  0  0
   45.2430   32.8850   39.0540 C   0  0  0  0  0  0  0  0  0  0  0  0
   47.3190   33.0110   40.2860 O   0  0  0  0  0  0  0  0  0  0  0  0
   47.9820   32.9300   39.5320 H   0  0  0  0  0  0  0  0  0  0  0  0
   45.8640   31.9660   38.2180 O   0  0  0  0  0  0  0  0  0  0  0  0
   45.4660   31.0530   38.0250 H   0  0  0  0  0  0  0  0  0  0  0  0
  1  6  1  0  0  0  0
  2  1  2  0  0  0  0
  2  3  1  0  0  0  0
  3  4  2  0  0  0  0
  4  5  1  0  0  0  0
  5  8  1  0  0  0  0
  6  5  2  0  0  0  0
  7  1  1  0  0  0  0
  9  3  1  0  0  0  0
 10 15  1  0  0  0  0
 10  9  2  0  0  0  0
 11 10  1  0  0  0  0
 12 11  2  0  0  0  0
 12 13  1  0  0  0  0
 13 14  2  0  0  0  0
 14  9  1  0  0  0  0
 16 11  1  0  0  0  0
 17 12  1  0  0  0  0
 18 13  1  0  0  0  0
 19  2  1  0  0  0  0
 20 19  2  0  0  0  0
 21 28  1  0  0  0  0
 21 22  1  0  0  0  0
 22 19  1  0  0  0  0
 23 22  2  0  0  0  0
 23 24  1  0  0  0  0
 25 23  1  0  0  0  0
 26 27  1  0  0  0  0
 26 25  2  0  0  0  0
 27 21  2  0  0  0  0
 29 28  1  0  0  0  0
 30 27  1  0  0  0  0
 31 30  1  0  0  0  0
M  END
>  <minimizedAffinity>
-4.71614361

>  <minimizedRMSD>
0.891227067

$$$$
