
 OpenBabel03252509273D

 32 34  0  0  1  0  0  0  0  0999 V2000
   46.4810   35.0590   42.0430 C   0  0  1  0  0  0  0  0  0  0  0  0
   48.0180   35.2940   41.9630 C   0  0  0  0  0  0  0  0  0  0  0  0
   47.2370   34.1190   41.3190 C   0  0  2  0  0  0  0  0  0  0  0  0
   45.8960   35.8640   41.5670 H   0  0  0  0  0  0  0  0  0  0  0  0
   48.6260   35.1030   42.8460 H   0  0  0  0  0  0  0  0  0  0  0  0
   48.3200   36.1080   41.2930 H   0  0  0  0  0  0  0  0  0  0  0  0
   47.5780   33.1320   41.7560 H   0  0  0  0  0  0  0  0  0  0  0  0
   44.7690   35.1320   45.3780 C   0  0  0  0  0  0  0  0  0  0  0  0
   45.1280   35.5380   44.0620 C   0  0  0  0  0  0  0  0  0  0  0  0
   46.0630   34.7620   43.4630 C   0  0  0  0  0  0  0  0  0  0  0  0
   46.6200   33.6650   44.0940 N   0  0  0  0  0  0  0  0  0  0  0  0
   46.2420   33.3230   45.3470 C   0  0  0  0  0  0  0  0  0  0  0  0
   45.3110   34.0620   45.9890 N   0  0  0  0  0  0  0  0  0  0  0  0
   44.0270   35.7220   45.8880 H   0  0  0  0  0  0  0  0  0  0  0  0
   46.7670   32.4450   45.6990 H   0  0  0  0  0  0  0  0  0  0  0  0
   44.5770   36.6710   43.4310 N   0  0  0  0  0  0  0  0  0  0  0  0
   43.5520   36.8590   43.5730 H   0  0  0  0  0  0  0  0  0  0  0  0
   45.2150   37.2790   42.8470 H   0  0  0  0  0  0  0  0  0  0  0  0
   47.1500   34.0430   39.8170 C   0  0  0  0  0  0  0  0  0  0  0  0
   46.1200   33.6820   39.5920 H   0  0  0  0  0  0  0  0  0  0  0  0
   47.1930   35.0850   39.4210 H   0  0  0  0  0  0  0  0  0  0  0  0
   48.1710   33.5020   37.7790 C   0  0  0  0  0  0  0  0  0  0  0  0
   48.1810   33.2480   39.1570 C   0  0  0  0  0  0  0  0  0  0  0  0
   49.1150   32.3430   39.6110 C   0  0  0  0  0  0  0  0  0  0  0  0
   49.0600   32.2020   40.6690 H   0  0  0  0  0  0  0  0  0  0  0  0
   50.0010   31.7110   38.7720 C   0  0  0  0  0  3  0  0  0  0  0  0
   49.9820   31.9720   37.4030 C   0  0  0  0  0  3  0  0  0  0  0  0
   49.0610   32.8700   36.9290 C   0  0  0  0  0  0  0  0  0  0  0  0
   47.3220   34.3750   37.0900 O   0  0  0  0  0  0  0  0  0  0  0  0
   47.4480   35.3640   37.2920 H   0  0  0  0  0  0  0  0  0  0  0  0
   49.1230   33.0620   35.5550 O   0  0  0  0  0  0  0  0  0  0  0  0
   48.6190   33.8850   35.2000 H   0  0  0  0  0  0  0  0  0  0  0  0
  1  4  1  6  0  0  0
  1 10  1  0  0  0  0
  2  1  1  0  0  0  0
  2  5  1  0  0  0  0
  3  7  1  1  0  0  0
  3  2  1  0  0  0  0
  3  1  1  0  0  0  0
  6  2  1  0  0  0  0
  8 14  1  0  0  0  0
  8 13  1  0  0  0  0
  9  8  2  0  0  0  0
 10  9  1  0  0  0  0
 10 11  2  0  0  0  0
 11 12  1  0  0  0  0
 12 15  1  0  0  0  0
 12 13  2  0  0  0  0
 16 17  1  0  0  0  0
 16  9  1  0  0  0  0
 18 16  1  0  0  0  0
 19  3  1  0  0  0  0
 20 19  1  0  0  0  0
 21 19  1  0  0  0  0
 22 23  1  0  0  0  0
 23 24  2  0  0  0  0
 23 19  1  0  0  0  0
 24 25  1  0  0  0  0
 26 24  1  0  0  0  0
 27 26  2  0  0  0  0
 28 27  1  0  0  0  0
 28 22  2  0  0  0  0
 29 30  1  0  0  0  0
 29 22  1  0  0  0  0
 31 28  1  0  0  0  0
 32 31  1  0  0  0  0
M  END
>  <minimizedAffinity>
-5.9135561

>  <minimizedRMSD>
1.2372905

$$$$
