
 OpenBabel03252508463D

 47 49  0  0  0  0  0  0  0  0999 V2000
   42.6980   31.4130   42.5680 N   0  0  0  0  0  0  0  0  0  0  0  0
   43.2830   30.5660   42.4590 H   0  0  0  0  0  0  0  0  0  0  0  0
   42.9930   32.4740   41.6440 C   0  0  0  0  0  0  0  0  0  0  0  0
   43.5700   32.0120   40.7980 H   0  0  0  0  0  0  0  0  0  0  0  0
   42.0790   32.9420   41.2270 H   0  0  0  0  0  0  0  0  0  0  0  0
   43.6580   34.8750   41.8980 C   0  0  0  0  0  0  0  0  0  0  0  0
   43.8850   33.5320   42.2000 C   0  0  0  0  0  0  0  0  0  0  0  0
   44.9400   33.2230   43.0120 C   0  0  0  0  0  0  0  0  0  0  0  0
   45.7490   34.1960   43.5150 C   0  0  0  0  0  0  0  0  0  0  0  0
   45.5500   35.5300   43.2340 C   0  0  0  0  0  0  0  0  0  0  0  0
   44.4680   35.8160   42.4030 C   0  0  0  0  0  0  0  0  0  0  0  0
   45.1630   32.1930   43.2820 H   0  0  0  0  0  0  0  0  0  0  0  0
   46.5910   33.9690   44.1610 H   0  0  0  0  0  0  0  0  0  0  0  0
   46.1180   36.3700   43.5690 H   0  0  0  0  0  0  0  0  0  0  0  0
   44.2370   36.8400   42.1290 H   0  0  0  0  0  0  0  0  0  0  0  0
   40.2450   35.7780   40.5320 C   0  0  0  0  0  0  0  0  0  0  0  0
   41.2700   35.5340   41.4810 C   0  0  0  0  0  0  0  0  0  0  0  0
   42.5140   35.1580   41.0220 C   0  0  0  0  0  0  0  0  0  0  0  0
   42.6860   35.0420   39.6750 N   0  0  0  0  0  0  0  0  0  0  0  0
   41.7040   35.2750   38.7810 C   0  0  0  0  0  0  0  0  0  0  0  0
   40.4840   35.6440   39.2260 N   0  0  0  0  0  0  0  0  0  0  0  0
   39.2910   36.0710   40.9650 H   0  0  0  0  0  0  0  0  0  0  0  0
   41.1760   35.6140   42.5500 H   0  0  0  0  0  0  0  0  0  0  0  0
   41.8400   35.1840   37.7180 H   0  0  0  0  0  0  0  0  0  0  0  0
   41.0290   31.0650   42.6490 S   0  0  0  0  0  0  0  0  0  0  0  0
   40.2110   32.3210   42.5050 O   0  0  0  0  0  0  0  0  0  0  0  0
   39.8430   32.8370   43.2930 H   0  0  0  0  0  0  0  0  0  0  0  0
   40.6780   30.3740   43.9250 O   0  0  0  0  0  0  0  0  0  0  0  0
   41.3320   29.9700   44.5600 H   0  0  0  0  0  0  0  0  0  0  0  0
   40.6620   30.0400   41.3810 O   0  0  0  0  0  0  0  0  0  0  0  0
   39.2930   29.8920   41.2980 C   0  0  0  0  0  0  0  0  0  0  0  0
   39.0130   29.8390   40.2210 H   0  0  0  0  0  0  0  0  0  0  0  0
   38.7150   30.6960   41.7760 H   0  0  0  0  0  0  0  0  0  0  0  0
   38.8990   28.5150   41.8590 C   0  0  0  0  0  0  0  0  0  0  0  0
   39.7330   27.8270   41.7200 H   0  0  0  0  0  0  0  0  0  0  0  0
   38.6410   28.6290   42.9350 H   0  0  0  0  0  0  0  0  0  0  0  0
   37.3070   26.7100   41.1230 C   0  0  0  0  0  0  0  0  0  0  0  0
   37.7260   28.0160   41.1150 C   0  0  0  0  0  0  0  0  0  0  0  0
   36.9550   28.8800   40.3370 C   0  0  0  0  0  0  0  0  0  0  0  0
   37.2880   29.9210   40.3300 H   0  0  0  0  0  0  0  0  0  0  0  0
   35.8400   28.5370   39.5970 C   0  0  0  0  0  0  0  0  0  0  0  0
   35.4550   27.2010   39.6380 C   0  0  0  0  0  0  0  0  0  0  0  0
   36.2060   26.3090   40.4080 C   0  0  0  0  0  0  0  0  0  0  0  0
   38.0310   25.7810   41.8830 O   0  0  0  0  0  0  0  0  0  0  0  0
   37.4460   25.1690   42.4540 H   0  0  0  0  0  0  0  0  0  0  0  0
   35.7930   24.9660   40.4310 O   0  0  0  0  0  0  0  0  0  0  0  0
   35.8010   24.3890   39.6030 H   0  0  0  0  0  0  0  0  0  0  0  0
  1 25  1  0  0  0  0
  2  1  1  0  0  0  0
  3  7  1  0  0  0  0
  3  1  1  0  0  0  0
  4  3  1  0  0  0  0
  5  3  1  0  0  0  0
  6  7  2  0  0  0  0
  6 11  1  0  0  0  0
  7  8  1  0  0  0  0
  8 12  1  0  0  0  0
  8  9  2  0  0  0  0
  9 13  1  0  0  0  0
 10  9  1  0  0  0  0
 10 14  1  0  0  0  0
 11 10  2  0  0  0  0
 15 11  1  0  0  0  0
 16 22  1  0  0  0  0
 16 17  1  0  0  0  0
 17 23  1  0  0  0  0
 18 17  2  0  0  0  0
 18  6  1  0  0  0  0
 19 18  1  0  0  0  0
 20 21  1  0  0  0  0
 20 19  2  0  0  0  0
 21 16  2  0  0  0  0
 24 20  1  0  0  0  0
 25 28  1  0  0  0  0
 26 25  1  0  0  0  0
 26 27  1  0  0  0  0
 28 29  1  0  0  0  0
 30 25  1  0  0  0  0
 31 30  1  0  0  0  0
 31 33  1  0  0  0  0
 31 34  1  0  0  0  0
 32 31  1  0  0  0  0
 34 36  1  0  0  0  0
 35 34  1  0  0  0  0
 37 44  1  0  0  0  0
 38 37  1  0  0  0  0
 38 34  1  0  0  0  0
 39 38  2  0  0  0  0
 40 39  1  0  0  0  0
 41 42  2  0  0  0  0
 41 39  1  0  0  0  0
 42 43  1  0  0  0  0
 43 46  1  0  0  0  0
 43 37  2  0  0  0  0
 44 45  1  0  0  0  0
 47 46  1  0  0  0  0
M  END
>  <minimizedAffinity>
-5.83061647

>  <minimizedRMSD>
2.33316207

$$$$
