
 OpenBabel03242514333D

 28 29  0  0  0  0  0  0  0  0999 V2000
   49.2840   35.2760   42.8040 O   0  0  0  0  0  0  0  0  0  0  0  0
   48.6760   34.1140   42.0780 P   0  0  1  0  0  0  0  0  0  0  0  0
   49.9000   33.0050   41.7740 O   0  0  0  0  0  0  0  0  0  0  0  0
   50.7540   33.4960   41.6660 H   0  0  0  0  0  0  0  0  0  0  0  0
   47.4400   33.4070   43.0260 O   0  0  0  0  0  0  0  0  0  0  0  0
   45.9780   35.2940   42.9370 C   0  0  0  0  0  0  0  0  0  0  0  0
   46.4610   34.1970   43.6300 C   0  0  0  0  0  0  0  0  0  0  0  0
   45.9450   33.9350   44.9010 C   0  0  0  0  0  0  0  0  0  0  0  0
   44.9910   34.7750   45.3920 N   0  0  0  0  0  0  0  0  0  0  0  0
   44.5460   35.8240   44.6970 C   0  0  0  0  0  0  0  0  0  0  0  0
   45.0390   36.0730   43.4850 N   0  0  0  0  0  0  0  0  0  0  0  0
   46.3320   35.5630   41.9420 H   0  0  0  0  0  0  0  0  0  0  0  0
   46.3320   33.0660   45.4410 H   0  0  0  0  0  0  0  0  0  0  0  0
   43.7920   36.3810   45.2360 H   0  0  0  0  0  0  0  0  0  0  0  0
   48.0510   34.6520   40.6270 O   0  0  0  0  0  0  0  0  0  0  0  0
   47.5080   33.9060   39.6450 C   0  0  0  0  0  0  0  0  0  0  0  0
   46.2290   33.7770   39.8010 O   0  0  0  0  0  0  0  0  0  0  0  0
   47.9700   31.8240   38.3690 C   0  0  0  0  0  0  0  0  0  0  0  0
   47.9000   33.1710   38.4070 C   0  0  0  0  0  0  0  0  0  0  0  0
   48.1990   33.9220   37.2620 C   0  0  0  0  0  0  0  0  0  0  0  0
   48.1350   35.0180   37.3150 H   0  0  0  0  0  0  0  0  0  0  0  0
   48.5680   33.3730   36.0660 C   0  0  0  0  0  3  0  0  0  0  0  0
   48.6450   32.0060   36.0060 C   0  0  0  0  0  3  0  0  0  0  0  0
   48.3500   31.2750   37.1370 C   0  0  0  0  0  0  0  0  0  0  0  0
   47.6920   31.0170   39.4530 O   0  0  0  0  0  0  0  0  0  0  0  0
   46.7230   30.9000   39.7780 H   0  0  0  0  0  0  0  0  0  0  0  0
   48.4180   29.8720   37.1130 O   0  0  0  0  0  0  0  0  0  0  0  0
   47.6640   29.3570   37.5540 H   0  0  0  0  0  0  0  0  0  0  0  0
  2  1  2  1  0  0  0
  2  5  1  0  0  0  0
  3  2  1  0  0  0  0
  4  3  1  0  0  0  0
  5  7  1  0  0  0  0
  6 11  2  0  0  0  0
  6  7  1  0  0  0  0
  7  8  2  0  0  0  0
  8  9  1  0  0  0  0
  8 13  1  0  0  0  0
 10 14  1  0  0  0  0
 10  9  2  0  0  0  0
 11 10  1  0  0  0  0
 12  6  1  0  0  0  0
 15  2  1  0  0  0  0
 16 17  2  0  0  0  0
 16 15  1  0  0  0  0
 18 19  1  0  0  0  0
 18 25  1  0  0  0  0
 19 16  1  0  0  0  0
 20 21  1  0  0  0  0
 20 19  2  0  0  0  0
 22 20  1  0  0  0  0
 23 22  2  0  0  0  0
 23 24  1  0  0  0  0
 24 18  2  0  0  0  0
 25 26  1  0  0  0  0
 27 24  1  0  0  0  0
 27 28  1  0  0  0  0
M  END
>  <minimizedAffinity>
-4.39829445

>  <minimizedRMSD>
1.31606531

$$$$
