REMARK  Name = 
REMARK  4 active torsions:
REMARK  status: ('A' for Active; 'I' for Inactive)
REMARK    1  A    between atoms: C_5  and  C_8
REMARK    2  A    between atoms: C_8  and  C_16
REMARK    3  A    between atoms: O_14  and  C_15
REMARK    4  A    between atoms: C_21  and  O_22
REMARK                            x       y       z     vdW  Elec       q    Type
REMARK                         _______ _______ _______ _____ _____    ______ ____
ROOT
ATOM      1  C   UNL     1      46.358  32.855  46.816  0.00  0.00    +0.000 C 
ATOM      2  O   UNL     1      45.349  32.518  47.521  0.00  0.00    +0.000 OA
ENDROOT
BRANCH   1   7
ATOM      3  C   UNL     1      44.904  35.069  44.346  0.00  0.00    +0.000 A 
ATOM      4  C   UNL     1      45.772  34.975  43.255  0.00  0.00    +0.000 A 
ATOM      5  C   UNL     1      46.888  34.134  43.355  0.00  0.00    +0.000 A 
ATOM      6  N   UNL     1      47.059  33.461  44.507  0.00  0.00    +0.000 NA
ATOM      7  C   UNL     1      46.222  33.555  45.553  0.00  0.00    +0.000 A 
ATOM      8  N   UNL     1      45.147  34.361  45.465  0.00  0.00    +0.000 NA
ATOM      9  N   UNL     1      43.776  35.920  44.246  0.00  0.00    +0.000 N 
ATOM     10  H   UNL     1      45.628  35.519  42.333  0.00  0.00    +0.000 HD
ATOM     11  H   UNL     1      47.603  34.005  42.562  0.00  0.00    +0.000 HD
ATOM     12  H   UNL     1      43.817  36.883  43.809  0.00  0.00    +0.000 HD
ATOM     13  H   UNL     1      42.782  35.792  44.545  0.00  0.00    +0.000 HD
ENDBRANCH   1   7
BRANCH   1  15
ATOM     14  C   UNL     1      47.998  32.931  48.653  0.00  0.00    +0.000 A 
ATOM     15  C   UNL     1      47.634  32.466  47.410  0.00  0.00    +0.000 A 
ATOM     16  C   UNL     1      48.562  31.635  46.819  0.00  0.00    +0.000 A 
ATOM     17  H   UNL     1      48.351  31.229  45.843  0.00  0.00    +0.000 HD
ATOM     18  C   UNL     1      49.766  31.269  47.381  0.00  0.00    +0.000 A 
ATOM     19  C   UNL     1      50.092  31.759  48.628  0.00  0.00    +0.000 A 
ATOM     20  C   UNL     1      49.197  32.595  49.263  0.00  0.00    +0.000 A 
BRANCH  14  21
ATOM     21  O   UNL     1      47.169  33.791  49.398  0.00  0.00    +0.000 OA
ATOM     22  H   UNL     1      46.373  33.302  49.825  0.00  0.00    +0.000 HD
ENDBRANCH  14  21
BRANCH  20  23
ATOM     23  O   UNL     1      49.529  33.086  50.519  0.00  0.00    +0.000 OA
ATOM     24  H   UNL     1      48.884  33.703  50.995  0.00  0.00    +0.000 HD
ENDBRANCH  20  23
ENDBRANCH   1  15
TORSDOF 4
