
     RDKit          3D

 36 37  0  0  0  0  0  0  0  0999 V2000
   47.8636   34.1411   42.2524 C   0  0  0  0  0  0  0  0  0  0  0  0
   44.8918   35.0805   44.3584 C   0  0  0  0  0  0  0  0  0  0  0  0
   45.8076   35.0327   43.2706 C   0  0  0  0  0  0  0  0  0  0  0  0
   46.9113   34.1916   43.3820 C   0  0  0  0  0  0  0  0  0  0  0  0
   47.0653   33.4643   44.5048 N   0  0  0  0  0  0  0  0  0  0  0  0
   46.1709   33.5357   45.5224 C   0  0  0  0  0  0  0  0  0  0  0  0
   45.0937   34.3372   45.4490 N   0  0  0  0  0  0  0  0  0  0  0  0
   43.7654   35.9218   44.2759 N   0  0  0  0  0  0  0  0  0  0  0  0
   49.1750   33.5933   42.7321 C   0  0  0  0  0  0  0  0  0  0  0  0
   49.2777   32.2644   42.3984 O   0  0  0  0  0  0  0  0  0  0  0  0
   50.8624   30.5346   41.2319 O   0  0  0  0  0  0  0  0  0  0  0  0
   50.4882   31.9929   41.2393 P   0  0  2  0  0  0  0  0  0  0  0  0
   51.7791   32.9966   41.6240 O   0  0  0  0  0  0  0  0  0  0  0  0
   49.9040   32.4933   39.7218 O   0  0  0  0  0  0  0  0  0  0  0  0
   47.5094   33.5417   41.4060 H   0  0  0  0  0  0  0  0  0  0  0  0
   48.0059   35.1986   41.8845 H   0  0  0  0  0  0  0  0  0  0  0  0
   45.6589   35.6284   42.3799 H   0  0  0  0  0  0  0  0  0  0  0  0
   46.2994   32.9481   46.4243 H   0  0  0  0  0  0  0  0  0  0  0  0
   43.2386   36.1878   45.1121 H   0  0  0  0  0  0  0  0  0  0  0  0
   43.4693   36.2774   43.3303 H   0  0  0  0  0  0  0  0  0  0  0  0
   49.3410   33.7811   43.8124 H   0  0  0  0  0  0  0  0  0  0  0  0
   49.9814   34.1564   42.2144 H   0  0  0  0  0  0  0  0  0  0  0  0
   51.8777   33.7727   41.0500 H   0  0  0  0  0  0  0  0  0  0  0  0
   52.2091   31.0685   39.8100 O   0  0  0  0  0  0  0  0  0  0  0  0
   51.8110   31.7565   38.6604 C   0  0  0  0  0  0  0  0  0  0  0  0
   50.6343   32.5062   38.5580 C   0  0  0  0  0  0  0  0  0  0  0  0
   50.3710   33.1340   37.3545 C   0  0  0  0  0  0  0  0  0  0  0  0
   49.4439   33.6903   37.3620 H   0  0  0  0  0  0  0  0  0  0  0  0
   51.2512   33.0150   36.2971 C   0  0  0  0  0  0  0  0  0  0  0  0
   52.4114   32.2751   36.3999 C   0  0  0  0  0  0  0  0  0  0  0  0
   52.6805   31.6507   37.5862 C   0  0  0  0  0  0  0  0  0  0  0  0
   53.8626   30.9047   37.6705 O   0  0  0  0  0  0  0  0  0  0  0  0
   51.6677   31.2615   40.6557 H   0  0  0  0  0  0  0  0  0  0  0  0
   50.9861   33.5307   35.3838 H   0  0  0  0  0  0  0  0  0  0  0  0
   53.0979   32.1820   35.5762 H   0  0  0  0  0  0  0  0  0  0  0  0
   53.8762   30.0358   38.2118 H   0  0  0  0  0  0  0  0  0  0  0  0
  1  9  1  0
  1  4  1  0
  2  7  2  0
  3  4  2  0
  3  2  1  0
  4  5  1  0
  5  6  2  0
  7  6  1  0
  8  2  1  0
 10  9  1  0
 11 12  2  0
 12 13  1  1
 12 10  1  0
 14 12  1  0
  1 15  1  0
  1 16  1  0
  3 17  1  0
  6 18  1  0
  8 19  1  0
  8 20  1  0
  9 21  1  0
  9 22  1  0
 13 23  1  0
 24 25  1  0
 25 26  2  0
 26 27  1  0
 27 28  1  0
 27 29  2  0
 29 30  1  0
 30 31  2  0
 31 32  1  0
 31 25  1  0
 24 33  1  0
 29 34  1  0
 30 35  1  0
 32 36  1  0
 14 26  1  0
M  ISO  8  15   8  16   8  17  14  18  14  21   8  22   8  23   3  28  16
M  END
>  <DihAtoms>  (1) 
11,13,25,24

>  <DihDeg>  (1) 
179.9992919189169

$$$$
