
     RDKit          3D

 47 49  0  0  0  0  0  0  0  0999 V2000
   45.1579   32.1095   48.1868 O   0  0  0  0  0  0  0  0  0  0  0  0
   46.9851   30.5699   48.2062 C   0  0  2  0  0  0  0  0  0  0  0  0
   45.5283   30.8025   48.3670 C   0  0  2  0  0  0  0  0  0  0  0  0
   44.8720   29.8844   47.4607 C   0  0  0  0  0  0  0  0  0  0  0  0
   45.7432   28.8247   47.1768 O   0  0  0  0  0  0  0  0  0  0  0  0
   46.8292   29.0167   47.9607 C   0  0  0  0  0  0  0  0  0  0  0  0
   47.7569   30.7318   49.2939 O   0  0  0  0  0  0  0  0  0  0  0  0
   49.0122   31.0870   49.2884 C   0  0  0  0  0  0  0  0  0  0  0  0
   49.7300   30.3278   50.3979 C   0  0  0  0  0  0  0  0  0  0  0  0
   47.1718   32.9941   46.9398 O   0  0  0  0  0  0  0  0  0  0  0  0
   45.7314   32.6700   46.7439 P   0  0  1  0  0  0  0  0  0  0  0  0
   45.5877   31.4700   45.5646 O   0  0  0  0  0  0  0  0  0  0  0  0
   44.9833   34.1212   46.2557 O   0  0  0  0  0  0  0  0  0  0  0  0
   44.9705   36.3946   43.4787 C   0  0  0  0  0  0  0  0  0  0  0  0
   45.0320   35.5368   42.3421 C   0  0  0  0  0  0  0  0  0  0  0  0
   45.0767   34.1591   42.6023 C   0  0  0  0  0  0  0  0  0  0  0  0
   45.0597   33.7292   43.8811 N   0  0  0  0  0  0  0  0  0  0  0  0
   45.0014   34.5662   44.9274 C   0  0  0  0  0  0  0  0  0  0  0  0
   44.9575   35.8854   44.7214 N   0  0  0  0  0  0  0  0  0  0  0  0
   44.9283   37.7402   43.2855 O   0  0  0  0  0  0  0  0  0  0  0  0
   47.4376   30.7617   47.2190 H   0  0  0  0  0  0  0  0  0  0  0  0
   45.3837   30.6528   49.4775 H   0  0  0  0  0  0  0  0  0  0  0  0
   44.1307   30.1404   46.7352 H   0  0  0  0  0  0  0  0  0  0  0  0
   44.1778   29.2961   48.1616 H   0  0  0  0  0  0  0  0  0  0  0  0
   47.7770   28.5846   47.6515 H   0  0  0  0  0  0  0  0  0  0  0  0
   46.6270   28.6433   48.9977 H   0  0  0  0  0  0  0  0  0  0  0  0
   49.3087   32.0790   49.0682 H   0  0  0  0  0  0  0  0  0  0  0  0
   49.4503   30.5520   48.2924 H   0  0  0  0  0  0  0  0  0  0  0  0
   50.8224   30.5365   50.3652 H   0  0  0  0  0  0  0  0  0  0  0  0
   49.2637   30.5975   51.3572 H   0  0  0  0  0  0  0  0  0  0  0  0
   49.6035   29.2360   50.1469 H   0  0  0  0  0  0  0  0  0  0  0  0
   44.8355   31.5931   44.9484 H   0  0  0  0  0  0  0  0  0  0  0  0
   45.0557   35.8344   41.3270 H   0  0  0  0  0  0  0  0  0  0  0  0
   45.1240   33.4733   41.7593 H   0  0  0  0  0  0  0  0  0  0  0  0
   45.6053   40.4829   42.9534 O   0  0  0  0  0  0  0  0  0  0  0  0
   45.2390   39.6020   41.9412 C   0  0  0  0  0  0  0  0  0  0  0  0
   44.8970   38.2665   42.0120 C   0  0  0  0  0  0  0  0  0  0  0  0
   44.5686   37.5963   40.8520 C   0  0  0  0  0  0  0  0  0  0  0  0
   44.3101   36.5420   40.9926 H   0  0  0  0  0  0  0  0  0  0  0  0
   44.5664   38.2062   39.6148 C   0  0  0  0  0  0  0  0  0  0  0  0
   44.9078   39.5389   39.5484 C   0  0  0  0  0  0  0  0  0  0  0  0
   45.2414   40.2350   40.6947 C   0  0  0  0  0  0  0  0  0  0  0  0
   45.5688   41.5873   40.4822 O   0  0  0  0  0  0  0  0  0  0  0  0
   46.5021   40.9923   42.9194 H   0  0  0  0  0  0  0  0  0  0  0  0
   44.2961   37.6022   38.7644 H   0  0  0  0  0  0  0  0  0  0  0  0
   44.9000   39.9908   38.5854 H   0  0  0  0  0  0  0  0  0  0  0  0
   44.8985   42.1130   39.9355 H   0  0  0  0  0  0  0  0  0  0  0  0
  1  3  1  0
  2  3  1  0
  2  7  1  0
  4  3  1  0
  5  4  1  0
  5  6  1  0
  6  2  1  0
  8  7  1  0
  8  9  1  0
 11 10  2  0
 11  1  1  1
 12 11  1  0
 13 11  1  0
 14 19  2  0
 15 16  2  0
 15 14  1  0
 16 17  1  0
 17 18  2  0
 18 13  1  0
 19 18  1  0
 20 14  1  0
  2 21  1  6
  3 22  1  1
  4 23  1  0
  4 24  1  0
  6 25  1  0
  6 26  1  0
  8 27  1  0
  8 28  1  0
  9 29  1  0
  9 30  1  0
  9 31  1  0
 12 32  1  0
 15 33  1  0
 16 34  1  0
 35 36  1  0
 36 37  2  0
 37 38  1  0
 38 39  1  0
 38 40  2  0
 40 41  1  0
 41 42  2  0
 42 43  1  0
 42 36  1  0
 35 44  1  0
 40 45  1  0
 41 46  1  0
 43 47  1  0
 20 37  1  0
M  ISO  8  21  13  22  13  23  13  24  13  25  13  26  13  27   8  28   8
M  ISO  7  29   8  30   8  31   8  32   3  33  14  34  14  39  16
M  END
>  <DihAtoms>  (1) 
13,19,36,35

>  <DihDeg>  (1) 
62.682027416011636

$$$$
