
 OpenBabel03242521443D

 40 42  0  0  1  0  0  0  0  0999 V2000
   45.5720   35.5640   43.7940 C   0  0  0  0  0  0  0  0  0  0  0  0
   46.5930   34.7700   43.2670 C   0  0  0  0  0  0  0  0  0  0  0  0
   46.9870   33.6130   43.9680 C   0  0  0  0  0  0  0  0  0  0  0  0
   46.3540   33.3390   45.1060 N   0  0  0  0  0  0  0  0  0  0  0  0
   45.3670   34.1200   45.6010 C   0  0  0  0  0  0  0  0  0  0  0  0
   44.9750   35.2360   44.9450 N   0  0  0  0  0  0  0  0  0  0  0  0
   47.0360   35.0930   42.3290 H   0  0  0  0  0  0  0  0  0  0  0  0
   44.8530   33.8990   46.5260 H   0  0  0  0  0  0  0  0  0  0  0  0
   49.0370   33.5990   42.5610 C   0  0  2  0  0  0  0  0  0  0  0  0
   48.0500   32.8300   43.3690 C   0  0  2  0  0  0  0  0  0  0  0  0
   47.6060   31.8690   42.4130 O   0  0  0  0  0  0  0  0  0  0  0  0
   48.7930   31.3710   41.9250 C   0  0  0  0  0  0  0  0  0  0  0  0
   49.8650   32.4060   42.0370 C   0  0  1  0  0  0  0  0  0  0  0  0
   48.5970   34.0320   41.6330 H   0  0  0  0  0  0  0  0  0  0  0  0
   48.6130   32.2810   44.1780 H   0  0  0  0  0  0  0  0  0  0  0  0
   49.0530   30.3780   42.3300 H   0  0  0  0  0  0  0  0  0  0  0  0
   48.6320   31.2030   40.8290 H   0  0  0  0  0  0  0  0  0  0  0  0
   50.5940   32.1030   42.7920 H   0  0  0  0  0  0  0  0  0  0  0  0
   49.7620   34.5180   43.2540 O   0  0  0  0  0  0  0  0  0  0  0  0
   50.3450   34.0690   43.9110 H   0  0  0  0  0  0  0  0  0  0  0  0
   50.4290   32.7710   40.8150 O   0  0  0  0  0  0  0  0  0  0  0  0
   49.8340   32.3650   40.1160 H   0  0  0  0  0  0  0  0  0  0  0  0
   45.1680   36.8030   43.0420 C   0  0  0  0  0  0  0  0  0  0  0  0
   44.2360   36.5550   42.4750 H   0  0  0  0  0  0  0  0  0  0  0  0
   45.9620   37.0950   42.3510 H   0  0  0  0  0  0  0  0  0  0  0  0
   45.4160   39.1390   44.0680 C   0  0  0  0  0  0  0  0  0  0  0  0
   46.2370   39.4570   43.1640 O   0  0  0  0  0  0  0  0  0  0  0  0
   44.8900   37.8210   44.0260 N   0  0  0  0  0  0  0  0  0  0  0  0
   44.2300   37.5550   44.7890 H   0  0  0  0  0  0  0  0  0  0  0  0
   44.8530   41.4440   44.7400 C   0  0  0  0  0  0  0  0  0  0  0  0
   45.0710   40.1240   45.0700 C   0  0  0  0  0  0  0  0  0  0  0  0
   44.9340   39.8380   46.4010 C   0  0  0  0  0  0  0  0  0  0  0  0
   45.0820   38.8370   46.7630 H   0  0  0  0  0  0  0  0  0  0  0  0
   44.6030   40.7540   47.3920 C   0  0  0  0  0  3  0  0  0  0  0  0
   44.3950   42.0640   47.0130 C   0  0  0  0  0  3  0  0  0  0  0  0
   44.5240   42.4030   45.6690 C   0  0  0  0  0  0  0  0  0  0  0  0
   44.9680   41.8380   43.4110 O   0  0  0  0  0  0  0  0  0  0  0  0
   44.5640   42.6660   43.0400 H   0  0  0  0  0  0  0  0  0  0  0  0
   44.3090   43.7270   45.3120 O   0  0  0  0  0  0  0  0  0  0  0  0
   43.7270   43.9250   44.4930 H   0  0  0  0  0  0  0  0  0  0  0  0
  1  6  1  0  0  0  0
  2  1  2  0  0  0  0
  2  3  1  0  0  0  0
  3  4  2  0  0  0  0
  4  5  1  0  0  0  0
  5  8  1  0  0  0  0
  6  5  2  0  0  0  0
  7  2  1  0  0  0  0
  9 14  1  6  0  0  0
  9 19  1  0  0  0  0
  9 10  1  0  0  0  0
 10  3  1  0  0  0  0
 10 15  1  1  0  0  0
 11 10  1  0  0  0  0
 12 13  1  0  0  0  0
 12 16  1  0  0  0  0
 12 11  1  0  0  0  0
 13  9  1  0  0  0  0
 13 18  1  1  0  0  0
 17 12  1  0  0  0  0
 19 20  1  0  0  0  0
 21 13  1  0  0  0  0
 22 21  1  0  0  0  0
 23  1  1  0  0  0  0
 23 28  1  0  0  0  0
 24 23  1  0  0  0  0
 25 23  1  0  0  0  0
 26 31  1  0  0  0  0
 27 26  2  0  0  0  0
 28 26  1  0  0  0  0
 28 29  1  0  0  0  0
 30 31  2  0  0  0  0
 30 36  1  0  0  0  0
 31 32  1  0  0  0  0
 32 33  1  0  0  0  0
 32 34  2  0  0  0  0
 35 34  1  0  0  0  0
 36 35  2  0  0  0  0
 37 30  1  0  0  0  0
 38 37  1  0  0  0  0
 39 36  1  0  0  0  0
 40 39  1  0  0  0  0
M  END
>  <minimizedAffinity>
-4.08763027

>  <minimizedRMSD>
0.924045026

$$$$
