
 OpenBabel03242522513D

 28 29  0  0  0  0  0  0  0  0999 V2000
   45.0920   30.8600   47.5880 O   0  0  0  0  0  0  0  0  0  0  0  0
   45.7460   32.1060   48.2450 P   0  0  2  0  0  0  0  0  0  0  0  0
   45.4220   31.9640   49.8890 O   0  0  0  0  0  0  0  0  0  0  0  0
   46.2580   32.0060   50.4160 H   0  0  0  0  0  0  0  0  0  0  0  0
   44.9780   33.4690   47.6100 O   0  0  0  0  0  0  0  0  0  0  0  0
   46.5340   33.6510   44.3290 C   0  0  0  0  0  0  0  0  0  0  0  0
   46.2160   33.2210   45.6410 C   0  0  0  0  0  0  0  0  0  0  0  0
   45.2580   33.9210   46.3370 C   0  0  0  0  0  0  0  0  0  0  0  0
   44.6740   34.9760   45.7360 N   0  0  0  0  0  0  0  0  0  0  0  0
   44.9700   35.3850   44.4990 C   0  0  0  0  0  0  0  0  0  0  0  0
   45.9010   34.7250   43.7910 N   0  0  0  0  0  0  0  0  0  0  0  0
   47.2740   33.1670   43.7040 H   0  0  0  0  0  0  0  0  0  0  0  0
   46.7890   32.3750   45.9190 H   0  0  0  0  0  0  0  0  0  0  0  0
   44.4280   36.2520   44.1220 H   0  0  0  0  0  0  0  0  0  0  0  0
   47.3700   32.1030   47.9250 O   0  0  0  0  0  0  0  0  0  0  0  0
   48.3990   31.3640   48.3780 C   0  0  0  0  0  0  0  0  0  0  0  0
   49.1340   32.0260   49.2540 O   0  0  0  0  0  0  0  0  0  0  0  0
   48.4190   28.9110   48.0860 C   0  0  0  0  0  0  0  0  0  0  0  0
   49.1120   30.0420   48.3110 C   0  0  0  0  0  0  0  0  0  0  0  0
   50.4990   29.9230   48.4950 C   0  0  0  0  0  0  0  0  0  0  0  0
   50.9820   30.9020   48.6730 H   0  0  0  0  0  0  0  0  0  0  0  0
   51.2450   28.7760   48.4720 C   0  0  0  0  0  3  0  0  0  0  0  0
   50.4860   27.6790   48.2420 C   0  0  0  0  0  3  0  0  0  0  0  0
   49.1360   27.7030   48.0520 C   0  0  0  0  0  0  0  0  0  0  0  0
   47.0550   28.7830   47.8780 O   0  0  0  0  0  0  0  0  0  0  0  0
   46.6380   28.2120   47.1530 H   0  0  0  0  0  0  0  0  0  0  0  0
   48.4510   26.5200   47.8230 O   0  0  0  0  0  0  0  0  0  0  0  0
   47.5640   26.3850   48.2970 H   0  0  0  0  0  0  0  0  0  0  0  0
  2  1  2  6  0  0  0
  2  3  1  0  0  0  0
  3  4  1  0  0  0  0
  5  2  1  0  0  0  0
  6  7  1  0  0  0  0
  7 13  1  0  0  0  0
  7  8  2  0  0  0  0
  8  5  1  0  0  0  0
  9  8  1  0  0  0  0
 10  9  2  0  0  0  0
 11  6  2  0  0  0  0
 11 10  1  0  0  0  0
 12  6  1  0  0  0  0
 14 10  1  0  0  0  0
 15  2  1  0  0  0  0
 15 16  1  0  0  0  0
 16 17  2  0  0  0  0
 18 19  1  0  0  0  0
 19 16  1  0  0  0  0
 19 20  2  0  0  0  0
 20 21  1  0  0  0  0
 22 20  1  0  0  0  0
 23 22  2  0  0  0  0
 24 18  2  0  0  0  0
 24 23  1  0  0  0  0
 25 18  1  0  0  0  0
 26 25  1  0  0  0  0
 27 24  1  0  0  0  0
 27 28  1  0  0  0  0
M  END
>  <minimizedAffinity>
-4.88277769

>  <minimizedRMSD>
0.192698151

$$$$
