
 OpenBabel03242522513D

 28 29  0  0  0  0  0  0  0  0999 V2000
   45.1790   30.8450   47.5720 O   0  0  0  0  0  0  0  0  0  0  0  0
   45.7860   32.1040   48.2480 P   0  0  2  0  0  0  0  0  0  0  0  0
   45.4380   31.9420   49.8850 O   0  0  0  0  0  0  0  0  0  0  0  0
   46.2640   32.0040   50.4260 H   0  0  0  0  0  0  0  0  0  0  0  0
   44.9880   33.4490   47.6090 O   0  0  0  0  0  0  0  0  0  0  0  0
   46.5360   33.6510   44.3260 C   0  0  0  0  0  0  0  0  0  0  0  0
   46.2220   33.2140   45.6360 C   0  0  0  0  0  0  0  0  0  0  0  0
   45.2650   33.9080   46.3380 C   0  0  0  0  0  0  0  0  0  0  0  0
   44.6780   34.9660   45.7440 N   0  0  0  0  0  0  0  0  0  0  0  0
   44.9710   35.3820   44.5090 C   0  0  0  0  0  0  0  0  0  0  0  0
   45.9010   34.7270   43.7950 N   0  0  0  0  0  0  0  0  0  0  0  0
   47.2750   33.1710   43.6960 H   0  0  0  0  0  0  0  0  0  0  0  0
   46.7960   32.3660   45.9080 H   0  0  0  0  0  0  0  0  0  0  0  0
   44.4260   36.2510   44.1380 H   0  0  0  0  0  0  0  0  0  0  0  0
   47.4140   32.1510   47.9550 O   0  0  0  0  0  0  0  0  0  0  0  0
   48.4650   31.4940   48.4790 C   0  0  0  0  0  0  0  0  0  0  0  0
   49.1790   32.2640   49.2800 O   0  0  0  0  0  0  0  0  0  0  0  0
   48.5890   29.0350   48.2780 C   0  0  0  0  0  0  0  0  0  0  0  0
   49.2180   30.1940   48.5450 C   0  0  0  0  0  0  0  0  0  0  0  0
   50.5760   30.1260   48.9000 C   0  0  0  0  0  0  0  0  0  0  0  0
   51.0040   31.1250   49.0990 H   0  0  0  0  0  0  0  0  0  0  0  0
   51.3500   29.0030   49.0070 C   0  0  0  0  0  3  0  0  0  0  0  0
   50.6560   27.8750   48.7260 C   0  0  0  0  0  3  0  0  0  0  0  0
   49.3390   27.8500   48.3750 C   0  0  0  0  0  0  0  0  0  0  0  0
   47.2660   28.8550   47.9110 O   0  0  0  0  0  0  0  0  0  0  0  0
   46.9550   28.2500   47.1620 H   0  0  0  0  0  0  0  0  0  0  0  0
   48.7210   26.6380   48.1070 O   0  0  0  0  0  0  0  0  0  0  0  0
   47.7860   26.4900   48.4740 H   0  0  0  0  0  0  0  0  0  0  0  0
  2  1  2  6  0  0  0
  2  3  1  0  0  0  0
  3  4  1  0  0  0  0
  5  2  1  0  0  0  0
  6  7  1  0  0  0  0
  7 13  1  0  0  0  0
  7  8  2  0  0  0  0
  8  5  1  0  0  0  0
  9  8  1  0  0  0  0
 10  9  2  0  0  0  0
 11  6  2  0  0  0  0
 11 10  1  0  0  0  0
 12  6  1  0  0  0  0
 14 10  1  0  0  0  0
 15  2  1  0  0  0  0
 15 16  1  0  0  0  0
 16 19  1  0  0  0  0
 16 17  2  0  0  0  0
 18 24  2  0  0  0  0
 18 19  1  0  0  0  0
 19 20  2  0  0  0  0
 20 22  1  0  0  0  0
 20 21  1  0  0  0  0
 23 22  2  0  0  0  0
 24 23  1  0  0  0  0
 25 18  1  0  0  0  0
 26 25  1  0  0  0  0
 27 24  1  0  0  0  0
 27 28  1  0  0  0  0
M  END
>  <minimizedAffinity>
-4.87179089

>  <minimizedRMSD>
0.311213017

$$$$
