
 OpenBabel03242516463D

 44 48  0  0  1  0  0  0  0  0999 V2000
   45.6020   32.9330   42.3180 C   0  0  0  0  0  0  0  0  0  0  0  0
   44.7720   31.8730   42.3480 N   0  0  0  0  0  0  0  0  0  0  0  0
   43.5280   32.2200   42.0330 C   0  0  0  0  0  0  0  0  0  0  0  0
   43.5620   33.5580   41.7910 N   0  0  0  0  0  0  0  0  0  0  0  0
   44.7980   34.0050   41.9560 N   0  0  0  0  0  0  0  0  0  0  0  0
   42.5930   31.6740   41.9470 H   0  0  0  0  0  0  0  0  0  0  0  0
   40.5370   32.9250   41.6000 O   0  0  0  0  0  0  0  0  0  0  0  0
   41.3120   33.6250   40.8750 C   0  0  0  0  0  0  0  0  0  0  0  0
   42.4510   34.4220   41.4030 C   0  0  2  0  0  0  0  0  0  0  0  0
   42.8260   35.2950   40.2230 C   0  0  0  0  0  0  0  0  0  0  0  0
   42.5440   34.3630   39.0480 C   0  0  0  0  0  0  0  0  0  0  0  0
   41.2660   33.7980   39.4420 N   0  0  0  0  0  0  0  0  0  0  0  0
   42.1620   35.0190   42.2820 H   0  0  0  0  0  0  0  0  0  0  0  0
   42.0800   36.1240   40.1920 H   0  0  0  0  0  0  0  0  0  0  0  0
   43.8700   35.6390   40.2290 H   0  0  0  0  0  0  0  0  0  0  0  0
   42.5100   34.8720   38.0820 H   0  0  0  0  0  0  0  0  0  0  0  0
   43.3440   33.5820   39.1160 H   0  0  0  0  0  0  0  0  0  0  0  0
   40.0000   32.0820   38.3920 C   0  0  0  0  0  0  0  0  0  0  0  0
   40.1340   33.4490   38.6510 C   0  0  0  0  0  0  0  0  0  0  0  0
   39.2020   34.3290   38.1450 C   0  0  0  0  0  0  0  0  0  0  0  0
   39.3430   35.3640   38.3660 H   0  0  0  0  0  0  0  0  0  0  0  0
   38.1460   33.8190   37.3840 C   0  0  0  0  0  0  0  0  0  0  0  0
   38.0280   32.4550   37.1370 C   0  0  0  0  0  0  0  0  0  0  0  0
   38.9600   31.5680   37.6430 C   0  0  0  0  0  0  0  0  0  0  0  0
   40.9180   31.1530   38.8840 O   0  0  0  0  0  0  0  0  0  0  0  0
   40.8560   30.7970   39.8390 H   0  0  0  0  0  0  0  0  0  0  0  0
   38.8620   30.1920   37.4080 O   0  0  0  0  0  0  0  0  0  0  0  0
   38.8880   29.6150   38.2630 H   0  0  0  0  0  0  0  0  0  0  0  0
   47.6950   32.9250   43.9060 C   0  0  1  0  0  0  0  0  0  0  0  0
   47.0390   33.0560   42.5780 C   0  0  2  0  0  0  0  0  0  0  0  0
   47.5130   34.2400   43.2570 C   0  0  0  0  0  0  0  0  0  0  0  0
   48.6820   32.4230   43.8730 H   0  0  0  0  0  0  0  0  0  0  0  0
   47.6350   32.7040   41.6810 H   0  0  0  0  0  0  0  0  0  0  0  0
   46.8190   35.0020   43.6850 H   0  0  0  0  0  0  0  0  0  0  0  0
   48.4230   34.7640   42.8370 H   0  0  0  0  0  0  0  0  0  0  0  0
   46.9330   31.2390   45.5670 C   0  0  0  0  0  0  0  0  0  0  0  0
   46.9280   32.5610   45.1250 C   0  0  0  0  0  0  0  0  0  0  0  0
   46.2110   33.4670   45.8700 C   0  0  0  0  0  0  0  0  0  0  0  0
   45.5590   33.0220   46.9760 N   0  0  0  0  0  0  0  0  0  0  0  0
   45.5780   31.7590   47.3750 C   0  0  0  0  0  0  0  0  0  0  0  0
   46.2780   30.8620   46.6540 N   0  0  0  0  0  0  0  0  0  0  0  0
   47.4950   30.4910   44.9970 H   0  0  0  0  0  0  0  0  0  0  0  0
   46.1760   34.4930   45.5730 H   0  0  0  0  0  0  0  0  0  0  0  0
   45.0700   31.3760   48.2510 H   0  0  0  0  0  0  0  0  0  0  0  0
  1  2  1  0  0  0  0
  1 30  1  0  0  0  0
  3  2  2  0  0  0  0
  4  5  1  0  0  0  0
  4  3  1  0  0  0  0
  5  1  2  0  0  0  0
  6  3  1  0  0  0  0
  8  9  1  0  0  0  0
  8  7  2  0  0  0  0
  9  4  1  0  0  0  0
  9 13  1  1  0  0  0
 10 15  1  0  0  0  0
 10  9  1  0  0  0  0
 11 17  1  0  0  0  0
 11 12  1  0  0  0  0
 11 10  1  0  0  0  0
 12  8  1  0  0  0  0
 14 10  1  0  0  0  0
 16 11  1  0  0  0  0
 18 19  1  0  0  0  0
 18 25  1  0  0  0  0
 19 12  1  0  0  0  0
 20 21  1  0  0  0  0
 20 19  2  0  0  0  0
 22 20  1  0  0  0  0
 23 22  2  0  0  0  0
 23 24  1  0  0  0  0
 24 18  2  0  0  0  0
 25 26  1  0  0  0  0
 27 24  1  0  0  0  0
 27 28  1  0  0  0  0
 29 32  1  6  0  0  0
 29 37  1  0  0  0  0
 30 33  1  6  0  0  0
 30 31  1  0  0  0  0
 30 29  1  0  0  0  0
 31 34  1  0  0  0  0
 31 29  1  0  0  0  0
 35 31  1  0  0  0  0
 36 41  1  0  0  0  0
 37 36  2  0  0  0  0
 37 38  1  0  0  0  0
 38 39  2  0  0  0  0
 39 40  1  0  0  0  0
 40 44  1  0  0  0  0
 41 40  2  0  0  0  0
 42 36  1  0  0  0  0
 43 38  1  0  0  0  0
M  END
>  <minimizedAffinity>
-6.1356411

>  <minimizedRMSD>
1.7355504

$$$$
