
 OpenBabel03252506353D

 35 37  0  0  1  0  0  0  0  0999 V2000
   44.4200   35.7870   45.0240 C   0  0  0  0  0  0  0  0  0  0  0  0
   45.0630   35.7910   43.7660 C   0  0  0  0  0  0  0  0  0  0  0  0
   45.9830   34.8260   43.4870 C   0  0  0  0  0  0  0  0  0  0  0  0
   46.2280   33.9060   44.4560 N   0  0  0  0  0  0  0  0  0  0  0  0
   45.6230   33.9080   45.6340 C   0  0  0  0  0  0  0  0  0  0  0  0
   44.7100   34.8470   45.9360 N   0  0  0  0  0  0  0  0  0  0  0  0
   45.9590   32.8990   46.5700 N   0  0  0  0  0  0  0  0  0  0  0  0
   45.1760   32.5580   47.7560 C   0  0  0  0  0  0  0  0  0  0  0  0
   46.2810   32.2780   48.7760 C   0  0  0  0  0  0  0  0  0  0  0  0
   47.5670   32.1980   48.0240 C   0  0  0  0  0  0  0  0  0  0  0  0
   47.0910   32.0050   46.5930 C   0  0  1  0  0  0  0  0  0  0  0  0
   43.6840   36.5470   45.2650 H   0  0  0  0  0  0  0  0  0  0  0  0
   46.4720   34.8340   42.5230 H   0  0  0  0  0  0  0  0  0  0  0  0
   44.6700   31.6090   47.5220 H   0  0  0  0  0  0  0  0  0  0  0  0
   44.5090   33.3580   48.0770 H   0  0  0  0  0  0  0  0  0  0  0  0
   46.0100   31.3440   49.3300 H   0  0  0  0  0  0  0  0  0  0  0  0
   46.3070   33.0990   49.5220 H   0  0  0  0  0  0  0  0  0  0  0  0
   48.2700   31.4450   48.3700 H   0  0  0  0  0  0  0  0  0  0  0  0
   48.0670   33.2100   48.0470 H   0  0  0  0  0  0  0  0  0  0  0  0
   47.9150   32.3390   45.9440 H   0  0  0  0  0  0  0  0  0  0  0  0
   44.6810   36.8400   42.8570 N   0  0  0  0  0  0  0  0  0  0  0  0
   45.5620   37.4140   42.7830 H   0  0  0  0  0  0  0  0  0  0  0  0
   43.7190   36.8870   42.4510 H   0  0  0  0  0  0  0  0  0  0  0  0
   46.6200   30.2920   46.3350 S   0  0  0  0  0  0  0  0  0  0  0  0
   48.4890   28.2630   47.1420 C   0  0  0  0  0  0  0  0  0  0  0  0
   48.0620   29.2450   46.2790 C   0  0  0  0  0  0  0  0  0  0  0  0
   48.8330   29.5220   45.1440 C   0  0  0  0  0  0  0  0  0  0  0  0
   48.6330   30.2680   44.3630 H   0  0  0  0  0  0  0  0  0  0  0  0
   50.0140   28.8150   44.8900 C   0  0  0  0  0  3  0  0  0  0  0  0
   50.4190   27.8350   45.7720 C   0  0  0  0  0  3  0  0  0  0  0  0
   49.6390   27.5790   46.8900 C   0  0  0  0  0  0  0  0  0  0  0  0
   47.6350   28.0960   48.2140 O   0  0  0  0  0  0  0  0  0  0  0  0
   48.0060   28.0230   49.1660 H   0  0  0  0  0  0  0  0  0  0  0  0
   49.9310   26.6120   47.8690 O   0  0  0  0  0  0  0  0  0  0  0  0
   50.6210   25.8970   47.7060 H   0  0  0  0  0  0  0  0  0  0  0  0
  1 12  1  0  0  0  0
  1  6  1  0  0  0  0
  2  1  2  0  0  0  0
  3  2  1  0  0  0  0
  3  4  2  0  0  0  0
  4  5  1  0  0  0  0
  5  6  2  0  0  0  0
  5  7  1  0  0  0  0
  7 11  1  0  0  0  0
  7  8  1  0  0  0  0
  8 15  1  0  0  0  0
  8  9  1  0  0  0  0
  9 16  1  0  0  0  0
  9 17  1  0  0  0  0
 10 19  1  0  0  0  0
 10 18  1  0  0  0  0
 10  9  1  0  0  0  0
 11 20  1  6  0  0  0
 11 10  1  0  0  0  0
 13  3  1  0  0  0  0
 14  8  1  0  0  0  0
 21  2  1  0  0  0  0
 22 21  1  0  0  0  0
 23 21  1  0  0  0  0
 24 11  1  0  0  0  0
 25 32  1  0  0  0  0
 26 24  1  0  0  0  0
 26 25  2  0  0  0  0
 27 26  1  0  0  0  0
 28 27  1  0  0  0  0
 29 27  2  0  0  0  0
 29 30  1  0  0  0  0
 30 31  2  0  0  0  0
 31 25  1  0  0  0  0
 31 34  1  0  0  0  0
 32 33  1  0  0  0  0
 35 34  1  0  0  0  0
M  END
>  <minimizedAffinity>
-5.38613987

>  <minimizedRMSD>
0.271206319

$$$$
