
 OpenBabel03242512273D

 24 25  0  0  0  0  0  0  0  0999 V2000
   45.9480   32.7440   46.6230 C   0  0  0  0  0  0  0  0  0  0  0  0
   45.0510   32.9590   47.5040 O   0  0  0  0  0  0  0  0  0  0  0  0
   44.9590   35.1330   44.0870 C   0  0  0  0  0  0  0  0  0  0  0  0
   45.9950   35.0800   43.1500 C   0  0  0  0  0  0  0  0  0  0  0  0
   47.0650   34.2070   43.3810 C   0  0  0  0  0  0  0  0  0  0  0  0
   47.0320   33.4640   44.5020 N   0  0  0  0  0  0  0  0  0  0  0  0
   46.0350   33.5190   45.4000 C   0  0  0  0  0  0  0  0  0  0  0  0
   45.0020   34.3560   45.1850 N   0  0  0  0  0  0  0  0  0  0  0  0
   43.8770   36.0170   43.8540 N   0  0  0  0  0  0  0  0  0  0  0  0
   46.0140   35.6800   42.2520 H   0  0  0  0  0  0  0  0  0  0  0  0
   47.9000   34.1050   42.7100 H   0  0  0  0  0  0  0  0  0  0  0  0
   44.0050   37.0020   43.4900 H   0  0  0  0  0  0  0  0  0  0  0  0
   42.8450   35.8970   43.9770 H   0  0  0  0  0  0  0  0  0  0  0  0
   47.2920   31.5010   48.2720 C   0  0  0  0  0  0  0  0  0  0  0  0
   46.8560   31.6560   46.9750 C   0  0  0  0  0  0  0  0  0  0  0  0
   47.3470   30.7170   46.0930 C   0  0  0  0  0  0  0  0  0  0  0  0
   47.0540   30.7710   45.0580 H   0  0  0  0  0  0  0  0  0  0  0  0
   48.2050   29.6920   46.4290 C   0  0  0  0  0  3  0  0  0  0  0  0
   48.6170   29.5740   47.7390 C   0  0  0  0  0  3  0  0  0  0  0  0
   48.1550   30.4880   48.6620 C   0  0  0  0  0  0  0  0  0  0  0  0
   46.8880   32.3720   49.3020 O   0  0  0  0  0  0  0  0  0  0  0  0
   45.9260   32.1960   49.6150 H   0  0  0  0  0  0  0  0  0  0  0  0
   48.5720   30.3650   49.9810 O   0  0  0  0  0  0  0  0  0  0  0  0
   48.2430   31.0300   50.6680 H   0  0  0  0  0  0  0  0  0  0  0  0
  1 15  1  0  0  0  0
  1  2  2  0  0  0  0
  3  8  1  0  0  0  0
  4  5  1  0  0  0  0
  4  3  2  0  0  0  0
  5  6  2  0  0  0  0
  6  7  1  0  0  0  0
  7  1  1  0  0  0  0
  8  7  2  0  0  0  0
  9 13  1  0  0  0  0
  9  3  1  0  0  0  0
 10  4  1  0  0  0  0
 11  5  1  0  0  0  0
 12  9  1  0  0  0  0
 14 20  1  0  0  0  0
 14 21  1  0  0  0  0
 15 14  2  0  0  0  0
 16 18  2  0  0  0  0
 16 15  1  0  0  0  0
 17 16  1  0  0  0  0
 18 19  1  0  0  0  0
 19 20  2  0  0  0  0
 20 23  1  0  0  0  0
 21 22  1  0  0  0  0
 23 24  1  0  0  0  0
M  END
>  <minimizedAffinity>
-5.53227091

>  <minimizedRMSD>
1.40973043

$$$$
