
 OpenBabel03252509273D

 32 34  0  0  1  0  0  0  0  0999 V2000
   47.3890   35.3270   41.9250 C   0  0  1  0  0  0  0  0  0  0  0  0
   48.8980   35.6080   42.1820 C   0  0  0  0  0  0  0  0  0  0  0  0
   48.3170   34.5820   41.1750 C   0  0  2  0  0  0  0  0  0  0  0  0
   46.8490   36.2030   41.5260 H   0  0  0  0  0  0  0  0  0  0  0  0
   49.3510   35.2440   43.1040 H   0  0  0  0  0  0  0  0  0  0  0  0
   49.2630   36.5530   41.7640 H   0  0  0  0  0  0  0  0  0  0  0  0
   48.6350   33.5320   41.4540 H   0  0  0  0  0  0  0  0  0  0  0  0
   45.0540   34.5760   44.7610 C   0  0  0  0  0  0  0  0  0  0  0  0
   45.6030   35.2610   43.6410 C   0  0  0  0  0  0  0  0  0  0  0  0
   46.7450   34.7220   43.1490 C   0  0  0  0  0  0  0  0  0  0  0  0
   47.3240   33.5950   43.7050 N   0  0  0  0  0  0  0  0  0  0  0  0
   46.7590   32.9830   44.7700 C   0  0  0  0  0  0  0  0  0  0  0  0
   45.6180   33.4780   45.2990 N   0  0  0  0  0  0  0  0  0  0  0  0
   44.1450   34.9710   45.1810 H   0  0  0  0  0  0  0  0  0  0  0  0
   47.3290   32.1190   45.0850 H   0  0  0  0  0  0  0  0  0  0  0  0
   45.0250   36.4230   43.0930 N   0  0  0  0  0  0  0  0  0  0  0  0
   43.9760   36.4640   43.0310 H   0  0  0  0  0  0  0  0  0  0  0  0
   45.6680   37.1990   42.7710 H   0  0  0  0  0  0  0  0  0  0  0  0
   48.5010   34.8290   39.7000 C   0  0  0  0  0  0  0  0  0  0  0  0
   48.3100   35.9160   39.5500 H   0  0  0  0  0  0  0  0  0  0  0  0
   49.5810   34.6810   39.4630 H   0  0  0  0  0  0  0  0  0  0  0  0
   48.3200   33.9150   37.5510 C   0  0  0  0  0  0  0  0  0  0  0  0
   47.7060   33.9900   38.8090 C   0  0  0  0  0  0  0  0  0  0  0  0
   46.5290   33.2910   38.9650 C   0  0  0  0  0  0  0  0  0  0  0  0
   46.1250   33.3970   39.9480 H   0  0  0  0  0  0  0  0  0  0  0  0
   45.9690   32.5520   37.9500 C   0  0  0  0  0  3  0  0  0  0  0  0
   46.5880   32.4850   36.7050 C   0  0  0  0  0  3  0  0  0  0  0  0
   47.7600   33.1730   36.5250 C   0  0  0  0  0  0  0  0  0  0  0  0
   49.5110   34.5340   37.1550 O   0  0  0  0  0  0  0  0  0  0  0  0
   50.3560   34.1940   37.6090 H   0  0  0  0  0  0  0  0  0  0  0  0
   48.2970   33.0420   35.2510 O   0  0  0  0  0  0  0  0  0  0  0  0
   49.2760   33.3420   35.1500 H   0  0  0  0  0  0  0  0  0  0  0  0
  1  4  1  6  0  0  0
  1  2  1  0  0  0  0
  1 10  1  0  0  0  0
  2  5  1  0  0  0  0
  3  7  1  1  0  0  0
  3  1  1  0  0  0  0
  3  2  1  0  0  0  0
  6  2  1  0  0  0  0
  8 14  1  0  0  0  0
  8 13  1  0  0  0  0
  9  8  2  0  0  0  0
 10  9  1  0  0  0  0
 10 11  2  0  0  0  0
 11 12  1  0  0  0  0
 12 15  1  0  0  0  0
 12 13  2  0  0  0  0
 16  9  1  0  0  0  0
 17 16  1  0  0  0  0
 18 16  1  0  0  0  0
 19  3  1  0  0  0  0
 20 19  1  0  0  0  0
 21 19  1  0  0  0  0
 22 23  1  0  0  0  0
 23 24  2  0  0  0  0
 23 19  1  0  0  0  0
 24 25  1  0  0  0  0
 26 24  1  0  0  0  0
 27 26  2  0  0  0  0
 28 27  1  0  0  0  0
 28 22  2  0  0  0  0
 29 22  1  0  0  0  0
 29 30  1  0  0  0  0
 31 28  1  0  0  0  0
 32 31  1  0  0  0  0
M  END
>  <minimizedAffinity>
-5.71897221

>  <minimizedRMSD>
2.57152367

$$$$
