
 OpenBabel03252507173D

 31 33  0  0  0  0  0  0  0  0999 V2000
   35.4940   26.8850   38.0460 C   0  0  0  0  0  0  0  0  0  0  0  0
   35.9310   27.5550   39.2160 C   0  0  0  0  0  0  0  0  0  0  0  0
   36.8250   26.8800   40.0480 C   0  0  0  0  0  0  0  0  0  0  0  0
   37.2360   25.6440   39.7230 N   0  0  0  0  0  0  0  0  0  0  0  0
   36.7980   25.0190   38.5840 C   0  0  0  0  0  0  0  0  0  0  0  0
   35.9420   25.6500   37.7760 N   0  0  0  0  0  0  0  0  0  0  0  0
   34.8010   27.3800   37.3790 H   0  0  0  0  0  0  0  0  0  0  0  0
   37.2270   24.0300   38.4760 H   0  0  0  0  0  0  0  0  0  0  0  0
   37.2770   27.5580   41.2470 C   0  0  0  0  0  0  0  0  0  0  0  0
   36.5930   27.3860   42.4370 C   0  0  0  0  0  0  0  0  0  0  0  0
   37.0470   28.0420   43.5550 C   0  0  0  0  0  0  0  0  0  0  0  0
   38.1550   28.8700   43.5640 C   0  0  0  0  0  0  0  0  0  0  0  0
   38.8000   29.0020   42.3400 C   0  0  0  0  0  0  0  0  0  0  0  0
   38.3470   28.3540   41.2450 N   0  0  0  0  0  0  0  0  0  0  0  0
   35.7290   26.7720   42.5410 H   0  0  0  0  0  0  0  0  0  0  0  0
   36.5420   27.9380   44.5150 H   0  0  0  0  0  0  0  0  0  0  0  0
   38.5620   29.4060   44.3870 H   0  0  0  0  0  0  0  0  0  0  0  0
   39.6830   29.6190   42.1980 H   0  0  0  0  0  0  0  0  0  0  0  0
   35.4530   28.8620   39.4930 C   0  0  0  0  0  0  0  0  0  0  0  0
   34.3330   28.9810   40.0530 O   0  0  0  0  0  0  0  0  0  0  0  0
   36.3710   31.1100   40.0290 C   0  0  0  0  0  0  0  0  0  0  0  0
   36.2140   30.0590   39.1510 C   0  0  0  0  0  0  0  0  0  0  0  0
   36.8130   30.1790   37.9150 C   0  0  0  0  0  0  0  0  0  0  0  0
   36.6800   29.3470   37.2410 H   0  0  0  0  0  0  0  0  0  0  0  0
   37.5380   31.2640   37.5250 C   0  0  0  0  0  3  0  0  0  0  0  0
   37.6830   32.3140   38.4280 C   0  0  0  0  0  3  0  0  0  0  0  0
   37.1000   32.2220   39.6620 C   0  0  0  0  0  0  0  0  0  0  0  0
   35.7800   31.0380   41.3040 O   0  0  0  0  0  0  0  0  0  0  0  0
   35.2820   31.8060   41.7240 H   0  0  0  0  0  0  0  0  0  0  0  0
   37.2230   33.2480   40.5880 O   0  0  0  0  0  0  0  0  0  0  0  0
   38.1230   33.6240   40.8660 H   0  0  0  0  0  0  0  0  0  0  0  0
  1  2  1  0  0  0  0
  2 19  1  0  0  0  0
  2  3  2  0  0  0  0
  3  9  1  0  0  0  0
  4  3  1  0  0  0  0
  5  4  2  0  0  0  0
  6  1  2  0  0  0  0
  6  5  1  0  0  0  0
  7  1  1  0  0  0  0
  8  5  1  0  0  0  0
  9 10  1  0  0  0  0
 10 15  1  0  0  0  0
 10 11  2  0  0  0  0
 11 12  1  0  0  0  0
 11 16  1  0  0  0  0
 12 17  1  0  0  0  0
 13 12  2  0  0  0  0
 14  9  2  0  0  0  0
 14 13  1  0  0  0  0
 18 13  1  0  0  0  0
 19 20  2  0  0  0  0
 21 28  1  0  0  0  0
 22 19  1  0  0  0  0
 22 21  2  0  0  0  0
 23 22  1  0  0  0  0
 24 23  1  0  0  0  0
 25 23  2  0  0  0  0
 25 26  1  0  0  0  0
 26 27  2  0  0  0  0
 27 21  1  0  0  0  0
 27 30  1  0  0  0  0
 28 29  1  0  0  0  0
 30 31  1  0  0  0  0
M  END
>  <minimizedAffinity>
-6.55892324

$$$$

 OpenBabel03252507173D

 31 33  0  0  0  0  0  0  0  0999 V2000
   39.6600   27.5880   43.2160 C   0  0  0  0  0  0  0  0  0  0  0  0
   38.9790   26.6860   42.3610 C   0  0  0  0  0  0  0  0  0  0  0  0
   39.7450   25.7300   41.6930 C   0  0  0  0  0  0  0  0  0  0  0  0
   41.0740   25.6930   41.8770 N   0  0  0  0  0  0  0  0  0  0  0  0
   41.7090   26.5770   42.7110 C   0  0  0  0  0  0  0  0  0  0  0  0
   40.9910   27.4990   43.3590 N   0  0  0  0  0  0  0  0  0  0  0  0
   39.0960   28.3410   43.7490 H   0  0  0  0  0  0  0  0  0  0  0  0
   42.7780   26.4070   42.7420 H   0  0  0  0  0  0  0  0  0  0  0  0
   39.0570   24.8030   40.8160 C   0  0  0  0  0  0  0  0  0  0  0  0
   38.4970   23.6500   41.3330 C   0  0  0  0  0  0  0  0  0  0  0  0
   37.8520   22.7920   40.4760 C   0  0  0  0  0  0  0  0  0  0  0  0
   37.7270   23.0140   39.1160 C   0  0  0  0  0  0  0  0  0  0  0  0
   38.3090   24.1890   38.6570 C   0  0  0  0  0  0  0  0  0  0  0  0
   38.9420   25.0270   39.5060 N   0  0  0  0  0  0  0  0  0  0  0  0
   38.5350   23.3820   42.3630 H   0  0  0  0  0  0  0  0  0  0  0  0
   37.3950   21.8710   40.8360 H   0  0  0  0  0  0  0  0  0  0  0  0
   37.2440   22.3980   38.3970 H   0  0  0  0  0  0  0  0  0  0  0  0
   38.2900   24.4930   37.6140 H   0  0  0  0  0  0  0  0  0  0  0  0
   37.5710   26.7870   42.2170 C   0  0  0  0  0  0  0  0  0  0  0  0
   36.8460   26.0150   42.8940 O   0  0  0  0  0  0  0  0  0  0  0  0
   36.5620   29.0070   41.7290 C   0  0  0  0  0  0  0  0  0  0  0  0
   36.9470   27.7490   41.3150 C   0  0  0  0  0  0  0  0  0  0  0  0
   36.7190   27.4270   39.9950 C   0  0  0  0  0  0  0  0  0  0  0  0
   37.0270   26.4380   39.6880 H   0  0  0  0  0  0  0  0  0  0  0  0
   36.1430   28.2710   39.0950 C   0  0  0  0  0  3  0  0  0  0  0  0
   35.7620   29.5360   39.5360 C   0  0  0  0  0  3  0  0  0  0  0  0
   35.9750   29.8840   40.8410 C   0  0  0  0  0  0  0  0  0  0  0  0
   36.7730   29.3870   43.0680 O   0  0  0  0  0  0  0  0  0  0  0  0
   36.0790   29.8660   43.6190 H   0  0  0  0  0  0  0  0  0  0  0  0
   35.6090   31.1360   41.3160 O   0  0  0  0  0  0  0  0  0  0  0  0
   35.9120   31.9960   40.8720 H   0  0  0  0  0  0  0  0  0  0  0  0
  1  6  1  0  0  0  0
  1  7  1  0  0  0  0
  2  1  2  0  0  0  0
  3  4  2  0  0  0  0
  3  2  1  0  0  0  0
  4  5  1  0  0  0  0
  5  8  1  0  0  0  0
  5  6  2  0  0  0  0
  9 10  1  0  0  0  0
  9  3  1  0  0  0  0
 10 15  1  0  0  0  0
 11 16  1  0  0  0  0
 11 10  2  0  0  0  0
 12 11  1  0  0  0  0
 13 12  2  0  0  0  0
 13 14  1  0  0  0  0
 14  9  2  0  0  0  0
 17 12  1  0  0  0  0
 18 13  1  0  0  0  0
 19  2  1  0  0  0  0
 19 20  2  0  0  0  0
 21 28  1  0  0  0  0
 22 21  1  0  0  0  0
 22 19  1  0  0  0  0
 23 22  2  0  0  0  0
 24 23  1  0  0  0  0
 25 26  2  0  0  0  0
 25 23  1  0  0  0  0
 26 27  1  0  0  0  0
 27 30  1  0  0  0  0
 27 21  2  0  0  0  0
 28 29  1  0  0  0  0
 31 30  1  0  0  0  0
M  END
>  <minimizedAffinity>
-5.83081722

$$$$

 OpenBabel03252507173D

 31 33  0  0  0  0  0  0  0  0999 V2000
   35.3240   27.1360   37.9650 C   0  0  0  0  0  0  0  0  0  0  0  0
   35.8630   27.7800   39.1070 C   0  0  0  0  0  0  0  0  0  0  0  0
   36.8210   27.0840   39.8450 C   0  0  0  0  0  0  0  0  0  0  0  0
   37.1950   25.8530   39.4610 N   0  0  0  0  0  0  0  0  0  0  0  0
   36.6580   25.2540   38.3520 C   0  0  0  0  0  0  0  0  0  0  0  0
   35.7400   25.9050   37.6330 N   0  0  0  0  0  0  0  0  0  0  0  0
   34.5800   27.6480   37.3710 H   0  0  0  0  0  0  0  0  0  0  0  0
   37.0700   24.2650   38.1870 H   0  0  0  0  0  0  0  0  0  0  0  0
   37.3790   27.7350   41.0160 C   0  0  0  0  0  0  0  0  0  0  0  0
   36.6640   27.7560   42.1990 C   0  0  0  0  0  0  0  0  0  0  0  0
   37.2190   28.3810   43.2890 C   0  0  0  0  0  0  0  0  0  0  0  0
   38.4600   28.9940   43.2750 C   0  0  0  0  0  0  0  0  0  0  0  0
   39.1280   28.9380   42.0580 C   0  0  0  0  0  0  0  0  0  0  0  0
   38.5750   28.3220   40.9910 N   0  0  0  0  0  0  0  0  0  0  0  0
   35.7020   27.3160   42.3200 H   0  0  0  0  0  0  0  0  0  0  0  0
   36.6950   28.4240   44.2430 H   0  0  0  0  0  0  0  0  0  0  0  0
   38.9490   29.4920   44.0760 H   0  0  0  0  0  0  0  0  0  0  0  0
   40.1100   29.3760   41.9000 H   0  0  0  0  0  0  0  0  0  0  0  0
   35.4190   29.0830   39.4510 C   0  0  0  0  0  0  0  0  0  0  0  0
   34.2600   29.2130   39.9200 O   0  0  0  0  0  0  0  0  0  0  0  0
   36.7970   30.6140   38.0570 C   0  0  0  0  0  0  0  0  0  0  0  0
   36.2590   30.2630   39.2770 C   0  0  0  0  0  0  0  0  0  0  0  0
   36.5460   31.0830   40.3480 C   0  0  0  0  0  0  0  0  0  0  0  0
   36.1170   30.7940   41.2950 H   0  0  0  0  0  0  0  0  0  0  0  0
   37.3210   32.2000   40.2630 C   0  0  0  0  0  3  0  0  0  0  0  0
   37.8540   32.5330   39.0200 C   0  0  0  0  0  3  0  0  0  0  0  0
   37.5860   31.7390   37.9400 C   0  0  0  0  0  0  0  0  0  0  0  0
   36.5340   29.8110   36.9310 O   0  0  0  0  0  0  0  0  0  0  0  0
   37.2430   29.5440   36.2680 H   0  0  0  0  0  0  0  0  0  0  0  0
   38.0990   32.0400   36.6860 O   0  0  0  0  0  0  0  0  0  0  0  0
   37.9720   32.9470   36.2500 H   0  0  0  0  0  0  0  0  0  0  0  0
  1  2  1  0  0  0  0
  2 19  1  0  0  0  0
  2  3  2  0  0  0  0
  3  9  1  0  0  0  0
  4  3  1  0  0  0  0
  5  4  2  0  0  0  0
  6  1  2  0  0  0  0
  6  5  1  0  0  0  0
  7  1  1  0  0  0  0
  8  5  1  0  0  0  0
  9 10  1  0  0  0  0
 10 15  1  0  0  0  0
 10 11  2  0  0  0  0
 11 16  1  0  0  0  0
 12 11  1  0  0  0  0
 12 17  1  0  0  0  0
 13 12  2  0  0  0  0
 14  9  2  0  0  0  0
 14 13  1  0  0  0  0
 18 13  1  0  0  0  0
 19 20  2  0  0  0  0
 21 22  1  0  0  0  0
 22 19  1  0  0  0  0
 22 23  2  0  0  0  0
 23 24  1  0  0  0  0
 25 23  1  0  0  0  0
 26 25  2  0  0  0  0
 27 21  2  0  0  0  0
 27 26  1  0  0  0  0
 28 21  1  0  0  0  0
 29 28  1  0  0  0  0
 30 27  1  0  0  0  0
 31 30  1  0  0  0  0
M  END
>  <minimizedAffinity>
-5.75032902

$$$$

 OpenBabel03252507173D

 31 33  0  0  0  0  0  0  0  0999 V2000
   35.2720   27.8700   36.9550 C   0  0  0  0  0  0  0  0  0  0  0  0
   35.8220   28.7620   37.9100 C   0  0  0  0  0  0  0  0  0  0  0  0
   36.8600   29.5940   37.4890 C   0  0  0  0  0  0  0  0  0  0  0  0
   37.2970   29.5270   36.2220 N   0  0  0  0  0  0  0  0  0  0  0  0
   36.7460   28.6560   35.3180 C   0  0  0  0  0  0  0  0  0  0  0  0
   35.7510   27.8520   35.7030 N   0  0  0  0  0  0  0  0  0  0  0  0
   34.4660   27.2120   37.2490 H   0  0  0  0  0  0  0  0  0  0  0  0
   37.2160   28.7330   34.3440 H   0  0  0  0  0  0  0  0  0  0  0  0
   37.4290   30.5100   38.4590 C   0  0  0  0  0  0  0  0  0  0  0  0
   38.6330   30.2070   39.0700 C   0  0  0  0  0  0  0  0  0  0  0  0
   39.1450   31.0940   39.9840 C   0  0  0  0  0  0  0  0  0  0  0  0
   38.5270   32.2830   40.3330 C   0  0  0  0  0  0  0  0  0  0  0  0
   37.3230   32.5300   39.6850 C   0  0  0  0  0  0  0  0  0  0  0  0
   36.8260   31.6520   38.7880 N   0  0  0  0  0  0  0  0  0  0  0  0
   39.1910   29.3210   38.8750 H   0  0  0  0  0  0  0  0  0  0  0  0
   40.0900   30.9010   40.4910 H   0  0  0  0  0  0  0  0  0  0  0  0
   38.8640   33.0130   41.0270 H   0  0  0  0  0  0  0  0  0  0  0  0
   36.7280   33.4220   39.8600 H   0  0  0  0  0  0  0  0  0  0  0  0
   35.3080   28.7760   39.2320 C   0  0  0  0  0  0  0  0  0  0  0  0
   34.1570   29.2460   39.4200 O   0  0  0  0  0  0  0  0  0  0  0  0
   36.2820   29.0130   41.5080 C   0  0  0  0  0  0  0  0  0  0  0  0
   36.0690   28.2670   40.3680 C   0  0  0  0  0  0  0  0  0  0  0  0
   36.6080   26.9980   40.3390 C   0  0  0  0  0  0  0  0  0  0  0  0
   36.4310   26.4280   39.4400 H   0  0  0  0  0  0  0  0  0  0  0  0
   37.3290   26.4560   41.3600 C   0  0  0  0  0  3  0  0  0  0  0  0
   37.5320   27.2280   42.5000 C   0  0  0  0  0  3  0  0  0  0  0  0
   37.0080   28.4900   42.5580 C   0  0  0  0  0  0  0  0  0  0  0  0
   35.7520   30.3140   41.5900 O   0  0  0  0  0  0  0  0  0  0  0  0
   36.2760   31.1000   41.9400 H   0  0  0  0  0  0  0  0  0  0  0  0
   37.1900   29.2900   43.6780 O   0  0  0  0  0  0  0  0  0  0  0  0
   36.9520   28.9770   44.6130 H   0  0  0  0  0  0  0  0  0  0  0  0
  1  7  1  0  0  0  0
  1  2  1  0  0  0  0
  2 19  1  0  0  0  0
  3  2  2  0  0  0  0
  3  9  1  0  0  0  0
  4  3  1  0  0  0  0
  5  6  1  0  0  0  0
  5  4  2  0  0  0  0
  6  1  2  0  0  0  0
  8  5  1  0  0  0  0
  9 14  2  0  0  0  0
  9 10  1  0  0  0  0
 10 11  2  0  0  0  0
 11 12  1  0  0  0  0
 11 16  1  0  0  0  0
 12 17  1  0  0  0  0
 13 18  1  0  0  0  0
 13 12  2  0  0  0  0
 14 13  1  0  0  0  0
 15 10  1  0  0  0  0
 19 20  2  0  0  0  0
 19 22  1  0  0  0  0
 21 28  1  0  0  0  0
 21 27  1  0  0  0  0
 22 21  2  0  0  0  0
 23 22  1  0  0  0  0
 23 25  2  0  0  0  0
 24 23  1  0  0  0  0
 25 26  1  0  0  0  0
 26 27  2  0  0  0  0
 27 30  1  0  0  0  0
 28 29  1  0  0  0  0
 30 31  1  0  0  0  0
M  END
>  <minimizedAffinity>
-5.73305225

$$$$

 OpenBabel03252507173D

 31 33  0  0  0  0  0  0  0  0999 V2000
   36.3440   28.5950   38.7350 C   0  0  0  0  0  0  0  0  0  0  0  0
   36.8840   29.7480   39.3570 C   0  0  0  0  0  0  0  0  0  0  0  0
   37.5120   30.6870   38.5370 C   0  0  0  0  0  0  0  0  0  0  0  0
   37.5840   30.4750   37.2140 N   0  0  0  0  0  0  0  0  0  0  0  0
   37.0520   29.3510   36.6370 C   0  0  0  0  0  0  0  0  0  0  0  0
   36.4470   28.4410   37.4060 N   0  0  0  0  0  0  0  0  0  0  0  0
   35.8510   27.8480   39.3410 H   0  0  0  0  0  0  0  0  0  0  0  0
   37.1980   29.3400   35.5630 H   0  0  0  0  0  0  0  0  0  0  0  0
   38.0680   31.8700   39.1650 C   0  0  0  0  0  0  0  0  0  0  0  0
   37.3130   33.0250   39.2510 C   0  0  0  0  0  0  0  0  0  0  0  0
   37.8680   34.1290   39.8500 C   0  0  0  0  0  0  0  0  0  0  0  0
   39.1470   34.1560   40.3790 C   0  0  0  0  0  0  0  0  0  0  0  0
   39.8540   32.9660   40.2630 C   0  0  0  0  0  0  0  0  0  0  0  0
   39.3020   31.8850   39.6710 N   0  0  0  0  0  0  0  0  0  0  0  0
   36.3190   33.1140   38.8770 H   0  0  0  0  0  0  0  0  0  0  0  0
   37.3130   35.0620   39.9420 H   0  0  0  0  0  0  0  0  0  0  0  0
   39.6380   34.9690   40.8550 H   0  0  0  0  0  0  0  0  0  0  0  0
   40.8690   32.8400   40.6320 H   0  0  0  0  0  0  0  0  0  0  0  0
   36.7700   29.9030   40.7630 C   0  0  0  0  0  0  0  0  0  0  0  0
   36.2030   30.9340   41.2050 O   0  0  0  0  0  0  0  0  0  0  0  0
   38.6070   28.8930   42.1000 C   0  0  0  0  0  0  0  0  0  0  0  0
   37.2880   28.9120   41.7000 C   0  0  0  0  0  0  0  0  0  0  0  0
   36.4590   27.9440   42.2260 C   0  0  0  0  0  0  0  0  0  0  0  0
   35.4300   27.9740   41.9020 H   0  0  0  0  0  0  0  0  0  0  0  0
   36.8700   26.9880   43.1050 C   0  0  0  0  0  3  0  0  0  0  0  0
   38.2070   26.9880   43.4940 C   0  0  0  0  0  3  0  0  0  0  0  0
   39.0530   27.9370   42.9880 C   0  0  0  0  0  0  0  0  0  0  0  0
   39.4960   29.8590   41.5930 O   0  0  0  0  0  0  0  0  0  0  0  0
   40.4230   29.6370   41.2680 H   0  0  0  0  0  0  0  0  0  0  0  0
   40.3920   27.9680   43.3540 O   0  0  0  0  0  0  0  0  0  0  0  0
   40.6900   27.9910   44.3230 H   0  0  0  0  0  0  0  0  0  0  0  0
  1  7  1  0  0  0  0
  1  2  1  0  0  0  0
  2 19  1  0  0  0  0
  3  9  1  0  0  0  0
  3  2  2  0  0  0  0
  4  3  1  0  0  0  0
  5  4  2  0  0  0  0
  5  6  1  0  0  0  0
  6  1  2  0  0  0  0
  8  5  1  0  0  0  0
  9 10  2  0  0  0  0
  9 14  1  0  0  0  0
 10 11  1  0  0  0  0
 11 16  1  0  0  0  0
 11 12  2  0  0  0  0
 12 17  1  0  0  0  0
 13 12  1  0  0  0  0
 13 18  1  0  0  0  0
 14 13  2  0  0  0  0
 15 10  1  0  0  0  0
 19 20  2  0  0  0  0
 19 22  1  0  0  0  0
 21 27  1  0  0  0  0
 22 21  2  0  0  0  0
 22 23  1  0  0  0  0
 23 25  2  0  0  0  0
 24 23  1  0  0  0  0
 25 26  1  0  0  0  0
 27 30  1  0  0  0  0
 27 26  2  0  0  0  0
 28 21  1  0  0  0  0
 29 28  1  0  0  0  0
 30 31  1  0  0  0  0
M  END
>  <minimizedAffinity>
-5.67354822

$$$$

 OpenBabel03252507173D

 31 33  0  0  0  0  0  0  0  0999 V2000
   36.1460   27.2270   39.0340 C   0  0  0  0  0  0  0  0  0  0  0  0
   37.0730   27.4340   40.0860 C   0  0  0  0  0  0  0  0  0  0  0  0
   37.9960   26.4190   40.3390 C   0  0  0  0  0  0  0  0  0  0  0  0
   37.9800   25.3020   39.5950 N   0  0  0  0  0  0  0  0  0  0  0  0
   37.0730   25.1270   38.5820 C   0  0  0  0  0  0  0  0  0  0  0  0
   36.1810   26.0890   38.3250 N   0  0  0  0  0  0  0  0  0  0  0  0
   35.4180   27.9950   38.8110 H   0  0  0  0  0  0  0  0  0  0  0  0
   37.1990   24.1730   38.0860 H   0  0  0  0  0  0  0  0  0  0  0  0
   38.9480   26.6220   41.4140 C   0  0  0  0  0  0  0  0  0  0  0  0
   38.6670   26.1490   42.6830 C   0  0  0  0  0  0  0  0  0  0  0  0
   39.5880   26.3570   43.6790 C   0  0  0  0  0  0  0  0  0  0  0  0
   40.7910   27.0150   43.4900 C   0  0  0  0  0  0  0  0  0  0  0  0
   41.0150   27.4650   42.1940 C   0  0  0  0  0  0  0  0  0  0  0  0
   40.1040   27.2570   41.2200 N   0  0  0  0  0  0  0  0  0  0  0  0
   37.7720   25.6300   42.9390 H   0  0  0  0  0  0  0  0  0  0  0  0
   39.4120   26.0040   44.6950 H   0  0  0  0  0  0  0  0  0  0  0  0
   41.5470   27.2100   44.2100 H   0  0  0  0  0  0  0  0  0  0  0  0
   41.9160   27.9970   41.8990 H   0  0  0  0  0  0  0  0  0  0  0  0
   37.0290   28.6420   40.8290 C   0  0  0  0  0  0  0  0  0  0  0  0
   36.5020   28.6210   41.9710 O   0  0  0  0  0  0  0  0  0  0  0  0
   36.9540   31.1090   40.5240 C   0  0  0  0  0  0  0  0  0  0  0  0
   37.5710   29.8940   40.3130 C   0  0  0  0  0  0  0  0  0  0  0  0
   38.7410   29.9040   39.5850 C   0  0  0  0  0  0  0  0  0  0  0  0
   39.2110   28.9450   39.4300 H   0  0  0  0  0  0  0  0  0  0  0  0
   39.3070   31.0320   39.0710 C   0  0  0  0  0  3  0  0  0  0  0  0
   38.6660   32.2470   39.2960 C   0  0  0  0  0  3  0  0  0  0  0  0
   37.5030   32.2680   40.0160 C   0  0  0  0  0  0  0  0  0  0  0  0
   35.7560   31.1550   41.2620 O   0  0  0  0  0  0  0  0  0  0  0  0
   34.9580   31.7010   40.9810 H   0  0  0  0  0  0  0  0  0  0  0  0
   36.8350   33.4600   40.2610 O   0  0  0  0  0  0  0  0  0  0  0  0
   37.2930   34.2640   40.6770 H   0  0  0  0  0  0  0  0  0  0  0  0
  1  2  1  0  0  0  0
  2  3  2  0  0  0  0
  2 19  1  0  0  0  0
  3  9  1  0  0  0  0
  4  3  1  0  0  0  0
  5  4  2  0  0  0  0
  6  5  1  0  0  0  0
  6  1  2  0  0  0  0
  7  1  1  0  0  0  0
  8  5  1  0  0  0  0
  9 10  1  0  0  0  0
 10 15  1  0  0  0  0
 10 11  2  0  0  0  0
 11 16  1  0  0  0  0
 12 11  1  0  0  0  0
 12 17  1  0  0  0  0
 13 12  2  0  0  0  0
 14  9  2  0  0  0  0
 14 13  1  0  0  0  0
 18 13  1  0  0  0  0
 19 20  2  0  0  0  0
 21 28  1  0  0  0  0
 22 21  1  0  0  0  0
 22 19  1  0  0  0  0
 23 22  2  0  0  0  0
 24 23  1  0  0  0  0
 25 26  2  0  0  0  0
 25 23  1  0  0  0  0
 26 27  1  0  0  0  0
 27 30  1  0  0  0  0
 27 21  2  0  0  0  0
 29 28  1  0  0  0  0
 30 31  1  0  0  0  0
M  END
>  <minimizedAffinity>
-5.65926313

$$$$

 OpenBabel03252507173D

 31 33  0  0  0  0  0  0  0  0999 V2000
   37.5110   27.3350   40.7720 C   0  0  0  0  0  0  0  0  0  0  0  0
   37.8310   28.6530   40.3620 C   0  0  0  0  0  0  0  0  0  0  0  0
   37.7190   29.6680   41.3130 C   0  0  0  0  0  0  0  0  0  0  0  0
   37.3200   29.3720   42.5600 N   0  0  0  0  0  0  0  0  0  0  0  0
   37.0160   28.0880   42.9310 C   0  0  0  0  0  0  0  0  0  0  0  0
   37.1180   27.1030   42.0330 N   0  0  0  0  0  0  0  0  0  0  0  0
   37.5880   26.5250   40.0600 H   0  0  0  0  0  0  0  0  0  0  0  0
   36.7120   28.0280   43.9690 H   0  0  0  0  0  0  0  0  0  0  0  0
   38.0450   31.0200   40.9020 C   0  0  0  0  0  0  0  0  0  0  0  0
   37.0810   31.8100   40.3030 C   0  0  0  0  0  0  0  0  0  0  0  0
   37.4210   33.0860   39.9250 C   0  0  0  0  0  0  0  0  0  0  0  0
   38.6780   33.6340   40.1100 C   0  0  0  0  0  0  0  0  0  0  0  0
   39.6010   32.7910   40.7180 C   0  0  0  0  0  0  0  0  0  0  0  0
   39.2590   31.5380   41.0860 N   0  0  0  0  0  0  0  0  0  0  0  0
   36.0830   31.4890   40.1130 H   0  0  0  0  0  0  0  0  0  0  0  0
   36.6970   33.7460   39.4490 H   0  0  0  0  0  0  0  0  0  0  0  0
   39.0100   34.6080   39.8450 H   0  0  0  0  0  0  0  0  0  0  0  0
   40.6260   33.0860   40.9260 H   0  0  0  0  0  0  0  0  0  0  0  0
   38.2470   28.8880   39.0260 C   0  0  0  0  0  0  0  0  0  0  0  0
   39.4740   29.0380   38.8000 O   0  0  0  0  0  0  0  0  0  0  0  0
   37.6960   28.8690   36.6000 C   0  0  0  0  0  0  0  0  0  0  0  0
   37.3000   28.9620   37.9180 C   0  0  0  0  0  0  0  0  0  0  0  0
   35.9530   29.1300   38.1570 C   0  0  0  0  0  0  0  0  0  0  0  0
   35.6600   29.2010   39.1930 H   0  0  0  0  0  0  0  0  0  0  0  0
   35.0110   29.2080   37.1760 C   0  0  0  0  0  3  0  0  0  0  0  0
   35.4350   29.1120   35.8530 C   0  0  0  0  0  3  0  0  0  0  0  0
   36.7650   28.9440   35.5850 C   0  0  0  0  0  0  0  0  0  0  0  0
   39.0610   28.6960   36.3010 O   0  0  0  0  0  0  0  0  0  0  0  0
   39.5330   29.2090   35.5740 H   0  0  0  0  0  0  0  0  0  0  0  0
   37.2250   28.8440   34.2790 O   0  0  0  0  0  0  0  0  0  0  0  0
   36.8450   28.1730   33.6200 H   0  0  0  0  0  0  0  0  0  0  0  0
  1  6  1  0  0  0  0
  2  1  2  0  0  0  0
  2  3  1  0  0  0  0
  3  4  2  0  0  0  0
  4  5  1  0  0  0  0
  5  8  1  0  0  0  0
  6  5  2  0  0  0  0
  7  1  1  0  0  0  0
  9 14  1  0  0  0  0
  9  3  1  0  0  0  0
 10  9  2  0  0  0  0
 11 12  2  0  0  0  0
 11 10  1  0  0  0  0
 12 13  1  0  0  0  0
 13 18  1  0  0  0  0
 13 14  2  0  0  0  0
 15 10  1  0  0  0  0
 16 11  1  0  0  0  0
 17 12  1  0  0  0  0
 19  2  1  0  0  0  0
 20 19  2  0  0  0  0
 21 22  1  0  0  0  0
 22 23  2  0  0  0  0
 22 19  1  0  0  0  0
 23 24  1  0  0  0  0
 25 23  1  0  0  0  0
 26 25  2  0  0  0  0
 27 26  1  0  0  0  0
 27 21  2  0  0  0  0
 28 21  1  0  0  0  0
 29 28  1  0  0  0  0
 30 27  1  0  0  0  0
 31 30  1  0  0  0  0
M  END
>  <minimizedAffinity>
-5.64170456

$$$$

 OpenBabel03252507173D

 31 33  0  0  0  0  0  0  0  0999 V2000
   40.7900   30.8470   39.7490 C   0  0  0  0  0  0  0  0  0  0  0  0
   39.7020   30.2540   40.4350 C   0  0  0  0  0  0  0  0  0  0  0  0
   39.9570   29.0910   41.1630 C   0  0  0  0  0  0  0  0  0  0  0  0
   41.1990   28.5810   41.1910 N   0  0  0  0  0  0  0  0  0  0  0  0
   42.2350   29.1760   40.5180 C   0  0  0  0  0  0  0  0  0  0  0  0
   42.0080   30.2900   39.8160 N   0  0  0  0  0  0  0  0  0  0  0  0
   40.6260   31.7500   39.1760 H   0  0  0  0  0  0  0  0  0  0  0  0
   43.1640   28.6350   40.6470 H   0  0  0  0  0  0  0  0  0  0  0  0
   38.8490   28.4760   41.8680 C   0  0  0  0  0  0  0  0  0  0  0  0
   38.2750   27.3180   41.3760 C   0  0  0  0  0  0  0  0  0  0  0  0
   37.2280   26.7610   42.0670 C   0  0  0  0  0  0  0  0  0  0  0  0
   36.7080   27.2900   43.2350 C   0  0  0  0  0  0  0  0  0  0  0  0
   37.3280   28.4520   43.6790 C   0  0  0  0  0  0  0  0  0  0  0  0
   38.3560   28.9940   42.9940 N   0  0  0  0  0  0  0  0  0  0  0  0
   38.5960   26.8280   40.4870 H   0  0  0  0  0  0  0  0  0  0  0  0
   36.7430   25.8490   41.7190 H   0  0  0  0  0  0  0  0  0  0  0  0
   35.9050   26.9140   43.8200 H   0  0  0  0  0  0  0  0  0  0  0  0
   37.0260   28.9780   44.5810 H   0  0  0  0  0  0  0  0  0  0  0  0
   38.4160   30.8510   40.3590 C   0  0  0  0  0  0  0  0  0  0  0  0
   38.2320   31.9460   40.9480 O   0  0  0  0  0  0  0  0  0  0  0  0
   36.0650   30.0620   40.1790 C   0  0  0  0  0  0  0  0  0  0  0  0
   37.3150   30.2370   39.6250 C   0  0  0  0  0  0  0  0  0  0  0  0
   37.4920   29.8020   38.3290 C   0  0  0  0  0  0  0  0  0  0  0  0
   38.4760   29.9470   37.9100 H   0  0  0  0  0  0  0  0  0  0  0  0
   36.5120   29.2210   37.5820 C   0  0  0  0  0  3  0  0  0  0  0  0
   35.2580   29.0550   38.1630 C   0  0  0  0  0  3  0  0  0  0  0  0
   35.0530   29.4760   39.4480 C   0  0  0  0  0  0  0  0  0  0  0  0
   35.8310   30.4880   41.5010 O   0  0  0  0  0  0  0  0  0  0  0  0
   35.3300   29.9340   42.1760 H   0  0  0  0  0  0  0  0  0  0  0  0
   33.8160   29.3280   40.0610 O   0  0  0  0  0  0  0  0  0  0  0  0
   32.9580   29.6720   39.6430 H   0  0  0  0  0  0  0  0  0  0  0  0
  1  6  2  0  0  0  0
  1  2  1  0  0  0  0
  2  3  2  0  0  0  0
  3  4  1  0  0  0  0
  3  9  1  0  0  0  0
  5  8  1  0  0  0  0
  5  4  2  0  0  0  0
  6  5  1  0  0  0  0
  7  1  1  0  0  0  0
  9 14  1  0  0  0  0
 10  9  2  0  0  0  0
 10 11  1  0  0  0  0
 11 12  2  0  0  0  0
 12 13  1  0  0  0  0
 12 17  1  0  0  0  0
 13 18  1  0  0  0  0
 14 13  2  0  0  0  0
 15 10  1  0  0  0  0
 16 11  1  0  0  0  0
 19  2  1  0  0  0  0
 19 20  2  0  0  0  0
 21 28  1  0  0  0  0
 22 21  1  0  0  0  0
 22 19  1  0  0  0  0
 23 22  2  0  0  0  0
 24 23  1  0  0  0  0
 25 26  2  0  0  0  0
 25 23  1  0  0  0  0
 26 27  1  0  0  0  0
 27 30  1  0  0  0  0
 27 21  2  0  0  0  0
 28 29  1  0  0  0  0
 31 30  1  0  0  0  0
M  END
>  <minimizedAffinity>
-5.61065769

$$$$

 OpenBabel03252507173D

 31 33  0  0  0  0  0  0  0  0999 V2000
   34.7100   27.7400   38.0190 C   0  0  0  0  0  0  0  0  0  0  0  0
   35.7170   27.5860   39.0040 C   0  0  0  0  0  0  0  0  0  0  0  0
   36.3880   26.3640   39.0520 C   0  0  0  0  0  0  0  0  0  0  0  0
   36.0680   25.3920   38.1820 N   0  0  0  0  0  0  0  0  0  0  0  0
   35.0900   25.5680   37.2380 C   0  0  0  0  0  0  0  0  0  0  0  0
   34.4370   26.7320   37.1780 N   0  0  0  0  0  0  0  0  0  0  0  0
   34.1710   28.6760   37.9550 H   0  0  0  0  0  0  0  0  0  0  0  0
   34.9610   24.6870   36.6210 H   0  0  0  0  0  0  0  0  0  0  0  0
   37.4200   26.1960   40.0570 C   0  0  0  0  0  0  0  0  0  0  0  0
   38.7030   26.6530   39.8120 C   0  0  0  0  0  0  0  0  0  0  0  0
   39.6570   26.4780   40.7840 C   0  0  0  0  0  0  0  0  0  0  0  0
   39.4130   25.8700   42.0030 C   0  0  0  0  0  0  0  0  0  0  0  0
   38.1070   25.4340   42.1890 C   0  0  0  0  0  0  0  0  0  0  0  0
   37.1740   25.6090   41.2280 N   0  0  0  0  0  0  0  0  0  0  0  0
   38.9990   27.1340   38.9100 H   0  0  0  0  0  0  0  0  0  0  0  0
   40.6810   26.8210   40.6380 H   0  0  0  0  0  0  0  0  0  0  0  0
   40.0980   25.7040   42.7970 H   0  0  0  0  0  0  0  0  0  0  0  0
   37.7700   24.9400   43.0960 H   0  0  0  0  0  0  0  0  0  0  0  0
   36.0000   28.6580   39.8900 C   0  0  0  0  0  0  0  0  0  0  0  0
   35.6480   28.5480   41.0910 O   0  0  0  0  0  0  0  0  0  0  0  0
   36.5260   31.0800   40.0960 C   0  0  0  0  0  0  0  0  0  0  0  0
   36.6800   29.8720   39.4500 C   0  0  0  0  0  0  0  0  0  0  0  0
   37.5150   29.8500   38.3530 C   0  0  0  0  0  0  0  0  0  0  0  0
   37.6240   28.8960   37.8600 H   0  0  0  0  0  0  0  0  0  0  0  0
   38.1820   30.9410   37.8840 C   0  0  0  0  0  3  0  0  0  0  0  0
   38.0110   32.1500   38.5530 C   0  0  0  0  0  3  0  0  0  0  0  0
   37.1880   32.2020   39.6440 C   0  0  0  0  0  0  0  0  0  0  0  0
   35.6840   31.1580   41.2220 O   0  0  0  0  0  0  0  0  0  0  0  0
   35.0250   31.9050   41.3650 H   0  0  0  0  0  0  0  0  0  0  0  0
   36.9930   33.3900   40.3360 O   0  0  0  0  0  0  0  0  0  0  0  0
   37.7650   33.9440   40.6930 H   0  0  0  0  0  0  0  0  0  0  0  0
  1  2  1  0  0  0  0
  2  3  2  0  0  0  0
  2 19  1  0  0  0  0
  3  9  1  0  0  0  0
  4  3  1  0  0  0  0
  5  4  2  0  0  0  0
  6  5  1  0  0  0  0
  6  1  2  0  0  0  0
  7  1  1  0  0  0  0
  8  5  1  0  0  0  0
  9 14  1  0  0  0  0
 10  9  2  0  0  0  0
 10 11  1  0  0  0  0
 11 12  2  0  0  0  0
 12 13  1  0  0  0  0
 12 17  1  0  0  0  0
 13 18  1  0  0  0  0
 14 13  2  0  0  0  0
 15 10  1  0  0  0  0
 16 11  1  0  0  0  0
 19 20  2  0  0  0  0
 21 28  1  0  0  0  0
 22 19  1  0  0  0  0
 22 21  2  0  0  0  0
 23 22  1  0  0  0  0
 24 23  1  0  0  0  0
 25 23  2  0  0  0  0
 25 26  1  0  0  0  0
 26 27  2  0  0  0  0
 27 21  1  0  0  0  0
 27 30  1  0  0  0  0
 28 29  1  0  0  0  0
 30 31  1  0  0  0  0
M  END
>  <minimizedAffinity>
-5.58592701

$$$$
