
     RDKit          3D

 28 29  0  0  0  0  0  0  0  0999 V2000
   44.4823   35.6824   44.5893 C   0  0  0  0  0  0  0  0  0  0  0  0
   44.9350   35.8152   43.2522 C   0  0  0  0  0  0  0  0  0  0  0  0
   46.0092   35.0071   42.8812 C   0  0  0  0  0  0  0  0  0  0  0  0
   46.5353   34.1661   43.8102 N   0  0  0  0  0  0  0  0  0  0  0  0
   46.0732   34.0722   45.0710 C   0  0  0  0  0  0  0  0  0  0  0  0
   45.0353   34.8400   45.4625 N   0  0  0  0  0  0  0  0  0  0  0  0
   46.6028   33.2181   46.0237 O   0  0  0  0  0  0  0  0  0  0  0  0
   46.7857   32.2181   48.3901 O   0  0  0  0  0  0  0  0  0  0  0  0
   45.7512   32.5140   47.3023 P   0  0  1  0  0  0  0  0  0  0  0  0
   44.5314   33.5324   47.8579 O   0  0  0  0  0  0  0  0  0  0  0  0
   45.0488   31.0352   46.8867 O   0  0  0  0  0  0  0  0  0  0  0  0
   43.6412   36.3279   44.8476 H   0  0  0  0  0  0  0  0  0  0  0  0
   44.4969   36.4901   42.5421 H   0  0  0  0  0  0  0  0  0  0  0  0
   46.4031   35.0589   41.8770 H   0  0  0  0  0  0  0  0  0  0  0  0
   44.9101   34.4235   48.1038 H   0  0  0  0  0  0  0  0  0  0  0  0
   44.5398   28.5838   45.7431 O   0  0  0  0  0  0  0  0  0  0  0  0
   44.4479   28.8226   47.1193 C   0  0  0  0  0  0  0  0  0  0  0  0
   44.6915   30.0307   47.7463 C   0  0  0  0  0  0  0  0  0  0  0  0
   44.5505   30.0784   49.1169 C   0  0  0  0  0  0  0  0  0  0  0  0
   44.7556   31.0565   49.5539 H   0  0  0  0  0  0  0  0  0  0  0  0
   44.1808   28.9730   49.8535 C   0  0  0  0  0  0  0  0  0  0  0  0
   43.9329   27.7534   49.2371 C   0  0  0  0  0  0  0  0  0  0  0  0
   44.0751   27.7017   47.8480 C   0  0  0  0  0  0  0  0  0  0  0  0
   43.8191   26.4698   47.2762 O   0  0  0  0  0  0  0  0  0  0  0  0
   43.7214   28.7469   45.1539 H   0  0  0  0  0  0  0  0  0  0  0  0
   44.0854   29.0695   50.9294 H   0  0  0  0  0  0  0  0  0  0  0  0
   43.6444   26.8986   49.8316 H   0  0  0  0  0  0  0  0  0  0  0  0
   43.1454   26.3204   46.5387 H   0  0  0  0  0  0  0  0  0  0  0  0
  1  6  2  0
  2  1  1  0
  3  2  2  0
  3  4  1  0
  4  5  2  0
  5  6  1  0
  5  7  1  0
  9  7  1  6
  9 10  1  0
  9  8  2  0
 11  9  1  0
  1 12  1  0
  2 13  1  0
  3 14  1  0
 10 15  1  0
 16 17  1  0
 17 18  2  0
 18 19  1  0
 19 20  1  0
 19 21  2  0
 21 22  1  0
 22 23  2  0
 23 24  1  0
 23 17  1  0
 16 25  1  0
 21 26  1  0
 22 27  1  0
 24 28  1  0
 11 18  1  0
M  ISO  5  12  14  13  14  14  14  15   3  20  16
M  END
>  <DihAtoms>  (1) 
8,10,17,16

>  <DihDeg>  (1) 
179.99927789816442

$$$$
