
 OpenBabel03252505283D

 26 27  0  0  0  0  0  0  0  0999 V2000
   37.1490   31.8940   37.9120 O   0  0  0  0  0  0  0  0  0  0  0  0
   37.5950   31.6370   39.3530 P   0  0  1  0  0  0  0  0  0  0  0  0
   37.3500   32.9820   40.3350 O   0  0  0  0  0  0  0  0  0  0  0  0
   36.3750   33.1900   40.3990 H   0  0  0  0  0  0  0  0  0  0  0  0
   36.6960   30.3120   39.8920 O   0  0  0  0  0  0  0  0  0  0  0  0
   38.1270   29.4130   43.0180 C   0  0  0  0  0  0  0  0  0  0  0  0
   37.5660   28.1470   43.3220 C   0  0  0  0  0  0  0  0  0  0  0  0
   36.6710   27.6280   42.3870 C   0  0  0  0  0  0  0  0  0  0  0  0
   36.4050   28.3590   41.2730 N   0  0  0  0  0  0  0  0  0  0  0  0
   36.9610   29.5600   41.0240 C   0  0  0  0  0  0  0  0  0  0  0  0
   37.8310   30.0900   41.9090 N   0  0  0  0  0  0  0  0  0  0  0  0
   38.8220   29.7920   43.7690 H   0  0  0  0  0  0  0  0  0  0  0  0
   37.7980   27.5940   44.2120 H   0  0  0  0  0  0  0  0  0  0  0  0
   36.2080   26.6670   42.5580 H   0  0  0  0  0  0  0  0  0  0  0  0
   39.2540   31.3250   39.2980 O   0  0  0  0  0  0  0  0  0  0  0  0
   40.6820   32.6850   38.1060 C   0  0  0  0  0  0  0  0  0  0  0  0
   40.2610   32.2500   39.3500 C   0  0  0  0  0  0  0  0  0  0  0  0
   40.8870   32.7830   40.4580 C   0  0  0  0  0  0  0  0  0  0  0  0
   40.5130   32.4020   41.4090 H   0  0  0  0  0  0  0  0  0  0  0  0
   41.8960   33.7160   40.3500 C   0  0  0  0  0  3  0  0  0  0  0  0
   42.3290   34.1610   39.1080 C   0  0  0  0  0  3  0  0  0  0  0  0
   41.6980   33.6230   37.9830 C   0  0  0  0  0  0  0  0  0  0  0  0
   40.1690   32.2590   36.8760 O   0  0  0  0  0  0  0  0  0  0  0  0
   40.5730   31.4360   36.4250 H   0  0  0  0  0  0  0  0  0  0  0  0
   42.1590   34.0940   36.7690 O   0  0  0  0  0  0  0  0  0  0  0  0
   42.5010   33.4990   36.0270 H   0  0  0  0  0  0  0  0  0  0  0  0
  2  1  2  6  0  0  0
  2  5  1  0  0  0  0
  2  3  1  0  0  0  0
  3  4  1  0  0  0  0
  5 10  1  0  0  0  0
  6  7  1  0  0  0  0
  6 12  1  0  0  0  0
  7 13  1  0  0  0  0
  8 14  1  0  0  0  0
  8  7  2  0  0  0  0
  9  8  1  0  0  0  0
 10  9  2  0  0  0  0
 10 11  1  0  0  0  0
 11  6  2  0  0  0  0
 15 17  1  0  0  0  0
 15  2  1  0  0  0  0
 16 17  1  0  0  0  0
 17 18  2  0  0  0  0
 18 19  1  0  0  0  0
 20 18  1  0  0  0  0
 21 20  2  0  0  0  0
 22 16  2  0  0  0  0
 22 21  1  0  0  0  0
 23 16  1  0  0  0  0
 24 23  1  0  0  0  0
 25 22  1  0  0  0  0
 26 25  1  0  0  0  0
M  END
>  <minimizedAffinity>
-5.68050575

$$$$

 OpenBabel03252505283D

 26 27  0  0  0  0  0  0  0  0999 V2000
   37.6870   28.8510   38.6880 O   0  0  0  0  0  0  0  0  0  0  0  0
   36.4970   29.8140   38.6900 P   0  0  1  0  0  0  0  0  0  0  0  0
   35.2820   29.3110   37.6380 O   0  0  0  0  0  0  0  0  0  0  0  0
   34.9070   28.4350   37.9380 H   0  0  0  0  0  0  0  0  0  0  0  0
   35.9430   29.8720   40.2850 O   0  0  0  0  0  0  0  0  0  0  0  0
   38.2050   29.4260   42.9900 C   0  0  0  0  0  0  0  0  0  0  0  0
   37.8460   28.1780   43.5590 C   0  0  0  0  0  0  0  0  0  0  0  0
   36.7830   27.5060   42.9550 C   0  0  0  0  0  0  0  0  0  0  0  0
   36.1790   28.0850   41.8840 N   0  0  0  0  0  0  0  0  0  0  0  0
   36.5530   29.2750   41.3750 C   0  0  0  0  0  0  0  0  0  0  0  0
   37.5770   29.9500   41.9370 N   0  0  0  0  0  0  0  0  0  0  0  0
   39.0390   29.9260   43.4850 H   0  0  0  0  0  0  0  0  0  0  0  0
   38.3440   27.7470   44.4070 H   0  0  0  0  0  0  0  0  0  0  0  0
   36.4590   26.5510   43.3390 H   0  0  0  0  0  0  0  0  0  0  0  0
   37.0790   31.3020   38.1420 O   0  0  0  0  0  0  0  0  0  0  0  0
   37.9590   32.6900   39.7580 C   0  0  0  0  0  0  0  0  0  0  0  0
   38.1850   31.9660   38.6010 C   0  0  0  0  0  0  0  0  0  0  0  0
   39.4550   31.9980   38.0650 C   0  0  0  0  0  0  0  0  0  0  0  0
   39.5710   31.4100   37.1540 H   0  0  0  0  0  0  0  0  0  0  0  0
   40.4770   32.7200   38.6460 C   0  0  0  0  0  3  0  0  0  0  0  0
   40.2640   33.4510   39.8070 C   0  0  0  0  0  3  0  0  0  0  0  0
   38.9780   33.4200   40.3530 C   0  0  0  0  0  0  0  0  0  0  0  0
   36.7420   32.7760   40.4420 O   0  0  0  0  0  0  0  0  0  0  0  0
   36.0730   33.5020   40.1790 H   0  0  0  0  0  0  0  0  0  0  0  0
   38.8120   34.1610   41.5080 O   0  0  0  0  0  0  0  0  0  0  0  0
   38.1130   34.8820   41.6180 H   0  0  0  0  0  0  0  0  0  0  0  0
  2  1  2  6  0  0  0
  2  5  1  0  0  0  0
  3  4  1  0  0  0  0
  3  2  1  0  0  0  0
  5 10  1  0  0  0  0
  6 12  1  0  0  0  0
  6  7  1  0  0  0  0
  7 13  1  0  0  0  0
  8 14  1  0  0  0  0
  8  7  2  0  0  0  0
  9  8  1  0  0  0  0
 10  9  2  0  0  0  0
 10 11  1  0  0  0  0
 11  6  2  0  0  0  0
 15 17  1  0  0  0  0
 15  2  1  0  0  0  0
 16 22  1  0  0  0  0
 16 23  1  0  0  0  0
 17 16  2  0  0  0  0
 18 17  1  0  0  0  0
 18 20  2  0  0  0  0
 19 18  1  0  0  0  0
 20 21  1  0  0  0  0
 21 22  2  0  0  0  0
 22 25  1  0  0  0  0
 24 23  1  0  0  0  0
 25 26  1  0  0  0  0
M  END
>  <minimizedAffinity>
-5.4873848

$$$$

 OpenBabel03252505283D

 26 27  0  0  0  0  0  0  0  0999 V2000
   37.0940   31.5240   38.4820 O   0  0  0  0  0  0  0  0  0  0  0  0
   37.4850   32.1030   39.8440 P   0  0  1  0  0  0  0  0  0  0  0  0
   37.1810   33.7560   39.9320 O   0  0  0  0  0  0  0  0  0  0  0  0
   36.2010   33.9320   39.8480 H   0  0  0  0  0  0  0  0  0  0  0  0
   36.5840   31.2500   40.9910 O   0  0  0  0  0  0  0  0  0  0  0  0
   36.5380   27.7390   41.5400 C   0  0  0  0  0  0  0  0  0  0  0  0
   37.5110   27.5180   42.5460 C   0  0  0  0  0  0  0  0  0  0  0  0
   38.1780   28.6470   43.0200 C   0  0  0  0  0  0  0  0  0  0  0  0
   37.8530   29.8560   42.4920 N   0  0  0  0  0  0  0  0  0  0  0  0
   36.9210   30.0220   41.5350 C   0  0  0  0  0  0  0  0  0  0  0  0
   36.2580   28.9490   41.0550 N   0  0  0  0  0  0  0  0  0  0  0  0
   36.0340   26.8360   41.1900 H   0  0  0  0  0  0  0  0  0  0  0  0
   37.7440   26.5480   42.9430 H   0  0  0  0  0  0  0  0  0  0  0  0
   38.9310   28.5480   43.7870 H   0  0  0  0  0  0  0  0  0  0  0  0
   39.1490   31.8680   40.0100 O   0  0  0  0  0  0  0  0  0  0  0  0
   40.5870   32.8310   38.4880 C   0  0  0  0  0  0  0  0  0  0  0  0
   40.0500   31.6630   38.9990 C   0  0  0  0  0  0  0  0  0  0  0  0
   40.4720   30.4710   38.4480 C   0  0  0  0  0  0  0  0  0  0  0  0
   40.0140   29.5870   38.8910 H   0  0  0  0  0  0  0  0  0  0  0  0
   41.3940   30.4250   37.4240 C   0  0  0  0  0  3  0  0  0  0  0  0
   41.9420   31.5890   36.9020 C   0  0  0  0  0  3  0  0  0  0  0  0
   41.5170   32.7980   37.4580 C   0  0  0  0  0  0  0  0  0  0  0  0
   40.2810   34.1270   38.9180 O   0  0  0  0  0  0  0  0  0  0  0  0
   39.4950   34.6210   38.4920 H   0  0  0  0  0  0  0  0  0  0  0  0
   42.0870   33.9310   36.9080 O   0  0  0  0  0  0  0  0  0  0  0  0
   41.5550   34.6970   36.5200 H   0  0  0  0  0  0  0  0  0  0  0  0
  2  1  2  6  0  0  0
  2  3  1  0  0  0  0
  2 15  1  0  0  0  0
  2  5  1  0  0  0  0
  4  3  1  0  0  0  0
  5 10  1  0  0  0  0
  6  7  1  0  0  0  0
  7 13  1  0  0  0  0
  7  8  2  0  0  0  0
  8 14  1  0  0  0  0
  9  8  1  0  0  0  0
 10  9  2  0  0  0  0
 11 10  1  0  0  0  0
 11  6  2  0  0  0  0
 12  6  1  0  0  0  0
 16 23  1  0  0  0  0
 16 17  1  0  0  0  0
 17 15  1  0  0  0  0
 18 19  1  0  0  0  0
 18 17  2  0  0  0  0
 20 18  1  0  0  0  0
 21 20  2  0  0  0  0
 21 22  1  0  0  0  0
 22 16  2  0  0  0  0
 24 23  1  0  0  0  0
 25 22  1  0  0  0  0
 26 25  1  0  0  0  0
M  END
>  <minimizedAffinity>
-5.44558811

$$$$

 OpenBabel03252505283D

 26 27  0  0  0  0  0  0  0  0999 V2000
   36.7140   26.7580   42.7700 O   0  0  0  0  0  0  0  0  0  0  0  0
   37.2990   28.1260   42.4090 P   0  0  1  0  0  0  0  0  0  0  0  0
   36.9530   29.2840   43.5810 O   0  0  0  0  0  0  0  0  0  0  0  0
   37.3850   29.0380   44.4480 H   0  0  0  0  0  0  0  0  0  0  0  0
   38.9650   27.8950   42.2480 O   0  0  0  0  0  0  0  0  0  0  0  0
   40.4380   31.1060   42.6380 C   0  0  0  0  0  0  0  0  0  0  0  0
   41.8030   30.8460   42.9180 C   0  0  0  0  0  0  0  0  0  0  0  0
   42.1790   29.5040   42.9630 C   0  0  0  0  0  0  0  0  0  0  0  0
   41.2280   28.5590   42.7390 N   0  0  0  0  0  0  0  0  0  0  0  0
   39.9410   28.8510   42.4760 C   0  0  0  0  0  0  0  0  0  0  0  0
   39.5440   30.1400   42.4260 N   0  0  0  0  0  0  0  0  0  0  0  0
   40.1750   32.1650   42.6110 H   0  0  0  0  0  0  0  0  0  0  0  0
   42.5300   31.6160   43.0900 H   0  0  0  0  0  0  0  0  0  0  0  0
   43.2050   29.2370   43.1710 H   0  0  0  0  0  0  0  0  0  0  0  0
   36.5600   28.6030   40.9680 O   0  0  0  0  0  0  0  0  0  0  0  0
   36.6390   30.8340   40.3980 C   0  0  0  0  0  0  0  0  0  0  0  0
   37.0210   29.5420   40.0850 C   0  0  0  0  0  0  0  0  0  0  0  0
   37.7940   29.3600   38.9580 C   0  0  0  0  0  0  0  0  0  0  0  0
   38.0640   28.3220   38.7630 H   0  0  0  0  0  0  0  0  0  0  0  0
   38.1840   30.4150   38.1590 C   0  0  0  0  0  3  0  0  0  0  0  0
   37.8070   31.7170   38.4620 C   0  0  0  0  0  3  0  0  0  0  0  0
   37.0230   31.9050   39.6030 C   0  0  0  0  0  0  0  0  0  0  0  0
   35.8570   31.2110   41.4960 O   0  0  0  0  0  0  0  0  0  0  0  0
   34.8400   31.2210   41.4040 H   0  0  0  0  0  0  0  0  0  0  0  0
   36.6720   33.2160   39.8660 O   0  0  0  0  0  0  0  0  0  0  0  0
   35.7190   33.5310   39.9800 H   0  0  0  0  0  0  0  0  0  0  0  0
  2  1  2  1  0  0  0
  2  3  1  0  0  0  0
  3  4  1  0  0  0  0
  5  2  1  0  0  0  0
  5 10  1  0  0  0  0
  6  7  1  0  0  0  0
  7  8  2  0  0  0  0
  7 13  1  0  0  0  0
  8 14  1  0  0  0  0
  9  8  1  0  0  0  0
 10  9  2  0  0  0  0
 11 10  1  0  0  0  0
 11  6  2  0  0  0  0
 12  6  1  0  0  0  0
 15  2  1  0  0  0  0
 16 23  1  0  0  0  0
 17 16  1  0  0  0  0
 17 15  1  0  0  0  0
 18 17  2  0  0  0  0
 19 18  1  0  0  0  0
 20 21  2  0  0  0  0
 20 18  1  0  0  0  0
 21 22  1  0  0  0  0
 22 25  1  0  0  0  0
 22 16  2  0  0  0  0
 24 23  1  0  0  0  0
 25 26  1  0  0  0  0
M  END
>  <minimizedAffinity>
-5.41718626

$$$$

 OpenBabel03252505283D

 26 27  0  0  0  0  0  0  0  0999 V2000
   37.1700   29.4660   39.7850 O   0  0  0  0  0  0  0  0  0  0  0  0
   37.0760   30.7080   40.6750 P   0  0  1  0  0  0  0  0  0  0  0  0
   35.5370   30.8950   41.3300 O   0  0  0  0  0  0  0  0  0  0  0  0
   35.3220   30.1270   41.9320 H   0  0  0  0  0  0  0  0  0  0  0  0
   38.2370   30.5050   41.8860 O   0  0  0  0  0  0  0  0  0  0  0  0
   37.8840   27.4440   43.6560 C   0  0  0  0  0  0  0  0  0  0  0  0
   39.1870   26.8870   43.6790 C   0  0  0  0  0  0  0  0  0  0  0  0
   40.1860   27.6280   43.0500 C   0  0  0  0  0  0  0  0  0  0  0  0
   39.8460   28.8100   42.4710 N   0  0  0  0  0  0  0  0  0  0  0  0
   38.5930   29.3020   42.4730 C   0  0  0  0  0  0  0  0  0  0  0  0
   37.6030   28.6090   43.0730 N   0  0  0  0  0  0  0  0  0  0  0  0
   37.1240   26.8400   44.1560 H   0  0  0  0  0  0  0  0  0  0  0  0
   39.4230   25.9490   44.1450 H   0  0  0  0  0  0  0  0  0  0  0  0
   41.2020   27.2600   43.0310 H   0  0  0  0  0  0  0  0  0  0  0  0
   37.3880   32.0390   39.6830 O   0  0  0  0  0  0  0  0  0  0  0  0
   39.1440   31.9690   38.1940 C   0  0  0  0  0  0  0  0  0  0  0  0
   38.6180   32.5330   39.3420 C   0  0  0  0  0  0  0  0  0  0  0  0
   39.3710   33.4930   39.9850 C   0  0  0  0  0  0  0  0  0  0  0  0
   38.9040   33.9000   40.8820 H   0  0  0  0  0  0  0  0  0  0  0  0
   40.6050   33.8910   39.5150 C   0  0  0  0  0  3  0  0  0  0  0  0
   41.1450   33.3330   38.3640 C   0  0  0  0  0  3  0  0  0  0  0  0
   40.3860   32.3600   37.7100 C   0  0  0  0  0  0  0  0  0  0  0  0
   38.5300   30.9850   37.4110 O   0  0  0  0  0  0  0  0  0  0  0  0
   38.6810   30.0010   37.6390 H   0  0  0  0  0  0  0  0  0  0  0  0
   40.9610   31.8330   36.5700 O   0  0  0  0  0  0  0  0  0  0  0  0
   41.1190   30.8450   36.4240 H   0  0  0  0  0  0  0  0  0  0  0  0
  2  1  2  6  0  0  0
  2  3  1  0  0  0  0
  2  5  1  0  0  0  0
  3  4  1  0  0  0  0
  5 10  1  0  0  0  0
  6  7  1  0  0  0  0
  6 12  1  0  0  0  0
  7 13  1  0  0  0  0
  8  7  2  0  0  0  0
  9 10  2  0  0  0  0
  9  8  1  0  0  0  0
 10 11  1  0  0  0  0
 11  6  2  0  0  0  0
 14  8  1  0  0  0  0
 15  2  1  0  0  0  0
 16 17  1  0  0  0  0
 17 15  1  0  0  0  0
 17 18  2  0  0  0  0
 18 19  1  0  0  0  0
 20 18  1  0  0  0  0
 21 20  2  0  0  0  0
 22 16  2  0  0  0  0
 22 21  1  0  0  0  0
 23 24  1  0  0  0  0
 23 16  1  0  0  0  0
 25 22  1  0  0  0  0
 26 25  1  0  0  0  0
M  END
>  <minimizedAffinity>
-5.35802603

$$$$

 OpenBabel03252505283D

 26 27  0  0  0  0  0  0  0  0999 V2000
   40.6560   29.2760   39.4300 O   0  0  0  0  0  0  0  0  0  0  0  0
   39.3640   29.8340   38.8280 P   0  0  1  0  0  0  0  0  0  0  0  0
   39.3050   29.6150   37.1600 O   0  0  0  0  0  0  0  0  0  0  0  0
   39.2940   28.6400   36.9390 H   0  0  0  0  0  0  0  0  0  0  0  0
   38.0990   29.0220   39.5980 O   0  0  0  0  0  0  0  0  0  0  0  0
   37.8650   29.0370   43.1440 C   0  0  0  0  0  0  0  0  0  0  0  0
   38.1270   27.6980   43.5300 C   0  0  0  0  0  0  0  0  0  0  0  0
   38.3870   26.7980   42.4970 C   0  0  0  0  0  0  0  0  0  0  0  0
   38.3710   27.2600   41.2190 N   0  0  0  0  0  0  0  0  0  0  0  0
   38.1170   28.5430   40.8980 C   0  0  0  0  0  0  0  0  0  0  0  0
   37.8610   29.4390   41.8730 N   0  0  0  0  0  0  0  0  0  0  0  0
   37.6650   29.7160   43.9750 H   0  0  0  0  0  0  0  0  0  0  0  0
   38.1310   27.3650   44.5500 H   0  0  0  0  0  0  0  0  0  0  0  0
   38.5940   25.7620   42.7220 H   0  0  0  0  0  0  0  0  0  0  0  0
   39.3640   31.4940   39.1370 O   0  0  0  0  0  0  0  0  0  0  0  0
   40.8530   32.7990   37.9580 C   0  0  0  0  0  0  0  0  0  0  0  0
   40.4580   32.3150   39.1930 C   0  0  0  0  0  0  0  0  0  0  0  0
   41.1900   32.7040   40.2950 C   0  0  0  0  0  0  0  0  0  0  0  0
   40.8310   32.2910   41.2380 H   0  0  0  0  0  0  0  0  0  0  0  0
   42.2780   33.5440   40.1910 C   0  0  0  0  0  3  0  0  0  0  0  0
   42.6860   34.0370   38.9590 C   0  0  0  0  0  3  0  0  0  0  0  0
   41.9470   33.6450   37.8400 C   0  0  0  0  0  0  0  0  0  0  0  0
   40.2360   32.5150   36.7350 O   0  0  0  0  0  0  0  0  0  0  0  0
   40.5340   31.6930   36.2060 H   0  0  0  0  0  0  0  0  0  0  0  0
   42.3870   34.1590   36.6350 O   0  0  0  0  0  0  0  0  0  0  0  0
   42.6310   33.5900   35.8360 H   0  0  0  0  0  0  0  0  0  0  0  0
  2 15  1  0  0  0  0
  2  1  2  1  0  0  0
  2  5  1  0  0  0  0
  3  2  1  0  0  0  0
  4  3  1  0  0  0  0
  5 10  1  0  0  0  0
  6  7  1  0  0  0  0
  6 12  1  0  0  0  0
  7 13  1  0  0  0  0
  8 14  1  0  0  0  0
  8  7  2  0  0  0  0
  9  8  1  0  0  0  0
 10  9  2  0  0  0  0
 10 11  1  0  0  0  0
 11  6  2  0  0  0  0
 15 17  1  0  0  0  0
 16 17  1  0  0  0  0
 17 18  2  0  0  0  0
 18 19  1  0  0  0  0
 20 18  1  0  0  0  0
 21 20  2  0  0  0  0
 22 16  2  0  0  0  0
 22 21  1  0  0  0  0
 23 16  1  0  0  0  0
 24 23  1  0  0  0  0
 25 22  1  0  0  0  0
 26 25  1  0  0  0  0
M  END
>  <minimizedAffinity>
-5.23825979

$$$$

 OpenBabel03252505283D

 26 27  0  0  0  0  0  0  0  0999 V2000
   35.9900   29.3490   36.6340 O   0  0  0  0  0  0  0  0  0  0  0  0
   36.6500   29.4730   38.0090 P   0  0  1  0  0  0  0  0  0  0  0  0
   38.2580   28.9770   37.9790 O   0  0  0  0  0  0  0  0  0  0  0  0
   38.7920   29.5730   37.3820 H   0  0  0  0  0  0  0  0  0  0  0  0
   36.5160   31.0990   38.4490 O   0  0  0  0  0  0  0  0  0  0  0  0
   38.0840   33.8620   40.0410 C   0  0  0  0  0  0  0  0  0  0  0  0
   39.1210   33.2900   40.8200 C   0  0  0  0  0  0  0  0  0  0  0  0
   39.2440   31.9020   40.7610 C   0  0  0  0  0  0  0  0  0  0  0  0
   38.3770   31.2110   39.9760 N   0  0  0  0  0  0  0  0  0  0  0  0
   37.4040   31.7960   39.2510 C   0  0  0  0  0  0  0  0  0  0  0  0
   37.2590   33.1370   39.2870 N   0  0  0  0  0  0  0  0  0  0  0  0
   38.0140   34.9490   40.1090 H   0  0  0  0  0  0  0  0  0  0  0  0
   39.7900   33.8650   41.4310 H   0  0  0  0  0  0  0  0  0  0  0  0
   40.0140   31.4030   41.3300 H   0  0  0  0  0  0  0  0  0  0  0  0
   35.8040   28.4420   39.0460 O   0  0  0  0  0  0  0  0  0  0  0  0
   36.2630   28.6270   41.2960 C   0  0  0  0  0  0  0  0  0  0  0  0
   36.2950   27.8280   40.1670 C   0  0  0  0  0  0  0  0  0  0  0  0
   36.8000   26.5520   40.3010 C   0  0  0  0  0  0  0  0  0  0  0  0
   36.7990   25.9720   39.3790 H   0  0  0  0  0  0  0  0  0  0  0  0
   37.2620   26.0710   41.5080 C   0  0  0  0  0  3  0  0  0  0  0  0
   37.2370   26.8620   42.6500 C   0  0  0  0  0  3  0  0  0  0  0  0
   36.7260   28.1560   42.5170 C   0  0  0  0  0  0  0  0  0  0  0  0
   35.7890   29.9420   41.3530 O   0  0  0  0  0  0  0  0  0  0  0  0
   36.4300   30.7120   41.1560 H   0  0  0  0  0  0  0  0  0  0  0  0
   36.7190   28.9070   43.6770 O   0  0  0  0  0  0  0  0  0  0  0  0
   37.1570   29.8130   43.7640 H   0  0  0  0  0  0  0  0  0  0  0  0
  2  1  2  6  0  0  0
  2  5  1  0  0  0  0
  2 15  1  0  0  0  0
  3  2  1  0  0  0  0
  4  3  1  0  0  0  0
  5 10  1  0  0  0  0
  6 12  1  0  0  0  0
  6  7  1  0  0  0  0
  7 13  1  0  0  0  0
  8  7  2  0  0  0  0
  8 14  1  0  0  0  0
  9  8  1  0  0  0  0
 10 11  1  0  0  0  0
 10  9  2  0  0  0  0
 11  6  2  0  0  0  0
 15 17  1  0  0  0  0
 16 23  1  0  0  0  0
 16 22  1  0  0  0  0
 17 18  1  0  0  0  0
 17 16  2  0  0  0  0
 18 20  2  0  0  0  0
 19 18  1  0  0  0  0
 20 21  1  0  0  0  0
 22 21  2  0  0  0  0
 22 25  1  0  0  0  0
 24 23  1  0  0  0  0
 25 26  1  0  0  0  0
M  END
>  <minimizedAffinity>
-5.1531744

$$$$

 OpenBabel03252505283D

 26 27  0  0  0  0  0  0  0  0999 V2000
   36.0560   27.4470   39.7550 O   0  0  0  0  0  0  0  0  0  0  0  0
   36.2230   28.7550   40.5310 P   0  0  1  0  0  0  0  0  0  0  0  0
   34.8280   29.6960   40.4810 O   0  0  0  0  0  0  0  0  0  0  0  0
   34.0740   29.2210   40.9330 H   0  0  0  0  0  0  0  0  0  0  0  0
   36.6080   28.3130   42.1160 O   0  0  0  0  0  0  0  0  0  0  0  0
   38.7540   25.5380   42.6850 C   0  0  0  0  0  0  0  0  0  0  0  0
   39.9250   26.0980   43.2550 C   0  0  0  0  0  0  0  0  0  0  0  0
   39.9270   27.4810   43.4290 C   0  0  0  0  0  0  0  0  0  0  0  0
   38.8270   28.1810   43.0470 N   0  0  0  0  0  0  0  0  0  0  0  0
   37.7340   27.6080   42.5080 C   0  0  0  0  0  0  0  0  0  0  0  0
   37.7000   26.2720   42.3260 N   0  0  0  0  0  0  0  0  0  0  0  0
   38.7850   24.4540   42.5610 H   0  0  0  0  0  0  0  0  0  0  0  0
   40.7790   25.5160   43.5470 H   0  0  0  0  0  0  0  0  0  0  0  0
   40.7880   27.9710   43.8590 H   0  0  0  0  0  0  0  0  0  0  0  0
   37.4610   29.6150   39.7690 O   0  0  0  0  0  0  0  0  0  0  0  0
   38.8590   31.2370   40.6200 C   0  0  0  0  0  0  0  0  0  0  0  0
   37.7190   30.9540   39.8890 C   0  0  0  0  0  0  0  0  0  0  0  0
   37.0030   32.0190   39.3860 C   0  0  0  0  0  0  0  0  0  0  0  0
   36.1160   31.7340   38.8200 H   0  0  0  0  0  0  0  0  0  0  0  0
   37.3920   33.3260   39.5930 C   0  0  0  0  0  3  0  0  0  0  0  0
   38.5330   33.6240   40.3240 C   0  0  0  0  0  3  0  0  0  0  0  0
   39.2620   32.5470   40.8360 C   0  0  0  0  0  0  0  0  0  0  0  0
   39.7080   30.2920   41.2070 O   0  0  0  0  0  0  0  0  0  0  0  0
   39.5100   29.9620   42.1530 H   0  0  0  0  0  0  0  0  0  0  0  0
   40.3900   32.8900   41.5570 O   0  0  0  0  0  0  0  0  0  0  0  0
   40.5650   32.5890   42.5060 H   0  0  0  0  0  0  0  0  0  0  0  0
  2  1  2  6  0  0  0
  2  5  1  0  0  0  0
  3  2  1  0  0  0  0
  3  4  1  0  0  0  0
  5 10  1  0  0  0  0
  6  7  1  0  0  0  0
  7  8  2  0  0  0  0
  7 13  1  0  0  0  0
  8 14  1  0  0  0  0
  9  8  1  0  0  0  0
 10  9  2  0  0  0  0
 11 10  1  0  0  0  0
 11  6  2  0  0  0  0
 12  6  1  0  0  0  0
 15 17  1  0  0  0  0
 15  2  1  0  0  0  0
 16 22  1  0  0  0  0
 16 23  1  0  0  0  0
 17 16  2  0  0  0  0
 18 20  2  0  0  0  0
 18 17  1  0  0  0  0
 19 18  1  0  0  0  0
 20 21  1  0  0  0  0
 21 22  2  0  0  0  0
 22 25  1  0  0  0  0
 23 24  1  0  0  0  0
 25 26  1  0  0  0  0
M  END
>  <minimizedAffinity>
-5.02073383

$$$$

 OpenBabel03252505283D

 26 27  0  0  0  0  0  0  0  0999 V2000
   37.6770   29.4490   40.5810 O   0  0  0  0  0  0  0  0  0  0  0  0
   36.9570   30.7960   40.4850 P   0  0  1  0  0  0  0  0  0  0  0  0
   35.5860   30.8440   41.4610 O   0  0  0  0  0  0  0  0  0  0  0  0
   35.8430   30.7560   42.4230 H   0  0  0  0  0  0  0  0  0  0  0  0
   38.0840   31.9650   40.9520 O   0  0  0  0  0  0  0  0  0  0  0  0
   40.6380   34.1610   39.8200 C   0  0  0  0  0  0  0  0  0  0  0  0
   41.1810   33.5240   38.6750 C   0  0  0  0  0  0  0  0  0  0  0  0
   40.6150   32.3000   38.3220 C   0  0  0  0  0  0  0  0  0  0  0  0
   39.6010   31.8140   39.0870 N   0  0  0  0  0  0  0  0  0  0  0  0
   39.1160   32.4530   40.1680 C   0  0  0  0  0  0  0  0  0  0  0  0
   39.6420   33.6390   40.5360 N   0  0  0  0  0  0  0  0  0  0  0  0
   41.1030   35.1170   40.0690 H   0  0  0  0  0  0  0  0  0  0  0  0
   41.9830   33.9360   38.0920 H   0  0  0  0  0  0  0  0  0  0  0  0
   40.9820   31.7630   37.4610 H   0  0  0  0  0  0  0  0  0  0  0  0
   36.4610   30.9660   38.8800 O   0  0  0  0  0  0  0  0  0  0  0  0
   36.9430   29.8020   36.9500 C   0  0  0  0  0  0  0  0  0  0  0  0
   36.0900   29.9600   38.0280 C   0  0  0  0  0  0  0  0  0  0  0  0
   35.0050   29.1140   38.1130 C   0  0  0  0  0  0  0  0  0  0  0  0
   34.3710   29.2870   38.9830 H   0  0  0  0  0  0  0  0  0  0  0  0
   34.7610   28.1400   37.1680 C   0  0  0  0  0  3  0  0  0  0  0  0
   35.6080   27.9700   36.0810 C   0  0  0  0  0  3  0  0  0  0  0  0
   36.7090   28.8260   35.9920 C   0  0  0  0  0  0  0  0  0  0  0  0
   38.0890   30.5640   36.6970 O   0  0  0  0  0  0  0  0  0  0  0  0
   38.0050   31.4270   36.1580 H   0  0  0  0  0  0  0  0  0  0  0  0
   37.5250   28.6220   34.8950 O   0  0  0  0  0  0  0  0  0  0  0  0
   37.7620   29.3420   34.2280 H   0  0  0  0  0  0  0  0  0  0  0  0
  2  1  2  1  0  0  0
  2  5  1  0  0  0  0
  2  3  1  0  0  0  0
  3  4  1  0  0  0  0
  6 12  1  0  0  0  0
  6 11  1  0  0  0  0
  7  6  2  0  0  0  0
  8  7  1  0  0  0  0
  8  9  2  0  0  0  0
  9 10  1  0  0  0  0
 10 11  2  0  0  0  0
 10  5  1  0  0  0  0
 13  7  1  0  0  0  0
 14  8  1  0  0  0  0
 15  2  1  0  0  0  0
 16 17  1  0  0  0  0
 17 18  2  0  0  0  0
 17 15  1  0  0  0  0
 18 19  1  0  0  0  0
 20 18  1  0  0  0  0
 21 20  2  0  0  0  0
 22 21  1  0  0  0  0
 22 16  2  0  0  0  0
 23 16  1  0  0  0  0
 24 23  1  0  0  0  0
 25 22  1  0  0  0  0
 26 25  1  0  0  0  0
M  END
>  <minimizedAffinity>
-5.01219368

$$$$
