
 OpenBabel03252507563D

 46 49  0  0  1  0  0  0  0  0999 V2000
   36.9710   29.5830   41.8330 C   0  0  2  0  0  0  0  0  0  0  0  0
   37.7230   29.2960   40.6220 C   0  0  0  0  0  0  0  0  0  0  0  0
   37.8700   30.6140   41.3150 C   0  0  1  0  0  0  0  0  0  0  0  0
   35.8870   29.7800   41.7430 H   0  0  0  0  0  0  0  0  0  0  0  0
   37.2140   29.2480   39.6520 H   0  0  0  0  0  0  0  0  0  0  0  0
   38.6520   28.6660   40.6640 H   0  0  0  0  0  0  0  0  0  0  0  0
   38.6930   30.8800   41.9860 H   0  0  0  0  0  0  0  0  0  0  0  0
   38.8970   27.1750   43.6950 C   0  0  2  0  0  0  0  0  0  0  0  0
   37.8330   26.4080   42.9090 C   0  0  0  0  0  0  0  0  0  0  0  0
   36.6760   27.4130   43.0970 C   0  0  0  0  0  0  0  0  0  0  0  0
   37.3260   28.7620   43.0530 C   0  0  1  0  0  0  0  0  0  0  0  0
   38.8030   28.5050   42.9970 C   0  0  0  0  0  0  0  0  0  0  0  0
   38.6180   27.2030   44.7470 H   0  0  0  0  0  0  0  0  0  0  0  0
   38.1480   26.3460   41.8610 H   0  0  0  0  0  0  0  0  0  0  0  0
   37.6160   25.4550   43.3960 H   0  0  0  0  0  0  0  0  0  0  0  0
   36.2920   27.2300   44.1130 H   0  0  0  0  0  0  0  0  0  0  0  0
   35.9270   27.2360   42.3010 H   0  0  0  0  0  0  0  0  0  0  0  0
   37.0620   29.3760   43.9390 H   0  0  0  0  0  0  0  0  0  0  0  0
   39.2270   28.4500   41.9950 H   0  0  0  0  0  0  0  0  0  0  0  0
   39.3040   29.2670   43.6390 H   0  0  0  0  0  0  0  0  0  0  0  0
   41.7860   25.0560   42.5290 C   0  0  0  0  0  0  0  0  0  0  0  0
   40.4980   25.5800   42.5710 C   0  0  0  0  0  0  0  0  0  0  0  0
   40.2420   26.5530   43.5310 C   0  0  0  0  0  0  0  0  0  0  0  0
   41.2550   26.9700   44.4070 N   0  0  0  0  0  0  0  0  0  0  0  0
   42.4920   26.4190   44.3160 C   0  0  0  0  0  0  0  0  0  0  0  0
   42.7510   25.4730   43.3830 N   0  0  0  0  0  0  0  0  0  0  0  0
   41.9960   24.2990   41.7840 H   0  0  0  0  0  0  0  0  0  0  0  0
   39.7090   25.2710   41.9060 H   0  0  0  0  0  0  0  0  0  0  0  0
   43.2010   26.8070   45.0350 H   0  0  0  0  0  0  0  0  0  0  0  0
   37.2750   31.7380   40.6890 O   0  0  0  0  0  0  0  0  0  0  0  0
   38.0050   33.7300   39.1720 O   0  0  0  0  0  0  0  0  0  0  0  0
   38.4980   32.8070   40.2570 P   0  0  1  0  0  0  0  0  0  0  0  0
   38.9290   33.7810   41.6020 O   0  0  0  0  0  0  0  0  0  0  0  0
   39.4400   33.2020   42.2150 H   0  0  0  0  0  0  0  0  0  0  0  0
   39.8930   32.0720   39.7310 O   0  0  0  0  0  0  0  0  0  0  0  0
   41.2520   33.1820   38.2620 C   0  0  0  0  0  0  0  0  0  0  0  0
   41.0630   32.7830   39.5700 C   0  0  0  0  0  0  0  0  0  0  0  0
   42.0200   33.1290   40.5010 C   0  0  0  0  0  0  0  0  0  0  0  0
   41.7860   32.7730   41.5050 H   0  0  0  0  0  0  0  0  0  0  0  0
   43.1310   33.8530   40.1370 C   0  0  0  0  0  3  0  0  0  0  0  0
   43.3030   34.2450   38.8130 C   0  0  0  0  0  3  0  0  0  0  0  0
   42.3720   33.9160   37.8760 C   0  0  0  0  0  0  0  0  0  0  0  0
   40.3700   32.9090   37.2000 O   0  0  0  0  0  0  0  0  0  0  0  0
   40.0390   31.9640   37.0350 H   0  0  0  0  0  0  0  0  0  0  0  0
   42.6020   34.3360   36.5760 O   0  0  0  0  0  0  0  0  0  0  0  0
   42.9560   33.6820   35.9040 H   0  0  0  0  0  0  0  0  0  0  0  0
  1  4  1  6  0  0  0
  1 11  1  0  0  0  0
  2  6  1  0  0  0  0
  2  3  1  0  0  0  0
  2  1  1  0  0  0  0
  3  1  1  0  0  0  0
  3  7  1  1  0  0  0
  5  2  1  0  0  0  0
  8 13  1  1  0  0  0
  9 10  1  0  0  0  0
  9 15  1  0  0  0  0
  9  8  1  0  0  0  0
 10 16  1  0  0  0  0
 11 10  1  0  0  0  0
 11 18  1  1  0  0  0
 12 11  1  0  0  0  0
 12 20  1  0  0  0  0
 12  8  1  0  0  0  0
 14  9  1  0  0  0  0
 17 10  1  0  0  0  0
 19 12  1  0  0  0  0
 21 22  2  0  0  0  0
 21 26  1  0  0  0  0
 22 23  1  0  0  0  0
 23  8  1  0  0  0  0
 23 24  2  0  0  0  0
 25 24  1  0  0  0  0
 25 29  1  0  0  0  0
 26 25  2  0  0  0  0
 27 21  1  0  0  0  0
 28 22  1  0  0  0  0
 30  3  1  0  0  0  0
 32 31  2  6  0  0  0
 32 30  1  0  0  0  0
 32 33  1  0  0  0  0
 33 34  1  0  0  0  0
 35 32  1  0  0  0  0
 36 37  1  0  0  0  0
 37 35  1  0  0  0  0
 37 38  2  0  0  0  0
 38 39  1  0  0  0  0
 40 38  1  0  0  0  0
 41 40  2  0  0  0  0
 42 36  2  0  0  0  0
 42 41  1  0  0  0  0
 43 36  1  0  0  0  0
 44 43  1  0  0  0  0
 45 42  1  0  0  0  0
 46 45  1  0  0  0  0
M  END
>  <minimizedAffinity>
-7.14185572

$$$$

 OpenBabel03252507563D

 46 49  0  0  1  0  0  0  0  0999 V2000
   37.7000   30.6170   41.1510 C   0  0  2  0  0  0  0  0  0  0  0  0
   36.2480   30.5420   41.1160 C   0  0  0  0  0  0  0  0  0  0  0  0
   37.0530   30.2930   39.8790 C   0  0  1  0  0  0  0  0  0  0  0  0
   38.1720   31.6140   41.2270 H   0  0  0  0  0  0  0  0  0  0  0  0
   35.6450   31.4540   41.1930 H   0  0  0  0  0  0  0  0  0  0  0  0
   35.7150   29.6270   41.4910 H   0  0  0  0  0  0  0  0  0  0  0  0
   37.3000   29.3030   39.4830 H   0  0  0  0  0  0  0  0  0  0  0  0
   38.4480   27.2470   42.1810 C   0  0  2  0  0  0  0  0  0  0  0  0
   37.2210   27.7100   42.9690 C   0  0  0  0  0  0  0  0  0  0  0  0
   37.6770   29.1630   43.2200 C   0  0  0  0  0  0  0  0  0  0  0  0
   38.4060   29.5610   41.9730 C   0  0  1  0  0  0  0  0  0  0  0  0
   38.4810   28.3220   41.1290 C   0  0  0  0  0  0  0  0  0  0  0  0
   39.3160   27.2380   42.8380 H   0  0  0  0  0  0  0  0  0  0  0  0
   36.3460   27.6680   42.3100 H   0  0  0  0  0  0  0  0  0  0  0  0
   37.1380   27.1510   43.9030 H   0  0  0  0  0  0  0  0  0  0  0  0
   38.3940   29.1050   44.0540 H   0  0  0  0  0  0  0  0  0  0  0  0
   36.7820   29.7750   43.4460 H   0  0  0  0  0  0  0  0  0  0  0  0
   39.4200   29.9530   42.1950 H   0  0  0  0  0  0  0  0  0  0  0  0
   37.6670   28.1960   40.4170 H   0  0  0  0  0  0  0  0  0  0  0  0
   39.4870   28.3020   40.6470 H   0  0  0  0  0  0  0  0  0  0  0  0
   36.9680   23.9290   41.1840 C   0  0  0  0  0  0  0  0  0  0  0  0
   37.0450   25.1910   41.7630 C   0  0  0  0  0  0  0  0  0  0  0  0
   38.2310   25.8950   41.5900 C   0  0  0  0  0  0  0  0  0  0  0  0
   39.2890   25.3360   40.8580 N   0  0  0  0  0  0  0  0  0  0  0  0
   39.1520   24.0980   40.3180 C   0  0  0  0  0  0  0  0  0  0  0  0
   38.0010   23.4050   40.4800 N   0  0  0  0  0  0  0  0  0  0  0  0
   36.0480   23.3730   41.3120 H   0  0  0  0  0  0  0  0  0  0  0  0
   36.2420   25.6350   42.3270 H   0  0  0  0  0  0  0  0  0  0  0  0
   40.0230   23.7560   39.7740 H   0  0  0  0  0  0  0  0  0  0  0  0
   37.0340   31.3040   38.8860 O   0  0  0  0  0  0  0  0  0  0  0  0
   38.1170   29.6130   37.2210 O   0  0  0  0  0  0  0  0  0  0  0  0
   38.2790   30.9950   37.8000 P   0  0  1  0  0  0  0  0  0  0  0  0
   38.2100   32.1080   36.4960 O   0  0  0  0  0  0  0  0  0  0  0  0
   38.5250   32.9740   36.8490 H   0  0  0  0  0  0  0  0  0  0  0  0
   39.8020   31.1170   38.4540 O   0  0  0  0  0  0  0  0  0  0  0  0
   41.1820   32.7730   37.6840 C   0  0  0  0  0  0  0  0  0  0  0  0
   40.3750   32.3430   38.7190 C   0  0  0  0  0  0  0  0  0  0  0  0
   40.2500   33.1540   39.8270 C   0  0  0  0  0  0  0  0  0  0  0  0
   39.5940   32.7340   40.5900 H   0  0  0  0  0  0  0  0  0  0  0  0
   40.9110   34.3570   39.9000 C   0  0  0  0  0  3  0  0  0  0  0  0
   41.7200   34.7730   38.8470 C   0  0  0  0  0  3  0  0  0  0  0  0
   41.8590   33.9900   37.7420 C   0  0  0  0  0  0  0  0  0  0  0  0
   41.4100   32.0630   36.4900 O   0  0  0  0  0  0  0  0  0  0  0  0
   41.6850   31.0880   36.5160 H   0  0  0  0  0  0  0  0  0  0  0  0
   42.6790   34.4600   36.7290 O   0  0  0  0  0  0  0  0  0  0  0  0
   43.6060   34.0940   36.6390 H   0  0  0  0  0  0  0  0  0  0  0  0
  1  4  1  1  0  0  0
  1 11  1  0  0  0  0
  2  1  1  0  0  0  0
  2  5  1  0  0  0  0
  2  6  1  0  0  0  0
  3  7  1  6  0  0  0
  3  2  1  0  0  0  0
  3  1  1  0  0  0  0
  8 13  1  1  0  0  0
  8  9  1  0  0  0  0
  9 10  1  0  0  0  0
  9 15  1  0  0  0  0
 10 17  1  0  0  0  0
 10 16  1  0  0  0  0
 11 18  1  1  0  0  0
 11 10  1  0  0  0  0
 12 11  1  0  0  0  0
 12  8  1  0  0  0  0
 14  9  1  0  0  0  0
 19 12  1  0  0  0  0
 20 12  1  0  0  0  0
 21 27  1  0  0  0  0
 21 22  1  0  0  0  0
 22 28  1  0  0  0  0
 23 22  2  0  0  0  0
 23  8  1  0  0  0  0
 24 23  1  0  0  0  0
 25 26  1  0  0  0  0
 25 24  2  0  0  0  0
 26 21  2  0  0  0  0
 29 25  1  0  0  0  0
 30  3  1  0  0  0  0
 32 31  2  6  0  0  0
 32 35  1  0  0  0  0
 32 30  1  0  0  0  0
 33 34  1  0  0  0  0
 33 32  1  0  0  0  0
 35 37  1  0  0  0  0
 36 42  2  0  0  0  0
 36 37  1  0  0  0  0
 37 38  2  0  0  0  0
 38 40  1  0  0  0  0
 38 39  1  0  0  0  0
 41 40  2  0  0  0  0
 42 41  1  0  0  0  0
 43 44  1  0  0  0  0
 43 36  1  0  0  0  0
 45 42  1  0  0  0  0
 46 45  1  0  0  0  0
M  END
>  <minimizedAffinity>
-6.82733679

$$$$

 OpenBabel03252507563D

 46 49  0  0  1  0  0  0  0  0999 V2000
   37.1780   31.6650   39.6840 C   0  0  2  0  0  0  0  0  0  0  0  0
   38.2330   30.9730   38.9620 C   0  0  0  0  0  0  0  0  0  0  0  0
   38.5410   32.1850   39.7850 C   0  0  1  0  0  0  0  0  0  0  0  0
   36.4580   32.2720   39.1050 H   0  0  0  0  0  0  0  0  0  0  0  0
   38.2880   31.0340   37.8690 H   0  0  0  0  0  0  0  0  0  0  0  0
   38.6820   30.0300   39.3740 H   0  0  0  0  0  0  0  0  0  0  0  0
   38.9630   32.1640   40.7950 H   0  0  0  0  0  0  0  0  0  0  0  0
   36.8320   28.9120   41.9810 C   0  0  2  0  0  0  0  0  0  0  0  0
   36.1020   28.5330   40.6910 C   0  0  0  0  0  0  0  0  0  0  0  0
   35.4900   29.9180   40.3880 C   0  0  0  0  0  0  0  0  0  0  0  0
   36.5340   30.9030   40.8210 C   0  0  1  0  0  0  0  0  0  0  0  0
   37.6130   30.0950   41.4790 C   0  0  0  0  0  0  0  0  0  0  0  0
   36.1010   29.1540   42.7510 H   0  0  0  0  0  0  0  0  0  0  0  0
   36.8450   28.2450   39.9400 H   0  0  0  0  0  0  0  0  0  0  0  0
   35.3260   27.7920   40.8990 H   0  0  0  0  0  0  0  0  0  0  0  0
   34.6160   30.0030   41.0520 H   0  0  0  0  0  0  0  0  0  0  0  0
   35.2360   29.9590   39.3120 H   0  0  0  0  0  0  0  0  0  0  0  0
   36.1210   31.6600   41.5200 H   0  0  0  0  0  0  0  0  0  0  0  0
   38.4210   29.7780   40.8200 H   0  0  0  0  0  0  0  0  0  0  0  0
   37.9750   30.6700   42.3630 H   0  0  0  0  0  0  0  0  0  0  0  0
   39.5540   26.9200   43.6610 C   0  0  0  0  0  0  0  0  0  0  0  0
   38.7770   28.0230   43.3230 C   0  0  0  0  0  0  0  0  0  0  0  0
   37.7230   27.8080   42.4410 C   0  0  0  0  0  0  0  0  0  0  0  0
   37.4770   26.5260   41.9280 N   0  0  0  0  0  0  0  0  0  0  0  0
   38.2730   25.4900   42.2960 C   0  0  0  0  0  0  0  0  0  0  0  0
   39.2990   25.6900   43.1550 N   0  0  0  0  0  0  0  0  0  0  0  0
   40.3750   27.0770   44.3480 H   0  0  0  0  0  0  0  0  0  0  0  0
   38.9520   29.0140   43.7070 H   0  0  0  0  0  0  0  0  0  0  0  0
   38.0000   24.5450   41.8470 H   0  0  0  0  0  0  0  0  0  0  0  0
   38.8320   33.3810   39.0830 O   0  0  0  0  0  0  0  0  0  0  0  0
   38.6150   35.8540   39.8830 O   0  0  0  0  0  0  0  0  0  0  0  0
   39.2950   34.5460   40.2020 P   0  0  1  0  0  0  0  0  0  0  0  0
   38.7960   34.0800   41.7760 O   0  0  0  0  0  0  0  0  0  0  0  0
   39.3990   33.3510   42.0560 H   0  0  0  0  0  0  0  0  0  0  0  0
   40.9340   34.8090   40.2760 O   0  0  0  0  0  0  0  0  0  0  0  0
   42.4610   34.3640   38.6310 C   0  0  0  0  0  0  0  0  0  0  0  0
   41.8320   33.8950   39.7670 C   0  0  0  0  0  0  0  0  0  0  0  0
   42.1660   32.6380   40.2250 C   0  0  0  0  0  0  0  0  0  0  0  0
   41.6200   32.3540   41.1260 H   0  0  0  0  0  0  0  0  0  0  0  0
   43.0990   31.8720   39.5680 C   0  0  0  0  0  3  0  0  0  0  0  0
   43.7220   32.3610   38.4240 C   0  0  0  0  0  3  0  0  0  0  0  0
   43.4100   33.5990   37.9530 C   0  0  0  0  0  0  0  0  0  0  0  0
   42.2310   35.6200   38.0410 O   0  0  0  0  0  0  0  0  0  0  0  0
   41.2860   35.9320   37.8440 H   0  0  0  0  0  0  0  0  0  0  0  0
   44.0640   34.0290   36.8100 O   0  0  0  0  0  0  0  0  0  0  0  0
   43.5890   33.9900   35.9290 H   0  0  0  0  0  0  0  0  0  0  0  0
  1  4  1  6  0  0  0
  1  3  1  0  0  0  0
  1 11  1  0  0  0  0
  2  6  1  0  0  0  0
  2  1  1  0  0  0  0
  2  3  1  0  0  0  0
  3  7  1  1  0  0  0
  5  2  1  0  0  0  0
  8 23  1  0  0  0  0
  8 13  1  1  0  0  0
  9 15  1  0  0  0  0
  9  8  1  0  0  0  0
 10  9  1  0  0  0  0
 10 11  1  0  0  0  0
 10 16  1  0  0  0  0
 11 12  1  0  0  0  0
 11 18  1  1  0  0  0
 12  8  1  0  0  0  0
 12 20  1  0  0  0  0
 14  9  1  0  0  0  0
 17 10  1  0  0  0  0
 19 12  1  0  0  0  0
 21 27  1  0  0  0  0
 22 21  1  0  0  0  0
 22 28  1  0  0  0  0
 23 22  2  0  0  0  0
 24 25  2  0  0  0  0
 24 23  1  0  0  0  0
 25 26  1  0  0  0  0
 26 21  2  0  0  0  0
 29 25  1  0  0  0  0
 30  3  1  0  0  0  0
 30 32  1  0  0  0  0
 32 31  2  6  0  0  0
 32 35  1  0  0  0  0
 32 33  1  0  0  0  0
 33 34  1  0  0  0  0
 36 37  1  0  0  0  0
 37 38  2  0  0  0  0
 37 35  1  0  0  0  0
 38 39  1  0  0  0  0
 40 38  1  0  0  0  0
 41 40  2  0  0  0  0
 42 41  1  0  0  0  0
 42 36  2  0  0  0  0
 43 36  1  0  0  0  0
 44 43  1  0  0  0  0
 45 42  1  0  0  0  0
 46 45  1  0  0  0  0
M  END
>  <minimizedAffinity>
-6.80208921

$$$$

 OpenBabel03252507563D

 46 49  0  0  1  0  0  0  0  0999 V2000
   36.3670   29.0180   41.1250 C   0  0  2  0  0  0  0  0  0  0  0  0
   36.4440   27.9300   40.1640 C   0  0  0  0  0  0  0  0  0  0  0  0
   37.2410   29.1800   39.9630 C   0  0  1  0  0  0  0  0  0  0  0  0
   35.4500   29.6360   41.1450 H   0  0  0  0  0  0  0  0  0  0  0  0
   35.5980   27.7150   39.5010 H   0  0  0  0  0  0  0  0  0  0  0  0
   37.0790   27.0270   40.3750 H   0  0  0  0  0  0  0  0  0  0  0  0
   38.3030   29.2910   40.2040 H   0  0  0  0  0  0  0  0  0  0  0  0
   38.8470   27.8510   43.4630 C   0  0  2  0  0  0  0  0  0  0  0  0
   38.0010   26.6470   43.0460 C   0  0  0  0  0  0  0  0  0  0  0  0
   36.6320   27.3600   43.0150 C   0  0  0  0  0  0  0  0  0  0  0  0
   36.9250   28.7370   42.5020 C   0  0  1  0  0  0  0  0  0  0  0  0
   38.4190   28.8280   42.4010 C   0  0  0  0  0  0  0  0  0  0  0  0
   38.5780   28.1480   44.4750 H   0  0  0  0  0  0  0  0  0  0  0  0
   38.3140   26.3290   42.0450 H   0  0  0  0  0  0  0  0  0  0  0  0
   38.0320   25.8770   43.8200 H   0  0  0  0  0  0  0  0  0  0  0  0
   36.3130   27.4270   44.0680 H   0  0  0  0  0  0  0  0  0  0  0  0
   35.9440   26.7680   42.3800 H   0  0  0  0  0  0  0  0  0  0  0  0
   36.5240   29.5220   43.1760 H   0  0  0  0  0  0  0  0  0  0  0  0
   38.8350   28.5560   41.4310 H   0  0  0  0  0  0  0  0  0  0  0  0
   38.7190   29.8500   42.7310 H   0  0  0  0  0  0  0  0  0  0  0  0
   42.5640   28.0600   42.8850 C   0  0  0  0  0  0  0  0  0  0  0  0
   41.2370   28.4720   42.9390 C   0  0  0  0  0  0  0  0  0  0  0  0
   40.3030   27.5420   43.3820 C   0  0  0  0  0  0  0  0  0  0  0  0
   40.7080   26.2510   43.7530 N   0  0  0  0  0  0  0  0  0  0  0  0
   42.0190   25.9100   43.6770 C   0  0  0  0  0  0  0  0  0  0  0  0
   42.9350   26.8090   43.2480 N   0  0  0  0  0  0  0  0  0  0  0  0
   43.2980   28.7770   42.5420 H   0  0  0  0  0  0  0  0  0  0  0  0
   40.9090   29.4590   42.6580 H   0  0  0  0  0  0  0  0  0  0  0  0
   42.2280   24.8940   43.9850 H   0  0  0  0  0  0  0  0  0  0  0  0
   36.8050   30.0620   38.9420 O   0  0  0  0  0  0  0  0  0  0  0  0
   37.3560   32.4370   38.0170 O   0  0  0  0  0  0  0  0  0  0  0  0
   37.4420   31.5850   39.2570 P   0  0  1  0  0  0  0  0  0  0  0  0
   36.5240   32.3640   40.4790 O   0  0  0  0  0  0  0  0  0  0  0  0
   36.7560   31.9220   41.3300 H   0  0  0  0  0  0  0  0  0  0  0  0
   39.0200   31.5710   39.7790 O   0  0  0  0  0  0  0  0  0  0  0  0
   39.7870   33.6210   40.4460 C   0  0  0  0  0  0  0  0  0  0  0  0
   39.8770   32.6150   39.5050 C   0  0  0  0  0  0  0  0  0  0  0  0
   40.7670   32.7750   38.4640 C   0  0  0  0  0  0  0  0  0  0  0  0
   40.7700   31.9320   37.7720 H   0  0  0  0  0  0  0  0  0  0  0  0
   41.5440   33.9050   38.3660 C   0  0  0  0  0  3  0  0  0  0  0  0
   41.4390   34.9080   39.3250 C   0  0  0  0  0  3  0  0  0  0  0  0
   40.5670   34.7730   40.3610 C   0  0  0  0  0  0  0  0  0  0  0  0
   38.9300   33.6080   41.5620 O   0  0  0  0  0  0  0  0  0  0  0  0
   37.9430   33.4000   41.4520 H   0  0  0  0  0  0  0  0  0  0  0  0
   40.5090   35.8070   41.2820 O   0  0  0  0  0  0  0  0  0  0  0  0
   39.7570   36.4670   41.2320 H   0  0  0  0  0  0  0  0  0  0  0  0
  1  4  1  6  0  0  0
  1 11  1  0  0  0  0
  2  6  1  0  0  0  0
  2  1  1  0  0  0  0
  3  2  1  0  0  0  0
  3  7  1  1  0  0  0
  3  1  1  0  0  0  0
  5  2  1  0  0  0  0
  8 13  1  1  0  0  0
  9  8  1  0  0  0  0
  9 15  1  0  0  0  0
 10  9  1  0  0  0  0
 10 16  1  0  0  0  0
 11 10  1  0  0  0  0
 11 18  1  1  0  0  0
 12 11  1  0  0  0  0
 12 20  1  0  0  0  0
 12  8  1  0  0  0  0
 14  9  1  0  0  0  0
 17 10  1  0  0  0  0
 19 12  1  0  0  0  0
 21 22  2  0  0  0  0
 21 26  1  0  0  0  0
 22 23  1  0  0  0  0
 23  8  1  0  0  0  0
 23 24  2  0  0  0  0
 25 24  1  0  0  0  0
 25 29  1  0  0  0  0
 26 25  2  0  0  0  0
 27 21  1  0  0  0  0
 28 22  1  0  0  0  0
 30 32  1  0  0  0  0
 30  3  1  0  0  0  0
 32 31  2  6  0  0  0
 32 35  1  0  0  0  0
 32 33  1  0  0  0  0
 33 34  1  0  0  0  0
 36 43  1  0  0  0  0
 37 35  1  0  0  0  0
 37 36  2  0  0  0  0
 38 37  1  0  0  0  0
 39 38  1  0  0  0  0
 40 38  2  0  0  0  0
 40 41  1  0  0  0  0
 41 42  2  0  0  0  0
 42 36  1  0  0  0  0
 42 45  1  0  0  0  0
 44 43  1  0  0  0  0
 46 45  1  0  0  0  0
M  END
>  <minimizedAffinity>
-6.67829084

$$$$

 OpenBabel03252507563D

 46 49  0  0  1  0  0  0  0  0999 V2000
   36.8220   31.3470   39.8410 C   0  0  2  0  0  0  0  0  0  0  0  0
   37.4760   30.6380   38.7530 C   0  0  0  0  0  0  0  0  0  0  0  0
   38.2570   31.5480   39.6490 C   0  0  1  0  0  0  0  0  0  0  0  0
   36.1640   32.2000   39.5900 H   0  0  0  0  0  0  0  0  0  0  0  0
   37.2940   30.9300   37.7130 H   0  0  0  0  0  0  0  0  0  0  0  0
   37.7560   29.5560   38.8650 H   0  0  0  0  0  0  0  0  0  0  0  0
   38.8790   31.2170   40.4870 H   0  0  0  0  0  0  0  0  0  0  0  0
   36.8370   28.5420   42.1010 C   0  0  2  0  0  0  0  0  0  0  0  0
   36.1550   28.0910   40.8080 C   0  0  0  0  0  0  0  0  0  0  0  0
   35.3720   29.3910   40.5250 C   0  0  0  0  0  0  0  0  0  0  0  0
   36.2840   30.4950   40.9690 C   0  0  1  0  0  0  0  0  0  0  0  0
   37.4600   29.8220   41.6130 C   0  0  0  0  0  0  0  0  0  0  0  0
   36.0840   28.6800   42.8760 H   0  0  0  0  0  0  0  0  0  0  0  0
   36.9260   27.9100   40.0500 H   0  0  0  0  0  0  0  0  0  0  0  0
   35.4810   27.2550   41.0070 H   0  0  0  0  0  0  0  0  0  0  0  0
   34.4960   29.3560   41.1920 H   0  0  0  0  0  0  0  0  0  0  0  0
   35.1100   29.4140   39.4500 H   0  0  0  0  0  0  0  0  0  0  0  0
   35.7810   31.1840   41.6790 H   0  0  0  0  0  0  0  0  0  0  0  0
   38.2990   29.6180   40.9480 H   0  0  0  0  0  0  0  0  0  0  0  0
   37.7490   30.4260   42.5040 H   0  0  0  0  0  0  0  0  0  0  0  0
   39.8680   26.9170   43.6380 C   0  0  0  0  0  0  0  0  0  0  0  0
   38.9660   27.9220   43.3060 C   0  0  0  0  0  0  0  0  0  0  0  0
   37.8630   27.5550   42.5430 C   0  0  0  0  0  0  0  0  0  0  0  0
   37.6900   26.2230   42.1390 N   0  0  0  0  0  0  0  0  0  0  0  0
   38.6070   25.2880   42.4950 C   0  0  0  0  0  0  0  0  0  0  0  0
   39.6830   25.6350   43.2390 N   0  0  0  0  0  0  0  0  0  0  0  0
   40.7300   27.1920   44.2320 H   0  0  0  0  0  0  0  0  0  0  0  0
   39.0840   28.9490   43.6080 H   0  0  0  0  0  0  0  0  0  0  0  0
   38.3840   24.2930   42.1350 H   0  0  0  0  0  0  0  0  0  0  0  0
   38.6720   32.7880   39.1020 O   0  0  0  0  0  0  0  0  0  0  0  0
   38.6080   34.6030   40.9740 O   0  0  0  0  0  0  0  0  0  0  0  0
   39.5240   33.6240   40.2840 P   0  0  1  0  0  0  0  0  0  0  0  0
   40.0990   32.5330   41.4760 O   0  0  0  0  0  0  0  0  0  0  0  0
   40.8490   32.0400   41.0670 H   0  0  0  0  0  0  0  0  0  0  0  0
   40.8470   34.4530   39.7150 O   0  0  0  0  0  0  0  0  0  0  0  0
   42.1690   35.2610   41.3990 C   0  0  0  0  0  0  0  0  0  0  0  0
   42.0710   34.3740   40.3460 C   0  0  0  0  0  0  0  0  0  0  0  0
   43.1530   33.5640   40.0730 C   0  0  0  0  0  0  0  0  0  0  0  0
   42.9840   32.8980   39.2270 H   0  0  0  0  0  0  0  0  0  0  0  0
   44.2980   33.6380   40.8310 C   0  0  0  0  0  3  0  0  0  0  0  0
   44.3780   34.5380   41.8880 C   0  0  0  0  0  3  0  0  0  0  0  0
   43.3230   35.3480   42.1770 C   0  0  0  0  0  0  0  0  0  0  0  0
   41.1560   36.1510   41.8020 O   0  0  0  0  0  0  0  0  0  0  0  0
   40.6990   36.7530   41.1250 H   0  0  0  0  0  0  0  0  0  0  0  0
   43.4650   36.2230   43.2410 O   0  0  0  0  0  0  0  0  0  0  0  0
   43.6670   37.1870   43.0610 H   0  0  0  0  0  0  0  0  0  0  0  0
  1  4  1  6  0  0  0
  1 11  1  0  0  0  0
  2  6  1  0  0  0  0
  2  3  1  0  0  0  0
  2  1  1  0  0  0  0
  3  1  1  0  0  0  0
  3  7  1  1  0  0  0
  5  2  1  0  0  0  0
  8 23  1  0  0  0  0
  8 13  1  1  0  0  0
  9 15  1  0  0  0  0
  9  8  1  0  0  0  0
 10  9  1  0  0  0  0
 10 11  1  0  0  0  0
 10 16  1  0  0  0  0
 11 12  1  0  0  0  0
 11 18  1  1  0  0  0
 12  8  1  0  0  0  0
 12 20  1  0  0  0  0
 14  9  1  0  0  0  0
 17 10  1  0  0  0  0
 19 12  1  0  0  0  0
 21 27  1  0  0  0  0
 22 28  1  0  0  0  0
 22 21  1  0  0  0  0
 23 22  2  0  0  0  0
 24 25  2  0  0  0  0
 24 23  1  0  0  0  0
 25 26  1  0  0  0  0
 26 21  2  0  0  0  0
 29 25  1  0  0  0  0
 30  3  1  0  0  0  0
 30 32  1  0  0  0  0
 32 31  2  1  0  0  0
 32 33  1  0  0  0  0
 34 33  1  0  0  0  0
 35 32  1  0  0  0  0
 35 37  1  0  0  0  0
 36 43  1  0  0  0  0
 36 42  1  0  0  0  0
 37 36  2  0  0  0  0
 38 37  1  0  0  0  0
 38 40  2  0  0  0  0
 39 38  1  0  0  0  0
 40 41  1  0  0  0  0
 41 42  2  0  0  0  0
 42 45  1  0  0  0  0
 44 43  1  0  0  0  0
 46 45  1  0  0  0  0
M  END
>  <minimizedAffinity>
-6.61199999

$$$$

 OpenBabel03252507563D

 46 49  0  0  1  0  0  0  0  0999 V2000
   39.2940   27.8020   42.8760 C   0  0  2  0  0  0  0  0  0  0  0  0
   38.2950   27.6410   43.9200 C   0  0  0  0  0  0  0  0  0  0  0  0
   37.9190   28.2130   42.5890 C   0  0  1  0  0  0  0  0  0  0  0  0
   40.0400   28.6110   42.9840 H   0  0  0  0  0  0  0  0  0  0  0  0
   38.3080   28.2910   44.8030 H   0  0  0  0  0  0  0  0  0  0  0  0
   37.8350   26.6360   44.1190 H   0  0  0  0  0  0  0  0  0  0  0  0
   37.4360   27.6520   41.7820 H   0  0  0  0  0  0  0  0  0  0  0  0
   39.1370   24.5340   41.3690 C   0  0  2  0  0  0  0  0  0  0  0  0
   39.0110   24.3520   42.8830 C   0  0  0  0  0  0  0  0  0  0  0  0
   40.0400   25.4240   43.3030 C   0  0  0  0  0  0  0  0  0  0  0  0
   39.8760   26.5290   42.3040 C   0  0  1  0  0  0  0  0  0  0  0  0
   38.9030   26.0180   41.2830 C   0  0  0  0  0  0  0  0  0  0  0  0
   40.1290   24.2190   41.0490 H   0  0  0  0  0  0  0  0  0  0  0  0
   37.9940   24.6270   43.1850 H   0  0  0  0  0  0  0  0  0  0  0  0
   39.3380   23.3510   43.1720 H   0  0  0  0  0  0  0  0  0  0  0  0
   41.0260   24.9540   43.1640 H   0  0  0  0  0  0  0  0  0  0  0  0
   39.8310   25.7150   44.3510 H   0  0  0  0  0  0  0  0  0  0  0  0
   40.8420   26.8030   41.8310 H   0  0  0  0  0  0  0  0  0  0  0  0
   37.8590   26.2600   41.4760 H   0  0  0  0  0  0  0  0  0  0  0  0
   39.2510   26.3640   40.2810 H   0  0  0  0  0  0  0  0  0  0  0  0
   35.9050   23.4340   39.7760 C   0  0  0  0  0  0  0  0  0  0  0  0
   36.8040   24.2560   40.4470 C   0  0  0  0  0  0  0  0  0  0  0  0
   38.0880   23.7610   40.6440 C   0  0  0  0  0  0  0  0  0  0  0  0
   38.4370   22.4860   40.1760 N   0  0  0  0  0  0  0  0  0  0  0  0
   37.5130   21.7300   39.5290 C   0  0  0  0  0  0  0  0  0  0  0  0
   36.2610   22.2040   39.3320 N   0  0  0  0  0  0  0  0  0  0  0  0
   34.9030   23.8100   39.6170 H   0  0  0  0  0  0  0  0  0  0  0  0
   36.5520   25.2380   40.8110 H   0  0  0  0  0  0  0  0  0  0  0  0
   37.8800   20.7640   39.2090 H   0  0  0  0  0  0  0  0  0  0  0  0
   37.6560   29.6040   42.5390 O   0  0  0  0  0  0  0  0  0  0  0  0
   36.1310   28.6650   40.6430 O   0  0  0  0  0  0  0  0  0  0  0  0
   36.8000   29.9250   41.1280 P   0  0  1  0  0  0  0  0  0  0  0  0
   35.5640   31.0740   41.4400 O   0  0  0  0  0  0  0  0  0  0  0  0
   36.0130   31.9460   41.5490 H   0  0  0  0  0  0  0  0  0  0  0  0
   37.7260   30.5400   39.8930 O   0  0  0  0  0  0  0  0  0  0  0  0
   38.1520   32.7890   39.8830 C   0  0  0  0  0  0  0  0  0  0  0  0
   38.6620   31.5270   40.1190 C   0  0  0  0  0  0  0  0  0  0  0  0
   39.9740   31.4200   40.5300 C   0  0  0  0  0  0  0  0  0  0  0  0
   40.2870   30.3890   40.6920 H   0  0  0  0  0  0  0  0  0  0  0  0
   40.7530   32.5400   40.7000 C   0  0  0  0  0  3  0  0  0  0  0  0
   40.2220   33.8030   40.4570 C   0  0  0  0  0  3  0  0  0  0  0  0
   38.9300   33.9340   40.0510 C   0  0  0  0  0  0  0  0  0  0  0  0
   36.8380   33.0620   39.4610 O   0  0  0  0  0  0  0  0  0  0  0  0
   36.4410   32.5750   38.6650 H   0  0  0  0  0  0  0  0  0  0  0  0
   38.4610   35.2180   39.8250 O   0  0  0  0  0  0  0  0  0  0  0  0
   38.3920   35.5560   38.8850 H   0  0  0  0  0  0  0  0  0  0  0  0
  1  4  1  1  0  0  0
  1  2  1  0  0  0  0
  2  6  1  0  0  0  0
  2  5  1  0  0  0  0
  3  7  1  6  0  0  0
  3  1  1  0  0  0  0
  3  2  1  0  0  0  0
  8 13  1  6  0  0  0
  8  9  1  0  0  0  0
  9 15  1  0  0  0  0
  9 14  1  0  0  0  0
  9 10  1  0  0  0  0
 10 17  1  0  0  0  0
 11 18  1  6  0  0  0
 11  1  1  0  0  0  0
 11 10  1  0  0  0  0
 12  8  1  0  0  0  0
 12 19  1  0  0  0  0
 12 11  1  0  0  0  0
 16 10  1  0  0  0  0
 20 12  1  0  0  0  0
 21 22  1  0  0  0  0
 22 23  2  0  0  0  0
 22 28  1  0  0  0  0
 23  8  1  0  0  0  0
 24 23  1  0  0  0  0
 25 24  2  0  0  0  0
 26 25  1  0  0  0  0
 26 21  2  0  0  0  0
 27 21  1  0  0  0  0
 29 25  1  0  0  0  0
 30  3  1  0  0  0  0
 32 31  2  6  0  0  0
 32 33  1  0  0  0  0
 32 30  1  0  0  0  0
 33 34  1  0  0  0  0
 35 37  1  0  0  0  0
 35 32  1  0  0  0  0
 36 42  2  0  0  0  0
 36 37  1  0  0  0  0
 37 38  2  0  0  0  0
 38 39  1  0  0  0  0
 38 40  1  0  0  0  0
 41 40  2  0  0  0  0
 42 41  1  0  0  0  0
 43 36  1  0  0  0  0
 44 43  1  0  0  0  0
 45 42  1  0  0  0  0
 46 45  1  0  0  0  0
M  END
>  <minimizedAffinity>
-6.59723139

$$$$

 OpenBabel03252507563D

 46 49  0  0  1  0  0  0  0  0999 V2000
   38.8420   28.3180   42.6540 C   0  0  2  0  0  0  0  0  0  0  0  0
   38.1830   29.3220   43.4720 C   0  0  0  0  0  0  0  0  0  0  0  0
   37.9060   29.2350   42.0040 C   0  0  1  0  0  0  0  0  0  0  0  0
   39.9140   28.4540   42.4180 H   0  0  0  0  0  0  0  0  0  0  0  0
   38.7490   30.1750   43.8660 H   0  0  0  0  0  0  0  0  0  0  0  0
   37.2990   29.0480   44.1090 H   0  0  0  0  0  0  0  0  0  0  0  0
   37.0290   28.7510   41.5610 H   0  0  0  0  0  0  0  0  0  0  0  0
   38.3230   24.8580   41.7950 C   0  0  2  0  0  0  0  0  0  0  0  0
   37.0340   25.6140   41.4690 C   0  0  0  0  0  0  0  0  0  0  0  0
   37.0320   26.5530   42.6960 C   0  0  0  0  0  0  0  0  0  0  0  0
   38.4750   26.8780   42.9350 C   0  0  1  0  0  0  0  0  0  0  0  0
   39.2520   26.0280   41.9730 C   0  0  0  0  0  0  0  0  0  0  0  0
   38.1750   24.2650   42.6960 H   0  0  0  0  0  0  0  0  0  0  0  0
   37.1800   26.1690   40.5360 H   0  0  0  0  0  0  0  0  0  0  0  0
   36.1800   24.9330   41.4870 H   0  0  0  0  0  0  0  0  0  0  0  0
   36.6560   25.9410   43.5310 H   0  0  0  0  0  0  0  0  0  0  0  0
   36.3950   27.4280   42.4640 H   0  0  0  0  0  0  0  0  0  0  0  0
   38.7760   26.6690   43.9830 H   0  0  0  0  0  0  0  0  0  0  0  0
   39.4750   26.4980   41.0150 H   0  0  0  0  0  0  0  0  0  0  0  0
   40.1650   25.6660   42.5010 H   0  0  0  0  0  0  0  0  0  0  0  0
   38.6590   21.9970   39.3670 C   0  0  0  0  0  0  0  0  0  0  0  0
   38.1760   22.7300   40.4450 C   0  0  0  0  0  0  0  0  0  0  0  0
   38.7370   23.9840   40.6600 C   0  0  0  0  0  0  0  0  0  0  0  0
   39.7460   24.4650   39.8120 N   0  0  0  0  0  0  0  0  0  0  0  0
   40.1760   23.7000   38.7770 C   0  0  0  0  0  0  0  0  0  0  0  0
   39.6340   22.4790   38.5590 N   0  0  0  0  0  0  0  0  0  0  0  0
   38.2280   21.0200   39.1910 H   0  0  0  0  0  0  0  0  0  0  0  0
   37.4020   22.3760   41.1050 H   0  0  0  0  0  0  0  0  0  0  0  0
   40.9550   24.1600   38.1840 H   0  0  0  0  0  0  0  0  0  0  0  0
   38.4570   30.2510   41.1850 O   0  0  0  0  0  0  0  0  0  0  0  0
   36.8130   30.1510   39.1630 O   0  0  0  0  0  0  0  0  0  0  0  0
   37.2000   30.9930   40.3520 P   0  0  1  0  0  0  0  0  0  0  0  0
   35.8200   31.1190   41.3630 O   0  0  0  0  0  0  0  0  0  0  0  0
   36.0140   31.8320   42.0150 H   0  0  0  0  0  0  0  0  0  0  0  0
   37.5470   32.5290   39.8200 O   0  0  0  0  0  0  0  0  0  0  0  0
   39.3000   33.8560   40.4560 C   0  0  0  0  0  0  0  0  0  0  0  0
   38.8410   32.9210   39.5490 C   0  0  0  0  0  0  0  0  0  0  0  0
   39.6910   32.5190   38.5410 C   0  0  0  0  0  0  0  0  0  0  0  0
   39.2430   31.7800   37.8760 H   0  0  0  0  0  0  0  0  0  0  0  0
   40.9610   33.0340   38.4410 C   0  0  0  0  0  3  0  0  0  0  0  0
   41.4060   33.9760   39.3640 C   0  0  0  0  0  3  0  0  0  0  0  0
   40.5850   34.3890   40.3680 C   0  0  0  0  0  0  0  0  0  0  0  0
   38.5570   34.3660   41.5360 O   0  0  0  0  0  0  0  0  0  0  0  0
   37.6190   34.7250   41.3930 H   0  0  0  0  0  0  0  0  0  0  0  0
   41.0870   35.3280   41.2540 O   0  0  0  0  0  0  0  0  0  0  0  0
   40.8200   36.2880   41.1540 H   0  0  0  0  0  0  0  0  0  0  0  0
  1  4  1  6  0  0  0
  1 11  1  0  0  0  0
  1  2  1  0  0  0  0
  2  5  1  0  0  0  0
  2  6  1  0  0  0  0
  3  7  1  6  0  0  0
  3  1  1  0  0  0  0
  3  2  1  0  0  0  0
  8 12  1  0  0  0  0
  8 13  1  1  0  0  0
  9 15  1  0  0  0  0
  9  8  1  0  0  0  0
  9 10  1  0  0  0  0
 10 11  1  0  0  0  0
 10 16  1  0  0  0  0
 11 18  1  1  0  0  0
 12 20  1  0  0  0  0
 12 11  1  0  0  0  0
 14  9  1  0  0  0  0
 17 10  1  0  0  0  0
 19 12  1  0  0  0  0
 21 22  1  0  0  0  0
 22 23  2  0  0  0  0
 22 28  1  0  0  0  0
 23  8  1  0  0  0  0
 24 23  1  0  0  0  0
 25 24  2  0  0  0  0
 26 25  1  0  0  0  0
 26 21  2  0  0  0  0
 27 21  1  0  0  0  0
 29 25  1  0  0  0  0
 30  3  1  0  0  0  0
 32 31  2  6  0  0  0
 32 30  1  0  0  0  0
 32 33  1  0  0  0  0
 33 34  1  0  0  0  0
 35 32  1  0  0  0  0
 36 43  1  0  0  0  0
 37 35  1  0  0  0  0
 37 36  2  0  0  0  0
 38 37  1  0  0  0  0
 39 38  1  0  0  0  0
 40 38  2  0  0  0  0
 40 41  1  0  0  0  0
 41 42  2  0  0  0  0
 42 36  1  0  0  0  0
 42 45  1  0  0  0  0
 44 43  1  0  0  0  0
 46 45  1  0  0  0  0
M  END
>  <minimizedAffinity>
-6.5916605

$$$$

 OpenBabel03252507563D

 46 49  0  0  1  0  0  0  0  0999 V2000
   35.6920   29.7080   38.0040 C   0  0  2  0  0  0  0  0  0  0  0  0
   36.5870   29.7030   36.8580 C   0  0  0  0  0  0  0  0  0  0  0  0
   36.9520   30.4430   38.1070 C   0  0  1  0  0  0  0  0  0  0  0  0
   34.7690   30.3130   37.9450 H   0  0  0  0  0  0  0  0  0  0  0  0
   36.3310   30.2640   35.9520 H   0  0  0  0  0  0  0  0  0  0  0  0
   37.2500   28.8190   36.6560 H   0  0  0  0  0  0  0  0  0  0  0  0
   37.6340   30.0710   38.8780 H   0  0  0  0  0  0  0  0  0  0  0  0
   36.5450   27.0690   40.3040 C   0  0  2  0  0  0  0  0  0  0  0  0
   37.2890   26.8000   38.9940 C   0  0  0  0  0  0  0  0  0  0  0  0
   36.1600   27.2230   38.0280 C   0  0  0  0  0  0  0  0  0  0  0  0
   35.4890   28.3810   38.7010 C   0  0  1  0  0  0  0  0  0  0  0  0
   36.1250   28.4930   40.0560 C   0  0  0  0  0  0  0  0  0  0  0  0
   35.7160   26.3700   40.3980 H   0  0  0  0  0  0  0  0  0  0  0  0
   38.1480   27.4770   38.9330 H   0  0  0  0  0  0  0  0  0  0  0  0
   37.5160   25.7360   38.9000 H   0  0  0  0  0  0  0  0  0  0  0  0
   35.4650   26.3690   37.9990 H   0  0  0  0  0  0  0  0  0  0  0  0
   36.6130   27.4600   37.0460 H   0  0  0  0  0  0  0  0  0  0  0  0
   34.3930   28.2290   38.7880 H   0  0  0  0  0  0  0  0  0  0  0  0
   36.9800   29.1670   40.1120 H   0  0  0  0  0  0  0  0  0  0  0  0
   35.3230   28.7480   40.7870 H   0  0  0  0  0  0  0  0  0  0  0  0
   39.1930   25.9260   42.7280 C   0  0  0  0  0  0  0  0  0  0  0  0
   38.4130   25.9470   41.5760 C   0  0  0  0  0  0  0  0  0  0  0  0
   37.4580   26.9530   41.4760 C   0  0  0  0  0  0  0  0  0  0  0  0
   37.3070   27.8930   42.5050 N   0  0  0  0  0  0  0  0  0  0  0  0
   38.0980   27.8190   43.6060 C   0  0  0  0  0  0  0  0  0  0  0  0
   39.0310   26.8440   43.7120 N   0  0  0  0  0  0  0  0  0  0  0  0
   39.9390   25.1480   42.8150 H   0  0  0  0  0  0  0  0  0  0  0  0
   38.5170   25.2330   40.7760 H   0  0  0  0  0  0  0  0  0  0  0  0
   37.9030   28.5880   44.3410 H   0  0  0  0  0  0  0  0  0  0  0  0
   36.8830   31.8580   38.0580 O   0  0  0  0  0  0  0  0  0  0  0  0
   37.6400   33.9750   39.3790 O   0  0  0  0  0  0  0  0  0  0  0  0
   37.6540   32.4680   39.4210 P   0  0  1  0  0  0  0  0  0  0  0  0
   36.8140   31.9870   40.8360 O   0  0  0  0  0  0  0  0  0  0  0  0
   37.0100   31.0280   40.9660 H   0  0  0  0  0  0  0  0  0  0  0  0
   39.2270   31.9610   39.6000 O   0  0  0  0  0  0  0  0  0  0  0  0
   40.7380   32.9990   38.2300 C   0  0  0  0  0  0  0  0  0  0  0  0
   40.2810   32.8470   39.5240 C   0  0  0  0  0  0  0  0  0  0  0  0
   40.9040   33.5640   40.5230 C   0  0  0  0  0  0  0  0  0  0  0  0
   40.4750   33.3810   41.5090 H   0  0  0  0  0  0  0  0  0  0  0  0
   41.9520   34.4070   40.2390 C   0  0  0  0  0  3  0  0  0  0  0  0
   42.3990   34.5470   38.9290 C   0  0  0  0  0  3  0  0  0  0  0  0
   41.8000   33.8490   37.9250 C   0  0  0  0  0  0  0  0  0  0  0  0
   40.2100   32.3390   37.1040 O   0  0  0  0  0  0  0  0  0  0  0  0
   40.0760   31.3340   37.1120 H   0  0  0  0  0  0  0  0  0  0  0  0
   42.2920   34.0310   36.6430 O   0  0  0  0  0  0  0  0  0  0  0  0
   42.8990   33.3400   36.2480 H   0  0  0  0  0  0  0  0  0  0  0  0
  1  4  1  6  0  0  0
  1  3  1  0  0  0  0
  1 11  1  0  0  0  0
  2  1  1  0  0  0  0
  2  3  1  0  0  0  0
  3  7  1  1  0  0  0
  5  2  1  0  0  0  0
  6  2  1  0  0  0  0
  8 13  1  1  0  0  0
  8 23  1  0  0  0  0
  9  8  1  0  0  0  0
 10 11  1  0  0  0  0
 10  9  1  0  0  0  0
 11 18  1  1  0  0  0
 11 12  1  0  0  0  0
 12 19  1  0  0  0  0
 12  8  1  0  0  0  0
 12 20  1  0  0  0  0
 14  9  1  0  0  0  0
 15  9  1  0  0  0  0
 16 10  1  0  0  0  0
 17 10  1  0  0  0  0
 21 27  1  0  0  0  0
 21 26  1  0  0  0  0
 22 21  2  0  0  0  0
 23 22  1  0  0  0  0
 23 24  2  0  0  0  0
 24 25  1  0  0  0  0
 25 26  2  0  0  0  0
 25 29  1  0  0  0  0
 28 22  1  0  0  0  0
 30  3  1  0  0  0  0
 30 32  1  0  0  0  0
 32 31  2  6  0  0  0
 32 35  1  0  0  0  0
 32 33  1  0  0  0  0
 33 34  1  0  0  0  0
 36 37  1  0  0  0  0
 37 35  1  0  0  0  0
 37 38  2  0  0  0  0
 38 39  1  0  0  0  0
 40 38  1  0  0  0  0
 41 40  2  0  0  0  0
 42 36  2  0  0  0  0
 42 41  1  0  0  0  0
 43 44  1  0  0  0  0
 43 36  1  0  0  0  0
 45 42  1  0  0  0  0
 46 45  1  0  0  0  0
M  END
>  <minimizedAffinity>
-6.55380058

$$$$

 OpenBabel03252507563D

 46 49  0  0  1  0  0  0  0  0999 V2000
   37.2460   25.7950   41.2210 C   0  0  2  0  0  0  0  0  0  0  0  0
   38.1180   25.8050   40.0580 C   0  0  0  0  0  0  0  0  0  0  0  0
   37.4280   27.0560   40.5030 C   0  0  1  0  0  0  0  0  0  0  0  0
   36.2560   25.3110   41.1300 H   0  0  0  0  0  0  0  0  0  0  0  0
   37.8060   25.3170   39.1270 H   0  0  0  0  0  0  0  0  0  0  0  0
   39.2340   25.8440   40.1830 H   0  0  0  0  0  0  0  0  0  0  0  0
   37.8950   27.8520   41.0930 H   0  0  0  0  0  0  0  0  0  0  0  0
   39.8870   26.0760   43.6560 C   0  0  2  0  0  0  0  0  0  0  0  0
   40.2340   24.9100   42.7280 C   0  0  0  0  0  0  0  0  0  0  0  0
   38.8080   24.3380   42.5760 C   0  0  0  0  0  0  0  0  0  0  0  0
   37.9110   25.5390   42.5560 C   0  0  1  0  0  0  0  0  0  0  0  0
   38.7960   26.7170   42.8410 C   0  0  0  0  0  0  0  0  0  0  0  0
   39.5550   25.6860   44.6170 H   0  0  0  0  0  0  0  0  0  0  0  0
   40.6110   25.3150   41.7830 H   0  0  0  0  0  0  0  0  0  0  0  0
   40.8930   24.2040   43.2390 H   0  0  0  0  0  0  0  0  0  0  0  0
   38.6220   23.7650   43.4980 H   0  0  0  0  0  0  0  0  0  0  0  0
   38.7750   23.7230   41.6560 H   0  0  0  0  0  0  0  0  0  0  0  0
   37.0990   25.4600   43.3080 H   0  0  0  0  0  0  0  0  0  0  0  0
   39.2060   27.2120   41.9620 H   0  0  0  0  0  0  0  0  0  0  0  0
   38.2310   27.4110   43.5060 H   0  0  0  0  0  0  0  0  0  0  0  0
   42.3610   28.8980   43.3290 C   0  0  0  0  0  0  0  0  0  0  0  0
   41.2200   28.1410   43.0840 C   0  0  0  0  0  0  0  0  0  0  0  0
   41.0540   26.9850   43.8390 C   0  0  0  0  0  0  0  0  0  0  0  0
   42.0090   26.6210   44.7990 N   0  0  0  0  0  0  0  0  0  0  0  0
   43.1020   27.4020   44.9910 C   0  0  0  0  0  0  0  0  0  0  0  0
   43.2720   28.5290   44.2610 N   0  0  0  0  0  0  0  0  0  0  0  0
   42.4990   29.8000   42.7470 H   0  0  0  0  0  0  0  0  0  0  0  0
   40.4770   28.4070   42.3510 H   0  0  0  0  0  0  0  0  0  0  0  0
   43.7780   27.0350   45.7520 H   0  0  0  0  0  0  0  0  0  0  0  0
   36.3470   27.5110   39.7080 O   0  0  0  0  0  0  0  0  0  0  0  0
   34.4690   29.3000   39.9790 O   0  0  0  0  0  0  0  0  0  0  0  0
   35.9390   29.0610   40.2150 P   0  0  1  0  0  0  0  0  0  0  0  0
   36.2210   29.2210   41.8990 O   0  0  0  0  0  0  0  0  0  0  0  0
   37.1990   29.2740   42.0160 H   0  0  0  0  0  0  0  0  0  0  0  0
   36.7970   30.2720   39.4680 O   0  0  0  0  0  0  0  0  0  0  0  0
   37.8710   32.0540   40.4210 C   0  0  0  0  0  0  0  0  0  0  0  0
   37.9800   30.7450   39.9950 C   0  0  0  0  0  0  0  0  0  0  0  0
   39.1950   30.1100   40.1440 C   0  0  0  0  0  0  0  0  0  0  0  0
   39.1860   29.0820   39.7820 H   0  0  0  0  0  0  0  0  0  0  0  0
   40.2690   30.7630   40.7020 C   0  0  0  0  0  3  0  0  0  0  0  0
   40.1390   32.0830   41.1250 C   0  0  0  0  0  3  0  0  0  0  0  0
   38.9500   32.7300   40.9880 C   0  0  0  0  0  0  0  0  0  0  0  0
   36.7040   32.8350   40.3370 O   0  0  0  0  0  0  0  0  0  0  0  0
   36.1920   32.9050   39.4650 H   0  0  0  0  0  0  0  0  0  0  0  0
   38.8860   34.0430   41.4280 O   0  0  0  0  0  0  0  0  0  0  0  0
   38.9350   34.7870   40.7600 H   0  0  0  0  0  0  0  0  0  0  0  0
  1  4  1  6  0  0  0
  1 11  1  0  0  0  0
  2  6  1  0  0  0  0
  2  3  1  0  0  0  0
  2  1  1  0  0  0  0
  3  7  1  1  0  0  0
  3  1  1  0  0  0  0
  5  2  1  0  0  0  0
  8 23  1  0  0  0  0
  8 13  1  1  0  0  0
  9 15  1  0  0  0  0
  9  8  1  0  0  0  0
 10  9  1  0  0  0  0
 10 16  1  0  0  0  0
 11 10  1  0  0  0  0
 11 12  1  0  0  0  0
 11 18  1  1  0  0  0
 12 20  1  0  0  0  0
 12  8  1  0  0  0  0
 14  9  1  0  0  0  0
 17 10  1  0  0  0  0
 19 12  1  0  0  0  0
 21 26  1  0  0  0  0
 22 21  2  0  0  0  0
 22 23  1  0  0  0  0
 23 24  2  0  0  0  0
 24 25  1  0  0  0  0
 25 29  1  0  0  0  0
 26 25  2  0  0  0  0
 27 21  1  0  0  0  0
 28 22  1  0  0  0  0
 30 32  1  0  0  0  0
 30  3  1  0  0  0  0
 32 31  2  6  0  0  0
 32 33  1  0  0  0  0
 33 34  1  0  0  0  0
 35 37  1  0  0  0  0
 35 32  1  0  0  0  0
 36 42  1  0  0  0  0
 37 38  1  0  0  0  0
 37 36  2  0  0  0  0
 38 40  2  0  0  0  0
 39 38  1  0  0  0  0
 40 41  1  0  0  0  0
 42 41  2  0  0  0  0
 42 45  1  0  0  0  0
 43 36  1  0  0  0  0
 44 43  1  0  0  0  0
 46 45  1  0  0  0  0
M  END
>  <minimizedAffinity>
-6.45974016

$$$$
