
 OpenBabel03242510583D

 38 40  0  0  0  0  0  0  0  0999 V2000
   39.5790   32.4310   40.5530 C   0  0  0  0  0  0  0  0  0  0  0  0
   38.6690   33.1370   39.7370 C   0  0  0  0  0  0  0  0  0  0  0  0
   37.3550   32.7620   39.5820 C   0  0  0  0  0  0  0  0  0  0  0  0
   36.9220   31.6500   40.2590 C   0  0  0  0  0  0  0  0  0  0  0  0
   37.8260   30.9510   41.0690 C   0  0  0  0  0  0  0  0  0  0  0  0
   39.0830   31.3660   41.1750 N   0  0  0  0  0  0  0  0  0  0  0  0
   39.0590   34.0060   39.2240 H   0  0  0  0  0  0  0  0  0  0  0  0
   36.7030   33.3440   38.9400 H   0  0  0  0  0  0  0  0  0  0  0  0
   35.8720   31.3590   40.1300 H   0  0  0  0  0  0  0  0  0  0  0  0
   45.0520   32.9700   43.0410 C   0  0  0  0  0  0  0  0  0  0  0  0
   45.5630   33.9200   42.1630 C   0  0  0  0  0  0  0  0  0  0  0  0
   44.7120   34.4400   41.1640 C   0  0  0  0  0  0  0  0  0  0  0  0
   43.4220   33.9930   41.1000 N   0  0  0  0  0  0  0  0  0  0  0  0
   42.9770   33.0580   41.9900 C   0  0  0  0  0  0  0  0  0  0  0  0
   43.7810   32.5420   42.9610 N   0  0  0  0  0  0  0  0  0  0  0  0
   40.9550   32.8930   40.6640 C   0  0  0  0  0  0  0  0  0  0  0  0
   41.4630   33.5090   39.6880 O   0  0  0  0  0  0  0  0  0  0  0  0
   41.6290   32.6010   41.9030 N   0  0  0  0  0  0  0  0  0  0  0  0
   45.7850   32.6370   43.7630 H   0  0  0  0  0  0  0  0  0  0  0  0
   46.5480   34.3310   42.1330 H   0  0  0  0  0  0  0  0  0  0  0  0
   44.9270   35.1700   40.4100 H   0  0  0  0  0  0  0  0  0  0  0  0
   41.1700   32.0960   42.6650 H   0  0  0  0  0  0  0  0  0  0  0  0
   37.3540   29.7840   41.7850 C   0  0  0  0  0  3  0  0  0  0  0  0
   38.0550   29.2850   42.7770 C   0  0  0  0  0  3  0  0  0  0  0  0
   37.7550   28.0990   43.6190 C   0  0  0  0  0  0  0  0  0  0  0  0
   36.7580   27.7290   43.3720 H   0  0  0  0  0  0  0  0  0  0  0  0
   37.7190   28.4620   44.6780 H   0  0  0  0  0  0  0  0  0  0  0  0
   38.2720   25.9150   42.8080 C   0  0  0  0  0  0  0  0  0  0  0  0
   38.7930   27.0410   43.4590 C   0  0  0  0  0  0  0  0  0  0  0  0
   40.1160   27.0410   43.8470 C   0  0  0  0  0  0  0  0  0  0  0  0
   40.4030   27.9590   44.3380 H   0  0  0  0  0  0  0  0  0  0  0  0
   40.9090   25.9420   43.5930 C   0  0  0  0  0  3  0  0  0  0  0  0
   40.4010   24.8190   42.9460 C   0  0  0  0  0  3  0  0  0  0  0  0
   39.0930   24.8310   42.5680 C   0  0  0  0  0  0  0  0  0  0  0  0
   36.9480   25.7820   42.3610 O   0  0  0  0  0  0  0  0  0  0  0  0
   36.1830   25.8490   43.0360 H   0  0  0  0  0  0  0  0  0  0  0  0
   38.6160   23.6910   41.9240 O   0  0  0  0  0  0  0  0  0  0  0  0
   37.9020   23.0890   42.3130 H   0  0  0  0  0  0  0  0  0  0  0  0
  1 16  1  0  0  0  0
  1  6  1  0  0  0  0
  2  1  2  0  0  0  0
  3  2  1  0  0  0  0
  3  4  2  0  0  0  0
  4  5  1  0  0  0  0
  5  6  2  0  0  0  0
  5 23  1  0  0  0  0
  7  2  1  0  0  0  0
  8  3  1  0  0  0  0
  9  4  1  0  0  0  0
 10 19  1  0  0  0  0
 11 10  2  0  0  0  0
 12 11  1  0  0  0  0
 13 12  2  0  0  0  0
 13 14  1  0  0  0  0
 14 15  2  0  0  0  0
 15 10  1  0  0  0  0
 16 18  1  0  0  0  0
 17 16  2  0  0  0  0
 18 14  1  0  0  0  0
 18 22  1  0  0  0  0
 20 11  1  0  0  0  0
 21 12  1  0  0  0  0
 23 24  2  0  0  0  0
 24 25  1  0  0  0  0
 25 27  1  0  0  0  0
 26 25  1  0  0  0  0
 28 29  1  0  0  0  0
 29 25  1  0  0  0  0
 29 30  2  0  0  0  0
 30 31  1  0  0  0  0
 32 30  1  0  0  0  0
 33 32  2  0  0  0  0
 34 28  2  0  0  0  0
 34 33  1  0  0  0  0
 35 28  1  0  0  0  0
 35 36  1  0  0  0  0
 37 38  1  0  0  0  0
 37 34  1  0  0  0  0
M  END
>  <minimizedAffinity>
-6.72820139

$$$$

 OpenBabel03242510583D

 38 40  0  0  0  0  0  0  0  0999 V2000
   39.6970   25.6260   42.2840 C   0  0  0  0  0  0  0  0  0  0  0  0
   39.1180   24.3390   42.2980 C   0  0  0  0  0  0  0  0  0  0  0  0
   37.7860   24.1140   42.0410 C   0  0  0  0  0  0  0  0  0  0  0  0
   36.9960   25.1990   41.7570 C   0  0  0  0  0  0  0  0  0  0  0  0
   37.5720   26.4760   41.7420 C   0  0  0  0  0  0  0  0  0  0  0  0
   38.8670   26.6240   42.0000 N   0  0  0  0  0  0  0  0  0  0  0  0
   39.7820   23.5160   42.5280 H   0  0  0  0  0  0  0  0  0  0  0  0
   37.3980   23.1020   42.0670 H   0  0  0  0  0  0  0  0  0  0  0  0
   35.9350   25.0100   41.5520 H   0  0  0  0  0  0  0  0  0  0  0  0
   44.9520   28.5510   42.7990 C   0  0  0  0  0  0  0  0  0  0  0  0
   45.7550   27.4460   43.0650 C   0  0  0  0  0  0  0  0  0  0  0  0
   45.1640   26.1650   43.0420 C   0  0  0  0  0  0  0  0  0  0  0  0
   43.8320   26.0580   42.7580 N   0  0  0  0  0  0  0  0  0  0  0  0
   43.0940   27.1790   42.5050 C   0  0  0  0  0  0  0  0  0  0  0  0
   43.6430   28.4260   42.5230 N   0  0  0  0  0  0  0  0  0  0  0  0
   41.1170   25.7800   42.5660 C   0  0  0  0  0  0  0  0  0  0  0  0
   41.7330   24.8140   43.0930 O   0  0  0  0  0  0  0  0  0  0  0  0
   41.7050   27.0470   42.2150 N   0  0  0  0  0  0  0  0  0  0  0  0
   45.5010   29.4820   42.8440 H   0  0  0  0  0  0  0  0  0  0  0  0
   46.7970   27.4270   43.2950 H   0  0  0  0  0  0  0  0  0  0  0  0
   45.6200   25.2110   43.2190 H   0  0  0  0  0  0  0  0  0  0  0  0
   41.1580   27.8000   41.7890 H   0  0  0  0  0  0  0  0  0  0  0  0
   36.7300   27.6110   41.4310 C   0  0  0  0  0  3  0  0  0  0  0  0
   36.2090   27.7450   40.2330 C   0  0  0  0  0  3  0  0  0  0  0  0
   35.3410   28.8330   39.7160 C   0  0  0  0  0  0  0  0  0  0  0  0
   34.6980   29.1910   40.5230 H   0  0  0  0  0  0  0  0  0  0  0  0
   34.6750   28.3680   38.9450 H   0  0  0  0  0  0  0  0  0  0  0  0
   36.2750   31.0090   40.0120 C   0  0  0  0  0  0  0  0  0  0  0  0
   36.1470   29.9370   39.1200 C   0  0  0  0  0  0  0  0  0  0  0  0
   36.7440   30.0190   37.8790 C   0  0  0  0  0  0  0  0  0  0  0  0
   36.5770   29.1360   37.2810 H   0  0  0  0  0  0  0  0  0  0  0  0
   37.4560   31.1470   37.5300 C   0  0  0  0  0  3  0  0  0  0  0  0
   37.5880   32.2180   38.4110 C   0  0  0  0  0  3  0  0  0  0  0  0
   36.9940   32.1240   39.6320 C   0  0  0  0  0  0  0  0  0  0  0  0
   35.7200   31.0570   41.3010 O   0  0  0  0  0  0  0  0  0  0  0  0
   34.7070   30.9760   41.4130 H   0  0  0  0  0  0  0  0  0  0  0  0
   37.1470   33.2140   40.4880 O   0  0  0  0  0  0  0  0  0  0  0  0
   36.3750   33.7930   40.7950 H   0  0  0  0  0  0  0  0  0  0  0  0
  1  2  1  0  0  0  0
  1 16  1  0  0  0  0
  2  7  1  0  0  0  0
  3  8  1  0  0  0  0
  3  2  2  0  0  0  0
  4  3  1  0  0  0  0
  5  4  2  0  0  0  0
  5  6  1  0  0  0  0
  6  1  2  0  0  0  0
  9  4  1  0  0  0  0
 10 19  1  0  0  0  0
 10 11  1  0  0  0  0
 11 20  1  0  0  0  0
 12 11  2  0  0  0  0
 12 21  1  0  0  0  0
 13 12  1  0  0  0  0
 14 15  1  0  0  0  0
 14 13  2  0  0  0  0
 15 10  2  0  0  0  0
 16 17  2  0  0  0  0
 18 14  1  0  0  0  0
 18 16  1  0  0  0  0
 22 18  1  0  0  0  0
 23  5  1  0  0  0  0
 24 23  2  0  0  0  0
 25 24  1  0  0  0  0
 25 26  1  0  0  0  0
 27 25  1  0  0  0  0
 28 35  1  0  0  0  0
 29 25  1  0  0  0  0
 29 28  2  0  0  0  0
 30 29  1  0  0  0  0
 31 30  1  0  0  0  0
 32 30  2  0  0  0  0
 32 33  1  0  0  0  0
 33 34  2  0  0  0  0
 34 28  1  0  0  0  0
 34 37  1  0  0  0  0
 35 36  1  0  0  0  0
 37 38  1  0  0  0  0
M  END
>  <minimizedAffinity>
-6.57080698

$$$$

 OpenBabel03242510583D

 38 40  0  0  0  0  0  0  0  0999 V2000
   39.7040   31.8120   39.2640 C   0  0  0  0  0  0  0  0  0  0  0  0
   38.9540   32.9880   39.4790 C   0  0  0  0  0  0  0  0  0  0  0  0
   37.7210   32.9890   40.0870 C   0  0  0  0  0  0  0  0  0  0  0  0
   37.2090   31.7850   40.5010 C   0  0  0  0  0  0  0  0  0  0  0  0
   37.9550   30.6190   40.2870 C   0  0  0  0  0  0  0  0  0  0  0  0
   39.1410   30.6870   39.6920 N   0  0  0  0  0  0  0  0  0  0  0  0
   39.4000   33.9120   39.1340 H   0  0  0  0  0  0  0  0  0  0  0  0
   37.1910   33.9250   40.2250 H   0  0  0  0  0  0  0  0  0  0  0  0
   36.2250   31.7960   40.9850 H   0  0  0  0  0  0  0  0  0  0  0  0
   44.0620   30.2570   35.3880 C   0  0  0  0  0  0  0  0  0  0  0  0
   45.0470   31.1200   35.8580 C   0  0  0  0  0  0  0  0  0  0  0  0
   44.7640   31.9070   36.9950 C   0  0  0  0  0  0  0  0  0  0  0  0
   43.5380   31.7910   37.5880 N   0  0  0  0  0  0  0  0  0  0  0  0
   42.6110   30.9260   37.0810 C   0  0  0  0  0  0  0  0  0  0  0  0
   42.8630   30.1570   35.9840 N   0  0  0  0  0  0  0  0  0  0  0  0
   41.0030   31.8960   38.6120 C   0  0  0  0  0  0  0  0  0  0  0  0
   41.7420   32.8850   38.8700 O   0  0  0  0  0  0  0  0  0  0  0  0
   41.3370   30.8230   37.7120 N   0  0  0  0  0  0  0  0  0  0  0  0
   44.3800   29.7040   34.5140 H   0  0  0  0  0  0  0  0  0  0  0  0
   46.0270   31.2810   35.4670 H   0  0  0  0  0  0  0  0  0  0  0  0
   45.3920   32.6180   37.4940 H   0  0  0  0  0  0  0  0  0  0  0  0
   40.7000   30.0420   37.5380 H   0  0  0  0  0  0  0  0  0  0  0  0
   37.4080   29.3560   40.7360 C   0  0  0  0  0  3  0  0  0  0  0  0
   37.4050   29.0490   42.0120 C   0  0  0  0  0  3  0  0  0  0  0  0
   36.9100   27.8110   42.6670 C   0  0  0  0  0  0  0  0  0  0  0  0
   36.1460   27.3550   42.0350 H   0  0  0  0  0  0  0  0  0  0  0  0
   36.4060   28.1330   43.6140 H   0  0  0  0  0  0  0  0  0  0  0  0
   37.8270   25.6370   42.3150 C   0  0  0  0  0  0  0  0  0  0  0  0
   38.0250   26.8650   42.9580 C   0  0  0  0  0  0  0  0  0  0  0  0
   39.1530   27.0460   43.7310 C   0  0  0  0  0  0  0  0  0  0  0  0
   39.1970   28.0300   44.1750 H   0  0  0  0  0  0  0  0  0  0  0  0
   40.0700   26.0240   43.8630 C   0  0  0  0  0  3  0  0  0  0  0  0
   39.8820   24.8000   43.2270 C   0  0  0  0  0  3  0  0  0  0  0  0
   38.7640   24.6340   42.4680 C   0  0  0  0  0  0  0  0  0  0  0  0
   36.7270   25.3190   41.5030 O   0  0  0  0  0  0  0  0  0  0  0  0
   35.7860   25.3580   41.8980 H   0  0  0  0  0  0  0  0  0  0  0  0
   38.6080   23.3960   41.8460 O   0  0  0  0  0  0  0  0  0  0  0  0
   37.8560   22.7540   42.0650 H   0  0  0  0  0  0  0  0  0  0  0  0
  1  2  2  0  0  0  0
  1  6  1  0  0  0  0
  2  3  1  0  0  0  0
  3  8  1  0  0  0  0
  3  4  2  0  0  0  0
  4  9  1  0  0  0  0
  5  4  1  0  0  0  0
  5 23  1  0  0  0  0
  6  5  2  0  0  0  0
  7  2  1  0  0  0  0
 10 11  2  0  0  0  0
 10 15  1  0  0  0  0
 11 12  1  0  0  0  0
 12 21  1  0  0  0  0
 12 13  2  0  0  0  0
 14 13  1  0  0  0  0
 14 18  1  0  0  0  0
 15 14  2  0  0  0  0
 16 17  2  0  0  0  0
 16  1  1  0  0  0  0
 18 16  1  0  0  0  0
 19 10  1  0  0  0  0
 20 11  1  0  0  0  0
 22 18  1  0  0  0  0
 23 24  2  0  0  0  0
 24 25  1  0  0  0  0
 25 29  1  0  0  0  0
 25 27  1  0  0  0  0
 26 25  1  0  0  0  0
 28 34  2  0  0  0  0
 28 29  1  0  0  0  0
 29 30  2  0  0  0  0
 30 32  1  0  0  0  0
 30 31  1  0  0  0  0
 33 32  2  0  0  0  0
 34 33  1  0  0  0  0
 35 36  1  0  0  0  0
 35 28  1  0  0  0  0
 37 38  1  0  0  0  0
 37 34  1  0  0  0  0
M  END
>  <minimizedAffinity>
-6.45841503

$$$$

 OpenBabel03242510583D

 38 40  0  0  0  0  0  0  0  0999 V2000
   37.7250   30.1320   37.5210 C   0  0  0  0  0  0  0  0  0  0  0  0
   38.3240   28.9970   36.9330 C   0  0  0  0  0  0  0  0  0  0  0  0
   37.6040   27.9040   36.5120 C   0  0  0  0  0  0  0  0  0  0  0  0
   36.2410   27.9320   36.6760 C   0  0  0  0  0  0  0  0  0  0  0  0
   35.6490   29.0590   37.2590 C   0  0  0  0  0  0  0  0  0  0  0  0
   36.4030   30.0830   37.6450 N   0  0  0  0  0  0  0  0  0  0  0  0
   39.4000   29.0230   36.8260 H   0  0  0  0  0  0  0  0  0  0  0  0
   38.1190   27.0600   36.0680 H   0  0  0  0  0  0  0  0  0  0  0  0
   35.6750   27.0560   36.3370 H   0  0  0  0  0  0  0  0  0  0  0  0
   42.5350   33.7790   37.4550 C   0  0  0  0  0  0  0  0  0  0  0  0
   42.2110   34.5340   38.5780 C   0  0  0  0  0  0  0  0  0  0  0  0
   41.0600   34.1840   39.3140 C   0  0  0  0  0  0  0  0  0  0  0  0
   40.3100   33.1200   38.8990 N   0  0  0  0  0  0  0  0  0  0  0  0
   40.6780   32.4150   37.7890 C   0  0  0  0  0  0  0  0  0  0  0  0
   41.7850   32.7360   37.0620 N   0  0  0  0  0  0  0  0  0  0  0  0
   38.5580   31.2500   37.9390 C   0  0  0  0  0  0  0  0  0  0  0  0
   38.0810   32.0820   38.7580 O   0  0  0  0  0  0  0  0  0  0  0  0
   39.8800   31.3110   37.3700 N   0  0  0  0  0  0  0  0  0  0  0  0
   43.4310   34.1310   36.9640 H   0  0  0  0  0  0  0  0  0  0  0  0
   42.7300   35.3770   38.9790 H   0  0  0  0  0  0  0  0  0  0  0  0
   40.6600   34.6450   40.1960 H   0  0  0  0  0  0  0  0  0  0  0  0
   40.2190   30.6080   36.7080 H   0  0  0  0  0  0  0  0  0  0  0  0
   34.2100   29.0810   37.4180 C   0  0  0  0  0  3  0  0  0  0  0  0
   33.4290   28.6200   36.4670 C   0  0  0  0  0  3  0  0  0  0  0  0
   31.9460   28.5680   36.4310 C   0  0  0  0  0  0  0  0  0  0  0  0
   31.5840   28.0740   37.3350 H   0  0  0  0  0  0  0  0  0  0  0  0
   31.6730   27.9110   35.5650 H   0  0  0  0  0  0  0  0  0  0  0  0
   30.7850   30.3770   37.4650 C   0  0  0  0  0  0  0  0  0  0  0  0
   31.3560   29.9270   36.2680 C   0  0  0  0  0  0  0  0  0  0  0  0
   31.3120   30.7400   35.1550 C   0  0  0  0  0  0  0  0  0  0  0  0
   31.7820   30.2870   34.2940 H   0  0  0  0  0  0  0  0  0  0  0  0
   30.7110   31.9780   35.2280 C   0  0  0  0  0  3  0  0  0  0  0  0
   30.1420   32.4350   36.4140 C   0  0  0  0  0  3  0  0  0  0  0  0
   30.1910   31.6230   37.5060 C   0  0  0  0  0  0  0  0  0  0  0  0
   30.7590   29.6550   38.6690 O   0  0  0  0  0  0  0  0  0  0  0  0
   30.2980   28.7430   38.6950 H   0  0  0  0  0  0  0  0  0  0  0  0
   29.6110   32.1110   38.6760 O   0  0  0  0  0  0  0  0  0  0  0  0
   28.8020   31.6890   39.1140 H   0  0  0  0  0  0  0  0  0  0  0  0
  1  6  1  0  0  0  0
  1 16  1  0  0  0  0
  2  1  2  0  0  0  0
  3  4  2  0  0  0  0
  3  2  1  0  0  0  0
  4  5  1  0  0  0  0
  5 23  1  0  0  0  0
  5  6  2  0  0  0  0
  7  2  1  0  0  0  0
  8  3  1  0  0  0  0
  9  4  1  0  0  0  0
 10 11  1  0  0  0  0
 11 20  1  0  0  0  0
 11 12  2  0  0  0  0
 12 21  1  0  0  0  0
 13 12  1  0  0  0  0
 14 13  2  0  0  0  0
 15 10  2  0  0  0  0
 15 14  1  0  0  0  0
 16 17  2  0  0  0  0
 18 14  1  0  0  0  0
 18 16  1  0  0  0  0
 19 10  1  0  0  0  0
 22 18  1  0  0  0  0
 24 23  2  0  0  0  0
 25 24  1  0  0  0  0
 25 26  1  0  0  0  0
 27 25  1  0  0  0  0
 28 34  1  0  0  0  0
 28 35  1  0  0  0  0
 29 25  1  0  0  0  0
 29 28  2  0  0  0  0
 30 32  2  0  0  0  0
 30 29  1  0  0  0  0
 31 30  1  0  0  0  0
 32 33  1  0  0  0  0
 33 34  2  0  0  0  0
 34 37  1  0  0  0  0
 35 36  1  0  0  0  0
 37 38  1  0  0  0  0
M  END
>  <minimizedAffinity>
-6.42006159

$$$$

 OpenBabel03242510583D

 38 40  0  0  0  0  0  0  0  0999 V2000
   37.6800   28.8510   39.3780 C   0  0  0  0  0  0  0  0  0  0  0  0
   38.2810   29.6830   38.4110 C   0  0  0  0  0  0  0  0  0  0  0  0
   37.5870   30.2310   37.3570 C   0  0  0  0  0  0  0  0  0  0  0  0
   36.2480   29.9470   37.2560 C   0  0  0  0  0  0  0  0  0  0  0  0
   35.6520   29.1210   38.2180 C   0  0  0  0  0  0  0  0  0  0  0  0
   36.3810   28.6230   39.2110 N   0  0  0  0  0  0  0  0  0  0  0  0
   39.3390   29.8770   38.5340 H   0  0  0  0  0  0  0  0  0  0  0  0
   38.1030   30.8630   36.6450 H   0  0  0  0  0  0  0  0  0  0  0  0
   35.7020   30.3890   36.4130 H   0  0  0  0  0  0  0  0  0  0  0  0
   39.9730   24.5780   42.9730 C   0  0  0  0  0  0  0  0  0  0  0  0
   40.6280   25.4180   43.8670 C   0  0  0  0  0  0  0  0  0  0  0  0
   40.4840   26.8130   43.7080 C   0  0  0  0  0  0  0  0  0  0  0  0
   39.7080   27.2830   42.6860 N   0  0  0  0  0  0  0  0  0  0  0  0
   39.0890   26.4090   41.8390 C   0  0  0  0  0  0  0  0  0  0  0  0
   39.2140   25.0580   41.9740 N   0  0  0  0  0  0  0  0  0  0  0  0
   38.4860   28.3110   40.4640 C   0  0  0  0  0  0  0  0  0  0  0  0
   39.2940   29.0800   41.0530 O   0  0  0  0  0  0  0  0  0  0  0  0
   38.2870   26.9190   40.7760 N   0  0  0  0  0  0  0  0  0  0  0  0
   40.1500   23.5320   43.1830 H   0  0  0  0  0  0  0  0  0  0  0  0
   41.2510   25.1500   44.6910 H   0  0  0  0  0  0  0  0  0  0  0  0
   40.9080   27.6050   44.2930 H   0  0  0  0  0  0  0  0  0  0  0  0
   37.6170   26.3380   40.2660 H   0  0  0  0  0  0  0  0  0  0  0  0
   34.2370   28.8370   38.1050 C   0  0  0  0  0  3  0  0  0  0  0  0
   33.6270   28.9480   36.9480 C   0  0  0  0  0  3  0  0  0  0  0  0
   32.1950   28.7190   36.6290 C   0  0  0  0  0  0  0  0  0  0  0  0
   31.7470   28.1100   37.4160 H   0  0  0  0  0  0  0  0  0  0  0  0
   32.1730   28.1110   35.6890 H   0  0  0  0  0  0  0  0  0  0  0  0
   30.8060   30.3880   37.6170 C   0  0  0  0  0  0  0  0  0  0  0  0
   31.4660   30.0060   36.4430 C   0  0  0  0  0  0  0  0  0  0  0  0
   31.3730   30.8110   35.3260 C   0  0  0  0  0  0  0  0  0  0  0  0
   31.9210   30.4140   34.4840 H   0  0  0  0  0  0  0  0  0  0  0  0
   30.6380   31.9760   35.3760 C   0  0  0  0  0  3  0  0  0  0  0  0
   29.9790   32.3650   36.5390 C   0  0  0  0  0  3  0  0  0  0  0  0
   30.0780   31.5620   37.6340 C   0  0  0  0  0  0  0  0  0  0  0  0
   30.8160   29.6650   38.8210 O   0  0  0  0  0  0  0  0  0  0  0  0
   30.4570   28.7080   38.8320 H   0  0  0  0  0  0  0  0  0  0  0  0
   29.4060   31.9810   38.7810 O   0  0  0  0  0  0  0  0  0  0  0  0
   28.6320   31.4720   39.1900 H   0  0  0  0  0  0  0  0  0  0  0  0
  1 16  1  0  0  0  0
  2  7  1  0  0  0  0
  2  1  2  0  0  0  0
  3  2  1  0  0  0  0
  4  3  2  0  0  0  0
  4  5  1  0  0  0  0
  5  6  2  0  0  0  0
  6  1  1  0  0  0  0
  8  3  1  0  0  0  0
  9  4  1  0  0  0  0
 10 19  1  0  0  0  0
 10 11  1  0  0  0  0
 11 20  1  0  0  0  0
 12 11  2  0  0  0  0
 12 21  1  0  0  0  0
 13 12  1  0  0  0  0
 14 15  1  0  0  0  0
 14 13  2  0  0  0  0
 15 10  2  0  0  0  0
 16 18  1  0  0  0  0
 16 17  2  0  0  0  0
 18 14  1  0  0  0  0
 22 18  1  0  0  0  0
 23  5  1  0  0  0  0
 24 23  2  0  0  0  0
 25 24  1  0  0  0  0
 25 26  1  0  0  0  0
 27 25  1  0  0  0  0
 28 34  1  0  0  0  0
 28 35  1  0  0  0  0
 29 25  1  0  0  0  0
 29 28  2  0  0  0  0
 30 32  2  0  0  0  0
 30 29  1  0  0  0  0
 31 30  1  0  0  0  0
 32 33  1  0  0  0  0
 33 34  2  0  0  0  0
 34 37  1  0  0  0  0
 35 36  1  0  0  0  0
 37 38  1  0  0  0  0
M  END
>  <minimizedAffinity>
-6.35821342

$$$$

 OpenBabel03242510583D

 38 40  0  0  0  0  0  0  0  0999 V2000
   40.3500   33.0140   39.0150 C   0  0  0  0  0  0  0  0  0  0  0  0
   40.1070   34.2270   39.6930 C   0  0  0  0  0  0  0  0  0  0  0  0
   38.8950   34.5360   40.2650 C   0  0  0  0  0  0  0  0  0  0  0  0
   37.8850   33.6120   40.1650 C   0  0  0  0  0  0  0  0  0  0  0  0
   38.1280   32.4080   39.4920 C   0  0  0  0  0  0  0  0  0  0  0  0
   39.3230   32.1720   38.9610 N   0  0  0  0  0  0  0  0  0  0  0  0
   40.9350   34.9220   39.7440 H   0  0  0  0  0  0  0  0  0  0  0  0
   38.7680   35.4850   40.7730 H   0  0  0  0  0  0  0  0  0  0  0  0
   36.9220   33.8670   40.6250 H   0  0  0  0  0  0  0  0  0  0  0  0
   44.3810   30.3870   35.3690 C   0  0  0  0  0  0  0  0  0  0  0  0
   45.5240   30.9740   35.9020 C   0  0  0  0  0  0  0  0  0  0  0  0
   45.3870   31.8110   37.0300 C   0  0  0  0  0  0  0  0  0  0  0  0
   44.1410   32.0120   37.5530 N   0  0  0  0  0  0  0  0  0  0  0  0
   43.0550   31.4100   36.9870 C   0  0  0  0  0  0  0  0  0  0  0  0
   43.1640   30.5980   35.8970 N   0  0  0  0  0  0  0  0  0  0  0  0
   41.6620   32.7620   38.4370 C   0  0  0  0  0  0  0  0  0  0  0  0
   42.6120   33.5320   38.7450 O   0  0  0  0  0  0  0  0  0  0  0  0
   41.7630   31.6360   37.5450 N   0  0  0  0  0  0  0  0  0  0  0  0
   44.5960   29.7680   34.5090 H   0  0  0  0  0  0  0  0  0  0  0  0
   46.5330   30.8780   35.5680 H   0  0  0  0  0  0  0  0  0  0  0  0
   46.1460   32.3410   37.5710 H   0  0  0  0  0  0  0  0  0  0  0  0
   40.9590   31.0420   37.3280 H   0  0  0  0  0  0  0  0  0  0  0  0
   37.0570   31.4380   39.4010 C   0  0  0  0  0  3  0  0  0  0  0  0
   36.5450   30.9100   40.4890 C   0  0  0  0  0  3  0  0  0  0  0  0
   35.4640   29.8980   40.6080 C   0  0  0  0  0  0  0  0  0  0  0  0
   34.6420   30.1760   39.9460 H   0  0  0  0  0  0  0  0  0  0  0  0
   35.0800   29.9670   41.6580 H   0  0  0  0  0  0  0  0  0  0  0  0
   36.4590   27.9120   41.4780 C   0  0  0  0  0  0  0  0  0  0  0  0
   35.9680   28.5260   40.3190 C   0  0  0  0  0  0  0  0  0  0  0  0
   36.0030   27.8340   39.1250 C   0  0  0  0  0  0  0  0  0  0  0  0
   35.5990   28.4080   38.3040 H   0  0  0  0  0  0  0  0  0  0  0  0
   36.5160   26.5550   39.0840 C   0  0  0  0  0  3  0  0  0  0  0  0
   37.0060   25.9370   40.2310 C   0  0  0  0  0  3  0  0  0  0  0  0
   36.9670   26.6300   41.4020 C   0  0  0  0  0  0  0  0  0  0  0  0
   36.4850   28.4990   42.7530 O   0  0  0  0  0  0  0  0  0  0  0  0
   37.0040   29.3680   42.8930 H   0  0  0  0  0  0  0  0  0  0  0  0
   37.4660   25.9810   42.5310 O   0  0  0  0  0  0  0  0  0  0  0  0
   38.2830   26.2960   43.0380 H   0  0  0  0  0  0  0  0  0  0  0  0
  1  2  1  0  0  0  0
  2  7  1  0  0  0  0
  2  3  2  0  0  0  0
  3  8  1  0  0  0  0
  4  3  1  0  0  0  0
  4  9  1  0  0  0  0
  5  4  2  0  0  0  0
  6  1  2  0  0  0  0
  6  5  1  0  0  0  0
 10 15  2  0  0  0  0
 10 11  1  0  0  0  0
 11 12  2  0  0  0  0
 12 13  1  0  0  0  0
 12 21  1  0  0  0  0
 14 18  1  0  0  0  0
 14 13  2  0  0  0  0
 15 14  1  0  0  0  0
 16 17  2  0  0  0  0
 16  1  1  0  0  0  0
 18 16  1  0  0  0  0
 19 10  1  0  0  0  0
 20 11  1  0  0  0  0
 22 18  1  0  0  0  0
 23  5  1  0  0  0  0
 23 24  2  0  0  0  0
 24 25  1  0  0  0  0
 25 27  1  0  0  0  0
 26 25  1  0  0  0  0
 28 35  1  0  0  0  0
 29 25  1  0  0  0  0
 29 28  2  0  0  0  0
 30 29  1  0  0  0  0
 31 30  1  0  0  0  0
 32 30  2  0  0  0  0
 32 33  1  0  0  0  0
 33 34  2  0  0  0  0
 34 28  1  0  0  0  0
 34 37  1  0  0  0  0
 35 36  1  0  0  0  0
 37 38  1  0  0  0  0
M  END
>  <minimizedAffinity>
-6.35246944

$$$$

 OpenBabel03242510583D

 38 40  0  0  0  0  0  0  0  0999 V2000
   37.8860   26.9990   41.7450 C   0  0  0  0  0  0  0  0  0  0  0  0
   37.8840   27.3040   43.1220 C   0  0  0  0  0  0  0  0  0  0  0  0
   37.7760   28.5870   43.6060 C   0  0  0  0  0  0  0  0  0  0  0  0
   37.6640   29.6080   42.6950 C   0  0  0  0  0  0  0  0  0  0  0  0
   37.6660   29.3030   41.3270 C   0  0  0  0  0  0  0  0  0  0  0  0
   37.7740   28.0410   40.9270 N   0  0  0  0  0  0  0  0  0  0  0  0
   37.9750   26.4650   43.8000 H   0  0  0  0  0  0  0  0  0  0  0  0
   37.7800   28.7600   44.6760 H   0  0  0  0  0  0  0  0  0  0  0  0
   37.5780   30.6280   43.0890 H   0  0  0  0  0  0  0  0  0  0  0  0
   39.8200   22.4070   38.3370 C   0  0  0  0  0  0  0  0  0  0  0  0
   39.0270   21.4110   38.8990 C   0  0  0  0  0  0  0  0  0  0  0  0
   38.0920   21.7760   39.8910 C   0  0  0  0  0  0  0  0  0  0  0  0
   38.0000   23.0890   40.2580 N   0  0  0  0  0  0  0  0  0  0  0  0
   38.8050   24.0230   39.6710 C   0  0  0  0  0  0  0  0  0  0  0  0
   39.7150   23.6930   38.7120 N   0  0  0  0  0  0  0  0  0  0  0  0
   38.0040   25.6130   41.3140 C   0  0  0  0  0  0  0  0  0  0  0  0
   37.5030   24.7130   42.0420 O   0  0  0  0  0  0  0  0  0  0  0  0
   38.6960   25.3860   40.0720 N   0  0  0  0  0  0  0  0  0  0  0  0
   40.5010   22.0220   37.5910 H   0  0  0  0  0  0  0  0  0  0  0  0
   39.0250   20.3670   38.6800 H   0  0  0  0  0  0  0  0  0  0  0  0
   37.4050   21.1540   40.4280 H   0  0  0  0  0  0  0  0  0  0  0  0
   39.0850   26.1540   39.5190 H   0  0  0  0  0  0  0  0  0  0  0  0
   37.5390   30.3880   40.3770 C   0  0  0  0  0  3  0  0  0  0  0  0
   38.5640   31.1640   40.1130 C   0  0  0  0  0  3  0  0  0  0  0  0
   38.6340   32.3260   39.1920 C   0  0  0  0  0  0  0  0  0  0  0  0
   37.8090   33.0060   39.4120 H   0  0  0  0  0  0  0  0  0  0  0  0
   38.4640   31.9240   38.1600 H   0  0  0  0  0  0  0  0  0  0  0  0
   40.5740   33.0810   38.0260 C   0  0  0  0  0  0  0  0  0  0  0  0
   39.9540   33.0130   39.2800 C   0  0  0  0  0  0  0  0  0  0  0  0
   40.5930   33.5560   40.3750 C   0  0  0  0  0  0  0  0  0  0  0  0
   40.0200   33.4440   41.2850 H   0  0  0  0  0  0  0  0  0  0  0  0
   41.8250   34.1560   40.2280 C   0  0  0  0  0  3  0  0  0  0  0  0
   42.4490   34.2280   38.9860 C   0  0  0  0  0  3  0  0  0  0  0  0
   41.8090   33.6880   37.9120 C   0  0  0  0  0  0  0  0  0  0  0  0
   40.0390   32.5700   36.8320 O   0  0  0  0  0  0  0  0  0  0  0  0
   39.8260   31.5730   36.7660 H   0  0  0  0  0  0  0  0  0  0  0  0
   42.4620   33.7770   36.6840 O   0  0  0  0  0  0  0  0  0  0  0  0
   42.7900   32.9710   36.1680 H   0  0  0  0  0  0  0  0  0  0  0  0
  1  2  1  0  0  0  0
  2  3  2  0  0  0  0
  2  7  1  0  0  0  0
  3  8  1  0  0  0  0
  4  9  1  0  0  0  0
  4  3  1  0  0  0  0
  5  4  2  0  0  0  0
  6  5  1  0  0  0  0
  6  1  2  0  0  0  0
 10 15  2  0  0  0  0
 10 11  1  0  0  0  0
 11 12  2  0  0  0  0
 12 13  1  0  0  0  0
 12 21  1  0  0  0  0
 14 18  1  0  0  0  0
 14 13  2  0  0  0  0
 15 14  1  0  0  0  0
 16  1  1  0  0  0  0
 16 17  2  0  0  0  0
 18 16  1  0  0  0  0
 19 10  1  0  0  0  0
 20 11  1  0  0  0  0
 22 18  1  0  0  0  0
 23  5  1  0  0  0  0
 24 23  2  0  0  0  0
 25 29  1  0  0  0  0
 25 26  1  0  0  0  0
 25 24  1  0  0  0  0
 27 25  1  0  0  0  0
 28 29  1  0  0  0  0
 29 30  2  0  0  0  0
 30 31  1  0  0  0  0
 32 30  1  0  0  0  0
 33 32  2  0  0  0  0
 34 28  2  0  0  0  0
 34 33  1  0  0  0  0
 35 28  1  0  0  0  0
 36 35  1  0  0  0  0
 37 34  1  0  0  0  0
 38 37  1  0  0  0  0
M  END
>  <minimizedAffinity>
-6.20304441

$$$$

 OpenBabel03242510583D

 38 40  0  0  0  0  0  0  0  0999 V2000
   38.2260   25.1680   41.7900 C   0  0  0  0  0  0  0  0  0  0  0  0
   39.1260   24.3950   42.5540 C   0  0  0  0  0  0  0  0  0  0  0  0
   39.9620   24.9380   43.5020 C   0  0  0  0  0  0  0  0  0  0  0  0
   39.9040   26.2940   43.7060 C   0  0  0  0  0  0  0  0  0  0  0  0
   39.0090   27.0590   42.9480 C   0  0  0  0  0  0  0  0  0  0  0  0
   38.2290   26.4720   42.0460 N   0  0  0  0  0  0  0  0  0  0  0  0
   39.1340   23.3310   42.3550 H   0  0  0  0  0  0  0  0  0  0  0  0
   40.6330   24.2930   44.0570 H   0  0  0  0  0  0  0  0  0  0  0  0
   40.5740   26.7180   44.4650 H   0  0  0  0  0  0  0  0  0  0  0  0
   34.6170   24.8120   36.9640 C   0  0  0  0  0  0  0  0  0  0  0  0
   34.2560   23.4760   37.1000 C   0  0  0  0  0  0  0  0  0  0  0  0
   34.7230   22.7640   38.2250 C   0  0  0  0  0  0  0  0  0  0  0  0
   35.5080   23.4130   39.1360 N   0  0  0  0  0  0  0  0  0  0  0  0
   35.8300   24.7260   38.9490 C   0  0  0  0  0  0  0  0  0  0  0  0
   35.3910   25.4330   37.8700 N   0  0  0  0  0  0  0  0  0  0  0  0
   37.3740   24.5160   40.8050 C   0  0  0  0  0  0  0  0  0  0  0  0
   37.3210   23.2560   40.7960 O   0  0  0  0  0  0  0  0  0  0  0  0
   36.6540   25.3840   39.9090 N   0  0  0  0  0  0  0  0  0  0  0  0
   34.2100   25.2620   36.0690 H   0  0  0  0  0  0  0  0  0  0  0  0
   33.6510   22.8850   36.4470 H   0  0  0  0  0  0  0  0  0  0  0  0
   34.5480   21.7410   38.4940 H   0  0  0  0  0  0  0  0  0  0  0  0
   36.7340   26.4030   39.9590 H   0  0  0  0  0  0  0  0  0  0  0  0
   38.9520   28.4870   43.1790 C   0  0  0  0  0  3  0  0  0  0  0  0
   39.5900   29.3150   42.3840 C   0  0  0  0  0  3  0  0  0  0  0  0
   39.6680   30.7960   42.4580 C   0  0  0  0  0  0  0  0  0  0  0  0
   40.7070   31.1050   42.3290 H   0  0  0  0  0  0  0  0  0  0  0  0
   39.3680   31.0770   43.5000 H   0  0  0  0  0  0  0  0  0  0  0  0
   39.3350   32.6210   40.9580 C   0  0  0  0  0  0  0  0  0  0  0  0
   38.7710   31.4400   41.4570 C   0  0  0  0  0  0  0  0  0  0  0  0
   37.5360   31.0360   40.9940 C   0  0  0  0  0  0  0  0  0  0  0  0
   37.2050   30.1150   41.4510 H   0  0  0  0  0  0  0  0  0  0  0  0
   36.8730   31.7920   40.0510 C   0  0  0  0  0  3  0  0  0  0  0  0
   37.4260   32.9670   39.5480 C   0  0  0  0  0  3  0  0  0  0  0  0
   38.6450   33.3550   40.0140 C   0  0  0  0  0  0  0  0  0  0  0  0
   40.5800   33.1460   41.3410 O   0  0  0  0  0  0  0  0  0  0  0  0
   40.7410   33.3850   42.3220 H   0  0  0  0  0  0  0  0  0  0  0  0
   39.1680   34.5360   39.4900 O   0  0  0  0  0  0  0  0  0  0  0  0
   39.3320   35.3660   40.0440 H   0  0  0  0  0  0  0  0  0  0  0  0
  1  6  2  0  0  0  0
  1  2  1  0  0  0  0
  2  3  2  0  0  0  0
  3  4  1  0  0  0  0
  3  8  1  0  0  0  0
  4  9  1  0  0  0  0
  5 23  1  0  0  0  0
  5  4  2  0  0  0  0
  6  5  1  0  0  0  0
  7  2  1  0  0  0  0
 10 11  2  0  0  0  0
 10 15  1  0  0  0  0
 11 12  1  0  0  0  0
 12 21  1  0  0  0  0
 12 13  2  0  0  0  0
 14 13  1  0  0  0  0
 14 18  1  0  0  0  0
 15 14  2  0  0  0  0
 16  1  1  0  0  0  0
 17 16  2  0  0  0  0
 18 22  1  0  0  0  0
 18 16  1  0  0  0  0
 19 10  1  0  0  0  0
 20 11  1  0  0  0  0
 24 25  1  0  0  0  0
 24 23  2  0  0  0  0
 25 27  1  0  0  0  0
 26 25  1  0  0  0  0
 28 35  1  0  0  0  0
 28 29  1  0  0  0  0
 29 25  1  0  0  0  0
 30 31  1  0  0  0  0
 30 29  2  0  0  0  0
 32 30  1  0  0  0  0
 33 34  1  0  0  0  0
 33 32  2  0  0  0  0
 34 28  2  0  0  0  0
 35 36  1  0  0  0  0
 37 34  1  0  0  0  0
 37 38  1  0  0  0  0
M  END
>  <minimizedAffinity>
-6.19829559

$$$$

 OpenBabel03242510583D

 38 40  0  0  0  0  0  0  0  0999 V2000
   38.0980   29.5240   39.7520 C   0  0  0  0  0  0  0  0  0  0  0  0
   36.8040   29.9450   39.3770 C   0  0  0  0  0  0  0  0  0  0  0  0
   36.5580   31.1450   38.7520 C   0  0  0  0  0  0  0  0  0  0  0  0
   37.6300   31.9610   38.4860 C   0  0  0  0  0  0  0  0  0  0  0  0
   38.9130   31.5410   38.8590 C   0  0  0  0  0  0  0  0  0  0  0  0
   39.0820   30.3690   39.4600 N   0  0  0  0  0  0  0  0  0  0  0  0
   35.9930   29.2670   39.6090 H   0  0  0  0  0  0  0  0  0  0  0  0
   35.5420   31.4150   38.4880 H   0  0  0  0  0  0  0  0  0  0  0  0
   37.4240   32.9160   37.9880 H   0  0  0  0  0  0  0  0  0  0  0  0
   40.5550   25.5540   43.5770 C   0  0  0  0  0  0  0  0  0  0  0  0
   39.8680   24.4250   43.1420 C   0  0  0  0  0  0  0  0  0  0  0  0
   39.0010   24.5510   42.0350 C   0  0  0  0  0  0  0  0  0  0  0  0
   38.8730   25.7720   41.4350 N   0  0  0  0  0  0  0  0  0  0  0  0
   39.5740   26.8440   41.9060 C   0  0  0  0  0  0  0  0  0  0  0  0
   40.4160   26.7460   42.9740 N   0  0  0  0  0  0  0  0  0  0  0  0
   38.2740   28.2370   40.4090 C   0  0  0  0  0  0  0  0  0  0  0  0
   37.4250   27.3300   40.1910 O   0  0  0  0  0  0  0  0  0  0  0  0
   39.4220   28.1100   41.2690 N   0  0  0  0  0  0  0  0  0  0  0  0
   41.1890   25.3490   44.4290 H   0  0  0  0  0  0  0  0  0  0  0  0
   39.9010   23.4360   43.5410 H   0  0  0  0  0  0  0  0  0  0  0  0
   38.3970   23.8010   41.5650 H   0  0  0  0  0  0  0  0  0  0  0  0
   40.0810   28.8800   41.4120 H   0  0  0  0  0  0  0  0  0  0  0  0
   40.0360   32.4060   38.5650 C   0  0  0  0  0  3  0  0  0  0  0  0
   40.2240   33.5080   39.2530 C   0  0  0  0  0  3  0  0  0  0  0  0
   41.2940   34.5260   39.0990 C   0  0  0  0  0  0  0  0  0  0  0  0
   41.1820   35.2820   39.8780 H   0  0  0  0  0  0  0  0  0  0  0  0
   41.1100   35.0350   38.1180 H   0  0  0  0  0  0  0  0  0  0  0  0
   43.2580   33.9660   37.8640 C   0  0  0  0  0  0  0  0  0  0  0  0
   42.6480   33.9020   39.1230 C   0  0  0  0  0  0  0  0  0  0  0  0
   43.3260   33.3120   40.1700 C   0  0  0  0  0  0  0  0  0  0  0  0
   42.7570   33.3220   41.0880 H   0  0  0  0  0  0  0  0  0  0  0  0
   44.5880   32.7950   39.9700 C   0  0  0  0  0  3  0  0  0  0  0  0
   45.2020   32.8540   38.7220 C   0  0  0  0  0  3  0  0  0  0  0  0
   44.5230   33.4380   37.6970 C   0  0  0  0  0  0  0  0  0  0  0  0
   42.6830   34.5350   36.7170 O   0  0  0  0  0  0  0  0  0  0  0  0
   41.7990   34.1630   36.3630 H   0  0  0  0  0  0  0  0  0  0  0  0
   45.1670   33.4800   36.4610 O   0  0  0  0  0  0  0  0  0  0  0  0
   44.8320   32.9880   35.6420 H   0  0  0  0  0  0  0  0  0  0  0  0
  1 16  1  0  0  0  0
  2  7  1  0  0  0  0
  2  1  2  0  0  0  0
  3  2  1  0  0  0  0
  4  3  2  0  0  0  0
  4  5  1  0  0  0  0
  5  6  2  0  0  0  0
  6  1  1  0  0  0  0
  8  3  1  0  0  0  0
  9  4  1  0  0  0  0
 10 19  1  0  0  0  0
 11 20  1  0  0  0  0
 11 10  1  0  0  0  0
 12 11  2  0  0  0  0
 13 14  2  0  0  0  0
 13 12  1  0  0  0  0
 14 15  1  0  0  0  0
 15 10  2  0  0  0  0
 16 18  1  0  0  0  0
 17 16  2  0  0  0  0
 18 22  1  0  0  0  0
 18 14  1  0  0  0  0
 21 12  1  0  0  0  0
 23  5  1  0  0  0  0
 23 24  2  0  0  0  0
 25 29  1  0  0  0  0
 25 24  1  0  0  0  0
 25 26  1  0  0  0  0
 27 25  1  0  0  0  0
 28 29  1  0  0  0  0
 29 30  2  0  0  0  0
 30 31  1  0  0  0  0
 32 30  1  0  0  0  0
 33 32  2  0  0  0  0
 34 28  2  0  0  0  0
 34 33  1  0  0  0  0
 35 28  1  0  0  0  0
 36 35  1  0  0  0  0
 37 34  1  0  0  0  0
 38 37  1  0  0  0  0
M  END
>  <minimizedAffinity>
-6.190516

$$$$
