
 OpenBabel03252506353D

 35 37  0  0  1  0  0  0  0  0999 V2000
   44.4360   35.8090   45.0540 C   0  0  0  0  0  0  0  0  0  0  0  0
   45.0580   35.8050   43.7850 C   0  0  0  0  0  0  0  0  0  0  0  0
   45.9530   34.8210   43.4870 C   0  0  0  0  0  0  0  0  0  0  0  0
   46.1930   33.8900   44.4470 N   0  0  0  0  0  0  0  0  0  0  0  0
   45.6070   33.9000   45.6340 C   0  0  0  0  0  0  0  0  0  0  0  0
   44.7200   34.8580   45.9560 N   0  0  0  0  0  0  0  0  0  0  0  0
   45.9350   32.8790   46.5600 N   0  0  0  0  0  0  0  0  0  0  0  0
   45.1640   32.5500   47.7570 C   0  0  0  0  0  0  0  0  0  0  0  0
   46.2780   32.2400   48.7580 C   0  0  0  0  0  0  0  0  0  0  0  0
   47.5510   32.1350   47.9850 C   0  0  0  0  0  0  0  0  0  0  0  0
   47.0470   31.9600   46.5610 C   0  0  1  0  0  0  0  0  0  0  0  0
   43.7210   36.5830   45.3090 H   0  0  0  0  0  0  0  0  0  0  0  0
   46.4260   34.8230   42.5150 H   0  0  0  0  0  0  0  0  0  0  0  0
   44.6330   31.6140   47.5270 H   0  0  0  0  0  0  0  0  0  0  0  0
   44.5200   33.3630   48.0930 H   0  0  0  0  0  0  0  0  0  0  0  0
   45.9960   31.3090   49.3120 H   0  0  0  0  0  0  0  0  0  0  0  0
   46.3350   33.0560   49.5070 H   0  0  0  0  0  0  0  0  0  0  0  0
   48.2410   31.3650   48.3150 H   0  0  0  0  0  0  0  0  0  0  0  0
   48.0730   33.1360   48.0040 H   0  0  0  0  0  0  0  0  0  0  0  0
   47.8680   32.2790   45.9000 H   0  0  0  0  0  0  0  0  0  0  0  0
   44.6850   36.8670   42.8880 N   0  0  0  0  0  0  0  0  0  0  0  0
   45.5780   37.4210   42.8010 H   0  0  0  0  0  0  0  0  0  0  0  0
   43.7190   36.9370   42.4970 H   0  0  0  0  0  0  0  0  0  0  0  0
   46.5340   30.2600   46.3020 S   0  0  0  0  0  0  0  0  0  0  0  0
   49.0220   28.9970   45.6150 C   0  0  0  0  0  0  0  0  0  0  0  0
   47.9280   29.1560   46.4310 C   0  0  0  0  0  0  0  0  0  0  0  0
   47.8230   28.3560   47.5760 C   0  0  0  0  0  0  0  0  0  0  0  0
   47.0200   28.3580   48.3250 H   0  0  0  0  0  0  0  0  0  0  0  0
   48.8110   27.4140   47.8850 C   0  0  0  0  0  3  0  0  0  0  0  0
   49.8980   27.2760   47.0480 C   0  0  0  0  0  3  0  0  0  0  0  0
   49.9810   28.0800   45.9200 C   0  0  0  0  0  0  0  0  0  0  0  0
   48.9980   29.8470   44.5280 O   0  0  0  0  0  0  0  0  0  0  0  0
   49.2070   29.4960   43.5890 H   0  0  0  0  0  0  0  0  0  0  0  0
   51.0300   28.0450   44.9830 O   0  0  0  0  0  0  0  0  0  0  0  0
   51.8970   27.5750   45.1890 H   0  0  0  0  0  0  0  0  0  0  0  0
  1 12  1  0  0  0  0
  1  6  1  0  0  0  0
  2  1  2  0  0  0  0
  3  2  1  0  0  0  0
  3  4  2  0  0  0  0
  4  5  1  0  0  0  0
  5  6  2  0  0  0  0
  5  7  1  0  0  0  0
  7 11  1  0  0  0  0
  7  8  1  0  0  0  0
  8 15  1  0  0  0  0
  8  9  1  0  0  0  0
  9 16  1  0  0  0  0
  9 17  1  0  0  0  0
 10 19  1  0  0  0  0
 10 18  1  0  0  0  0
 10  9  1  0  0  0  0
 11 20  1  6  0  0  0
 11 10  1  0  0  0  0
 13  3  1  0  0  0  0
 14  8  1  0  0  0  0
 21  2  1  0  0  0  0
 22 21  1  0  0  0  0
 23 21  1  0  0  0  0
 24 26  1  0  0  0  0
 24 11  1  0  0  0  0
 25 31  2  0  0  0  0
 25 26  1  0  0  0  0
 26 27  2  0  0  0  0
 27 29  1  0  0  0  0
 27 28  1  0  0  0  0
 30 29  2  0  0  0  0
 31 30  1  0  0  0  0
 32 25  1  0  0  0  0
 33 32  1  0  0  0  0
 34 35  1  0  0  0  0
 34 31  1  0  0  0  0
M  END
>  <minimizedAffinity>
-5.16263008

>  <minimizedRMSD>
0.547508121

$$$$
