
 OpenBabel03242516413D

 34 35  0  0  0  0  0  0  0  0999 V2000
   49.2240   33.9820   42.6840 C   0  0  0  0  0  0  0  0  0  0  0  0
   49.4600   34.5360   43.6150 H   0  0  0  0  0  0  0  0  0  0  0  0
   49.9490   34.3600   41.9310 H   0  0  0  0  0  0  0  0  0  0  0  0
   47.8460   34.2840   42.1730 C   0  0  0  0  0  0  0  0  0  0  0  0
   47.5850   33.5660   41.3870 H   0  0  0  0  0  0  0  0  0  0  0  0
   47.8300   35.3150   41.7120 H   0  0  0  0  0  0  0  0  0  0  0  0
   44.8580   35.1200   44.3000 C   0  0  0  0  0  0  0  0  0  0  0  0
   45.7730   35.1120   43.2100 C   0  0  0  0  0  0  0  0  0  0  0  0
   46.8950   34.2940   43.3050 C   0  0  0  0  0  0  0  0  0  0  0  0
   47.0680   33.5510   44.4150 N   0  0  0  0  0  0  0  0  0  0  0  0
   46.1740   33.5850   45.4350 C   0  0  0  0  0  0  0  0  0  0  0  0
   45.0790   34.3620   45.3770 N   0  0  0  0  0  0  0  0  0  0  0  0
   43.7120   35.9360   44.2340 N   0  0  0  0  0  0  0  0  0  0  0  0
   45.6080   35.7180   42.3300 H   0  0  0  0  0  0  0  0  0  0  0  0
   46.3180   32.9850   46.3260 H   0  0  0  0  0  0  0  0  0  0  0  0
   43.1820   36.1760   45.0750 H   0  0  0  0  0  0  0  0  0  0  0  0
   43.4060   36.3010   43.2950 H   0  0  0  0  0  0  0  0  0  0  0  0
   49.3870   32.6230   42.8130 O   0  0  0  0  0  0  0  0  0  0  0  0
   50.7420   30.5590   41.9390 O   0  0  0  0  0  0  0  0  0  0  0  0
   50.4070   31.9900   41.6130 P   0  0  2  0  0  0  0  0  0  0  0  0
   51.7640   32.9790   41.5410 O   0  0  0  0  0  0  0  0  0  0  0  0
   51.7950   33.5740   40.7750 H   0  0  0  0  0  0  0  0  0  0  0  0
   49.6180   32.1180   40.1120 O   0  0  0  0  0  0  0  0  0  0  0  0
   49.5030   32.2560   37.8150 C   0  0  0  0  0  0  0  0  0  0  0  0
   50.1050   31.6420   38.9190 C   0  0  0  0  0  0  0  0  0  0  0  0
   51.0690   30.6800   38.6760 C   0  0  0  0  0  0  0  0  0  0  0  0
   51.4820   30.2580   39.5820 H   0  0  0  0  0  0  0  0  0  0  0  0
   51.4140   30.3470   37.3810 C   0  0  0  0  0  3  0  0  0  0  0  0
   50.8190   30.9540   36.2940 C   0  0  0  0  0  3  0  0  0  0  0  0
   49.8650   31.9060   36.5230 C   0  0  0  0  0  0  0  0  0  0  0  0
   48.5170   33.2420   37.9030 O   0  0  0  0  0  0  0  0  0  0  0  0
   48.1260   33.3990   38.8340 H   0  0  0  0  0  0  0  0  0  0  0  0
   49.2730   32.5100   35.4080 O   0  0  0  0  0  0  0  0  0  0  0  0
   49.0260   33.5030   35.4390 H   0  0  0  0  0  0  0  0  0  0  0  0
  1 18  1  0  0  0  0
  1  2  1  0  0  0  0
  3  1  1  0  0  0  0
  4  1  1  0  0  0  0
  4  9  1  0  0  0  0
  5  4  1  0  0  0  0
  6  4  1  0  0  0  0
  7 12  1  0  0  0  0
  8  9  1  0  0  0  0
  8  7  2  0  0  0  0
  9 10  2  0  0  0  0
 10 11  1  0  0  0  0
 11 15  1  0  0  0  0
 12 11  2  0  0  0  0
 13  7  1  0  0  0  0
 13 16  1  0  0  0  0
 14  8  1  0  0  0  0
 17 13  1  0  0  0  0
 20 19  2  1  0  0  0
 20 18  1  0  0  0  0
 21 20  1  0  0  0  0
 22 21  1  0  0  0  0
 23 20  1  0  0  0  0
 24 31  1  0  0  0  0
 24 25  1  0  0  0  0
 25 23  1  0  0  0  0
 26 25  2  0  0  0  0
 26 27  1  0  0  0  0
 28 26  1  0  0  0  0
 29 30  1  0  0  0  0
 29 28  2  0  0  0  0
 30 24  2  0  0  0  0
 31 32  1  0  0  0  0
 33 34  1  0  0  0  0
 33 30  1  0  0  0  0
M  END
>  <minimizedAffinity>
-4.92726612

>  <minimizedRMSD>
1.24064851

$$$$
