
 OpenBabel03242522513D

 28 29  0  0  0  0  0  0  0  0999 V2000
   45.6170   30.6630   47.6700 O   0  0  0  0  0  0  0  0  0  0  0  0
   45.9350   32.0010   48.3910 P   0  0  2  0  0  0  0  0  0  0  0  0
   45.3040   31.8330   49.9410 O   0  0  0  0  0  0  0  0  0  0  0  0
   45.9990   32.0070   50.6230 H   0  0  0  0  0  0  0  0  0  0  0  0
   45.1260   33.2260   47.5560 O   0  0  0  0  0  0  0  0  0  0  0  0
   46.9820   33.2500   44.4300 C   0  0  0  0  0  0  0  0  0  0  0  0
   46.5500   32.8930   45.7310 C   0  0  0  0  0  0  0  0  0  0  0  0
   45.5150   33.6060   46.2890 C   0  0  0  0  0  0  0  0  0  0  0  0
   44.9680   34.6060   45.5700 N   0  0  0  0  0  0  0  0  0  0  0  0
   45.3710   34.9470   44.3430 C   0  0  0  0  0  0  0  0  0  0  0  0
   46.3790   34.2710   43.7680 N   0  0  0  0  0  0  0  0  0  0  0  0
   47.7880   32.7490   43.9090 H   0  0  0  0  0  0  0  0  0  0  0  0
   47.1120   32.0810   46.1150 H   0  0  0  0  0  0  0  0  0  0  0  0
   44.8480   35.7740   43.8620 H   0  0  0  0  0  0  0  0  0  0  0  0
   47.5730   32.2380   48.4050 O   0  0  0  0  0  0  0  0  0  0  0  0
   48.6040   31.5290   48.9010 C   0  0  0  0  0  0  0  0  0  0  0  0
   49.5490   32.3100   49.3920 O   0  0  0  0  0  0  0  0  0  0  0  0
   48.9070   29.1540   48.2920 C   0  0  0  0  0  0  0  0  0  0  0  0
   49.1740   30.1590   49.1450 C   0  0  0  0  0  0  0  0  0  0  0  0
   49.9770   29.8650   50.2590 C   0  0  0  0  0  0  0  0  0  0  0  0
   50.1420   30.7500   50.9010 H   0  0  0  0  0  0  0  0  0  0  0  0
   50.5320   28.6560   50.5860 C   0  0  0  0  0  3  0  0  0  0  0  0
   50.2240   27.6930   49.6870 C   0  0  0  0  0  3  0  0  0  0  0  0
   49.4520   27.8920   48.5810 C   0  0  0  0  0  0  0  0  0  0  0  0
   48.1460   29.2070   47.1350 O   0  0  0  0  0  0  0  0  0  0  0  0
   48.4170   28.7940   46.2520 H   0  0  0  0  0  0  0  0  0  0  0  0
   49.1960   26.8350   47.7200 O   0  0  0  0  0  0  0  0  0  0  0  0
   48.2520   26.7330   47.3610 H   0  0  0  0  0  0  0  0  0  0  0  0
  2  1  2  6  0  0  0
  2 15  1  0  0  0  0
  2  3  1  0  0  0  0
  3  4  1  0  0  0  0
  5  2  1  0  0  0  0
  6  7  1  0  0  0  0
  7 13  1  0  0  0  0
  7  8  2  0  0  0  0
  8  5  1  0  0  0  0
  9  8  1  0  0  0  0
 10  9  2  0  0  0  0
 11 10  1  0  0  0  0
 11  6  2  0  0  0  0
 12  6  1  0  0  0  0
 14 10  1  0  0  0  0
 15 16  1  0  0  0  0
 16 19  1  0  0  0  0
 16 17  2  0  0  0  0
 18 24  2  0  0  0  0
 18 19  1  0  0  0  0
 19 20  2  0  0  0  0
 20 22  1  0  0  0  0
 20 21  1  0  0  0  0
 23 22  2  0  0  0  0
 24 23  1  0  0  0  0
 25 18  1  0  0  0  0
 26 25  1  0  0  0  0
 27 24  1  0  0  0  0
 28 27  1  0  0  0  0
M  END
>  <minimizedAffinity>
-5.08521366

>  <minimizedRMSD>
1.1539793

$$$$
