
 OpenBabel03252507553D

 46 49  0  0  1  0  0  0  0  0999 V2000
   49.7030   32.7980   42.4490 C   0  0  2  0  0  0  0  0  0  0  0  0
   51.1200   33.0810   42.2900 C   0  0  0  0  0  0  0  0  0  0  0  0
   50.3350   32.4720   41.1710 C   0  0  1  0  0  0  0  0  0  0  0  0
   49.4060   31.9450   43.0870 H   0  0  0  0  0  0  0  0  0  0  0  0
   51.8680   32.4770   42.8180 H   0  0  0  0  0  0  0  0  0  0  0  0
   51.4720   34.1250   42.0700 H   0  0  0  0  0  0  0  0  0  0  0  0
   49.9390   33.0230   40.3130 H   0  0  0  0  0  0  0  0  0  0  0  0
   46.6030   34.6010   42.1090 C   0  0  2  0  0  0  0  0  0  0  0  0
   47.3790   34.7650   40.8010 C   0  0  0  0  0  0  0  0  0  0  0  0
   48.7870   34.9170   41.4170 C   0  0  0  0  0  0  0  0  0  0  0  0
   48.7930   33.9970   42.5990 C   0  0  1  0  0  0  0  0  0  0  0  0
   47.3910   33.4750   42.7200 C   0  0  0  0  0  0  0  0  0  0  0  0
   46.6450   35.5320   42.6730 H   0  0  0  0  0  0  0  0  0  0  0  0
   47.2890   33.8390   40.2220 H   0  0  0  0  0  0  0  0  0  0  0  0
   47.0680   35.6770   40.2880 H   0  0  0  0  0  0  0  0  0  0  0  0
   48.8400   35.9590   41.7700 H   0  0  0  0  0  0  0  0  0  0  0  0
   49.5360   34.6730   40.6390 H   0  0  0  0  0  0  0  0  0  0  0  0
   49.1030   34.5200   43.5270 H   0  0  0  0  0  0  0  0  0  0  0  0
   47.1990   32.5370   42.1990 H   0  0  0  0  0  0  0  0  0  0  0  0
   47.1400   33.4270   43.8050 H   0  0  0  0  0  0  0  0  0  0  0  0
   42.9490   34.6500   41.1920 C   0  0  0  0  0  0  0  0  0  0  0  0
   44.2450   35.1200   41.3720 C   0  0  0  0  0  0  0  0  0  0  0  0
   45.1860   34.2150   41.8510 C   0  0  0  0  0  0  0  0  0  0  0  0
   44.8180   32.8910   42.1330 N   0  0  0  0  0  0  0  0  0  0  0  0
   43.5350   32.4930   41.9380 C   0  0  0  0  0  0  0  0  0  0  0  0
   42.6130   33.3670   41.4700 N   0  0  0  0  0  0  0  0  0  0  0  0
   42.2100   35.3460   40.8180 H   0  0  0  0  0  0  0  0  0  0  0  0
   44.5440   36.1330   41.1600 H   0  0  0  0  0  0  0  0  0  0  0  0
   43.3540   31.4560   42.1850 H   0  0  0  0  0  0  0  0  0  0  0  0
   50.5690   31.1010   40.8940 O   0  0  0  0  0  0  0  0  0  0  0  0
   49.3810   30.8800   38.5830 O   0  0  0  0  0  0  0  0  0  0  0  0
   50.7410   30.9230   39.2320 P   0  0  1  0  0  0  0  0  0  0  0  0
   51.5760   32.2730   38.5810 O   0  0  0  0  0  0  0  0  0  0  0  0
   52.5210   32.1720   38.8440 H   0  0  0  0  0  0  0  0  0  0  0  0
   51.5870   29.5690   38.7740 O   0  0  0  0  0  0  0  0  0  0  0  0
   53.4720   29.9220   37.5250 C   0  0  0  0  0  0  0  0  0  0  0  0
   52.9660   29.5550   38.7560 C   0  0  0  0  0  0  0  0  0  0  0  0
   53.8590   29.2390   39.7580 C   0  0  0  0  0  0  0  0  0  0  0  0
   53.3700   28.9620   40.6920 H   0  0  0  0  0  0  0  0  0  0  0  0
   55.2150   29.2870   39.5370 C   0  0  0  0  0  3  0  0  0  0  0  0
   55.7050   29.6600   38.2890 C   0  0  0  0  0  3  0  0  0  0  0  0
   54.8430   29.9770   37.2840 C   0  0  0  0  0  0  0  0  0  0  0  0
   52.6940   30.2730   36.4050 O   0  0  0  0  0  0  0  0  0  0  0  0
   51.9360   29.6750   36.0970 H   0  0  0  0  0  0  0  0  0  0  0  0
   55.3940   30.3390   36.0660 O   0  0  0  0  0  0  0  0  0  0  0  0
   55.4200   29.6700   35.3200 H   0  0  0  0  0  0  0  0  0  0  0  0
  1 11  1  0  0  0  0
  1  4  1  1  0  0  0
  2  1  1  0  0  0  0
  2  5  1  0  0  0  0
  3  7  1  6  0  0  0
  3  2  1  0  0  0  0
  3  1  1  0  0  0  0
  6  2  1  0  0  0  0
  8 13  1  1  0  0  0
  8 12  1  0  0  0  0
  9 10  1  0  0  0  0
  9  8  1  0  0  0  0
 10 16  1  0  0  0  0
 10 11  1  0  0  0  0
 11 12  1  0  0  0  0
 11 18  1  1  0  0  0
 12 20  1  0  0  0  0
 14  9  1  0  0  0  0
 15  9  1  0  0  0  0
 17 10  1  0  0  0  0
 19 12  1  0  0  0  0
 21 22  2  0  0  0  0
 21 26  1  0  0  0  0
 22 23  1  0  0  0  0
 23  8  1  0  0  0  0
 23 24  2  0  0  0  0
 25 24  1  0  0  0  0
 25 29  1  0  0  0  0
 26 25  2  0  0  0  0
 27 21  1  0  0  0  0
 28 22  1  0  0  0  0
 30  3  1  0  0  0  0
 32 31  2  6  0  0  0
 32 30  1  0  0  0  0
 33 34  1  0  0  0  0
 33 32  1  0  0  0  0
 35 32  1  0  0  0  0
 36 37  1  0  0  0  0
 37 35  1  0  0  0  0
 37 38  2  0  0  0  0
 38 39  1  0  0  0  0
 40 38  1  0  0  0  0
 41 40  2  0  0  0  0
 42 36  2  0  0  0  0
 42 41  1  0  0  0  0
 43 36  1  0  0  0  0
 44 43  1  0  0  0  0
 45 42  1  0  0  0  0
 46 45  1  0  0  0  0
M  END
>  <minimizedAffinity>
-4.62632799

>  <minimizedRMSD>
2.79952741

$$$$
