
     RDKit          3D

 30 31  0  0  0  0  0  0  0  0999 V2000
   46.5333   33.6183   44.3325 C   0  0  0  0  0  0  0  0  0  0  0  0
   46.2301   33.1913   45.6487 C   0  0  0  0  0  0  0  0  0  0  0  0
   45.2892   33.8998   46.3592 C   0  0  0  0  0  0  0  0  0  0  0  0
   44.7070   34.9606   45.7663 N   0  0  0  0  0  0  0  0  0  0  0  0
   44.9891   35.3675   44.5247 C   0  0  0  0  0  0  0  0  0  0  0  0
   45.9033   34.6978   43.8036 N   0  0  0  0  0  0  0  0  0  0  0  0
   45.0235   33.4509   47.6360 O   0  0  0  0  0  0  0  0  0  0  0  0
   45.3178   30.8615   47.4745 O   0  0  0  0  0  0  0  0  0  0  0  0
   45.8107   32.0987   48.2707 P   0  0  2  0  0  0  0  0  0  0  0  0
   45.3227   31.8296   49.8577 O   0  0  0  0  0  0  0  0  0  0  0  0
   47.4556   32.2182   48.1340 O   0  0  0  0  0  0  0  0  0  0  0  0
   48.4737   31.4295   48.5246 C   0  0  0  0  0  0  0  0  0  0  0  0
   49.2339   32.0183   49.4305 O   0  0  0  0  0  0  0  0  0  0  0  0
   47.2588   33.1255   43.6970 H   0  0  0  0  0  0  0  0  0  0  0  0
   46.7978   32.3388   45.9191 H   0  0  0  0  0  0  0  0  0  0  0  0
   44.4505   36.2398   44.1560 H   0  0  0  0  0  0  0  0  0  0  0  0
   46.0935   31.8894   50.4763 H   0  0  0  0  0  0  0  0  0  0  0  0
   49.3436   29.7300   50.7773 O   0  0  0  0  0  0  0  0  0  0  0  0
   49.5275   29.3941   49.4459 C   0  0  0  0  0  0  0  0  0  0  0  0
   49.1570   30.1001   48.3622 C   0  0  0  0  0  0  0  0  0  0  0  0
   49.4528   29.5527   47.1028 C   0  0  0  0  0  0  0  0  0  0  0  0
   49.1112   30.2022   46.2757 H   0  0  0  0  0  0  0  0  0  0  0  0
   50.0835   28.3669   46.8405 C   0  0  0  0  0  0  0  0  0  0  0  0
   50.4276   27.7100   47.9724 C   0  0  0  0  0  0  0  0  0  0  0  0
   50.1797   28.1675   49.2329 C   0  0  0  0  0  0  0  0  0  0  0  0
   50.5743   27.4156   50.3293 O   0  0  0  0  0  0  0  0  0  0  0  0
   49.0086   29.0919   51.4884 H   0  0  0  0  0  0  0  0  0  0  0  0
   50.2511   28.0590   45.8237 H   0  0  0  0  0  0  0  0  0  0  0  0
   50.9328   26.7593   47.8790 H   0  0  0  0  0  0  0  0  0  0  0  0
   50.9970   27.9038   51.1124 H   0  0  0  0  0  0  0  0  0  0  0  0
  1  2  2  0
  2  3  1  0
  3  7  1  0
  4  3  2  0
  5  4  1  0
  6  1  1  0
  6  5  2  0
  9  7  1  6
  9  8  2  0
  9 10  1  0
 11  9  1  0
 11 12  1  0
 12 13  2  0
  1 14  1  0
  2 15  1  0
  5 16  1  0
 10 17  1  0
 18 19  1  0
 19 20  2  0
 20 21  1  0
 21 22  1  0
 21 23  2  0
 23 24  1  0
 24 25  2  0
 25 26  1  0
 25 19  1  0
 18 27  1  0
 23 28  1  0
 24 29  1  0
 26 30  1  0
 12 20  1  0
M  ISO  5  14  14  15  14  16  14  17   3  22  16
M  END
>  <DihAtoms>  (1) 
10,11,19,18

>  <DihDeg>  (1) 
-178.68021094511428

$$$$
