
 OpenBabel03252507163D

 31 33  0  0  0  0  0  0  0  0999 V2000
   45.1530   36.0920   43.6900 C   0  0  0  0  0  0  0  0  0  0  0  0
   45.8390   34.9290   43.2610 C   0  0  0  0  0  0  0  0  0  0  0  0
   45.8910   33.8500   44.1440 C   0  0  0  0  0  0  0  0  0  0  0  0
   45.3020   33.9430   45.3460 N   0  0  0  0  0  0  0  0  0  0  0  0
   44.6430   35.0800   45.7370 C   0  0  0  0  0  0  0  0  0  0  0  0
   44.5840   36.1230   44.9040 N   0  0  0  0  0  0  0  0  0  0  0  0
   45.0940   36.9460   43.0300 H   0  0  0  0  0  0  0  0  0  0  0  0
   44.2280   34.9850   46.7330 H   0  0  0  0  0  0  0  0  0  0  0  0
   46.5910   32.6550   43.7130 C   0  0  0  0  0  0  0  0  0  0  0  0
   45.8750   31.5250   43.3610 C   0  0  0  0  0  0  0  0  0  0  0  0
   46.5670   30.4100   42.9580 C   0  0  0  0  0  0  0  0  0  0  0  0
   47.9480   30.3470   42.8810 C   0  0  0  0  0  0  0  0  0  0  0  0
   48.6090   31.5130   43.2470 C   0  0  0  0  0  0  0  0  0  0  0  0
   47.9210   32.6050   43.6430 N   0  0  0  0  0  0  0  0  0  0  0  0
   44.8120   31.4650   43.3830 H   0  0  0  0  0  0  0  0  0  0  0  0
   46.0490   29.4960   42.6700 H   0  0  0  0  0  0  0  0  0  0  0  0
   48.5470   29.5230   42.5790 H   0  0  0  0  0  0  0  0  0  0  0  0
   49.6920   31.6090   43.2360 H   0  0  0  0  0  0  0  0  0  0  0  0
   46.4370   34.9040   41.9740 C   0  0  0  0  0  0  0  0  0  0  0  0
   47.5490   35.4710   41.8220 O   0  0  0  0  0  0  0  0  0  0  0  0
   46.5240   33.5210   39.9100 C   0  0  0  0  0  0  0  0  0  0  0  0
   45.8060   34.2470   40.8350 C   0  0  0  0  0  0  0  0  0  0  0  0
   44.4430   34.3360   40.6420 C   0  0  0  0  0  0  0  0  0  0  0  0
   43.8960   34.9080   41.3750 H   0  0  0  0  0  0  0  0  0  0  0  0
   43.7840   33.7500   39.6030 C   0  0  0  0  0  3  0  0  0  0  0  0
   44.5310   33.0200   38.6810 C   0  0  0  0  0  3  0  0  0  0  0  0
   45.8840   32.9170   38.8480 C   0  0  0  0  0  0  0  0  0  0  0  0
   47.9190   33.4000   40.0590 O   0  0  0  0  0  0  0  0  0  0  0  0
   48.5660   33.5030   39.2940 H   0  0  0  0  0  0  0  0  0  0  0  0
   46.6610   32.1980   37.9490 O   0  0  0  0  0  0  0  0  0  0  0  0
   46.4570   31.2350   37.7040 H   0  0  0  0  0  0  0  0  0  0  0  0
  1  6  1  0  0  0  0
  2  1  2  0  0  0  0
  2  3  1  0  0  0  0
  3  4  2  0  0  0  0
  4  5  1  0  0  0  0
  5  8  1  0  0  0  0
  6  5  2  0  0  0  0
  7  1  1  0  0  0  0
  9  3  1  0  0  0  0
 10 15  1  0  0  0  0
 10  9  2  0  0  0  0
 11 10  1  0  0  0  0
 12 11  2  0  0  0  0
 12 13  1  0  0  0  0
 13 14  2  0  0  0  0
 14  9  1  0  0  0  0
 16 11  1  0  0  0  0
 17 12  1  0  0  0  0
 18 13  1  0  0  0  0
 19  2  1  0  0  0  0
 20 19  2  0  0  0  0
 21 28  1  0  0  0  0
 21 22  1  0  0  0  0
 22 19  1  0  0  0  0
 23 22  2  0  0  0  0
 23 24  1  0  0  0  0
 25 23  1  0  0  0  0
 26 27  1  0  0  0  0
 26 25  2  0  0  0  0
 27 21  2  0  0  0  0
 29 28  1  0  0  0  0
 30 27  1  0  0  0  0
 31 30  1  0  0  0  0
M  END
>  <minimizedAffinity>
-4.79587984

>  <minimizedRMSD>
0.942260087

$$$$
