
 OpenBabel03242522513D

 28 29  0  0  0  0  0  0  0  0999 V2000
   45.2540   30.7580   47.6000 O   0  0  0  0  0  0  0  0  0  0  0  0
   45.8170   32.0210   48.3050 P   0  0  2  0  0  0  0  0  0  0  0  0
   45.3210   31.8950   49.9070 O   0  0  0  0  0  0  0  0  0  0  0  0
   46.0960   31.9560   50.5200 H   0  0  0  0  0  0  0  0  0  0  0  0
   45.1020   33.3650   47.5740 O   0  0  0  0  0  0  0  0  0  0  0  0
   46.8280   33.3930   44.3750 C   0  0  0  0  0  0  0  0  0  0  0  0
   46.4530   33.0360   45.6930 C   0  0  0  0  0  0  0  0  0  0  0  0
   45.4370   33.7450   46.2910 C   0  0  0  0  0  0  0  0  0  0  0  0
   44.8540   34.7390   45.5920 N   0  0  0  0  0  0  0  0  0  0  0  0
   45.2050   35.0790   44.3490 C   0  0  0  0  0  0  0  0  0  0  0  0
   46.1930   34.4080   43.7350 N   0  0  0  0  0  0  0  0  0  0  0  0
   47.6160   32.8950   43.8220 H   0  0  0  0  0  0  0  0  0  0  0  0
   47.0350   32.2290   46.0560 H   0  0  0  0  0  0  0  0  0  0  0  0
   44.6570   35.9020   43.8880 H   0  0  0  0  0  0  0  0  0  0  0  0
   47.4650   32.0400   48.1600 O   0  0  0  0  0  0  0  0  0  0  0  0
   48.4320   31.1680   48.5000 C   0  0  0  0  0  0  0  0  0  0  0  0
   49.0940   31.5590   49.5740 O   0  0  0  0  0  0  0  0  0  0  0  0
   48.3970   28.7680   47.9130 C   0  0  0  0  0  0  0  0  0  0  0  0
   49.1210   29.8740   48.1640 C   0  0  0  0  0  0  0  0  0  0  0  0
   50.5190   29.7540   48.1170 C   0  0  0  0  0  0  0  0  0  0  0  0
   51.0270   30.7120   48.3360 H   0  0  0  0  0  0  0  0  0  0  0  0
   51.2480   28.6290   47.8410 C   0  0  0  0  0  3  0  0  0  0  0  0
   50.4590   27.5570   47.5980 C   0  0  0  0  0  3  0  0  0  0  0  0
   49.0960   27.5830   47.6240 C   0  0  0  0  0  0  0  0  0  0  0  0
   47.0170   28.6450   47.9030 O   0  0  0  0  0  0  0  0  0  0  0  0
   46.4900   28.1610   47.1870 H   0  0  0  0  0  0  0  0  0  0  0  0
   48.3790   26.4250   47.3610 O   0  0  0  0  0  0  0  0  0  0  0  0
   47.5740   26.2220   47.9450 H   0  0  0  0  0  0  0  0  0  0  0  0
  2  1  2  6  0  0  0
  2  3  1  0  0  0  0
  3  4  1  0  0  0  0
  5  2  1  0  0  0  0
  6  7  1  0  0  0  0
  7 13  1  0  0  0  0
  7  8  2  0  0  0  0
  8  5  1  0  0  0  0
  9  8  1  0  0  0  0
 10  9  2  0  0  0  0
 11 10  1  0  0  0  0
 11  6  2  0  0  0  0
 12  6  1  0  0  0  0
 14 10  1  0  0  0  0
 15  2  1  0  0  0  0
 15 16  1  0  0  0  0
 16 17  2  0  0  0  0
 18 19  1  0  0  0  0
 19 16  1  0  0  0  0
 20 19  2  0  0  0  0
 20 21  1  0  0  0  0
 22 20  1  0  0  0  0
 23 24  1  0  0  0  0
 23 22  2  0  0  0  0
 24 18  2  0  0  0  0
 25 18  1  0  0  0  0
 26 25  1  0  0  0  0
 27 24  1  0  0  0  0
 27 28  1  0  0  0  0
M  END
>  <minimizedAffinity>
-4.84880924

>  <minimizedRMSD>
0.524170101

$$$$
