
     RDKit          3D

 34 36  0  0  0  0  0  0  0  0999 V2000
   44.6798   35.3726   45.1469 C   0  0  0  0  0  0  0  0  0  0  0  0
   45.1281   35.6963   43.8352 C   0  0  0  0  0  0  0  0  0  0  0  0
   46.0694   34.8599   43.3341 C   0  0  0  0  0  0  0  0  0  0  0  0
   46.5498   33.7809   44.0533 N   0  0  0  0  0  0  0  0  0  0  0  0
   46.0894   33.5186   45.2967 C   0  0  0  0  0  0  0  0  0  0  0  0
   45.1480   34.3214   45.8441 N   0  0  0  0  0  0  0  0  0  0  0  0
   46.5775   35.0671   41.9275 C   0  0  1  0  0  0  0  0  0  0  0  0
   48.1192   35.2865   41.9311 C   0  0  0  0  0  0  0  0  0  0  0  0
   47.3679   34.0800   41.3112 C   0  0  2  0  0  0  0  0  0  0  0  0
   47.3745   33.9134   39.8140 C   0  0  0  0  0  0  0  0  0  0  0  0
   44.6544   36.8103   43.1150 N   0  0  0  0  0  0  0  0  0  0  0  0
   43.9300   36.0124   45.5810 H   0  0  0  0  0  0  0  0  0  0  0  0
   46.5622   32.6451   45.7251 H   0  0  0  0  0  0  0  0  0  0  0  0
   46.0326   35.8465   41.3679 H   0  0  0  0  0  0  0  0  0  0  0  0
   48.6693   35.1452   42.8612 H   0  0  0  0  0  0  0  0  0  0  0  0
   48.4710   36.0558   41.2336 H   0  0  0  0  0  0  0  0  0  0  0  0
   47.6697   33.1188   41.8284 H   0  0  0  0  0  0  0  0  0  0  0  0
   46.3077   33.7781   39.5211 H   0  0  0  0  0  0  0  0  0  0  0  0
   47.6854   34.8848   39.3652 H   0  0  0  0  0  0  0  0  0  0  0  0
   43.6294   37.0377   43.1857 H   0  0  0  0  0  0  0  0  0  0  0  0
   45.3450   37.3659   42.5387 H   0  0  0  0  0  0  0  0  0  0  0  0
   50.0567   34.2176   40.3549 O   0  0  0  0  0  0  0  0  0  0  0  0
   49.5721   33.1221   39.6322 C   0  0  0  0  0  0  0  0  0  0  0  0
   48.2382   32.8578   39.2932 C   0  0  0  0  0  0  0  0  0  0  0  0
   48.0003   31.7084   38.5717 C   0  0  0  0  0  0  0  0  0  0  0  0
   46.9628   31.5772   38.3528 H   0  0  0  0  0  0  0  0  0  0  0  0
   49.0060   30.8520   38.1941 C   0  0  0  0  0  0  0  0  0  0  0  0
   50.3284   31.1252   38.5364 C   0  0  0  0  0  0  0  0  0  0  0  0
   50.5899   32.2630   39.2541 C   0  0  0  0  0  0  0  0  0  0  0  0
   51.9347   32.4442   39.5451 O   0  0  0  0  0  0  0  0  0  0  0  0
   49.7803   34.2576   41.3335 H   0  0  0  0  0  0  0  0  0  0  0  0
   48.6274   29.9957   37.6316 H   0  0  0  0  0  0  0  0  0  0  0  0
   51.0246   30.3782   38.1815 H   0  0  0  0  0  0  0  0  0  0  0  0
   52.1402   33.1465   40.2687 H   0  0  0  0  0  0  0  0  0  0  0  0
  1  6  2  0
  2  1  1  0
  3  2  2  0
  3  4  1  0
  4  5  2  0
  5  6  1  0
  7  3  1  0
  8  7  1  0
  9  8  1  0
  9  7  1  0
 10  9  1  0
 11  2  1  0
  1 12  1  0
  5 13  1  0
  7 14  1  6
  8 15  1  0
  8 16  1  0
  9 17  1  1
 10 18  1  0
 10 19  1  0
 11 20  1  0
 11 21  1  0
 22 23  1  0
 23 24  2  0
 24 25  1  0
 25 26  1  0
 25 27  2  0
 27 28  1  0
 28 29  2  0
 29 30  1  0
 29 23  1  0
 22 31  1  0
 27 32  1  0
 28 33  1  0
 30 34  1  0
 10 24  1  0
M  ISO  8  12  14  13  14  14  13  15  13  16  13  17  13  18   8  19   8
M  ISO  1  26  16
M  END
>  <DihAtoms>  (1) 
8,9,23,22

>  <DihDeg>  (1) 
178.68067712530848

$$$$
