
 OpenBabel03252506353D

 35 37  0  0  1  0  0  0  0  0999 V2000
   39.7350   32.2770   39.2810 C   0  0  0  0  0  0  0  0  0  0  0  0
   38.9250   33.0380   40.1540 C   0  0  0  0  0  0  0  0  0  0  0  0
   37.6020   32.7330   40.2680 C   0  0  0  0  0  0  0  0  0  0  0  0
   37.1380   31.6980   39.5200 N   0  0  0  0  0  0  0  0  0  0  0  0
   37.9020   30.9890   38.7030 C   0  0  0  0  0  0  0  0  0  0  0  0
   39.2110   31.2670   38.5710 N   0  0  0  0  0  0  0  0  0  0  0  0
   37.3110   29.9320   37.9690 N   0  0  0  0  0  0  0  0  0  0  0  0
   38.0450   28.8650   37.2910 C   0  0  0  0  0  0  0  0  0  0  0  0
   37.2170   28.6910   36.0170 C   0  0  0  0  0  0  0  0  0  0  0  0
   35.9460   29.4500   36.2080 C   0  0  0  0  0  0  0  0  0  0  0  0
   35.9180   29.6540   37.7150 C   0  0  1  0  0  0  0  0  0  0  0  0
   40.7900   32.5050   39.1770 H   0  0  0  0  0  0  0  0  0  0  0  0
   36.9870   33.3180   40.9380 H   0  0  0  0  0  0  0  0  0  0  0  0
   37.9160   27.9670   37.9150 H   0  0  0  0  0  0  0  0  0  0  0  0
   39.0830   29.1220   37.0800 H   0  0  0  0  0  0  0  0  0  0  0  0
   37.0790   27.5940   35.8420 H   0  0  0  0  0  0  0  0  0  0  0  0
   37.7900   29.0850   35.1530 H   0  0  0  0  0  0  0  0  0  0  0  0
   35.0540   28.9850   35.8000 H   0  0  0  0  0  0  0  0  0  0  0  0
   36.0660   30.4800   35.7620 H   0  0  0  0  0  0  0  0  0  0  0  0
   35.2670   30.5230   37.8980 H   0  0  0  0  0  0  0  0  0  0  0  0
   39.5810   34.0990   40.8720 N   0  0  0  0  0  0  0  0  0  0  0  0
   39.1360   34.9640   40.4650 H   0  0  0  0  0  0  0  0  0  0  0  0
   40.3070   33.9000   41.5970 H   0  0  0  0  0  0  0  0  0  0  0  0
   35.3580   28.1520   38.5210 S   0  0  0  0  0  0  0  0  0  0  0  0
   36.1950   28.7310   41.2080 C   0  0  0  0  0  0  0  0  0  0  0  0
   36.1800   27.9350   40.0880 C   0  0  0  0  0  0  0  0  0  0  0  0
   36.9040   26.7360   40.1080 C   0  0  0  0  0  0  0  0  0  0  0  0
   36.9950   25.9940   39.3030 H   0  0  0  0  0  0  0  0  0  0  0  0
   37.6290   26.3560   41.2420 C   0  0  0  0  0  3  0  0  0  0  0  0
   37.6260   27.1730   42.3520 C   0  0  0  0  0  3  0  0  0  0  0  0
   36.9010   28.3560   42.3090 C   0  0  0  0  0  0  0  0  0  0  0  0
   35.4410   29.8760   41.0520 O   0  0  0  0  0  0  0  0  0  0  0  0
   35.8140   30.7880   41.3380 H   0  0  0  0  0  0  0  0  0  0  0  0
   36.8110   29.2810   43.3650 O   0  0  0  0  0  0  0  0  0  0  0  0
   37.1000   29.0380   44.2980 H   0  0  0  0  0  0  0  0  0  0  0  0
  1  2  1  0  0  0  0
  2  3  2  0  0  0  0
  2 21  1  0  0  0  0
  3 13  1  0  0  0  0
  4  3  1  0  0  0  0
  5  4  2  0  0  0  0
  6  5  1  0  0  0  0
  6  1  2  0  0  0  0
  7  5  1  0  0  0  0
  8 14  1  0  0  0  0
  8  7  1  0  0  0  0
  9 10  1  0  0  0  0
  9  8  1  0  0  0  0
 10 11  1  0  0  0  0
 11 20  1  1  0  0  0
 11  7  1  0  0  0  0
 11 24  1  0  0  0  0
 12  1  1  0  0  0  0
 15  8  1  0  0  0  0
 16  9  1  0  0  0  0
 17  9  1  0  0  0  0
 18 10  1  0  0  0  0
 19 10  1  0  0  0  0
 21 23  1  0  0  0  0
 22 21  1  0  0  0  0
 24 26  1  0  0  0  0
 25 31  1  0  0  0  0
 26 27  1  0  0  0  0
 26 25  2  0  0  0  0
 27 29  2  0  0  0  0
 28 27  1  0  0  0  0
 29 30  1  0  0  0  0
 31 30  2  0  0  0  0
 31 34  1  0  0  0  0
 32 25  1  0  0  0  0
 32 33  1  0  0  0  0
 34 35  1  0  0  0  0
M  END
>  <minimizedAffinity>
-6.05633593

$$$$

 OpenBabel03252506353D

 35 37  0  0  1  0  0  0  0  0999 V2000
   38.5150   27.6940   36.5350 C   0  0  0  0  0  0  0  0  0  0  0  0
   37.4240   28.5000   36.1390 C   0  0  0  0  0  0  0  0  0  0  0  0
   36.5200   28.9020   37.0750 C   0  0  0  0  0  0  0  0  0  0  0  0
   36.7290   28.4940   38.3540 N   0  0  0  0  0  0  0  0  0  0  0  0
   37.7530   27.7380   38.7190 C   0  0  0  0  0  0  0  0  0  0  0  0
   38.6610   27.3260   37.8170 N   0  0  0  0  0  0  0  0  0  0  0  0
   37.8710   27.3690   40.0820 N   0  0  0  0  0  0  0  0  0  0  0  0
   39.0770   26.8320   40.7070 C   0  0  0  0  0  0  0  0  0  0  0  0
   38.4870   25.7890   41.6560 C   0  0  0  0  0  0  0  0  0  0  0  0
   37.0130   26.0190   41.7050 C   0  0  0  0  0  0  0  0  0  0  0  0
   36.8890   27.4240   41.1380 C   0  0  1  0  0  0  0  0  0  0  0  0
   39.2440   27.3640   35.8040 H   0  0  0  0  0  0  0  0  0  0  0  0
   35.6870   29.5190   36.7650 H   0  0  0  0  0  0  0  0  0  0  0  0
   39.4970   27.6530   41.3090 H   0  0  0  0  0  0  0  0  0  0  0  0
   39.7750   26.3960   39.9920 H   0  0  0  0  0  0  0  0  0  0  0  0
   39.0040   25.8890   42.6440 H   0  0  0  0  0  0  0  0  0  0  0  0
   38.7180   24.7740   41.2730 H   0  0  0  0  0  0  0  0  0  0  0  0
   36.5470   25.8830   42.6760 H   0  0  0  0  0  0  0  0  0  0  0  0
   36.5130   25.3400   40.9550 H   0  0  0  0  0  0  0  0  0  0  0  0
   35.8590   27.5170   40.7620 H   0  0  0  0  0  0  0  0  0  0  0  0
   37.3570   28.8410   34.7410 N   0  0  0  0  0  0  0  0  0  0  0  0
   36.4910   28.3330   34.4200 H   0  0  0  0  0  0  0  0  0  0  0  0
   38.0730   29.4580   34.2950 H   0  0  0  0  0  0  0  0  0  0  0  0
   37.3060   28.6290   42.4020 S   0  0  0  0  0  0  0  0  0  0  0  0
   37.0360   31.1630   41.0750 C   0  0  0  0  0  0  0  0  0  0  0  0
   37.7910   30.1760   41.6610 C   0  0  0  0  0  0  0  0  0  0  0  0
   39.1800   30.3450   41.7280 C   0  0  0  0  0  0  0  0  0  0  0  0
   39.9190   29.6570   42.1600 H   0  0  0  0  0  0  0  0  0  0  0  0
   39.7870   31.4930   41.2090 C   0  0  0  0  0  3  0  0  0  0  0  0
   39.0050   32.4680   40.6270 C   0  0  0  0  0  3  0  0  0  0  0  0
   37.6310   32.2780   40.5720 C   0  0  0  0  0  0  0  0  0  0  0  0
   35.6870   30.8680   41.0780 O   0  0  0  0  0  0  0  0  0  0  0  0
   35.1240   30.9990   40.2310 H   0  0  0  0  0  0  0  0  0  0  0  0
   36.7170   33.1870   40.0080 O   0  0  0  0  0  0  0  0  0  0  0  0
   36.9860   34.1330   39.7950 H   0  0  0  0  0  0  0  0  0  0  0  0
  1  6  1  0  0  0  0
  2  1  2  0  0  0  0
  2  3  1  0  0  0  0
  3  4  2  0  0  0  0
  4  5  1  0  0  0  0
  5  7  1  0  0  0  0
  6  5  2  0  0  0  0
  7  8  1  0  0  0  0
  7 11  1  0  0  0  0
  8 14  1  0  0  0  0
  8  9  1  0  0  0  0
  9 10  1  0  0  0  0
  9 16  1  0  0  0  0
 10 18  1  0  0  0  0
 11 20  1  6  0  0  0
 11 10  1  0  0  0  0
 11 24  1  0  0  0  0
 12  1  1  0  0  0  0
 13  3  1  0  0  0  0
 15  8  1  0  0  0  0
 17  9  1  0  0  0  0
 19 10  1  0  0  0  0
 21  2  1  0  0  0  0
 22 21  1  0  0  0  0
 23 21  1  0  0  0  0
 25 32  1  0  0  0  0
 25 26  1  0  0  0  0
 26 27  2  0  0  0  0
 26 24  1  0  0  0  0
 27 28  1  0  0  0  0
 29 27  1  0  0  0  0
 30 29  2  0  0  0  0
 31 30  1  0  0  0  0
 31 25  2  0  0  0  0
 33 32  1  0  0  0  0
 34 31  1  0  0  0  0
 35 34  1  0  0  0  0
M  END
>  <minimizedAffinity>
-6.02921343

$$$$

 OpenBabel03252506353D

 35 37  0  0  1  0  0  0  0  0999 V2000
   41.8770   29.0820   41.9320 C   0  0  0  0  0  0  0  0  0  0  0  0
   42.1760   28.7090   40.6020 C   0  0  0  0  0  0  0  0  0  0  0  0
   41.1880   28.1910   39.8190 C   0  0  0  0  0  0  0  0  0  0  0  0
   39.9560   28.0660   40.3770 N   0  0  0  0  0  0  0  0  0  0  0  0
   39.6820   28.4180   41.6240 C   0  0  0  0  0  0  0  0  0  0  0  0
   40.6370   28.9310   42.4200 N   0  0  0  0  0  0  0  0  0  0  0  0
   38.3610   28.2400   42.1030 N   0  0  0  0  0  0  0  0  0  0  0  0
   37.8120   28.8600   43.3070 C   0  0  0  0  0  0  0  0  0  0  0  0
   36.9480   27.7270   43.8630 C   0  0  0  0  0  0  0  0  0  0  0  0
   36.8480   26.6850   42.8000 C   0  0  0  0  0  0  0  0  0  0  0  0
   37.2830   27.4490   41.5600 C   0  0  1  0  0  0  0  0  0  0  0  0
   42.6490   29.4950   42.5700 H   0  0  0  0  0  0  0  0  0  0  0  0
   41.4230   27.9070   38.8020 H   0  0  0  0  0  0  0  0  0  0  0  0
   37.1470   29.6640   42.9580 H   0  0  0  0  0  0  0  0  0  0  0  0
   38.5770   29.1830   44.0130 H   0  0  0  0  0  0  0  0  0  0  0  0
   35.9670   28.1630   44.1770 H   0  0  0  0  0  0  0  0  0  0  0  0
   37.4260   27.3180   44.7770 H   0  0  0  0  0  0  0  0  0  0  0  0
   35.8830   26.1940   42.7100 H   0  0  0  0  0  0  0  0  0  0  0  0
   37.6460   25.9060   42.9760 H   0  0  0  0  0  0  0  0  0  0  0  0
   37.6280   26.6940   40.8360 H   0  0  0  0  0  0  0  0  0  0  0  0
   43.5350   28.9120   40.1730 N   0  0  0  0  0  0  0  0  0  0  0  0
   43.8820   27.9270   40.0290 H   0  0  0  0  0  0  0  0  0  0  0  0
   43.9390   29.8700   40.0740 H   0  0  0  0  0  0  0  0  0  0  0  0
   35.9250   28.4570   40.9590 S   0  0  0  0  0  0  0  0  0  0  0  0
   36.4810   31.2150   40.3750 C   0  0  0  0  0  0  0  0  0  0  0  0
   36.5390   29.8760   40.0720 C   0  0  0  0  0  0  0  0  0  0  0  0
   37.1750   29.4840   38.8870 C   0  0  0  0  0  0  0  0  0  0  0  0
   37.3060   28.4640   38.5010 H   0  0  0  0  0  0  0  0  0  0  0  0
   37.7380   30.4340   38.0280 C   0  0  0  0  0  3  0  0  0  0  0  0
   37.6650   31.7710   38.3570 C   0  0  0  0  0  3  0  0  0  0  0  0
   37.0310   32.1350   39.5370 C   0  0  0  0  0  0  0  0  0  0  0  0
   35.8290   31.4580   41.5680 O   0  0  0  0  0  0  0  0  0  0  0  0
   35.1220   32.1970   41.6330 H   0  0  0  0  0  0  0  0  0  0  0  0
   36.8840   33.4570   39.9940 O   0  0  0  0  0  0  0  0  0  0  0  0
   37.4170   34.2110   39.5930 H   0  0  0  0  0  0  0  0  0  0  0  0
  1  6  1  0  0  0  0
  1 12  1  0  0  0  0
  2  1  2  0  0  0  0
  3  4  2  0  0  0  0
  3  2  1  0  0  0  0
  4  5  1  0  0  0  0
  5  7  1  0  0  0  0
  5  6  2  0  0  0  0
  7  8  1  0  0  0  0
  8  9  1  0  0  0  0
  8 15  1  0  0  0  0
  9 16  1  0  0  0  0
  9 17  1  0  0  0  0
 10 19  1  0  0  0  0
 10  9  1  0  0  0  0
 11 20  1  6  0  0  0
 11  7  1  0  0  0  0
 11 10  1  0  0  0  0
 13  3  1  0  0  0  0
 14  8  1  0  0  0  0
 18 10  1  0  0  0  0
 21  2  1  0  0  0  0
 22 21  1  0  0  0  0
 23 21  1  0  0  0  0
 24 11  1  0  0  0  0
 25 32  1  0  0  0  0
 26 25  1  0  0  0  0
 26 24  1  0  0  0  0
 27 26  2  0  0  0  0
 28 27  1  0  0  0  0
 29 30  2  0  0  0  0
 29 27  1  0  0  0  0
 30 31  1  0  0  0  0
 31 34  1  0  0  0  0
 31 25  2  0  0  0  0
 32 33  1  0  0  0  0
 35 34  1  0  0  0  0
M  END
>  <minimizedAffinity>
-6.02369738

$$$$

 OpenBabel03252506353D

 35 37  0  0  1  0  0  0  0  0999 V2000
   38.6580   27.9310   43.3410 C   0  0  0  0  0  0  0  0  0  0  0  0
   39.9580   27.6640   42.8580 C   0  0  0  0  0  0  0  0  0  0  0  0
   40.2430   27.9040   41.5470 C   0  0  0  0  0  0  0  0  0  0  0  0
   39.2380   28.3940   40.7750 N   0  0  0  0  0  0  0  0  0  0  0  0
   38.0210   28.6420   41.2340 C   0  0  0  0  0  0  0  0  0  0  0  0
   37.7120   28.4150   42.5230 N   0  0  0  0  0  0  0  0  0  0  0  0
   37.0500   29.1500   40.3370 N   0  0  0  0  0  0  0  0  0  0  0  0
   35.7890   29.7770   40.7280 C   0  0  0  0  0  0  0  0  0  0  0  0
   34.8380   29.2380   39.6580 C   0  0  0  0  0  0  0  0  0  0  0  0
   35.6780   28.6010   38.6020 C   0  0  0  0  0  0  0  0  0  0  0  0
   37.0540   29.1780   38.8940 C   0  0  1  0  0  0  0  0  0  0  0  0
   38.4120   27.7470   44.3810 H   0  0  0  0  0  0  0  0  0  0  0  0
   41.2400   27.6970   41.1830 H   0  0  0  0  0  0  0  0  0  0  0  0
   35.9230   30.8570   40.5630 H   0  0  0  0  0  0  0  0  0  0  0  0
   35.4710   29.5120   41.7370 H   0  0  0  0  0  0  0  0  0  0  0  0
   34.2070   30.0880   39.2970 H   0  0  0  0  0  0  0  0  0  0  0  0
   34.1510   28.4980   40.1190 H   0  0  0  0  0  0  0  0  0  0  0  0
   35.3390   28.7430   37.5800 H   0  0  0  0  0  0  0  0  0  0  0  0
   35.7580   27.4950   38.8160 H   0  0  0  0  0  0  0  0  0  0  0  0
   37.7830   28.4800   38.4540 H   0  0  0  0  0  0  0  0  0  0  0  0
   40.9010   27.1480   43.8150 N   0  0  0  0  0  0  0  0  0  0  0  0
   41.0780   26.1700   43.4620 H   0  0  0  0  0  0  0  0  0  0  0  0
   41.2370   27.7270   44.6180 H   0  0  0  0  0  0  0  0  0  0  0  0
   37.1650   30.8450   38.2380 S   0  0  0  0  0  0  0  0  0  0  0  0
   38.1080   32.8600   40.0570 C   0  0  0  0  0  0  0  0  0  0  0  0
   38.3190   31.8180   39.1860 C   0  0  0  0  0  0  0  0  0  0  0  0
   39.6340   31.3920   38.9590 C   0  0  0  0  0  0  0  0  0  0  0  0
   39.9710   30.5810   38.2990 H   0  0  0  0  0  0  0  0  0  0  0  0
   40.7100   32.0120   39.6030 C   0  0  0  0  0  3  0  0  0  0  0  0
   40.4680   33.0550   40.4710 C   0  0  0  0  0  3  0  0  0  0  0  0
   39.1580   33.4600   40.6810 C   0  0  0  0  0  0  0  0  0  0  0  0
   36.7700   33.1750   40.1880 O   0  0  0  0  0  0  0  0  0  0  0  0
   36.4600   34.1520   40.1510 H   0  0  0  0  0  0  0  0  0  0  0  0
   38.7680   34.5070   41.5360 O   0  0  0  0  0  0  0  0  0  0  0  0
   39.4050   34.8920   42.2140 H   0  0  0  0  0  0  0  0  0  0  0  0
  1 12  1  0  0  0  0
  2  1  1  0  0  0  0
  2 21  1  0  0  0  0
  3  2  2  0  0  0  0
  4  5  2  0  0  0  0
  4  3  1  0  0  0  0
  5  6  1  0  0  0  0
  6  1  2  0  0  0  0
  7  8  1  0  0  0  0
  7  5  1  0  0  0  0
  8 15  1  0  0  0  0
  9 17  1  0  0  0  0
  9  8  1  0  0  0  0
 10 19  1  0  0  0  0
 10 11  1  0  0  0  0
 10  9  1  0  0  0  0
 11 20  1  6  0  0  0
 11  7  1  0  0  0  0
 13  3  1  0  0  0  0
 14  8  1  0  0  0  0
 16  9  1  0  0  0  0
 18 10  1  0  0  0  0
 21 23  1  0  0  0  0
 22 21  1  0  0  0  0
 24 11  1  0  0  0  0
 24 26  1  0  0  0  0
 25 32  1  0  0  0  0
 25 31  1  0  0  0  0
 26 25  2  0  0  0  0
 27 26  1  0  0  0  0
 27 29  2  0  0  0  0
 28 27  1  0  0  0  0
 29 30  1  0  0  0  0
 30 31  2  0  0  0  0
 31 34  1  0  0  0  0
 33 32  1  0  0  0  0
 34 35  1  0  0  0  0
M  END
>  <minimizedAffinity>
-6.02007103

$$$$

 OpenBabel03252506353D

 35 37  0  0  1  0  0  0  0  0999 V2000
   43.3670   29.7690   35.5720 C   0  0  0  0  0  0  0  0  0  0  0  0
   42.9540   28.5490   36.1520 C   0  0  0  0  0  0  0  0  0  0  0  0
   42.2460   28.5720   37.3160 C   0  0  0  0  0  0  0  0  0  0  0  0
   41.9800   29.7910   37.8540 N   0  0  0  0  0  0  0  0  0  0  0  0
   42.3710   30.9310   37.3060 C   0  0  0  0  0  0  0  0  0  0  0  0
   43.0700   30.9380   36.1580 N   0  0  0  0  0  0  0  0  0  0  0  0
   42.0380   32.1450   37.9570 N   0  0  0  0  0  0  0  0  0  0  0  0
   42.0960   33.4710   37.3450 C   0  0  0  0  0  0  0  0  0  0  0  0
   42.6180   34.3170   38.5070 C   0  0  0  0  0  0  0  0  0  0  0  0
   42.5360   33.4760   39.7380 C   0  0  0  0  0  0  0  0  0  0  0  0
   41.5850   32.3710   39.3080 C   0  0  1  0  0  0  0  0  0  0  0  0
   43.9310   29.7710   34.6460 H   0  0  0  0  0  0  0  0  0  0  0  0
   41.9330   27.6350   37.7560 H   0  0  0  0  0  0  0  0  0  0  0  0
   41.0520   33.7590   37.1470 H   0  0  0  0  0  0  0  0  0  0  0  0
   42.7490   33.5150   36.4730 H   0  0  0  0  0  0  0  0  0  0  0  0
   42.0140   35.2570   38.5480 H   0  0  0  0  0  0  0  0  0  0  0  0
   43.6660   34.6160   38.2990 H   0  0  0  0  0  0  0  0  0  0  0  0
   42.2410   33.9960   40.6440 H   0  0  0  0  0  0  0  0  0  0  0  0
   43.5330   32.9750   39.9050 H   0  0  0  0  0  0  0  0  0  0  0  0
   41.7810   31.5170   39.9750 H   0  0  0  0  0  0  0  0  0  0  0  0
   43.3220   27.3490   35.4460 N   0  0  0  0  0  0  0  0  0  0  0  0
   44.0020   26.8900   36.1080 H   0  0  0  0  0  0  0  0  0  0  0  0
   42.9240   27.1250   34.5070 H   0  0  0  0  0  0  0  0  0  0  0  0
   39.8920   32.9640   39.3760 S   0  0  0  0  0  0  0  0  0  0  0  0
   37.5140   31.8300   40.5230 C   0  0  0  0  0  0  0  0  0  0  0  0
   38.8310   31.7510   40.1380 C   0  0  0  0  0  0  0  0  0  0  0  0
   39.5180   30.5480   40.3420 C   0  0  0  0  0  0  0  0  0  0  0  0
   40.5640   30.3220   40.0940 H   0  0  0  0  0  0  0  0  0  0  0  0
   38.8790   29.4490   40.9270 C   0  0  0  0  0  3  0  0  0  0  0  0
   37.5570   29.5560   41.3040 C   0  0  0  0  0  3  0  0  0  0  0  0
   36.8970   30.7590   41.0910 C   0  0  0  0  0  0  0  0  0  0  0  0
   36.9620   33.0690   40.2630 O   0  0  0  0  0  0  0  0  0  0  0  0
   36.4010   33.5480   40.9750 H   0  0  0  0  0  0  0  0  0  0  0  0
   35.5540   31.0070   41.4260 O   0  0  0  0  0  0  0  0  0  0  0  0
   34.9240   30.2550   41.6510 H   0  0  0  0  0  0  0  0  0  0  0  0
  1  2  2  0  0  0  0
  1  6  1  0  0  0  0
  2  3  1  0  0  0  0
  3 13  1  0  0  0  0
  3  4  2  0  0  0  0
  5  4  1  0  0  0  0
  5  7  1  0  0  0  0
  6  5  2  0  0  0  0
  7 11  1  0  0  0  0
  8  7  1  0  0  0  0
  8  9  1  0  0  0  0
  9 16  1  0  0  0  0
  9 10  1  0  0  0  0
 10 19  1  0  0  0  0
 10 18  1  0  0  0  0
 11 24  1  0  0  0  0
 11 10  1  0  0  0  0
 11 20  1  1  0  0  0
 12  1  1  0  0  0  0
 14  8  1  0  0  0  0
 15  8  1  0  0  0  0
 17  9  1  0  0  0  0
 21 22  1  0  0  0  0
 21  2  1  0  0  0  0
 23 21  1  0  0  0  0
 24 26  1  0  0  0  0
 25 31  1  0  0  0  0
 26 27  1  0  0  0  0
 26 25  2  0  0  0  0
 27 29  2  0  0  0  0
 28 27  1  0  0  0  0
 29 30  1  0  0  0  0
 31 30  2  0  0  0  0
 31 34  1  0  0  0  0
 32 25  1  0  0  0  0
 32 33  1  0  0  0  0
 34 35  1  0  0  0  0
M  END
>  <minimizedAffinity>
-5.82136488

$$$$

 OpenBabel03252506353D

 35 37  0  0  1  0  0  0  0  0999 V2000
   37.9660   27.4480   36.4590 C   0  0  0  0  0  0  0  0  0  0  0  0
   37.3310   28.6050   35.9550 C   0  0  0  0  0  0  0  0  0  0  0  0
   36.8590   29.5380   36.8290 C   0  0  0  0  0  0  0  0  0  0  0  0
   37.0330   29.2910   38.1530 N   0  0  0  0  0  0  0  0  0  0  0  0
   37.6290   28.2040   38.6190 C   0  0  0  0  0  0  0  0  0  0  0  0
   38.1040   27.2670   37.7810 N   0  0  0  0  0  0  0  0  0  0  0  0
   37.7530   28.0490   40.0220 N   0  0  0  0  0  0  0  0  0  0  0  0
   38.6470   27.1040   40.6880 C   0  0  0  0  0  0  0  0  0  0  0  0
   37.7810   26.6430   41.8610 C   0  0  0  0  0  0  0  0  0  0  0  0
   36.6060   27.5610   41.9300 C   0  0  0  0  0  0  0  0  0  0  0  0
   37.0700   28.7400   41.0890 C   0  0  1  0  0  0  0  0  0  0  0  0
   38.3470   26.6940   35.7800 H   0  0  0  0  0  0  0  0  0  0  0  0
   36.3740   30.4220   36.4370 H   0  0  0  0  0  0  0  0  0  0  0  0
   39.4800   27.7040   41.0850 H   0  0  0  0  0  0  0  0  0  0  0  0
   38.9540   26.2770   40.0480 H   0  0  0  0  0  0  0  0  0  0  0  0
   38.4190   26.6390   42.7800 H   0  0  0  0  0  0  0  0  0  0  0  0
   37.4580   25.5960   41.6870 H   0  0  0  0  0  0  0  0  0  0  0  0
   36.2730   27.8250   42.9290 H   0  0  0  0  0  0  0  0  0  0  0  0
   35.7480   27.0980   41.3620 H   0  0  0  0  0  0  0  0  0  0  0  0
   36.1590   29.2570   40.7510 H   0  0  0  0  0  0  0  0  0  0  0  0
   37.2330   28.7070   34.5220 N   0  0  0  0  0  0  0  0  0  0  0  0
   36.1940   28.6370   34.3550 H   0  0  0  0  0  0  0  0  0  0  0  0
   38.0820   28.8200   33.9240 H   0  0  0  0  0  0  0  0  0  0  0  0
   38.1720   29.7780   42.0530 S   0  0  0  0  0  0  0  0  0  0  0  0
   39.3680   32.3020   41.3780 C   0  0  0  0  0  0  0  0  0  0  0  0
   38.3530   31.3800   41.2920 C   0  0  0  0  0  0  0  0  0  0  0  0
   37.2450   31.6760   40.4880 C   0  0  0  0  0  0  0  0  0  0  0  0
   36.3570   31.0530   40.3130 H   0  0  0  0  0  0  0  0  0  0  0  0
   37.1710   32.8850   39.7880 C   0  0  0  0  0  3  0  0  0  0  0  0
   38.2040   33.7920   39.8930 C   0  0  0  0  0  3  0  0  0  0  0  0
   39.2910   33.4770   40.6950 C   0  0  0  0  0  0  0  0  0  0  0  0
   40.3940   31.8820   42.2010 O   0  0  0  0  0  0  0  0  0  0  0  0
   40.7930   32.5170   42.9000 H   0  0  0  0  0  0  0  0  0  0  0  0
   40.4100   34.3050   40.8930 O   0  0  0  0  0  0  0  0  0  0  0  0
   40.5870   35.0960   40.2950 H   0  0  0  0  0  0  0  0  0  0  0  0
  1  6  1  0  0  0  0
  2  1  2  0  0  0  0
  2  3  1  0  0  0  0
  3  4  2  0  0  0  0
  4  5  1  0  0  0  0
  5  7  1  0  0  0  0
  6  5  2  0  0  0  0
  7  8  1  0  0  0  0
  7 11  1  0  0  0  0
  8 14  1  0  0  0  0
  8  9  1  0  0  0  0
  9 10  1  0  0  0  0
  9 16  1  0  0  0  0
 10 18  1  0  0  0  0
 11 20  1  6  0  0  0
 11 10  1  0  0  0  0
 11 24  1  0  0  0  0
 12  1  1  0  0  0  0
 13  3  1  0  0  0  0
 15  8  1  0  0  0  0
 17  9  1  0  0  0  0
 19 10  1  0  0  0  0
 21  2  1  0  0  0  0
 22 21  1  0  0  0  0
 23 21  1  0  0  0  0
 25 32  1  0  0  0  0
 26 25  1  0  0  0  0
 26 24  1  0  0  0  0
 27 26  2  0  0  0  0
 28 27  1  0  0  0  0
 29 30  2  0  0  0  0
 29 27  1  0  0  0  0
 30 31  1  0  0  0  0
 31 34  1  0  0  0  0
 31 25  2  0  0  0  0
 32 33  1  0  0  0  0
 35 34  1  0  0  0  0
M  END
>  <minimizedAffinity>
-5.69907522

$$$$

 OpenBabel03252506353D

 35 37  0  0  1  0  0  0  0  0999 V2000
   34.9440   28.5790   37.8640 C   0  0  0  0  0  0  0  0  0  0  0  0
   35.5240   27.2950   37.9680 C   0  0  0  0  0  0  0  0  0  0  0  0
   36.7590   27.1660   38.5290 C   0  0  0  0  0  0  0  0  0  0  0  0
   37.3650   28.3030   38.9600 N   0  0  0  0  0  0  0  0  0  0  0  0
   36.8160   29.5040   38.8600 C   0  0  0  0  0  0  0  0  0  0  0  0
   35.5990   29.6610   38.3110 N   0  0  0  0  0  0  0  0  0  0  0  0
   37.5410   30.6220   39.3420 N   0  0  0  0  0  0  0  0  0  0  0  0
   36.9720   31.9410   39.6090 C   0  0  0  0  0  0  0  0  0  0  0  0
   38.0980   32.8580   39.1290 C   0  0  0  0  0  0  0  0  0  0  0  0
   39.3010   32.0020   38.9070 C   0  0  0  0  0  0  0  0  0  0  0  0
   38.9410   30.7390   39.6720 C   0  0  1  0  0  0  0  0  0  0  0  0
   33.9630   28.7010   37.4210 H   0  0  0  0  0  0  0  0  0  0  0  0
   37.1980   26.1810   38.6050 H   0  0  0  0  0  0  0  0  0  0  0  0
   36.9000   32.0240   40.7050 H   0  0  0  0  0  0  0  0  0  0  0  0
   36.0360   32.1220   39.0810 H   0  0  0  0  0  0  0  0  0  0  0  0
   38.2380   33.6630   39.8940 H   0  0  0  0  0  0  0  0  0  0  0  0
   37.7870   33.3570   38.1880 H   0  0  0  0  0  0  0  0  0  0  0  0
   40.2520   32.4440   39.1910 H   0  0  0  0  0  0  0  0  0  0  0  0
   39.3400   31.7020   37.8200 H   0  0  0  0  0  0  0  0  0  0  0  0
   39.5520   29.9310   39.2410 H   0  0  0  0  0  0  0  0  0  0  0  0
   34.7410   26.1980   37.4600 N   0  0  0  0  0  0  0  0  0  0  0  0
   35.3080   25.8720   36.6330 H   0  0  0  0  0  0  0  0  0  0  0  0
   33.8440   25.9120   37.9130 H   0  0  0  0  0  0  0  0  0  0  0  0
   39.2150   30.9920   41.4280 S   0  0  0  0  0  0  0  0  0  0  0  0
   37.5590   29.0800   42.7920 C   0  0  0  0  0  0  0  0  0  0  0  0
   38.7810   29.5290   42.3490 C   0  0  0  0  0  0  0  0  0  0  0  0
   39.9180   28.7600   42.6270 C   0  0  0  0  0  0  0  0  0  0  0  0
   40.9580   28.9760   42.3470 H   0  0  0  0  0  0  0  0  0  0  0  0
   39.8160   27.5610   43.3400 C   0  0  0  0  0  3  0  0  0  0  0  0
   38.5780   27.1350   43.7730 C   0  0  0  0  0  3  0  0  0  0  0  0
   37.4650   27.9130   43.4860 C   0  0  0  0  0  0  0  0  0  0  0  0
   36.5280   29.9310   42.4490 O   0  0  0  0  0  0  0  0  0  0  0  0
   35.8210   30.1970   43.1420 H   0  0  0  0  0  0  0  0  0  0  0  0
   36.1470   27.6000   43.8640 O   0  0  0  0  0  0  0  0  0  0  0  0
   35.9020   26.6790   44.1890 H   0  0  0  0  0  0  0  0  0  0  0  0
  1  2  2  0  0  0  0
  1  6  1  0  0  0  0
  2  3  1  0  0  0  0
  3 13  1  0  0  0  0
  3  4  2  0  0  0  0
  5  4  1  0  0  0  0
  5  7  1  0  0  0  0
  6  5  2  0  0  0  0
  7  8  1  0  0  0  0
  7 11  1  0  0  0  0
  8 14  1  0  0  0  0
  9  8  1  0  0  0  0
  9 16  1  0  0  0  0
 10  9  1  0  0  0  0
 10 18  1  0  0  0  0
 10 11  1  0  0  0  0
 11 20  1  6  0  0  0
 11 24  1  0  0  0  0
 12  1  1  0  0  0  0
 15  8  1  0  0  0  0
 17  9  1  0  0  0  0
 19 10  1  0  0  0  0
 21 23  1  0  0  0  0
 21  2  1  0  0  0  0
 22 21  1  0  0  0  0
 24 26  1  0  0  0  0
 25 31  1  0  0  0  0
 26 27  1  0  0  0  0
 26 25  2  0  0  0  0
 27 29  2  0  0  0  0
 28 27  1  0  0  0  0
 29 30  1  0  0  0  0
 31 30  2  0  0  0  0
 31 34  1  0  0  0  0
 32 25  1  0  0  0  0
 32 33  1  0  0  0  0
 34 35  1  0  0  0  0
M  END
>  <minimizedAffinity>
-5.68949223

$$$$

 OpenBabel03252506353D

 35 37  0  0  1  0  0  0  0  0999 V2000
   35.7640   26.8970   38.2460 C   0  0  0  0  0  0  0  0  0  0  0  0
   35.1770   28.0610   37.7020 C   0  0  0  0  0  0  0  0  0  0  0  0
   35.3430   29.2510   38.3430 C   0  0  0  0  0  0  0  0  0  0  0  0
   36.0760   29.2420   39.4870 N   0  0  0  0  0  0  0  0  0  0  0  0
   36.6240   28.1470   39.9920 C   0  0  0  0  0  0  0  0  0  0  0  0
   36.4770   26.9590   39.3810 N   0  0  0  0  0  0  0  0  0  0  0  0
   37.3670   28.2540   41.1930 N   0  0  0  0  0  0  0  0  0  0  0  0
   38.2920   27.2440   41.7040 C   0  0  0  0  0  0  0  0  0  0  0  0
   38.0180   27.3150   43.2060 C   0  0  0  0  0  0  0  0  0  0  0  0
   37.1930   28.5350   43.4480 C   0  0  0  0  0  0  0  0  0  0  0  0
   37.4000   29.3220   42.1630 C   0  0  1  0  0  0  0  0  0  0  0  0
   35.6430   25.9400   37.7500 H   0  0  0  0  0  0  0  0  0  0  0  0
   34.8910   30.1390   37.9220 H   0  0  0  0  0  0  0  0  0  0  0  0
   39.3030   27.6360   41.5150 H   0  0  0  0  0  0  0  0  0  0  0  0
   38.1110   26.2490   41.2950 H   0  0  0  0  0  0  0  0  0  0  0  0
   39.0030   27.3090   43.7370 H   0  0  0  0  0  0  0  0  0  0  0  0
   37.4750   26.4000   43.5230 H   0  0  0  0  0  0  0  0  0  0  0  0
   37.4230   29.0870   44.3550 H   0  0  0  0  0  0  0  0  0  0  0  0
   36.1030   28.2440   43.4570 H   0  0  0  0  0  0  0  0  0  0  0  0
   36.5420   30.0060   42.0770 H   0  0  0  0  0  0  0  0  0  0  0  0
   34.4330   27.8900   36.4810 N   0  0  0  0  0  0  0  0  0  0  0  0
   33.4440   28.1000   36.7810 H   0  0  0  0  0  0  0  0  0  0  0  0
   34.9040   27.6180   35.5890 H   0  0  0  0  0  0  0  0  0  0  0  0
   38.9870   30.1590   42.2120 S   0  0  0  0  0  0  0  0  0  0  0  0
   37.8950   32.2920   40.6270 C   0  0  0  0  0  0  0  0  0  0  0  0
   38.9490   31.6380   41.2180 C   0  0  0  0  0  0  0  0  0  0  0  0
   40.2370   32.1650   41.0610 C   0  0  0  0  0  0  0  0  0  0  0  0
   41.1790   31.7670   41.4650 H   0  0  0  0  0  0  0  0  0  0  0  0
   40.4490   33.3310   40.3180 C   0  0  0  0  0  3  0  0  0  0  0  0
   39.3730   33.9660   39.7360 C   0  0  0  0  0  3  0  0  0  0  0  0
   38.1060   33.4260   39.9050 C   0  0  0  0  0  0  0  0  0  0  0  0
   36.6870   31.6670   40.8630 O   0  0  0  0  0  0  0  0  0  0  0  0
   36.0230   31.5120   40.0970 H   0  0  0  0  0  0  0  0  0  0  0  0
   36.9240   33.9680   39.3690 O   0  0  0  0  0  0  0  0  0  0  0  0
   36.8990   34.9040   39.0000 H   0  0  0  0  0  0  0  0  0  0  0  0
  1  6  1  0  0  0  0
  2  1  2  0  0  0  0
  2  3  1  0  0  0  0
  3  4  2  0  0  0  0
  4  5  1  0  0  0  0
  5  7  1  0  0  0  0
  6  5  2  0  0  0  0
  7  8  1  0  0  0  0
  7 11  1  0  0  0  0
  8  9  1  0  0  0  0
  9 10  1  0  0  0  0
  9 17  1  0  0  0  0
  9 16  1  0  0  0  0
 10 19  1  0  0  0  0
 10 18  1  0  0  0  0
 11 20  1  6  0  0  0
 11 24  1  0  0  0  0
 11 10  1  0  0  0  0
 12  1  1  0  0  0  0
 13  3  1  0  0  0  0
 14  8  1  0  0  0  0
 15  8  1  0  0  0  0
 21 22  1  0  0  0  0
 21  2  1  0  0  0  0
 23 21  1  0  0  0  0
 25 32  1  0  0  0  0
 25 26  1  0  0  0  0
 26 24  1  0  0  0  0
 27 26  2  0  0  0  0
 27 28  1  0  0  0  0
 29 27  1  0  0  0  0
 30 31  1  0  0  0  0
 30 29  2  0  0  0  0
 31 25  2  0  0  0  0
 33 32  1  0  0  0  0
 34 31  1  0  0  0  0
 35 34  1  0  0  0  0
M  END
>  <minimizedAffinity>
-5.62997437

$$$$

 OpenBabel03252506353D

 35 37  0  0  1  0  0  0  0  0999 V2000
   37.7480   31.8580   38.7390 C   0  0  0  0  0  0  0  0  0  0  0  0
   37.8890   31.1980   37.4980 C   0  0  0  0  0  0  0  0  0  0  0  0
   38.0280   29.8420   37.4780 C   0  0  0  0  0  0  0  0  0  0  0  0
   38.0210   29.2020   38.6770 N   0  0  0  0  0  0  0  0  0  0  0  0
   37.8890   29.8270   39.8360 C   0  0  0  0  0  0  0  0  0  0  0  0
   37.7500   31.1630   39.8860 N   0  0  0  0  0  0  0  0  0  0  0  0
   37.8980   29.0570   41.0250 N   0  0  0  0  0  0  0  0  0  0  0  0
   37.4460   29.5250   42.3340 C   0  0  0  0  0  0  0  0  0  0  0  0
   38.4770   28.8760   43.2590 C   0  0  0  0  0  0  0  0  0  0  0  0
   39.2350   27.8800   42.4470 C   0  0  0  0  0  0  0  0  0  0  0  0
   38.3310   27.6970   41.2380 C   0  0  1  0  0  0  0  0  0  0  0  0
   37.6370   32.9360   38.7750 H   0  0  0  0  0  0  0  0  0  0  0  0
   38.1350   29.3420   36.5260 H   0  0  0  0  0  0  0  0  0  0  0  0
   36.4710   29.0430   42.5080 H   0  0  0  0  0  0  0  0  0  0  0  0
   37.4340   30.6110   42.4230 H   0  0  0  0  0  0  0  0  0  0  0  0
   37.9300   28.4410   44.1330 H   0  0  0  0  0  0  0  0  0  0  0  0
   39.1530   29.6600   43.6590 H   0  0  0  0  0  0  0  0  0  0  0  0
   39.4960   26.9570   42.9570 H   0  0  0  0  0  0  0  0  0  0  0  0
   40.1750   28.3670   42.0560 H   0  0  0  0  0  0  0  0  0  0  0  0
   38.9710   27.3190   40.4270 H   0  0  0  0  0  0  0  0  0  0  0  0
   37.8730   32.0320   36.3250 N   0  0  0  0  0  0  0  0  0  0  0  0
   38.8560   31.9320   35.9560 H   0  0  0  0  0  0  0  0  0  0  0  0
   37.0140   32.5520   36.0370 H   0  0  0  0  0  0  0  0  0  0  0  0
   36.9730   26.6000   41.6550 S   0  0  0  0  0  0  0  0  0  0  0  0
   37.6350   23.8490   41.1530 C   0  0  0  0  0  0  0  0  0  0  0  0
   37.1120   25.0610   40.7670 C   0  0  0  0  0  0  0  0  0  0  0  0
   36.5780   25.1800   39.4780 C   0  0  0  0  0  0  0  0  0  0  0  0
   36.1260   26.0710   39.0190 H   0  0  0  0  0  0  0  0  0  0  0  0
   36.5760   24.0920   38.6000 C   0  0  0  0  0  3  0  0  0  0  0  0
   37.1070   22.8880   39.0120 C   0  0  0  0  0  3  0  0  0  0  0  0
   37.6310   22.7940   40.2940 C   0  0  0  0  0  0  0  0  0  0  0  0
   38.1240   23.8720   42.4430 O   0  0  0  0  0  0  0  0  0  0  0  0
   39.0420   23.4690   42.6590 H   0  0  0  0  0  0  0  0  0  0  0  0
   38.2020   21.6320   40.8440 O   0  0  0  0  0  0  0  0  0  0  0  0
   38.0760   20.7320   40.4100 H   0  0  0  0  0  0  0  0  0  0  0  0
  1 12  1  0  0  0  0
  1  6  1  0  0  0  0
  2  1  2  0  0  0  0
  3  2  1  0  0  0  0
  3  4  2  0  0  0  0
  4  5  1  0  0  0  0
  5  6  2  0  0  0  0
  5  7  1  0  0  0  0
  7 11  1  0  0  0  0
  7  8  1  0  0  0  0
  8 15  1  0  0  0  0
  8 14  1  0  0  0  0
  8  9  1  0  0  0  0
  9 17  1  0  0  0  0
  9 16  1  0  0  0  0
 10 18  1  0  0  0  0
 10  9  1  0  0  0  0
 11 20  1  6  0  0  0
 11 24  1  0  0  0  0
 11 10  1  0  0  0  0
 13  3  1  0  0  0  0
 19 10  1  0  0  0  0
 21  2  1  0  0  0  0
 22 21  1  0  0  0  0
 23 21  1  0  0  0  0
 25 32  1  0  0  0  0
 26 25  1  0  0  0  0
 26 24  1  0  0  0  0
 27 26  2  0  0  0  0
 28 27  1  0  0  0  0
 29 30  2  0  0  0  0
 29 27  1  0  0  0  0
 30 31  1  0  0  0  0
 31 34  1  0  0  0  0
 31 25  2  0  0  0  0
 32 33  1  0  0  0  0
 35 34  1  0  0  0  0
M  END
>  <minimizedAffinity>
-5.62443972

$$$$
