
 OpenBabel03242520133D

 36 38  0  0  0  0  0  0  0  0999 V2000
   38.0500   31.1850   40.8880 C   0  0  0  0  0  0  0  0  0  0  0  0
   37.1430   31.1570   39.8790 C   0  0  0  0  0  0  0  0  0  0  0  0
   36.9710   32.2800   39.1020 C   0  0  0  0  0  0  0  0  0  0  0  0
   37.7160   33.4240   39.3490 C   0  0  0  0  0  0  0  0  0  0  0  0
   38.6350   33.4120   40.3900 C   0  0  0  0  0  0  0  0  0  0  0  0
   38.7630   32.3210   41.1010 N   0  0  0  0  0  0  0  0  0  0  0  0
   36.5670   30.2370   39.7080 H   0  0  0  0  0  0  0  0  0  0  0  0
   36.2420   32.2410   38.3020 H   0  0  0  0  0  0  0  0  0  0  0  0
   37.5930   34.3150   38.7490 H   0  0  0  0  0  0  0  0  0  0  0  0
   37.5470   28.4980   43.3130 C   0  0  0  0  0  0  0  0  0  0  0  0
   38.8450   27.9370   43.3880 C   0  0  0  0  0  0  0  0  0  0  0  0
   39.8890   28.4900   42.6010 C   0  0  0  0  0  0  0  0  0  0  0  0
   39.5340   29.5240   41.8370 N   0  0  0  0  0  0  0  0  0  0  0  0
   38.3130   30.0480   41.7700 C   0  0  0  0  0  0  0  0  0  0  0  0
   37.3180   29.5280   42.5140 N   0  0  0  0  0  0  0  0  0  0  0  0
   36.5210   27.9320   44.1030 N   0  0  0  0  0  0  0  0  0  0  0  0
   39.0370   27.0910   44.0420 H   0  0  0  0  0  0  0  0  0  0  0  0
   40.8850   28.0700   42.6480 H   0  0  0  0  0  0  0  0  0  0  0  0
   36.6480   27.0270   44.5760 H   0  0  0  0  0  0  0  0  0  0  0  0
   35.6200   28.4480   44.2050 H   0  0  0  0  0  0  0  0  0  0  0  0
   39.4400   34.5930   40.6850 C   0  0  0  0  0  3  0  0  0  0  0  0
   40.5380   34.9070   40.0030 C   0  0  0  0  0  3  0  0  0  0  0  0
   41.0360   34.0860   38.8880 C   0  0  0  0  0  0  0  0  0  0  0  0
   40.8480   34.6570   37.9470 H   0  0  0  0  0  0  0  0  0  0  0  0
   40.3570   33.1930   38.8090 H   0  0  0  0  0  0  0  0  0  0  0  0
   43.1860   33.9060   37.8560 C   0  0  0  0  0  0  0  0  0  0  0  0
   42.4650   33.7000   39.0210 C   0  0  0  0  0  0  0  0  0  0  0  0
   43.0250   33.1940   40.1750 C   0  0  0  0  0  0  0  0  0  0  0  0
   42.3950   33.0640   41.0390 H   0  0  0  0  0  0  0  0  0  0  0  0
   44.3880   32.8790   40.1440 C   0  0  0  0  0  3  0  0  0  0  0  0
   45.0890   33.0900   38.9770 C   0  0  0  0  0  3  0  0  0  0  0  0
   44.5460   33.5950   37.8160 C   0  0  0  0  0  0  0  0  0  0  0  0
   42.6460   34.4160   36.6790 O   0  0  0  0  0  0  0  0  0  0  0  0
   42.5460   35.4390   36.6720 H   0  0  0  0  0  0  0  0  0  0  0  0
   45.2770   33.7950   36.6580 O   0  0  0  0  0  0  0  0  0  0  0  0
   45.5030   34.7580   36.4170 H   0  0  0  0  0  0  0  0  0  0  0  0
  1  6  1  0  0  0  0
  1 14  1  0  0  0  0
  2  1  2  0  0  0  0
  3  4  2  0  0  0  0
  3  2  1  0  0  0  0
  4  5  1  0  0  0  0
  5 21  1  0  0  0  0
  5  6  2  0  0  0  0
  7  2  1  0  0  0  0
  8  3  1  0  0  0  0
  9  4  1  0  0  0  0
 10 11  1  0  0  0  0
 10 16  1  0  0  0  0
 11 17  1  0  0  0  0
 12 18  1  0  0  0  0
 12 11  2  0  0  0  0
 13 12  1  0  0  0  0
 14 13  2  0  0  0  0
 14 15  1  0  0  0  0
 15 10  2  0  0  0  0
 16 20  1  0  0  0  0
 16 19  1  0  0  0  0
 22 21  2  0  0  0  0
 23 27  1  0  0  0  0
 23 22  1  0  0  0  0
 24 23  1  0  0  0  0
 25 23  1  0  0  0  0
 26 27  1  0  0  0  0
 27 28  2  0  0  0  0
 28 29  1  0  0  0  0
 30 28  1  0  0  0  0
 31 30  2  0  0  0  0
 32 26  2  0  0  0  0
 32 31  1  0  0  0  0
 33 26  1  0  0  0  0
 34 33  1  0  0  0  0
 35 32  1  0  0  0  0
 36 35  1  0  0  0  0
M  END
>  <minimizedAffinity>
-7.08379412

$$$$

 OpenBabel03242520133D

 36 38  0  0  0  0  0  0  0  0999 V2000
   38.5750   28.9820   42.4940 C   0  0  0  0  0  0  0  0  0  0  0  0
   37.9860   28.7040   43.6850 C   0  0  0  0  0  0  0  0  0  0  0  0
   36.9380   27.8110   43.7210 C   0  0  0  0  0  0  0  0  0  0  0  0
   36.4930   27.2050   42.5550 C   0  0  0  0  0  0  0  0  0  0  0  0
   37.1230   27.5160   41.3570 C   0  0  0  0  0  0  0  0  0  0  0  0
   38.1140   28.3710   41.3730 N   0  0  0  0  0  0  0  0  0  0  0  0
   38.3600   29.1990   44.5920 H   0  0  0  0  0  0  0  0  0  0  0  0
   36.4800   27.6010   44.6800 H   0  0  0  0  0  0  0  0  0  0  0  0
   35.6720   26.5020   42.5650 H   0  0  0  0  0  0  0  0  0  0  0  0
   40.5060   31.9620   41.6360 C   0  0  0  0  0  0  0  0  0  0  0  0
   41.7980   31.6050   42.0920 C   0  0  0  0  0  0  0  0  0  0  0  0
   41.9960   30.3340   42.6940 C   0  0  0  0  0  0  0  0  0  0  0  0
   40.9060   29.5710   42.7750 N   0  0  0  0  0  0  0  0  0  0  0  0
   39.6940   29.9110   42.3440 C   0  0  0  0  0  0  0  0  0  0  0  0
   39.4990   31.1150   41.7730 N   0  0  0  0  0  0  0  0  0  0  0  0
   40.3290   33.2320   41.0420 N   0  0  0  0  0  0  0  0  0  0  0  0
   42.6280   32.2980   41.9820 H   0  0  0  0  0  0  0  0  0  0  0  0
   42.9790   30.0490   43.0470 H   0  0  0  0  0  0  0  0  0  0  0  0
   41.0570   33.9580   41.1030 H   0  0  0  0  0  0  0  0  0  0  0  0
   39.4400   33.4310   40.5320 H   0  0  0  0  0  0  0  0  0  0  0  0
   36.6870   26.9020   40.1070 C   0  0  0  0  0  3  0  0  0  0  0  0
   35.8340   27.4910   39.2730 C   0  0  0  0  0  3  0  0  0  0  0  0
   35.2550   28.8170   39.5420 C   0  0  0  0  0  0  0  0  0  0  0  0
   35.0940   28.8900   40.6440 H   0  0  0  0  0  0  0  0  0  0  0  0
   34.2160   28.8150   39.1110 H   0  0  0  0  0  0  0  0  0  0  0  0
   36.2830   30.9310   39.9800 C   0  0  0  0  0  0  0  0  0  0  0  0
   36.0780   29.9440   39.0300 C   0  0  0  0  0  0  0  0  0  0  0  0
   36.5900   30.0090   37.7510 C   0  0  0  0  0  0  0  0  0  0  0  0
   36.3830   29.1990   37.0720 H   0  0  0  0  0  0  0  0  0  0  0  0
   37.3490   31.1370   37.4180 C   0  0  0  0  0  3  0  0  0  0  0  0
   37.5420   32.1080   38.3750 C   0  0  0  0  0  3  0  0  0  0  0  0
   37.0390   32.0590   39.6570 C   0  0  0  0  0  0  0  0  0  0  0  0
   35.7790   30.8900   41.2760 O   0  0  0  0  0  0  0  0  0  0  0  0
   36.3270   30.3050   41.9210 H   0  0  0  0  0  0  0  0  0  0  0  0
   37.2510   33.0530   40.5970 O   0  0  0  0  0  0  0  0  0  0  0  0
   37.9060   32.8450   41.3470 H   0  0  0  0  0  0  0  0  0  0  0  0
  1  2  1  0  0  0  0
  2  3  2  0  0  0  0
  2  7  1  0  0  0  0
  3  8  1  0  0  0  0
  4  9  1  0  0  0  0
  4  3  1  0  0  0  0
  5  6  1  0  0  0  0
  5  4  2  0  0  0  0
  6  1  2  0  0  0  0
 10 15  2  0  0  0  0
 10 11  1  0  0  0  0
 11 12  2  0  0  0  0
 12 13  1  0  0  0  0
 12 18  1  0  0  0  0
 14  1  1  0  0  0  0
 14 13  2  0  0  0  0
 15 14  1  0  0  0  0
 16 19  1  0  0  0  0
 16 10  1  0  0  0  0
 17 11  1  0  0  0  0
 20 16  1  0  0  0  0
 21  5  1  0  0  0  0
 22 23  1  0  0  0  0
 22 21  2  0  0  0  0
 23 24  1  0  0  0  0
 25 23  1  0  0  0  0
 26 33  1  0  0  0  0
 27 23  1  0  0  0  0
 27 26  2  0  0  0  0
 28 27  1  0  0  0  0
 29 28  1  0  0  0  0
 30 28  2  0  0  0  0
 30 31  1  0  0  0  0
 31 32  2  0  0  0  0
 32 26  1  0  0  0  0
 32 35  1  0  0  0  0
 33 34  1  0  0  0  0
 35 36  1  0  0  0  0
M  END
>  <minimizedAffinity>
-6.97400379

$$$$

 OpenBabel03242520133D

 36 38  0  0  0  0  0  0  0  0999 V2000
   37.5930   30.2590   40.5640 C   0  0  0  0  0  0  0  0  0  0  0  0
   36.7080   29.6990   39.7010 C   0  0  0  0  0  0  0  0  0  0  0  0
   35.9690   28.6120   40.1110 C   0  0  0  0  0  0  0  0  0  0  0  0
   36.1290   28.0970   41.3890 C   0  0  0  0  0  0  0  0  0  0  0  0
   37.0450   28.6990   42.2420 C   0  0  0  0  0  0  0  0  0  0  0  0
   37.7240   29.7290   41.8080 N   0  0  0  0  0  0  0  0  0  0  0  0
   36.6030   30.1280   38.6950 H   0  0  0  0  0  0  0  0  0  0  0  0
   35.2680   28.1780   39.4080 H   0  0  0  0  0  0  0  0  0  0  0  0
   35.5580   27.2440   41.7270 H   0  0  0  0  0  0  0  0  0  0  0  0
   39.0580   33.6050   40.6450 C   0  0  0  0  0  0  0  0  0  0  0  0
   39.9920   33.5320   39.5840 C   0  0  0  0  0  0  0  0  0  0  0  0
   40.1110   32.3260   38.8440 C   0  0  0  0  0  0  0  0  0  0  0  0
   39.3010   31.3410   39.2340 N   0  0  0  0  0  0  0  0  0  0  0  0
   38.4240   31.4150   40.2320 C   0  0  0  0  0  0  0  0  0  0  0  0
   38.3070   32.5550   40.9380 N   0  0  0  0  0  0  0  0  0  0  0  0
   38.9550   34.8130   41.3710 N   0  0  0  0  0  0  0  0  0  0  0  0
   40.6110   34.3910   39.3400 H   0  0  0  0  0  0  0  0  0  0  0  0
   40.8220   32.2560   38.0310 H   0  0  0  0  0  0  0  0  0  0  0  0
   39.6590   35.5580   41.2710 H   0  0  0  0  0  0  0  0  0  0  0  0
   38.1490   34.9460   42.0190 H   0  0  0  0  0  0  0  0  0  0  0  0
   37.2450   28.1900   43.5950 C   0  0  0  0  0  3  0  0  0  0  0  0
   38.1490   27.2590   43.8910 C   0  0  0  0  0  3  0  0  0  0  0  0
   39.0260   26.6600   42.8730 C   0  0  0  0  0  0  0  0  0  0  0  0
   38.7000   27.0560   41.8810 H   0  0  0  0  0  0  0  0  0  0  0  0
   38.7770   25.5650   42.8270 H   0  0  0  0  0  0  0  0  0  0  0  0
   41.2000   25.7300   43.2330 C   0  0  0  0  0  0  0  0  0  0  0  0
   40.4730   26.9030   43.1120 C   0  0  0  0  0  0  0  0  0  0  0  0
   41.0420   28.1560   43.2050 C   0  0  0  0  0  0  0  0  0  0  0  0
   40.4060   29.0190   43.1010 H   0  0  0  0  0  0  0  0  0  0  0  0
   42.4210   28.2210   43.4330 C   0  0  0  0  0  3  0  0  0  0  0  0
   43.1270   27.0450   43.5490 C   0  0  0  0  0  3  0  0  0  0  0  0
   42.5760   25.7850   43.4590 C   0  0  0  0  0  0  0  0  0  0  0  0
   40.6510   24.4550   43.1430 O   0  0  0  0  0  0  0  0  0  0  0  0
   40.4930   24.1320   42.1790 H   0  0  0  0  0  0  0  0  0  0  0  0
   43.3130   24.6200   43.5810 O   0  0  0  0  0  0  0  0  0  0  0  0
   43.4880   24.0940   42.7270 H   0  0  0  0  0  0  0  0  0  0  0  0
  1  6  1  0  0  0  0
  2  3  1  0  0  0  0
  2  1  2  0  0  0  0
  3  4  2  0  0  0  0
  4  9  1  0  0  0  0
  4  5  1  0  0  0  0
  5 21  1  0  0  0  0
  6  5  2  0  0  0  0
  7  2  1  0  0  0  0
  8  3  1  0  0  0  0
 10 15  1  0  0  0  0
 10 16  1  0  0  0  0
 11 10  2  0  0  0  0
 12 13  2  0  0  0  0
 12 11  1  0  0  0  0
 13 14  1  0  0  0  0
 14  1  1  0  0  0  0
 14 15  2  0  0  0  0
 16 20  1  0  0  0  0
 17 11  1  0  0  0  0
 18 12  1  0  0  0  0
 19 16  1  0  0  0  0
 21 22  2  0  0  0  0
 23 27  1  0  0  0  0
 23 22  1  0  0  0  0
 24 23  1  0  0  0  0
 25 23  1  0  0  0  0
 26 32  1  0  0  0  0
 27 28  1  0  0  0  0
 27 26  2  0  0  0  0
 28 30  2  0  0  0  0
 29 28  1  0  0  0  0
 30 31  1  0  0  0  0
 32 31  2  0  0  0  0
 32 35  1  0  0  0  0
 33 26  1  0  0  0  0
 34 33  1  0  0  0  0
 36 35  1  0  0  0  0
M  END
>  <minimizedAffinity>
-6.82964897

$$$$

 OpenBabel03242520133D

 36 38  0  0  0  0  0  0  0  0999 V2000
   39.0390   31.6200   40.5260 C   0  0  0  0  0  0  0  0  0  0  0  0
   38.5890   32.8900   40.6830 C   0  0  0  0  0  0  0  0  0  0  0  0
   37.6270   33.3710   39.8230 C   0  0  0  0  0  0  0  0  0  0  0  0
   37.1270   32.5650   38.8110 C   0  0  0  0  0  0  0  0  0  0  0  0
   37.6130   31.2710   38.6840 C   0  0  0  0  0  0  0  0  0  0  0  0
   38.5270   30.8590   39.5250 N   0  0  0  0  0  0  0  0  0  0  0  0
   39.0040   33.5050   41.4940 H   0  0  0  0  0  0  0  0  0  0  0  0
   37.2800   34.3870   39.9620 H   0  0  0  0  0  0  0  0  0  0  0  0
   36.3720   32.9270   38.1260 H   0  0  0  0  0  0  0  0  0  0  0  0
   41.8930   31.2400   42.7760 C   0  0  0  0  0  0  0  0  0  0  0  0
   41.9160   29.8380   42.9710 C   0  0  0  0  0  0  0  0  0  0  0  0
   40.9460   29.0290   42.3230 C   0  0  0  0  0  0  0  0  0  0  0  0
   40.0730   29.6930   41.5640 N   0  0  0  0  0  0  0  0  0  0  0  0
   40.0540   31.0110   41.3840 C   0  0  0  0  0  0  0  0  0  0  0  0
   40.9720   31.7830   41.9970 N   0  0  0  0  0  0  0  0  0  0  0  0
   42.8660   32.0280   43.4310 N   0  0  0  0  0  0  0  0  0  0  0  0
   42.6700   29.3870   43.6100 H   0  0  0  0  0  0  0  0  0  0  0  0
   40.9520   27.9560   42.4630 H   0  0  0  0  0  0  0  0  0  0  0  0
   43.4580   31.6350   44.1770 H   0  0  0  0  0  0  0  0  0  0  0  0
   42.9810   33.0250   43.1500 H   0  0  0  0  0  0  0  0  0  0  0  0
   37.1150   30.3890   37.6330 C   0  0  0  0  0  3  0  0  0  0  0  0
   36.0880   29.5610   37.8120 C   0  0  0  0  0  3  0  0  0  0  0  0
   35.3670   29.4630   39.0900 C   0  0  0  0  0  0  0  0  0  0  0  0
   34.3240   29.1390   38.8580 H   0  0  0  0  0  0  0  0  0  0  0  0
   35.2480   30.5110   39.4810 H   0  0  0  0  0  0  0  0  0  0  0  0
   36.2250   29.1710   41.3040 C   0  0  0  0  0  0  0  0  0  0  0  0
   36.0160   28.5610   40.0770 C   0  0  0  0  0  0  0  0  0  0  0  0
   36.3750   27.2560   39.8120 C   0  0  0  0  0  0  0  0  0  0  0  0
   36.1790   26.8570   38.8320 H   0  0  0  0  0  0  0  0  0  0  0  0
   36.9780   26.5320   40.8470 C   0  0  0  0  0  3  0  0  0  0  0  0
   37.1770   27.1550   42.0600 C   0  0  0  0  0  3  0  0  0  0  0  0
   36.8250   28.4560   42.3410 C   0  0  0  0  0  0  0  0  0  0  0  0
   35.8720   30.4850   41.5960 O   0  0  0  0  0  0  0  0  0  0  0  0
   34.8770   30.6120   41.8230 H   0  0  0  0  0  0  0  0  0  0  0  0
   37.0390   29.0540   43.5710 O   0  0  0  0  0  0  0  0  0  0  0  0
   36.2220   29.1990   44.1610 H   0  0  0  0  0  0  0  0  0  0  0  0
  1  2  1  0  0  0  0
  1 14  1  0  0  0  0
  2  7  1  0  0  0  0
  3  8  1  0  0  0  0
  3  2  2  0  0  0  0
  4  3  1  0  0  0  0
  5  4  2  0  0  0  0
  5  6  1  0  0  0  0
  6  1  2  0  0  0  0
  9  4  1  0  0  0  0
 10 11  1  0  0  0  0
 10 16  1  0  0  0  0
 11 17  1  0  0  0  0
 12 18  1  0  0  0  0
 12 11  2  0  0  0  0
 13 12  1  0  0  0  0
 14 13  2  0  0  0  0
 14 15  1  0  0  0  0
 15 10  2  0  0  0  0
 16 19  1  0  0  0  0
 20 16  1  0  0  0  0
 21 22  2  0  0  0  0
 21  5  1  0  0  0  0
 22 23  1  0  0  0  0
 23 25  1  0  0  0  0
 23 27  1  0  0  0  0
 24 23  1  0  0  0  0
 26 33  1  0  0  0  0
 26 32  1  0  0  0  0
 27 26  2  0  0  0  0
 28 27  1  0  0  0  0
 28 30  2  0  0  0  0
 29 28  1  0  0  0  0
 30 31  1  0  0  0  0
 31 32  2  0  0  0  0
 32 35  1  0  0  0  0
 33 34  1  0  0  0  0
 35 36  1  0  0  0  0
M  END
>  <minimizedAffinity>
-6.69071674

$$$$

 OpenBabel03242520133D

 36 38  0  0  0  0  0  0  0  0999 V2000
   39.7780   30.4220   41.9030 C   0  0  0  0  0  0  0  0  0  0  0  0
   40.9670   29.7700   41.9380 C   0  0  0  0  0  0  0  0  0  0  0  0
   41.0480   28.5590   42.5880 C   0  0  0  0  0  0  0  0  0  0  0  0
   39.9260   28.0150   43.1980 C   0  0  0  0  0  0  0  0  0  0  0  0
   38.7280   28.7140   43.1390 C   0  0  0  0  0  0  0  0  0  0  0  0
   38.7010   29.8610   42.5100 N   0  0  0  0  0  0  0  0  0  0  0  0
   41.8380   30.2250   41.4470 H   0  0  0  0  0  0  0  0  0  0  0  0
   42.0050   28.0520   42.6070 H   0  0  0  0  0  0  0  0  0  0  0  0
   39.9720   27.0660   43.7140 H   0  0  0  0  0  0  0  0  0  0  0  0
   38.1720   33.2380   40.2150 C   0  0  0  0  0  0  0  0  0  0  0  0
   39.2680   34.1120   40.0180 C   0  0  0  0  0  0  0  0  0  0  0  0
   40.5570   33.7250   40.4680 C   0  0  0  0  0  0  0  0  0  0  0  0
   40.6150   32.5300   41.0560 N   0  0  0  0  0  0  0  0  0  0  0  0
   39.5830   31.7110   41.2390 C   0  0  0  0  0  0  0  0  0  0  0  0
   38.3580   32.0720   40.8150 N   0  0  0  0  0  0  0  0  0  0  0  0
   36.8970   33.6410   39.7620 N   0  0  0  0  0  0  0  0  0  0  0  0
   39.1200   35.0700   39.5270 H   0  0  0  0  0  0  0  0  0  0  0  0
   41.4030   34.3850   40.3240 H   0  0  0  0  0  0  0  0  0  0  0  0
   36.7160   34.6120   39.4690 H   0  0  0  0  0  0  0  0  0  0  0  0
   36.1270   32.9380   39.7250 H   0  0  0  0  0  0  0  0  0  0  0  0
   37.5240   28.1790   43.7670 C   0  0  0  0  0  3  0  0  0  0  0  0
   36.5860   27.5230   43.0880 C   0  0  0  0  0  3  0  0  0  0  0  0
   36.6840   27.2810   41.6400 C   0  0  0  0  0  0  0  0  0  0  0  0
   37.2250   28.1500   41.1950 H   0  0  0  0  0  0  0  0  0  0  0  0
   35.6430   27.3600   41.2230 H   0  0  0  0  0  0  0  0  0  0  0  0
   38.3660   26.1410   40.3780 C   0  0  0  0  0  0  0  0  0  0  0  0
   37.3360   25.9910   41.2930 C   0  0  0  0  0  0  0  0  0  0  0  0
   36.9670   24.7710   41.8200 C   0  0  0  0  0  0  0  0  0  0  0  0
   36.1540   24.7400   42.5260 H   0  0  0  0  0  0  0  0  0  0  0  0
   37.6790   23.6440   41.3940 C   0  0  0  0  0  3  0  0  0  0  0  0
   38.6990   23.8120   40.4840 C   0  0  0  0  0  3  0  0  0  0  0  0
   39.0820   25.0230   39.9480 C   0  0  0  0  0  0  0  0  0  0  0  0
   38.7580   27.3590   39.8320 O   0  0  0  0  0  0  0  0  0  0  0  0
   39.3660   27.9180   40.4450 H   0  0  0  0  0  0  0  0  0  0  0  0
   40.1120   25.1590   39.0340 O   0  0  0  0  0  0  0  0  0  0  0  0
   40.9800   25.5670   39.3760 H   0  0  0  0  0  0  0  0  0  0  0  0
  1  2  2  0  0  0  0
  1  6  1  0  0  0  0
  2  3  1  0  0  0  0
  3  8  1  0  0  0  0
  3  4  2  0  0  0  0
  4  9  1  0  0  0  0
  5  4  1  0  0  0  0
  5 21  1  0  0  0  0
  6  5  2  0  0  0  0
  7  2  1  0  0  0  0
 10 15  1  0  0  0  0
 11 10  2  0  0  0  0
 11 12  1  0  0  0  0
 12 13  2  0  0  0  0
 13 14  1  0  0  0  0
 14  1  1  0  0  0  0
 15 14  2  0  0  0  0
 16 10  1  0  0  0  0
 17 11  1  0  0  0  0
 18 12  1  0  0  0  0
 19 16  1  0  0  0  0
 20 16  1  0  0  0  0
 22 21  2  0  0  0  0
 23 22  1  0  0  0  0
 24 23  1  0  0  0  0
 25 23  1  0  0  0  0
 26 27  1  0  0  0  0
 27 23  1  0  0  0  0
 27 28  2  0  0  0  0
 28 29  1  0  0  0  0
 30 28  1  0  0  0  0
 31 30  2  0  0  0  0
 32 26  2  0  0  0  0
 32 31  1  0  0  0  0
 33 26  1  0  0  0  0
 33 34  1  0  0  0  0
 35 36  1  0  0  0  0
 35 32  1  0  0  0  0
M  END
>  <minimizedAffinity>
-6.46293211

$$$$

 OpenBabel03242520133D

 36 38  0  0  0  0  0  0  0  0999 V2000
   38.4340   30.3760   40.4000 C   0  0  0  0  0  0  0  0  0  0  0  0
   39.5030   31.1250   40.7700 C   0  0  0  0  0  0  0  0  0  0  0  0
   39.9430   31.0660   42.0740 C   0  0  0  0  0  0  0  0  0  0  0  0
   39.2990   30.2510   42.9940 C   0  0  0  0  0  0  0  0  0  0  0  0
   38.2100   29.5000   42.5760 C   0  0  0  0  0  0  0  0  0  0  0  0
   37.8280   29.5890   41.3270 N   0  0  0  0  0  0  0  0  0  0  0  0
   39.9910   31.7610   40.0190 H   0  0  0  0  0  0  0  0  0  0  0  0
   40.7970   31.6720   42.3520 H   0  0  0  0  0  0  0  0  0  0  0  0
   39.6310   30.1940   44.0220 H   0  0  0  0  0  0  0  0  0  0  0  0
   37.7530   31.3110   36.9340 C   0  0  0  0  0  0  0  0  0  0  0  0
   36.8530   30.2930   36.5370 C   0  0  0  0  0  0  0  0  0  0  0  0
   36.4840   29.2880   37.4690 C   0  0  0  0  0  0  0  0  0  0  0  0
   37.0420   29.4040   38.6750 N   0  0  0  0  0  0  0  0  0  0  0  0
   37.8870   30.3620   39.0440 C   0  0  0  0  0  0  0  0  0  0  0  0
   38.2410   31.3180   38.1640 N   0  0  0  0  0  0  0  0  0  0  0  0
   38.1090   32.3020   35.9920 N   0  0  0  0  0  0  0  0  0  0  0  0
   36.4500   30.2830   35.5280 H   0  0  0  0  0  0  0  0  0  0  0  0
   35.7970   28.5040   37.1780 H   0  0  0  0  0  0  0  0  0  0  0  0
   37.8830   32.1950   34.9930 H   0  0  0  0  0  0  0  0  0  0  0  0
   38.6110   33.1550   36.3210 H   0  0  0  0  0  0  0  0  0  0  0  0
   37.5040   28.6300   43.5100 C   0  0  0  0  0  3  0  0  0  0  0  0
   37.6880   27.3120   43.5500 C   0  0  0  0  0  3  0  0  0  0  0  0
   38.6230   26.6190   42.6500 C   0  0  0  0  0  0  0  0  0  0  0  0
   39.3470   26.0620   43.2910 H   0  0  0  0  0  0  0  0  0  0  0  0
   39.2480   27.4100   42.1520 H   0  0  0  0  0  0  0  0  0  0  0  0
   38.3340   24.3980   41.8090 C   0  0  0  0  0  0  0  0  0  0  0  0
   37.9560   25.7240   41.6690 C   0  0  0  0  0  0  0  0  0  0  0  0
   37.0530   26.1550   40.7180 C   0  0  0  0  0  0  0  0  0  0  0  0
   36.8140   27.2030   40.6750 H   0  0  0  0  0  0  0  0  0  0  0  0
   36.5090   25.1890   39.8640 C   0  0  0  0  0  3  0  0  0  0  0  0
   36.8960   23.8770   40.0190 C   0  0  0  0  0  3  0  0  0  0  0  0
   37.7950   23.4290   40.9620 C   0  0  0  0  0  0  0  0  0  0  0  0
   39.2400   23.9380   42.7590 O   0  0  0  0  0  0  0  0  0  0  0  0
   38.8380   23.8110   43.6970 H   0  0  0  0  0  0  0  0  0  0  0  0
   38.1650   22.1020   41.0920 O   0  0  0  0  0  0  0  0  0  0  0  0
   37.7890   21.5950   41.8910 H   0  0  0  0  0  0  0  0  0  0  0  0
  1  2  2  0  0  0  0
  1  6  1  0  0  0  0
  2  3  1  0  0  0  0
  3  8  1  0  0  0  0
  3  4  2  0  0  0  0
  4  9  1  0  0  0  0
  5  4  1  0  0  0  0
  5 21  1  0  0  0  0
  6  5  2  0  0  0  0
  7  2  1  0  0  0  0
 10 15  1  0  0  0  0
 11 10  2  0  0  0  0
 11 12  1  0  0  0  0
 12 13  2  0  0  0  0
 13 14  1  0  0  0  0
 14  1  1  0  0  0  0
 15 14  2  0  0  0  0
 16 20  1  0  0  0  0
 16 10  1  0  0  0  0
 17 11  1  0  0  0  0
 18 12  1  0  0  0  0
 19 16  1  0  0  0  0
 21 22  2  0  0  0  0
 23 24  1  0  0  0  0
 23 22  1  0  0  0  0
 25 23  1  0  0  0  0
 26 33  1  0  0  0  0
 27 26  1  0  0  0  0
 27 23  1  0  0  0  0
 28 27  2  0  0  0  0
 29 28  1  0  0  0  0
 30 31  2  0  0  0  0
 30 28  1  0  0  0  0
 31 32  1  0  0  0  0
 32 35  1  0  0  0  0
 32 26  2  0  0  0  0
 33 34  1  0  0  0  0
 35 36  1  0  0  0  0
M  END
>  <minimizedAffinity>
-6.42783785

$$$$

 OpenBabel03242520133D

 36 38  0  0  0  0  0  0  0  0999 V2000
   36.8470   27.8040   39.8100 C   0  0  0  0  0  0  0  0  0  0  0  0
   36.3440   27.6540   38.5590 C   0  0  0  0  0  0  0  0  0  0  0  0
   35.9860   28.7740   37.8420 C   0  0  0  0  0  0  0  0  0  0  0  0
   36.1390   30.0370   38.3940 C   0  0  0  0  0  0  0  0  0  0  0  0
   36.6580   30.1480   39.6770 C   0  0  0  0  0  0  0  0  0  0  0  0
   36.9840   29.0560   40.3190 N   0  0  0  0  0  0  0  0  0  0  0  0
   36.2340   26.6400   38.1480 H   0  0  0  0  0  0  0  0  0  0  0  0
   35.5850   28.6350   36.8450 H   0  0  0  0  0  0  0  0  0  0  0  0
   35.8620   30.9270   37.8460 H   0  0  0  0  0  0  0  0  0  0  0  0
   38.5260   25.8710   42.4170 C   0  0  0  0  0  0  0  0  0  0  0  0
   37.9920   24.5770   42.1990 C   0  0  0  0  0  0  0  0  0  0  0  0
   37.0540   24.3790   41.1520 C   0  0  0  0  0  0  0  0  0  0  0  0
   36.7560   25.4700   40.4460 N   0  0  0  0  0  0  0  0  0  0  0  0
   37.2600   26.6840   40.6540 C   0  0  0  0  0  0  0  0  0  0  0  0
   38.1490   26.8790   41.6460 N   0  0  0  0  0  0  0  0  0  0  0  0
   39.4560   26.0480   43.4650 N   0  0  0  0  0  0  0  0  0  0  0  0
   38.2980   23.7470   42.8290 H   0  0  0  0  0  0  0  0  0  0  0  0
   36.6380   23.3960   40.9750 H   0  0  0  0  0  0  0  0  0  0  0  0
   39.6070   25.3180   44.1760 H   0  0  0  0  0  0  0  0  0  0  0  0
   39.9970   26.9380   43.5150 H   0  0  0  0  0  0  0  0  0  0  0  0
   36.8350   31.4580   40.2960 C   0  0  0  0  0  3  0  0  0  0  0  0
   37.9070   32.2180   40.0840 C   0  0  0  0  0  3  0  0  0  0  0  0
   39.0080   31.8000   39.2020 C   0  0  0  0  0  0  0  0  0  0  0  0
   38.5970   31.7360   38.1670 H   0  0  0  0  0  0  0  0  0  0  0  0
   39.2550   30.7350   39.4680 H   0  0  0  0  0  0  0  0  0  0  0  0
   40.7300   32.9640   38.0190 C   0  0  0  0  0  0  0  0  0  0  0  0
   40.1970   32.6890   39.2680 C   0  0  0  0  0  0  0  0  0  0  0  0
   40.7210   33.1950   40.4400 C   0  0  0  0  0  0  0  0  0  0  0  0
   40.2480   32.9320   41.3700 H   0  0  0  0  0  0  0  0  0  0  0  0
   41.8460   34.0210   40.3380 C   0  0  0  0  0  3  0  0  0  0  0  0
   42.3620   34.2840   39.0880 C   0  0  0  0  0  3  0  0  0  0  0  0
   41.8510   33.7880   37.9080 C   0  0  0  0  0  0  0  0  0  0  0  0
   40.2210   32.4680   36.8230 O   0  0  0  0  0  0  0  0  0  0  0  0
   39.4030   32.9820   36.4690 H   0  0  0  0  0  0  0  0  0  0  0  0
   42.3930   34.0690   36.6660 O   0  0  0  0  0  0  0  0  0  0  0  0
   41.8760   34.7150   36.0730 H   0  0  0  0  0  0  0  0  0  0  0  0
  1  6  1  0  0  0  0
  1 14  1  0  0  0  0
  2  1  2  0  0  0  0
  3  4  2  0  0  0  0
  3  2  1  0  0  0  0
  4  5  1  0  0  0  0
  5 21  1  0  0  0  0
  5  6  2  0  0  0  0
  7  2  1  0  0  0  0
  8  3  1  0  0  0  0
  9  4  1  0  0  0  0
 10 16  1  0  0  0  0
 11 10  1  0  0  0  0
 11 17  1  0  0  0  0
 12 11  2  0  0  0  0
 13 14  2  0  0  0  0
 13 12  1  0  0  0  0
 14 15  1  0  0  0  0
 15 10  2  0  0  0  0
 16 20  1  0  0  0  0
 16 19  1  0  0  0  0
 18 12  1  0  0  0  0
 22 21  2  0  0  0  0
 23 27  1  0  0  0  0
 23 25  1  0  0  0  0
 23 22  1  0  0  0  0
 24 23  1  0  0  0  0
 26 27  1  0  0  0  0
 27 28  2  0  0  0  0
 28 29  1  0  0  0  0
 30 28  1  0  0  0  0
 31 30  2  0  0  0  0
 32 26  2  0  0  0  0
 32 31  1  0  0  0  0
 33 26  1  0  0  0  0
 34 33  1  0  0  0  0
 35 32  1  0  0  0  0
 36 35  1  0  0  0  0
M  END
>  <minimizedAffinity>
-6.40449333

$$$$

 OpenBabel03242520133D

 36 38  0  0  0  0  0  0  0  0999 V2000
   39.6630   30.3830   41.9790 C   0  0  0  0  0  0  0  0  0  0  0  0
   40.8550   29.7690   42.1890 C   0  0  0  0  0  0  0  0  0  0  0  0
   40.8800   28.5650   42.8560 C   0  0  0  0  0  0  0  0  0  0  0  0
   39.7000   27.9900   43.3060 C   0  0  0  0  0  0  0  0  0  0  0  0
   38.5010   28.6490   43.0710 C   0  0  0  0  0  0  0  0  0  0  0  0
   38.5280   29.7920   42.4330 N   0  0  0  0  0  0  0  0  0  0  0  0
   41.7720   30.2500   41.8210 H   0  0  0  0  0  0  0  0  0  0  0  0
   41.8390   28.0900   43.0160 H   0  0  0  0  0  0  0  0  0  0  0  0
   39.7010   27.0450   43.8330 H   0  0  0  0  0  0  0  0  0  0  0  0
   38.1810   33.2240   40.2220 C   0  0  0  0  0  0  0  0  0  0  0  0
   39.3150   34.0410   39.9960 C   0  0  0  0  0  0  0  0  0  0  0  0
   40.5880   33.6060   40.4510 C   0  0  0  0  0  0  0  0  0  0  0  0
   40.5930   32.4260   41.0710 N   0  0  0  0  0  0  0  0  0  0  0  0
   39.5250   31.6610   41.2810 C   0  0  0  0  0  0  0  0  0  0  0  0
   38.3150   32.0680   40.8520 N   0  0  0  0  0  0  0  0  0  0  0  0
   36.9230   33.6750   39.7630 N   0  0  0  0  0  0  0  0  0  0  0  0
   39.2100   34.9910   39.4790 H   0  0  0  0  0  0  0  0  0  0  0  0
   41.4620   34.2210   40.2850 H   0  0  0  0  0  0  0  0  0  0  0  0
   36.7860   34.6440   39.4450 H   0  0  0  0  0  0  0  0  0  0  0  0
   36.1220   33.0070   39.7490 H   0  0  0  0  0  0  0  0  0  0  0  0
   37.2380   28.0800   43.5270 C   0  0  0  0  0  3  0  0  0  0  0  0
   36.7550   26.9300   43.0640 C   0  0  0  0  0  3  0  0  0  0  0  0
   37.4580   26.1310   42.0480 C   0  0  0  0  0  0  0  0  0  0  0  0
   37.4830   25.0770   42.4150 H   0  0  0  0  0  0  0  0  0  0  0  0
   38.5350   26.4540   42.0640 H   0  0  0  0  0  0  0  0  0  0  0  0
   36.6210   24.9870   40.1220 C   0  0  0  0  0  0  0  0  0  0  0  0
   36.8580   26.2270   40.6920 C   0  0  0  0  0  0  0  0  0  0  0  0
   36.5620   27.4170   40.0590 C   0  0  0  0  0  0  0  0  0  0  0  0
   36.7790   28.3390   40.5710 H   0  0  0  0  0  0  0  0  0  0  0  0
   35.9980   27.3430   38.7810 C   0  0  0  0  0  3  0  0  0  0  0  0
   35.7690   26.1010   38.2310 C   0  0  0  0  0  3  0  0  0  0  0  0
   36.0570   24.9040   38.8480 C   0  0  0  0  0  0  0  0  0  0  0  0
   36.9090   23.7730   40.7380 O   0  0  0  0  0  0  0  0  0  0  0  0
   36.2040   23.4730   41.4250 H   0  0  0  0  0  0  0  0  0  0  0  0
   35.8160   23.6710   38.2680 O   0  0  0  0  0  0  0  0  0  0  0  0
   35.0320   23.1340   38.6350 H   0  0  0  0  0  0  0  0  0  0  0  0
  1  2  2  0  0  0  0
  1  6  1  0  0  0  0
  2  3  1  0  0  0  0
  3  8  1  0  0  0  0
  3  4  2  0  0  0  0
  4  9  1  0  0  0  0
  5  4  1  0  0  0  0
  5 21  1  0  0  0  0
  6  5  2  0  0  0  0
  7  2  1  0  0  0  0
 10 15  1  0  0  0  0
 11 10  2  0  0  0  0
 11 12  1  0  0  0  0
 12 13  2  0  0  0  0
 13 14  1  0  0  0  0
 14  1  1  0  0  0  0
 15 14  2  0  0  0  0
 16 10  1  0  0  0  0
 17 11  1  0  0  0  0
 18 12  1  0  0  0  0
 19 16  1  0  0  0  0
 20 16  1  0  0  0  0
 22 21  2  0  0  0  0
 23 25  1  0  0  0  0
 23 24  1  0  0  0  0
 23 22  1  0  0  0  0
 26 27  1  0  0  0  0
 26 33  1  0  0  0  0
 27 23  1  0  0  0  0
 28 29  1  0  0  0  0
 28 27  2  0  0  0  0
 30 28  1  0  0  0  0
 31 30  2  0  0  0  0
 31 32  1  0  0  0  0
 32 26  2  0  0  0  0
 33 34  1  0  0  0  0
 35 36  1  0  0  0  0
 35 32  1  0  0  0  0
M  END
>  <minimizedAffinity>
-6.32240582

$$$$

 OpenBabel03242520133D

 36 38  0  0  0  0  0  0  0  0999 V2000
   37.3200   26.2060   40.0530 C   0  0  0  0  0  0  0  0  0  0  0  0
   36.4910   25.1560   39.8310 C   0  0  0  0  0  0  0  0  0  0  0  0
   36.1000   24.8730   38.5410 C   0  0  0  0  0  0  0  0  0  0  0  0
   36.5500   25.6530   37.4860 C   0  0  0  0  0  0  0  0  0  0  0  0
   37.3980   26.7180   37.7550 C   0  0  0  0  0  0  0  0  0  0  0  0
   37.7420   26.9480   38.9970 N   0  0  0  0  0  0  0  0  0  0  0  0
   36.1500   24.5570   40.6870 H   0  0  0  0  0  0  0  0  0  0  0  0
   35.4370   24.0310   38.3820 H   0  0  0  0  0  0  0  0  0  0  0  0
   36.2530   25.4450   36.4670 H   0  0  0  0  0  0  0  0  0  0  0  0
   37.6560   27.9840   43.2280 C   0  0  0  0  0  0  0  0  0  0  0  0
   38.7100   27.2680   43.8450 C   0  0  0  0  0  0  0  0  0  0  0  0
   39.3010   26.1730   43.1600 C   0  0  0  0  0  0  0  0  0  0  0  0
   38.7880   25.9160   41.9570 N   0  0  0  0  0  0  0  0  0  0  0  0
   37.7970   26.5920   41.3810 C   0  0  0  0  0  0  0  0  0  0  0  0
   37.2320   27.6300   42.0250 N   0  0  0  0  0  0  0  0  0  0  0  0
   37.0800   29.0690   43.9260 N   0  0  0  0  0  0  0  0  0  0  0  0
   39.0610   27.5540   44.8320 H   0  0  0  0  0  0  0  0  0  0  0  0
   40.1070   25.6170   43.6200 H   0  0  0  0  0  0  0  0  0  0  0  0
   37.2760   29.2280   44.9240 H   0  0  0  0  0  0  0  0  0  0  0  0
   36.4450   29.7190   43.4130 H   0  0  0  0  0  0  0  0  0  0  0  0
   37.8950   27.5640   36.6750 C   0  0  0  0  0  3  0  0  0  0  0  0
   37.3550   28.7420   36.3730 C   0  0  0  0  0  3  0  0  0  0  0  0
   36.2040   29.2930   37.1060 C   0  0  0  0  0  0  0  0  0  0  0  0
   35.6580   28.4320   37.5600 H   0  0  0  0  0  0  0  0  0  0  0  0
   35.4900   29.6990   36.3380 H   0  0  0  0  0  0  0  0  0  0  0  0
   36.0730   30.0120   39.3830 C   0  0  0  0  0  0  0  0  0  0  0  0
   36.5760   30.3080   38.1270 C   0  0  0  0  0  0  0  0  0  0  0  0
   37.3400   31.4260   37.8630 C   0  0  0  0  0  0  0  0  0  0  0  0
   37.6920   31.5830   36.8580 H   0  0  0  0  0  0  0  0  0  0  0  0
   37.6060   32.2890   38.9320 C   0  0  0  0  0  3  0  0  0  0  0  0
   37.0990   31.9790   40.1740 C   0  0  0  0  0  3  0  0  0  0  0  0
   36.3350   30.8670   40.4550 C   0  0  0  0  0  0  0  0  0  0  0  0
   35.3010   28.8920   39.6750 O   0  0  0  0  0  0  0  0  0  0  0  0
   35.8460   28.0300   39.8080 H   0  0  0  0  0  0  0  0  0  0  0  0
   35.8380   30.5840   41.7150 O   0  0  0  0  0  0  0  0  0  0  0  0
   36.2860   29.8260   42.2270 H   0  0  0  0  0  0  0  0  0  0  0  0
  1 14  1  0  0  0  0
  2  1  1  0  0  0  0
  2  7  1  0  0  0  0
  3  2  2  0  0  0  0
  4  5  2  0  0  0  0
  4  3  1  0  0  0  0
  5  6  1  0  0  0  0
  6  1  2  0  0  0  0
  8  3  1  0  0  0  0
  9  4  1  0  0  0  0
 10 11  1  0  0  0  0
 10 16  1  0  0  0  0
 11 17  1  0  0  0  0
 12 18  1  0  0  0  0
 12 11  2  0  0  0  0
 13 12  1  0  0  0  0
 14 13  2  0  0  0  0
 14 15  1  0  0  0  0
 15 10  2  0  0  0  0
 16 19  1  0  0  0  0
 20 16  1  0  0  0  0
 21  5  1  0  0  0  0
 22 21  2  0  0  0  0
 22 23  1  0  0  0  0
 23 24  1  0  0  0  0
 23 27  1  0  0  0  0
 25 23  1  0  0  0  0
 26 33  1  0  0  0  0
 26 32  1  0  0  0  0
 27 26  2  0  0  0  0
 28 27  1  0  0  0  0
 28 30  2  0  0  0  0
 29 28  1  0  0  0  0
 30 31  1  0  0  0  0
 31 32  2  0  0  0  0
 32 35  1  0  0  0  0
 33 34  1  0  0  0  0
 35 36  1  0  0  0  0
M  END
>  <minimizedAffinity>
-6.25745964

$$$$
