
 OpenBabel03252505283D

 26 27  0  0  0  0  0  0  0  0999 V2000
   47.2680   31.2860   48.3890 O   0  0  0  0  0  0  0  0  0  0  0  0
   46.0930   32.0100   47.7260 P   0  0  1  0  0  0  0  0  0  0  0  0
   45.5360   33.2920   48.6640 O   0  0  0  0  0  0  0  0  0  0  0  0
   46.2490   33.9860   48.7580 H   0  0  0  0  0  0  0  0  0  0  0  0
   46.6590   32.5460   46.2270 O   0  0  0  0  0  0  0  0  0  0  0  0
   44.5840   35.3080   45.3930 C   0  0  0  0  0  0  0  0  0  0  0  0
   44.9300   35.6300   44.0570 C   0  0  0  0  0  0  0  0  0  0  0  0
   45.9160   34.8410   43.4670 C   0  0  0  0  0  0  0  0  0  0  0  0
   46.4650   33.8380   44.2020 N   0  0  0  0  0  0  0  0  0  0  0  0
   46.1050   33.5660   45.4710 C   0  0  0  0  0  0  0  0  0  0  0  0
   45.1540   34.3120   46.0710 N   0  0  0  0  0  0  0  0  0  0  0  0
   43.8100   35.9450   45.8260 H   0  0  0  0  0  0  0  0  0  0  0  0
   44.4770   36.4310   43.5030 H   0  0  0  0  0  0  0  0  0  0  0  0
   46.2270   35.0330   42.4510 H   0  0  0  0  0  0  0  0  0  0  0  0
   44.8440   30.8810   47.5900 O   0  0  0  0  0  0  0  0  0  0  0  0
   44.9770   29.3640   45.8610 C   0  0  0  0  0  0  0  0  0  0  0  0
   44.9670   29.5660   47.2280 C   0  0  0  0  0  0  0  0  0  0  0  0
   45.0790   28.4560   48.0390 C   0  0  0  0  0  0  0  0  0  0  0  0
   45.0640   28.6780   49.1070 H   0  0  0  0  0  0  0  0  0  0  0  0
   45.1980   27.1830   47.5230 C   0  0  0  0  0  3  0  0  0  0  0  0
   45.2090   26.9650   46.1510 C   0  0  0  0  0  3  0  0  0  0  0  0
   45.0970   28.0870   45.3280 C   0  0  0  0  0  0  0  0  0  0  0  0
   44.8760   30.3640   44.8870 O   0  0  0  0  0  0  0  0  0  0  0  0
   43.9500   30.6530   44.5650 H   0  0  0  0  0  0  0  0  0  0  0  0
   45.1130   27.8260   43.9710 O   0  0  0  0  0  0  0  0  0  0  0  0
   44.3870   28.1180   43.3320 H   0  0  0  0  0  0  0  0  0  0  0  0
  2  1  2  1  0  0  0
  2  3  1  0  0  0  0
  3  4  1  0  0  0  0
  5  2  1  0  0  0  0
  6 12  1  0  0  0  0
  6 11  1  0  0  0  0
  7  6  2  0  0  0  0
  8  7  1  0  0  0  0
  8  9  2  0  0  0  0
  9 10  1  0  0  0  0
 10 11  2  0  0  0  0
 10  5  1  0  0  0  0
 13  7  1  0  0  0  0
 14  8  1  0  0  0  0
 15  2  1  0  0  0  0
 16 17  1  0  0  0  0
 17 15  1  0  0  0  0
 17 18  2  0  0  0  0
 18 19  1  0  0  0  0
 20 18  1  0  0  0  0
 21 20  2  0  0  0  0
 22 16  2  0  0  0  0
 22 21  1  0  0  0  0
 23 16  1  0  0  0  0
 24 23  1  0  0  0  0
 25 22  1  0  0  0  0
 26 25  1  0  0  0  0
M  END
>  <minimizedAffinity>
-4.76243687

>  <minimizedRMSD>
1.99145901

$$$$
