
 OpenBabel03242522513D

 28 29  0  0  0  0  0  0  0  0999 V2000
   45.2290   30.6490   47.6900 O   0  0  0  0  0  0  0  0  0  0  0  0
   45.7850   31.9100   48.4060 P   0  0  2  0  0  0  0  0  0  0  0  0
   45.1880   31.8300   49.9760 O   0  0  0  0  0  0  0  0  0  0  0  0
   45.9250   31.8820   50.6340 H   0  0  0  0  0  0  0  0  0  0  0  0
   45.1550   33.2580   47.6070 O   0  0  0  0  0  0  0  0  0  0  0  0
   47.0260   33.1400   44.4930 C   0  0  0  0  0  0  0  0  0  0  0  0
   46.5890   32.8420   45.8060 C   0  0  0  0  0  0  0  0  0  0  0  0
   45.5500   33.5800   46.3250 C   0  0  0  0  0  0  0  0  0  0  0  0
   45.0050   34.5440   45.5580 N   0  0  0  0  0  0  0  0  0  0  0  0
   45.4140   34.8280   44.3180 C   0  0  0  0  0  0  0  0  0  0  0  0
   46.4260   34.1280   43.7810 N   0  0  0  0  0  0  0  0  0  0  0  0
   47.8360   32.6160   43.9990 H   0  0  0  0  0  0  0  0  0  0  0  0
   47.1500   32.0500   46.2300 H   0  0  0  0  0  0  0  0  0  0  0  0
   44.8920   35.6310   43.7970 H   0  0  0  0  0  0  0  0  0  0  0  0
   47.4390   31.8790   48.3620 O   0  0  0  0  0  0  0  0  0  0  0  0
   48.3510   30.9210   48.6070 C   0  0  0  0  0  0  0  0  0  0  0  0
   48.7940   30.9670   49.8500 O   0  0  0  0  0  0  0  0  0  0  0  0
   50.4660   29.7240   48.1640 C   0  0  0  0  0  0  0  0  0  0  0  0
   49.1270   29.7630   48.0430 C   0  0  0  0  0  0  0  0  0  0  0  0
   48.5090   28.7000   47.3640 C   0  0  0  0  0  0  0  0  0  0  0  0
   47.4110   28.8190   47.3150 H   0  0  0  0  0  0  0  0  0  0  0  0
   49.1160   27.6120   46.7990 C   0  0  0  0  0  3  0  0  0  0  0  0
   50.4590   27.6360   46.9570 C   0  0  0  0  0  3  0  0  0  0  0  0
   51.1390   28.6270   47.6020 C   0  0  0  0  0  0  0  0  0  0  0  0
   51.2860   30.6510   48.7870 O   0  0  0  0  0  0  0  0  0  0  0  0
   52.0410   30.4150   49.4180 H   0  0  0  0  0  0  0  0  0  0  0  0
   52.5200   28.5570   47.7080 O   0  0  0  0  0  0  0  0  0  0  0  0
   53.0520   29.4080   47.5550 H   0  0  0  0  0  0  0  0  0  0  0  0
  2  1  2  6  0  0  0
  2  3  1  0  0  0  0
  3  4  1  0  0  0  0
  5  2  1  0  0  0  0
  6  7  1  0  0  0  0
  7 13  1  0  0  0  0
  7  8  2  0  0  0  0
  8  5  1  0  0  0  0
  9  8  1  0  0  0  0
 10  9  2  0  0  0  0
 11 10  1  0  0  0  0
 11  6  2  0  0  0  0
 12  6  1  0  0  0  0
 14 10  1  0  0  0  0
 15  2  1  0  0  0  0
 15 16  1  0  0  0  0
 16 17  2  0  0  0  0
 18 25  1  0  0  0  0
 19 18  1  0  0  0  0
 19 16  1  0  0  0  0
 20 19  2  0  0  0  0
 21 20  1  0  0  0  0
 22 23  2  0  0  0  0
 22 20  1  0  0  0  0
 23 24  1  0  0  0  0
 24 27  1  0  0  0  0
 24 18  2  0  0  0  0
 25 26  1  0  0  0  0
 28 27  1  0  0  0  0
M  END
>  <minimizedAffinity>
-4.59011173

>  <minimizedRMSD>
1.03386533

$$$$
