REMARK  Name = 
REMARK  5 active torsions:
REMARK  status: ('A' for Active; 'I' for Inactive)
REMARK    1  A    between atoms: C_2  and  C_13
REMARK    2  A    between atoms: C_3  and  C_7
REMARK    3  A    between atoms: C_13  and  C_23
REMARK    4  A    between atoms: O_21  and  C_22
REMARK    5  A    between atoms: C_28  and  O_29
REMARK                            x       y       z     vdW  Elec       q    Type
REMARK                         _______ _______ _______ _____ _____    ______ ____
ROOT
ATOM      1  C   UNL     1      45.267  36.163  43.174  0.00  0.00    +0.000 A 
ATOM      2  C   UNL     1      45.874  34.912  42.902  0.00  0.00    +0.000 A 
ATOM      3  C   UNL     1      45.830  33.944  43.906  0.00  0.00    +0.000 A 
ATOM      4  N   UNL     1      45.227  34.220  45.073  0.00  0.00    +0.000 NA
ATOM      5  C   UNL     1      44.646  35.439  45.310  0.00  0.00    +0.000 A 
ATOM      6  N   UNL     1      44.679  36.378  44.360  0.00  0.00    +0.000 NA
ATOM      7  H   UNL     1      45.283  36.935  42.417  0.00  0.00    +0.000 HD
ATOM      8  H   UNL     1      44.207  35.492  46.299  0.00  0.00    +0.000 HD
ENDROOT
BRANCH   3   9
ATOM      9  C   UNL     1      46.449  32.660  43.637  0.00  0.00    +0.000 A 
ATOM     10  C   UNL     1      45.664  31.574  43.295  0.00  0.00    +0.000 A 
ATOM     11  C   UNL     1      46.280  30.372  43.047  0.00  0.00    +0.000 A 
ATOM     12  C   UNL     1      47.649  30.180  43.118  0.00  0.00    +0.000 A 
ATOM     13  C   UNL     1      48.382  31.308  43.465  0.00  0.00    +0.000 A 
ATOM     14  N   UNL     1      47.769  32.486  43.708  0.00  0.00    +0.000 NA
ATOM     15  H   UNL     1      44.603  31.611  43.212  0.00  0.00    +0.000 HD
ATOM     16  H   UNL     1      45.705  29.488  42.774  0.00  0.00    +0.000 HD
ATOM     17  H   UNL     1      48.191  29.284  42.939  0.00  0.00    +0.000 HD
ATOM     18  H   UNL     1      49.465  31.306  43.559  0.00  0.00    +0.000 HD
ENDBRANCH   3   9
BRANCH   2  19
ATOM     19  C   UNL     1      46.493  34.693  41.644  0.00  0.00    +0.000 C 
ATOM     20  O   UNL     1      47.659  35.129  41.469  0.00  0.00    +0.000 OA
BRANCH  19  22
ATOM     21  C   UNL     1      44.637  34.427  40.011  0.00  0.00    +0.000 A 
ATOM     22  C   UNL     1      45.822  33.985  40.559  0.00  0.00    +0.000 A 
ATOM     23  C   UNL     1      46.362  32.828  40.038  0.00  0.00    +0.000 A 
ATOM     24  H   UNL     1      47.289  32.497  40.478  0.00  0.00    +0.000 HD
ATOM     25  C   UNL     1      45.794  32.114  39.026  0.00  0.00    +0.000 A 
ATOM     26  C   UNL     1      44.596  32.579  38.488  0.00  0.00    +0.000 A 
ATOM     27  C   UNL     1      44.038  33.724  38.986  0.00  0.00    +0.000 A 
BRANCH  21  28
ATOM     28  O   UNL     1      44.043  35.603  40.507  0.00  0.00    +0.000 OA
ATOM     29  H   UNL     1      43.058  35.683  40.699  0.00  0.00    +0.000 HD
ENDBRANCH  21  28
BRANCH  27  30
ATOM     30  O   UNL     1      42.846  34.219  38.474  0.00  0.00    +0.000 OA
ATOM     31  H   UNL     1      42.711  34.394  37.484  0.00  0.00    +0.000 HD
ENDBRANCH  27  30
ENDBRANCH  19  22
ENDBRANCH   2  19
TORSDOF 5
