
 OpenBabel03252506353D

 35 37  0  0  1  0  0  0  0  0999 V2000
   44.4010   35.7160   44.9650 C   0  0  0  0  0  0  0  0  0  0  0  0
   45.0890   35.7370   43.7310 C   0  0  0  0  0  0  0  0  0  0  0  0
   46.0620   34.8130   43.4960 C   0  0  0  0  0  0  0  0  0  0  0  0
   46.3130   33.9140   44.4830 N   0  0  0  0  0  0  0  0  0  0  0  0
   45.6660   33.9000   45.6380 C   0  0  0  0  0  0  0  0  0  0  0  0
   44.7010   34.7990   45.8970 N   0  0  0  0  0  0  0  0  0  0  0  0
   46.0130   32.9160   46.5970 N   0  0  0  0  0  0  0  0  0  0  0  0
   45.2050   32.5510   47.7580 C   0  0  0  0  0  0  0  0  0  0  0  0
   46.2830   32.3310   48.8200 C   0  0  0  0  0  0  0  0  0  0  0  0
   47.5990   32.3040   48.1150 C   0  0  0  0  0  0  0  0  0  0  0  0
   47.1840   32.0750   46.6710 C   0  0  1  0  0  0  0  0  0  0  0  0
   43.6240   36.4430   45.1710 H   0  0  0  0  0  0  0  0  0  0  0  0
   46.5840   34.8340   42.5500 H   0  0  0  0  0  0  0  0  0  0  0  0
   44.7510   31.5780   47.5170 H   0  0  0  0  0  0  0  0  0  0  0  0
   44.4900   33.3220   48.0460 H   0  0  0  0  0  0  0  0  0  0  0  0
   46.0360   31.3910   49.3740 H   0  0  0  0  0  0  0  0  0  0  0  0
   46.2450   33.1600   49.5570 H   0  0  0  0  0  0  0  0  0  0  0  0
   48.3210   31.5870   48.4940 H   0  0  0  0  0  0  0  0  0  0  0  0
   48.0500   33.3380   48.1450 H   0  0  0  0  0  0  0  0  0  0  0  0
   48.0150   32.4410   46.0480 H   0  0  0  0  0  0  0  0  0  0  0  0
   44.6930   36.7590   42.7970 N   0  0  0  0  0  0  0  0  0  0  0  0
   45.5490   37.3720   42.7480 H   0  0  0  0  0  0  0  0  0  0  0  0
   43.7450   36.7580   42.3560 H   0  0  0  0  0  0  0  0  0  0  0  0
   46.8010   30.3410   46.4150 S   0  0  0  0  0  0  0  0  0  0  0  0
   48.9290   28.7220   47.4690 C   0  0  0  0  0  0  0  0  0  0  0  0
   48.2890   29.3590   46.4330 C   0  0  0  0  0  0  0  0  0  0  0  0
   48.8350   29.2610   45.1470 C   0  0  0  0  0  0  0  0  0  0  0  0
   48.4510   29.7060   44.2200 H   0  0  0  0  0  0  0  0  0  0  0  0
   50.0070   28.5310   44.9200 C   0  0  0  0  0  3  0  0  0  0  0  0
   50.6280   27.9020   45.9780 C   0  0  0  0  0  3  0  0  0  0  0  0
   50.0690   28.0140   47.2430 C   0  0  0  0  0  0  0  0  0  0  0  0
   48.2830   28.9010   48.6760 O   0  0  0  0  0  0  0  0  0  0  0  0
   48.8140   29.1500   49.5170 H   0  0  0  0  0  0  0  0  0  0  0  0
   50.5940   27.4260   48.4090 O   0  0  0  0  0  0  0  0  0  0  0  0
   51.3000   26.7100   48.3600 H   0  0  0  0  0  0  0  0  0  0  0  0
  1 12  1  0  0  0  0
  1  6  1  0  0  0  0
  2  1  2  0  0  0  0
  3  2  1  0  0  0  0
  3  4  2  0  0  0  0
  4  5  1  0  0  0  0
  5  6  2  0  0  0  0
  5  7  1  0  0  0  0
  7 11  1  0  0  0  0
  7  8  1  0  0  0  0
  8 15  1  0  0  0  0
  8  9  1  0  0  0  0
  9 16  1  0  0  0  0
  9 17  1  0  0  0  0
 10 19  1  0  0  0  0
 10 18  1  0  0  0  0
 10  9  1  0  0  0  0
 11 20  1  6  0  0  0
 11 10  1  0  0  0  0
 13  3  1  0  0  0  0
 14  8  1  0  0  0  0
 21  2  1  0  0  0  0
 22 21  1  0  0  0  0
 23 21  1  0  0  0  0
 24 26  1  0  0  0  0
 24 11  1  0  0  0  0
 25 32  1  0  0  0  0
 26 25  2  0  0  0  0
 27 26  1  0  0  0  0
 28 27  1  0  0  0  0
 29 27  2  0  0  0  0
 29 30  1  0  0  0  0
 30 31  2  0  0  0  0
 31 25  1  0  0  0  0
 31 34  1  0  0  0  0
 32 33  1  0  0  0  0
 35 34  1  0  0  0  0
M  END
>  <minimizedAffinity>
-5.38163328

>  <minimizedRMSD>
0.678726912

$$$$
