
 OpenBabel03252507163D

 31 33  0  0  0  0  0  0  0  0999 V2000
   45.1060   36.0640   43.3020 C   0  0  0  0  0  0  0  0  0  0  0  0
   45.7420   34.8330   43.0080 C   0  0  0  0  0  0  0  0  0  0  0  0
   45.8080   33.8830   44.0280 C   0  0  0  0  0  0  0  0  0  0  0  0
   45.2780   34.1570   45.2300 N   0  0  0  0  0  0  0  0  0  0  0  0
   44.6670   35.3570   45.4880 C   0  0  0  0  0  0  0  0  0  0  0  0
   44.5950   36.2780   44.5230 N   0  0  0  0  0  0  0  0  0  0  0  0
   45.0370   36.8220   42.5340 H   0  0  0  0  0  0  0  0  0  0  0  0
   44.2970   35.4110   46.5050 H   0  0  0  0  0  0  0  0  0  0  0  0
   46.4580   32.6200   43.7360 C   0  0  0  0  0  0  0  0  0  0  0  0
   45.7020   31.4690   43.6040 C   0  0  0  0  0  0  0  0  0  0  0  0
   46.3470   30.2890   43.3280 C   0  0  0  0  0  0  0  0  0  0  0  0
   47.7180   30.1800   43.1720 C   0  0  0  0  0  0  0  0  0  0  0  0
   48.4210   31.3690   43.3150 C   0  0  0  0  0  0  0  0  0  0  0  0
   47.7800   32.5260   43.5870 N   0  0  0  0  0  0  0  0  0  0  0  0
   44.6420   31.4410   43.7040 H   0  0  0  0  0  0  0  0  0  0  0  0
   45.7950   29.3570   43.2150 H   0  0  0  0  0  0  0  0  0  0  0  0
   48.2810   29.3050   42.9580 H   0  0  0  0  0  0  0  0  0  0  0  0
   49.5020   31.4350   43.2190 H   0  0  0  0  0  0  0  0  0  0  0  0
   46.2800   34.6150   41.7130 C   0  0  0  0  0  0  0  0  0  0  0  0
   47.3890   35.1350   41.4320 O   0  0  0  0  0  0  0  0  0  0  0  0
   44.3860   34.2010   40.1540 C   0  0  0  0  0  0  0  0  0  0  0  0
   45.5880   33.8140   40.7080 C   0  0  0  0  0  0  0  0  0  0  0  0
   46.1250   32.6210   40.2720 C   0  0  0  0  0  0  0  0  0  0  0  0
   47.0650   32.3330   40.7160 H   0  0  0  0  0  0  0  0  0  0  0  0
   45.5380   31.8210   39.3390 C   0  0  0  0  0  3  0  0  0  0  0  0
   44.3240   32.2320   38.7930 C   0  0  0  0  0  3  0  0  0  0  0  0
   43.7690   33.4110   39.2070 C   0  0  0  0  0  0  0  0  0  0  0  0
   43.7950   35.4120   40.5640 O   0  0  0  0  0  0  0  0  0  0  0  0
   42.8140   35.5010   40.7740 H   0  0  0  0  0  0  0  0  0  0  0  0
   42.5600   33.8540   38.6850 O   0  0  0  0  0  0  0  0  0  0  0  0
   42.4010   33.9440   37.6880 H   0  0  0  0  0  0  0  0  0  0  0  0
  1  6  1  0  0  0  0
  2  1  2  0  0  0  0
  2  3  1  0  0  0  0
  3  4  2  0  0  0  0
  4  5  1  0  0  0  0
  5  8  1  0  0  0  0
  6  5  2  0  0  0  0
  7  1  1  0  0  0  0
  9  3  1  0  0  0  0
 10 15  1  0  0  0  0
 10  9  1  0  0  0  0
 11 10  2  0  0  0  0
 12 13  2  0  0  0  0
 12 11  1  0  0  0  0
 13 14  1  0  0  0  0
 14  9  2  0  0  0  0
 16 11  1  0  0  0  0
 17 12  1  0  0  0  0
 18 13  1  0  0  0  0
 19  2  1  0  0  0  0
 20 19  2  0  0  0  0
 21 28  1  0  0  0  0
 21 22  1  0  0  0  0
 22 19  1  0  0  0  0
 23 22  2  0  0  0  0
 23 24  1  0  0  0  0
 25 23  1  0  0  0  0
 26 27  1  0  0  0  0
 26 25  2  0  0  0  0
 27 21  2  0  0  0  0
 28 29  1  0  0  0  0
 30 27  1  0  0  0  0
 31 30  1  0  0  0  0
M  END
>  <minimizedAffinity>
-4.7643075

>  <minimizedRMSD>
0.609248877

$$$$
