
 OpenBabel03252506343D

 35 37  0  0  1  0  0  0  0  0999 V2000
   44.4310   35.7330   44.9840 C   0  0  0  0  0  0  0  0  0  0  0  0
   45.1030   35.7360   43.7410 C   0  0  0  0  0  0  0  0  0  0  0  0
   46.0480   34.7870   43.4950 C   0  0  0  0  0  0  0  0  0  0  0  0
   46.2880   33.8820   44.4790 N   0  0  0  0  0  0  0  0  0  0  0  0
   45.6560   33.8840   45.6420 C   0  0  0  0  0  0  0  0  0  0  0  0
   44.7180   34.8090   45.9130 N   0  0  0  0  0  0  0  0  0  0  0  0
   45.9890   32.8930   46.5970 N   0  0  0  0  0  0  0  0  0  0  0  0
   45.1860   32.5490   47.7680 C   0  0  0  0  0  0  0  0  0  0  0  0
   46.2720   32.3010   48.8170 C   0  0  0  0  0  0  0  0  0  0  0  0
   47.5770   32.2390   48.0950 C   0  0  0  0  0  0  0  0  0  0  0  0
   47.1380   32.0210   46.6560 C   0  0  1  0  0  0  0  0  0  0  0  0
   43.6750   36.4800   45.1990 H   0  0  0  0  0  0  0  0  0  0  0  0
   46.5590   34.7940   42.5420 H   0  0  0  0  0  0  0  0  0  0  0  0
   44.7040   31.5880   47.5330 H   0  0  0  0  0  0  0  0  0  0  0  0
   44.4960   33.3380   48.0650 H   0  0  0  0  0  0  0  0  0  0  0  0
   46.0060   31.3680   49.3740 H   0  0  0  0  0  0  0  0  0  0  0  0
   46.2640   33.1300   49.5540 H   0  0  0  0  0  0  0  0  0  0  0  0
   48.2850   31.5040   48.4650 H   0  0  0  0  0  0  0  0  0  0  0  0
   48.0560   33.2610   48.1190 H   0  0  0  0  0  0  0  0  0  0  0  0
   47.9700   32.3650   46.0230 H   0  0  0  0  0  0  0  0  0  0  0  0
   44.7220   36.7680   42.8120 N   0  0  0  0  0  0  0  0  0  0  0  0
   45.5930   37.3580   42.7520 H   0  0  0  0  0  0  0  0  0  0  0  0
   43.7690   36.7920   42.3830 H   0  0  0  0  0  0  0  0  0  0  0  0
   46.7070   30.2970   46.4060 S   0  0  0  0  0  0  0  0  0  0  0  0
   49.1870   29.1060   45.5770 C   0  0  0  0  0  0  0  0  0  0  0  0
   48.1610   29.2680   46.4770 C   0  0  0  0  0  0  0  0  0  0  0  0
   48.1960   28.5410   47.6730 C   0  0  0  0  0  0  0  0  0  0  0  0
   47.4610   28.5550   48.4890 H   0  0  0  0  0  0  0  0  0  0  0  0
   49.2530   27.6660   47.9480 C   0  0  0  0  0  3  0  0  0  0  0  0
   50.2710   27.5220   47.0280 C   0  0  0  0  0  3  0  0  0  0  0  0
   50.2130   28.2540   45.8500 C   0  0  0  0  0  0  0  0  0  0  0  0
   49.0250   29.8810   44.4470 O   0  0  0  0  0  0  0  0  0  0  0  0
   49.1700   29.4790   43.5160 H   0  0  0  0  0  0  0  0  0  0  0  0
   51.1780   28.2060   44.8270 O   0  0  0  0  0  0  0  0  0  0  0  0
   52.0820   27.7900   44.9820 H   0  0  0  0  0  0  0  0  0  0  0  0
  1 12  1  0  0  0  0
  1  6  1  0  0  0  0
  2  1  2  0  0  0  0
  3  2  1  0  0  0  0
  3  4  2  0  0  0  0
  4  5  1  0  0  0  0
  5  6  2  0  0  0  0
  5  7  1  0  0  0  0
  7 11  1  0  0  0  0
  7  8  1  0  0  0  0
  8 15  1  0  0  0  0
  8  9  1  0  0  0  0
  9 16  1  0  0  0  0
  9 17  1  0  0  0  0
 10 19  1  0  0  0  0
 10 18  1  0  0  0  0
 10  9  1  0  0  0  0
 11 20  1  6  0  0  0
 11 10  1  0  0  0  0
 13  3  1  0  0  0  0
 14  8  1  0  0  0  0
 21  2  1  0  0  0  0
 22 21  1  0  0  0  0
 23 21  1  0  0  0  0
 24 26  1  0  0  0  0
 24 11  1  0  0  0  0
 25 31  2  0  0  0  0
 25 26  1  0  0  0  0
 26 27  2  0  0  0  0
 27 29  1  0  0  0  0
 27 28  1  0  0  0  0
 30 29  2  0  0  0  0
 31 30  1  0  0  0  0
 32 25  1  0  0  0  0
 33 32  1  0  0  0  0
 34 35  1  0  0  0  0
 34 31  1  0  0  0  0
M  END
>  <minimizedAffinity>
-5.17256784

>  <minimizedRMSD>
0.962222457

$$$$
