
 OpenBabel03252506343D

 35 37  0  0  1  0  0  0  0  0999 V2000
   44.4730   35.7560   45.0240 C   0  0  0  0  0  0  0  0  0  0  0  0
   45.1100   35.7080   43.7640 C   0  0  0  0  0  0  0  0  0  0  0  0
   45.9950   34.7050   43.5040 C   0  0  0  0  0  0  0  0  0  0  0  0
   46.2110   33.7990   44.4930 N   0  0  0  0  0  0  0  0  0  0  0  0
   45.6110   33.8500   45.6720 C   0  0  0  0  0  0  0  0  0  0  0  0
   44.7340   34.8280   45.9560 N   0  0  0  0  0  0  0  0  0  0  0  0
   45.9150   32.8520   46.6300 N   0  0  0  0  0  0  0  0  0  0  0  0
   45.1260   32.5660   47.8270 C   0  0  0  0  0  0  0  0  0  0  0  0
   46.2240   32.2700   48.8490 C   0  0  0  0  0  0  0  0  0  0  0  0
   47.5040   32.1280   48.0950 C   0  0  0  0  0  0  0  0  0  0  0  0
   47.0150   31.9190   46.6700 C   0  0  1  0  0  0  0  0  0  0  0  0
   43.7660   36.5470   45.2490 H   0  0  0  0  0  0  0  0  0  0  0  0
   46.4800   34.6740   42.5380 H   0  0  0  0  0  0  0  0  0  0  0  0
   44.5860   31.6310   47.6170 H   0  0  0  0  0  0  0  0  0  0  0  0
   44.4890   33.3960   48.1310 H   0  0  0  0  0  0  0  0  0  0  0  0
   45.9230   31.3590   49.4250 H   0  0  0  0  0  0  0  0  0  0  0  0
   46.2820   33.1070   49.5760 H   0  0  0  0  0  0  0  0  0  0  0  0
   48.1810   31.3590   48.4550 H   0  0  0  0  0  0  0  0  0  0  0  0
   48.0390   33.1220   48.0930 H   0  0  0  0  0  0  0  0  0  0  0  0
   47.8480   32.2090   46.0110 H   0  0  0  0  0  0  0  0  0  0  0  0
   44.7620   36.7490   42.8320 N   0  0  0  0  0  0  0  0  0  0  0  0
   45.6630   37.2900   42.7410 H   0  0  0  0  0  0  0  0  0  0  0  0
   43.8010   36.8210   42.4280 H   0  0  0  0  0  0  0  0  0  0  0  0
   46.4830   30.2180   46.4540 S   0  0  0  0  0  0  0  0  0  0  0  0
   47.4320   28.6450   44.2440 C   0  0  0  0  0  0  0  0  0  0  0  0
   47.6310   29.3270   45.4210 C   0  0  0  0  0  0  0  0  0  0  0  0
   48.9230   29.3760   45.9580 C   0  0  0  0  0  0  0  0  0  0  0  0
   49.2470   29.8730   46.8820 H   0  0  0  0  0  0  0  0  0  0  0  0
   49.9910   28.7450   45.3130 C   0  0  0  0  0  3  0  0  0  0  0  0
   49.7650   28.0680   44.1330 C   0  0  0  0  0  3  0  0  0  0  0  0
   48.4760   28.0330   43.6190 C   0  0  0  0  0  0  0  0  0  0  0  0
   46.1170   28.6780   43.8300 O   0  0  0  0  0  0  0  0  0  0  0  0
   45.6500   27.8240   43.5110 H   0  0  0  0  0  0  0  0  0  0  0  0
   48.1020   27.3820   42.4300 O   0  0  0  0  0  0  0  0  0  0  0  0
   48.7920   27.0750   41.7640 H   0  0  0  0  0  0  0  0  0  0  0  0
  1 12  1  0  0  0  0
  1  6  1  0  0  0  0
  2  1  2  0  0  0  0
  3  2  1  0  0  0  0
  3  4  2  0  0  0  0
  4  5  1  0  0  0  0
  5  6  2  0  0  0  0
  5  7  1  0  0  0  0
  7 11  1  0  0  0  0
  7  8  1  0  0  0  0
  8 15  1  0  0  0  0
  8  9  1  0  0  0  0
  9 16  1  0  0  0  0
  9 17  1  0  0  0  0
 10 18  1  0  0  0  0
 10  9  1  0  0  0  0
 11 20  1  6  0  0  0
 11 10  1  0  0  0  0
 13  3  1  0  0  0  0
 14  8  1  0  0  0  0
 19 10  1  0  0  0  0
 21  2  1  0  0  0  0
 22 21  1  0  0  0  0
 23 21  1  0  0  0  0
 24 11  1  0  0  0  0
 25 26  1  0  0  0  0
 26 27  2  0  0  0  0
 26 24  1  0  0  0  0
 27 28  1  0  0  0  0
 29 27  1  0  0  0  0
 30 29  2  0  0  0  0
 31 30  1  0  0  0  0
 31 25  2  0  0  0  0
 32 25  1  0  0  0  0
 33 32  1  0  0  0  0
 34 31  1  0  0  0  0
 35 34  1  0  0  0  0
M  END
>  <minimizedAffinity>
-4.97861242

>  <minimizedRMSD>
1.38151753

$$$$
