
 OpenBabel03252509273D

 32 34  0  0  1  0  0  0  0  0999 V2000
   46.8160   35.1390   41.8950 C   0  0  1  0  0  0  0  0  0  0  0  0
   48.3160   35.5460   41.9700 C   0  0  0  0  0  0  0  0  0  0  0  0
   47.7450   34.2820   41.2780 C   0  0  2  0  0  0  0  0  0  0  0  0
   46.1990   35.8670   41.3400 H   0  0  0  0  0  0  0  0  0  0  0  0
   48.8440   35.4370   42.9170 H   0  0  0  0  0  0  0  0  0  0  0  0
   48.5950   36.3800   41.3160 H   0  0  0  0  0  0  0  0  0  0  0  0
   48.1450   33.3460   41.7740 H   0  0  0  0  0  0  0  0  0  0  0  0
   44.8230   35.1350   45.0710 C   0  0  0  0  0  0  0  0  0  0  0  0
   45.2850   35.5650   43.7950 C   0  0  0  0  0  0  0  0  0  0  0  0
   46.2840   34.8160   43.2700 C   0  0  0  0  0  0  0  0  0  0  0  0
   46.8080   33.7220   43.9350 N   0  0  0  0  0  0  0  0  0  0  0  0
   46.3320   33.3570   45.1470 C   0  0  0  0  0  0  0  0  0  0  0  0
   45.3330   34.0690   45.7150 N   0  0  0  0  0  0  0  0  0  0  0  0
   44.0270   35.7030   45.5220 H   0  0  0  0  0  0  0  0  0  0  0  0
   46.8430   32.4850   45.5340 H   0  0  0  0  0  0  0  0  0  0  0  0
   44.7660   36.6940   43.1310 N   0  0  0  0  0  0  0  0  0  0  0  0
   43.7280   36.8600   43.1870 H   0  0  0  0  0  0  0  0  0  0  0  0
   45.4380   37.3230   42.6110 H   0  0  0  0  0  0  0  0  0  0  0  0
   47.8280   34.1760   39.7780 C   0  0  0  0  0  0  0  0  0  0  0  0
   46.8140   34.4410   39.4000 H   0  0  0  0  0  0  0  0  0  0  0  0
   48.5010   34.9880   39.4170 H   0  0  0  0  0  0  0  0  0  0  0  0
   48.9410   33.1000   38.0190 C   0  0  0  0  0  0  0  0  0  0  0  0
   48.3080   32.9010   39.2540 C   0  0  0  0  0  0  0  0  0  0  0  0
   48.2630   31.6070   39.7230 C   0  0  0  0  0  0  0  0  0  0  0  0
   47.7670   31.5370   40.6670 H   0  0  0  0  0  0  0  0  0  0  0  0
   48.8040   30.5500   39.0300 C   0  0  0  0  0  3  0  0  0  0  0  0
   49.4290   30.7600   37.8030 C   0  0  0  0  0  3  0  0  0  0  0  0
   49.4860   32.0400   37.3160 C   0  0  0  0  0  0  0  0  0  0  0  0
   49.1100   34.3150   37.3440 O   0  0  0  0  0  0  0  0  0  0  0  0
   49.7310   34.9850   37.7920 H   0  0  0  0  0  0  0  0  0  0  0  0
   50.1290   32.1430   36.0900 O   0  0  0  0  0  0  0  0  0  0  0  0
   50.3960   33.0970   35.8090 H   0  0  0  0  0  0  0  0  0  0  0  0
  1  4  1  6  0  0  0
  1  2  1  0  0  0  0
  1 10  1  0  0  0  0
  2  5  1  0  0  0  0
  3  7  1  1  0  0  0
  3  1  1  0  0  0  0
  3  2  1  0  0  0  0
  6  2  1  0  0  0  0
  8 14  1  0  0  0  0
  8 13  1  0  0  0  0
  9  8  2  0  0  0  0
 10  9  1  0  0  0  0
 10 11  2  0  0  0  0
 11 12  1  0  0  0  0
 12 15  1  0  0  0  0
 12 13  2  0  0  0  0
 16 17  1  0  0  0  0
 16  9  1  0  0  0  0
 18 16  1  0  0  0  0
 19  3  1  0  0  0  0
 20 19  1  0  0  0  0
 21 19  1  0  0  0  0
 22 23  1  0  0  0  0
 23 24  2  0  0  0  0
 23 19  1  0  0  0  0
 24 25  1  0  0  0  0
 26 24  1  0  0  0  0
 27 26  2  0  0  0  0
 28 27  1  0  0  0  0
 28 22  2  0  0  0  0
 29 30  1  0  0  0  0
 29 22  1  0  0  0  0
 31 28  1  0  0  0  0
 32 31  1  0  0  0  0
M  END
>  <minimizedAffinity>
-5.3700099

>  <minimizedRMSD>
1.00833261

$$$$
