
     RDKit          3D

 40 42  0  0  0  0  0  0  0  0999 V2000
   46.1709   32.5484   46.9988 C   0  0  0  0  0  0  0  0  0  0  0  0
   45.2431   32.5579   47.9889 C   0  0  0  0  0  0  0  0  0  0  0  0
   45.4308   31.7541   49.0910 C   0  0  0  0  0  0  0  0  0  0  0  0
   46.5548   30.9461   49.1849 C   0  0  0  0  0  0  0  0  0  0  0  0
   47.4807   30.9650   48.1508 C   0  0  0  0  0  0  0  0  0  0  0  0
   47.2594   31.7449   47.1240 N   0  0  0  0  0  0  0  0  0  0  0  0
   44.9713   34.9954   44.5645 C   0  0  0  0  0  0  0  0  0  0  0  0
   45.9265   34.8573   43.5291 C   0  0  0  0  0  0  0  0  0  0  0  0
   46.9812   33.9180   43.6758 C   0  0  0  0  0  0  0  0  0  0  0  0
   46.9700   33.2300   44.8183 N   0  0  0  0  0  0  0  0  0  0  0  0
   46.0702   33.3633   45.7886 C   0  0  0  0  0  0  0  0  0  0  0  0
   45.0675   34.2519   45.6564 N   0  0  0  0  0  0  0  0  0  0  0  0
   43.9300   35.9361   44.4011 N   0  0  0  0  0  0  0  0  0  0  0  0
   48.6767   30.1310   48.2089 C   0  0  0  0  0  0  0  0  0  0  0  0
   49.7813   30.4950   48.8574 C   0  0  0  0  0  0  0  0  0  0  0  0
   49.8889   31.7757   49.5726 C   0  0  0  0  0  0  0  0  0  0  0  0
   44.3630   33.2079   47.8864 H   0  0  0  0  0  0  0  0  0  0  0  0
   44.6799   31.7744   49.8708 H   0  0  0  0  0  0  0  0  0  0  0  0
   46.7184   30.3084   50.0429 H   0  0  0  0  0  0  0  0  0  0  0  0
   45.8511   35.4652   42.6321 H   0  0  0  0  0  0  0  0  0  0  0  0
   47.7180   33.8033   42.8922 H   0  0  0  0  0  0  0  0  0  0  0  0
   43.9579   36.6388   43.6489 H   0  0  0  0  0  0  0  0  0  0  0  0
   43.1201   35.9132   45.0584 H   0  0  0  0  0  0  0  0  0  0  0  0
   48.4484   29.2433   47.6495 H   0  0  0  0  0  0  0  0  0  0  0  0
   50.5555   29.7468   48.7857 H   0  0  0  0  0  0  0  0  0  0  0  0
   48.9395   32.3356   49.3937 H   0  0  0  0  0  0  0  0  0  0  0  0
   50.6720   32.3836   49.0417 H   0  0  0  0  0  0  0  0  0  0  0  0
   51.3770   29.5956   50.3526 O   0  0  0  0  0  0  0  0  0  0  0  0
   50.9297   30.5011   51.3086 C   0  0  0  0  0  0  0  0  0  0  0  0
   50.1754   31.6282   51.0243 C   0  0  0  0  0  0  0  0  0  0  0  0
   49.7437   32.5119   51.9912 C   0  0  0  0  0  0  0  0  0  0  0  0
   49.1607   33.3642   51.6866 H   0  0  0  0  0  0  0  0  0  0  0  0
   50.0968   32.2361   53.3175 C   0  0  0  0  0  0  0  0  0  0  0  0
   50.8470   31.1111   53.5810 C   0  0  0  0  0  0  0  0  0  0  0  0
   51.2858   30.2193   52.6276 C   0  0  0  0  0  0  0  0  0  0  0  0
   52.0390   29.0967   52.9260 O   0  0  0  0  0  0  0  0  0  0  0  0
   52.2188   29.9004   49.8463 H   0  0  0  0  0  0  0  0  0  0  0  0
   49.7663   32.9182   54.0883 H   0  0  0  0  0  0  0  0  0  0  0  0
   51.1248   30.8918   54.6185 H   0  0  0  0  0  0  0  0  0  0  0  0
   53.0262   29.1257   52.6790 H   0  0  0  0  0  0  0  0  0  0  0  0
  1  6  1  0
  1  2  2  0
  2  3  1  0
  3  4  2  0
  5 14  1  0
  5  4  1  0
  6  5  2  0
  7 12  2  0
  8  9  2  0
  8  7  1  0
  9 10  1  0
 10 11  2  0
 11  1  1  0
 12 11  1  0
 13  7  1  0
 14 15  2  0
 15 16  1  0
  2 17  1  0
  3 18  1  0
  4 19  1  0
  8 20  1  0
  9 21  1  0
 13 22  1  0
 13 23  1  0
 14 24  1  0
 15 25  1  0
 16 26  1  0
 16 27  1  0
 28 29  1  0
 29 30  2  0
 30 31  1  0
 31 32  1  0
 31 33  2  0
 33 34  1  0
 34 35  2  0
 35 36  1  0
 35 29  1  0
 28 37  1  0
 33 38  1  0
 34 39  1  0
 36 40  1  0
 16 30  1  0
M  ISO  8  17  14  18  14  19  14  20  14  21  14  26   8  27   8  32  16
M  END
>  <DihAtoms>  (1) 
14,15,29,28

>  <DihDeg>  (1) 
76.00045374856528

$$$$
