
 OpenBabel03242516413D

 34 35  0  0  0  0  0  0  0  0999 V2000
   45.2430   30.3010   43.5010 C   0  0  0  0  0  0  0  0  0  0  0  0
   44.5950   30.3240   44.4010 H   0  0  0  0  0  0  0  0  0  0  0  0
   45.8850   31.2040   43.5860 H   0  0  0  0  0  0  0  0  0  0  0  0
   44.4580   30.4250   42.2290 C   0  0  0  0  0  0  0  0  0  0  0  0
   44.7850   29.6520   41.5250 H   0  0  0  0  0  0  0  0  0  0  0  0
   44.6620   31.4280   41.7530 H   0  0  0  0  0  0  0  0  0  0  0  0
   40.8330   31.4020   42.4630 C   0  0  0  0  0  0  0  0  0  0  0  0
   42.2230   31.4550   42.1660 C   0  0  0  0  0  0  0  0  0  0  0  0
   43.0120   30.3710   42.5380 C   0  0  0  0  0  0  0  0  0  0  0  0
   42.4330   29.3250   43.1580 N   0  0  0  0  0  0  0  0  0  0  0  0
   41.1040   29.3100   43.4260 C   0  0  0  0  0  0  0  0  0  0  0  0
   40.3110   30.3390   43.0810 N   0  0  0  0  0  0  0  0  0  0  0  0
   40.0060   32.4830   42.0990 N   0  0  0  0  0  0  0  0  0  0  0  0
   42.6610   32.3080   41.6660 H   0  0  0  0  0  0  0  0  0  0  0  0
   40.6420   28.4650   43.9250 H   0  0  0  0  0  0  0  0  0  0  0  0
   39.0810   32.6080   42.5180 H   0  0  0  0  0  0  0  0  0  0  0  0
   40.3590   33.1680   41.3820 H   0  0  0  0  0  0  0  0  0  0  0  0
   46.0470   29.1880   43.4490 O   0  0  0  0  0  0  0  0  0  0  0  0
   47.9400   30.8060   44.2600 O   0  0  0  0  0  0  0  0  0  0  0  0
   47.4600   29.3830   44.3690 P   0  0  2  0  0  0  0  0  0  0  0  0
   48.5820   28.2700   43.7980 O   0  0  0  0  0  0  0  0  0  0  0  0
   48.7220   27.5010   44.3720 H   0  0  0  0  0  0  0  0  0  0  0  0
   47.1180   28.9630   45.9810 O   0  0  0  0  0  0  0  0  0  0  0  0
   46.6760   30.3430   47.7720 C   0  0  0  0  0  0  0  0  0  0  0  0
   47.6360   29.5890   47.0890 C   0  0  0  0  0  0  0  0  0  0  0  0
   48.9230   29.5740   47.5950 C   0  0  0  0  0  0  0  0  0  0  0  0
   49.6000   28.9680   47.0070 H   0  0  0  0  0  0  0  0  0  0  0  0
   49.2330   30.2830   48.7370 C   0  0  0  0  0  3  0  0  0  0  0  0
   48.2840   31.0260   49.4090 C   0  0  0  0  0  3  0  0  0  0  0  0
   47.0090   31.0480   48.9170 C   0  0  0  0  0  0  0  0  0  0  0  0
   45.3380   30.4530   47.3800 O   0  0  0  0  0  0  0  0  0  0  0  0
   45.1090   30.0750   46.4590 H   0  0  0  0  0  0  0  0  0  0  0  0
   46.0610   31.8070   49.6130 O   0  0  0  0  0  0  0  0  0  0  0  0
   45.0960   31.4720   49.6840 H   0  0  0  0  0  0  0  0  0  0  0  0
  1  3  1  0  0  0  0
  1  2  1  0  0  0  0
  4  9  1  0  0  0  0
  4  1  1  0  0  0  0
  5  4  1  0  0  0  0
  6  4  1  0  0  0  0
  7 12  1  0  0  0  0
  8  7  2  0  0  0  0
  8  9  1  0  0  0  0
  9 10  2  0  0  0  0
 10 11  1  0  0  0  0
 11 15  1  0  0  0  0
 12 11  2  0  0  0  0
 13  7  1  0  0  0  0
 13 16  1  0  0  0  0
 14  8  1  0  0  0  0
 17 13  1  0  0  0  0
 18  1  1  0  0  0  0
 18 20  1  0  0  0  0
 20 19  2  6  0  0  0
 20 23  1  0  0  0  0
 21 20  1  0  0  0  0
 21 22  1  0  0  0  0
 23 25  1  0  0  0  0
 24 30  1  0  0  0  0
 25 26  1  0  0  0  0
 25 24  2  0  0  0  0
 26 28  2  0  0  0  0
 27 26  1  0  0  0  0
 28 29  1  0  0  0  0
 30 29  2  0  0  0  0
 30 33  1  0  0  0  0
 31 24  1  0  0  0  0
 32 31  1  0  0  0  0
 33 34  1  0  0  0  0
M  END
>  <minimizedAffinity>
-3.58330226

>  <minimizedRMSD>
8.57923698

$$$$
