REMARK  Name = 
REMARK  8 active torsions:
REMARK  status: ('A' for Active; 'I' for Inactive)
REMARK    1  A    between atoms: C_3  and  O_7
REMARK    2  A    between atoms: O_7  and  P_9
REMARK    3  A    between atoms: P_9  and  O_10
REMARK    4  A    between atoms: P_9  and  O_11
REMARK    5  A    between atoms: O_11  and  C_12
REMARK    6  A    between atoms: C_12  and  C_20
REMARK    7  A    between atoms: O_18  and  C_19
REMARK    8  A    between atoms: C_25  and  O_26
REMARK                            x       y       z     vdW  Elec       q    Type
REMARK                         _______ _______ _______ _____ _____    ______ ____
ROOT
ATOM      1  O   UNL     1      45.318  30.861  47.474  0.00  0.00    +0.000 OA
ATOM      2  P   UNL     1      45.811  32.099  48.271  0.00  0.00    +0.000 P 
ENDROOT
BRANCH   2   3
ATOM      3  O   UNL     1      45.323  31.830  49.858  0.00  0.00    +0.000 OA
ATOM      4  H   UNL     1      46.093  31.889  50.476  0.00  0.00    +0.000 HD
ENDBRANCH   2   3
BRANCH   2   5
ATOM      5  O   UNL     1      45.023  33.451  47.636  0.00  0.00    +0.000 OA
BRANCH   5   8
ATOM      6  C   UNL     1      46.533  33.618  44.333  0.00  0.00    +0.000 A 
ATOM      7  C   UNL     1      46.230  33.191  45.649  0.00  0.00    +0.000 A 
ATOM      8  C   UNL     1      45.289  33.900  46.359  0.00  0.00    +0.000 A 
ATOM      9  N   UNL     1      44.707  34.961  45.766  0.00  0.00    +0.000 NA
ATOM     10  C   UNL     1      44.989  35.367  44.525  0.00  0.00    +0.000 A 
ATOM     11  N   UNL     1      45.903  34.698  43.804  0.00  0.00    +0.000 NA
ATOM     12  H   UNL     1      47.259  33.126  43.697  0.00  0.00    +0.000 HD
ATOM     13  H   UNL     1      46.798  32.339  45.919  0.00  0.00    +0.000 HD
ATOM     14  H   UNL     1      44.450  36.240  44.156  0.00  0.00    +0.000 HD
ENDBRANCH   5   8
ENDBRANCH   2   5
BRANCH   2  15
ATOM     15  O   UNL     1      47.456  32.218  48.134  0.00  0.00    +0.000 OA
BRANCH  15  16
ATOM     16  C   UNL     1      48.474  31.430  48.525  0.00  0.00    +0.000 C 
ATOM     17  O   UNL     1      49.234  32.018  49.431  0.00  0.00    +0.000 OA
BRANCH  16  19
ATOM     18  C   UNL     1      49.528  29.394  49.446  0.00  0.00    +0.000 A 
ATOM     19  C   UNL     1      49.157  30.100  48.362  0.00  0.00    +0.000 A 
ATOM     20  C   UNL     1      49.453  29.553  47.103  0.00  0.00    +0.000 A 
ATOM     21  H   UNL     1      49.111  30.202  46.276  0.00  0.00    +0.000 HD
ATOM     22  C   UNL     1      50.084  28.367  46.840  0.00  0.00    +0.000 A 
ATOM     23  C   UNL     1      50.428  27.710  47.972  0.00  0.00    +0.000 A 
ATOM     24  C   UNL     1      50.180  28.168  49.233  0.00  0.00    +0.000 A 
BRANCH  18  25
ATOM     25  O   UNL     1      49.344  29.730  50.777  0.00  0.00    +0.000 OA
ATOM     26  H   UNL     1      49.009  29.092  51.488  0.00  0.00    +0.000 HD
ENDBRANCH  18  25
BRANCH  24  27
ATOM     27  O   UNL     1      50.574  27.416  50.329  0.00  0.00    +0.000 OA
ATOM     28  H   UNL     1      50.997  27.904  51.112  0.00  0.00    +0.000 HD
ENDBRANCH  24  27
ENDBRANCH  16  19
ENDBRANCH  15  16
ENDBRANCH   2  15
TORSDOF 8
