
 OpenBabel03242513443D

 48 51  0  0  0  0  0  0  0  0999 V2000
   47.7290   31.0230   45.9730 C   0  0  0  0  0  0  0  0  0  0  0  0
   46.9810   32.0350   45.4490 C   0  0  0  0  0  0  0  0  0  0  0  0
   45.9170   32.5000   46.1860 C   0  0  0  0  0  0  0  0  0  0  0  0
   45.5730   31.9950   47.4180 C   0  0  0  0  0  0  0  0  0  0  0  0
   44.6280   32.2180   48.3600 N   0  0  0  0  0  0  0  0  0  0  0  0
   44.8070   31.3650   49.4090 C   0  0  0  0  0  0  0  0  0  0  0  0
   45.8780   30.6130   49.1010 N   0  0  0  0  0  0  0  0  0  0  0  0
   46.3460   30.9830   47.9070 C   0  0  0  0  0  0  0  0  0  0  0  0
   47.4180   30.4740   47.2260 C   0  0  0  0  0  0  0  0  0  0  0  0
   48.5910   30.5890   45.4640 H   0  0  0  0  0  0  0  0  0  0  0  0
   45.2910   33.3100   45.8020 H   0  0  0  0  0  0  0  0  0  0  0  0
   43.8930   32.9470   48.2460 H   0  0  0  0  0  0  0  0  0  0  0  0
   44.1830   31.3310   50.3070 H   0  0  0  0  0  0  0  0  0  0  0  0
   47.3320   34.3940   42.6790 C   0  0  0  0  0  0  0  0  0  0  0  0
   47.9380   33.6120   41.6780 C   0  0  0  0  0  0  0  0  0  0  0  0
   48.2080   32.2740   42.0040 C   0  0  0  0  0  0  0  0  0  0  0  0
   47.8840   31.7990   43.2340 N   0  0  0  0  0  0  0  0  0  0  0  0
   47.3080   32.6000   44.1440 C   0  0  0  0  0  0  0  0  0  0  0  0
   47.0260   33.8820   43.8920 N   0  0  0  0  0  0  0  0  0  0  0  0
   47.1030   35.4360   42.4710 H   0  0  0  0  0  0  0  0  0  0  0  0
   48.6770   31.6640   41.2320 H   0  0  0  0  0  0  0  0  0  0  0  0
   48.2460   34.2380   40.3720 C   0  0  0  0  0  0  0  0  0  0  0  0
   48.7770   35.4840   40.6980 F   0  0  0  0  0  0  0  0  0  0  0  0
   47.0720   34.4320   39.7000 F   0  0  0  0  0  0  0  0  0  0  0  0
   49.1380   33.4380   39.6900 F   0  0  0  0  0  0  0  0  0  0  0  0
   48.1780   29.4410   47.7650 O   0  0  0  0  0  0  0  0  0  0  0  0
   49.7810   28.2310   49.4090 O   0  0  0  0  0  0  0  0  0  0  0  0
   49.3870   29.6100   48.9200 P   0  0  2  0  0  0  0  0  0  0  0  0
   48.6880   30.4140   50.2540 O   0  0  0  0  0  0  0  0  0  0  0  0
   48.0480   29.8090   50.7020 H   0  0  0  0  0  0  0  0  0  0  0  0
   50.7260   30.4520   48.3920 O   0  0  0  0  0  0  0  0  0  0  0  0
   51.7300   30.5990   49.3110 C   0  0  0  0  0  0  0  0  0  0  0  0
   52.6980   30.1740   49.0670 H   0  0  0  0  0  0  0  0  0  0  0  0
   51.3870   30.0510   50.2370 H   0  0  0  0  0  0  0  0  0  0  0  0
   51.7940   32.1000   49.6530 C   0  0  0  0  0  0  0  0  0  0  0  0
   50.7990   32.3760   50.0850 H   0  0  0  0  0  0  0  0  0  0  0  0
   52.0020   32.7220   48.7880 H   0  0  0  0  0  0  0  0  0  0  0  0
   52.5200   31.8430   51.9300 C   0  0  0  0  0  0  0  0  0  0  0  0
   52.8790   32.2950   50.6570 C   0  0  0  0  0  0  0  0  0  0  0  0
   54.1130   32.8590   50.4150 C   0  0  0  0  0  0  0  0  0  0  0  0
   54.3120   33.1850   49.3930 H   0  0  0  0  0  0  0  0  0  0  0  0
   55.0290   32.9820   51.4660 C   0  0  0  0  0  3  0  0  0  0  0  0
   54.6690   32.5320   52.7310 C   0  0  0  0  0  3  0  0  0  0  0  0
   53.4350   31.9670   52.9760 C   0  0  0  0  0  0  0  0  0  0  0  0
   51.3300   31.2610   52.3230 O   0  0  0  0  0  0  0  0  0  0  0  0
   50.5450   31.0370   51.7620 H   0  0  0  0  0  0  0  0  0  0  0  0
   53.1610   31.5410   54.2900 O   0  0  0  0  0  0  0  0  0  0  0  0
   52.2470   31.1410   54.5150 H   0  0  0  0  0  0  0  0  0  0  0  0
  1  9  1  0  0  0  0
  2  1  2  0  0  0  0
  2  3  1  0  0  0  0
  3  4  2  0  0  0  0
  4  8  1  0  0  0  0
  4  5  1  0  0  0  0
  5  6  1  0  0  0  0
  6 13  1  0  0  0  0
  7  6  2  0  0  0  0
  8  7  1  0  0  0  0
  9 26  1  0  0  0  0
  9  8  2  0  0  0  0
 10  1  1  0  0  0  0
 11  3  1  0  0  0  0
 12  5  1  0  0  0  0
 14 19  1  0  0  0  0
 15 16  1  0  0  0  0
 15 14  2  0  0  0  0
 16 17  2  0  0  0  0
 17 18  1  0  0  0  0
 18  2  1  0  0  0  0
 19 18  2  0  0  0  0
 20 14  1  0  0  0  0
 21 16  1  0  0  0  0
 22 23  1  0  0  0  0
 22 15  1  0  0  0  0
 24 22  1  0  0  0  0
 25 22  1  0  0  0  0
 26 28  1  0  0  0  0
 28 27  2  1  0  0  0
 28 29  1  0  0  0  0
 29 30  1  0  0  0  0
 31 28  1  0  0  0  0
 31 32  1  0  0  0  0
 32 35  1  0  0  0  0
 32 34  1  0  0  0  0
 33 32  1  0  0  0  0
 35 36  1  0  0  0  0
 35 39  1  0  0  0  0
 37 35  1  0  0  0  0
 38 45  1  0  0  0  0
 38 44  1  0  0  0  0
 39 38  2  0  0  0  0
 40 39  1  0  0  0  0
 40 42  2  0  0  0  0
 41 40  1  0  0  0  0
 42 43  1  0  0  0  0
 43 44  2  0  0  0  0
 44 47  1  0  0  0  0
 46 45  1  0  0  0  0
 47 48  1  0  0  0  0
M  END
>  <minimizedAffinity>
-6.12854671

>  <minimizedRMSD>
0.15961431

$$$$
