REMARK  Name = 
REMARK  12 active torsions:
REMARK  status: ('A' for Active; 'I' for Inactive)
REMARK    1  A    between atoms: O_1  and  C_3
REMARK    2  A    between atoms: O_1  and  P_11
REMARK    3  A    between atoms: C_2  and  O_7
REMARK    4  A    between atoms: O_7  and  C_8
REMARK    5  A    between atoms: C_8  and  C_9
REMARK    6  A    between atoms: P_11  and  O_12
REMARK    7  A    between atoms: P_11  and  O_13
REMARK    8  A    between atoms: O_13  and  C_18
REMARK    9  A    between atoms: C_14  and  O_20
REMARK   10  A    between atoms: O_20  and  C_37
REMARK   11  A    between atoms: O_35  and  C_36
REMARK   12  A    between atoms: C_42  and  O_43
REMARK                            x       y       z     vdW  Elec       q    Type
REMARK                         _______ _______ _______ _____ _____    ______ ____
ROOT
ATOM      1  O   UNL     1      47.172  32.994  46.940  0.00  0.00    +0.000 OA
ATOM      2  P   UNL     1      45.731  32.670  46.744  0.00  0.00    +0.000 P 
ENDROOT
BRANCH   2   3
ATOM      3  O   UNL     1      45.588  31.470  45.565  0.00  0.00    +0.000 OA
ATOM      4  H   UNL     1      44.836  31.593  44.948  0.00  0.00    +0.000 HD
ENDBRANCH   2   3
BRANCH   2   5
ATOM      5  O   UNL     1      45.158  32.109  48.187  0.00  0.00    +0.000 OA
BRANCH   5   7
ATOM      6  C   UNL     1      46.985  30.570  48.206  0.00  0.00    +0.000 C 
ATOM      7  C   UNL     1      45.528  30.802  48.367  0.00  0.00    +0.000 C 
ATOM      8  C   UNL     1      44.872  29.884  47.461  0.00  0.00    +0.000 C 
ATOM      9  O   UNL     1      45.743  28.825  47.177  0.00  0.00    +0.000 OA
ATOM     10  C   UNL     1      46.829  29.017  47.961  0.00  0.00    +0.000 C 
ATOM     11  H   UNL     1      47.438  30.762  47.219  0.00  0.00    +0.000 HD
ATOM     12  H   UNL     1      45.384  30.653  49.477  0.00  0.00    +0.000 HD
ATOM     13  H   UNL     1      44.131  30.140  46.735  0.00  0.00    +0.000 HD
ATOM     14  H   UNL     1      44.178  29.296  48.162  0.00  0.00    +0.000 HD
ATOM     15  H   UNL     1      47.777  28.585  47.651  0.00  0.00    +0.000 HD
ATOM     16  H   UNL     1      46.627  28.643  48.998  0.00  0.00    +0.000 HD
BRANCH   6  17
ATOM     17  O   UNL     1      47.757  30.732  49.294  0.00  0.00    +0.000 OA
BRANCH  17  18
ATOM     18  C   UNL     1      49.012  31.087  49.288  0.00  0.00    +0.000 C 
ATOM     19  H   UNL     1      49.309  32.079  49.068  0.00  0.00    +0.000 HD
ATOM     20  H   UNL     1      49.450  30.552  48.292  0.00  0.00    +0.000 HD
BRANCH  18  21
ATOM     21  C   UNL     1      49.730  30.328  50.398  0.00  0.00    +0.000 C 
ATOM     22  H   UNL     1      50.822  30.537  50.365  0.00  0.00    +0.000 HD
ATOM     23  H   UNL     1      49.264  30.598  51.357  0.00  0.00    +0.000 HD
ATOM     24  H   UNL     1      49.603  29.236  50.147  0.00  0.00    +0.000 HD
ENDBRANCH  18  21
ENDBRANCH  17  18
ENDBRANCH   6  17
ENDBRANCH   5   7
ENDBRANCH   2   5
BRANCH   2  25
ATOM     25  O   UNL     1      44.983  34.121  46.256  0.00  0.00    +0.000 OA
BRANCH  25  30
ATOM     26  C   UNL     1      44.971  36.395  43.479  0.00  0.00    +0.000 A 
ATOM     27  C   UNL     1      45.032  35.537  42.342  0.00  0.00    +0.000 A 
ATOM     28  C   UNL     1      45.077  34.159  42.602  0.00  0.00    +0.000 A 
ATOM     29  N   UNL     1      45.060  33.729  43.881  0.00  0.00    +0.000 NA
ATOM     30  C   UNL     1      45.001  34.566  44.927  0.00  0.00    +0.000 A 
ATOM     31  N   UNL     1      44.958  35.885  44.721  0.00  0.00    +0.000 NA
ATOM     32  H   UNL     1      45.056  35.834  41.327  0.00  0.00    +0.000 HD
ATOM     33  H   UNL     1      45.124  33.473  41.759  0.00  0.00    +0.000 HD
BRANCH  26  34
ATOM     34  O   UNL     1      44.928  37.740  43.285  0.00  0.00    +0.000 OA
BRANCH  34  36
ATOM     35  C   UNL     1      45.239  39.602  41.941  0.00  0.00    +0.000 A 
ATOM     36  C   UNL     1      44.897  38.267  42.012  0.00  0.00    +0.000 A 
ATOM     37  C   UNL     1      44.569  37.596  40.852  0.00  0.00    +0.000 A 
ATOM     38  H   UNL     1      44.310  36.542  40.993  0.00  0.00    +0.000 HD
ATOM     39  C   UNL     1      44.566  38.206  39.615  0.00  0.00    +0.000 A 
ATOM     40  C   UNL     1      44.908  39.539  39.548  0.00  0.00    +0.000 A 
ATOM     41  C   UNL     1      45.241  40.235  40.695  0.00  0.00    +0.000 A 
BRANCH  35  42
ATOM     42  O   UNL     1      45.605  40.483  42.953  0.00  0.00    +0.000 OA
ATOM     43  H   UNL     1      46.502  40.992  42.919  0.00  0.00    +0.000 HD
ENDBRANCH  35  42
BRANCH  41  44
ATOM     44  O   UNL     1      45.569  41.587  40.482  0.00  0.00    +0.000 OA
ATOM     45  H   UNL     1      44.898  42.113  39.935  0.00  0.00    +0.000 HD
ENDBRANCH  41  44
ENDBRANCH  34  36
ENDBRANCH  26  34
ENDBRANCH  25  30
ENDBRANCH   2  25
TORSDOF 12
