
 OpenBabel03252501033D

 33 35  0  0  1  0  0  0  0  0999 V2000
   47.9820   33.9870   40.0440 O   0  0  0  0  0  0  0  0  0  0  0  0
   47.9470   35.5540   41.8780 C   0  0  1  0  0  0  0  0  0  0  0  0
   49.3120   34.9790   41.9350 C   0  0  0  0  0  0  0  0  0  0  0  0
   48.5360   35.0610   40.6280 C   0  0  1  0  0  0  0  0  0  0  0  0
   47.7630   36.6430   41.9310 H   0  0  0  0  0  0  0  0  0  0  0  0
   49.5480   33.9580   42.2110 H   0  0  0  0  0  0  0  0  0  0  0  0
   50.1270   35.7460   42.0880 H   0  0  0  0  0  0  0  0  0  0  0  0
   48.9640   35.8050   39.9250 H   0  0  0  0  0  0  0  0  0  0  0  0
   46.1600   33.0480   44.0760 C   0  0  0  0  0  0  0  0  0  0  0  0
   47.1960   33.8210   43.5380 C   0  0  0  0  0  0  0  0  0  0  0  0
   46.8850   34.7050   42.4990 C   0  0  0  0  0  0  0  0  0  0  0  0
   45.5990   34.7770   42.0530 N   0  0  0  0  0  0  0  0  0  0  0  0
   44.6140   34.0190   42.5890 C   0  0  0  0  0  0  0  0  0  0  0  0
   44.9040   33.1570   43.6000 N   0  0  0  0  0  0  0  0  0  0  0  0
   46.4140   32.3740   44.8740 H   0  0  0  0  0  0  0  0  0  0  0  0
   48.1710   33.7130   43.9350 H   0  0  0  0  0  0  0  0  0  0  0  0
   43.6200   34.1400   42.1750 H   0  0  0  0  0  0  0  0  0  0  0  0
   49.3210   32.4830   38.3180 O   0  0  0  0  0  0  0  0  0  0  0  0
   48.3560   33.6340   38.4870 P   0  0  2  0  0  0  0  0  0  0  0  0
   49.0230   34.9380   37.6290 O   0  0  0  0  0  0  0  0  0  0  0  0
   49.8200   35.2680   38.1420 H   0  0  0  0  0  0  0  0  0  0  0  0
   46.9560   33.1830   37.6580 O   0  0  0  0  0  0  0  0  0  0  0  0
   44.5000   33.3230   37.8830 C   0  0  0  0  0  0  0  0  0  0  0  0
   45.7440   32.8480   38.1930 C   0  0  0  0  0  0  0  0  0  0  0  0
   45.8330   31.8800   39.1990 C   0  0  0  0  0  0  0  0  0  0  0  0
   46.7350   31.3860   39.5810 H   0  0  0  0  0  0  0  0  0  0  0  0
   44.6840   31.4390   39.8370 C   0  0  0  0  0  0  0  0  0  0  0  0
   43.4490   31.9320   39.5060 C   0  0  0  0  0  0  0  0  0  0  0  0
   43.3470   32.9000   38.5030 C   0  0  0  0  0  0  0  0  0  0  0  0
   44.4780   34.2810   36.8780 O   0  0  0  0  0  0  0  0  0  0  0  0
   43.6170   34.4230   36.3480 H   0  0  0  0  0  0  0  0  0  0  0  0
   42.1650   33.5000   38.0510 O   0  0  0  0  0  0  0  0  0  0  0  0
   41.6010   34.0390   38.7150 H   0  0  0  0  0  0  0  0  0  0  0  0
  1  4  1  0  0  0  0
  2  5  1  1  0  0  0
  2  3  1  0  0  0  0
  2 11  1  0  0  0  0
  3  7  1  0  0  0  0
  3  6  1  0  0  0  0
  4  8  1  6  0  0  0
  4  2  1  0  0  0  0
  4  3  1  0  0  0  0
  9 15  1  0  0  0  0
 10 16  1  0  0  0  0
 10  9  2  0  0  0  0
 11 10  1  0  0  0  0
 12 11  2  0  0  0  0
 12 13  1  0  0  0  0
 13 14  2  0  0  0  0
 14  9  1  0  0  0  0
 17 13  1  0  0  0  0
 19 18  2  6  0  0  0
 19  1  1  0  0  0  0
 20 21  1  0  0  0  0
 20 19  1  0  0  0  0
 22 24  1  0  0  0  0
 22 19  1  0  0  0  0
 23 24  2  0  0  0  0
 23 29  1  0  0  0  0
 24 25  1  0  0  0  0
 25 26  1  0  0  0  0
 25 27  2  0  0  0  0
 28 27  1  0  0  0  0
 29 28  2  0  0  0  0
 30 23  1  0  0  0  0
 31 30  1  0  0  0  0
 32 29  1  0  0  0  0
 32 33  1  0  0  0  0
M  END
>  <minimizedAffinity>
-4.98079872

>  <minimizedRMSD>
0.593755484

$$$$
