
     RDKit          3D

 37 39  0  0  0  0  0  0  0  0999 V2000
   44.4925   35.7570   45.0194 C   0  0  0  0  0  0  0  0  0  0  0  0
   45.1224   35.7156   43.7552 C   0  0  0  0  0  0  0  0  0  0  0  0
   46.0021   34.7121   43.4830 C   0  0  0  0  0  0  0  0  0  0  0  0
   46.2211   33.7981   44.4638 N   0  0  0  0  0  0  0  0  0  0  0  0
   45.6278   33.8418   45.6469 C   0  0  0  0  0  0  0  0  0  0  0  0
   44.7547   34.8211   45.9431 N   0  0  0  0  0  0  0  0  0  0  0  0
   45.9337   32.8363   46.5960 N   0  0  0  0  0  0  0  0  0  0  0  0
   45.1507   32.5443   47.7953 C   0  0  0  0  0  0  0  0  0  0  0  0
   46.2540   32.2366   48.8093 C   0  0  0  0  0  0  0  0  0  0  0  0
   47.5285   32.0956   48.0464 C   0  0  0  0  0  0  0  0  0  0  0  0
   47.0305   31.8990   46.6226 C   0  0  1  0  0  0  0  0  0  0  0  0
   44.7715   36.7646   42.8334 N   0  0  0  0  0  0  0  0  0  0  0  0
   46.4924   30.2018   46.3965 S   0  0  0  0  0  0  0  0  0  0  0  0
   43.7895   36.5483   45.2538 H   0  0  0  0  0  0  0  0  0  0  0  0
   46.4809   34.6861   42.5135 H   0  0  0  0  0  0  0  0  0  0  0  0
   44.6061   31.6117   47.5810 H   0  0  0  0  0  0  0  0  0  0  0  0
   44.5181   33.3743   48.1093 H   0  0  0  0  0  0  0  0  0  0  0  0
   45.9533   31.3233   49.3795 H   0  0  0  0  0  0  0  0  0  0  0  0
   46.3187   33.0682   49.5405 H   0  0  0  0  0  0  0  0  0  0  0  0
   48.2047   31.3221   48.3974 H   0  0  0  0  0  0  0  0  0  0  0  0
   48.0666   33.0882   48.0476 H   0  0  0  0  0  0  0  0  0  0  0  0
   47.8614   32.1905   45.9608 H   0  0  0  0  0  0  0  0  0  0  0  0
   45.6742   37.3034   42.7410 H   0  0  0  0  0  0  0  0  0  0  0  0
   43.8092   36.8432   42.4350 H   0  0  0  0  0  0  0  0  0  0  0  0
   48.7357   29.6446   44.3865 O   0  0  0  0  0  0  0  0  0  0  0  0
   48.8779   28.8639   45.5159 C   0  0  0  0  0  0  0  0  0  0  0  0
   47.8842   29.0886   46.4383 C   0  0  0  0  0  0  0  0  0  0  0  0
   47.9040   28.3640   47.6362 C   0  0  0  0  0  0  0  0  0  0  0  0
   47.1907   28.4244   48.4688 H   0  0  0  0  0  0  0  0  0  0  0  0
   48.9138   27.4294   47.8906 C   0  0  0  0  0  0  0  0  0  0  0  0
   49.8987   27.2232   46.9480 C   0  0  0  0  0  0  0  0  0  0  0  0
   49.8578   27.9535   45.7686 C   0  0  0  0  0  0  0  0  0  0  0  0
   50.7937   27.8458   44.7239 O   0  0  0  0  0  0  0  0  0  0  0  0
   48.8349   29.2318   43.4537 H   0  0  0  0  0  0  0  0  0  0  0  0
   48.9708   26.8482   48.7976 H   0  0  0  0  0  0  0  0  0  0  0  0
   50.7206   26.5302   47.0408 H   0  0  0  0  0  0  0  0  0  0  0  0
   51.6757   27.3779   44.8596 H   0  0  0  0  0  0  0  0  0  0  0  0
  1  6  2  0
  2  1  1  0
  3  2  2  0
  3  4  1  0
  4  5  2  0
  5  6  1  0
  5  7  1  0
  7 11  1  0
  7  8  1  0
  8  9  1  0
 10  9  1  0
 11 10  1  0
 12  2  1  0
 13 11  1  0
  1 14  1  0
  3 15  1  0
  8 16  1  0
  8 17  1  0
  9 18  1  0
  9 19  1  0
 10 20  1  0
 10 21  1  0
 11 22  1  6
 12 23  1  0
 12 24  1  0
 25 26  1  0
 26 27  2  0
 27 28  1  0
 28 29  1  0
 28 30  2  0
 30 31  1  0
 31 32  2  0
 32 33  1  0
 32 26  1  0
 25 34  1  0
 30 35  1  0
 31 36  1  0
 33 37  1  0
 13 27  1  0
M  ISO  8  14  14  15  14  16  13  17  13  18  13  19  13  20  13  21  13
M  ISO  2  22  13  29  16
M  END
>  <DihAtoms>  (1) 
10,12,26,25

>  <DihDeg>  (1) 
92.00372441892272

$$$$
