
 OpenBabel03252502573D

 39 41  0  0  0  0  0  0  0  0999 V2000
   35.3920   28.9070   40.8360 Br  0  0  0  0  0  0  0  0  0  0  0  0
   37.1430   29.0620   41.6340 C   0  0  0  0  0  0  0  0  0  0  0  0
   37.6320   27.9360   42.2320 C   0  0  0  0  0  0  0  0  0  0  0  0
   38.9000   28.0870   42.7980 C   0  0  0  0  0  0  0  0  0  0  0  0
   39.6180   29.2690   42.7660 C   0  0  0  0  0  0  0  0  0  0  0  0
   39.0580   30.3540   42.1460 C   0  0  0  0  0  0  0  0  0  0  0  0
   37.8040   30.2690   41.5660 C   0  0  0  0  0  0  0  0  0  0  0  0
   39.3620   27.2520   43.2910 H   0  0  0  0  0  0  0  0  0  0  0  0
   40.5850   29.3790   43.1980 H   0  0  0  0  0  0  0  0  0  0  0  0
   39.5730   31.3170   42.0860 H   0  0  0  0  0  0  0  0  0  0  0  0
   36.9910   26.6320   42.3420 C   0  0  0  0  0  0  0  0  0  0  0  0
   35.9030   26.7540   42.1290 H   0  0  0  0  0  0  0  0  0  0  0  0
   37.0890   26.3140   43.4210 H   0  0  0  0  0  0  0  0  0  0  0  0
   38.3800   23.4490   40.9700 C   0  0  0  0  0  0  0  0  0  0  0  0
   38.5600   23.7600   39.6270 C   0  0  0  0  0  0  0  0  0  0  0  0
   38.2080   25.0440   39.2090 C   0  0  0  0  0  0  0  0  0  0  0  0
   37.7160   25.9120   40.1080 N   0  0  0  0  0  0  0  0  0  0  0  0
   37.5440   25.5980   41.4200 C   0  0  0  0  0  0  0  0  0  0  0  0
   37.8910   24.3490   41.8090 N   0  0  0  0  0  0  0  0  0  0  0  0
   38.6570   22.4420   41.2970 H   0  0  0  0  0  0  0  0  0  0  0  0
   38.9530   23.0860   38.8790 H   0  0  0  0  0  0  0  0  0  0  0  0
   38.3100   25.3870   38.1790 H   0  0  0  0  0  0  0  0  0  0  0  0
   37.2460   31.3880   40.9370 O   0  0  0  0  0  0  0  0  0  0  0  0
   37.3060   33.3130   39.1910 O   0  0  0  0  0  0  0  0  0  0  0  0
   37.6130   31.8170   39.3310 P   0  0  2  0  0  0  0  0  0  0  0  0
   36.6270   30.9390   38.3190 O   0  0  0  0  0  0  0  0  0  0  0  0
   35.7260   30.8350   38.7340 H   0  0  0  0  0  0  0  0  0  0  0  0
   39.2430   31.6160   38.9750 O   0  0  0  0  0  0  0  0  0  0  0  0
   40.8220   32.9200   37.9450 C   0  0  0  0  0  0  0  0  0  0  0  0
   40.2460   32.5580   39.1670 C   0  0  0  0  0  0  0  0  0  0  0  0
   40.7050   33.1340   40.3320 C   0  0  0  0  0  0  0  0  0  0  0  0
   40.1850   32.7770   41.2080 H   0  0  0  0  0  0  0  0  0  0  0  0
   41.7250   34.0590   40.2750 C   0  0  0  0  0  3  0  0  0  0  0  0
   42.3020   34.4240   39.0740 C   0  0  0  0  0  3  0  0  0  0  0  0
   41.8510   33.8550   37.9000 C   0  0  0  0  0  0  0  0  0  0  0  0
   40.4580   32.4190   36.6910 O   0  0  0  0  0  0  0  0  0  0  0  0
   39.6670   31.7770   36.5870 H   0  0  0  0  0  0  0  0  0  0  0  0
   42.4570   34.2470   36.7080 O   0  0  0  0  0  0  0  0  0  0  0  0
   42.0720   35.0020   36.1610 H   0  0  0  0  0  0  0  0  0  0  0  0
  1  2  1  0  0  0  0
  2  3  1  0  0  0  0
  3 11  1  0  0  0  0
  3  4  2  0  0  0  0
  4  8  1  0  0  0  0
  5  4  1  0  0  0  0
  5  9  1  0  0  0  0
  6  5  2  0  0  0  0
  7  2  2  0  0  0  0
  7  6  1  0  0  0  0
 10  6  1  0  0  0  0
 11 13  1  0  0  0  0
 12 11  1  0  0  0  0
 14 20  1  0  0  0  0
 14 19  1  0  0  0  0
 15 14  2  0  0  0  0
 16 15  1  0  0  0  0
 16 17  2  0  0  0  0
 17 18  1  0  0  0  0
 18 19  2  0  0  0  0
 18 11  1  0  0  0  0
 21 15  1  0  0  0  0
 22 16  1  0  0  0  0
 23  7  1  0  0  0  0
 25 24  2  6  0  0  0
 25 23  1  0  0  0  0
 26 27  1  0  0  0  0
 26 25  1  0  0  0  0
 28 30  1  0  0  0  0
 28 25  1  0  0  0  0
 29 30  1  0  0  0  0
 30 31  2  0  0  0  0
 31 32  1  0  0  0  0
 33 31  1  0  0  0  0
 34 33  2  0  0  0  0
 35 29  2  0  0  0  0
 35 34  1  0  0  0  0
 36 29  1  0  0  0  0
 37 36  1  0  0  0  0
 38 35  1  0  0  0  0
 39 38  1  0  0  0  0
M  END
>  <minimizedAffinity>
-6.68659449

$$$$

 OpenBabel03252502573D

 39 41  0  0  0  0  0  0  0  0999 V2000
   39.2550   30.2950   42.6170 Br  0  0  0  0  0  0  0  0  0  0  0  0
   37.6480   29.7860   41.6750 C   0  0  0  0  0  0  0  0  0  0  0  0
   37.3020   28.4660   41.7490 C   0  0  0  0  0  0  0  0  0  0  0  0
   36.1350   28.1360   41.0550 C   0  0  0  0  0  0  0  0  0  0  0  0
   35.3780   29.0530   40.3480 C   0  0  0  0  0  0  0  0  0  0  0  0
   35.7930   30.3580   40.3240 C   0  0  0  0  0  0  0  0  0  0  0  0
   36.9410   30.7490   40.9900 C   0  0  0  0  0  0  0  0  0  0  0  0
   35.7880   27.1200   41.0580 H   0  0  0  0  0  0  0  0  0  0  0  0
   34.4880   28.7970   39.8220 H   0  0  0  0  0  0  0  0  0  0  0  0
   35.2390   31.1310   39.7830 H   0  0  0  0  0  0  0  0  0  0  0  0
   38.0000   27.3970   42.4510 C   0  0  0  0  0  0  0  0  0  0  0  0
   37.2570   26.8320   43.0610 H   0  0  0  0  0  0  0  0  0  0  0  0
   38.7160   27.8960   43.1680 H   0  0  0  0  0  0  0  0  0  0  0  0
   40.2060   25.9420   39.8130 C   0  0  0  0  0  0  0  0  0  0  0  0
   39.9730   24.5780   39.9520 C   0  0  0  0  0  0  0  0  0  0  0  0
   39.0710   24.1750   40.9380 C   0  0  0  0  0  0  0  0  0  0  0  0
   38.4760   25.1070   41.7000 N   0  0  0  0  0  0  0  0  0  0  0  0
   38.7100   26.4380   41.5550 C   0  0  0  0  0  0  0  0  0  0  0  0
   39.5870   26.8130   40.5940 N   0  0  0  0  0  0  0  0  0  0  0  0
   40.9120   26.2570   39.0390 H   0  0  0  0  0  0  0  0  0  0  0  0
   40.4340   23.8040   39.3560 H   0  0  0  0  0  0  0  0  0  0  0  0
   38.8210   23.1320   41.1280 H   0  0  0  0  0  0  0  0  0  0  0  0
   37.3500   32.0880   40.9540 O   0  0  0  0  0  0  0  0  0  0  0  0
   38.3720   34.2470   39.9300 O   0  0  0  0  0  0  0  0  0  0  0  0
   38.1960   32.7530   39.6350 P   0  0  2  0  0  0  0  0  0  0  0  0
   37.2700   32.5500   38.2670 O   0  0  0  0  0  0  0  0  0  0  0  0
   36.3060   32.6600   38.4950 H   0  0  0  0  0  0  0  0  0  0  0  0
   39.7370   32.1010   39.4720 O   0  0  0  0  0  0  0  0  0  0  0  0
   41.2460   33.1730   38.1210 C   0  0  0  0  0  0  0  0  0  0  0  0
   40.9270   32.8150   39.4350 C   0  0  0  0  0  0  0  0  0  0  0  0
   41.7680   33.1840   40.4620 C   0  0  0  0  0  0  0  0  0  0  0  0
   41.4190   32.8510   41.4280 H   0  0  0  0  0  0  0  0  0  0  0  0
   42.9110   33.9010   40.1800 C   0  0  0  0  0  3  0  0  0  0  0  0
   43.2360   34.2600   38.8860 C   0  0  0  0  0  3  0  0  0  0  0  0
   42.4020   33.8970   37.8480 C   0  0  0  0  0  0  0  0  0  0  0  0
   40.4880   32.8690   36.9850 O   0  0  0  0  0  0  0  0  0  0  0  0
   39.5810   32.4000   37.0640 H   0  0  0  0  0  0  0  0  0  0  0  0
   42.7620   34.2770   36.5570 O   0  0  0  0  0  0  0  0  0  0  0  0
   42.4190   35.1390   36.1600 H   0  0  0  0  0  0  0  0  0  0  0  0
  2  3  1  0  0  0  0
  2  1  1  0  0  0  0
  3 11  1  0  0  0  0
  4  8  1  0  0  0  0
  4  3  2  0  0  0  0
  5  4  1  0  0  0  0
  6  5  2  0  0  0  0
  6  7  1  0  0  0  0
  7  2  2  0  0  0  0
  9  5  1  0  0  0  0
 10  6  1  0  0  0  0
 11 12  1  0  0  0  0
 11 13  1  0  0  0  0
 14 15  2  0  0  0  0
 14 19  1  0  0  0  0
 15 16  1  0  0  0  0
 16 22  1  0  0  0  0
 16 17  2  0  0  0  0
 18 17  1  0  0  0  0
 18 11  1  0  0  0  0
 19 18  2  0  0  0  0
 20 14  1  0  0  0  0
 21 15  1  0  0  0  0
 23  7  1  0  0  0  0
 25 24  2  1  0  0  0
 25 23  1  0  0  0  0
 26 27  1  0  0  0  0
 26 25  1  0  0  0  0
 28 25  1  0  0  0  0
 29 30  1  0  0  0  0
 30 28  1  0  0  0  0
 30 31  2  0  0  0  0
 31 32  1  0  0  0  0
 33 31  1  0  0  0  0
 34 33  2  0  0  0  0
 35 29  2  0  0  0  0
 35 34  1  0  0  0  0
 36 37  1  0  0  0  0
 36 29  1  0  0  0  0
 38 35  1  0  0  0  0
 39 38  1  0  0  0  0
M  END
>  <minimizedAffinity>
-6.62189436

$$$$

 OpenBabel03252502573D

 39 41  0  0  0  0  0  0  0  0999 V2000
   37.1870   27.4210   37.9200 Br  0  0  0  0  0  0  0  0  0  0  0  0
   37.0400   28.3700   39.5940 C   0  0  0  0  0  0  0  0  0  0  0  0
   37.1130   27.6070   40.7250 C   0  0  0  0  0  0  0  0  0  0  0  0
   37.0030   28.3290   41.9170 C   0  0  0  0  0  0  0  0  0  0  0  0
   36.8350   29.7010   41.9690 C   0  0  0  0  0  0  0  0  0  0  0  0
   36.7720   30.3940   40.7900 C   0  0  0  0  0  0  0  0  0  0  0  0
   36.8750   29.7380   39.5750 C   0  0  0  0  0  0  0  0  0  0  0  0
   37.0480   27.8100   42.8550 H   0  0  0  0  0  0  0  0  0  0  0  0
   36.7520   30.2470   42.8790 H   0  0  0  0  0  0  0  0  0  0  0  0
   36.6410   31.4800   40.7620 H   0  0  0  0  0  0  0  0  0  0  0  0
   37.2860   26.1630   40.8200 C   0  0  0  0  0  0  0  0  0  0  0  0
   37.2250   25.7320   39.7930 H   0  0  0  0  0  0  0  0  0  0  0  0
   36.4030   25.7700   41.4030 H   0  0  0  0  0  0  0  0  0  0  0  0
   40.9200   25.7760   41.5850 C   0  0  0  0  0  0  0  0  0  0  0  0
   40.9030   24.8970   42.6620 C   0  0  0  0  0  0  0  0  0  0  0  0
   39.6600   24.4490   43.1100 C   0  0  0  0  0  0  0  0  0  0  0  0
   38.5480   24.8810   42.4920 N   0  0  0  0  0  0  0  0  0  0  0  0
   38.5760   25.7410   41.4400 C   0  0  0  0  0  0  0  0  0  0  0  0
   39.7900   26.1650   41.0170 N   0  0  0  0  0  0  0  0  0  0  0  0
   41.8960   26.1260   41.2340 H   0  0  0  0  0  0  0  0  0  0  0  0
   41.7780   24.5300   43.1800 H   0  0  0  0  0  0  0  0  0  0  0  0
   39.5380   23.7600   43.9450 H   0  0  0  0  0  0  0  0  0  0  0  0
   36.8080   30.4620   38.3790 O   0  0  0  0  0  0  0  0  0  0  0  0
   37.0640   33.0200   38.7640 O   0  0  0  0  0  0  0  0  0  0  0  0
   37.7650   31.8380   38.0840 P   0  0  2  0  0  0  0  0  0  0  0  0
   37.8280   32.0860   36.4400 O   0  0  0  0  0  0  0  0  0  0  0  0
   36.9490   31.8530   36.0310 H   0  0  0  0  0  0  0  0  0  0  0  0
   39.2930   31.7110   38.7740 O   0  0  0  0  0  0  0  0  0  0  0  0
   40.9490   32.9900   37.8390 C   0  0  0  0  0  0  0  0  0  0  0  0
   40.1840   32.7550   38.9870 C   0  0  0  0  0  0  0  0  0  0  0  0
   40.3890   33.5270   40.1090 C   0  0  0  0  0  0  0  0  0  0  0  0
   39.7420   33.2520   40.9290 H   0  0  0  0  0  0  0  0  0  0  0  0
   41.3440   34.5200   40.0850 C   0  0  0  0  0  3  0  0  0  0  0  0
   42.1050   34.7620   38.9570 C   0  0  0  0  0  3  0  0  0  0  0  0
   41.9100   33.9960   37.8260 C   0  0  0  0  0  0  0  0  0  0  0  0
   40.8480   32.2880   36.6340 O   0  0  0  0  0  0  0  0  0  0  0  0
   40.1300   31.5700   36.4970 H   0  0  0  0  0  0  0  0  0  0  0  0
   42.6960   34.2680   36.7090 O   0  0  0  0  0  0  0  0  0  0  0  0
   42.3710   34.9020   35.9950 H   0  0  0  0  0  0  0  0  0  0  0  0
  1  2  1  0  0  0  0
  2  3  1  0  0  0  0
  3 11  1  0  0  0  0
  3  4  2  0  0  0  0
  4  5  1  0  0  0  0
  4  8  1  0  0  0  0
  5  9  1  0  0  0  0
  6  5  2  0  0  0  0
  7  2  2  0  0  0  0
  7  6  1  0  0  0  0
 10  6  1  0  0  0  0
 11 13  1  0  0  0  0
 11 18  1  0  0  0  0
 12 11  1  0  0  0  0
 14 15  1  0  0  0  0
 15 16  2  0  0  0  0
 15 21  1  0  0  0  0
 16 22  1  0  0  0  0
 17 16  1  0  0  0  0
 18 17  2  0  0  0  0
 19 18  1  0  0  0  0
 19 14  2  0  0  0  0
 20 14  1  0  0  0  0
 23  7  1  0  0  0  0
 25 23  1  0  0  0  0
 25 24  2  1  0  0  0
 25 28  1  0  0  0  0
 26 25  1  0  0  0  0
 27 26  1  0  0  0  0
 28 30  1  0  0  0  0
 29 30  1  0  0  0  0
 30 31  2  0  0  0  0
 31 32  1  0  0  0  0
 33 31  1  0  0  0  0
 34 33  2  0  0  0  0
 35 29  2  0  0  0  0
 35 34  1  0  0  0  0
 36 29  1  0  0  0  0
 37 36  1  0  0  0  0
 38 35  1  0  0  0  0
 39 38  1  0  0  0  0
M  END
>  <minimizedAffinity>
-6.40444469

$$$$

 OpenBabel03252502573D

 39 41  0  0  0  0  0  0  0  0999 V2000
   39.3930   29.5000   42.7450 Br  0  0  0  0  0  0  0  0  0  0  0  0
   37.7340   29.5600   41.7590 C   0  0  0  0  0  0  0  0  0  0  0  0
   36.9580   28.4370   41.8220 C   0  0  0  0  0  0  0  0  0  0  0  0
   35.7670   28.5170   41.0970 C   0  0  0  0  0  0  0  0  0  0  0  0
   35.3860   29.6310   40.3700 C   0  0  0  0  0  0  0  0  0  0  0  0
   36.2200   30.7170   40.3580 C   0  0  0  0  0  0  0  0  0  0  0  0
   37.4150   30.7000   41.0560 C   0  0  0  0  0  0  0  0  0  0  0  0
   35.0950   27.6800   41.0890 H   0  0  0  0  0  0  0  0  0  0  0  0
   34.4760   29.6880   39.8190 H   0  0  0  0  0  0  0  0  0  0  0  0
   35.9770   31.6280   39.8030 H   0  0  0  0  0  0  0  0  0  0  0  0
   37.2320   27.2000   42.5430 C   0  0  0  0  0  0  0  0  0  0  0  0
   36.3180   26.9140   43.1130 H   0  0  0  0  0  0  0  0  0  0  0  0
   38.0390   27.4380   43.2960 H   0  0  0  0  0  0  0  0  0  0  0  0
   38.8310   25.1340   39.8750 C   0  0  0  0  0  0  0  0  0  0  0  0
   38.2910   23.8750   40.1140 C   0  0  0  0  0  0  0  0  0  0  0  0
   37.3930   23.7480   41.1740 C   0  0  0  0  0  0  0  0  0  0  0  0
   37.0930   24.8310   41.9100 N   0  0  0  0  0  0  0  0  0  0  0  0
   37.6270   26.0570   41.6690 C   0  0  0  0  0  0  0  0  0  0  0  0
   38.4960   26.1640   40.6360 N   0  0  0  0  0  0  0  0  0  0  0  0
   39.5340   25.2320   39.0430 H   0  0  0  0  0  0  0  0  0  0  0  0
   38.5100   22.9850   39.5410 H   0  0  0  0  0  0  0  0  0  0  0  0
   36.9150   22.8060   41.4440 H   0  0  0  0  0  0  0  0  0  0  0  0
   38.2560   31.8190   41.0320 O   0  0  0  0  0  0  0  0  0  0  0  0
   39.5190   33.8100   39.9380 O   0  0  0  0  0  0  0  0  0  0  0  0
   38.2950   32.9100   39.7260 P   0  0  2  0  0  0  0  0  0  0  0  0
   36.9050   33.8230   39.7680 O   0  0  0  0  0  0  0  0  0  0  0  0
   36.6540   34.0110   40.7150 H   0  0  0  0  0  0  0  0  0  0  0  0
   38.5090   32.1310   38.2520 O   0  0  0  0  0  0  0  0  0  0  0  0
   40.6150   31.7040   37.4550 C   0  0  0  0  0  0  0  0  0  0  0  0
   39.4450   31.1430   37.9770 C   0  0  0  0  0  0  0  0  0  0  0  0
   39.3630   29.7780   38.1430 C   0  0  0  0  0  0  0  0  0  0  0  0
   38.4140   29.4630   38.5510 H   0  0  0  0  0  0  0  0  0  0  0  0
   40.4350   28.9850   37.7940 C   0  0  0  0  0  3  0  0  0  0  0  0
   41.5960   29.5290   37.2780 C   0  0  0  0  0  3  0  0  0  0  0  0
   41.6920   30.8950   37.1070 C   0  0  0  0  0  0  0  0  0  0  0  0
   40.8380   33.0670   37.2340 O   0  0  0  0  0  0  0  0  0  0  0  0
   40.1470   33.7690   37.5160 H   0  0  0  0  0  0  0  0  0  0  0  0
   42.8770   31.4070   36.5850 O   0  0  0  0  0  0  0  0  0  0  0  0
   43.6180   31.7140   37.1970 H   0  0  0  0  0  0  0  0  0  0  0  0
  2  3  1  0  0  0  0
  2  1  1  0  0  0  0
  3 11  1  0  0  0  0
  4  3  2  0  0  0  0
  5  4  1  0  0  0  0
  6  5  2  0  0  0  0
  6  7  1  0  0  0  0
  7  2  2  0  0  0  0
  8  4  1  0  0  0  0
  9  5  1  0  0  0  0
 10  6  1  0  0  0  0
 11 12  1  0  0  0  0
 11 13  1  0  0  0  0
 14 15  2  0  0  0  0
 14 19  1  0  0  0  0
 15 16  1  0  0  0  0
 16 22  1  0  0  0  0
 16 17  2  0  0  0  0
 18 17  1  0  0  0  0
 18 11  1  0  0  0  0
 19 18  2  0  0  0  0
 20 14  1  0  0  0  0
 21 15  1  0  0  0  0
 23  7  1  0  0  0  0
 25 26  1  0  0  0  0
 25 24  2  1  0  0  0
 25 23  1  0  0  0  0
 26 27  1  0  0  0  0
 28 25  1  0  0  0  0
 29 30  1  0  0  0  0
 30 31  2  0  0  0  0
 30 28  1  0  0  0  0
 31 32  1  0  0  0  0
 33 31  1  0  0  0  0
 34 33  2  0  0  0  0
 35 34  1  0  0  0  0
 35 29  2  0  0  0  0
 36 29  1  0  0  0  0
 36 37  1  0  0  0  0
 38 35  1  0  0  0  0
 38 39  1  0  0  0  0
M  END
>  <minimizedAffinity>
-6.35684299

$$$$

 OpenBabel03252502573D

 39 41  0  0  0  0  0  0  0  0999 V2000
   37.4800   31.4860   37.1010 Br  0  0  0  0  0  0  0  0  0  0  0  0
   36.6040   30.5210   38.5240 C   0  0  0  0  0  0  0  0  0  0  0  0
   36.0200   29.3360   38.1750 C   0  0  0  0  0  0  0  0  0  0  0  0
   35.3960   28.6670   39.2310 C   0  0  0  0  0  0  0  0  0  0  0  0
   35.3620   29.1460   40.5290 C   0  0  0  0  0  0  0  0  0  0  0  0
   35.9720   30.3420   40.7970 C   0  0  0  0  0  0  0  0  0  0  0  0
   36.6070   31.0540   39.7950 C   0  0  0  0  0  0  0  0  0  0  0  0
   34.9100   27.7280   39.0480 H   0  0  0  0  0  0  0  0  0  0  0  0
   34.8860   28.6320   41.3310 H   0  0  0  0  0  0  0  0  0  0  0  0
   35.9810   30.7750   41.8020 H   0  0  0  0  0  0  0  0  0  0  0  0
   35.9770   28.7150   36.8580 C   0  0  0  0  0  0  0  0  0  0  0  0
   36.1930   29.4960   36.0920 H   0  0  0  0  0  0  0  0  0  0  0  0
   34.9130   28.3710   36.6980 H   0  0  0  0  0  0  0  0  0  0  0  0
   37.4530   25.3120   36.4330 C   0  0  0  0  0  0  0  0  0  0  0  0
   38.8130   25.5890   36.3490 C   0  0  0  0  0  0  0  0  0  0  0  0
   39.2070   26.9240   36.4400 C   0  0  0  0  0  0  0  0  0  0  0  0
   38.2700   27.8720   36.6000 N   0  0  0  0  0  0  0  0  0  0  0  0
   36.9420   27.5910   36.6800 C   0  0  0  0  0  0  0  0  0  0  0  0
   36.5770   26.2910   36.5920 N   0  0  0  0  0  0  0  0  0  0  0  0
   37.1460   24.2640   36.3630 H   0  0  0  0  0  0  0  0  0  0  0  0
   39.5920   24.8500   36.2210 H   0  0  0  0  0  0  0  0  0  0  0  0
   40.2470   27.2460   36.3860 H   0  0  0  0  0  0  0  0  0  0  0  0
   37.2250   32.2760   40.0870 O   0  0  0  0  0  0  0  0  0  0  0  0
   38.9160   31.2500   41.7730 O   0  0  0  0  0  0  0  0  0  0  0  0
   38.7920   32.3790   40.7420 P   0  0  2  0  0  0  0  0  0  0  0  0
   38.9460   33.8540   41.4950 O   0  0  0  0  0  0  0  0  0  0  0  0
   38.0840   34.1010   41.9300 H   0  0  0  0  0  0  0  0  0  0  0  0
   39.9840   32.1200   39.5860 O   0  0  0  0  0  0  0  0  0  0  0  0
   41.4070   33.2290   38.1720 C   0  0  0  0  0  0  0  0  0  0  0  0
   41.1900   32.8020   39.4860 C   0  0  0  0  0  0  0  0  0  0  0  0
   42.1270   33.0850   40.4560 C   0  0  0  0  0  0  0  0  0  0  0  0
   41.8510   32.7050   41.4280 H   0  0  0  0  0  0  0  0  0  0  0  0
   43.2640   33.7860   40.1170 C   0  0  0  0  0  3  0  0  0  0  0  0
   43.4890   34.2140   38.8210 C   0  0  0  0  0  3  0  0  0  0  0  0
   42.5580   33.9360   37.8410 C   0  0  0  0  0  0  0  0  0  0  0  0
   40.5450   33.0140   37.0910 O   0  0  0  0  0  0  0  0  0  0  0  0
   39.6330   32.5660   37.2220 H   0  0  0  0  0  0  0  0  0  0  0  0
   42.8180   34.3830   36.5470 O   0  0  0  0  0  0  0  0  0  0  0  0
   42.4700   35.2760   36.2320 H   0  0  0  0  0  0  0  0  0  0  0  0
  1  2  1  0  0  0  0
  2  7  1  0  0  0  0
  3  2  2  0  0  0  0
  3  4  1  0  0  0  0
  4  5  2  0  0  0  0
  5  6  1  0  0  0  0
  5  9  1  0  0  0  0
  6 10  1  0  0  0  0
  7 23  1  0  0  0  0
  7  6  2  0  0  0  0
  8  4  1  0  0  0  0
 11  3  1  0  0  0  0
 12 11  1  0  0  0  0
 13 11  1  0  0  0  0
 14 19  1  0  0  0  0
 15 14  2  0  0  0  0
 15 16  1  0  0  0  0
 16 17  2  0  0  0  0
 17 18  1  0  0  0  0
 18 11  1  0  0  0  0
 19 18  2  0  0  0  0
 20 14  1  0  0  0  0
 21 15  1  0  0  0  0
 22 16  1  0  0  0  0
 23 25  1  0  0  0  0
 25 26  1  0  0  0  0
 25 24  2  1  0  0  0
 26 27  1  0  0  0  0
 28 25  1  0  0  0  0
 29 30  1  0  0  0  0
 30 28  1  0  0  0  0
 30 31  2  0  0  0  0
 31 32  1  0  0  0  0
 33 31  1  0  0  0  0
 34 33  2  0  0  0  0
 35 29  2  0  0  0  0
 35 34  1  0  0  0  0
 36 37  1  0  0  0  0
 36 29  1  0  0  0  0
 38 35  1  0  0  0  0
 39 38  1  0  0  0  0
M  END
>  <minimizedAffinity>
-6.33510923

$$$$

 OpenBabel03252502573D

 39 41  0  0  0  0  0  0  0  0999 V2000
   37.4410   31.2400   37.2530 Br  0  0  0  0  0  0  0  0  0  0  0  0
   36.6810   30.3360   38.7800 C   0  0  0  0  0  0  0  0  0  0  0  0
   36.1390   29.1050   38.5400 C   0  0  0  0  0  0  0  0  0  0  0  0
   35.5990   28.4820   39.6680 C   0  0  0  0  0  0  0  0  0  0  0  0
   35.6050   29.0470   40.9320 C   0  0  0  0  0  0  0  0  0  0  0  0
   36.1690   30.2840   41.0890 C   0  0  0  0  0  0  0  0  0  0  0  0
   36.7200   30.9540   40.0110 C   0  0  0  0  0  0  0  0  0  0  0  0
   35.1510   27.5120   39.5730 H   0  0  0  0  0  0  0  0  0  0  0  0
   35.1930   28.5680   41.7890 H   0  0  0  0  0  0  0  0  0  0  0  0
   36.2050   30.7850   42.0610 H   0  0  0  0  0  0  0  0  0  0  0  0
   36.0630   28.3940   37.2710 C   0  0  0  0  0  0  0  0  0  0  0  0
   36.5650   27.4050   37.3900 H   0  0  0  0  0  0  0  0  0  0  0  0
   36.6690   28.9920   36.5290 H   0  0  0  0  0  0  0  0  0  0  0  0
   32.4900   28.9000   36.3120 C   0  0  0  0  0  0  0  0  0  0  0  0
   32.1300   27.6420   35.8410 C   0  0  0  0  0  0  0  0  0  0  0  0
   33.1040   26.6440   35.8570 C   0  0  0  0  0  0  0  0  0  0  0  0
   34.3310   26.9350   36.3200 N   0  0  0  0  0  0  0  0  0  0  0  0
   34.6730   28.1680   36.7780 C   0  0  0  0  0  0  0  0  0  0  0  0
   33.7170   29.1260   36.7560 N   0  0  0  0  0  0  0  0  0  0  0  0
   31.7250   29.6820   36.2990 H   0  0  0  0  0  0  0  0  0  0  0  0
   31.1530   27.3750   35.4640 H   0  0  0  0  0  0  0  0  0  0  0  0
   32.9240   25.6260   35.5110 H   0  0  0  0  0  0  0  0  0  0  0  0
   37.2920   32.2200   40.1890 O   0  0  0  0  0  0  0  0  0  0  0  0
   39.0540   31.3890   41.9100 O   0  0  0  0  0  0  0  0  0  0  0  0
   38.8620   32.4380   40.8080 P   0  0  2  0  0  0  0  0  0  0  0  0
   38.9580   33.9670   41.4580 O   0  0  0  0  0  0  0  0  0  0  0  0
   38.0910   34.2030   41.8900 H   0  0  0  0  0  0  0  0  0  0  0  0
   40.0480   32.1560   39.6510 O   0  0  0  0  0  0  0  0  0  0  0  0
   41.4270   33.2640   38.1940 C   0  0  0  0  0  0  0  0  0  0  0  0
   41.2430   32.8500   39.5180 C   0  0  0  0  0  0  0  0  0  0  0  0
   42.1970   33.1560   40.4630 C   0  0  0  0  0  0  0  0  0  0  0  0
   41.9460   32.7850   41.4460 H   0  0  0  0  0  0  0  0  0  0  0  0
   43.3190   33.8660   40.0920 C   0  0  0  0  0  3  0  0  0  0  0  0
   43.5110   34.2800   38.7870 C   0  0  0  0  0  3  0  0  0  0  0  0
   42.5630   33.9800   37.8300 C   0  0  0  0  0  0  0  0  0  0  0  0
   40.5460   33.0260   37.1350 O   0  0  0  0  0  0  0  0  0  0  0  0
   39.6420   32.5690   37.2900 H   0  0  0  0  0  0  0  0  0  0  0  0
   42.7910   34.4130   36.5260 O   0  0  0  0  0  0  0  0  0  0  0  0
   42.4260   35.2980   36.2080 H   0  0  0  0  0  0  0  0  0  0  0  0
  1  2  1  0  0  0  0
  2  7  1  0  0  0  0
  3  2  2  0  0  0  0
  3  4  1  0  0  0  0
  4  5  2  0  0  0  0
  5  6  1  0  0  0  0
  5  9  1  0  0  0  0
  6 10  1  0  0  0  0
  7 23  1  0  0  0  0
  7  6  2  0  0  0  0
  8  4  1  0  0  0  0
 11 12  1  0  0  0  0
 11  3  1  0  0  0  0
 13 11  1  0  0  0  0
 14 19  1  0  0  0  0
 15 16  1  0  0  0  0
 15 14  2  0  0  0  0
 16 17  2  0  0  0  0
 17 18  1  0  0  0  0
 18 11  1  0  0  0  0
 19 18  2  0  0  0  0
 20 14  1  0  0  0  0
 21 15  1  0  0  0  0
 22 16  1  0  0  0  0
 23 25  1  0  0  0  0
 25 26  1  0  0  0  0
 25 24  2  1  0  0  0
 26 27  1  0  0  0  0
 28 25  1  0  0  0  0
 29 30  1  0  0  0  0
 30 28  1  0  0  0  0
 30 31  2  0  0  0  0
 31 32  1  0  0  0  0
 33 31  1  0  0  0  0
 34 33  2  0  0  0  0
 35 29  2  0  0  0  0
 35 34  1  0  0  0  0
 36 37  1  0  0  0  0
 36 29  1  0  0  0  0
 38 35  1  0  0  0  0
 39 38  1  0  0  0  0
M  END
>  <minimizedAffinity>
-6.28781796

$$$$

 OpenBabel03252502573D

 39 41  0  0  0  0  0  0  0  0999 V2000
   38.6460   29.8630   42.6210 Br  0  0  0  0  0  0  0  0  0  0  0  0
   37.9750   28.1770   41.9620 C   0  0  0  0  0  0  0  0  0  0  0  0
   38.3460   27.0670   42.6680 C   0  0  0  0  0  0  0  0  0  0  0  0
   37.8420   25.8660   42.1620 C   0  0  0  0  0  0  0  0  0  0  0  0
   37.0330   25.7860   41.0420 C   0  0  0  0  0  0  0  0  0  0  0  0
   36.7060   26.9450   40.3910 C   0  0  0  0  0  0  0  0  0  0  0  0
   37.1740   28.1670   40.8420 C   0  0  0  0  0  0  0  0  0  0  0  0
   38.0830   24.9430   42.6530 H   0  0  0  0  0  0  0  0  0  0  0  0
   36.6500   24.8680   40.6610 H   0  0  0  0  0  0  0  0  0  0  0  0
   36.0710   26.9500   39.5000 H   0  0  0  0  0  0  0  0  0  0  0  0
   39.1870   27.0030   43.8560 C   0  0  0  0  0  0  0  0  0  0  0  0
   38.7940   26.2010   44.5240 H   0  0  0  0  0  0  0  0  0  0  0  0
   39.0560   27.9860   44.3970 H   0  0  0  0  0  0  0  0  0  0  0  0
   42.4130   25.2670   43.1340 C   0  0  0  0  0  0  0  0  0  0  0  0
   43.3080   26.3290   43.0530 C   0  0  0  0  0  0  0  0  0  0  0  0
   42.8020   27.6150   43.2460 C   0  0  0  0  0  0  0  0  0  0  0  0
   41.4920   27.7720   43.4960 N   0  0  0  0  0  0  0  0  0  0  0  0
   40.6260   26.7270   43.5740 C   0  0  0  0  0  0  0  0  0  0  0  0
   41.1320   25.4860   43.3850 N   0  0  0  0  0  0  0  0  0  0  0  0
   42.8110   24.2590   42.9840 H   0  0  0  0  0  0  0  0  0  0  0  0
   44.3660   26.2370   42.8540 H   0  0  0  0  0  0  0  0  0  0  0  0
   43.4190   28.5130   43.2020 H   0  0  0  0  0  0  0  0  0  0  0  0
   36.8310   29.3430   40.1630 O   0  0  0  0  0  0  0  0  0  0  0  0
   36.2800   29.1920   37.6270 O   0  0  0  0  0  0  0  0  0  0  0  0
   37.3720   29.6830   38.5860 P   0  0  2  0  0  0  0  0  0  0  0  0
   38.7790   28.8350   38.3240 O   0  0  0  0  0  0  0  0  0  0  0  0
   38.7260   27.9470   38.7750 H   0  0  0  0  0  0  0  0  0  0  0  0
   37.5550   31.3320   38.3170 O   0  0  0  0  0  0  0  0  0  0  0  0
   38.1550   32.9170   39.8590 C   0  0  0  0  0  0  0  0  0  0  0  0
   38.5900   32.1280   38.7890 C   0  0  0  0  0  0  0  0  0  0  0  0
   39.8960   32.2260   38.3620 C   0  0  0  0  0  0  0  0  0  0  0  0
   40.1140   31.5700   37.5310 H   0  0  0  0  0  0  0  0  0  0  0  0
   40.7550   33.0990   38.9940 C   0  0  0  0  0  3  0  0  0  0  0  0
   40.3360   33.8840   40.0520 C   0  0  0  0  0  3  0  0  0  0  0  0
   39.0300   33.7950   40.4910 C   0  0  0  0  0  0  0  0  0  0  0  0
   36.8640   32.9210   40.3980 O   0  0  0  0  0  0  0  0  0  0  0  0
   36.1480   32.2680   40.0630 H   0  0  0  0  0  0  0  0  0  0  0  0
   38.6430   34.6010   41.5590 O   0  0  0  0  0  0  0  0  0  0  0  0
   38.6900   34.2550   42.5060 H   0  0  0  0  0  0  0  0  0  0  0  0
  2  1  1  0  0  0  0
  2  3  1  0  0  0  0
  3 11  1  0  0  0  0
  4  8  1  0  0  0  0
  4  3  2  0  0  0  0
  5  4  1  0  0  0  0
  6  7  1  0  0  0  0
  6  5  2  0  0  0  0
  7  2  2  0  0  0  0
  9  5  1  0  0  0  0
 10  6  1  0  0  0  0
 11 13  1  0  0  0  0
 11 12  1  0  0  0  0
 14 19  1  0  0  0  0
 15 14  2  0  0  0  0
 15 16  1  0  0  0  0
 16 17  2  0  0  0  0
 17 18  1  0  0  0  0
 18 11  1  0  0  0  0
 19 18  2  0  0  0  0
 20 14  1  0  0  0  0
 21 15  1  0  0  0  0
 22 16  1  0  0  0  0
 23  7  1  0  0  0  0
 25 24  2  6  0  0  0
 25 23  1  0  0  0  0
 26 25  1  0  0  0  0
 26 27  1  0  0  0  0
 28 25  1  0  0  0  0
 28 30  1  0  0  0  0
 29 36  1  0  0  0  0
 29 35  1  0  0  0  0
 30 29  2  0  0  0  0
 31 30  1  0  0  0  0
 31 33  2  0  0  0  0
 32 31  1  0  0  0  0
 33 34  1  0  0  0  0
 34 35  2  0  0  0  0
 35 38  1  0  0  0  0
 37 36  1  0  0  0  0
 38 39  1  0  0  0  0
M  END
>  <minimizedAffinity>
-6.26900816

$$$$

 OpenBabel03252502573D

 39 41  0  0  0  0  0  0  0  0999 V2000
   39.4570   30.0890   37.8350 Br  0  0  0  0  0  0  0  0  0  0  0  0
   38.0830   30.1790   39.1870 C   0  0  0  0  0  0  0  0  0  0  0  0
   37.5240   28.9870   39.5550 C   0  0  0  0  0  0  0  0  0  0  0  0
   36.5340   29.0920   40.5350 C   0  0  0  0  0  0  0  0  0  0  0  0
   36.1370   30.2920   41.0980 C   0  0  0  0  0  0  0  0  0  0  0  0
   36.7470   31.4430   40.6750 C   0  0  0  0  0  0  0  0  0  0  0  0
   37.7350   31.4070   39.7070 C   0  0  0  0  0  0  0  0  0  0  0  0
   36.0400   28.2060   40.8840 H   0  0  0  0  0  0  0  0  0  0  0  0
   35.3820   30.3670   41.8460 H   0  0  0  0  0  0  0  0  0  0  0  0
   36.4790   32.4230   41.0810 H   0  0  0  0  0  0  0  0  0  0  0  0
   37.8410   27.6580   39.0490 C   0  0  0  0  0  0  0  0  0  0  0  0
   38.8910   27.6640   38.6730 H   0  0  0  0  0  0  0  0  0  0  0  0
   37.1660   27.4820   38.1610 H   0  0  0  0  0  0  0  0  0  0  0  0
   36.6460   24.6540   40.9160 C   0  0  0  0  0  0  0  0  0  0  0  0
   37.5340   24.5980   41.9840 C   0  0  0  0  0  0  0  0  0  0  0  0
   38.5230   25.5800   42.0540 C   0  0  0  0  0  0  0  0  0  0  0  0
   38.5750   26.5240   41.1000 N   0  0  0  0  0  0  0  0  0  0  0  0
   37.7010   26.5700   40.0590 C   0  0  0  0  0  0  0  0  0  0  0  0
   36.7480   25.6100   40.0070 N   0  0  0  0  0  0  0  0  0  0  0  0
   35.8700   23.8840   40.8630 H   0  0  0  0  0  0  0  0  0  0  0  0
   37.5190   23.8530   42.7670 H   0  0  0  0  0  0  0  0  0  0  0  0
   39.2660   25.6240   42.8490 H   0  0  0  0  0  0  0  0  0  0  0  0
   38.3470   32.5930   39.2850 O   0  0  0  0  0  0  0  0  0  0  0  0
   40.3090   32.2800   40.9610 O   0  0  0  0  0  0  0  0  0  0  0  0
   39.5580   33.3740   40.1920 P   0  0  2  0  0  0  0  0  0  0  0  0
   38.8200   34.4130   41.2600 O   0  0  0  0  0  0  0  0  0  0  0  0
   37.9720   34.0070   41.5930 H   0  0  0  0  0  0  0  0  0  0  0  0
   40.6850   34.1490   39.2150 O   0  0  0  0  0  0  0  0  0  0  0  0
   42.6990   34.0080   38.1300 C   0  0  0  0  0  0  0  0  0  0  0  0
   42.0650   34.1150   39.3720 C   0  0  0  0  0  0  0  0  0  0  0  0
   42.8250   34.1700   40.5200 C   0  0  0  0  0  0  0  0  0  0  0  0
   42.2250   34.2510   41.4150 H   0  0  0  0  0  0  0  0  0  0  0  0
   44.1990   34.1200   40.4280 C   0  0  0  0  0  3  0  0  0  0  0  0
   44.8370   34.0140   39.2060 C   0  0  0  0  0  3  0  0  0  0  0  0
   44.0870   33.9580   38.0490 C   0  0  0  0  0  0  0  0  0  0  0  0
   42.0580   33.9440   36.8890 O   0  0  0  0  0  0  0  0  0  0  0  0
   41.0400   34.0410   36.8130 H   0  0  0  0  0  0  0  0  0  0  0  0
   44.7640   33.8520   36.8360 O   0  0  0  0  0  0  0  0  0  0  0  0
   45.0040   34.6770   36.3080 H   0  0  0  0  0  0  0  0  0  0  0  0
  1  2  1  0  0  0  0
  2  3  2  0  0  0  0
  2  7  1  0  0  0  0
  3  4  1  0  0  0  0
  4  8  1  0  0  0  0
  4  5  2  0  0  0  0
  5  9  1  0  0  0  0
  6 10  1  0  0  0  0
  6  5  1  0  0  0  0
  7  6  2  0  0  0  0
 11  3  1  0  0  0  0
 11 18  1  0  0  0  0
 12 11  1  0  0  0  0
 13 11  1  0  0  0  0
 14 15  1  0  0  0  0
 15 16  2  0  0  0  0
 15 21  1  0  0  0  0
 16 22  1  0  0  0  0
 17 16  1  0  0  0  0
 18 17  2  0  0  0  0
 19 18  1  0  0  0  0
 19 14  2  0  0  0  0
 20 14  1  0  0  0  0
 23  7  1  0  0  0  0
 23 25  1  0  0  0  0
 25 24  2  1  0  0  0
 25 26  1  0  0  0  0
 26 27  1  0  0  0  0
 28 30  1  0  0  0  0
 28 25  1  0  0  0  0
 29 30  1  0  0  0  0
 30 31  2  0  0  0  0
 31 32  1  0  0  0  0
 33 31  1  0  0  0  0
 34 33  2  0  0  0  0
 35 29  2  0  0  0  0
 35 34  1  0  0  0  0
 36 29  1  0  0  0  0
 37 36  1  0  0  0  0
 38 35  1  0  0  0  0
 39 38  1  0  0  0  0
M  END
>  <minimizedAffinity>
-6.26447535

$$$$

 OpenBabel03252502573D

 39 41  0  0  0  0  0  0  0  0999 V2000
   35.8690   28.8260   40.8720 Br  0  0  0  0  0  0  0  0  0  0  0  0
   37.4610   29.7910   41.3810 C   0  0  0  0  0  0  0  0  0  0  0  0
   38.0460   29.4070   42.5550 C   0  0  0  0  0  0  0  0  0  0  0  0
   39.1950   30.1280   42.8900 C   0  0  0  0  0  0  0  0  0  0  0  0
   39.7150   31.1480   42.1120 C   0  0  0  0  0  0  0  0  0  0  0  0
   39.0690   31.4720   40.9490 C   0  0  0  0  0  0  0  0  0  0  0  0
   37.9260   30.7960   40.5600 C   0  0  0  0  0  0  0  0  0  0  0  0
   39.7200   29.8940   43.7960 H   0  0  0  0  0  0  0  0  0  0  0  0
   40.5920   31.6930   42.3710 H   0  0  0  0  0  0  0  0  0  0  0  0
   39.4280   32.2680   40.2890 H   0  0  0  0  0  0  0  0  0  0  0  0
   37.6120   28.3580   43.4690 C   0  0  0  0  0  0  0  0  0  0  0  0
   36.5220   28.1810   43.3100 H   0  0  0  0  0  0  0  0  0  0  0  0
   37.7380   28.7690   44.5130 H   0  0  0  0  0  0  0  0  0  0  0  0
   40.1250   25.6130   43.7590 C   0  0  0  0  0  0  0  0  0  0  0  0
   39.5910   24.6350   42.9280 C   0  0  0  0  0  0  0  0  0  0  0  0
   38.3880   24.9220   42.2830 C   0  0  0  0  0  0  0  0  0  0  0  0
   37.8040   26.1150   42.4890 N   0  0  0  0  0  0  0  0  0  0  0  0
   38.3350   27.0650   43.3030 C   0  0  0  0  0  0  0  0  0  0  0  0
   39.5030   26.7700   43.9210 N   0  0  0  0  0  0  0  0  0  0  0  0
   41.0690   25.3870   44.2640 H   0  0  0  0  0  0  0  0  0  0  0  0
   40.0340   23.6670   42.7410 H   0  0  0  0  0  0  0  0  0  0  0  0
   37.8870   24.2240   41.6120 H   0  0  0  0  0  0  0  0  0  0  0  0
   37.2780   31.1410   39.3680 O   0  0  0  0  0  0  0  0  0  0  0  0
   38.9150   29.6860   37.9690 O   0  0  0  0  0  0  0  0  0  0  0  0
   37.9800   30.8950   37.8380 P   0  0  2  0  0  0  0  0  0  0  0  0
   38.8580   32.2520   37.4430 O   0  0  0  0  0  0  0  0  0  0  0  0
   39.2900   32.6230   38.2620 H   0  0  0  0  0  0  0  0  0  0  0  0
   36.8380   30.5050   36.6680 O   0  0  0  0  0  0  0  0  0  0  0  0
   36.6670   28.3900   35.8020 C   0  0  0  0  0  0  0  0  0  0  0  0
   36.0690   29.3490   36.6270 C   0  0  0  0  0  0  0  0  0  0  0  0
   34.8780   29.0570   37.2550 C   0  0  0  0  0  0  0  0  0  0  0  0
   34.5150   29.8730   37.8630 H   0  0  0  0  0  0  0  0  0  0  0  0
   34.2920   27.8250   37.0620 C   0  0  0  0  0  3  0  0  0  0  0  0
   34.8740   26.8690   36.2500 C   0  0  0  0  0  3  0  0  0  0  0  0
   36.0670   27.1490   35.6150 C   0  0  0  0  0  0  0  0  0  0  0  0
   37.8690   28.5470   35.1060 O   0  0  0  0  0  0  0  0  0  0  0  0
   38.4400   29.3910   35.2180 H   0  0  0  0  0  0  0  0  0  0  0  0
   36.6230   26.1620   34.8040 O   0  0  0  0  0  0  0  0  0  0  0  0
   37.2970   25.5100   35.1770 H   0  0  0  0  0  0  0  0  0  0  0  0
  1  2  1  0  0  0  0
  2  3  1  0  0  0  0
  3  4  2  0  0  0  0
  3 11  1  0  0  0  0
  4  8  1  0  0  0  0
  5  9  1  0  0  0  0
  5  4  1  0  0  0  0
  6  5  2  0  0  0  0
  7  6  1  0  0  0  0
  7  2  2  0  0  0  0
 10  6  1  0  0  0  0
 11 13  1  0  0  0  0
 12 11  1  0  0  0  0
 14 19  1  0  0  0  0
 14 20  1  0  0  0  0
 15 14  2  0  0  0  0
 16 17  2  0  0  0  0
 16 15  1  0  0  0  0
 17 18  1  0  0  0  0
 18 11  1  0  0  0  0
 18 19  2  0  0  0  0
 21 15  1  0  0  0  0
 22 16  1  0  0  0  0
 23  7  1  0  0  0  0
 25 24  2  1  0  0  0
 25 23  1  0  0  0  0
 26 25  1  0  0  0  0
 26 27  1  0  0  0  0
 28 25  1  0  0  0  0
 29 30  1  0  0  0  0
 30 28  1  0  0  0  0
 30 31  2  0  0  0  0
 31 32  1  0  0  0  0
 33 31  1  0  0  0  0
 34 33  2  0  0  0  0
 35 29  2  0  0  0  0
 35 34  1  0  0  0  0
 36 37  1  0  0  0  0
 36 29  1  0  0  0  0
 38 39  1  0  0  0  0
 38 35  1  0  0  0  0
M  END
>  <minimizedAffinity>
-6.23120308

$$$$
