REMARK  Name = 
REMARK  7 active torsions:
REMARK  status: ('A' for Active; 'I' for Inactive)
REMARK    1  A    between atoms: C_5  and  O_7
REMARK    2  A    between atoms: O_7  and  P_9
REMARK    3  A    between atoms: P_9  and  O_10
REMARK    4  A    between atoms: P_9  and  O_11
REMARK    5  A    between atoms: O_11  and  C_18
REMARK    6  A    between atoms: O_16  and  C_17
REMARK    7  A    between atoms: C_23  and  O_24
REMARK                            x       y       z     vdW  Elec       q    Type
REMARK                         _______ _______ _______ _____ _____    ______ ____
ROOT
ATOM      1  O   UNL     1      46.786  32.218  48.390  0.00  0.00    +0.000 OA
ATOM      2  P   UNL     1      45.751  32.514  47.302  0.00  0.00    +0.000 P 
ENDROOT
BRANCH   2   3
ATOM      3  O   UNL     1      44.531  33.532  47.858  0.00  0.00    +0.000 OA
ATOM      4  H   UNL     1      44.910  34.423  48.104  0.00  0.00    +0.000 HD
ENDBRANCH   2   3
BRANCH   2   5
ATOM      5  O   UNL     1      46.603  33.218  46.024  0.00  0.00    +0.000 OA
BRANCH   5  10
ATOM      6  C   UNL     1      44.482  35.682  44.589  0.00  0.00    +0.000 A 
ATOM      7  C   UNL     1      44.935  35.815  43.252  0.00  0.00    +0.000 A 
ATOM      8  C   UNL     1      46.009  35.007  42.881  0.00  0.00    +0.000 A 
ATOM      9  N   UNL     1      46.535  34.166  43.810  0.00  0.00    +0.000 NA
ATOM     10  C   UNL     1      46.073  34.072  45.071  0.00  0.00    +0.000 A 
ATOM     11  N   UNL     1      45.035  34.840  45.462  0.00  0.00    +0.000 NA
ATOM     12  H   UNL     1      43.641  36.328  44.848  0.00  0.00    +0.000 HD
ATOM     13  H   UNL     1      44.497  36.490  42.542  0.00  0.00    +0.000 HD
ATOM     14  H   UNL     1      46.403  35.059  41.877  0.00  0.00    +0.000 HD
ENDBRANCH   5  10
ENDBRANCH   2   5
BRANCH   2  15
ATOM     15  O   UNL     1      45.049  31.035  46.887  0.00  0.00    +0.000 OA
BRANCH  15  17
ATOM     16  C   UNL     1      44.767  28.768  47.188  0.00  0.00    +0.000 A 
ATOM     17  C   UNL     1      44.691  30.031  47.746  0.00  0.00    +0.000 A 
ATOM     18  C   UNL     1      44.280  30.125  49.059  0.00  0.00    +0.000 A 
ATOM     19  H   UNL     1      44.240  31.145  49.443  0.00  0.00    +0.000 HD
ATOM     20  C   UNL     1      43.950  29.013  49.804  0.00  0.00    +0.000 A 
ATOM     21  C   UNL     1      44.021  27.738  49.256  0.00  0.00    +0.000 A 
ATOM     22  C   UNL     1      44.438  27.639  47.926  0.00  0.00    +0.000 A 
BRANCH  16  23
ATOM     23  O   UNL     1      45.162  28.477  45.877  0.00  0.00    +0.000 OA
ATOM     24  H   UNL     1      44.459  28.469  45.136  0.00  0.00    +0.000 HD
ENDBRANCH  16  23
BRANCH  22  25
ATOM     25  O   UNL     1      44.494  26.354  47.422  0.00  0.00    +0.000 OA
ATOM     26  H   UNL     1      44.009  26.055  46.587  0.00  0.00    +0.000 HD
ENDBRANCH  22  25
ENDBRANCH  15  17
ENDBRANCH   2  15
TORSDOF 7
