
 OpenBabel03242516423D

 34 35  0  0  0  0  0  0  0  0999 V2000
   36.5450   28.3410   41.5000 C   0  0  0  0  0  0  0  0  0  0  0  0
   35.5450   28.8140   41.4300 H   0  0  0  0  0  0  0  0  0  0  0  0
   36.4360   27.3590   40.9910 H   0  0  0  0  0  0  0  0  0  0  0  0
   36.9510   28.0700   42.9180 C   0  0  0  0  0  0  0  0  0  0  0  0
   36.0530   27.9390   43.5330 H   0  0  0  0  0  0  0  0  0  0  0  0
   37.5180   28.9560   43.3260 H   0  0  0  0  0  0  0  0  0  0  0  0
   38.3550   24.6300   42.3290 C   0  0  0  0  0  0  0  0  0  0  0  0
   37.4740   25.7460   42.2950 C   0  0  0  0  0  0  0  0  0  0  0  0
   37.8660   26.9090   42.9520 C   0  0  0  0  0  0  0  0  0  0  0  0
   39.0530   26.9290   43.5880 N   0  0  0  0  0  0  0  0  0  0  0  0
   39.8670   25.8450   43.6000 C   0  0  0  0  0  0  0  0  0  0  0  0
   39.5210   24.7060   42.9750 N   0  0  0  0  0  0  0  0  0  0  0  0
   37.9870   23.4390   41.6730 N   0  0  0  0  0  0  0  0  0  0  0  0
   36.5260   25.7020   41.7760 H   0  0  0  0  0  0  0  0  0  0  0  0
   40.8230   25.8660   44.1130 H   0  0  0  0  0  0  0  0  0  0  0  0
   38.4470   22.5510   41.8880 H   0  0  0  0  0  0  0  0  0  0  0  0
   37.2230   23.4780   40.9490 H   0  0  0  0  0  0  0  0  0  0  0  0
   37.5240   29.0640   40.8620 O   0  0  0  0  0  0  0  0  0  0  0  0
   38.1520   31.5900   41.1500 O   0  0  0  0  0  0  0  0  0  0  0  0
   37.0690   30.6830   40.6310 P   0  0  2  0  0  0  0  0  0  0  0  0
   35.6000   30.9030   41.4150 O   0  0  0  0  0  0  0  0  0  0  0  0
   34.8280   30.9570   40.8290 H   0  0  0  0  0  0  0  0  0  0  0  0
   36.7900   30.9330   38.9720 O   0  0  0  0  0  0  0  0  0  0  0  0
   37.1240   29.7900   37.0000 C   0  0  0  0  0  0  0  0  0  0  0  0
   36.2880   29.9950   38.1030 C   0  0  0  0  0  0  0  0  0  0  0  0
   35.1200   29.2580   38.1740 C   0  0  0  0  0  0  0  0  0  0  0  0
   34.5340   29.4780   39.0560 H   0  0  0  0  0  0  0  0  0  0  0  0
   34.8020   28.3550   37.1780 C   0  0  0  0  0  3  0  0  0  0  0  0
   35.6270   28.1560   36.0900 C   0  0  0  0  0  3  0  0  0  0  0  0
   36.7850   28.8780   36.0130 C   0  0  0  0  0  0  0  0  0  0  0  0
   38.3330   30.4590   36.7930 O   0  0  0  0  0  0  0  0  0  0  0  0
   38.5230   31.2420   37.4220 H   0  0  0  0  0  0  0  0  0  0  0  0
   37.6090   28.6610   34.9010 O   0  0  0  0  0  0  0  0  0  0  0  0
   38.6260   28.6880   35.0110 H   0  0  0  0  0  0  0  0  0  0  0  0
  1  4  1  0  0  0  0
  2  1  1  0  0  0  0
  3  1  1  0  0  0  0
  4  9  1  0  0  0  0
  4  6  1  0  0  0  0
  4  5  1  0  0  0  0
  7 12  1  0  0  0  0
  8  7  2  0  0  0  0
  8  9  1  0  0  0  0
  9 10  2  0  0  0  0
 10 11  1  0  0  0  0
 11 15  1  0  0  0  0
 12 11  2  0  0  0  0
 13 16  1  0  0  0  0
 13  7  1  0  0  0  0
 14  8  1  0  0  0  0
 17 13  1  0  0  0  0
 18  1  1  0  0  0  0
 20 18  1  0  0  0  0
 20 19  2  1  0  0  0
 20 21  1  0  0  0  0
 22 21  1  0  0  0  0
 23 20  1  0  0  0  0
 24 25  1  0  0  0  0
 25 26  2  0  0  0  0
 25 23  1  0  0  0  0
 26 27  1  0  0  0  0
 28 26  1  0  0  0  0
 29 28  2  0  0  0  0
 30 29  1  0  0  0  0
 30 24  2  0  0  0  0
 31 24  1  0  0  0  0
 31 32  1  0  0  0  0
 33 34  1  0  0  0  0
 33 30  1  0  0  0  0
M  END
>  <minimizedAffinity>
-5.96743679

$$$$

 OpenBabel03242516423D

 34 35  0  0  0  0  0  0  0  0999 V2000
   36.3760   30.5950   40.7070 C   0  0  0  0  0  0  0  0  0  0  0  0
   37.2480   30.8430   41.3450 H   0  0  0  0  0  0  0  0  0  0  0  0
   35.5600   31.2620   41.0620 H   0  0  0  0  0  0  0  0  0  0  0  0
   35.9140   29.1810   40.8960 C   0  0  0  0  0  0  0  0  0  0  0  0
   35.7230   28.7280   39.9170 H   0  0  0  0  0  0  0  0  0  0  0  0
   34.9430   29.1720   41.4720 H   0  0  0  0  0  0  0  0  0  0  0  0
   37.8970   26.3490   42.3800 C   0  0  0  0  0  0  0  0  0  0  0  0
   36.9380   27.0560   41.6030 C   0  0  0  0  0  0  0  0  0  0  0  0
   36.9110   28.4440   41.7040 C   0  0  0  0  0  0  0  0  0  0  0  0
   37.7860   29.0550   42.5250 N   0  0  0  0  0  0  0  0  0  0  0  0
   38.6860   28.3480   43.2520 C   0  0  0  0  0  0  0  0  0  0  0  0
   38.7420   27.0070   43.1790 N   0  0  0  0  0  0  0  0  0  0  0  0
   37.9510   24.9440   42.3000 N   0  0  0  0  0  0  0  0  0  0  0  0
   36.2480   26.5400   40.9500 H   0  0  0  0  0  0  0  0  0  0  0  0
   39.3890   28.8440   43.9120 H   0  0  0  0  0  0  0  0  0  0  0  0
   38.4240   24.3890   43.0170 H   0  0  0  0  0  0  0  0  0  0  0  0
   37.4910   24.4680   41.4810 H   0  0  0  0  0  0  0  0  0  0  0  0
   36.6000   30.8410   39.3740 O   0  0  0  0  0  0  0  0  0  0  0  0
   37.3860   33.1890   40.2270 O   0  0  0  0  0  0  0  0  0  0  0  0
   37.6210   32.1760   39.1380 P   0  0  2  0  0  0  0  0  0  0  0  0
   37.3010   32.7810   37.6030 O   0  0  0  0  0  0  0  0  0  0  0  0
   37.9750   32.5780   36.9360 H   0  0  0  0  0  0  0  0  0  0  0  0
   39.2310   31.6310   39.1320 O   0  0  0  0  0  0  0  0  0  0  0  0
   40.8170   32.8810   38.0220 C   0  0  0  0  0  0  0  0  0  0  0  0
   40.3390   32.4330   39.2590 C   0  0  0  0  0  0  0  0  0  0  0  0
   41.0130   32.8390   40.3960 C   0  0  0  0  0  0  0  0  0  0  0  0
   40.5790   32.4490   41.3070 H   0  0  0  0  0  0  0  0  0  0  0  0
   42.1200   33.6600   40.2970 C   0  0  0  0  0  3  0  0  0  0  0  0
   42.5900   34.0980   39.0760 C   0  0  0  0  0  3  0  0  0  0  0  0
   41.9290   33.7030   37.9460 C   0  0  0  0  0  0  0  0  0  0  0  0
   40.2410   32.5540   36.7910 O   0  0  0  0  0  0  0  0  0  0  0  0
   39.5220   31.8280   36.8130 H   0  0  0  0  0  0  0  0  0  0  0  0
   42.4210   34.1590   36.7170 O   0  0  0  0  0  0  0  0  0  0  0  0
   41.7680   34.3940   35.9650 H   0  0  0  0  0  0  0  0  0  0  0  0
  1  4  1  0  0  0  0
  1  3  1  0  0  0  0
  1  2  1  0  0  0  0
  4  6  1  0  0  0  0
  4  9  1  0  0  0  0
  5  4  1  0  0  0  0
  7 12  1  0  0  0  0
  8  9  1  0  0  0  0
  8  7  2  0  0  0  0
  9 10  2  0  0  0  0
 10 11  1  0  0  0  0
 11 15  1  0  0  0  0
 12 11  2  0  0  0  0
 13  7  1  0  0  0  0
 13 16  1  0  0  0  0
 14  8  1  0  0  0  0
 17 13  1  0  0  0  0
 18  1  1  0  0  0  0
 20 18  1  0  0  0  0
 20 19  2  1  0  0  0
 21 20  1  0  0  0  0
 22 21  1  0  0  0  0
 23 20  1  0  0  0  0
 23 25  1  0  0  0  0
 24 25  1  0  0  0  0
 25 26  2  0  0  0  0
 26 27  1  0  0  0  0
 28 26  1  0  0  0  0
 29 28  2  0  0  0  0
 30 24  2  0  0  0  0
 30 29  1  0  0  0  0
 31 32  1  0  0  0  0
 31 24  1  0  0  0  0
 33 30  1  0  0  0  0
 34 33  1  0  0  0  0
M  END
>  <minimizedAffinity>
-5.92537355

$$$$

 OpenBabel03242516423D

 34 35  0  0  0  0  0  0  0  0999 V2000
   39.3990   30.9350   41.2180 C   0  0  0  0  0  0  0  0  0  0  0  0
   39.1420   30.0950   40.5420 H   0  0  0  0  0  0  0  0  0  0  0  0
   40.4380   31.2180   40.9450 H   0  0  0  0  0  0  0  0  0  0  0  0
   39.4090   30.5240   42.6610 C   0  0  0  0  0  0  0  0  0  0  0  0
   38.9470   31.3120   43.2660 H   0  0  0  0  0  0  0  0  0  0  0  0
   40.4740   30.4030   43.0140 H   0  0  0  0  0  0  0  0  0  0  0  0
   38.9040   26.8420   43.2430 C   0  0  0  0  0  0  0  0  0  0  0  0
   39.5400   28.1060   43.1090 C   0  0  0  0  0  0  0  0  0  0  0  0
   38.7480   29.2080   42.8000 C   0  0  0  0  0  0  0  0  0  0  0  0
   37.4220   29.0330   42.6410 N   0  0  0  0  0  0  0  0  0  0  0  0
   36.8490   27.8110   42.7760 C   0  0  0  0  0  0  0  0  0  0  0  0
   37.5840   26.7250   43.0740 N   0  0  0  0  0  0  0  0  0  0  0  0
   39.6780   25.7070   43.5560 N   0  0  0  0  0  0  0  0  0  0  0  0
   40.6080   28.2190   43.2430 H   0  0  0  0  0  0  0  0  0  0  0  0
   35.7810   27.6750   42.6470 H   0  0  0  0  0  0  0  0  0  0  0  0
   39.3210   24.7610   43.4020 H   0  0  0  0  0  0  0  0  0  0  0  0
   40.6420   25.8500   43.9550 H   0  0  0  0  0  0  0  0  0  0  0  0
   38.5830   32.0280   41.0490 O   0  0  0  0  0  0  0  0  0  0  0  0
   36.9520   32.8170   39.1580 O   0  0  0  0  0  0  0  0  0  0  0  0
   37.2300   31.6670   40.0890 P   0  0  2  0  0  0  0  0  0  0  0  0
   35.9530   31.3460   41.1320 O   0  0  0  0  0  0  0  0  0  0  0  0
   35.7200   30.4080   41.2150 H   0  0  0  0  0  0  0  0  0  0  0  0
   37.5450   30.2340   39.2300 O   0  0  0  0  0  0  0  0  0  0  0  0
   37.4690   29.4800   37.0550 C   0  0  0  0  0  0  0  0  0  0  0  0
   36.7530   29.7190   38.2320 C   0  0  0  0  0  0  0  0  0  0  0  0
   35.4020   29.4210   38.2390 C   0  0  0  0  0  0  0  0  0  0  0  0
   34.9260   29.6360   39.1850 H   0  0  0  0  0  0  0  0  0  0  0  0
   34.7960   28.9030   37.1100 C   0  0  0  0  0  3  0  0  0  0  0  0
   35.5040   28.6690   35.9500 C   0  0  0  0  0  3  0  0  0  0  0  0
   36.8400   28.9600   35.9350 C   0  0  0  0  0  0  0  0  0  0  0  0
   38.8350   29.7310   36.8990 O   0  0  0  0  0  0  0  0  0  0  0  0
   39.2810   30.2570   37.6540 H   0  0  0  0  0  0  0  0  0  0  0  0
   37.5420   28.7140   34.7470 O   0  0  0  0  0  0  0  0  0  0  0  0
   38.5060   28.3740   34.7900 H   0  0  0  0  0  0  0  0  0  0  0  0
  1  4  1  0  0  0  0
  2  1  1  0  0  0  0
  3  1  1  0  0  0  0
  4  9  1  0  0  0  0
  4  6  1  0  0  0  0
  4  5  1  0  0  0  0
  7 13  1  0  0  0  0
  8  7  1  0  0  0  0
  8 14  1  0  0  0  0
  9  8  2  0  0  0  0
 10 11  2  0  0  0  0
 10  9  1  0  0  0  0
 11 12  1  0  0  0  0
 12  7  2  0  0  0  0
 13 17  1  0  0  0  0
 15 11  1  0  0  0  0
 16 13  1  0  0  0  0
 18  1  1  0  0  0  0
 20 19  2  6  0  0  0
 20 18  1  0  0  0  0
 20 21  1  0  0  0  0
 21 22  1  0  0  0  0
 23 20  1  0  0  0  0
 24 25  1  0  0  0  0
 25 26  2  0  0  0  0
 25 23  1  0  0  0  0
 26 27  1  0  0  0  0
 28 26  1  0  0  0  0
 29 28  2  0  0  0  0
 30 29  1  0  0  0  0
 30 24  2  0  0  0  0
 31 24  1  0  0  0  0
 31 32  1  0  0  0  0
 33 34  1  0  0  0  0
 33 30  1  0  0  0  0
M  END
>  <minimizedAffinity>
-5.65742874

$$$$

 OpenBabel03242516423D

 34 35  0  0  0  0  0  0  0  0999 V2000
   39.7430   29.7620   38.7070 C   0  0  0  0  0  0  0  0  0  0  0  0
   38.7400   30.2320   38.7520 H   0  0  0  0  0  0  0  0  0  0  0  0
   39.7240   29.1280   37.7940 H   0  0  0  0  0  0  0  0  0  0  0  0
   40.0040   28.8590   39.8750 C   0  0  0  0  0  0  0  0  0  0  0  0
   40.7870   29.2970   40.5040 H   0  0  0  0  0  0  0  0  0  0  0  0
   40.3800   27.8600   39.5080 H   0  0  0  0  0  0  0  0  0  0  0  0
   36.5340   29.3580   41.2400 C   0  0  0  0  0  0  0  0  0  0  0  0
   37.7530   29.5960   40.5470 C   0  0  0  0  0  0  0  0  0  0  0  0
   38.7360   28.6130   40.5960 C   0  0  0  0  0  0  0  0  0  0  0  0
   38.4950   27.4850   41.2930 N   0  0  0  0  0  0  0  0  0  0  0  0
   37.3200   27.2930   41.9430 C   0  0  0  0  0  0  0  0  0  0  0  0
   36.3480   28.2210   41.9160 N   0  0  0  0  0  0  0  0  0  0  0  0
   35.5190   30.3340   41.2090 N   0  0  0  0  0  0  0  0  0  0  0  0
   37.9190   30.5110   39.9940 H   0  0  0  0  0  0  0  0  0  0  0  0
   37.1310   26.3830   42.5020 H   0  0  0  0  0  0  0  0  0  0  0  0
   34.7560   30.3290   41.8910 H   0  0  0  0  0  0  0  0  0  0  0  0
   35.5570   31.0780   40.4650 H   0  0  0  0  0  0  0  0  0  0  0  0
   40.7600   30.6790   38.5870 O   0  0  0  0  0  0  0  0  0  0  0  0
   38.8670   32.4260   39.0590 O   0  0  0  0  0  0  0  0  0  0  0  0
   40.1700   32.2490   38.3270 P   0  0  2  0  0  0  0  0  0  0  0  0
   40.0200   32.4560   36.6670 O   0  0  0  0  0  0  0  0  0  0  0  0
   40.7040   33.0110   36.2610 H   0  0  0  0  0  0  0  0  0  0  0  0
   41.3400   33.3610   38.8630 O   0  0  0  0  0  0  0  0  0  0  0  0
   43.3240   33.5670   37.7090 C   0  0  0  0  0  0  0  0  0  0  0  0
   42.6960   33.1350   38.8820 C   0  0  0  0  0  0  0  0  0  0  0  0
   43.4850   32.5640   39.8640 C   0  0  0  0  0  0  0  0  0  0  0  0
   42.9210   32.2590   40.7350 H   0  0  0  0  0  0  0  0  0  0  0  0
   44.8470   32.4320   39.6770 C   0  0  0  0  0  3  0  0  0  0  0  0
   45.4640   32.8580   38.5190 C   0  0  0  0  0  3  0  0  0  0  0  0
   44.6920   33.4250   37.5430 C   0  0  0  0  0  0  0  0  0  0  0  0
   42.6590   34.1610   36.6330 O   0  0  0  0  0  0  0  0  0  0  0  0
   41.6380   34.1320   36.6680 H   0  0  0  0  0  0  0  0  0  0  0  0
   45.3370   33.8510   36.3750 O   0  0  0  0  0  0  0  0  0  0  0  0
   45.0190   34.7010   35.9020 H   0  0  0  0  0  0  0  0  0  0  0  0
  1  2  1  0  0  0  0
  1  4  1  0  0  0  0
  3  1  1  0  0  0  0
  4  5  1  0  0  0  0
  4  9  1  0  0  0  0
  6  4  1  0  0  0  0
  7 12  1  0  0  0  0
  8  9  1  0  0  0  0
  8  7  2  0  0  0  0
  9 10  2  0  0  0  0
 10 11  1  0  0  0  0
 11 15  1  0  0  0  0
 12 11  2  0  0  0  0
 13  7  1  0  0  0  0
 13 16  1  0  0  0  0
 14  8  1  0  0  0  0
 17 13  1  0  0  0  0
 18  1  1  0  0  0  0
 20 18  1  0  0  0  0
 20 23  1  0  0  0  0
 20 19  2  1  0  0  0
 21 20  1  0  0  0  0
 22 21  1  0  0  0  0
 23 25  1  0  0  0  0
 24 25  1  0  0  0  0
 25 26  2  0  0  0  0
 26 27  1  0  0  0  0
 28 26  1  0  0  0  0
 29 28  2  0  0  0  0
 30 24  2  0  0  0  0
 30 29  1  0  0  0  0
 31 32  1  0  0  0  0
 31 24  1  0  0  0  0
 33 30  1  0  0  0  0
 34 33  1  0  0  0  0
M  END
>  <minimizedAffinity>
-5.47313499

$$$$

 OpenBabel03242516423D

 34 35  0  0  0  0  0  0  0  0999 V2000
   39.3750   28.3690   42.0940 C   0  0  0  0  0  0  0  0  0  0  0  0
   39.7200   27.3180   42.1660 H   0  0  0  0  0  0  0  0  0  0  0  0
   39.1130   28.5140   41.0240 H   0  0  0  0  0  0  0  0  0  0  0  0
   40.4590   29.3500   42.4280 C   0  0  0  0  0  0  0  0  0  0  0  0
   41.4250   28.8320   42.4410 H   0  0  0  0  0  0  0  0  0  0  0  0
   40.2850   29.7710   43.4610 H   0  0  0  0  0  0  0  0  0  0  0  0
   39.6770   32.7180   40.9480 C   0  0  0  0  0  0  0  0  0  0  0  0
   39.7250   31.6310   41.8630 C   0  0  0  0  0  0  0  0  0  0  0  0
   40.4070   30.4810   41.4770 C   0  0  0  0  0  0  0  0  0  0  0  0
   40.9880   30.4450   40.2620 N   0  0  0  0  0  0  0  0  0  0  0  0
   40.9200   31.5020   39.4150 C   0  0  0  0  0  0  0  0  0  0  0  0
   40.2700   32.6280   39.7550 N   0  0  0  0  0  0  0  0  0  0  0  0
   38.9950   33.8970   41.3100 N   0  0  0  0  0  0  0  0  0  0  0  0
   39.2510   31.6880   42.8340 H   0  0  0  0  0  0  0  0  0  0  0  0
   41.3890   31.4680   38.4380 H   0  0  0  0  0  0  0  0  0  0  0  0
   38.7090   34.5820   40.6060 H   0  0  0  0  0  0  0  0  0  0  0  0
   38.7810   34.0630   42.3270 H   0  0  0  0  0  0  0  0  0  0  0  0
   38.2620   28.6210   42.8600 O   0  0  0  0  0  0  0  0  0  0  0  0
   36.1480   27.3100   43.6800 O   0  0  0  0  0  0  0  0  0  0  0  0
   36.9660   27.6040   42.4510 P   0  0  2  0  0  0  0  0  0  0  0  0
   37.6200   26.2220   41.7540 O   0  0  0  0  0  0  0  0  0  0  0  0
   37.5240   26.1660   40.7900 H   0  0  0  0  0  0  0  0  0  0  0  0
   36.0350   28.3730   41.2530 O   0  0  0  0  0  0  0  0  0  0  0  0
   36.3370   30.5020   40.4260 C   0  0  0  0  0  0  0  0  0  0  0  0
   36.5400   29.1320   40.2250 C   0  0  0  0  0  0  0  0  0  0  0  0
   37.1920   28.7390   39.0710 C   0  0  0  0  0  0  0  0  0  0  0  0
   37.3060   27.6660   38.9940 H   0  0  0  0  0  0  0  0  0  0  0  0
   37.6230   29.6800   38.1560 C   0  0  0  0  0  3  0  0  0  0  0  0
   37.4210   31.0300   38.3560 C   0  0  0  0  0  3  0  0  0  0  0  0
   36.7780   31.4290   39.4950 C   0  0  0  0  0  0  0  0  0  0  0  0
   35.6960   31.0470   41.5410 O   0  0  0  0  0  0  0  0  0  0  0  0
   35.2270   30.3800   42.1580 H   0  0  0  0  0  0  0  0  0  0  0  0
   36.5830   32.8030   39.6800 O   0  0  0  0  0  0  0  0  0  0  0  0
   36.6480   33.2020   40.6210 H   0  0  0  0  0  0  0  0  0  0  0  0
  1  2  1  0  0  0  0
  1  4  1  0  0  0  0
  1 18  1  0  0  0  0
  3  1  1  0  0  0  0
  4  5  1  0  0  0  0
  4  6  1  0  0  0  0
  7 13  1  0  0  0  0
  7  8  1  0  0  0  0
  8 14  1  0  0  0  0
  9  8  2  0  0  0  0
  9  4  1  0  0  0  0
 10  9  1  0  0  0  0
 11 12  1  0  0  0  0
 11 10  2  0  0  0  0
 12  7  2  0  0  0  0
 13 17  1  0  0  0  0
 15 11  1  0  0  0  0
 16 13  1  0  0  0  0
 20 18  1  0  0  0  0
 20 19  2  1  0  0  0
 21 20  1  0  0  0  0
 22 21  1  0  0  0  0
 23 20  1  0  0  0  0
 24 31  1  0  0  0  0
 25 24  1  0  0  0  0
 25 23  1  0  0  0  0
 26 25  2  0  0  0  0
 27 26  1  0  0  0  0
 28 29  2  0  0  0  0
 28 26  1  0  0  0  0
 29 30  1  0  0  0  0
 30 33  1  0  0  0  0
 30 24  2  0  0  0  0
 31 32  1  0  0  0  0
 33 34  1  0  0  0  0
M  END
>  <minimizedAffinity>
-5.41533279

$$$$

 OpenBabel03242516423D

 34 35  0  0  0  0  0  0  0  0999 V2000
   37.2000   27.2470   38.1420 C   0  0  0  0  0  0  0  0  0  0  0  0
   36.4340   27.8130   38.7100 H   0  0  0  0  0  0  0  0  0  0  0  0
   36.6260   26.5130   37.5360 H   0  0  0  0  0  0  0  0  0  0  0  0
   38.1160   26.4690   39.0400 C   0  0  0  0  0  0  0  0  0  0  0  0
   39.1490   26.7930   38.8710 H   0  0  0  0  0  0  0  0  0  0  0  0
   38.0570   25.3710   38.7840 H   0  0  0  0  0  0  0  0  0  0  0  0
   37.1100   28.0480   42.3020 C   0  0  0  0  0  0  0  0  0  0  0  0
   37.5380   27.9060   40.9530 C   0  0  0  0  0  0  0  0  0  0  0  0
   37.6710   26.6180   40.4420 C   0  0  0  0  0  0  0  0  0  0  0  0
   37.3920   25.5690   41.2390 N   0  0  0  0  0  0  0  0  0  0  0  0
   36.9860   25.7430   42.5210 C   0  0  0  0  0  0  0  0  0  0  0  0
   36.8460   26.9720   43.0480 N   0  0  0  0  0  0  0  0  0  0  0  0
   36.9640   29.3380   42.8490 N   0  0  0  0  0  0  0  0  0  0  0  0
   37.7550   28.7670   40.3360 H   0  0  0  0  0  0  0  0  0  0  0  0
   36.7620   24.8950   43.1590 H   0  0  0  0  0  0  0  0  0  0  0  0
   36.9220   29.4850   43.8610 H   0  0  0  0  0  0  0  0  0  0  0  0
   36.9000   30.1590   42.1930 H   0  0  0  0  0  0  0  0  0  0  0  0
   37.9350   28.0410   37.2960 O   0  0  0  0  0  0  0  0  0  0  0  0
   35.5090   28.5390   36.4470 O   0  0  0  0  0  0  0  0  0  0  0  0
   36.9470   28.9360   36.2470 P   0  0  2  0  0  0  0  0  0  0  0  0
   37.4920   28.6490   34.6840 O   0  0  0  0  0  0  0  0  0  0  0  0
   37.9930   29.3790   34.2860 H   0  0  0  0  0  0  0  0  0  0  0  0
   37.1850   30.5910   36.5610 O   0  0  0  0  0  0  0  0  0  0  0  0
   38.4700   32.0060   37.8460 C   0  0  0  0  0  0  0  0  0  0  0  0
   37.3710   31.1410   37.8060 C   0  0  0  0  0  0  0  0  0  0  0  0
   36.6470   30.9610   38.9700 C   0  0  0  0  0  0  0  0  0  0  0  0
   35.8170   30.2790   38.8510 H   0  0  0  0  0  0  0  0  0  0  0  0
   37.0110   31.6210   40.1280 C   0  0  0  0  0  3  0  0  0  0  0  0
   38.0960   32.4730   40.1660 C   0  0  0  0  0  3  0  0  0  0  0  0
   38.8170   32.6580   39.0190 C   0  0  0  0  0  0  0  0  0  0  0  0
   39.2920   32.2860   36.7520 O   0  0  0  0  0  0  0  0  0  0  0  0
   39.1520   31.7000   35.9260 H   0  0  0  0  0  0  0  0  0  0  0  0
   39.9140   33.5260   39.0780 O   0  0  0  0  0  0  0  0  0  0  0  0
   40.1320   34.1230   38.2750 H   0  0  0  0  0  0  0  0  0  0  0  0
  1  2  1  0  0  0  0
  1  4  1  0  0  0  0
  3  1  1  0  0  0  0
  4  9  1  0  0  0  0
  5  4  1  0  0  0  0
  6  4  1  0  0  0  0
  7 13  1  0  0  0  0
  7 12  1  0  0  0  0
  8  7  2  0  0  0  0
  9  8  1  0  0  0  0
  9 10  2  0  0  0  0
 10 11  1  0  0  0  0
 11 12  2  0  0  0  0
 11 15  1  0  0  0  0
 13 16  1  0  0  0  0
 14  8  1  0  0  0  0
 17 13  1  0  0  0  0
 18  1  1  0  0  0  0
 20 19  2  1  0  0  0
 20 23  1  0  0  0  0
 20 18  1  0  0  0  0
 21 20  1  0  0  0  0
 22 21  1  0  0  0  0
 23 25  1  0  0  0  0
 24 30  1  0  0  0  0
 25 24  2  0  0  0  0
 25 26  1  0  0  0  0
 26 28  2  0  0  0  0
 27 26  1  0  0  0  0
 28 29  1  0  0  0  0
 30 33  1  0  0  0  0
 30 29  2  0  0  0  0
 31 24  1  0  0  0  0
 32 31  1  0  0  0  0
 34 33  1  0  0  0  0
M  END
>  <minimizedAffinity>
-5.340518

$$$$

 OpenBabel03242516423D

 34 35  0  0  0  0  0  0  0  0999 V2000
   37.4770   24.2150   40.6180 C   0  0  0  0  0  0  0  0  0  0  0  0
   37.7410   23.1450   40.5040 H   0  0  0  0  0  0  0  0  0  0  0  0
   38.3860   24.7720   40.3030 H   0  0  0  0  0  0  0  0  0  0  0  0
   37.1960   24.5850   42.0440 C   0  0  0  0  0  0  0  0  0  0  0  0
   37.4550   23.7430   42.6940 H   0  0  0  0  0  0  0  0  0  0  0  0
   36.0930   24.7890   42.1730 H   0  0  0  0  0  0  0  0  0  0  0  0
   37.8620   28.1210   43.1430 C   0  0  0  0  0  0  0  0  0  0  0  0
   37.1690   26.9210   42.8220 C   0  0  0  0  0  0  0  0  0  0  0  0
   37.9150   25.8340   42.3770 C   0  0  0  0  0  0  0  0  0  0  0  0
   39.2520   25.9610   42.2700 N   0  0  0  0  0  0  0  0  0  0  0  0
   39.8790   27.1210   42.5840 C   0  0  0  0  0  0  0  0  0  0  0  0
   39.1900   28.1910   43.0170 N   0  0  0  0  0  0  0  0  0  0  0  0
   37.1360   29.2390   43.5960 N   0  0  0  0  0  0  0  0  0  0  0  0
   36.0940   26.8460   42.9190 H   0  0  0  0  0  0  0  0  0  0  0  0
   40.9550   27.2190   42.4960 H   0  0  0  0  0  0  0  0  0  0  0  0
   37.5420   30.1770   43.5820 H   0  0  0  0  0  0  0  0  0  0  0  0
   36.1560   29.0920   43.9540 H   0  0  0  0  0  0  0  0  0  0  0  0
   36.4250   24.5950   39.8190 O   0  0  0  0  0  0  0  0  0  0  0  0
   36.7210   25.3680   37.3340 O   0  0  0  0  0  0  0  0  0  0  0  0
   36.8570   25.8460   38.7550 P   0  0  2  0  0  0  0  0  0  0  0  0
   38.4250   26.3090   39.1420 O   0  0  0  0  0  0  0  0  0  0  0  0
   38.4950   27.1510   39.6200 H   0  0  0  0  0  0  0  0  0  0  0  0
   35.8530   27.1840   39.0610 O   0  0  0  0  0  0  0  0  0  0  0  0
   35.8380   29.2150   40.1480 C   0  0  0  0  0  0  0  0  0  0  0  0
   36.2520   28.4980   39.0200 C   0  0  0  0  0  0  0  0  0  0  0  0
   36.9760   29.1740   38.0550 C   0  0  0  0  0  0  0  0  0  0  0  0
   37.2550   28.5470   37.2200 H   0  0  0  0  0  0  0  0  0  0  0  0
   37.2730   30.5140   38.2150 C   0  0  0  0  0  3  0  0  0  0  0  0
   36.8630   31.2190   39.3280 C   0  0  0  0  0  3  0  0  0  0  0  0
   36.1470   30.5590   40.2880 C   0  0  0  0  0  0  0  0  0  0  0  0
   35.1010   28.6680   41.2020 O   0  0  0  0  0  0  0  0  0  0  0  0
   34.7300   27.7280   41.0470 H   0  0  0  0  0  0  0  0  0  0  0  0
   35.7400   31.2920   41.4100 O   0  0  0  0  0  0  0  0  0  0  0  0
   35.7270   30.8440   42.3300 H   0  0  0  0  0  0  0  0  0  0  0  0
  1  4  1  0  0  0  0
  2  1  1  0  0  0  0
  3  1  1  0  0  0  0
  4  6  1  0  0  0  0
  4  9  1  0  0  0  0
  4  5  1  0  0  0  0
  7 13  1  0  0  0  0
  8 14  1  0  0  0  0
  8  7  2  0  0  0  0
  9  8  1  0  0  0  0
 10  9  2  0  0  0  0
 10 11  1  0  0  0  0
 11 12  2  0  0  0  0
 12  7  1  0  0  0  0
 13 17  1  0  0  0  0
 15 11  1  0  0  0  0
 16 13  1  0  0  0  0
 18  1  1  0  0  0  0
 20 19  2  6  0  0  0
 20 23  1  0  0  0  0
 20 21  1  0  0  0  0
 20 18  1  0  0  0  0
 21 22  1  0  0  0  0
 24 30  1  0  0  0  0
 24 31  1  0  0  0  0
 25 23  1  0  0  0  0
 25 24  2  0  0  0  0
 26 28  2  0  0  0  0
 26 25  1  0  0  0  0
 27 26  1  0  0  0  0
 28 29  1  0  0  0  0
 29 30  2  0  0  0  0
 30 33  1  0  0  0  0
 32 31  1  0  0  0  0
 33 34  1  0  0  0  0
M  END
>  <minimizedAffinity>
-5.31694031

$$$$

 OpenBabel03242516423D

 34 35  0  0  0  0  0  0  0  0999 V2000
   38.5620   27.0850   39.8880 C   0  0  0  0  0  0  0  0  0  0  0  0
   38.7020   26.0450   39.5300 H   0  0  0  0  0  0  0  0  0  0  0  0
   37.5450   27.3730   39.5450 H   0  0  0  0  0  0  0  0  0  0  0  0
   39.5350   28.0400   39.2610 C   0  0  0  0  0  0  0  0  0  0  0  0
   40.2100   27.4860   38.6000 H   0  0  0  0  0  0  0  0  0  0  0  0
   40.1630   28.5230   40.0640 H   0  0  0  0  0  0  0  0  0  0  0  0
   38.7980   31.2210   37.3930 C   0  0  0  0  0  0  0  0  0  0  0  0
   39.5150   30.1840   38.0510 C   0  0  0  0  0  0  0  0  0  0  0  0
   38.7900   29.1190   38.5760 C   0  0  0  0  0  0  0  0  0  0  0  0
   37.4500   29.1140   38.4410 N   0  0  0  0  0  0  0  0  0  0  0  0
   36.7990   30.1210   37.8070 C   0  0  0  0  0  0  0  0  0  0  0  0
   37.4680   31.1650   37.2870 N   0  0  0  0  0  0  0  0  0  0  0  0
   39.5040   32.3120   36.8490 N   0  0  0  0  0  0  0  0  0  0  0  0
   40.5930   30.2130   38.1440 H   0  0  0  0  0  0  0  0  0  0  0  0
   35.7200   30.1120   37.7000 H   0  0  0  0  0  0  0  0  0  0  0  0
   39.0290   33.1870   36.6120 H   0  0  0  0  0  0  0  0  0  0  0  0
   40.5400   32.2130   36.6900 H   0  0  0  0  0  0  0  0  0  0  0  0
   38.6160   27.1930   41.2560 O   0  0  0  0  0  0  0  0  0  0  0  0
   36.6800   26.6190   42.9240 O   0  0  0  0  0  0  0  0  0  0  0  0
   37.1190   27.6470   41.9160 P   0  0  2  0  0  0  0  0  0  0  0  0
   36.0410   27.8110   40.6380 O   0  0  0  0  0  0  0  0  0  0  0  0
   35.8290   28.7260   40.3970 H   0  0  0  0  0  0  0  0  0  0  0  0
   37.2860   29.1840   42.6260 O   0  0  0  0  0  0  0  0  0  0  0  0
   37.1110   31.0910   41.3460 C   0  0  0  0  0  0  0  0  0  0  0  0
   37.9580   30.2440   42.0680 C   0  0  0  0  0  0  0  0  0  0  0  0
   39.3010   30.5700   42.1250 C   0  0  0  0  0  0  0  0  0  0  0  0
   39.8830   29.8640   42.7010 H   0  0  0  0  0  0  0  0  0  0  0  0
   39.7740   31.6980   41.4830 C   0  0  0  0  0  3  0  0  0  0  0  0
   38.9370   32.5310   40.7710 C   0  0  0  0  0  3  0  0  0  0  0  0
   37.6070   32.2180   40.7110 C   0  0  0  0  0  0  0  0  0  0  0  0
   35.7350   30.8920   41.2010 O   0  0  0  0  0  0  0  0  0  0  0  0
   35.3780   29.9910   41.5260 H   0  0  0  0  0  0  0  0  0  0  0  0
   36.7730   33.0770   39.9830 O   0  0  0  0  0  0  0  0  0  0  0  0
   35.8210   33.2590   40.3130 H   0  0  0  0  0  0  0  0  0  0  0  0
  1 18  1  0  0  0  0
  2  1  1  0  0  0  0
  3  1  1  0  0  0  0
  4  1  1  0  0  0  0
  4  6  1  0  0  0  0
  5  4  1  0  0  0  0
  7  8  1  0  0  0  0
  8 14  1  0  0  0  0
  8  9  2  0  0  0  0
  9  4  1  0  0  0  0
 10  9  1  0  0  0  0
 11 10  2  0  0  0  0
 12  7  2  0  0  0  0
 12 11  1  0  0  0  0
 13  7  1  0  0  0  0
 15 11  1  0  0  0  0
 16 13  1  0  0  0  0
 17 13  1  0  0  0  0
 18 20  1  0  0  0  0
 20 23  1  0  0  0  0
 20 19  2  1  0  0  0
 21 20  1  0  0  0  0
 22 21  1  0  0  0  0
 24 25  1  0  0  0  0
 25 26  2  0  0  0  0
 25 23  1  0  0  0  0
 26 27  1  0  0  0  0
 28 26  1  0  0  0  0
 29 28  2  0  0  0  0
 30 29  1  0  0  0  0
 30 24  2  0  0  0  0
 31 24  1  0  0  0  0
 31 32  1  0  0  0  0
 33 34  1  0  0  0  0
 33 30  1  0  0  0  0
M  END
>  <minimizedAffinity>
-5.30639601

$$$$

 OpenBabel03242516423D

 34 35  0  0  0  0  0  0  0  0999 V2000
   40.6940   28.0040   40.8300 C   0  0  0  0  0  0  0  0  0  0  0  0
   40.6630   28.7160   41.6790 H   0  0  0  0  0  0  0  0  0  0  0  0
   41.7730   27.7850   40.6770 H   0  0  0  0  0  0  0  0  0  0  0  0
   40.1720   28.6070   39.5600 C   0  0  0  0  0  0  0  0  0  0  0  0
   39.4740   27.9070   39.0870 H   0  0  0  0  0  0  0  0  0  0  0  0
   41.0260   28.7750   38.8410 H   0  0  0  0  0  0  0  0  0  0  0  0
   38.3130   31.8470   39.1180 C   0  0  0  0  0  0  0  0  0  0  0  0
   38.8850   30.5760   38.8350 C   0  0  0  0  0  0  0  0  0  0  0  0
   39.5780   29.9290   39.8530 C   0  0  0  0  0  0  0  0  0  0  0  0
   39.6780   30.5280   41.0560 N   0  0  0  0  0  0  0  0  0  0  0  0
   39.1200   31.7420   41.2890 C   0  0  0  0  0  0  0  0  0  0  0  0
   38.4430   32.3950   40.3290 N   0  0  0  0  0  0  0  0  0  0  0  0
   37.6040   32.5270   38.1080 N   0  0  0  0  0  0  0  0  0  0  0  0
   38.7870   30.1170   37.8600 H   0  0  0  0  0  0  0  0  0  0  0  0
   39.2040   32.2200   42.2590 H   0  0  0  0  0  0  0  0  0  0  0  0
   37.4120   33.5290   38.1770 H   0  0  0  0  0  0  0  0  0  0  0  0
   37.2710   31.9810   37.2720 H   0  0  0  0  0  0  0  0  0  0  0  0
   40.0360   26.8260   41.0950 O   0  0  0  0  0  0  0  0  0  0  0  0
   39.7240   28.0650   43.3810 O   0  0  0  0  0  0  0  0  0  0  0  0
   39.2750   26.8520   42.6110 P   0  0  2  0  0  0  0  0  0  0  0  0
   39.6570   25.4100   43.3840 O   0  0  0  0  0  0  0  0  0  0  0  0
   38.9380   24.7590   43.4130 H   0  0  0  0  0  0  0  0  0  0  0  0
   37.5910   26.8560   42.3700 O   0  0  0  0  0  0  0  0  0  0  0  0
   36.6200   28.8660   41.8020 C   0  0  0  0  0  0  0  0  0  0  0  0
   36.9330   27.5650   41.3950 C   0  0  0  0  0  0  0  0  0  0  0  0
   36.5580   27.1800   40.1200 C   0  0  0  0  0  0  0  0  0  0  0  0
   36.8390   26.1620   39.8870 H   0  0  0  0  0  0  0  0  0  0  0  0
   35.8960   28.0630   39.2900 C   0  0  0  0  0  3  0  0  0  0  0  0
   35.5860   29.3450   39.6950 C   0  0  0  0  0  3  0  0  0  0  0  0
   35.9540   29.7360   40.9530 C   0  0  0  0  0  0  0  0  0  0  0  0
   36.9340   29.3950   43.0570 O   0  0  0  0  0  0  0  0  0  0  0  0
   37.2800   28.7280   43.7490 H   0  0  0  0  0  0  0  0  0  0  0  0
   35.6320   31.0410   41.3440 O   0  0  0  0  0  0  0  0  0  0  0  0
   36.2800   31.5670   41.9370 H   0  0  0  0  0  0  0  0  0  0  0  0
  1 18  1  0  0  0  0
  1  2  1  0  0  0  0
  3  1  1  0  0  0  0
  4  9  1  0  0  0  0
  4  1  1  0  0  0  0
  5  4  1  0  0  0  0
  6  4  1  0  0  0  0
  7 12  1  0  0  0  0
  8  7  2  0  0  0  0
  8  9  1  0  0  0  0
  9 10  2  0  0  0  0
 10 11  1  0  0  0  0
 11 15  1  0  0  0  0
 12 11  2  0  0  0  0
 13 16  1  0  0  0  0
 13  7  1  0  0  0  0
 14  8  1  0  0  0  0
 17 13  1  0  0  0  0
 18 20  1  0  0  0  0
 20 19  2  1  0  0  0
 20 21  1  0  0  0  0
 21 22  1  0  0  0  0
 23 20  1  0  0  0  0
 24 31  1  0  0  0  0
 25 24  1  0  0  0  0
 25 23  1  0  0  0  0
 26 25  2  0  0  0  0
 27 26  1  0  0  0  0
 28 29  2  0  0  0  0
 28 26  1  0  0  0  0
 29 30  1  0  0  0  0
 30 33  1  0  0  0  0
 30 24  2  0  0  0  0
 31 32  1  0  0  0  0
 33 34  1  0  0  0  0
M  END
>  <minimizedAffinity>
-5.24553633

$$$$
