REMARK  Name = 
REMARK  4 active torsions:
REMARK  status: ('A' for Active; 'I' for Inactive)
REMARK    1  A    between atoms: C_5  and  C_8
REMARK    2  A    between atoms: C_8  and  C_16
REMARK    3  A    between atoms: O_14  and  C_15
REMARK    4  A    between atoms: C_21  and  O_22
REMARK                            x       y       z     vdW  Elec       q    Type
REMARK                         _______ _______ _______ _____ _____    ______ ____
ROOT
ATOM      1  C   UNL     1      46.358  32.855  46.816  0.00  0.00    +0.000 C 
ATOM      2  O   UNL     1      45.349  32.518  47.521  0.00  0.00    +0.000 OA
ENDROOT
BRANCH   1   7
ATOM      3  C   UNL     1      44.904  35.069  44.346  0.00  0.00    +0.000 A 
ATOM      4  C   UNL     1      45.772  34.975  43.255  0.00  0.00    +0.000 A 
ATOM      5  C   UNL     1      46.888  34.134  43.355  0.00  0.00    +0.000 A 
ATOM      6  N   UNL     1      47.059  33.461  44.507  0.00  0.00    +0.000 NA
ATOM      7  C   UNL     1      46.222  33.555  45.553  0.00  0.00    +0.000 A 
ATOM      8  N   UNL     1      45.147  34.361  45.465  0.00  0.00    +0.000 NA
ATOM      9  N   UNL     1      43.776  35.920  44.246  0.00  0.00    +0.000 N 
ATOM     10  H   UNL     1      45.628  35.519  42.333  0.00  0.00    +0.000 HD
ATOM     11  H   UNL     1      47.603  34.005  42.562  0.00  0.00    +0.000 HD
ATOM     12  H   UNL     1      43.817  36.883  43.809  0.00  0.00    +0.000 HD
ATOM     13  H   UNL     1      42.782  35.792  44.545  0.00  0.00    +0.000 HD
ENDBRANCH   1   7
BRANCH   1  15
ATOM     14  C   UNL     1      48.142  33.152  48.490  0.00  0.00    +0.000 A 
ATOM     15  C   UNL     1      47.634  32.466  47.410  0.00  0.00    +0.000 A 
ATOM     16  C   UNL     1      48.425  31.424  46.974  0.00  0.00    +0.000 A 
ATOM     17  H   UNL     1      48.098  30.838  46.131  0.00  0.00    +0.000 HD
ATOM     18  C   UNL     1      49.630  31.059  47.535  0.00  0.00    +0.000 A 
ATOM     19  C   UNL     1      50.102  31.774  48.616  0.00  0.00    +0.000 A 
ATOM     20  C   UNL     1      49.348  32.826  49.092  0.00  0.00    +0.000 A 
BRANCH  14  21
ATOM     21  O   UNL     1      47.463  34.244  49.064  0.00  0.00    +0.000 OA
ATOM     22  H   UNL     1      46.660  33.956  49.636  0.00  0.00    +0.000 HD
ENDBRANCH  14  21
BRANCH  20  23
ATOM     23  O   UNL     1      49.826  33.544  50.180  0.00  0.00    +0.000 OA
ATOM     24  H   UNL     1      49.286  34.319  50.538  0.00  0.00    +0.000 HD
ENDBRANCH  20  23
ENDBRANCH   1  15
TORSDOF 4
