
     RDKit          3D

 50 53  0  0  0  0  0  0  0  0999 V2000
   47.7308   31.0229   45.9717 C   0  0  0  0  0  0  0  0  0  0  0  0
   46.9811   32.0399   45.4630 C   0  0  0  0  0  0  0  0  0  0  0  0
   45.9309   32.5091   46.2182 C   0  0  0  0  0  0  0  0  0  0  0  0
   45.6048   32.0026   47.4548 C   0  0  0  0  0  0  0  0  0  0  0  0
   44.6765   32.2278   48.4121 N   0  0  0  0  0  0  0  0  0  0  0  0
   44.8681   31.3724   49.4564 C   0  0  0  0  0  0  0  0  0  0  0  0
   45.9294   30.6149   49.1292 N   0  0  0  0  0  0  0  0  0  0  0  0
   46.3799   30.9853   47.9282 C   0  0  0  0  0  0  0  0  0  0  0  0
   47.4385   30.4721   47.2287 C   0  0  0  0  0  0  0  0  0  0  0  0
   47.2997   34.4048   42.6938 C   0  0  0  0  0  0  0  0  0  0  0  0
   47.8845   33.6218   41.6809 C   0  0  0  0  0  0  0  0  0  0  0  0
   48.1516   32.2822   41.9993 C   0  0  0  0  0  0  0  0  0  0  0  0
   47.8461   31.8051   43.2327 N   0  0  0  0  0  0  0  0  0  0  0  0
   47.2889   32.6067   44.1537 C   0  0  0  0  0  0  0  0  0  0  0  0
   47.0107   33.8914   43.9101 N   0  0  0  0  0  0  0  0  0  0  0  0
   48.1752   34.2504   40.3718 C   0  0  0  0  0  0  0  0  0  0  0  0
   48.7192   35.4917   40.6923 F   0  0  0  0  0  0  0  0  0  0  0  0
   46.9906   34.4532   39.7199 F   0  0  0  0  0  0  0  0  0  0  0  0
   49.0506   33.4459   39.6731 F   0  0  0  0  0  0  0  0  0  0  0  0
   48.2006   29.4340   47.7515 O   0  0  0  0  0  0  0  0  0  0  0  0
   49.8294   28.2151   49.3649 O   0  0  0  0  0  0  0  0  0  0  0  0
   49.4422   29.5947   48.8728 P   0  0  2  0  0  0  0  0  0  0  0  0
   48.7907   30.4219   50.2171 O   0  0  0  0  0  0  0  0  0  0  0  0
   50.7793   30.4118   48.3018 O   0  0  0  0  0  0  0  0  0  0  0  0
   51.8115   30.5457   49.1900 C   0  0  0  0  0  0  0  0  0  0  0  0
   51.9151   32.0476   49.5180 C   0  0  0  0  0  0  0  0  0  0  0  0
   48.5831   30.5851   45.4477 H   0  0  0  0  0  0  0  0  0  0  0  0
   45.3044   33.3244   45.8467 H   0  0  0  0  0  0  0  0  0  0  0  0
   43.9445   32.9619   48.3121 H   0  0  0  0  0  0  0  0  0  0  0  0
   44.2578   31.3389   50.3640 H   0  0  0  0  0  0  0  0  0  0  0  0
   47.0743   35.4494   42.4918 H   0  0  0  0  0  0  0  0  0  0  0  0
   48.6051   31.6712   41.2181 H   0  0  0  0  0  0  0  0  0  0  0  0
   48.1553   29.8315   50.6877 H   0  0  0  0  0  0  0  0  0  0  0  0
   52.7640   30.0999   48.9217 H   0  0  0  0  0  0  0  0  0  0  0  0
   51.4863   30.0120   50.1297 H   0  0  0  0  0  0  0  0  0  0  0  0
   50.9410   32.3454   49.9823 H   0  0  0  0  0  0  0  0  0  0  0  0
   52.1039   32.6605   48.6405 H   0  0  0  0  0  0  0  0  0  0  0  0
   51.5373   31.2184   52.2036 O   0  0  0  0  0  0  0  0  0  0  0  0
   52.7193   31.7842   51.7682 C   0  0  0  0  0  0  0  0  0  0  0  0
   53.0382   32.2303   50.4821 C   0  0  0  0  0  0  0  0  0  0  0  0
   54.2700   32.7776   50.1949 C   0  0  0  0  0  0  0  0  0  0  0  0
   54.4364   33.1003   49.1656 H   0  0  0  0  0  0  0  0  0  0  0  0
   55.2236   32.8904   51.2121 C   0  0  0  0  0  0  0  0  0  0  0  0
   54.9039   32.4462   52.4896 C   0  0  0  0  0  0  0  0  0  0  0  0
   53.6734   31.8984   52.7800 C   0  0  0  0  0  0  0  0  0  0  0  0
   53.4413   31.4770   54.1038 O   0  0  0  0  0  0  0  0  0  0  0  0
   50.7294   31.0028   51.6725 H   0  0  0  0  0  0  0  0  0  0  0  0
   56.1856   33.3220   50.9744 H   0  0  0  0  0  0  0  0  0  0  0  0
   55.6464   32.5322   53.2917 H   0  0  0  0  0  0  0  0  0  0  0  0
   52.5300   31.0882   54.3624 H   0  0  0  0  0  0  0  0  0  0  0  0
  1  9  2  0
  2  1  1  0
  2  3  2  0
  3  4  1  0
  4  8  2  0
  4  5  1  0
  5  6  1  0
  7  6  2  0
  8  7  1  0
  9 20  1  0
  9  8  1  0
 10 15  2  0
 11 12  2  0
 11 10  1  0
 12 13  1  0
 13 14  2  0
 14  2  1  0
 15 14  1  0
 16 17  1  0
 16 11  1  0
 18 16  1  0
 19 16  1  0
 22 20  1  6
 22 21  2  0
 22 23  1  0
 24 22  1  0
 24 25  1  0
 25 26  1  0
  1 27  1  0
  3 28  1  0
  5 29  1  0
  6 30  1  0
 10 31  1  0
 12 32  1  0
 23 33  1  0
 25 34  1  0
 25 35  1  0
 26 36  1  0
 26 37  1  0
 38 39  1  0
 39 40  2  0
 40 41  1  0
 41 42  1  0
 41 43  2  0
 43 44  1  0
 44 45  2  0
 45 46  1  0
 45 39  1  0
 38 47  1  0
 43 48  1  0
 44 49  1  0
 46 50  1  0
 26 40  1  0
M  ISO  8  27  14  28  14  29   9  30  14  31  14  32  14  33   3  34   8
M  ISO  4  35   8  36   8  37   8  42  16
M  END
>  <DihAtoms>  (1) 
24,25,39,38

>  <DihDeg>  (1) 
76.43511358377278

$$$$
