
 OpenBabel03242522513D

 28 29  0  0  0  0  0  0  0  0999 V2000
   45.4320   30.8090   47.2310 O   0  0  0  0  0  0  0  0  0  0  0  0
   46.8380   31.3230   47.6420 P   0  0  2  0  0  0  0  0  0  0  0  0
   46.8660   31.2480   49.3220 O   0  0  0  0  0  0  0  0  0  0  0  0
   47.6400   30.7180   49.6370 H   0  0  0  0  0  0  0  0  0  0  0  0
   46.9590   32.9260   47.1250 O   0  0  0  0  0  0  0  0  0  0  0  0
   46.5840   33.1770   43.5170 C   0  0  0  0  0  0  0  0  0  0  0  0
   47.0710   32.7960   44.7910 C   0  0  0  0  0  0  0  0  0  0  0  0
   46.4550   33.3230   45.9030 C   0  0  0  0  0  0  0  0  0  0  0  0
   45.4250   34.1720   45.7210 N   0  0  0  0  0  0  0  0  0  0  0  0
   44.9620   34.5340   44.5210 C   0  0  0  0  0  0  0  0  0  0  0  0
   45.5400   34.0380   43.4150 N   0  0  0  0  0  0  0  0  0  0  0  0
   47.0030   32.8170   42.5850 H   0  0  0  0  0  0  0  0  0  0  0  0
   47.8820   32.1210   44.7090 H   0  0  0  0  0  0  0  0  0  0  0  0
   44.1220   35.2280   44.5040 H   0  0  0  0  0  0  0  0  0  0  0  0
   47.9950   30.3600   46.9540 O   0  0  0  0  0  0  0  0  0  0  0  0
   48.4540   29.1260   47.2330 C   0  0  0  0  0  0  0  0  0  0  0  0
   49.7560   29.0260   47.0330 O   0  0  0  0  0  0  0  0  0  0  0  0
   46.8690   27.2460   47.4790 C   0  0  0  0  0  0  0  0  0  0  0  0
   48.1030   27.7380   47.6940 C   0  0  0  0  0  0  0  0  0  0  0  0
   49.0170   26.9150   48.3720 C   0  0  0  0  0  0  0  0  0  0  0  0
   50.0010   27.4020   48.5010 H   0  0  0  0  0  0  0  0  0  0  0  0
   48.8000   25.6500   48.8470 C   0  0  0  0  0  3  0  0  0  0  0  0
   47.5430   25.2190   48.5980 C   0  0  0  0  0  3  0  0  0  0  0  0
   46.5930   25.9510   47.9480 C   0  0  0  0  0  0  0  0  0  0  0  0
   45.8110   27.8690   46.8380 O   0  0  0  0  0  0  0  0  0  0  0  0
   45.2190   27.4260   46.1460 H   0  0  0  0  0  0  0  0  0  0  0  0
   45.3310   25.4150   47.7420 O   0  0  0  0  0  0  0  0  0  0  0  0
   44.5290   26.0180   47.8920 H   0  0  0  0  0  0  0  0  0  0  0  0
  2  1  2  6  0  0  0
  2  3  1  0  0  0  0
  3  4  1  0  0  0  0
  5  2  1  0  0  0  0
  6  7  1  0  0  0  0
  7  8  2  0  0  0  0
  8  5  1  0  0  0  0
  9  8  1  0  0  0  0
 10  9  2  0  0  0  0
 11  6  2  0  0  0  0
 11 10  1  0  0  0  0
 12  6  1  0  0  0  0
 13  7  1  0  0  0  0
 14 10  1  0  0  0  0
 15 16  1  0  0  0  0
 15  2  1  0  0  0  0
 16 19  1  0  0  0  0
 17 16  2  0  0  0  0
 18 19  2  0  0  0  0
 18 24  1  0  0  0  0
 19 20  1  0  0  0  0
 20 21  1  0  0  0  0
 20 22  2  0  0  0  0
 23 22  1  0  0  0  0
 24 23  2  0  0  0  0
 25 18  1  0  0  0  0
 26 25  1  0  0  0  0
 27 28  1  0  0  0  0
 27 24  1  0  0  0  0
M  END
>  <minimizedAffinity>
-3.87324858

>  <minimizedRMSD>
3.00448775

$$$$
