
 OpenBabel03252508483D

 47 49  0  0  0  0  0  0  0  0999 V2000
   36.9160   29.1750   42.9480 N   0  0  0  0  0  0  0  0  0  0  0  0
   36.0620   28.6040   43.0740 H   0  0  0  0  0  0  0  0  0  0  0  0
   38.1500   28.4740   43.1680 C   0  0  0  0  0  0  0  0  0  0  0  0
   38.9030   28.9210   42.4650 H   0  0  0  0  0  0  0  0  0  0  0  0
   38.5290   28.5910   44.2030 H   0  0  0  0  0  0  0  0  0  0  0  0
   39.2700   26.2760   42.7330 C   0  0  0  0  0  0  0  0  0  0  0  0
   38.0950   27.0250   42.8200 C   0  0  0  0  0  0  0  0  0  0  0  0
   36.9080   26.3920   42.5770 C   0  0  0  0  0  0  0  0  0  0  0  0
   36.8680   25.0690   42.2600 C   0  0  0  0  0  0  0  0  0  0  0  0
   38.0100   24.3040   42.1670 C   0  0  0  0  0  0  0  0  0  0  0  0
   39.2060   24.9740   42.4180 C   0  0  0  0  0  0  0  0  0  0  0  0
   35.9620   26.9260   42.6320 H   0  0  0  0  0  0  0  0  0  0  0  0
   35.9340   24.5510   42.0640 H   0  0  0  0  0  0  0  0  0  0  0  0
   38.0960   23.2680   41.9250 H   0  0  0  0  0  0  0  0  0  0  0  0
   40.1550   24.4510   42.3660 H   0  0  0  0  0  0  0  0  0  0  0  0
   42.4050   27.6720   44.3290 C   0  0  0  0  0  0  0  0  0  0  0  0
   41.2090   26.9250   44.1930 C   0  0  0  0  0  0  0  0  0  0  0  0
   40.5190   26.9970   43.0010 C   0  0  0  0  0  0  0  0  0  0  0  0
   41.0340   27.7890   42.0170 N   0  0  0  0  0  0  0  0  0  0  0  0
   42.1730   28.4970   42.1570 C   0  0  0  0  0  0  0  0  0  0  0  0
   42.8510   28.4280   43.3220 N   0  0  0  0  0  0  0  0  0  0  0  0
   42.8950   27.5670   45.2950 H   0  0  0  0  0  0  0  0  0  0  0  0
   40.7690   26.2900   44.9430 H   0  0  0  0  0  0  0  0  0  0  0  0
   42.5790   29.1210   41.3810 H   0  0  0  0  0  0  0  0  0  0  0  0
   36.9180   30.0550   41.4850 S   0  0  0  0  0  0  0  0  0  0  0  0
   35.7800   31.0400   41.4480 O   0  0  0  0  0  0  0  0  0  0  0  0
   34.8980   30.8510   40.9930 H   0  0  0  0  0  0  0  0  0  0  0  0
   36.8410   29.1460   40.3030 O   0  0  0  0  0  0  0  0  0  0  0  0
   36.9830   28.1600   40.3250 H   0  0  0  0  0  0  0  0  0  0  0  0
   38.3580   30.8990   41.4030 O   0  0  0  0  0  0  0  0  0  0  0  0
   38.2650   31.8630   40.4210 C   0  0  0  0  0  0  0  0  0  0  0  0
   38.7380   32.7970   40.8020 H   0  0  0  0  0  0  0  0  0  0  0  0
   37.2390   32.0910   40.0980 H   0  0  0  0  0  0  0  0  0  0  0  0
   39.1450   31.4540   39.2270 C   0  0  0  0  0  0  0  0  0  0  0  0
   39.5250   30.4470   39.3990 H   0  0  0  0  0  0  0  0  0  0  0  0
   38.5330   31.5050   38.3000 H   0  0  0  0  0  0  0  0  0  0  0  0
   40.8010   32.8520   37.9460 C   0  0  0  0  0  0  0  0  0  0  0  0
   40.2800   32.3920   39.1290 C   0  0  0  0  0  0  0  0  0  0  0  0
   40.9040   32.8790   40.2790 C   0  0  0  0  0  0  0  0  0  0  0  0
   40.4900   32.5140   41.2220 H   0  0  0  0  0  0  0  0  0  0  0  0
   41.9700   33.7560   40.3190 C   0  0  0  0  0  3  0  0  0  0  0  0
   42.4620   34.1930   39.0930 C   0  0  0  0  0  3  0  0  0  0  0  0
   41.8590   33.7250   37.9230 C   0  0  0  0  0  0  0  0  0  0  0  0
   40.2260   32.4070   36.7470 O   0  0  0  0  0  0  0  0  0  0  0  0
   40.0500   33.1540   36.0720 H   0  0  0  0  0  0  0  0  0  0  0  0
   42.3760   34.1840   36.7000 O   0  0  0  0  0  0  0  0  0  0  0  0
   43.3170   33.9690   36.4010 H   0  0  0  0  0  0  0  0  0  0  0  0
  1  2  1  0  0  0  0
  1  3  1  0  0  0  0
  3  5  1  0  0  0  0
  4  3  1  0  0  0  0
  6  7  1  0  0  0  0
  6 18  1  0  0  0  0
  7  3  1  0  0  0  0
  8 12  1  0  0  0  0
  8  7  2  0  0  0  0
  9  8  1  0  0  0  0
 10  9  2  0  0  0  0
 10 11  1  0  0  0  0
 11  6  2  0  0  0  0
 13  9  1  0  0  0  0
 14 10  1  0  0  0  0
 15 11  1  0  0  0  0
 16 22  1  0  0  0  0
 17 16  1  0  0  0  0
 17 23  1  0  0  0  0
 18 17  2  0  0  0  0
 19 20  2  0  0  0  0
 19 18  1  0  0  0  0
 20 21  1  0  0  0  0
 21 16  2  0  0  0  0
 24 20  1  0  0  0  0
 25  1  1  0  0  0  0
 26 25  1  0  0  0  0
 27 26  1  0  0  0  0
 28 29  1  0  0  0  0
 28 25  1  0  0  0  0
 30 25  1  0  0  0  0
 31 32  1  0  0  0  0
 31 30  1  0  0  0  0
 33 31  1  0  0  0  0
 34 35  1  0  0  0  0
 34 31  1  0  0  0  0
 36 34  1  0  0  0  0
 37 38  1  0  0  0  0
 38 34  1  0  0  0  0
 38 39  2  0  0  0  0
 39 41  1  0  0  0  0
 39 40  1  0  0  0  0
 42 41  2  0  0  0  0
 43 37  2  0  0  0  0
 43 42  1  0  0  0  0
 44 37  1  0  0  0  0
 45 44  1  0  0  0  0
 46 43  1  0  0  0  0
 47 46  1  0  0  0  0
M  END
>  <minimizedAffinity>
-7.18433857

$$$$

 OpenBabel03252508483D

 47 49  0  0  0  0  0  0  0  0999 V2000
   37.0960   28.8380   41.0500 N   0  0  0  0  0  0  0  0  0  0  0  0
   37.9130   29.3790   41.3820 H   0  0  0  0  0  0  0  0  0  0  0  0
   36.7050   27.7500   41.9020 C   0  0  0  0  0  0  0  0  0  0  0  0
   36.1810   28.2050   42.7850 H   0  0  0  0  0  0  0  0  0  0  0  0
   36.0040   27.0490   41.4050 H   0  0  0  0  0  0  0  0  0  0  0  0
   38.1770   25.7240   41.9710 C   0  0  0  0  0  0  0  0  0  0  0  0
   37.8510   26.9850   42.4730 C   0  0  0  0  0  0  0  0  0  0  0  0
   38.6080   27.4880   43.4940 C   0  0  0  0  0  0  0  0  0  0  0  0
   39.6520   26.7830   44.0090 C   0  0  0  0  0  0  0  0  0  0  0  0
   39.9980   25.5360   43.5350 C   0  0  0  0  0  0  0  0  0  0  0  0
   39.2090   25.0470   42.4950 C   0  0  0  0  0  0  0  0  0  0  0  0
   38.4000   28.4660   43.9230 H   0  0  0  0  0  0  0  0  0  0  0  0
   40.2640   27.1670   44.8200 H   0  0  0  0  0  0  0  0  0  0  0  0
   40.7890   24.8990   43.8620 H   0  0  0  0  0  0  0  0  0  0  0  0
   39.4080   24.0730   42.0600 H   0  0  0  0  0  0  0  0  0  0  0  0
   35.7270   23.7600   39.8580 C   0  0  0  0  0  0  0  0  0  0  0  0
   36.4870   24.1450   40.9910 C   0  0  0  0  0  0  0  0  0  0  0  0
   37.3360   25.2250   40.8770 C   0  0  0  0  0  0  0  0  0  0  0  0
   37.3950   25.8620   39.6730 N   0  0  0  0  0  0  0  0  0  0  0  0
   36.6690   25.4870   38.6010 C   0  0  0  0  0  0  0  0  0  0  0  0
   35.8360   24.4310   38.7080 N   0  0  0  0  0  0  0  0  0  0  0  0
   35.0790   22.9010   40.0200 H   0  0  0  0  0  0  0  0  0  0  0  0
   36.4700   23.6700   41.9570 H   0  0  0  0  0  0  0  0  0  0  0  0
   36.7150   25.9900   37.6520 H   0  0  0  0  0  0  0  0  0  0  0  0
   35.7760   29.8270   40.6100 S   0  0  0  0  0  0  0  0  0  0  0  0
   35.7440   31.0820   41.4400 O   0  0  0  0  0  0  0  0  0  0  0  0
   35.1710   31.1880   42.2650 H   0  0  0  0  0  0  0  0  0  0  0  0
   34.4800   29.0970   40.7450 O   0  0  0  0  0  0  0  0  0  0  0  0
   34.3840   28.1120   40.8660 H   0  0  0  0  0  0  0  0  0  0  0  0
   35.9710   30.2520   39.0050 O   0  0  0  0  0  0  0  0  0  0  0  0
   37.3090   30.1850   38.6770 C   0  0  0  0  0  0  0  0  0  0  0  0
   37.4400   29.3920   37.9050 H   0  0  0  0  0  0  0  0  0  0  0  0
   37.9790   29.9720   39.5220 H   0  0  0  0  0  0  0  0  0  0  0  0
   37.7180   31.4830   37.9580 C   0  0  0  0  0  0  0  0  0  0  0  0
   38.2350   31.2260   37.0340 H   0  0  0  0  0  0  0  0  0  0  0  0
   36.8030   32.0830   37.7590 H   0  0  0  0  0  0  0  0  0  0  0  0
   38.2210   33.0990   39.8210 C   0  0  0  0  0  0  0  0  0  0  0  0
   38.6330   32.2420   38.8320 C   0  0  0  0  0  0  0  0  0  0  0  0
   40.0160   32.1220   38.6930 C   0  0  0  0  0  0  0  0  0  0  0  0
   40.3460   31.4390   37.9060 H   0  0  0  0  0  0  0  0  0  0  0  0
   40.9720   32.7760   39.4450 C   0  0  0  0  0  3  0  0  0  0  0  0
   40.5040   33.6340   40.4350 C   0  0  0  0  0  3  0  0  0  0  0  0
   39.1240   33.7770   40.6010 C   0  0  0  0  0  0  0  0  0  0  0  0
   36.8440   33.2720   40.0220 O   0  0  0  0  0  0  0  0  0  0  0  0
   36.5620   33.2300   41.0030 H   0  0  0  0  0  0  0  0  0  0  0  0
   38.6800   34.6490   41.6090 O   0  0  0  0  0  0  0  0  0  0  0  0
   38.8630   35.6410   41.5780 H   0  0  0  0  0  0  0  0  0  0  0  0
  1  2  1  0  0  0  0
  1  3  1  0  0  0  0
  3  7  1  0  0  0  0
  3  4  1  0  0  0  0
  5  3  1  0  0  0  0
  6  7  2  0  0  0  0
  6 11  1  0  0  0  0
  7  8  1  0  0  0  0
  8 12  1  0  0  0  0
  8  9  2  0  0  0  0
  9 13  1  0  0  0  0
 10 14  1  0  0  0  0
 10  9  1  0  0  0  0
 11 10  2  0  0  0  0
 15 11  1  0  0  0  0
 16 22  1  0  0  0  0
 16 17  1  0  0  0  0
 17 23  1  0  0  0  0
 18 17  2  0  0  0  0
 18  6  1  0  0  0  0
 19 18  1  0  0  0  0
 20 21  1  0  0  0  0
 20 19  2  0  0  0  0
 21 16  2  0  0  0  0
 24 20  1  0  0  0  0
 25 28  1  0  0  0  0
 25  1  1  0  0  0  0
 25 26  1  0  0  0  0
 26 27  1  0  0  0  0
 28 29  1  0  0  0  0
 30 25  1  0  0  0  0
 31 30  1  0  0  0  0
 31 33  1  0  0  0  0
 32 31  1  0  0  0  0
 34 31  1  0  0  0  0
 34 38  1  0  0  0  0
 35 34  1  0  0  0  0
 36 34  1  0  0  0  0
 37 44  1  0  0  0  0
 37 43  1  0  0  0  0
 38 37  2  0  0  0  0
 39 38  1  0  0  0  0
 39 41  2  0  0  0  0
 40 39  1  0  0  0  0
 41 42  1  0  0  0  0
 42 43  2  0  0  0  0
 43 46  1  0  0  0  0
 44 45  1  0  0  0  0
 47 46  1  0  0  0  0
M  END
>  <minimizedAffinity>
-7.11675882

$$$$

 OpenBabel03252508483D

 47 49  0  0  0  0  0  0  0  0999 V2000
   37.0890   32.8890   40.4310 N   0  0  0  0  0  0  0  0  0  0  0  0
   36.8180   33.2790   39.5120 H   0  0  0  0  0  0  0  0  0  0  0  0
   36.7790   31.4980   40.6130 C   0  0  0  0  0  0  0  0  0  0  0  0
   37.4330   31.1290   41.4490 H   0  0  0  0  0  0  0  0  0  0  0  0
   35.7210   31.3300   40.8980 H   0  0  0  0  0  0  0  0  0  0  0  0
   37.5110   29.3150   39.6250 C   0  0  0  0  0  0  0  0  0  0  0  0
   37.1200   30.6420   39.4390 C   0  0  0  0  0  0  0  0  0  0  0  0
   37.0610   31.1250   38.1620 C   0  0  0  0  0  0  0  0  0  0  0  0
   37.3730   30.3360   37.0970 C   0  0  0  0  0  0  0  0  0  0  0  0
   37.7620   29.0230   37.2480 C   0  0  0  0  0  0  0  0  0  0  0  0
   37.8150   28.5580   38.5610 C   0  0  0  0  0  0  0  0  0  0  0  0
   36.7610   32.1500   37.9590 H   0  0  0  0  0  0  0  0  0  0  0  0
   37.3320   30.7030   36.0760 H   0  0  0  0  0  0  0  0  0  0  0  0
   38.0300   28.3200   36.4910 H   0  0  0  0  0  0  0  0  0  0  0  0
   38.1120   27.5360   38.7740 H   0  0  0  0  0  0  0  0  0  0  0  0
   36.7280   27.7030   42.9580 C   0  0  0  0  0  0  0  0  0  0  0  0
   36.5620   28.0990   41.6070 C   0  0  0  0  0  0  0  0  0  0  0  0
   37.5600   28.8420   41.0130 C   0  0  0  0  0  0  0  0  0  0  0  0
   38.6540   29.1530   41.7650 N   0  0  0  0  0  0  0  0  0  0  0  0
   38.8010   28.7720   43.0490 C   0  0  0  0  0  0  0  0  0  0  0  0
   37.8270   28.0440   43.6350 N   0  0  0  0  0  0  0  0  0  0  0  0
   35.9020   27.1200   43.3610 H   0  0  0  0  0  0  0  0  0  0  0  0
   35.7170   27.8750   40.9800 H   0  0  0  0  0  0  0  0  0  0  0  0
   39.6640   29.0170   43.6430 H   0  0  0  0  0  0  0  0  0  0  0  0
   38.6980   33.2590   40.8640 S   0  0  0  0  0  0  0  0  0  0  0  0
   39.2860   32.1750   41.7270 O   0  0  0  0  0  0  0  0  0  0  0  0
   39.3130   32.2230   42.7360 H   0  0  0  0  0  0  0  0  0  0  0  0
   38.7840   34.5720   41.5700 O   0  0  0  0  0  0  0  0  0  0  0  0
   38.0580   35.2540   41.6070 H   0  0  0  0  0  0  0  0  0  0  0  0
   39.5920   33.3630   39.4550 O   0  0  0  0  0  0  0  0  0  0  0  0
   40.3860   32.2420   39.3360 C   0  0  0  0  0  0  0  0  0  0  0  0
   39.7470   31.3430   39.4880 H   0  0  0  0  0  0  0  0  0  0  0  0
   41.2300   32.2010   40.0410 H   0  0  0  0  0  0  0  0  0  0  0  0
   40.8720   32.1200   37.8810 C   0  0  0  0  0  0  0  0  0  0  0  0
   40.4960   31.1870   37.4620 H   0  0  0  0  0  0  0  0  0  0  0  0
   40.5060   33.0000   37.3090 H   0  0  0  0  0  0  0  0  0  0  0  0
   43.1310   33.0660   37.3000 C   0  0  0  0  0  0  0  0  0  0  0  0
   42.3480   32.0970   37.8730 C   0  0  0  0  0  0  0  0  0  0  0  0
   43.0480   31.0480   38.4720 C   0  0  0  0  0  0  0  0  0  0  0  0
   42.4260   30.2760   38.9300 H   0  0  0  0  0  0  0  0  0  0  0  0
   44.4220   30.9130   38.5300 C   0  0  0  0  0  3  0  0  0  0  0  0
   45.1710   31.9220   37.9350 C   0  0  0  0  0  3  0  0  0  0  0  0
   44.5010   32.9860   37.3270 C   0  0  0  0  0  0  0  0  0  0  0  0
   42.4990   34.1530   36.6790 O   0  0  0  0  0  0  0  0  0  0  0  0
   42.8990   35.0600   36.9270 H   0  0  0  0  0  0  0  0  0  0  0  0
   45.2840   33.9910   36.7340 O   0  0  0  0  0  0  0  0  0  0  0  0
   45.8830   33.8070   35.9430 H   0  0  0  0  0  0  0  0  0  0  0  0
  1  3  1  0  0  0  0
  1 25  1  0  0  0  0
  2  1  1  0  0  0  0
  3  5  1  0  0  0  0
  3  4  1  0  0  0  0
  6 18  1  0  0  0  0
  7  6  1  0  0  0  0
  7  3  1  0  0  0  0
  8  7  2  0  0  0  0
  9 10  2  0  0  0  0
  9  8  1  0  0  0  0
 10 11  1  0  0  0  0
 11 15  1  0  0  0  0
 11  6  2  0  0  0  0
 12  8  1  0  0  0  0
 13  9  1  0  0  0  0
 14 10  1  0  0  0  0
 16 22  1  0  0  0  0
 16 21  1  0  0  0  0
 17 16  2  0  0  0  0
 18 17  1  0  0  0  0
 18 19  2  0  0  0  0
 19 20  1  0  0  0  0
 20 21  2  0  0  0  0
 20 24  1  0  0  0  0
 23 17  1  0  0  0  0
 25 28  1  0  0  0  0
 25 26  1  0  0  0  0
 26 27  1  0  0  0  0
 28 29  1  0  0  0  0
 30 25  1  0  0  0  0
 31 30  1  0  0  0  0
 31 32  1  0  0  0  0
 31 33  1  0  0  0  0
 34 31  1  0  0  0  0
 35 34  1  0  0  0  0
 36 34  1  0  0  0  0
 37 43  2  0  0  0  0
 37 38  1  0  0  0  0
 38 34  1  0  0  0  0
 38 39  2  0  0  0  0
 39 41  1  0  0  0  0
 39 40  1  0  0  0  0
 42 41  2  0  0  0  0
 43 42  1  0  0  0  0
 44 45  1  0  0  0  0
 44 37  1  0  0  0  0
 46 43  1  0  0  0  0
 47 46  1  0  0  0  0
M  END
>  <minimizedAffinity>
-6.69356966

$$$$

 OpenBabel03252508483D

 47 49  0  0  0  0  0  0  0  0999 V2000
   37.0080   28.6700   40.7880 N   0  0  0  0  0  0  0  0  0  0  0  0
   37.7690   28.6750   40.0870 H   0  0  0  0  0  0  0  0  0  0  0  0
   37.4460   28.7330   42.1550 C   0  0  0  0  0  0  0  0  0  0  0  0
   36.7950   29.4930   42.6670 H   0  0  0  0  0  0  0  0  0  0  0  0
   37.3320   27.7660   42.6850 H   0  0  0  0  0  0  0  0  0  0  0  0
   39.9120   28.3350   42.3430 C   0  0  0  0  0  0  0  0  0  0  0  0
   38.8410   29.2310   42.3230 C   0  0  0  0  0  0  0  0  0  0  0  0
   39.1130   30.5640   42.4600 C   0  0  0  0  0  0  0  0  0  0  0  0
   40.3910   31.0090   42.6130 C   0  0  0  0  0  0  0  0  0  0  0  0
   41.4670   30.1490   42.6360 C   0  0  0  0  0  0  0  0  0  0  0  0
   41.1610   28.7960   42.4950 C   0  0  0  0  0  0  0  0  0  0  0  0
   38.3180   31.3060   42.4500 H   0  0  0  0  0  0  0  0  0  0  0  0
   40.6240   32.0640   42.7230 H   0  0  0  0  0  0  0  0  0  0  0  0
   42.5020   30.3860   42.7510 H   0  0  0  0  0  0  0  0  0  0  0  0
   41.9470   28.0480   42.5040 H   0  0  0  0  0  0  0  0  0  0  0  0
   39.1920   24.6720   42.9620 C   0  0  0  0  0  0  0  0  0  0  0  0
   39.5350   26.0190   43.2390 C   0  0  0  0  0  0  0  0  0  0  0  0
   39.5710   26.9160   42.1920 C   0  0  0  0  0  0  0  0  0  0  0  0
   39.2740   26.4500   40.9460 N   0  0  0  0  0  0  0  0  0  0  0  0
   38.9510   25.1660   40.6940 C   0  0  0  0  0  0  0  0  0  0  0  0
   38.9130   24.2840   41.7150 N   0  0  0  0  0  0  0  0  0  0  0  0
   39.1830   24.0210   43.8350 H   0  0  0  0  0  0  0  0  0  0  0  0
   39.7760   26.4260   44.2050 H   0  0  0  0  0  0  0  0  0  0  0  0
   38.7160   24.7980   39.7110 H   0  0  0  0  0  0  0  0  0  0  0  0
   35.7770   29.8020   40.4460 S   0  0  0  0  0  0  0  0  0  0  0  0
   35.8100   30.9440   41.4260 O   0  0  0  0  0  0  0  0  0  0  0  0
   35.2190   30.9900   42.2450 H   0  0  0  0  0  0  0  0  0  0  0  0
   34.4280   29.1610   40.4580 O   0  0  0  0  0  0  0  0  0  0  0  0
   34.2580   28.1790   40.4520 H   0  0  0  0  0  0  0  0  0  0  0  0
   36.0550   30.4060   38.9130 O   0  0  0  0  0  0  0  0  0  0  0  0
   37.4030   30.3320   38.6310 C   0  0  0  0  0  0  0  0  0  0  0  0
   37.5580   29.5300   37.8740 H   0  0  0  0  0  0  0  0  0  0  0  0
   38.0430   30.1270   39.5020 H   0  0  0  0  0  0  0  0  0  0  0  0
   37.8400   31.6210   37.9130 C   0  0  0  0  0  0  0  0  0  0  0  0
   38.3880   31.3510   37.0100 H   0  0  0  0  0  0  0  0  0  0  0  0
   36.9340   32.2210   37.6750 H   0  0  0  0  0  0  0  0  0  0  0  0
   38.2840   33.1910   39.8290 C   0  0  0  0  0  0  0  0  0  0  0  0
   38.7270   32.3880   38.8090 C   0  0  0  0  0  0  0  0  0  0  0  0
   40.1130   32.3310   38.6600 C   0  0  0  0  0  0  0  0  0  0  0  0
   40.4680   31.6910   37.8490 H   0  0  0  0  0  0  0  0  0  0  0  0
   41.0450   32.9990   39.4310 C   0  0  0  0  0  3  0  0  0  0  0  0
   40.5450   33.8010   40.4520 C   0  0  0  0  0  3  0  0  0  0  0  0
   39.1610   33.8800   40.6280 C   0  0  0  0  0  0  0  0  0  0  0  0
   36.9020   33.2990   40.0410 O   0  0  0  0  0  0  0  0  0  0  0  0
   36.6270   33.2110   41.0210 H   0  0  0  0  0  0  0  0  0  0  0  0
   38.6860   34.6970   41.6680 O   0  0  0  0  0  0  0  0  0  0  0  0
   38.8270   35.6970   41.6710 H   0  0  0  0  0  0  0  0  0  0  0  0
  1  3  1  0  0  0  0
  2  1  1  0  0  0  0
  3  7  1  0  0  0  0
  3  4  1  0  0  0  0
  3  5  1  0  0  0  0
  6 11  1  0  0  0  0
  7  6  2  0  0  0  0
  7  8  1  0  0  0  0
  8  9  2  0  0  0  0
  9 10  1  0  0  0  0
  9 13  1  0  0  0  0
 10 14  1  0  0  0  0
 11 15  1  0  0  0  0
 11 10  2  0  0  0  0
 12  8  1  0  0  0  0
 16 17  1  0  0  0  0
 16 22  1  0  0  0  0
 17 23  1  0  0  0  0
 18  6  1  0  0  0  0
 18 17  2  0  0  0  0
 19 18  1  0  0  0  0
 20 19  2  0  0  0  0
 20 21  1  0  0  0  0
 21 16  2  0  0  0  0
 24 20  1  0  0  0  0
 25 28  1  0  0  0  0
 25  1  1  0  0  0  0
 25 26  1  0  0  0  0
 26 27  1  0  0  0  0
 29 28  1  0  0  0  0
 30 25  1  0  0  0  0
 31 30  1  0  0  0  0
 31 33  1  0  0  0  0
 32 31  1  0  0  0  0
 34 31  1  0  0  0  0
 34 38  1  0  0  0  0
 35 34  1  0  0  0  0
 36 34  1  0  0  0  0
 37 44  1  0  0  0  0
 37 43  1  0  0  0  0
 38 37  2  0  0  0  0
 39 38  1  0  0  0  0
 39 41  2  0  0  0  0
 40 39  1  0  0  0  0
 41 42  1  0  0  0  0
 42 43  2  0  0  0  0
 43 46  1  0  0  0  0
 44 45  1  0  0  0  0
 46 47  1  0  0  0  0
M  END
>  <minimizedAffinity>
-6.6593833

$$$$

 OpenBabel03252508483D

 47 49  0  0  0  0  0  0  0  0999 V2000
   36.9870   32.0920   40.6730 N   0  0  0  0  0  0  0  0  0  0  0  0
   35.9680   32.2480   40.7540 H   0  0  0  0  0  0  0  0  0  0  0  0
   37.3640   30.7760   40.2370 C   0  0  0  0  0  0  0  0  0  0  0  0
   36.5830   30.4450   39.5010 H   0  0  0  0  0  0  0  0  0  0  0  0
   38.3500   30.7600   39.7300 H   0  0  0  0  0  0  0  0  0  0  0  0
   36.5460   28.6130   41.2000 C   0  0  0  0  0  0  0  0  0  0  0  0
   37.3460   29.7510   41.3200 C   0  0  0  0  0  0  0  0  0  0  0  0
   38.1020   29.8910   42.4510 C   0  0  0  0  0  0  0  0  0  0  0  0
   38.0790   28.9490   43.4340 C   0  0  0  0  0  0  0  0  0  0  0  0
   37.3000   27.8160   43.3430 C   0  0  0  0  0  0  0  0  0  0  0  0
   36.5390   27.6990   42.1810 C   0  0  0  0  0  0  0  0  0  0  0  0
   38.7440   30.7560   42.5960 H   0  0  0  0  0  0  0  0  0  0  0  0
   38.6720   29.0450   44.3380 H   0  0  0  0  0  0  0  0  0  0  0  0
   37.2030   27.0210   44.0490 H   0  0  0  0  0  0  0  0  0  0  0  0
   35.8950   26.8400   42.0260 H   0  0  0  0  0  0  0  0  0  0  0  0
   33.8670   28.9450   38.5480 C   0  0  0  0  0  0  0  0  0  0  0  0
   34.5370   29.1280   39.7830 C   0  0  0  0  0  0  0  0  0  0  0  0
   35.7530   28.5060   39.9700 C   0  0  0  0  0  0  0  0  0  0  0  0
   36.2400   27.7450   38.9490 N   0  0  0  0  0  0  0  0  0  0  0  0
   35.5940   27.5770   37.7780 C   0  0  0  0  0  0  0  0  0  0  0  0
   34.4040   28.1850   37.5900 N   0  0  0  0  0  0  0  0  0  0  0  0
   32.9140   29.4660   38.4710 H   0  0  0  0  0  0  0  0  0  0  0  0
   34.1870   29.7180   40.6130 H   0  0  0  0  0  0  0  0  0  0  0  0
   35.9790   26.9780   36.9720 H   0  0  0  0  0  0  0  0  0  0  0  0
   37.7820   33.3210   39.7940 S   0  0  0  0  0  0  0  0  0  0  0  0
   36.7880   34.2300   39.1230 O   0  0  0  0  0  0  0  0  0  0  0  0
   36.5050   34.1280   38.1580 H   0  0  0  0  0  0  0  0  0  0  0  0
   38.7130   32.7480   38.7760 O   0  0  0  0  0  0  0  0  0  0  0  0
   39.0090   31.7970   38.7380 H   0  0  0  0  0  0  0  0  0  0  0  0
   38.6820   34.2200   40.8780 O   0  0  0  0  0  0  0  0  0  0  0  0
   39.2250   35.3080   40.2270 C   0  0  0  0  0  0  0  0  0  0  0  0
   38.7240   36.2270   40.6060 H   0  0  0  0  0  0  0  0  0  0  0  0
   39.1330   35.2790   39.1320 H   0  0  0  0  0  0  0  0  0  0  0  0
   40.6930   35.4720   40.6570 C   0  0  0  0  0  0  0  0  0  0  0  0
   40.9990   36.5030   40.4780 H   0  0  0  0  0  0  0  0  0  0  0  0
   40.7820   35.2020   41.7320 H   0  0  0  0  0  0  0  0  0  0  0  0
   42.0930   33.4090   40.3120 C   0  0  0  0  0  0  0  0  0  0  0  0
   41.5310   34.5690   39.8440 C   0  0  0  0  0  0  0  0  0  0  0  0
   41.8010   34.8590   38.5050 C   0  0  0  0  0  0  0  0  0  0  0  0
   41.3530   35.7830   38.1310 H   0  0  0  0  0  0  0  0  0  0  0  0
   42.5670   34.0980   37.6440 C   0  0  0  0  0  3  0  0  0  0  0  0
   43.1160   32.9310   38.1670 C   0  0  0  0  0  3  0  0  0  0  0  0
   42.8640   32.6110   39.5040 C   0  0  0  0  0  0  0  0  0  0  0  0
   41.8650   33.0500   41.6480 O   0  0  0  0  0  0  0  0  0  0  0  0
   41.6070   32.0690   41.7730 H   0  0  0  0  0  0  0  0  0  0  0  0
   43.4300   31.4270   40.0040 O   0  0  0  0  0  0  0  0  0  0  0  0
   44.4290   31.2990   40.0750 H   0  0  0  0  0  0  0  0  0  0  0  0
  1  2  1  0  0  0  0
  3  1  1  0  0  0  0
  3  7  1  0  0  0  0
  4  3  1  0  0  0  0
  5  3  1  0  0  0  0
  6  7  2  0  0  0  0
  6 11  1  0  0  0  0
  7  8  1  0  0  0  0
  8 12  1  0  0  0  0
  8  9  2  0  0  0  0
  9 13  1  0  0  0  0
 10  9  1  0  0  0  0
 10 14  1  0  0  0  0
 11 10  2  0  0  0  0
 15 11  1  0  0  0  0
 16 17  1  0  0  0  0
 17 18  2  0  0  0  0
 17 23  1  0  0  0  0
 18  6  1  0  0  0  0
 19 18  1  0  0  0  0
 20 19  2  0  0  0  0
 21 20  1  0  0  0  0
 21 16  2  0  0  0  0
 22 16  1  0  0  0  0
 24 20  1  0  0  0  0
 25  1  1  0  0  0  0
 25 30  1  0  0  0  0
 26 25  1  0  0  0  0
 27 26  1  0  0  0  0
 28 25  1  0  0  0  0
 29 28  1  0  0  0  0
 31 32  1  0  0  0  0
 31 34  1  0  0  0  0
 31 30  1  0  0  0  0
 33 31  1  0  0  0  0
 34 36  1  0  0  0  0
 35 34  1  0  0  0  0
 37 44  1  0  0  0  0
 38 37  1  0  0  0  0
 38 34  1  0  0  0  0
 39 38  2  0  0  0  0
 40 39  1  0  0  0  0
 41 42  2  0  0  0  0
 41 39  1  0  0  0  0
 42 43  1  0  0  0  0
 43 46  1  0  0  0  0
 43 37  2  0  0  0  0
 44 45  1  0  0  0  0
 46 47  1  0  0  0  0
M  END
>  <minimizedAffinity>
-6.55877209

$$$$

 OpenBabel03252508483D

 47 49  0  0  0  0  0  0  0  0999 V2000
   37.0690   32.7650   40.4770 N   0  0  0  0  0  0  0  0  0  0  0  0
   36.6750   33.0950   39.5790 H   0  0  0  0  0  0  0  0  0  0  0  0
   36.9050   31.3600   40.7300 C   0  0  0  0  0  0  0  0  0  0  0  0
   37.7180   31.0650   41.4460 H   0  0  0  0  0  0  0  0  0  0  0  0
   35.9280   31.1210   41.1960 H   0  0  0  0  0  0  0  0  0  0  0  0
   37.4360   29.1520   39.6740 C   0  0  0  0  0  0  0  0  0  0  0  0
   37.1060   30.5010   39.5280 C   0  0  0  0  0  0  0  0  0  0  0  0
   36.9750   31.0000   38.2620 C   0  0  0  0  0  0  0  0  0  0  0  0
   37.1610   30.2070   37.1710 C   0  0  0  0  0  0  0  0  0  0  0  0
   37.4870   28.8730   37.2830 C   0  0  0  0  0  0  0  0  0  0  0  0
   37.6150   28.3910   38.5850 C   0  0  0  0  0  0  0  0  0  0  0  0
   36.7180   32.0420   38.0900 H   0  0  0  0  0  0  0  0  0  0  0  0
   37.0610   30.5870   36.1590 H   0  0  0  0  0  0  0  0  0  0  0  0
   37.6570   28.1650   36.5020 H   0  0  0  0  0  0  0  0  0  0  0  0
   37.8710   27.3520   38.7670 H   0  0  0  0  0  0  0  0  0  0  0  0
   36.8010   27.6120   43.0710 C   0  0  0  0  0  0  0  0  0  0  0  0
   36.5500   28.0390   41.7440 C   0  0  0  0  0  0  0  0  0  0  0  0
   37.5660   28.6620   41.0500 C   0  0  0  0  0  0  0  0  0  0  0  0
   38.7590   28.8300   41.6880 N   0  0  0  0  0  0  0  0  0  0  0  0
   38.9870   28.4210   42.9520 C   0  0  0  0  0  0  0  0  0  0  0  0
   37.9950   27.8100   43.6340 N   0  0  0  0  0  0  0  0  0  0  0  0
   35.9550   27.1290   43.5570 H   0  0  0  0  0  0  0  0  0  0  0  0
   35.6250   27.9260   41.2050 H   0  0  0  0  0  0  0  0  0  0  0  0
   39.9290   28.5530   43.4550 H   0  0  0  0  0  0  0  0  0  0  0  0
   38.6730   33.2900   40.7340 S   0  0  0  0  0  0  0  0  0  0  0  0
   39.4510   32.2720   41.5240 O   0  0  0  0  0  0  0  0  0  0  0  0
   39.5830   32.3280   42.5240 H   0  0  0  0  0  0  0  0  0  0  0  0
   38.7090   34.6090   41.4320 O   0  0  0  0  0  0  0  0  0  0  0  0
   37.9290   35.2190   41.5510 H   0  0  0  0  0  0  0  0  0  0  0  0
   39.3940   33.4700   39.2370 O   0  0  0  0  0  0  0  0  0  0  0  0
   40.6830   32.9810   39.2910 C   0  0  0  0  0  0  0  0  0  0  0  0
   40.8170   32.2590   38.4540 H   0  0  0  0  0  0  0  0  0  0  0  0
   40.9450   32.4820   40.2350 H   0  0  0  0  0  0  0  0  0  0  0  0
   41.6680   34.1190   38.9720 C   0  0  0  0  0  0  0  0  0  0  0  0
   42.1440   33.9130   38.0130 H   0  0  0  0  0  0  0  0  0  0  0  0
   41.1080   35.0790   38.9510 H   0  0  0  0  0  0  0  0  0  0  0  0
   42.5450   34.8060   41.2290 C   0  0  0  0  0  0  0  0  0  0  0  0
   42.7000   34.1640   40.0270 C   0  0  0  0  0  0  0  0  0  0  0  0
   43.9310   33.5310   39.8480 C   0  0  0  0  0  0  0  0  0  0  0  0
   44.0550   33.0180   38.8900 H   0  0  0  0  0  0  0  0  0  0  0  0
   44.9730   33.5010   40.7540 C   0  0  0  0  0  3  0  0  0  0  0  0
   44.7670   34.1670   41.9580 C   0  0  0  0  0  3  0  0  0  0  0  0
   43.5450   34.8110   42.1690 C   0  0  0  0  0  0  0  0  0  0  0  0
   41.3340   35.4650   41.4820 O   0  0  0  0  0  0  0  0  0  0  0  0
   40.9460   35.2740   42.4080 H   0  0  0  0  0  0  0  0  0  0  0  0
   43.3650   35.4740   43.3950 O   0  0  0  0  0  0  0  0  0  0  0  0
   43.9260   36.2700   43.6610 H   0  0  0  0  0  0  0  0  0  0  0  0
  1  3  1  0  0  0  0
  1 25  1  0  0  0  0
  2  1  1  0  0  0  0
  3  5  1  0  0  0  0
  3  4  1  0  0  0  0
  6 18  1  0  0  0  0
  7  6  1  0  0  0  0
  7  3  1  0  0  0  0
  8  7  2  0  0  0  0
  9 10  2  0  0  0  0
  9  8  1  0  0  0  0
 10 11  1  0  0  0  0
 11 15  1  0  0  0  0
 11  6  2  0  0  0  0
 12  8  1  0  0  0  0
 13  9  1  0  0  0  0
 14 10  1  0  0  0  0
 16 22  1  0  0  0  0
 16 21  1  0  0  0  0
 17 16  2  0  0  0  0
 18 19  2  0  0  0  0
 18 17  1  0  0  0  0
 19 20  1  0  0  0  0
 20 24  1  0  0  0  0
 20 21  2  0  0  0  0
 23 17  1  0  0  0  0
 25 28  1  0  0  0  0
 25 26  1  0  0  0  0
 26 27  1  0  0  0  0
 28 29  1  0  0  0  0
 30 31  1  0  0  0  0
 30 25  1  0  0  0  0
 31 33  1  0  0  0  0
 32 31  1  0  0  0  0
 34 31  1  0  0  0  0
 34 38  1  0  0  0  0
 35 34  1  0  0  0  0
 36 34  1  0  0  0  0
 37 44  1  0  0  0  0
 37 43  1  0  0  0  0
 38 37  2  0  0  0  0
 39 38  1  0  0  0  0
 39 41  2  0  0  0  0
 40 39  1  0  0  0  0
 41 42  1  0  0  0  0
 42 43  2  0  0  0  0
 43 46  1  0  0  0  0
 44 45  1  0  0  0  0
 46 47  1  0  0  0  0
M  END
>  <minimizedAffinity>
-6.53080702

$$$$

 OpenBabel03252508483D

 47 49  0  0  0  0  0  0  0  0999 V2000
   39.0110   30.3520   37.2060 N   0  0  0  0  0  0  0  0  0  0  0  0
   38.9830   29.3890   37.5840 H   0  0  0  0  0  0  0  0  0  0  0  0
   37.8270   31.1290   37.4450 C   0  0  0  0  0  0  0  0  0  0  0  0
   38.1600   32.0780   37.9450 H   0  0  0  0  0  0  0  0  0  0  0  0
   37.2970   31.3980   36.5080 H   0  0  0  0  0  0  0  0  0  0  0  0
   36.6780   31.0370   39.6690 C   0  0  0  0  0  0  0  0  0  0  0  0
   36.8670   30.4970   38.3950 C   0  0  0  0  0  0  0  0  0  0  0  0
   36.1520   29.3830   38.0540 C   0  0  0  0  0  0  0  0  0  0  0  0
   35.2790   28.8130   38.9290 C   0  0  0  0  0  0  0  0  0  0  0  0
   35.0700   29.3220   40.1920 C   0  0  0  0  0  0  0  0  0  0  0  0
   35.8130   30.4580   40.5130 C   0  0  0  0  0  0  0  0  0  0  0  0
   36.2590   28.9210   37.0750 H   0  0  0  0  0  0  0  0  0  0  0  0
   34.7030   27.9280   38.6740 H   0  0  0  0  0  0  0  0  0  0  0  0
   34.4170   28.9580   40.9540 H   0  0  0  0  0  0  0  0  0  0  0  0
   35.7140   30.9260   41.4870 H   0  0  0  0  0  0  0  0  0  0  0  0
   38.0310   34.5650   39.8830 C   0  0  0  0  0  0  0  0  0  0  0  0
   37.1910   33.4900   39.4980 C   0  0  0  0  0  0  0  0  0  0  0  0
   37.4670   32.2310   39.9900 C   0  0  0  0  0  0  0  0  0  0  0  0
   38.5380   32.0960   40.8220 N   0  0  0  0  0  0  0  0  0  0  0  0
   39.3310   33.1250   41.1800 C   0  0  0  0  0  0  0  0  0  0  0  0
   39.0650   34.3590   40.7020 N   0  0  0  0  0  0  0  0  0  0  0  0
   37.7540   35.5270   39.4570 H   0  0  0  0  0  0  0  0  0  0  0  0
   36.3380   33.5540   38.8450 H   0  0  0  0  0  0  0  0  0  0  0  0
   40.1760   33.0180   41.8370 H   0  0  0  0  0  0  0  0  0  0  0  0
   40.4370   31.1920   37.6260 S   0  0  0  0  0  0  0  0  0  0  0  0
   40.1750   32.6700   37.7410 O   0  0  0  0  0  0  0  0  0  0  0  0
   40.3580   33.3250   36.9950 H   0  0  0  0  0  0  0  0  0  0  0  0
   41.5260   30.9450   36.6360 O   0  0  0  0  0  0  0  0  0  0  0  0
   41.5210   30.2310   35.9400 H   0  0  0  0  0  0  0  0  0  0  0  0
   40.9430   30.6210   39.1140 O   0  0  0  0  0  0  0  0  0  0  0  0
   40.2930   29.4370   39.3920 C   0  0  0  0  0  0  0  0  0  0  0  0
   40.7810   28.6250   38.8060 H   0  0  0  0  0  0  0  0  0  0  0  0
   39.2170   29.4400   39.1670 H   0  0  0  0  0  0  0  0  0  0  0  0
   40.5530   29.0520   40.8590 C   0  0  0  0  0  0  0  0  0  0  0  0
   41.3340   28.2920   40.8910 H   0  0  0  0  0  0  0  0  0  0  0  0
   40.8500   29.9650   41.4190 H   0  0  0  0  0  0  0  0  0  0  0  0
   38.6660   29.0170   42.5240 C   0  0  0  0  0  0  0  0  0  0  0  0
   39.3110   28.4970   41.4320 C   0  0  0  0  0  0  0  0  0  0  0  0
   38.7070   27.3720   40.8680 C   0  0  0  0  0  0  0  0  0  0  0  0
   39.2190   26.9560   39.9960 H   0  0  0  0  0  0  0  0  0  0  0  0
   37.5490   26.7600   41.3090 C   0  0  0  0  0  3  0  0  0  0  0  0
   36.9330   27.3250   42.4200 C   0  0  0  0  0  3  0  0  0  0  0  0
   37.5120   28.4530   43.0080 C   0  0  0  0  0  0  0  0  0  0  0  0
   39.2130   30.1480   43.1450 O   0  0  0  0  0  0  0  0  0  0  0  0
   38.5270   30.8760   43.3550 H   0  0  0  0  0  0  0  0  0  0  0  0
   36.8670   29.0030   44.1290 O   0  0  0  0  0  0  0  0  0  0  0  0
   36.7730   28.4940   44.9960 H   0  0  0  0  0  0  0  0  0  0  0  0
  1  3  1  0  0  0  0
  1  2  1  0  0  0  0
  1 25  1  0  0  0  0
  3  4  1  0  0  0  0
  3  7  1  0  0  0  0
  5  3  1  0  0  0  0
  6 18  1  0  0  0  0
  6 11  1  0  0  0  0
  7  6  2  0  0  0  0
  8  7  1  0  0  0  0
  8  9  2  0  0  0  0
  9 10  1  0  0  0  0
 10 11  2  0  0  0  0
 10 14  1  0  0  0  0
 11 15  1  0  0  0  0
 12  8  1  0  0  0  0
 13  9  1  0  0  0  0
 16 21  1  0  0  0  0
 17 16  2  0  0  0  0
 17 18  1  0  0  0  0
 18 19  2  0  0  0  0
 19 20  1  0  0  0  0
 20 24  1  0  0  0  0
 21 20  2  0  0  0  0
 22 16  1  0  0  0  0
 23 17  1  0  0  0  0
 25 26  1  0  0  0  0
 25 30  1  0  0  0  0
 27 26  1  0  0  0  0
 28 25  1  0  0  0  0
 29 28  1  0  0  0  0
 30 31  1  0  0  0  0
 31 34  1  0  0  0  0
 32 31  1  0  0  0  0
 33 31  1  0  0  0  0
 34 35  1  0  0  0  0
 34 36  1  0  0  0  0
 34 38  1  0  0  0  0
 37 43  1  0  0  0  0
 37 44  1  0  0  0  0
 38 37  2  0  0  0  0
 39 41  2  0  0  0  0
 39 38  1  0  0  0  0
 40 39  1  0  0  0  0
 41 42  1  0  0  0  0
 42 43  2  0  0  0  0
 43 46  1  0  0  0  0
 44 45  1  0  0  0  0
 46 47  1  0  0  0  0
M  END
>  <minimizedAffinity>
-6.40287495

$$$$

 OpenBabel03252508483D

 47 49  0  0  0  0  0  0  0  0999 V2000
   36.8750   29.1510   42.9840 N   0  0  0  0  0  0  0  0  0  0  0  0
   36.0880   28.5990   43.3690 H   0  0  0  0  0  0  0  0  0  0  0  0
   38.1580   28.5110   43.0650 C   0  0  0  0  0  0  0  0  0  0  0  0
   38.7950   28.9650   42.2580 H   0  0  0  0  0  0  0  0  0  0  0  0
   38.6590   28.6790   44.0390 H   0  0  0  0  0  0  0  0  0  0  0  0
   39.3150   26.3230   42.6800 C   0  0  0  0  0  0  0  0  0  0  0  0
   38.1270   27.0500   42.7680 C   0  0  0  0  0  0  0  0  0  0  0  0
   36.9480   26.3850   42.5750 C   0  0  0  0  0  0  0  0  0  0  0  0
   36.9290   25.0500   42.3050 C   0  0  0  0  0  0  0  0  0  0  0  0
   38.0850   24.3070   42.2120 C   0  0  0  0  0  0  0  0  0  0  0  0
   39.2720   25.0100   42.4120 C   0  0  0  0  0  0  0  0  0  0  0  0
   35.9930   26.9010   42.6330 H   0  0  0  0  0  0  0  0  0  0  0  0
   36.0030   24.5070   42.1480 H   0  0  0  0  0  0  0  0  0  0  0  0
   38.1880   23.2640   42.0040 H   0  0  0  0  0  0  0  0  0  0  0  0
   40.2310   24.5040   42.3570 H   0  0  0  0  0  0  0  0  0  0  0  0
   42.4490   27.8450   44.1580 C   0  0  0  0  0  0  0  0  0  0  0  0
   41.2650   27.0700   44.0760 C   0  0  0  0  0  0  0  0  0  0  0  0
   40.5540   27.0780   42.8950 C   0  0  0  0  0  0  0  0  0  0  0  0
   41.0360   27.8370   41.8690 N   0  0  0  0  0  0  0  0  0  0  0  0
   42.1630   28.5720   41.9590 C   0  0  0  0  0  0  0  0  0  0  0  0
   42.8620   28.5660   43.1130 N   0  0  0  0  0  0  0  0  0  0  0  0
   42.9570   27.7910   45.1190 H   0  0  0  0  0  0  0  0  0  0  0  0
   40.8510   26.4600   44.8600 H   0  0  0  0  0  0  0  0  0  0  0  0
   42.5430   29.1700   41.1490 H   0  0  0  0  0  0  0  0  0  0  0  0
   36.5540   29.7740   41.4280 S   0  0  0  0  0  0  0  0  0  0  0  0
   35.7400   31.0370   41.5120 O   0  0  0  0  0  0  0  0  0  0  0  0
   34.7350   31.0580   41.4070 H   0  0  0  0  0  0  0  0  0  0  0  0
   35.8490   28.7720   40.5750 O   0  0  0  0  0  0  0  0  0  0  0  0
   35.7570   27.8010   40.7830 H   0  0  0  0  0  0  0  0  0  0  0  0
   38.0210   30.1310   40.7110 O   0  0  0  0  0  0  0  0  0  0  0  0
   37.9760   29.7760   39.3790 C   0  0  0  0  0  0  0  0  0  0  0  0
   37.0920   29.1160   39.2240 H   0  0  0  0  0  0  0  0  0  0  0  0
   38.8740   29.2600   39.0110 H   0  0  0  0  0  0  0  0  0  0  0  0
   37.6680   31.0250   38.5350 C   0  0  0  0  0  0  0  0  0  0  0  0
   36.9720   31.6590   39.0840 H   0  0  0  0  0  0  0  0  0  0  0  0
   38.6220   31.5560   38.3240 H   0  0  0  0  0  0  0  0  0  0  0  0
   37.2820   31.1910   36.0530 C   0  0  0  0  0  0  0  0  0  0  0  0
   37.0430   30.6000   37.2670 C   0  0  0  0  0  0  0  0  0  0  0  0
   36.1430   29.5330   37.2390 C   0  0  0  0  0  0  0  0  0  0  0  0
   35.9520   29.0610   38.2060 H   0  0  0  0  0  0  0  0  0  0  0  0
   35.4940   29.0420   36.1230 C   0  0  0  0  0  3  0  0  0  0  0  0
   35.7700   29.6760   34.9160 C   0  0  0  0  0  3  0  0  0  0  0  0
   36.6670   30.7470   34.9090 C   0  0  0  0  0  0  0  0  0  0  0  0
   38.1750   32.2700   36.0010 O   0  0  0  0  0  0  0  0  0  0  0  0
   38.8540   32.2080   35.2390 H   0  0  0  0  0  0  0  0  0  0  0  0
   36.9270   31.3670   33.6750 O   0  0  0  0  0  0  0  0  0  0  0  0
   36.2100   31.8550   33.1590 H   0  0  0  0  0  0  0  0  0  0  0  0
  1  3  1  0  0  0  0
  1  2  1  0  0  0  0
  3  5  1  0  0  0  0
  4  3  1  0  0  0  0
  6  7  1  0  0  0  0
  6 18  1  0  0  0  0
  7  3  1  0  0  0  0
  8 12  1  0  0  0  0
  8  7  2  0  0  0  0
  9  8  1  0  0  0  0
 10  9  2  0  0  0  0
 10 11  1  0  0  0  0
 11  6  2  0  0  0  0
 13  9  1  0  0  0  0
 14 10  1  0  0  0  0
 15 11  1  0  0  0  0
 16 22  1  0  0  0  0
 17 16  1  0  0  0  0
 17 23  1  0  0  0  0
 18 17  2  0  0  0  0
 19 20  2  0  0  0  0
 19 18  1  0  0  0  0
 20 21  1  0  0  0  0
 21 16  2  0  0  0  0
 24 20  1  0  0  0  0
 25 26  1  0  0  0  0
 25  1  1  0  0  0  0
 27 26  1  0  0  0  0
 28 29  1  0  0  0  0
 28 25  1  0  0  0  0
 30 25  1  0  0  0  0
 31 30  1  0  0  0  0
 32 31  1  0  0  0  0
 33 31  1  0  0  0  0
 34 35  1  0  0  0  0
 34 31  1  0  0  0  0
 36 34  1  0  0  0  0
 37 38  1  0  0  0  0
 38 34  1  0  0  0  0
 39 38  2  0  0  0  0
 39 40  1  0  0  0  0
 41 39  1  0  0  0  0
 42 41  2  0  0  0  0
 43 42  1  0  0  0  0
 43 37  2  0  0  0  0
 44 37  1  0  0  0  0
 45 44  1  0  0  0  0
 46 43  1  0  0  0  0
 47 46  1  0  0  0  0
M  END
>  <minimizedAffinity>
-6.25980806

$$$$

 OpenBabel03252508483D

 47 49  0  0  0  0  0  0  0  0999 V2000
   38.1430   29.8460   42.8030 N   0  0  0  0  0  0  0  0  0  0  0  0
   37.8270   30.7090   43.2780 H   0  0  0  0  0  0  0  0  0  0  0  0
   39.5670   29.7160   42.6680 C   0  0  0  0  0  0  0  0  0  0  0  0
   40.0220   30.2120   43.5680 H   0  0  0  0  0  0  0  0  0  0  0  0
   39.9000   28.6590   42.6480 H   0  0  0  0  0  0  0  0  0  0  0  0
   40.6690   29.7240   40.4180 C   0  0  0  0  0  0  0  0  0  0  0  0
   40.1330   30.4380   41.4920 C   0  0  0  0  0  0  0  0  0  0  0  0
   40.1450   31.8030   41.4290 C   0  0  0  0  0  0  0  0  0  0  0  0
   40.6640   32.4530   40.3510 C   0  0  0  0  0  0  0  0  0  0  0  0
   41.2000   31.7760   39.2770 C   0  0  0  0  0  0  0  0  0  0  0  0
   41.1750   30.3850   39.3680 C   0  0  0  0  0  0  0  0  0  0  0  0
   39.7400   32.4090   42.2350 H   0  0  0  0  0  0  0  0  0  0  0  0
   40.6820   33.5370   40.2840 H   0  0  0  0  0  0  0  0  0  0  0  0
   41.6320   32.1800   38.3880 H   0  0  0  0  0  0  0  0  0  0  0  0
   41.5770   29.7720   38.5680 H   0  0  0  0  0  0  0  0  0  0  0  0
   39.8390   26.0540   40.0150 C   0  0  0  0  0  0  0  0  0  0  0  0
   39.7750   27.4560   39.8150 C   0  0  0  0  0  0  0  0  0  0  0  0
   40.6350   28.2620   40.5310 C   0  0  0  0  0  0  0  0  0  0  0  0
   41.5000   27.6580   41.3940 N   0  0  0  0  0  0  0  0  0  0  0  0
   41.5520   26.3230   41.5770 C   0  0  0  0  0  0  0  0  0  0  0  0
   40.7130   25.5310   40.8780 N   0  0  0  0  0  0  0  0  0  0  0  0
   39.1320   25.4810   39.4180 H   0  0  0  0  0  0  0  0  0  0  0  0
   39.1080   27.9710   39.1460 H   0  0  0  0  0  0  0  0  0  0  0  0
   42.2360   25.8470   42.2570 H   0  0  0  0  0  0  0  0  0  0  0  0
   37.4180   28.4350   43.4330 S   0  0  0  0  0  0  0  0  0  0  0  0
   36.8280   28.6950   44.7930 O   0  0  0  0  0  0  0  0  0  0  0  0
   37.3080   28.4810   45.6560 H   0  0  0  0  0  0  0  0  0  0  0  0
   38.3950   27.3080   43.5110 O   0  0  0  0  0  0  0  0  0  0  0  0
   39.2890   27.2900   43.0680 H   0  0  0  0  0  0  0  0  0  0  0  0
   36.1870   27.9880   42.3940 O   0  0  0  0  0  0  0  0  0  0  0  0
   36.7050   27.8010   41.1290 C   0  0  0  0  0  0  0  0  0  0  0  0
   36.6730   26.7120   40.8970 H   0  0  0  0  0  0  0  0  0  0  0  0
   37.7340   28.1620   40.9970 H   0  0  0  0  0  0  0  0  0  0  0  0
   35.7560   28.4360   40.0970 C   0  0  0  0  0  0  0  0  0  0  0  0
   35.5920   27.7250   39.2870 H   0  0  0  0  0  0  0  0  0  0  0  0
   34.8040   28.7010   40.6050 H   0  0  0  0  0  0  0  0  0  0  0  0
   36.3560   30.8790   40.1690 C   0  0  0  0  0  0  0  0  0  0  0  0
   36.3900   29.6530   39.5550 C   0  0  0  0  0  0  0  0  0  0  0  0
   37.0840   29.6170   38.3440 C   0  0  0  0  0  0  0  0  0  0  0  0
   37.1120   28.6410   37.8540 H   0  0  0  0  0  0  0  0  0  0  0  0
   37.7160   30.6830   37.7340 C   0  0  0  0  0  3  0  0  0  0  0  0
   37.6530   31.9050   38.3970 C   0  0  0  0  0  3  0  0  0  0  0  0
   36.9660   31.9750   39.6120 C   0  0  0  0  0  0  0  0  0  0  0  0
   35.6780   30.9940   41.3910 O   0  0  0  0  0  0  0  0  0  0  0  0
   36.1980   31.5070   42.1050 H   0  0  0  0  0  0  0  0  0  0  0  0
   36.9200   33.2210   40.2590 O   0  0  0  0  0  0  0  0  0  0  0  0
   36.4520   34.0180   39.8530 H   0  0  0  0  0  0  0  0  0  0  0  0
  1  2  1  0  0  0  0
  1 25  1  0  0  0  0
  3  1  1  0  0  0  0
  3  4  1  0  0  0  0
  5  3  1  0  0  0  0
  6 18  1  0  0  0  0
  6  7  1  0  0  0  0
  7  3  1  0  0  0  0
  8  7  2  0  0  0  0
  8 12  1  0  0  0  0
  9  8  1  0  0  0  0
 10 11  1  0  0  0  0
 10  9  2  0  0  0  0
 11  6  2  0  0  0  0
 13  9  1  0  0  0  0
 14 10  1  0  0  0  0
 15 11  1  0  0  0  0
 16 21  1  0  0  0  0
 17 16  2  0  0  0  0
 17 18  1  0  0  0  0
 18 19  2  0  0  0  0
 19 20  1  0  0  0  0
 20 24  1  0  0  0  0
 21 20  2  0  0  0  0
 22 16  1  0  0  0  0
 23 17  1  0  0  0  0
 25 28  1  0  0  0  0
 25 26  1  0  0  0  0
 26 27  1  0  0  0  0
 29 28  1  0  0  0  0
 30 25  1  0  0  0  0
 31 30  1  0  0  0  0
 32 31  1  0  0  0  0
 33 31  1  0  0  0  0
 34 36  1  0  0  0  0
 34 31  1  0  0  0  0
 35 34  1  0  0  0  0
 37 44  1  0  0  0  0
 38 34  1  0  0  0  0
 38 37  2  0  0  0  0
 39 38  1  0  0  0  0
 40 39  1  0  0  0  0
 41 39  2  0  0  0  0
 41 42  1  0  0  0  0
 42 43  2  0  0  0  0
 43 37  1  0  0  0  0
 43 46  1  0  0  0  0
 44 45  1  0  0  0  0
 47 46  1  0  0  0  0
M  END
>  <minimizedAffinity>
-6.10414267

$$$$
