
 OpenBabel03252505283D

 26 27  0  0  0  0  0  0  0  0999 V2000
   47.1090   31.4340   47.9370 O   0  0  0  0  0  0  0  0  0  0  0  0
   46.0290   31.9950   47.0090 P   0  0  1  0  0  0  0  0  0  0  0  0
   44.7270   32.6240   47.8710 O   0  0  0  0  0  0  0  0  0  0  0  0
   45.0230   33.4020   48.4250 H   0  0  0  0  0  0  0  0  0  0  0  0
   46.7840   33.1880   46.0800 O   0  0  0  0  0  0  0  0  0  0  0  0
   44.4470   35.5410   44.8040 C   0  0  0  0  0  0  0  0  0  0  0  0
   44.8250   35.7290   43.4500 C   0  0  0  0  0  0  0  0  0  0  0  0
   45.9270   34.9970   43.0100 C   0  0  0  0  0  0  0  0  0  0  0  0
   46.5490   34.1730   43.8940 N   0  0  0  0  0  0  0  0  0  0  0  0
   46.1560   34.0250   45.1730 C   0  0  0  0  0  0  0  0  0  0  0  0
   45.0930   34.7190   45.6300 N   0  0  0  0  0  0  0  0  0  0  0  0
   43.5810   36.1280   45.1170 H   0  0  0  0  0  0  0  0  0  0  0  0
   44.3110   36.3890   42.7770 H   0  0  0  0  0  0  0  0  0  0  0  0
   46.2680   35.0940   41.9900 H   0  0  0  0  0  0  0  0  0  0  0  0
   45.4660   30.7000   46.0830 O   0  0  0  0  0  0  0  0  0  0  0  0
   45.4460   28.8120   47.4040 C   0  0  0  0  0  0  0  0  0  0  0  0
   45.8330   29.3870   46.2070 C   0  0  0  0  0  0  0  0  0  0  0  0
   46.5210   28.5950   45.3120 C   0  0  0  0  0  0  0  0  0  0  0  0
   46.7990   29.1030   44.3870 H   0  0  0  0  0  0  0  0  0  0  0  0
   46.8200   27.2770   45.5800 C   0  0  0  0  0  3  0  0  0  0  0  0
   46.4370   26.6860   46.7780 C   0  0  0  0  0  3  0  0  0  0  0  0
   45.7410   27.4860   47.6880 C   0  0  0  0  0  0  0  0  0  0  0  0
   44.7450   29.4560   48.4300 O   0  0  0  0  0  0  0  0  0  0  0  0
   45.2660   29.9590   49.1500 H   0  0  0  0  0  0  0  0  0  0  0  0
   45.3800   26.8590   48.8660 O   0  0  0  0  0  0  0  0  0  0  0  0
   45.6260   27.2000   49.7830 H   0  0  0  0  0  0  0  0  0  0  0  0
  2  3  1  0  0  0  0
  2  1  2  1  0  0  0
  3  4  1  0  0  0  0
  5  2  1  0  0  0  0
  6 12  1  0  0  0  0
  6 11  1  0  0  0  0
  7  6  2  0  0  0  0
  8  7  1  0  0  0  0
  8  9  2  0  0  0  0
  9 10  1  0  0  0  0
 10 11  2  0  0  0  0
 10  5  1  0  0  0  0
 13  7  1  0  0  0  0
 14  8  1  0  0  0  0
 15 17  1  0  0  0  0
 15  2  1  0  0  0  0
 16 22  1  0  0  0  0
 16 23  1  0  0  0  0
 17 16  2  0  0  0  0
 18 20  2  0  0  0  0
 18 17  1  0  0  0  0
 19 18  1  0  0  0  0
 20 21  1  0  0  0  0
 21 22  2  0  0  0  0
 22 25  1  0  0  0  0
 23 24  1  0  0  0  0
 25 26  1  0  0  0  0
M  END
>  <minimizedAffinity>
-4.47715616

>  <minimizedRMSD>
2.15871787

$$$$
