
 OpenBabel03252507163D

 31 33  0  0  0  0  0  0  0  0999 V2000
   45.2920   36.1460   43.3070 C   0  0  0  0  0  0  0  0  0  0  0  0
   45.9160   34.9070   43.0230 C   0  0  0  0  0  0  0  0  0  0  0  0
   45.8610   33.9180   44.0060 C   0  0  0  0  0  0  0  0  0  0  0  0
   45.2330   34.1650   45.1660 N   0  0  0  0  0  0  0  0  0  0  0  0
   44.6350   35.3730   45.4150 C   0  0  0  0  0  0  0  0  0  0  0  0
   44.6780   36.3320   44.4850 N   0  0  0  0  0  0  0  0  0  0  0  0
   45.3150   36.9330   42.5660 H   0  0  0  0  0  0  0  0  0  0  0  0
   44.1760   35.4020   46.3960 H   0  0  0  0  0  0  0  0  0  0  0  0
   46.4980   32.6460   43.7240 C   0  0  0  0  0  0  0  0  0  0  0  0
   45.7240   31.5230   43.4940 C   0  0  0  0  0  0  0  0  0  0  0  0
   46.3570   30.3330   43.2300 C   0  0  0  0  0  0  0  0  0  0  0  0
   47.7320   30.1880   43.1790 C   0  0  0  0  0  0  0  0  0  0  0  0
   48.4540   31.3510   43.4180 C   0  0  0  0  0  0  0  0  0  0  0  0
   47.8240   32.5170   43.6770 N   0  0  0  0  0  0  0  0  0  0  0  0
   44.6590   31.5230   43.5090 H   0  0  0  0  0  0  0  0  0  0  0  0
   45.7910   29.4220   43.0420 H   0  0  0  0  0  0  0  0  0  0  0  0
   48.2870   29.3040   42.9810 H   0  0  0  0  0  0  0  0  0  0  0  0
   49.5400   31.3880   43.4100 H   0  0  0  0  0  0  0  0  0  0  0  0
   46.5620   34.7190   41.7730 C   0  0  0  0  0  0  0  0  0  0  0  0
   47.6580   35.3020   41.5750 O   0  0  0  0  0  0  0  0  0  0  0  0
   44.7610   34.1270   40.1640 C   0  0  0  0  0  0  0  0  0  0  0  0
   45.9970   33.8780   40.7230 C   0  0  0  0  0  0  0  0  0  0  0  0
   46.6930   32.7880   40.2470 C   0  0  0  0  0  0  0  0  0  0  0  0
   47.6580   32.6080   40.6960 H   0  0  0  0  0  0  0  0  0  0  0  0
   46.2300   31.9590   39.2700 C   0  0  0  0  0  3  0  0  0  0  0  0
   44.9790   32.2280   38.7200 C   0  0  0  0  0  3  0  0  0  0  0  0
   44.2670   33.3050   39.1730 C   0  0  0  0  0  0  0  0  0  0  0  0
   44.0090   35.2280   40.6140 O   0  0  0  0  0  0  0  0  0  0  0  0
   43.0220   35.1780   40.8080 H   0  0  0  0  0  0  0  0  0  0  0  0
   43.0160   33.6050   38.6480 O   0  0  0  0  0  0  0  0  0  0  0  0
   42.8590   33.7180   37.6530 H   0  0  0  0  0  0  0  0  0  0  0  0
  1  6  1  0  0  0  0
  2  1  2  0  0  0  0
  2  3  1  0  0  0  0
  3  4  2  0  0  0  0
  4  5  1  0  0  0  0
  5  8  1  0  0  0  0
  6  5  2  0  0  0  0
  7  1  1  0  0  0  0
  9  3  1  0  0  0  0
 10 15  1  0  0  0  0
 10  9  2  0  0  0  0
 11 10  1  0  0  0  0
 12 11  2  0  0  0  0
 12 13  1  0  0  0  0
 13 14  2  0  0  0  0
 14  9  1  0  0  0  0
 16 11  1  0  0  0  0
 17 12  1  0  0  0  0
 18 13  1  0  0  0  0
 19  2  1  0  0  0  0
 20 19  2  0  0  0  0
 21 28  1  0  0  0  0
 21 22  1  0  0  0  0
 22 19  1  0  0  0  0
 23 24  1  0  0  0  0
 23 22  2  0  0  0  0
 25 23  1  0  0  0  0
 26 27  1  0  0  0  0
 26 25  2  0  0  0  0
 27 21  2  0  0  0  0
 28 29  1  0  0  0  0
 30 27  1  0  0  0  0
 31 30  1  0  0  0  0
M  END
>  <minimizedAffinity>
-4.77767992

>  <minimizedRMSD>
0.604370534

$$$$
