
 OpenBabel03252509273D

 32 34  0  0  1  0  0  0  0  0999 V2000
   46.4650   35.0480   42.0430 C   0  0  1  0  0  0  0  0  0  0  0  0
   48.0020   35.2820   41.9560 C   0  0  0  0  0  0  0  0  0  0  0  0
   47.2180   34.1050   41.3200 C   0  0  2  0  0  0  0  0  0  0  0  0
   45.8790   35.8520   41.5650 H   0  0  0  0  0  0  0  0  0  0  0  0
   48.6130   35.0940   42.8380 H   0  0  0  0  0  0  0  0  0  0  0  0
   48.3020   36.0940   41.2820 H   0  0  0  0  0  0  0  0  0  0  0  0
   47.5600   33.1200   41.7600 H   0  0  0  0  0  0  0  0  0  0  0  0
   44.7680   35.1380   45.3850 C   0  0  0  0  0  0  0  0  0  0  0  0
   45.1220   35.5380   44.0650 C   0  0  0  0  0  0  0  0  0  0  0  0
   46.0530   34.7580   43.4650 C   0  0  0  0  0  0  0  0  0  0  0  0
   46.6080   33.6610   44.0980 N   0  0  0  0  0  0  0  0  0  0  0  0
   46.2350   33.3240   45.3530 C   0  0  0  0  0  0  0  0  0  0  0  0
   45.3080   34.0690   45.9970 N   0  0  0  0  0  0  0  0  0  0  0  0
   44.0290   35.7320   45.8960 H   0  0  0  0  0  0  0  0  0  0  0  0
   46.7590   32.4460   45.7070 H   0  0  0  0  0  0  0  0  0  0  0  0
   44.5720   36.6710   43.4330 N   0  0  0  0  0  0  0  0  0  0  0  0
   43.5480   36.8630   43.5790 H   0  0  0  0  0  0  0  0  0  0  0  0
   45.2090   37.2750   42.8440 H   0  0  0  0  0  0  0  0  0  0  0  0
   47.1250   34.0230   39.8190 C   0  0  0  0  0  0  0  0  0  0  0  0
   46.0990   33.6500   39.6000 H   0  0  0  0  0  0  0  0  0  0  0  0
   47.1550   35.0630   39.4190 H   0  0  0  0  0  0  0  0  0  0  0  0
   48.1530   33.4970   37.7800 C   0  0  0  0  0  0  0  0  0  0  0  0
   48.1620   33.2360   39.1570 C   0  0  0  0  0  0  0  0  0  0  0  0
   49.1020   32.3350   39.6090 C   0  0  0  0  0  0  0  0  0  0  0  0
   49.0450   32.1890   40.6660 H   0  0  0  0  0  0  0  0  0  0  0  0
   49.9930   31.7140   38.7680 C   0  0  0  0  0  3  0  0  0  0  0  0
   49.9740   31.9810   37.4000 C   0  0  0  0  0  3  0  0  0  0  0  0
   49.0490   32.8740   36.9270 C   0  0  0  0  0  0  0  0  0  0  0  0
   47.3000   34.3680   37.0930 O   0  0  0  0  0  0  0  0  0  0  0  0
   47.4190   35.3570   37.3000 H   0  0  0  0  0  0  0  0  0  0  0  0
   49.1130   33.0730   35.5560 O   0  0  0  0  0  0  0  0  0  0  0  0
   48.6040   33.8940   35.2030 H   0  0  0  0  0  0  0  0  0  0  0  0
  1  4  1  6  0  0  0
  1 10  1  0  0  0  0
  2  1  1  0  0  0  0
  2  5  1  0  0  0  0
  3  7  1  1  0  0  0
  3  2  1  0  0  0  0
  3  1  1  0  0  0  0
  6  2  1  0  0  0  0
  8 14  1  0  0  0  0
  8 13  1  0  0  0  0
  9  8  2  0  0  0  0
 10  9  1  0  0  0  0
 10 11  2  0  0  0  0
 11 12  1  0  0  0  0
 12 15  1  0  0  0  0
 12 13  2  0  0  0  0
 16 17  1  0  0  0  0
 16  9  1  0  0  0  0
 18 16  1  0  0  0  0
 19  3  1  0  0  0  0
 20 19  1  0  0  0  0
 21 19  1  0  0  0  0
 22 23  1  0  0  0  0
 23 24  2  0  0  0  0
 23 19  1  0  0  0  0
 24 25  1  0  0  0  0
 26 24  1  0  0  0  0
 27 26  2  0  0  0  0
 28 27  1  0  0  0  0
 28 22  2  0  0  0  0
 29 30  1  0  0  0  0
 29 22  1  0  0  0  0
 31 28  1  0  0  0  0
 32 31  1  0  0  0  0
M  END
>  <minimizedAffinity>
-5.91289568

>  <minimizedRMSD>
2.21120906

$$$$
