
 OpenBabel03252505303D

 29 30  0  0  0  0  0  0  0  0999 V2000
   45.6830   30.5240   46.8390 O   0  0  0  0  0  0  0  0  0  0  0  0
   45.1780   29.7670   47.8550 C   0  0  0  0  0  0  0  0  0  0  0  0
   44.3310   30.3040   48.3630 H   0  0  0  0  0  0  0  0  0  0  0  0
   45.9310   29.6280   48.6770 H   0  0  0  0  0  0  0  0  0  0  0  0
   43.8700   28.2610   46.3060 C   0  0  0  0  0  0  0  0  0  0  0  0
   44.6210   28.4550   47.4420 C   0  0  0  0  0  0  0  0  0  0  0  0
   44.8680   27.3560   48.2520 C   0  0  0  0  0  0  0  0  0  0  0  0
   45.4470   27.4320   49.1580 H   0  0  0  0  0  0  0  0  0  0  0  0
   44.4060   26.0740   47.9890 C   0  0  0  0  0  3  0  0  0  0  0  0
   43.6510   25.8990   46.8400 C   0  0  0  0  0  3  0  0  0  0  0  0
   43.4080   27.0090   46.0320 C   0  0  0  0  0  0  0  0  0  0  0  0
   43.6250   29.3610   45.4980 O   0  0  0  0  0  0  0  0  0  0  0  0
   42.7660   29.8890   45.4680 H   0  0  0  0  0  0  0  0  0  0  0  0
   42.6540   26.8450   44.8820 O   0  0  0  0  0  0  0  0  0  0  0  0
   43.1540   26.7570   44.0090 H   0  0  0  0  0  0  0  0  0  0  0  0
   46.9170   31.9150   48.6360 O   0  0  0  0  0  0  0  0  0  0  0  0
   45.9780   32.0820   47.4410 P   0  0  2  0  0  0  0  0  0  0  0  0
   44.4920   32.7330   47.9010 O   0  0  0  0  0  0  0  0  0  0  0  0
   44.6570   33.1910   48.7860 H   0  0  0  0  0  0  0  0  0  0  0  0
   46.7500   33.0740   46.3280 O   0  0  0  0  0  0  0  0  0  0  0  0
   44.4880   35.4460   44.9930 C   0  0  0  0  0  0  0  0  0  0  0  0
   44.8490   35.5910   43.6330 C   0  0  0  0  0  0  0  0  0  0  0  0
   45.9420   34.7990   43.2070 C   0  0  0  0  0  0  0  0  0  0  0  0
   46.5500   33.9760   44.1250 N   0  0  0  0  0  0  0  0  0  0  0  0
   46.1530   33.8920   45.3940 C   0  0  0  0  0  0  0  0  0  0  0  0
   45.1310   34.6230   45.8170 N   0  0  0  0  0  0  0  0  0  0  0  0
   43.6380   36.0770   45.2770 H   0  0  0  0  0  0  0  0  0  0  0  0
   44.3360   36.2530   42.9470 H   0  0  0  0  0  0  0  0  0  0  0  0
   46.2750   34.8530   42.1820 H   0  0  0  0  0  0  0  0  0  0  0  0
  1 17  1  0  0  0  0
  1  2  1  0  0  0  0
  2  3  1  0  0  0  0
  2  4  1  0  0  0  0
  5  6  1  0  0  0  0
  6  2  1  0  0  0  0
  6  7  2  0  0  0  0
  7  8  1  0  0  0  0
  9  7  1  0  0  0  0
 10  9  2  0  0  0  0
 11  5  2  0  0  0  0
 11 10  1  0  0  0  0
 12  5  1  0  0  0  0
 13 12  1  0  0  0  0
 14 11  1  0  0  0  0
 15 14  1  0  0  0  0
 17 18  1  0  0  0  0
 17 16  2  1  0  0  0
 18 19  1  0  0  0  0
 20 17  1  0  0  0  0
 21 27  1  0  0  0  0
 21 26  1  0  0  0  0
 22 21  2  0  0  0  0
 23 22  1  0  0  0  0
 23 24  2  0  0  0  0
 24 25  1  0  0  0  0
 25 26  2  0  0  0  0
 25 20  1  0  0  0  0
 28 22  1  0  0  0  0
 29 23  1  0  0  0  0
M  END
>  <minimizedAffinity>
-4.99905109

>  <minimizedRMSD>
0.928226292

$$$$
