
     RDKit          3D

 47 50  0  0  0  0  0  0  0  0999 V2000
   46.3537   33.5268   44.7045 C   0  0  0  0  0  0  0  0  0  0  0  0
   45.7974   33.9075   45.7019 O   0  0  0  0  0  0  0  0  0  0  0  0
   44.4863   31.8034   42.9582 Cl  0  0  0  0  0  0  0  0  0  0  0  0
   44.5625   33.5630   42.8291 C   0  0  0  0  0  0  0  0  0  0  0  0
   45.4583   34.2004   43.7109 C   0  0  0  0  0  0  0  0  0  0  0  0
   45.4180   35.5627   43.5177 C   0  0  0  0  0  0  0  0  0  0  0  0
   44.7073   36.2976   42.6760 C   0  0  0  0  0  0  0  0  0  0  0  0
   43.8542   35.6036   41.8438 C   0  0  0  0  0  0  0  0  0  0  0  0
   43.7734   34.2475   41.9113 C   0  0  0  0  0  0  0  0  0  0  0  0
   42.8911   33.6705   41.0378 O   0  0  0  0  0  0  0  0  0  0  0  0
   40.6291   33.0727   39.8616 O   0  0  0  0  0  0  0  0  0  0  0  0
   41.2513   33.3199   41.2190 P   0  0  0  0  0  0  0  0  0  0  0  0
   41.0830   31.9710   42.2316 O   0  0  0  0  0  0  0  0  0  0  0  0
   40.4327   34.5877   42.0078 O   0  0  0  0  0  0  0  0  0  0  0  0
   47.3947   32.7869   43.9615 C   0  0  0  0  0  0  0  0  0  0  0  0
   48.2547   33.2873   43.0799 C   0  0  0  0  0  0  0  0  0  0  0  0
   49.0815   32.3771   42.4705 C   0  0  0  0  0  0  0  0  0  0  0  0
   48.9370   31.0220   42.8395 N   0  0  0  0  0  0  0  0  0  0  0  0
   48.0669   30.5932   43.7211 C   0  0  0  0  0  0  0  0  0  0  0  0
   47.2303   31.4848   44.3412 N   0  0  0  0  0  0  0  0  0  0  0  0
   48.4800   34.6616   42.7868 C   0  0  1  0  0  0  0  0  0  0  0  0
   49.5340   35.2371   42.1580 C   0  0  0  0  0  0  0  0  0  0  0  0
   48.2716   35.1867   41.3481 C   0  0  1  0  0  0  0  0  0  0  0  0
   46.0548   36.1985   44.1766 H   0  0  0  0  0  0  0  0  0  0  0  0
   44.7445   37.3848   42.5926 H   0  0  0  0  0  0  0  0  0  0  0  0
   43.2454   36.1840   41.1280 H   0  0  0  0  0  0  0  0  0  0  0  0
   41.6335   31.2044   41.9163 H   0  0  0  0  0  0  0  0  0  0  0  0
   40.6554   34.5508   42.9695 H   0  0  0  0  0  0  0  0  0  0  0  0
   49.8368   32.6143   41.7286 H   0  0  0  0  0  0  0  0  0  0  0  0
   48.1007   29.5153   43.8779 H   0  0  0  0  0  0  0  0  0  0  0  0
   48.0517   35.3263   43.6001 H   0  0  0  0  0  0  0  0  0  0  0  0
   50.3799   34.5803   41.7841 H   0  0  0  0  0  0  0  0  0  0  0  0
   49.9590   36.2632   42.2425 H   0  0  0  0  0  0  0  0  0  0  0  0
   47.6613   36.1420   41.3394 H   0  0  0  0  0  0  0  0  0  0  0  0
   49.6599   32.6550   40.4615 O   0  0  0  0  0  0  0  0  0  0  0  0
   48.7337   33.2124   39.6001 C   0  0  0  0  0  0  0  0  0  0  0  0
   48.1961   34.3392   40.1750 C   0  0  0  0  0  0  0  0  0  0  0  0
   47.2282   34.9777   39.3633 C   0  0  0  0  0  0  0  0  0  0  0  0
   46.6099   35.8736   39.4952 H   0  0  0  0  0  0  0  0  0  0  0  0
   46.8578   34.5010   38.0920 C   0  0  0  0  0  0  0  0  0  0  0  0
   47.4723   33.3442   37.6063 C   0  0  0  0  0  0  0  0  0  0  0  0
   48.4154   32.7001   38.3696 C   0  0  0  0  0  0  0  0  0  0  0  0
   49.1270   31.5497   38.0596 O   0  0  0  0  0  0  0  0  0  0  0  0
   49.7614   31.6587   40.6053 H   0  0  0  0  0  0  0  0  0  0  0  0
   46.1587   34.8700   37.3829 H   0  0  0  0  0  0  0  0  0  0  0  0
   47.2808   32.8791   36.6566 H   0  0  0  0  0  0  0  0  0  0  0  0
   48.6563   30.6719   38.2262 H   0  0  0  0  0  0  0  0  0  0  0  0
  1  2  2  0
  4  3  1  0
  4  5  2  0
  5  1  1  0
  6  5  1  0
  7  6  2  0
  8  9  2  0
  8  7  1  0
  9  4  1  0
 10 12  1  0
 10  9  1  0
 11 12  2  0
 12 14  1  0
 12 13  1  0
 15 20  1  0
 15  1  1  0
 16 15  2  0
 17 18  2  0
 17 16  1  0
 18 19  1  0
 19 20  2  0
 21 16  1  0
 22 21  1  0
 23 22  1  0
 23 21  1  0
  6 24  1  0
  7 25  1  0
  8 26  1  0
 13 27  1  0
 14 28  1  0
 17 29  1  0
 19 30  1  0
 21 31  1  1
 22 32  1  0
 22 33  1  0
 23 34  1  1
 35 36  1  0
 36 37  2  0
 37 38  1  0
 38 39  1  0
 38 40  2  0
 40 41  1  0
 41 42  2  0
 42 43  1  0
 42 36  1  0
 35 44  1  0
 40 45  1  0
 41 46  1  0
 43 47  1  0
 23 37  1  0
M  ISO  8  24  14  25  14  26  14  27   3  28   3  29  14  30  14  31  13
M  ISO  4  32  13  33  13  34  13  39  16
M  END
>  <DihAtoms>  (1) 
21,22,36,35

>  <DihDeg>  (1) 
114.5947775124697

$$$$
