
 OpenBabel03242518363D

 37 40  0  0  1  0  0  0  0  0999 V2000
   48.1940   33.2010   40.9150 C   0  0  0  0  0  0  0  0  0  0  0  0
   49.3420   32.4310   40.7400 C   0  0  0  0  0  0  0  0  0  0  0  0
   49.5250   31.6420   41.8650 C   0  0  0  0  0  0  0  0  0  0  0  0
   48.4690   31.9770   42.6730 C   0  0  0  0  0  0  0  0  0  0  0  0
   47.7000   32.8840   42.1150 O   0  0  0  0  0  0  0  0  0  0  0  0
   49.9310   32.5140   39.8210 H   0  0  0  0  0  0  0  0  0  0  0  0
   50.3420   30.9460   41.9940 H   0  0  0  0  0  0  0  0  0  0  0  0
   48.2230   31.3890   44.0020 C   0  0  2  0  0  0  0  0  0  0  0  0
   47.5820   30.0620   44.1050 C   0  0  0  0  0  0  0  0  0  0  0  0
   46.7250   31.2610   44.3580 C   0  0  1  0  0  0  0  0  0  0  0  0
   48.8520   31.8490   44.7920 H   0  0  0  0  0  0  0  0  0  0  0  0
   47.3800   29.4820   43.1980 H   0  0  0  0  0  0  0  0  0  0  0  0
   47.9150   29.4180   44.9660 H   0  0  0  0  0  0  0  0  0  0  0  0
   45.9830   31.5340   43.5730 H   0  0  0  0  0  0  0  0  0  0  0  0
   45.6650   32.7030   46.0510 C   0  0  0  0  0  0  0  0  0  0  0  0
   46.4230   31.5860   45.7730 C   0  0  0  0  0  0  0  0  0  0  0  0
   46.8560   30.8340   46.8440 C   0  0  0  0  0  0  0  0  0  0  0  0
   47.4530   29.9520   46.6580 H   0  0  0  0  0  0  0  0  0  0  0  0
   46.5360   31.1980   48.1360 C   0  0  0  0  0  3  0  0  0  0  0  0
   45.7780   32.3130   48.4260 C   0  0  0  0  0  3  0  0  0  0  0  0
   45.3390   33.0740   47.3610 C   0  0  0  0  0  0  0  0  0  0  0  0
   45.2130   33.4810   44.9870 O   0  0  0  0  0  0  0  0  0  0  0  0
   44.7820   34.3670   45.1710 H   0  0  0  0  0  0  0  0  0  0  0  0
   44.5700   34.2080   47.6140 O   0  0  0  0  0  0  0  0  0  0  0  0
   45.1180   35.0440   47.8310 H   0  0  0  0  0  0  0  0  0  0  0  0
   47.5790   34.1510   40.0760 O   0  0  0  0  0  0  0  0  0  0  0  0
   47.6490   33.9980   38.6770 C   0  0  0  0  0  0  0  0  0  0  0  0
   48.5080   34.7130   38.0950 O   0  0  0  0  0  0  0  0  0  0  0  0
   46.7510   33.0650   38.0920 C   0  0  0  0  0  0  0  0  0  0  0  0
   47.3260   32.1830   37.2190 C   0  0  0  0  0  0  0  0  0  0  0  0
   46.5030   31.2390   36.6070 C   0  0  0  0  0  0  0  0  0  0  0  0
   45.1930   31.2460   36.9070 N   0  0  0  0  0  0  0  0  0  0  0  0
   44.6620   32.1210   37.7650 C   0  0  0  0  0  0  0  0  0  0  0  0
   45.4600   33.0330   38.3550 N   0  0  0  0  0  0  0  0  0  0  0  0
   48.3760   32.1060   36.9180 H   0  0  0  0  0  0  0  0  0  0  0  0
   46.8960   30.5100   35.9040 H   0  0  0  0  0  0  0  0  0  0  0  0
   43.5870   32.0450   37.9420 H   0  0  0  0  0  0  0  0  0  0  0  0
  1  5  1  0  0  0  0
  2  1  2  0  0  0  0
  2  3  1  0  0  0  0
  3  7  1  0  0  0  0
  3  4  2  0  0  0  0
  4  8  1  0  0  0  0
  5  4  1  0  0  0  0
  6  2  1  0  0  0  0
  8  9  1  0  0  0  0
  8 10  1  0  0  0  0
  8 11  1  1  0  0  0
  9 10  1  0  0  0  0
  9 13  1  0  0  0  0
 10 14  1  6  0  0  0
 10 16  1  0  0  0  0
 12  9  1  0  0  0  0
 15 21  1  0  0  0  0
 16 15  2  0  0  0  0
 16 17  1  0  0  0  0
 17 19  2  0  0  0  0
 18 17  1  0  0  0  0
 19 20  1  0  0  0  0
 21 24  1  0  0  0  0
 21 20  2  0  0  0  0
 22 23  1  0  0  0  0
 22 15  1  0  0  0  0
 24 25  1  0  0  0  0
 26  1  1  0  0  0  0
 27 26  1  0  0  0  0
 28 27  2  0  0  0  0
 29 34  1  0  0  0  0
 29 27  1  0  0  0  0
 30 29  2  0  0  0  0
 31 32  2  0  0  0  0
 31 30  1  0  0  0  0
 32 33  1  0  0  0  0
 33 37  1  0  0  0  0
 33 34  2  0  0  0  0
 35 30  1  0  0  0  0
 36 31  1  0  0  0  0
M  END
>  <minimizedAffinity>
-4.89496994

>  <minimizedRMSD>
9.43383789

$$$$
