
 OpenBabel03242522313D

 41 44  0  0  0  0  0  0  0  0999 V2000
   45.4030   33.1710   41.1060 F   0  0  0  0  0  0  0  0  0  0  0  0
   46.5330   33.9060   40.9460 C   0  0  0  0  0  0  0  0  0  0  0  0
   46.9770   34.7300   41.9220 C   0  0  0  0  0  0  0  0  0  0  0  0
   48.1350   35.4380   41.6720 C   0  0  0  0  0  0  0  0  0  0  0  0
   48.8250   35.3300   40.4930 C   0  0  0  0  0  0  0  0  0  0  0  0
   48.3130   34.4760   39.5540 C   0  0  0  0  0  0  0  0  0  0  0  0
   47.1800   33.7530   39.7410 C   0  0  0  0  0  0  0  0  0  0  0  0
   48.4910   36.1020   42.4620 H   0  0  0  0  0  0  0  0  0  0  0  0
   49.7340   35.9020   40.3270 H   0  0  0  0  0  0  0  0  0  0  0  0
   48.8670   34.3950   38.6190 H   0  0  0  0  0  0  0  0  0  0  0  0
   46.7420   32.8850   38.6730 C   0  0  0  0  0  0  0  0  0  0  0  0
   46.3540   31.5840   38.9600 C   0  0  0  0  0  0  0  0  0  0  0  0
   45.9410   30.7810   37.9400 C   0  0  0  0  0  0  0  0  0  0  0  0
   45.9020   31.2490   36.6210 C   0  0  0  0  0  0  0  0  0  0  0  0
   46.3030   32.5660   36.3920 C   0  0  0  0  0  0  0  0  0  0  0  0
   46.7190   33.3770   37.4100 C   0  0  0  0  0  0  0  0  0  0  0  0
   46.4030   31.2690   40.0090 H   0  0  0  0  0  0  0  0  0  0  0  0
   45.6450   29.7730   38.1910 H   0  0  0  0  0  0  0  0  0  0  0  0
   45.5650   30.5590   35.8700 H   0  0  0  0  0  0  0  0  0  0  0  0
   46.2270   32.8030   35.3390 H   0  0  0  0  0  0  0  0  0  0  0  0
   47.0590   34.6180   36.9250 O   0  0  0  0  0  0  0  0  0  0  0  0
   47.8990   34.6520   36.3280 H   0  0  0  0  0  0  0  0  0  0  0  0
   44.5190   35.8120   44.5900 C   0  0  0  0  0  0  0  0  0  0  0  0
   45.2330   35.7670   43.3900 C   0  0  0  0  0  0  0  0  0  0  0  0
   46.2020   34.8110   43.1730 C   0  0  0  0  0  0  0  0  0  0  0  0
   46.4020   33.9420   44.1910 N   0  0  0  0  0  0  0  0  0  0  0  0
   45.7210   33.9890   45.3310 C   0  0  0  0  0  0  0  0  0  0  0  0
   44.7750   34.9260   45.5320 N   0  0  0  0  0  0  0  0  0  0  0  0
   43.7630   36.5920   44.7020 H   0  0  0  0  0  0  0  0  0  0  0  0
   45.0400   36.4810   42.6050 H   0  0  0  0  0  0  0  0  0  0  0  0
   45.4500   32.9830   47.6050 C   0  0  0  0  0  0  0  0  0  0  0  0
   46.0300   32.9920   46.3520 C   0  0  0  0  0  0  0  0  0  0  0  0
   46.9510   32.0090   46.0530 C   0  0  0  0  0  0  0  0  0  0  0  0
   47.4420   31.9630   45.0850 H   0  0  0  0  0  0  0  0  0  0  0  0
   47.3130   31.0190   46.9510 C   0  0  0  0  0  0  0  0  0  0  0  0
   46.7200   31.0200   48.2140 C   0  0  0  0  0  0  0  0  0  0  0  0
   45.8010   32.0040   48.5110 C   0  0  0  0  0  0  0  0  0  0  0  0
   44.5240   33.9770   47.8990 O   0  0  0  0  0  0  0  0  0  0  0  0
   44.7940   34.6050   48.6680 H   0  0  0  0  0  0  0  0  0  0  0  0
   45.2390   31.9730   49.7590 O   0  0  0  0  0  0  0  0  0  0  0  0
   44.6780   32.6690   50.1910 H   0  0  0  0  0  0  0  0  0  0  0  0
  2  1  1  0  0  0  0
  2  3  1  0  0  0  0
  3 25  1  0  0  0  0
  4  3  2  0  0  0  0
  4  8  1  0  0  0  0
  5  4  1  0  0  0  0
  6  7  1  0  0  0  0
  6  5  2  0  0  0  0
  7  2  2  0  0  0  0
  9  5  1  0  0  0  0
 10  6  1  0  0  0  0
 11 12  1  0  0  0  0
 11  7  1  0  0  0  0
 12 17  1  0  0  0  0
 13 18  1  0  0  0  0
 13 12  2  0  0  0  0
 14 13  1  0  0  0  0
 15 14  2  0  0  0  0
 15 16  1  0  0  0  0
 16 11  2  0  0  0  0
 19 14  1  0  0  0  0
 20 15  1  0  0  0  0
 21 16  1  0  0  0  0
 22 21  1  0  0  0  0
 23 29  1  0  0  0  0
 23 28  1  0  0  0  0
 24 23  2  0  0  0  0
 25 24  1  0  0  0  0
 25 26  2  0  0  0  0
 26 27  1  0  0  0  0
 27 28  2  0  0  0  0
 27 32  1  0  0  0  0
 30 24  1  0  0  0  0
 31 38  1  0  0  0  0
 31 37  1  0  0  0  0
 32 31  2  0  0  0  0
 33 32  1  0  0  0  0
 33 35  2  0  0  0  0
 34 33  1  0  0  0  0
 35 36  1  0  0  0  0
 36 37  2  0  0  0  0
 37 40  1  0  0  0  0
 38 39  1  0  0  0  0
 40 41  1  0  0  0  0
M  END
>  <minimizedAffinity>
-9.00158596

>  <minimizedRMSD>
0.281386316

$$$$
