
 OpenBabel03252507513D

 47 49  0  0  0  0  0  0  0  0999 V2000
   41.8040   29.9620   40.7460 C   0  0  0  0  0  0  0  0  0  0  0  0
   42.8730   29.6560   40.6710 H   0  0  0  0  0  0  0  0  0  0  0  0
   41.7750   30.9520   41.2260 H   0  0  0  0  0  0  0  0  0  0  0  0
   41.1520   28.9540   41.6270 C   0  0  0  0  0  0  0  0  0  0  0  0
   41.8740   28.4420   42.7430 C   0  0  0  0  0  0  0  0  0  0  0  0
   40.6920   27.2700   43.4980 S   0  0  0  0  0  0  0  0  0  0  0  0
   39.3960   27.6770   42.1510 C   0  0  0  0  0  0  0  0  0  0  0  0
   39.9610   28.4440   41.5250 N   0  0  0  0  0  0  0  0  0  0  0  0
   42.8750   28.6840   43.0690 H   0  0  0  0  0  0  0  0  0  0  0  0
   38.1400   27.0850   42.1140 O   0  0  0  0  0  0  0  0  0  0  0  0
   36.0060   27.1950   43.6690 O   0  0  0  0  0  0  0  0  0  0  0  0
   36.8210   27.9920   42.6590 P   0  0  1  0  0  0  0  0  0  0  0  0
   37.4420   29.3670   43.4590 O   0  0  0  0  0  0  0  0  0  0  0  0
   37.3170   30.1780   42.9290 H   0  0  0  0  0  0  0  0  0  0  0  0
   35.8910   28.5200   41.3590 O   0  0  0  0  0  0  0  0  0  0  0  0
   36.3350   30.7450   40.5930 C   0  0  0  0  0  0  0  0  0  0  0  0
   36.4580   29.3630   40.4120 C   0  0  0  0  0  0  0  0  0  0  0  0
   37.1400   28.9380   39.2920 C   0  0  0  0  0  0  0  0  0  0  0  0
   37.2470   27.8750   39.1310 H   0  0  0  0  0  0  0  0  0  0  0  0
   37.6730   29.8480   38.3980 C   0  0  0  0  0  3  0  0  0  0  0  0
   37.5490   31.2100   38.5820 C   0  0  0  0  0  3  0  0  0  0  0  0
   36.8700   31.6720   39.6950 C   0  0  0  0  0  0  0  0  0  0  0  0
   35.6400   31.1890   41.7340 O   0  0  0  0  0  0  0  0  0  0  0  0
   35.9320   32.0960   42.0880 H   0  0  0  0  0  0  0  0  0  0  0  0
   36.6720   33.0110   40.0020 O   0  0  0  0  0  0  0  0  0  0  0  0
   35.9070   33.5560   39.6430 H   0  0  0  0  0  0  0  0  0  0  0  0
   41.2660   29.9650   39.3450 C   0  0  0  0  0  0  0  0  0  0  0  0
   40.5410   29.1480   39.2450 H   0  0  0  0  0  0  0  0  0  0  0  0
   40.7030   30.9290   39.2130 H   0  0  0  0  0  0  0  0  0  0  0  0
   42.3090   29.9370   38.3100 C   0  0  0  0  0  0  0  0  0  0  0  0
   42.2700   30.9440   37.3570 C   0  0  0  0  0  0  0  0  0  0  0  0
   43.2050   31.0000   36.3480 C   0  0  0  0  0  0  0  0  0  0  0  0
   44.1700   30.0030   36.3440 N   0  0  0  0  0  0  0  0  0  0  0  0
   44.1690   29.0430   37.2910 C   0  0  0  0  0  0  0  0  0  0  0  0
   43.2550   29.0180   38.2500 N   0  0  0  0  0  0  0  0  0  0  0  0
   43.2080   31.7760   35.5790 H   0  0  0  0  0  0  0  0  0  0  0  0
   44.9640   28.3120   37.2010 H   0  0  0  0  0  0  0  0  0  0  0  0
   40.9860   32.1970   37.4320 S   0  0  0  0  0  0  0  0  0  0  0  0
   41.4400   33.4980   38.6050 C   0  0  0  0  0  0  0  0  0  0  0  0
   41.6170   34.4360   38.0450 H   0  0  0  0  0  0  0  0  0  0  0  0
   42.4130   33.1970   39.0570 H   0  0  0  0  0  0  0  0  0  0  0  0
   40.3420   33.6260   39.6220 C   0  0  0  0  0  0  0  0  0  0  0  0
   39.8420   34.6160   39.5320 H   0  0  0  0  0  0  0  0  0  0  0  0
   39.5610   32.8700   39.4060 H   0  0  0  0  0  0  0  0  0  0  0  0
   40.9180   33.5300   40.9340 N   0  0  0  0  0  0  0  0  0  0  0  0
   41.0440   32.5270   41.2350 H   0  0  0  0  0  0  0  0  0  0  0  0
   40.2680   34.0080   41.6260 H   0  0  0  0  0  0  0  0  0  0  0  0
  1  3  1  0  0  0  0
  1  4  1  0  0  0  0
  2  1  1  0  0  0  0
  4  5  2  0  0  0  0
  5  9  1  0  0  0  0
  5  6  1  0  0  0  0
  7  6  1  0  0  0  0
  8  4  1  0  0  0  0
  8  7  2  0  0  0  0
 10  7  1  0  0  0  0
 10 12  1  0  0  0  0
 12 13  1  0  0  0  0
 12 11  2  1  0  0  0
 14 13  1  0  0  0  0
 15 12  1  0  0  0  0
 16 23  1  0  0  0  0
 17 16  1  0  0  0  0
 17 15  1  0  0  0  0
 18 17  2  0  0  0  0
 19 18  1  0  0  0  0
 20 21  2  0  0  0  0
 20 18  1  0  0  0  0
 21 22  1  0  0  0  0
 22 25  1  0  0  0  0
 22 16  2  0  0  0  0
 23 24  1  0  0  0  0
 26 25  1  0  0  0  0
 27  1  1  0  0  0  0
 28 27  1  0  0  0  0
 29 27  1  0  0  0  0
 30 27  1  0  0  0  0
 31 38  1  0  0  0  0
 31 30  2  0  0  0  0
 32 31  1  0  0  0  0
 33 32  2  0  0  0  0
 33 34  1  0  0  0  0
 34 35  2  0  0  0  0
 35 30  1  0  0  0  0
 36 32  1  0  0  0  0
 37 34  1  0  0  0  0
 38 39  1  0  0  0  0
 39 41  1  0  0  0  0
 39 42  1  0  0  0  0
 40 39  1  0  0  0  0
 42 45  1  0  0  0  0
 43 42  1  0  0  0  0
 44 42  1  0  0  0  0
 45 46  1  0  0  0  0
 45 47  1  0  0  0  0
M  END
>  <minimizedAffinity>
-5.5677309

$$$$

 OpenBabel03252507513D

 47 49  0  0  0  0  0  0  0  0999 V2000
   36.3260   27.2970   38.9140 C   0  0  0  0  0  0  0  0  0  0  0  0
   36.0510   26.4380   38.2600 H   0  0  0  0  0  0  0  0  0  0  0  0
   35.4790   27.4850   39.5900 H   0  0  0  0  0  0  0  0  0  0  0  0
   36.5120   28.4600   38.0020 C   0  0  0  0  0  0  0  0  0  0  0  0
   36.2530   28.2950   36.6110 C   0  0  0  0  0  0  0  0  0  0  0  0
   36.6100   29.9510   35.9240 S   0  0  0  0  0  0  0  0  0  0  0  0
   37.0590   30.6000   37.6680 C   0  0  0  0  0  0  0  0  0  0  0  0
   36.8940   29.6660   38.3000 N   0  0  0  0  0  0  0  0  0  0  0  0
   35.9250   27.4110   36.0850 H   0  0  0  0  0  0  0  0  0  0  0  0
   37.4600   31.9080   37.9020 O   0  0  0  0  0  0  0  0  0  0  0  0
   39.7350   31.3050   39.1040 O   0  0  0  0  0  0  0  0  0  0  0  0
   38.5040   32.1970   39.2000 P   0  0  1  0  0  0  0  0  0  0  0  0
   39.0260   33.8200   39.0850 O   0  0  0  0  0  0  0  0  0  0  0  0
   38.6080   34.3800   39.7670 H   0  0  0  0  0  0  0  0  0  0  0  0
   37.6920   32.0120   40.6620 O   0  0  0  0  0  0  0  0  0  0  0  0
   36.9850   30.0080   41.7650 C   0  0  0  0  0  0  0  0  0  0  0  0
   37.9960   30.9320   41.4800 C   0  0  0  0  0  0  0  0  0  0  0  0
   39.2320   30.6970   42.0430 C   0  0  0  0  0  0  0  0  0  0  0  0
   40.0290   31.3980   41.8370 H   0  0  0  0  0  0  0  0  0  0  0  0
   39.4480   29.5940   42.8480 C   0  0  0  0  0  3  0  0  0  0  0  0
   38.4480   28.6860   43.1240 C   0  0  0  0  0  3  0  0  0  0  0  0
   37.1930   28.8900   42.5770 C   0  0  0  0  0  0  0  0  0  0  0  0
   35.7180   30.2390   41.1960 O   0  0  0  0  0  0  0  0  0  0  0  0
   35.1670   29.4030   41.0240 H   0  0  0  0  0  0  0  0  0  0  0  0
   36.1000   28.0590   42.7720 O   0  0  0  0  0  0  0  0  0  0  0  0
   35.4750   28.1380   43.5560 H   0  0  0  0  0  0  0  0  0  0  0  0
   37.5820   26.8970   39.6310 C   0  0  0  0  0  0  0  0  0  0  0  0
   38.4440   27.1750   39.0120 H   0  0  0  0  0  0  0  0  0  0  0  0
   37.6330   27.5130   40.5700 H   0  0  0  0  0  0  0  0  0  0  0  0
   37.6040   25.4870   40.0450 C   0  0  0  0  0  0  0  0  0  0  0  0
   38.7480   25.0450   40.6930 C   0  0  0  0  0  0  0  0  0  0  0  0
   38.8610   23.7400   41.1180 C   0  0  0  0  0  0  0  0  0  0  0  0
   37.7790   22.9110   40.8620 N   0  0  0  0  0  0  0  0  0  0  0  0
   36.6860   23.3850   40.2280 C   0  0  0  0  0  0  0  0  0  0  0  0
   36.6090   24.6470   39.8320 N   0  0  0  0  0  0  0  0  0  0  0  0
   39.7450   23.3530   41.6310 H   0  0  0  0  0  0  0  0  0  0  0  0
   35.8960   22.6590   40.0770 H   0  0  0  0  0  0  0  0  0  0  0  0
   40.1070   26.1820   40.9860 S   0  0  0  0  0  0  0  0  0  0  0  0
   41.6070   25.2730   41.4290 C   0  0  0  0  0  0  0  0  0  0  0  0
   42.3610   25.4210   40.6340 H   0  0  0  0  0  0  0  0  0  0  0  0
   41.3390   24.1920   41.4300 H   0  0  0  0  0  0  0  0  0  0  0  0
   42.0770   25.7560   42.7720 C   0  0  0  0  0  0  0  0  0  0  0  0
   42.7140   26.6600   42.6590 H   0  0  0  0  0  0  0  0  0  0  0  0
   41.1990   26.0750   43.3680 H   0  0  0  0  0  0  0  0  0  0  0  0
   42.8660   24.7220   43.3810 N   0  0  0  0  0  0  0  0  0  0  0  0
   42.2660   24.0100   43.8760 H   0  0  0  0  0  0  0  0  0  0  0  0
   43.5160   25.1670   44.0950 H   0  0  0  0  0  0  0  0  0  0  0  0
  1  3  1  0  0  0  0
  1 27  1  0  0  0  0
  2  1  1  0  0  0  0
  4  8  1  0  0  0  0
  4  1  1  0  0  0  0
  5  4  2  0  0  0  0
  6  5  1  0  0  0  0
  6  7  1  0  0  0  0
  7 10  1  0  0  0  0
  7  8  2  0  0  0  0
  9  5  1  0  0  0  0
 10 12  1  0  0  0  0
 12 11  2  6  0  0  0
 12 15  1  0  0  0  0
 13 12  1  0  0  0  0
 13 14  1  0  0  0  0
 15 17  1  0  0  0  0
 16 22  1  0  0  0  0
 17 16  2  0  0  0  0
 17 18  1  0  0  0  0
 18 20  2  0  0  0  0
 19 18  1  0  0  0  0
 20 21  1  0  0  0  0
 22 25  1  0  0  0  0
 22 21  2  0  0  0  0
 23 16  1  0  0  0  0
 24 23  1  0  0  0  0
 25 26  1  0  0  0  0
 27 30  1  0  0  0  0
 27 29  1  0  0  0  0
 28 27  1  0  0  0  0
 30 31  1  0  0  0  0
 31 38  1  0  0  0  0
 31 32  2  0  0  0  0
 32 36  1  0  0  0  0
 33 32  1  0  0  0  0
 34 33  2  0  0  0  0
 35 30  2  0  0  0  0
 35 34  1  0  0  0  0
 37 34  1  0  0  0  0
 38 39  1  0  0  0  0
 39 41  1  0  0  0  0
 39 42  1  0  0  0  0
 40 39  1  0  0  0  0
 42 44  1  0  0  0  0
 42 45  1  0  0  0  0
 43 42  1  0  0  0  0
 45 46  1  0  0  0  0
 45 47  1  0  0  0  0
M  END
>  <minimizedAffinity>
-5.54308414

$$$$

 OpenBabel03252507513D

 47 49  0  0  0  0  0  0  0  0999 V2000
   37.1530   26.7530   39.0330 C   0  0  0  0  0  0  0  0  0  0  0  0
   38.2670   26.7140   39.0200 H   0  0  0  0  0  0  0  0  0  0  0  0
   36.7830   25.7950   38.6410 H   0  0  0  0  0  0  0  0  0  0  0  0
   36.7730   27.8580   38.1090 C   0  0  0  0  0  0  0  0  0  0  0  0
   37.7540   28.8260   37.7510 C   0  0  0  0  0  0  0  0  0  0  0  0
   36.8400   29.9460   36.6320 S   0  0  0  0  0  0  0  0  0  0  0  0
   35.2530   28.8970   36.8440 C   0  0  0  0  0  0  0  0  0  0  0  0
   35.6210   28.0830   37.5530 N   0  0  0  0  0  0  0  0  0  0  0  0
   38.7870   28.8880   38.0590 H   0  0  0  0  0  0  0  0  0  0  0  0
   34.0580   29.2070   36.2110 O   0  0  0  0  0  0  0  0  0  0  0  0
   33.7910   27.1510   34.5720 O   0  0  0  0  0  0  0  0  0  0  0  0
   33.0880   27.9290   35.6770 P   0  0  1  0  0  0  0  0  0  0  0  0
   32.8660   26.8700   37.0000 O   0  0  0  0  0  0  0  0  0  0  0  0
   31.9590   26.9300   37.3580 H   0  0  0  0  0  0  0  0  0  0  0  0
   31.5760   28.4940   35.2010 O   0  0  0  0  0  0  0  0  0  0  0  0
   30.6930   30.0440   36.7980 C   0  0  0  0  0  0  0  0  0  0  0  0
   31.2010   29.7920   35.5190 C   0  0  0  0  0  0  0  0  0  0  0  0
   31.2900   30.8670   34.6600 C   0  0  0  0  0  0  0  0  0  0  0  0
   31.6800   30.6960   33.6660 H   0  0  0  0  0  0  0  0  0  0  0  0
   30.8930   32.1300   35.0590 C   0  0  0  0  0  3  0  0  0  0  0  0
   30.3940   32.3720   36.3220 C   0  0  0  0  0  3  0  0  0  0  0  0
   30.2890   31.3170   37.2100 C   0  0  0  0  0  0  0  0  0  0  0  0
   30.5980   28.9540   37.6830 O   0  0  0  0  0  0  0  0  0  0  0  0
   30.6740   29.1930   38.6670 H   0  0  0  0  0  0  0  0  0  0  0  0
   29.8060   31.4190   38.5070 O   0  0  0  0  0  0  0  0  0  0  0  0
   28.8300   31.3620   38.7420 H   0  0  0  0  0  0  0  0  0  0  0  0
   36.7560   27.0060   40.4580 C   0  0  0  0  0  0  0  0  0  0  0  0
   36.4200   28.0460   40.5510 H   0  0  0  0  0  0  0  0  0  0  0  0
   35.8700   26.3480   40.6730 H   0  0  0  0  0  0  0  0  0  0  0  0
   37.7960   26.6500   41.4340 C   0  0  0  0  0  0  0  0  0  0  0  0
   38.0880   27.5950   42.4080 C   0  0  0  0  0  0  0  0  0  0  0  0
   39.0470   27.3520   43.3650 C   0  0  0  0  0  0  0  0  0  0  0  0
   39.6920   26.1250   43.2950 N   0  0  0  0  0  0  0  0  0  0  0  0
   39.3770   25.2370   42.3300 C   0  0  0  0  0  0  0  0  0  0  0  0
   38.4470   25.5020   41.4240 N   0  0  0  0  0  0  0  0  0  0  0  0
   39.3060   28.0690   44.1470 H   0  0  0  0  0  0  0  0  0  0  0  0
   39.9360   24.3100   42.3620 H   0  0  0  0  0  0  0  0  0  0  0  0
   37.2070   29.1590   42.4280 S   0  0  0  0  0  0  0  0  0  0  0  0
   38.0080   30.3500   41.3260 C   0  0  0  0  0  0  0  0  0  0  0  0
   38.6990   29.8050   40.6550 H   0  0  0  0  0  0  0  0  0  0  0  0
   38.6300   31.0140   41.9680 H   0  0  0  0  0  0  0  0  0  0  0  0
   36.9410   31.0980   40.5780 C   0  0  0  0  0  0  0  0  0  0  0  0
   37.1940   32.1790   40.5180 H   0  0  0  0  0  0  0  0  0  0  0  0
   36.9130   30.7330   39.5320 H   0  0  0  0  0  0  0  0  0  0  0  0
   35.7010   30.9630   41.2890 N   0  0  0  0  0  0  0  0  0  0  0  0
   35.2050   30.0650   41.0470 H   0  0  0  0  0  0  0  0  0  0  0  0
   35.0690   31.7770   41.0260 H   0  0  0  0  0  0  0  0  0  0  0  0
  1 27  1  0  0  0  0
  2  1  1  0  0  0  0
  3  1  1  0  0  0  0
  4  1  1  0  0  0  0
  5  9  1  0  0  0  0
  5  4  2  0  0  0  0
  6  7  1  0  0  0  0
  6  5  1  0  0  0  0
  7  8  2  0  0  0  0
  8  4  1  0  0  0  0
 10  7  1  0  0  0  0
 12 11  2  6  0  0  0
 12 10  1  0  0  0  0
 12 13  1  0  0  0  0
 13 14  1  0  0  0  0
 15 17  1  0  0  0  0
 15 12  1  0  0  0  0
 16 22  1  0  0  0  0
 16 23  1  0  0  0  0
 17 16  2  0  0  0  0
 18 20  2  0  0  0  0
 18 17  1  0  0  0  0
 19 18  1  0  0  0  0
 20 21  1  0  0  0  0
 21 22  2  0  0  0  0
 22 25  1  0  0  0  0
 23 24  1  0  0  0  0
 25 26  1  0  0  0  0
 27 28  1  0  0  0  0
 27 29  1  0  0  0  0
 27 30  1  0  0  0  0
 30 31  1  0  0  0  0
 31 38  1  0  0  0  0
 31 32  2  0  0  0  0
 32 36  1  0  0  0  0
 33 32  1  0  0  0  0
 34 37  1  0  0  0  0
 34 33  2  0  0  0  0
 35 30  2  0  0  0  0
 35 34  1  0  0  0  0
 39 41  1  0  0  0  0
 39 38  1  0  0  0  0
 40 39  1  0  0  0  0
 42 45  1  0  0  0  0
 42 39  1  0  0  0  0
 43 42  1  0  0  0  0
 44 42  1  0  0  0  0
 46 45  1  0  0  0  0
 47 45  1  0  0  0  0
M  END
>  <minimizedAffinity>
-5.51575422

$$$$

 OpenBabel03252507513D

 47 49  0  0  0  0  0  0  0  0999 V2000
   37.2080   27.6790   38.6020 C   0  0  0  0  0  0  0  0  0  0  0  0
   37.6350   26.7900   38.0840 H   0  0  0  0  0  0  0  0  0  0  0  0
   36.5350   28.1850   37.8940 H   0  0  0  0  0  0  0  0  0  0  0  0
   38.3660   28.5610   38.9170 C   0  0  0  0  0  0  0  0  0  0  0  0
   39.6130   28.3200   38.2730 C   0  0  0  0  0  0  0  0  0  0  0  0
   40.6940   29.6230   38.9620 S   0  0  0  0  0  0  0  0  0  0  0  0
   39.2500   30.2860   40.0280 C   0  0  0  0  0  0  0  0  0  0  0  0
   38.4120   29.5700   39.7350 N   0  0  0  0  0  0  0  0  0  0  0  0
   39.8640   27.5580   37.5510 H   0  0  0  0  0  0  0  0  0  0  0  0
   39.3830   31.3740   40.8800 O   0  0  0  0  0  0  0  0  0  0  0  0
   37.1470   32.5940   40.1720 O   0  0  0  0  0  0  0  0  0  0  0  0
   38.6290   32.8220   40.4390 P   0  0  1  0  0  0  0  0  0  0  0  0
   38.7620   33.8910   41.7650 O   0  0  0  0  0  0  0  0  0  0  0  0
   39.4130   34.5990   41.5910 H   0  0  0  0  0  0  0  0  0  0  0  0
   39.4160   33.5200   39.1250 O   0  0  0  0  0  0  0  0  0  0  0  0
   41.4740   33.1600   37.9550 C   0  0  0  0  0  0  0  0  0  0  0  0
   40.8040   33.5760   39.1100 C   0  0  0  0  0  0  0  0  0  0  0  0
   41.5820   34.0130   40.1610 C   0  0  0  0  0  0  0  0  0  0  0  0
   41.0860   34.3400   41.0640 H   0  0  0  0  0  0  0  0  0  0  0  0
   42.9610   34.0360   40.0610 C   0  0  0  0  0  3  0  0  0  0  0  0
   43.6160   33.6250   38.9190 C   0  0  0  0  0  3  0  0  0  0  0  0
   42.8670   33.1790   37.8450 C   0  0  0  0  0  0  0  0  0  0  0  0
   40.6880   32.7110   36.8760 O   0  0  0  0  0  0  0  0  0  0  0  0
   41.1020   32.8480   35.9590 H   0  0  0  0  0  0  0  0  0  0  0  0
   43.3950   32.7380   36.6400 O   0  0  0  0  0  0  0  0  0  0  0  0
   43.6950   31.7920   36.4780 H   0  0  0  0  0  0  0  0  0  0  0  0
   36.5060   27.1600   39.8230 C   0  0  0  0  0  0  0  0  0  0  0  0
   36.6400   27.8810   40.6380 H   0  0  0  0  0  0  0  0  0  0  0  0
   35.4090   27.1290   39.5800 H   0  0  0  0  0  0  0  0  0  0  0  0
   36.8980   25.7930   40.1950 C   0  0  0  0  0  0  0  0  0  0  0  0
   37.1280   25.5550   41.5420 C   0  0  0  0  0  0  0  0  0  0  0  0
   37.5000   24.3060   41.9860 C   0  0  0  0  0  0  0  0  0  0  0  0
   37.6280   23.3190   41.0190 N   0  0  0  0  0  0  0  0  0  0  0  0
   37.3940   23.5960   39.7200 C   0  0  0  0  0  0  0  0  0  0  0  0
   37.0370   24.8100   39.3250 N   0  0  0  0  0  0  0  0  0  0  0  0
   37.6910   24.0780   43.0370 H   0  0  0  0  0  0  0  0  0  0  0  0
   37.5200   22.7590   39.0440 H   0  0  0  0  0  0  0  0  0  0  0  0
   36.9420   26.8870   42.7310 S   0  0  0  0  0  0  0  0  0  0  0  0
   38.5000   27.7860   42.9220 C   0  0  0  0  0  0  0  0  0  0  0  0
   39.0630   27.7290   41.9720 H   0  0  0  0  0  0  0  0  0  0  0  0
   39.0950   27.2380   43.6890 H   0  0  0  0  0  0  0  0  0  0  0  0
   38.1890   29.1980   43.3290 C   0  0  0  0  0  0  0  0  0  0  0  0
   37.9540   29.2470   44.4150 H   0  0  0  0  0  0  0  0  0  0  0  0
   39.0930   29.8220   43.1840 H   0  0  0  0  0  0  0  0  0  0  0  0
   37.0350   29.6420   42.5980 N   0  0  0  0  0  0  0  0  0  0  0  0
   37.2910   30.0020   41.6410 H   0  0  0  0  0  0  0  0  0  0  0  0
   36.5740   30.4320   43.1400 H   0  0  0  0  0  0  0  0  0  0  0  0
  1  4  1  0  0  0  0
  1 27  1  0  0  0  0
  2  1  1  0  0  0  0
  3  1  1  0  0  0  0
  4  8  1  0  0  0  0
  5  4  2  0  0  0  0
  5  6  1  0  0  0  0
  6  7  1  0  0  0  0
  7 10  1  0  0  0  0
  8  7  2  0  0  0  0
  9  5  1  0  0  0  0
 12 11  2  6  0  0  0
 12 10  1  0  0  0  0
 12 13  1  0  0  0  0
 14 13  1  0  0  0  0
 15 12  1  0  0  0  0
 16 17  1  0  0  0  0
 17 15  1  0  0  0  0
 17 18  2  0  0  0  0
 18 19  1  0  0  0  0
 20 18  1  0  0  0  0
 21 20  2  0  0  0  0
 22 16  2  0  0  0  0
 22 21  1  0  0  0  0
 23 16  1  0  0  0  0
 24 23  1  0  0  0  0
 25 22  1  0  0  0  0
 26 25  1  0  0  0  0
 27 30  1  0  0  0  0
 27 28  1  0  0  0  0
 29 27  1  0  0  0  0
 30 31  1  0  0  0  0
 31 32  2  0  0  0  0
 31 38  1  0  0  0  0
 32 36  1  0  0  0  0
 33 32  1  0  0  0  0
 34 33  2  0  0  0  0
 35 34  1  0  0  0  0
 35 30  2  0  0  0  0
 37 34  1  0  0  0  0
 38 39  1  0  0  0  0
 39 42  1  0  0  0  0
 39 41  1  0  0  0  0
 40 39  1  0  0  0  0
 42 43  1  0  0  0  0
 44 42  1  0  0  0  0
 45 47  1  0  0  0  0
 45 42  1  0  0  0  0
 46 45  1  0  0  0  0
M  END
>  <minimizedAffinity>
-5.49205303

$$$$

 OpenBabel03252507513D

 47 49  0  0  0  0  0  0  0  0999 V2000
   40.7720   27.7130   38.8790 C   0  0  0  0  0  0  0  0  0  0  0  0
   41.6940   27.3600   39.3960 H   0  0  0  0  0  0  0  0  0  0  0  0
   40.6940   27.1640   37.9300 H   0  0  0  0  0  0  0  0  0  0  0  0
   40.9870   29.1620   38.6090 C   0  0  0  0  0  0  0  0  0  0  0  0
   41.6460   29.5500   37.4080 C   0  0  0  0  0  0  0  0  0  0  0  0
   41.6740   31.3740   37.5220 S   0  0  0  0  0  0  0  0  0  0  0  0
   40.7740   31.3030   39.2090 C   0  0  0  0  0  0  0  0  0  0  0  0
   40.6460   30.1780   39.3430 N   0  0  0  0  0  0  0  0  0  0  0  0
   42.0350   28.9250   36.6180 H   0  0  0  0  0  0  0  0  0  0  0  0
   40.4440   32.4410   39.9320 O   0  0  0  0  0  0  0  0  0  0  0  0
   38.5190   31.4410   41.4420 O   0  0  0  0  0  0  0  0  0  0  0  0
   38.8570   32.5880   40.4980 P   0  0  1  0  0  0  0  0  0  0  0  0
   38.7660   34.0420   41.3910 O   0  0  0  0  0  0  0  0  0  0  0  0
   38.2710   34.7300   40.9050 H   0  0  0  0  0  0  0  0  0  0  0  0
   37.7790   32.6970   39.2110 O   0  0  0  0  0  0  0  0  0  0  0  0
   37.4900   31.2210   37.3470 C   0  0  0  0  0  0  0  0  0  0  0  0
   37.2250   31.5370   38.6840 C   0  0  0  0  0  0  0  0  0  0  0  0
   36.4220   30.6630   39.3850 C   0  0  0  0  0  0  0  0  0  0  0  0
   36.2040   30.8860   40.4190 H   0  0  0  0  0  0  0  0  0  0  0  0
   35.9120   29.5290   38.7810 C   0  0  0  0  0  3  0  0  0  0  0  0
   36.1770   29.2220   37.4620 C   0  0  0  0  0  3  0  0  0  0  0  0
   36.9780   30.0780   36.7280 C   0  0  0  0  0  0  0  0  0  0  0  0
   38.3090   32.1090   36.6220 O   0  0  0  0  0  0  0  0  0  0  0  0
   38.8430   31.6820   35.8710 H   0  0  0  0  0  0  0  0  0  0  0  0
   37.3240   29.8920   35.3970 O   0  0  0  0  0  0  0  0  0  0  0  0
   36.7550   30.1980   34.6270 H   0  0  0  0  0  0  0  0  0  0  0  0
   39.6320   27.4450   39.8170 C   0  0  0  0  0  0  0  0  0  0  0  0
   39.2390   28.4040   40.1750 H   0  0  0  0  0  0  0  0  0  0  0  0
   38.8200   26.9550   39.2140 H   0  0  0  0  0  0  0  0  0  0  0  0
   39.9680   26.5200   40.9090 C   0  0  0  0  0  0  0  0  0  0  0  0
   38.9050   25.9270   41.5740 C   0  0  0  0  0  0  0  0  0  0  0  0
   39.1210   25.0470   42.6100 C   0  0  0  0  0  0  0  0  0  0  0  0
   40.4450   24.7960   42.9420 N   0  0  0  0  0  0  0  0  0  0  0  0
   41.4470   25.3960   42.2680 C   0  0  0  0  0  0  0  0  0  0  0  0
   41.2050   26.2380   41.2740 N   0  0  0  0  0  0  0  0  0  0  0  0
   38.3110   24.5590   43.1590 H   0  0  0  0  0  0  0  0  0  0  0  0
   42.4440   25.1340   42.6030 H   0  0  0  0  0  0  0  0  0  0  0  0
   37.2200   26.3060   41.0830 S   0  0  0  0  0  0  0  0  0  0  0  0
   36.6330   27.7900   41.9340 C   0  0  0  0  0  0  0  0  0  0  0  0
   35.5360   27.7180   42.0600 H   0  0  0  0  0  0  0  0  0  0  0  0
   36.8290   28.6500   41.2520 H   0  0  0  0  0  0  0  0  0  0  0  0
   37.3610   27.9090   43.2420 C   0  0  0  0  0  0  0  0  0  0  0  0
   36.7850   27.4150   44.0550 H   0  0  0  0  0  0  0  0  0  0  0  0
   38.3200   27.3580   43.1710 H   0  0  0  0  0  0  0  0  0  0  0  0
   37.4970   29.3010   43.5680 N   0  0  0  0  0  0  0  0  0  0  0  0
   38.3320   29.7360   43.0920 H   0  0  0  0  0  0  0  0  0  0  0  0
   37.6240   29.3930   44.6190 H   0  0  0  0  0  0  0  0  0  0  0  0
  1  2  1  0  0  0  0
  1 27  1  0  0  0  0
  3  1  1  0  0  0  0
  4  1  1  0  0  0  0
  4  8  1  0  0  0  0
  5  6  1  0  0  0  0
  5  4  2  0  0  0  0
  6  7  1  0  0  0  0
  7  8  2  0  0  0  0
  7 10  1  0  0  0  0
  9  5  1  0  0  0  0
 10 12  1  0  0  0  0
 12 13  1  0  0  0  0
 12 11  2  1  0  0  0
 14 13  1  0  0  0  0
 15 12  1  0  0  0  0
 16 17  1  0  0  0  0
 17 15  1  0  0  0  0
 17 18  2  0  0  0  0
 18 19  1  0  0  0  0
 20 18  1  0  0  0  0
 21 20  2  0  0  0  0
 22 16  2  0  0  0  0
 22 21  1  0  0  0  0
 23 16  1  0  0  0  0
 24 23  1  0  0  0  0
 25 22  1  0  0  0  0
 26 25  1  0  0  0  0
 27 28  1  0  0  0  0
 27 30  1  0  0  0  0
 29 27  1  0  0  0  0
 30 35  2  0  0  0  0
 30 31  1  0  0  0  0
 31 32  2  0  0  0  0
 32 33  1  0  0  0  0
 32 36  1  0  0  0  0
 34 37  1  0  0  0  0
 34 33  2  0  0  0  0
 35 34  1  0  0  0  0
 38 31  1  0  0  0  0
 38 39  1  0  0  0  0
 39 40  1  0  0  0  0
 39 42  1  0  0  0  0
 41 39  1  0  0  0  0
 42 45  1  0  0  0  0
 42 43  1  0  0  0  0
 44 42  1  0  0  0  0
 45 47  1  0  0  0  0
 46 45  1  0  0  0  0
M  END
>  <minimizedAffinity>
-5.47290945

$$$$

 OpenBabel03252507513D

 47 49  0  0  0  0  0  0  0  0999 V2000
   36.4660   26.3430   39.4140 C   0  0  0  0  0  0  0  0  0  0  0  0
   36.3100   25.4310   38.7940 H   0  0  0  0  0  0  0  0  0  0  0  0
   35.4890   26.8330   39.5350 H   0  0  0  0  0  0  0  0  0  0  0  0
   37.3770   27.2190   38.6260 C   0  0  0  0  0  0  0  0  0  0  0  0
   38.3700   26.6190   37.8010 C   0  0  0  0  0  0  0  0  0  0  0  0
   39.2160   28.0590   37.0570 S   0  0  0  0  0  0  0  0  0  0  0  0
   38.0620   29.2540   38.0070 C   0  0  0  0  0  0  0  0  0  0  0  0
   37.4040   28.5180   38.5770 N   0  0  0  0  0  0  0  0  0  0  0  0
   38.5770   25.5700   37.6470 H   0  0  0  0  0  0  0  0  0  0  0  0
   38.1560   30.6350   37.8970 O   0  0  0  0  0  0  0  0  0  0  0  0
   36.6970   31.7810   39.7790 O   0  0  0  0  0  0  0  0  0  0  0  0
   38.1310   31.5460   39.3210 P   0  0  1  0  0  0  0  0  0  0  0  0
   38.9200   30.6290   40.5280 O   0  0  0  0  0  0  0  0  0  0  0  0
   39.8010   30.9970   40.7380 H   0  0  0  0  0  0  0  0  0  0  0  0
   38.9820   32.9830   39.1170 O   0  0  0  0  0  0  0  0  0  0  0  0
   41.0560   32.7030   37.9550 C   0  0  0  0  0  0  0  0  0  0  0  0
   40.3700   32.9650   39.1450 C   0  0  0  0  0  0  0  0  0  0  0  0
   41.1350   33.1860   40.2710 C   0  0  0  0  0  0  0  0  0  0  0  0
   40.6260   33.3910   41.2020 H   0  0  0  0  0  0  0  0  0  0  0  0
   42.5150   33.1500   40.2100 C   0  0  0  0  0  3  0  0  0  0  0  0
   43.1870   32.8910   39.0330 C   0  0  0  0  0  3  0  0  0  0  0  0
   42.4510   32.6630   37.8830 C   0  0  0  0  0  0  0  0  0  0  0  0
   40.2850   32.4740   36.7990 O   0  0  0  0  0  0  0  0  0  0  0  0
   40.7350   32.7330   35.9260 H   0  0  0  0  0  0  0  0  0  0  0  0
   42.9960   32.3920   36.6360 O   0  0  0  0  0  0  0  0  0  0  0  0
   43.2540   31.4690   36.3310 H   0  0  0  0  0  0  0  0  0  0  0  0
   37.0620   25.8770   40.7100 C   0  0  0  0  0  0  0  0  0  0  0  0
   36.3700   25.1690   41.1800 H   0  0  0  0  0  0  0  0  0  0  0  0
   37.9980   25.3090   40.4540 H   0  0  0  0  0  0  0  0  0  0  0  0
   37.4600   26.9720   41.6060 C   0  0  0  0  0  0  0  0  0  0  0  0
   38.7730   26.9650   42.0550 C   0  0  0  0  0  0  0  0  0  0  0  0
   39.2370   27.9490   42.8980 C   0  0  0  0  0  0  0  0  0  0  0  0
   38.3260   28.9290   43.2650 N   0  0  0  0  0  0  0  0  0  0  0  0
   37.0590   28.8950   42.8050 C   0  0  0  0  0  0  0  0  0  0  0  0
   36.6430   27.9340   41.9930 N   0  0  0  0  0  0  0  0  0  0  0  0
   40.2630   27.9790   43.2740 H   0  0  0  0  0  0  0  0  0  0  0  0
   36.4270   29.7060   43.1480 H   0  0  0  0  0  0  0  0  0  0  0  0
   39.8890   25.6590   41.5340 S   0  0  0  0  0  0  0  0  0  0  0  0
   40.9450   25.1440   42.9100 C   0  0  0  0  0  0  0  0  0  0  0  0
   40.7510   24.0770   43.1280 H   0  0  0  0  0  0  0  0  0  0  0  0
   40.6180   25.7270   43.8020 H   0  0  0  0  0  0  0  0  0  0  0  0
   42.3760   25.4090   42.5370 C   0  0  0  0  0  0  0  0  0  0  0  0
   42.5900   25.0240   41.5160 H   0  0  0  0  0  0  0  0  0  0  0  0
   42.5390   26.5040   42.4900 H   0  0  0  0  0  0  0  0  0  0  0  0
   43.2280   24.7200   43.4660 N   0  0  0  0  0  0  0  0  0  0  0  0
   43.3800   25.2780   44.3480 H   0  0  0  0  0  0  0  0  0  0  0  0
   44.1710   24.5560   43.0050 H   0  0  0  0  0  0  0  0  0  0  0  0
  1  3  1  0  0  0  0
  1 27  1  0  0  0  0
  2  1  1  0  0  0  0
  4  1  1  0  0  0  0
  5  4  2  0  0  0  0
  6  5  1  0  0  0  0
  6  7  1  0  0  0  0
  7  8  2  0  0  0  0
  8  4  1  0  0  0  0
  9  5  1  0  0  0  0
 10  7  1  0  0  0  0
 10 12  1  0  0  0  0
 12 11  2  1  0  0  0
 12 13  1  0  0  0  0
 13 14  1  0  0  0  0
 15 17  1  0  0  0  0
 15 12  1  0  0  0  0
 16 17  1  0  0  0  0
 17 18  2  0  0  0  0
 18 19  1  0  0  0  0
 20 18  1  0  0  0  0
 21 20  2  0  0  0  0
 22 16  2  0  0  0  0
 22 21  1  0  0  0  0
 23 16  1  0  0  0  0
 24 23  1  0  0  0  0
 25 22  1  0  0  0  0
 26 25  1  0  0  0  0
 27 28  1  0  0  0  0
 27 30  1  0  0  0  0
 29 27  1  0  0  0  0
 30 35  2  0  0  0  0
 30 31  1  0  0  0  0
 31 32  2  0  0  0  0
 32 33  1  0  0  0  0
 32 36  1  0  0  0  0
 34 37  1  0  0  0  0
 34 33  2  0  0  0  0
 35 34  1  0  0  0  0
 38 31  1  0  0  0  0
 38 39  1  0  0  0  0
 39 40  1  0  0  0  0
 39 41  1  0  0  0  0
 42 39  1  0  0  0  0
 42 45  1  0  0  0  0
 43 42  1  0  0  0  0
 44 42  1  0  0  0  0
 45 46  1  0  0  0  0
 47 45  1  0  0  0  0
M  END
>  <minimizedAffinity>
-5.44663095

$$$$

 OpenBabel03252507513D

 47 49  0  0  0  0  0  0  0  0999 V2000
   36.8360   24.6330   41.1520 C   0  0  0  0  0  0  0  0  0  0  0  0
   36.7010   23.5480   41.3670 H   0  0  0  0  0  0  0  0  0  0  0  0
   36.0250   25.1760   41.6580 H   0  0  0  0  0  0  0  0  0  0  0  0
   36.6950   24.7750   39.6760 C   0  0  0  0  0  0  0  0  0  0  0  0
   35.6270   24.1030   39.0160 C   0  0  0  0  0  0  0  0  0  0  0  0
   35.8640   24.5680   37.2640 S   0  0  0  0  0  0  0  0  0  0  0  0
   37.3990   25.6120   37.7280 C   0  0  0  0  0  0  0  0  0  0  0  0
   37.4400   25.4550   38.8560 N   0  0  0  0  0  0  0  0  0  0  0  0
   34.8600   23.4730   39.4410 H   0  0  0  0  0  0  0  0  0  0  0  0
   38.1430   26.3130   36.7880 O   0  0  0  0  0  0  0  0  0  0  0  0
   39.3740   28.5700   37.4010 O   0  0  0  0  0  0  0  0  0  0  0  0
   38.0820   28.0020   36.8280 P   0  0  1  0  0  0  0  0  0  0  0  0
   37.9440   28.5460   35.2140 O   0  0  0  0  0  0  0  0  0  0  0  0
   37.0460   28.8800   35.0240 H   0  0  0  0  0  0  0  0  0  0  0  0
   36.7230   28.5230   37.6720 O   0  0  0  0  0  0  0  0  0  0  0  0
   36.5670   29.5660   39.8220 C   0  0  0  0  0  0  0  0  0  0  0  0
   36.8000   29.6730   38.4470 C   0  0  0  0  0  0  0  0  0  0  0  0
   37.0910   30.9300   37.9590 C   0  0  0  0  0  0  0  0  0  0  0  0
   37.2750   31.0370   36.9000 H   0  0  0  0  0  0  0  0  0  0  0  0
   37.1470   32.0230   38.8030 C   0  0  0  0  0  3  0  0  0  0  0  0
   36.9170   31.9110   40.1590 C   0  0  0  0  0  3  0  0  0  0  0  0
   36.6210   30.6650   40.6830 C   0  0  0  0  0  0  0  0  0  0  0  0
   36.2680   28.2870   40.3310 O   0  0  0  0  0  0  0  0  0  0  0  0
   36.5430   28.1350   41.2960 H   0  0  0  0  0  0  0  0  0  0  0  0
   36.3690   30.4100   42.0230 O   0  0  0  0  0  0  0  0  0  0  0  0
   35.4610   30.5050   42.4450 H   0  0  0  0  0  0  0  0  0  0  0  0
   38.2020   24.9970   41.6560 C   0  0  0  0  0  0  0  0  0  0  0  0
   38.5570   24.1980   42.3180 H   0  0  0  0  0  0  0  0  0  0  0  0
   38.8850   25.0200   40.7640 H   0  0  0  0  0  0  0  0  0  0  0  0
   38.2680   26.3280   42.2770 C   0  0  0  0  0  0  0  0  0  0  0  0
   39.3590   27.1180   41.9430 C   0  0  0  0  0  0  0  0  0  0  0  0
   39.5080   28.3790   42.4750 C   0  0  0  0  0  0  0  0  0  0  0  0
   38.5170   28.8020   43.3500 N   0  0  0  0  0  0  0  0  0  0  0  0
   37.4740   27.9990   43.6450 C   0  0  0  0  0  0  0  0  0  0  0  0
   37.3600   26.7900   43.1160 N   0  0  0  0  0  0  0  0  0  0  0  0
   40.3510   29.0320   42.2380 H   0  0  0  0  0  0  0  0  0  0  0  0
   36.7550   28.4210   44.3370 H   0  0  0  0  0  0  0  0  0  0  0  0
   40.5990   26.4960   40.8030 S   0  0  0  0  0  0  0  0  0  0  0  0
   41.6250   25.2430   41.6080 C   0  0  0  0  0  0  0  0  0  0  0  0
   42.2870   24.7840   40.8500 H   0  0  0  0  0  0  0  0  0  0  0  0
   40.9360   24.4450   41.9680 H   0  0  0  0  0  0  0  0  0  0  0  0
   42.3890   25.8980   42.7240 C   0  0  0  0  0  0  0  0  0  0  0  0
   43.1510   26.5970   42.3170 H   0  0  0  0  0  0  0  0  0  0  0  0
   41.6920   26.5210   43.3200 H   0  0  0  0  0  0  0  0  0  0  0  0
   43.0670   24.8800   43.4760 N   0  0  0  0  0  0  0  0  0  0  0  0
   42.4370   24.4400   44.1990 H   0  0  0  0  0  0  0  0  0  0  0  0
   43.8940   25.3220   43.9770 H   0  0  0  0  0  0  0  0  0  0  0  0
  1  2  1  0  0  0  0
  1 27  1  0  0  0  0
  1  3  1  0  0  0  0
  4  1  1  0  0  0  0
  5  9  1  0  0  0  0
  5  4  2  0  0  0  0
  6  7  1  0  0  0  0
  6  5  1  0  0  0  0
  7  8  2  0  0  0  0
  8  4  1  0  0  0  0
 10 12  1  0  0  0  0
 10  7  1  0  0  0  0
 12 11  2  1  0  0  0
 12 15  1  0  0  0  0
 13 12  1  0  0  0  0
 14 13  1  0  0  0  0
 15 17  1  0  0  0  0
 16 23  1  0  0  0  0
 16 22  1  0  0  0  0
 17 16  2  0  0  0  0
 18 17  1  0  0  0  0
 18 20  2  0  0  0  0
 19 18  1  0  0  0  0
 20 21  1  0  0  0  0
 21 22  2  0  0  0  0
 22 25  1  0  0  0  0
 23 24  1  0  0  0  0
 25 26  1  0  0  0  0
 27 30  1  0  0  0  0
 27 28  1  0  0  0  0
 29 27  1  0  0  0  0
 30 35  1  0  0  0  0
 31 30  2  0  0  0  0
 31 32  1  0  0  0  0
 32 33  2  0  0  0  0
 33 34  1  0  0  0  0
 34 37  1  0  0  0  0
 35 34  2  0  0  0  0
 36 32  1  0  0  0  0
 38 39  1  0  0  0  0
 38 31  1  0  0  0  0
 39 41  1  0  0  0  0
 39 42  1  0  0  0  0
 40 39  1  0  0  0  0
 42 44  1  0  0  0  0
 42 45  1  0  0  0  0
 43 42  1  0  0  0  0
 45 47  1  0  0  0  0
 45 46  1  0  0  0  0
M  END
>  <minimizedAffinity>
-5.41988564

$$$$

 OpenBabel03252507513D

 47 49  0  0  0  0  0  0  0  0999 V2000
   39.2510   29.5840   37.8940 C   0  0  0  0  0  0  0  0  0  0  0  0
   38.1800   29.8800   37.8070 H   0  0  0  0  0  0  0  0  0  0  0  0
   39.7510   29.8670   36.9570 H   0  0  0  0  0  0  0  0  0  0  0  0
   39.2520   28.1020   38.0410 C   0  0  0  0  0  0  0  0  0  0  0  0
   39.1240   27.2930   36.8760 C   0  0  0  0  0  0  0  0  0  0  0  0
   39.1780   25.5930   37.5450 S   0  0  0  0  0  0  0  0  0  0  0  0
   39.3670   26.2760   39.3230 C   0  0  0  0  0  0  0  0  0  0  0  0
   39.3580   27.3990   39.1290 N   0  0  0  0  0  0  0  0  0  0  0  0
   39.0210   27.6020   35.8460 H   0  0  0  0  0  0  0  0  0  0  0  0
   39.4750   25.4530   40.4360 O   0  0  0  0  0  0  0  0  0  0  0  0
   36.8420   25.2300   40.3770 O   0  0  0  0  0  0  0  0  0  0  0  0
   38.0600   25.0700   41.2780 P   0  0  1  0  0  0  0  0  0  0  0  0
   38.1630   23.4250   41.7280 O   0  0  0  0  0  0  0  0  0  0  0  0
   38.3280   23.3260   42.6860 H   0  0  0  0  0  0  0  0  0  0  0  0
   37.9420   25.9890   42.6830 O   0  0  0  0  0  0  0  0  0  0  0  0
   37.3260   28.2650   42.2620 C   0  0  0  0  0  0  0  0  0  0  0  0
   38.2930   27.3330   42.6510 C   0  0  0  0  0  0  0  0  0  0  0  0
   39.5390   27.8250   42.9780 C   0  0  0  0  0  0  0  0  0  0  0  0
   40.3030   27.1240   43.2830 H   0  0  0  0  0  0  0  0  0  0  0  0
   39.8040   29.1810   42.9200 C   0  0  0  0  0  3  0  0  0  0  0  0
   38.8460   30.0950   42.5350 C   0  0  0  0  0  3  0  0  0  0  0  0
   37.5840   29.6370   42.1990 C   0  0  0  0  0  0  0  0  0  0  0  0
   36.0500   27.7720   41.9250 O   0  0  0  0  0  0  0  0  0  0  0  0
   35.2850   28.4190   42.0890 H   0  0  0  0  0  0  0  0  0  0  0  0
   36.5300   30.4430   41.7960 O   0  0  0  0  0  0  0  0  0  0  0  0
   36.3840   30.7320   40.8440 H   0  0  0  0  0  0  0  0  0  0  0  0
   39.7910   30.3010   39.0970 C   0  0  0  0  0  0  0  0  0  0  0  0
   39.7810   29.6130   39.9510 H   0  0  0  0  0  0  0  0  0  0  0  0
   40.8670   30.5440   38.8760 H   0  0  0  0  0  0  0  0  0  0  0  0
   39.1160   31.5760   39.3780 C   0  0  0  0  0  0  0  0  0  0  0  0
   39.9020   32.5990   39.8870 C   0  0  0  0  0  0  0  0  0  0  0  0
   39.3590   33.8290   40.1830 C   0  0  0  0  0  0  0  0  0  0  0  0
   38.0000   33.9780   39.9440 N   0  0  0  0  0  0  0  0  0  0  0  0
   37.2750   32.9550   39.4480 C   0  0  0  0  0  0  0  0  0  0  0  0
   37.8280   31.7830   39.1740 N   0  0  0  0  0  0  0  0  0  0  0  0
   39.9440   34.6600   40.5860 H   0  0  0  0  0  0  0  0  0  0  0  0
   36.2240   33.1720   39.2970 H   0  0  0  0  0  0  0  0  0  0  0  0
   41.6550   32.3250   40.1690 S   0  0  0  0  0  0  0  0  0  0  0  0
   42.6100   32.7930   38.7060 C   0  0  0  0  0  0  0  0  0  0  0  0
   42.6020   31.9490   37.9900 H   0  0  0  0  0  0  0  0  0  0  0  0
   43.6640   32.9290   39.0400 H   0  0  0  0  0  0  0  0  0  0  0  0
   42.0170   34.0480   38.1300 C   0  0  0  0  0  0  0  0  0  0  0  0
   40.9070   34.0030   38.1610 H   0  0  0  0  0  0  0  0  0  0  0  0
   42.3050   34.9070   38.7680 H   0  0  0  0  0  0  0  0  0  0  0  0
   42.4260   34.1610   36.7580 N   0  0  0  0  0  0  0  0  0  0  0  0
   43.3810   34.6010   36.6680 H   0  0  0  0  0  0  0  0  0  0  0  0
   41.7250   34.7730   36.2450 H   0  0  0  0  0  0  0  0  0  0  0  0
  1  4  1  0  0  0  0
  1 27  1  0  0  0  0
  2  1  1  0  0  0  0
  3  1  1  0  0  0  0
  4  8  1  0  0  0  0
  5  6  1  0  0  0  0
  5  4  2  0  0  0  0
  6  7  1  0  0  0  0
  7 10  1  0  0  0  0
  8  7  2  0  0  0  0
  9  5  1  0  0  0  0
 10 12  1  0  0  0  0
 12 11  2  6  0  0  0
 12 13  1  0  0  0  0
 12 15  1  0  0  0  0
 13 14  1  0  0  0  0
 16 17  1  0  0  0  0
 17 15  1  0  0  0  0
 17 18  2  0  0  0  0
 18 19  1  0  0  0  0
 20 18  1  0  0  0  0
 21 20  2  0  0  0  0
 22 16  2  0  0  0  0
 22 21  1  0  0  0  0
 23 24  1  0  0  0  0
 23 16  1  0  0  0  0
 25 22  1  0  0  0  0
 26 25  1  0  0  0  0
 27 30  1  0  0  0  0
 27 28  1  0  0  0  0
 29 27  1  0  0  0  0
 30 31  1  0  0  0  0
 31 38  1  0  0  0  0
 31 32  2  0  0  0  0
 32 36  1  0  0  0  0
 33 32  1  0  0  0  0
 34 33  2  0  0  0  0
 35 30  2  0  0  0  0
 35 34  1  0  0  0  0
 37 34  1  0  0  0  0
 39 41  1  0  0  0  0
 39 38  1  0  0  0  0
 40 39  1  0  0  0  0
 42 43  1  0  0  0  0
 42 39  1  0  0  0  0
 42 44  1  0  0  0  0
 45 42  1  0  0  0  0
 46 45  1  0  0  0  0
 47 45  1  0  0  0  0
M  END
>  <minimizedAffinity>
-5.41966391

$$$$

 OpenBabel03252507513D

 47 49  0  0  0  0  0  0  0  0999 V2000
   37.8630   31.1460   37.8800 C   0  0  0  0  0  0  0  0  0  0  0  0
   38.2500   31.7870   37.0540 H   0  0  0  0  0  0  0  0  0  0  0  0
   36.8890   31.5540   38.1880 H   0  0  0  0  0  0  0  0  0  0  0  0
   38.8430   31.2820   38.9940 C   0  0  0  0  0  0  0  0  0  0  0  0
   39.9390   32.1780   38.8430 C   0  0  0  0  0  0  0  0  0  0  0  0
   40.8370   32.0030   40.4260 S   0  0  0  0  0  0  0  0  0  0  0  0
   39.5530   30.7210   41.0360 C   0  0  0  0  0  0  0  0  0  0  0  0
   38.8480   30.6730   40.1420 N   0  0  0  0  0  0  0  0  0  0  0  0
   40.1850   32.8100   38.0030 H   0  0  0  0  0  0  0  0  0  0  0  0
   39.6310   30.1150   42.2830 O   0  0  0  0  0  0  0  0  0  0  0  0
   41.0920   28.2440   41.1220 O   0  0  0  0  0  0  0  0  0  0  0  0
   40.7190   28.8350   42.4750 P   0  0  1  0  0  0  0  0  0  0  0  0
   42.1410   29.4740   43.1740 O   0  0  0  0  0  0  0  0  0  0  0  0
   42.2280   29.2110   44.1110 H   0  0  0  0  0  0  0  0  0  0  0  0
   40.0930   27.6810   43.5270 O   0  0  0  0  0  0  0  0  0  0  0  0
   39.3630   25.5880   42.6210 C   0  0  0  0  0  0  0  0  0  0  0  0
   39.0530   26.8640   43.1040 C   0  0  0  0  0  0  0  0  0  0  0  0
   37.7200   27.2170   43.1220 C   0  0  0  0  0  0  0  0  0  0  0  0
   37.4560   28.1980   43.4920 H   0  0  0  0  0  0  0  0  0  0  0  0
   36.7470   26.3400   42.6810 C   0  0  0  0  0  3  0  0  0  0  0  0
   37.0590   25.0830   42.2060 C   0  0  0  0  0  3  0  0  0  0  0  0
   38.3870   24.6950   42.1730 C   0  0  0  0  0  0  0  0  0  0  0  0
   40.7210   25.2170   42.5970 O   0  0  0  0  0  0  0  0  0  0  0  0
   40.8950   24.2210   42.6900 H   0  0  0  0  0  0  0  0  0  0  0  0
   38.8400   23.4640   41.7210 O   0  0  0  0  0  0  0  0  0  0  0  0
   39.0370   23.2650   40.7550 H   0  0  0  0  0  0  0  0  0  0  0  0
   37.7770   29.7530   37.3300 C   0  0  0  0  0  0  0  0  0  0  0  0
   38.7280   29.5090   36.8410 H   0  0  0  0  0  0  0  0  0  0  0  0
   37.6650   29.0600   38.2080 H   0  0  0  0  0  0  0  0  0  0  0  0
   36.6120   29.5300   36.4610 C   0  0  0  0  0  0  0  0  0  0  0  0
   35.5750   28.7750   36.9900 C   0  0  0  0  0  0  0  0  0  0  0  0
   34.4430   28.5120   36.2510 C   0  0  0  0  0  0  0  0  0  0  0  0
   34.4070   29.0410   34.9690 N   0  0  0  0  0  0  0  0  0  0  0  0
   35.4390   29.7690   34.4960 C   0  0  0  0  0  0  0  0  0  0  0  0
   36.5150   30.0040   35.2330 N   0  0  0  0  0  0  0  0  0  0  0  0
   33.6060   27.9230   36.6310 H   0  0  0  0  0  0  0  0  0  0  0  0
   35.3130   30.1360   33.4840 H   0  0  0  0  0  0  0  0  0  0  0  0
   35.7020   28.1270   38.6600 S   0  0  0  0  0  0  0  0  0  0  0  0
   34.8480   29.2150   39.8260 C   0  0  0  0  0  0  0  0  0  0  0  0
   33.9150   28.7210   40.1570 H   0  0  0  0  0  0  0  0  0  0  0  0
   34.5530   30.1270   39.2580 H   0  0  0  0  0  0  0  0  0  0  0  0
   35.7800   29.5170   40.9650 C   0  0  0  0  0  0  0  0  0  0  0  0
   35.4570   28.9820   41.8850 H   0  0  0  0  0  0  0  0  0  0  0  0
   36.7870   29.1220   40.7210 H   0  0  0  0  0  0  0  0  0  0  0  0
   35.7420   30.9280   41.2270 N   0  0  0  0  0  0  0  0  0  0  0  0
   36.3880   31.4640   40.5900 H   0  0  0  0  0  0  0  0  0  0  0  0
   36.0480   31.0950   42.2320 H   0  0  0  0  0  0  0  0  0  0  0  0
  1  3  1  0  0  0  0
  1  4  1  0  0  0  0
  2  1  1  0  0  0  0
  4  8  1  0  0  0  0
  5  4  2  0  0  0  0
  5  6  1  0  0  0  0
  6  7  1  0  0  0  0
  7 10  1  0  0  0  0
  8  7  2  0  0  0  0
  9  5  1  0  0  0  0
 10 12  1  0  0  0  0
 12 11  2  6  0  0  0
 12 13  1  0  0  0  0
 12 15  1  0  0  0  0
 13 14  1  0  0  0  0
 16 17  1  0  0  0  0
 17 18  2  0  0  0  0
 17 15  1  0  0  0  0
 18 19  1  0  0  0  0
 20 18  1  0  0  0  0
 21 20  2  0  0  0  0
 22 21  1  0  0  0  0
 22 16  2  0  0  0  0
 23 16  1  0  0  0  0
 23 24  1  0  0  0  0
 25 22  1  0  0  0  0
 26 25  1  0  0  0  0
 27  1  1  0  0  0  0
 27 29  1  0  0  0  0
 28 27  1  0  0  0  0
 30 31  1  0  0  0  0
 30 27  1  0  0  0  0
 31 38  1  0  0  0  0
 32 36  1  0  0  0  0
 32 31  2  0  0  0  0
 33 32  1  0  0  0  0
 34 33  2  0  0  0  0
 34 35  1  0  0  0  0
 35 30  2  0  0  0  0
 37 34  1  0  0  0  0
 38 39  1  0  0  0  0
 39 40  1  0  0  0  0
 39 42  1  0  0  0  0
 41 39  1  0  0  0  0
 42 45  1  0  0  0  0
 42 43  1  0  0  0  0
 44 42  1  0  0  0  0
 45 47  1  0  0  0  0
 46 45  1  0  0  0  0
M  END
>  <minimizedAffinity>
-5.36900473

$$$$
