
     RDKit          3D

 25 26  0  0  0  0  0  0  0  0999 V2000
   44.3845   35.7747   44.4255 C   0  0  0  0  0  0  0  0  0  0  0  0
   44.6682   35.0601   43.2589 C   0  0  0  0  0  0  0  0  0  0  0  0
   45.2924   33.8268   43.3955 C   0  0  0  0  0  0  0  0  0  0  0  0
   45.5912   33.3852   44.6456 N   0  0  0  0  0  0  0  0  0  0  0  0
   45.3073   34.0922   45.7489 C   0  0  0  0  0  0  0  0  0  0  0  0
   44.7022   35.2924   45.6535 N   0  0  0  0  0  0  0  0  0  0  0  0
   44.2532   35.7346   42.0091 C   0  0  0  0  0  0  0  0  0  0  0  0
   43.8981   36.7556   44.4784 H   0  0  0  0  0  0  0  0  0  0  0  0
   45.4806   33.3337   42.4693 H   0  0  0  0  0  0  0  0  0  0  0  0
   43.1505   35.6888   41.8631 H   0  0  0  0  0  0  0  0  0  0  0  0
   44.7755   35.2253   41.1753 H   0  0  0  0  0  0  0  0  0  0  0  0
   44.4927   36.8129   42.0936 H   0  0  0  0  0  0  0  0  0  0  0  0
   43.3641   33.0724   47.4206 O   0  0  0  0  0  0  0  0  0  0  0  0
   44.6872   33.0682   47.9013 C   0  0  0  0  0  0  0  0  0  0  0  0
   45.6484   33.5747   47.0698 C   0  0  0  0  0  0  0  0  0  0  0  0
   46.9416   33.5756   47.5282 C   0  0  0  0  0  0  0  0  0  0  0  0
   47.7565   33.9526   46.9446 H   0  0  0  0  0  0  0  0  0  0  0  0
   47.2373   33.0775   48.7878 C   0  0  0  0  0  0  0  0  0  0  0  0
   46.2464   32.5709   49.6091 C   0  0  0  0  0  0  0  0  0  0  0  0
   44.9369   32.5636   49.1599 C   0  0  0  0  0  0  0  0  0  0  0  0
   43.8527   32.0762   49.9035 O   0  0  0  0  0  0  0  0  0  0  0  0
   42.9591   32.2903   46.9390 H   0  0  0  0  0  0  0  0  0  0  0  0
   48.2226   33.0399   49.2256 H   0  0  0  0  0  0  0  0  0  0  0  0
   46.3800   32.1631   50.6020 H   0  0  0  0  0  0  0  0  0  0  0  0
   43.0883   31.5907   49.4387 H   0  0  0  0  0  0  0  0  0  0  0  0
  1  6  2  0
  2  3  2  0
  2  1  1  0
  3  4  1  0
  4  5  2  0
  6  5  1  0
  7  2  1  0
  1  8  1  0
  3  9  1  0
  7 10  1  0
  7 11  1  0
  7 12  1  0
 13 14  1  0
 14 15  2  0
 15 16  1  0
 16 17  1  0
 16 18  2  0
 18 19  1  0
 19 20  2  0
 20 21  1  0
 20 14  1  0
 13 22  1  0
 18 23  1  0
 19 24  1  0
 21 25  1  0
  5 15  1  0
M  ISO  6   8  14   9  14  10   8  11   8  12   8  17  16
M  END
>  <DihAtoms>  (1) 
3,4,14,13

>  <DihDeg>  (1) 
-179.99571611363953

$$$$
