
 OpenBabel03252504543D

 23 24  0  0  0  0  0  0  0  0999 V2000
   44.9910   33.1860   41.4760 C   0  0  0  0  0  0  0  0  0  0  0  0
   44.8060   33.1560   42.5710 H   0  0  0  0  0  0  0  0  0  0  0  0
   45.0010   32.1100   41.1680 H   0  0  0  0  0  0  0  0  0  0  0  0
   47.9620   35.3730   41.8820 C   0  0  0  0  0  0  0  0  0  0  0  0
   46.7600   34.6920   42.1660 C   0  0  0  0  0  0  0  0  0  0  0  0
   46.2380   33.8840   41.1630 C   0  0  0  0  0  0  0  0  0  0  0  0
   46.8920   33.7850   39.9790 N   0  0  0  0  0  0  0  0  0  0  0  0
   48.0470   34.4580   39.7480 C   0  0  0  0  0  0  0  0  0  0  0  0
   48.5680   35.2440   40.7040 N   0  0  0  0  0  0  0  0  0  0  0  0
   48.3480   36.0000   42.6910 H   0  0  0  0  0  0  0  0  0  0  0  0
   46.2590   34.7970   43.1380 H   0  0  0  0  0  0  0  0  0  0  0  0
   48.5780   34.3880   38.8080 H   0  0  0  0  0  0  0  0  0  0  0  0
   43.0940   34.7700   41.5240 C   0  0  0  0  0  0  0  0  0  0  0  0
   43.8830   33.9010   40.7710 C   0  0  0  0  0  0  0  0  0  0  0  0
   43.6330   33.7200   39.4270 C   0  0  0  0  0  0  0  0  0  0  0  0
   44.2880   33.0300   38.9120 H   0  0  0  0  0  0  0  0  0  0  0  0
   42.5990   34.3980   38.8080 C   0  0  0  0  0  3  0  0  0  0  0  0
   41.8090   35.2680   39.5620 C   0  0  0  0  0  3  0  0  0  0  0  0
   42.0600   35.4500   40.9150 C   0  0  0  0  0  0  0  0  0  0  0  0
   43.2790   35.0110   42.8930 O   0  0  0  0  0  0  0  0  0  0  0  0
   44.0230   34.4650   43.3160 H   0  0  0  0  0  0  0  0  0  0  0  0
   41.2040   36.3380   41.5370 O   0  0  0  0  0  0  0  0  0  0  0  0
   40.6130   36.0140   42.2950 H   0  0  0  0  0  0  0  0  0  0  0  0
  1  2  1  0  0  0  0
  3  1  1  0  0  0  0
  4  5  1  0  0  0  0
  4 10  1  0  0  0  0
  5 11  1  0  0  0  0
  6  1  1  0  0  0  0
  6  5  2  0  0  0  0
  7  6  1  0  0  0  0
  8  7  2  0  0  0  0
  8  9  1  0  0  0  0
  9  4  2  0  0  0  0
 12  8  1  0  0  0  0
 13 20  1  0  0  0  0
 14  1  1  0  0  0  0
 14 13  2  0  0  0  0
 15 14  1  0  0  0  0
 16 15  1  0  0  0  0
 17 15  2  0  0  0  0
 17 18  1  0  0  0  0
 18 19  2  0  0  0  0
 19 13  1  0  0  0  0
 19 22  1  0  0  0  0
 20 21  1  0  0  0  0
 22 23  1  0  0  0  0
M  END
>  <minimizedAffinity>
-4.44423294

>  <minimizedRMSD>
6.34287262

$$$$
