
     RDKit          3D

 39 41  0  0  0  0  0  0  0  0999 V2000
   44.3950   34.8587   41.9837 C   0  0  0  0  0  0  0  0  0  0  0  0
   44.1794   33.6558   42.3427 O   0  0  0  0  0  0  0  0  0  0  0  0
   45.3362   35.5253   42.8244 N   0  0  0  0  0  0  0  0  0  0  0  0
   45.7614   34.5997   43.8673 C   0  0  0  0  0  0  0  0  0  0  0  0
   45.2282   34.5470   45.1346 C   0  0  0  0  0  0  0  0  0  0  0  0
   45.7609   33.6026   45.9847 C   0  0  0  0  0  0  0  0  0  0  0  0
   46.7443   32.8157   45.5234 N   0  0  0  0  0  0  0  0  0  0  0  0
   47.2419   32.8958   44.2752 C   0  0  0  0  0  0  0  0  0  0  0  0
   46.7379   33.8182   43.4098 N   0  0  0  0  0  0  0  0  0  0  0  0
   44.1912   35.4613   45.4411 N   0  0  0  0  0  0  0  0  0  0  0  0
   43.8065   35.5116   40.8961 O   0  0  0  0  0  0  0  0  0  0  0  0
   43.6700   33.6655   38.5948 Cl  0  0  0  0  0  0  0  0  0  0  0  0
   42.3288   34.3228   39.4930 C   0  0  0  0  0  0  0  0  0  0  0  0
   42.4828   35.1954   40.5754 C   0  0  0  0  0  0  0  0  0  0  0  0
   41.3805   35.6679   41.2283 C   0  0  0  0  0  0  0  0  0  0  0  0
   40.0892   35.3443   40.8963 C   0  0  0  0  0  0  0  0  0  0  0  0
   39.9050   34.4773   39.8225 C   0  0  0  0  0  0  0  0  0  0  0  0
   38.2950   33.9858   39.2976 Cl  0  0  0  0  0  0  0  0  0  0  0  0
   41.0349   34.0042   39.1674 C   0  0  0  0  0  0  0  0  0  0  0  0
   45.6148   36.4955   42.6553 H   0  0  0  0  0  0  0  0  0  0  0  0
   45.3439   33.5589   46.9808 H   0  0  0  0  0  0  0  0  0  0  0  0
   48.0341   32.2100   44.0141 H   0  0  0  0  0  0  0  0  0  0  0  0
   44.3325   35.9599   46.3416 H   0  0  0  0  0  0  0  0  0  0  0  0
   43.4209   35.5255   44.7387 H   0  0  0  0  0  0  0  0  0  0  0  0
   41.5807   36.3428   42.0609 H   0  0  0  0  0  0  0  0  0  0  0  0
   39.2312   35.7252   41.4209 H   0  0  0  0  0  0  0  0  0  0  0  0
   42.0503   31.3420   39.0157 O   0  0  0  0  0  0  0  0  0  0  0  0
   41.3224   31.7964   37.9252 C   0  0  0  0  0  0  0  0  0  0  0  0
   40.8471   33.0904   38.0355 C   0  0  0  0  0  0  0  0  0  0  0  0
   40.0971   33.6801   37.0120 C   0  0  0  0  0  0  0  0  0  0  0  0
   39.6958   34.6746   37.0246 H   0  0  0  0  0  0  0  0  0  0  0  0
   39.8303   32.9369   35.8620 C   0  0  0  0  0  0  0  0  0  0  0  0
   40.2993   31.6603   35.7533 C   0  0  0  0  0  0  0  0  0  0  0  0
   41.0363   31.0965   36.7718 C   0  0  0  0  0  0  0  0  0  0  0  0
   41.5366   29.7982   36.7083 O   0  0  0  0  0  0  0  0  0  0  0  0
   42.6472   30.5288   39.0066 H   0  0  0  0  0  0  0  0  0  0  0  0
   39.2641   33.3238   35.0414 H   0  0  0  0  0  0  0  0  0  0  0  0
   40.0946   31.0784   34.8612 H   0  0  0  0  0  0  0  0  0  0  0  0
   40.8708   29.0407   36.5370 H   0  0  0  0  0  0  0  0  0  0  0  0
  1  2  2  0
  1  3  1  0
  3  4  1  0
  4  5  2  0
  5 10  1  0
  5  6  1  0
  7  6  2  0
  8  7  1  0
  9  4  1  0
  9  8  2  0
 11  1  1  0
 12 13  1  0
 13 14  2  0
 14 11  1  0
 14 15  1  0
 16 15  2  0
 17 16  1  0
 18 17  1  0
 19 13  1  0
 19 17  2  0
  3 20  1  0
  6 21  1  0
  8 22  1  0
 10 23  1  0
 10 24  1  0
 15 25  1  0
 16 26  1  0
 27 28  1  0
 28 29  2  0
 29 30  1  0
 30 31  1  0
 30 32  2  0
 32 33  1  0
 33 34  2  0
 34 35  1  0
 34 28  1  0
 27 36  1  0
 32 37  1  0
 33 38  1  0
 35 39  1  0
 19 29  1  0
M  ISO  5  21  14  22  14  25  14  26  14  31  16
M  END
>  <DihAtoms>  (1) 
12,18,28,27

>  <DihDeg>  (1) 
-89.99927587180935

$$$$
