
 OpenBabel03242518183D

 25 26  0  0  0  0  0  0  0  0999 V2000
   35.7820   28.5460   40.4410 C   0  0  0  0  0  0  0  0  0  0  0  0
   35.4170   27.7630   39.7150 H   0  0  0  0  0  0  0  0  0  0  0  0
   34.9270   28.9690   41.0210 H   0  0  0  0  0  0  0  0  0  0  0  0
   38.3260   26.2270   41.6630 C   0  0  0  0  0  0  0  0  0  0  0  0
   38.6220   26.6840   42.9540 C   0  0  0  0  0  0  0  0  0  0  0  0
   37.9320   27.8040   43.3990 C   0  0  0  0  0  0  0  0  0  0  0  0
   37.0330   28.3790   42.5820 N   0  0  0  0  0  0  0  0  0  0  0  0
   36.7730   27.9150   41.3470 C   0  0  0  0  0  0  0  0  0  0  0  0
   37.4260   26.8210   40.8720 N   0  0  0  0  0  0  0  0  0  0  0  0
   38.8250   25.3530   41.2410 H   0  0  0  0  0  0  0  0  0  0  0  0
   38.1690   28.1470   44.3970 H   0  0  0  0  0  0  0  0  0  0  0  0
   39.5930   25.9590   43.6780 N   0  0  0  0  0  0  0  0  0  0  0  0
   39.4610   24.9580   43.9560 H   0  0  0  0  0  0  0  0  0  0  0  0
   40.5150   26.3690   43.9900 H   0  0  0  0  0  0  0  0  0  0  0  0
   36.3340   30.8550   40.2100 C   0  0  0  0  0  0  0  0  0  0  0  0
   36.3890   29.5990   39.6000 C   0  0  0  0  0  0  0  0  0  0  0  0
   36.9630   29.4640   38.3590 C   0  0  0  0  0  0  0  0  0  0  0  0
   36.9630   28.4670   37.9630 H   0  0  0  0  0  0  0  0  0  0  0  0
   37.4730   30.5920   37.7520 C   0  0  0  0  0  3  0  0  0  0  0  0
   37.4380   31.8470   38.3230 C   0  0  0  0  0  3  0  0  0  0  0  0
   36.8570   31.9760   39.5750 C   0  0  0  0  0  0  0  0  0  0  0  0
   35.7750   31.1040   41.4670 O   0  0  0  0  0  0  0  0  0  0  0  0
   34.7620   31.1480   41.4990 H   0  0  0  0  0  0  0  0  0  0  0  0
   36.8310   33.2480   40.1310 O   0  0  0  0  0  0  0  0  0  0  0  0
   37.7190   33.5830   40.5290 H   0  0  0  0  0  0  0  0  0  0  0  0
  1  3  1  0  0  0  0
  1  8  1  0  0  0  0
  2  1  1  0  0  0  0
  4  5  1  0  0  0  0
  5  6  2  0  0  0  0
  5 12  1  0  0  0  0
  6 11  1  0  0  0  0
  7  6  1  0  0  0  0
  8  7  2  0  0  0  0
  9  8  1  0  0  0  0
  9  4  2  0  0  0  0
 10  4  1  0  0  0  0
 12 13  1  0  0  0  0
 12 14  1  0  0  0  0
 15 22  1  0  0  0  0
 16 15  1  0  0  0  0
 16  1  1  0  0  0  0
 17 16  2  0  0  0  0
 18 17  1  0  0  0  0
 19 20  2  0  0  0  0
 19 17  1  0  0  0  0
 20 21  1  0  0  0  0
 21 24  1  0  0  0  0
 21 15  2  0  0  0  0
 22 23  1  0  0  0  0
 24 25  1  0  0  0  0
M  END
>  <minimizedAffinity>
-5.60995913

$$$$

 OpenBabel03242518183D

 25 26  0  0  0  0  0  0  0  0999 V2000
   37.1470   26.7350   42.8470 C   0  0  0  0  0  0  0  0  0  0  0  0
   36.5010   25.8110   42.8000 H   0  0  0  0  0  0  0  0  0  0  0  0
   36.9050   27.3340   43.7570 H   0  0  0  0  0  0  0  0  0  0  0  0
   40.0790   24.5590   42.7430 C   0  0  0  0  0  0  0  0  0  0  0  0
   41.1660   25.4330   42.8700 C   0  0  0  0  0  0  0  0  0  0  0  0
   40.8750   26.7860   42.9920 C   0  0  0  0  0  0  0  0  0  0  0  0
   39.5890   27.1750   42.9830 N   0  0  0  0  0  0  0  0  0  0  0  0
   38.5680   26.3100   42.8580 C   0  0  0  0  0  0  0  0  0  0  0  0
   38.8090   24.9760   42.7350 N   0  0  0  0  0  0  0  0  0  0  0  0
   40.2240   23.4820   42.6420 H   0  0  0  0  0  0  0  0  0  0  0  0
   41.7220   27.4500   43.0910 H   0  0  0  0  0  0  0  0  0  0  0  0
   42.4530   24.8530   42.8640 N   0  0  0  0  0  0  0  0  0  0  0  0
   42.7770   24.1860   43.6020 H   0  0  0  0  0  0  0  0  0  0  0  0
   43.1770   25.0480   42.1190 H   0  0  0  0  0  0  0  0  0  0  0  0
   36.6170   28.8620   41.9070 C   0  0  0  0  0  0  0  0  0  0  0  0
   36.8070   27.5060   41.6320 C   0  0  0  0  0  0  0  0  0  0  0  0
   36.6700   27.0410   40.3470 C   0  0  0  0  0  0  0  0  0  0  0  0
   36.8320   25.9880   40.2230 H   0  0  0  0  0  0  0  0  0  0  0  0
   36.3460   27.9460   39.3580 C   0  0  0  0  0  3  0  0  0  0  0  0
   36.1520   29.2920   39.5910 C   0  0  0  0  0  3  0  0  0  0  0  0
   36.2910   29.7530   40.8910 C   0  0  0  0  0  0  0  0  0  0  0  0
   36.7310   29.4400   43.1750 O   0  0  0  0  0  0  0  0  0  0  0  0
   35.9430   29.3000   43.7970 H   0  0  0  0  0  0  0  0  0  0  0  0
   36.0910   31.1110   41.1030 O   0  0  0  0  0  0  0  0  0  0  0  0
   36.8630   31.7290   40.8200 H   0  0  0  0  0  0  0  0  0  0  0  0
  1  8  1  0  0  0  0
  1  3  1  0  0  0  0
  2  1  1  0  0  0  0
  4  5  1  0  0  0  0
  5  6  2  0  0  0  0
  6 11  1  0  0  0  0
  7  6  1  0  0  0  0
  8  7  2  0  0  0  0
  9  4  2  0  0  0  0
  9  8  1  0  0  0  0
 10  4  1  0  0  0  0
 12  5  1  0  0  0  0
 12 13  1  0  0  0  0
 14 12  1  0  0  0  0
 15 22  1  0  0  0  0
 16 15  1  0  0  0  0
 16  1  1  0  0  0  0
 17 16  2  0  0  0  0
 18 17  1  0  0  0  0
 19 20  2  0  0  0  0
 19 17  1  0  0  0  0
 20 21  1  0  0  0  0
 21 24  1  0  0  0  0
 21 15  2  0  0  0  0
 22 23  1  0  0  0  0
 25 24  1  0  0  0  0
M  END
>  <minimizedAffinity>
-5.34259081

$$$$

 OpenBabel03242518183D

 25 26  0  0  0  0  0  0  0  0999 V2000
   34.9250   29.1010   39.1010 C   0  0  0  0  0  0  0  0  0  0  0  0
   34.8260   30.1460   39.5130 H   0  0  0  0  0  0  0  0  0  0  0  0
   33.9310   28.5950   39.0770 H   0  0  0  0  0  0  0  0  0  0  0  0
   35.4410   28.4530   35.5430 C   0  0  0  0  0  0  0  0  0  0  0  0
   36.5090   29.2880   35.1880 C   0  0  0  0  0  0  0  0  0  0  0  0
   37.0490   30.0800   36.1930 C   0  0  0  0  0  0  0  0  0  0  0  0
   36.5290   30.0030   37.4300 N   0  0  0  0  0  0  0  0  0  0  0  0
   35.5030   29.1900   37.7380 C   0  0  0  0  0  0  0  0  0  0  0  0
   34.9440   28.3980   36.7830 N   0  0  0  0  0  0  0  0  0  0  0  0
   34.9620   27.8000   34.8110 H   0  0  0  0  0  0  0  0  0  0  0  0
   37.8720   30.7200   35.9070 H   0  0  0  0  0  0  0  0  0  0  0  0
   36.9320   29.2420   33.8430 N   0  0  0  0  0  0  0  0  0  0  0  0
   37.3330   28.3790   33.4040 H   0  0  0  0  0  0  0  0  0  0  0  0
   36.8760   30.0660   33.1840 H   0  0  0  0  0  0  0  0  0  0  0  0
   36.1030   29.1690   41.1750 C   0  0  0  0  0  0  0  0  0  0  0  0
   35.8250   28.3990   40.0420 C   0  0  0  0  0  0  0  0  0  0  0  0
   36.3730   27.1470   39.9110 C   0  0  0  0  0  0  0  0  0  0  0  0
   36.1100   26.6250   39.0120 H   0  0  0  0  0  0  0  0  0  0  0  0
   37.1910   26.6860   40.9210 C   0  0  0  0  0  3  0  0  0  0  0  0
   37.4880   27.4160   42.0540 C   0  0  0  0  0  3  0  0  0  0  0  0
   36.9320   28.6790   42.1780 C   0  0  0  0  0  0  0  0  0  0  0  0
   35.5990   30.4510   41.4080 O   0  0  0  0  0  0  0  0  0  0  0  0
   36.0530   31.2030   40.9010 H   0  0  0  0  0  0  0  0  0  0  0  0
   37.2430   29.3960   43.3250 O   0  0  0  0  0  0  0  0  0  0  0  0
   36.7470   29.1130   44.1810 H   0  0  0  0  0  0  0  0  0  0  0  0
  1  2  1  0  0  0  0
  1 16  1  0  0  0  0
  3  1  1  0  0  0  0
  4  9  1  0  0  0  0
  5  4  2  0  0  0  0
  5  6  1  0  0  0  0
  6  7  2  0  0  0  0
  7  8  1  0  0  0  0
  8  1  1  0  0  0  0
  9  8  2  0  0  0  0
 10  4  1  0  0  0  0
 11  6  1  0  0  0  0
 12  5  1  0  0  0  0
 13 12  1  0  0  0  0
 14 12  1  0  0  0  0
 15 22  1  0  0  0  0
 15 21  1  0  0  0  0
 16 15  2  0  0  0  0
 17 16  1  0  0  0  0
 17 19  2  0  0  0  0
 18 17  1  0  0  0  0
 19 20  1  0  0  0  0
 20 21  2  0  0  0  0
 21 24  1  0  0  0  0
 23 22  1  0  0  0  0
 24 25  1  0  0  0  0
M  END
>  <minimizedAffinity>
-5.20291996

$$$$

 OpenBabel03242518183D

 25 26  0  0  0  0  0  0  0  0999 V2000
   39.2390   28.1390   42.8080 C   0  0  0  0  0  0  0  0  0  0  0  0
   38.5880   28.3260   43.7100 H   0  0  0  0  0  0  0  0  0  0  0  0
   40.3130   28.3140   43.0580 H   0  0  0  0  0  0  0  0  0  0  0  0
   37.5650   24.9490   42.2000 C   0  0  0  0  0  0  0  0  0  0  0  0
   38.5350   24.1630   41.5660 C   0  0  0  0  0  0  0  0  0  0  0  0
   39.7760   24.7470   41.3490 C   0  0  0  0  0  0  0  0  0  0  0  0
   39.9760   26.0120   41.7540 N   0  0  0  0  0  0  0  0  0  0  0  0
   39.0230   26.7410   42.3600 C   0  0  0  0  0  0  0  0  0  0  0  0
   37.7930   26.2080   42.5900 N   0  0  0  0  0  0  0  0  0  0  0  0
   36.5650   24.5640   42.4050 H   0  0  0  0  0  0  0  0  0  0  0  0
   40.5170   24.1290   40.8600 H   0  0  0  0  0  0  0  0  0  0  0  0
   38.1560   22.8510   41.2090 N   0  0  0  0  0  0  0  0  0  0  0  0
   37.8890   22.1260   41.9170 H   0  0  0  0  0  0  0  0  0  0  0  0
   38.1130   22.5060   40.2120 H   0  0  0  0  0  0  0  0  0  0  0  0
   37.5060   29.6010   42.0660 C   0  0  0  0  0  0  0  0  0  0  0  0
   38.7910   29.1220   41.7980 C   0  0  0  0  0  0  0  0  0  0  0  0
   39.4770   29.5750   40.6980 C   0  0  0  0  0  0  0  0  0  0  0  0
   40.4550   29.1560   40.5650 H   0  0  0  0  0  0  0  0  0  0  0  0
   38.8610   30.5030   39.8840 C   0  0  0  0  0  3  0  0  0  0  0  0
   37.5960   31.0000   40.1160 C   0  0  0  0  0  3  0  0  0  0  0  0
   36.9100   30.5370   41.2280 C   0  0  0  0  0  0  0  0  0  0  0  0
   36.7220   29.2090   43.1540 O   0  0  0  0  0  0  0  0  0  0  0  0
   36.2670   28.3070   43.0690 H   0  0  0  0  0  0  0  0  0  0  0  0
   35.6370   31.0500   41.4440 O   0  0  0  0  0  0  0  0  0  0  0  0
   35.5960   32.0000   41.8350 H   0  0  0  0  0  0  0  0  0  0  0  0
  1  3  1  0  0  0  0
  1  2  1  0  0  0  0
  4 10  1  0  0  0  0
  4  9  1  0  0  0  0
  5  4  2  0  0  0  0
  6  5  1  0  0  0  0
  6  7  2  0  0  0  0
  7  8  1  0  0  0  0
  8  9  2  0  0  0  0
  8  1  1  0  0  0  0
 11  6  1  0  0  0  0
 12  5  1  0  0  0  0
 12 13  1  0  0  0  0
 14 12  1  0  0  0  0
 15 22  1  0  0  0  0
 16 15  1  0  0  0  0
 16  1  1  0  0  0  0
 17 16  2  0  0  0  0
 18 17  1  0  0  0  0
 19 20  2  0  0  0  0
 19 17  1  0  0  0  0
 20 21  1  0  0  0  0
 21 24  1  0  0  0  0
 21 15  2  0  0  0  0
 23 22  1  0  0  0  0
 24 25  1  0  0  0  0
M  END
>  <minimizedAffinity>
-5.19737148

$$$$

 OpenBabel03242518183D

 25 26  0  0  0  0  0  0  0  0999 V2000
   39.5450   31.0100   42.3560 C   0  0  0  0  0  0  0  0  0  0  0  0
   40.5540   31.2160   42.8150 H   0  0  0  0  0  0  0  0  0  0  0  0
   38.7600   31.6410   42.8370 H   0  0  0  0  0  0  0  0  0  0  0  0
   38.6060   32.1960   39.0300 C   0  0  0  0  0  0  0  0  0  0  0  0
   39.6950   31.8510   38.2180 C   0  0  0  0  0  0  0  0  0  0  0  0
   40.7590   31.2050   38.8330 C   0  0  0  0  0  0  0  0  0  0  0  0
   40.6880   30.9470   40.1500 N   0  0  0  0  0  0  0  0  0  0  0  0
   39.6280   31.2910   40.9020 C   0  0  0  0  0  0  0  0  0  0  0  0
   38.5640   31.9270   40.3400 N   0  0  0  0  0  0  0  0  0  0  0  0
   37.7320   32.7060   38.6230 H   0  0  0  0  0  0  0  0  0  0  0  0
   41.5930   30.9440   38.1960 H   0  0  0  0  0  0  0  0  0  0  0  0
   39.6030   32.1950   36.8520 N   0  0  0  0  0  0  0  0  0  0  0  0
   38.8750   31.7940   36.2160 H   0  0  0  0  0  0  0  0  0  0  0  0
   40.2550   32.8770   36.3770 H   0  0  0  0  0  0  0  0  0  0  0  0
   37.9110   29.3020   42.6870 C   0  0  0  0  0  0  0  0  0  0  0  0
   39.2800   29.5810   42.6310 C   0  0  0  0  0  0  0  0  0  0  0  0
   40.1930   28.5740   42.8230 C   0  0  0  0  0  0  0  0  0  0  0  0
   41.2220   28.8740   42.7650 H   0  0  0  0  0  0  0  0  0  0  0  0
   39.7190   27.3020   43.0680 C   0  0  0  0  0  3  0  0  0  0  0  0
   38.3760   26.9890   43.1290 C   0  0  0  0  0  3  0  0  0  0  0  0
   37.4600   28.0110   42.9340 C   0  0  0  0  0  0  0  0  0  0  0  0
   36.8990   30.2490   42.5060 O   0  0  0  0  0  0  0  0  0  0  0  0
   36.7130   30.8540   43.2980 H   0  0  0  0  0  0  0  0  0  0  0  0
   36.1150   27.6740   43.0000 O   0  0  0  0  0  0  0  0  0  0  0  0
   35.7300   27.1950   42.1740 H   0  0  0  0  0  0  0  0  0  0  0  0
  1 16  1  0  0  0  0
  1  2  1  0  0  0  0
  1  3  1  0  0  0  0
  4  9  1  0  0  0  0
  5  6  1  0  0  0  0
  5  4  2  0  0  0  0
  6  7  2  0  0  0  0
  7  8  1  0  0  0  0
  8  1  1  0  0  0  0
  9  8  2  0  0  0  0
 10  4  1  0  0  0  0
 11  6  1  0  0  0  0
 12  5  1  0  0  0  0
 13 12  1  0  0  0  0
 14 12  1  0  0  0  0
 15 21  1  0  0  0  0
 16 15  2  0  0  0  0
 16 17  1  0  0  0  0
 17 19  2  0  0  0  0
 18 17  1  0  0  0  0
 19 20  1  0  0  0  0
 21 24  1  0  0  0  0
 21 20  2  0  0  0  0
 22 15  1  0  0  0  0
 22 23  1  0  0  0  0
 25 24  1  0  0  0  0
M  END
>  <minimizedAffinity>
-5.17891407

$$$$

 OpenBabel03242518183D

 25 26  0  0  0  0  0  0  0  0999 V2000
   39.4360   33.5050   40.0930 C   0  0  0  0  0  0  0  0  0  0  0  0
   39.7420   34.1700   40.9520 H   0  0  0  0  0  0  0  0  0  0  0  0
   38.6150   33.9810   39.5040 H   0  0  0  0  0  0  0  0  0  0  0  0
   41.4720   32.3600   37.2850 C   0  0  0  0  0  0  0  0  0  0  0  0
   42.7700   32.7780   37.6030 C   0  0  0  0  0  0  0  0  0  0  0  0
   42.9360   33.4630   38.8000 C   0  0  0  0  0  0  0  0  0  0  0  0
   41.8600   33.6810   39.5760 N   0  0  0  0  0  0  0  0  0  0  0  0
   40.6260   33.2660   39.2410 C   0  0  0  0  0  0  0  0  0  0  0  0
   40.4200   32.5930   38.0770 N   0  0  0  0  0  0  0  0  0  0  0  0
   41.2590   31.8170   36.3630 H   0  0  0  0  0  0  0  0  0  0  0  0
   43.9420   33.7800   39.0340 H   0  0  0  0  0  0  0  0  0  0  0  0
   43.7850   32.4620   36.6750 N   0  0  0  0  0  0  0  0  0  0  0  0
   44.0540   31.4770   36.4430 H   0  0  0  0  0  0  0  0  0  0  0  0
   44.3430   33.1890   36.1490 H   0  0  0  0  0  0  0  0  0  0  0  0
   37.5550   32.1450   40.6460 C   0  0  0  0  0  0  0  0  0  0  0  0
   38.9450   32.2610   40.7250 C   0  0  0  0  0  0  0  0  0  0  0  0
   39.6820   31.2770   41.3380 C   0  0  0  0  0  0  0  0  0  0  0  0
   40.7410   31.4450   41.3560 H   0  0  0  0  0  0  0  0  0  0  0  0
   39.0110   30.1930   41.8620 C   0  0  0  0  0  3  0  0  0  0  0  0
   37.6400   30.0430   41.8030 C   0  0  0  0  0  3  0  0  0  0  0  0
   36.9040   31.0400   41.1820 C   0  0  0  0  0  0  0  0  0  0  0  0
   36.7120   33.0840   40.0450 O   0  0  0  0  0  0  0  0  0  0  0  0
   36.5180   33.9170   40.5910 H   0  0  0  0  0  0  0  0  0  0  0  0
   35.5270   30.8700   41.1330 O   0  0  0  0  0  0  0  0  0  0  0  0
   35.1810   30.2020   40.4320 H   0  0  0  0  0  0  0  0  0  0  0  0
  1 16  1  0  0  0  0
  1  2  1  0  0  0  0
  3  1  1  0  0  0  0
  4  5  2  0  0  0  0
  4  9  1  0  0  0  0
  5  6  1  0  0  0  0
  6 11  1  0  0  0  0
  6  7  2  0  0  0  0
  8  7  1  0  0  0  0
  8  1  1  0  0  0  0
  9  8  2  0  0  0  0
 10  4  1  0  0  0  0
 12  5  1  0  0  0  0
 13 12  1  0  0  0  0
 14 12  1  0  0  0  0
 15 16  2  0  0  0  0
 15 21  1  0  0  0  0
 16 17  1  0  0  0  0
 17 18  1  0  0  0  0
 17 19  2  0  0  0  0
 20 19  1  0  0  0  0
 21 20  2  0  0  0  0
 22 23  1  0  0  0  0
 22 15  1  0  0  0  0
 24 21  1  0  0  0  0
 25 24  1  0  0  0  0
M  END
>  <minimizedAffinity>
-5.12583065

$$$$

 OpenBabel03242518183D

 25 26  0  0  0  0  0  0  0  0999 V2000
   37.5440   28.7060   43.4580 C   0  0  0  0  0  0  0  0  0  0  0  0
   36.4320   28.8960   43.4510 H   0  0  0  0  0  0  0  0  0  0  0  0
   37.9520   28.8160   44.4920 H   0  0  0  0  0  0  0  0  0  0  0  0
   39.1640   25.4760   42.9210 C   0  0  0  0  0  0  0  0  0  0  0  0
   38.3180   24.8070   42.0280 C   0  0  0  0  0  0  0  0  0  0  0  0
   37.1790   25.4840   41.6120 C   0  0  0  0  0  0  0  0  0  0  0  0
   36.9550   26.7240   42.0800 N   0  0  0  0  0  0  0  0  0  0  0  0
   37.7870   27.3390   42.9380 C   0  0  0  0  0  0  0  0  0  0  0  0
   38.9140   26.7110   43.3710 N   0  0  0  0  0  0  0  0  0  0  0  0
   40.0780   25.0130   43.2950 H   0  0  0  0  0  0  0  0  0  0  0  0
   36.5350   24.9580   40.9220 H   0  0  0  0  0  0  0  0  0  0  0  0
   38.7070   23.5090   41.6350 N   0  0  0  0  0  0  0  0  0  0  0  0
   39.5860   23.3190   41.0990 H   0  0  0  0  0  0  0  0  0  0  0  0
   38.1460   22.6400   41.8520 H   0  0  0  0  0  0  0  0  0  0  0  0
   37.1670   30.2820   41.7070 C   0  0  0  0  0  0  0  0  0  0  0  0
   38.1190   29.7460   42.5780 C   0  0  0  0  0  0  0  0  0  0  0  0
   39.4140   30.2020   42.5430 C   0  0  0  0  0  0  0  0  0  0  0  0
   40.0800   29.7380   43.2430 H   0  0  0  0  0  0  0  0  0  0  0  0
   39.7320   31.1890   41.6330 C   0  0  0  0  0  3  0  0  0  0  0  0
   38.8200   31.7420   40.7590 C   0  0  0  0  0  3  0  0  0  0  0  0
   37.5150   31.2760   40.8000 C   0  0  0  0  0  0  0  0  0  0  0  0
   35.8250   29.8920   41.6590 O   0  0  0  0  0  0  0  0  0  0  0  0
   35.6350   29.0190   41.1800 H   0  0  0  0  0  0  0  0  0  0  0  0
   36.6130   31.8460   39.9120 O   0  0  0  0  0  0  0  0  0  0  0  0
   36.2680   32.7830   40.1600 H   0  0  0  0  0  0  0  0  0  0  0  0
  1  3  1  0  0  0  0
  2  1  1  0  0  0  0
  4 10  1  0  0  0  0
  4  9  1  0  0  0  0
  5  4  2  0  0  0  0
  6  5  1  0  0  0  0
  6  7  2  0  0  0  0
  7  8  1  0  0  0  0
  8  9  2  0  0  0  0
  8  1  1  0  0  0  0
 11  6  1  0  0  0  0
 12 14  1  0  0  0  0
 12  5  1  0  0  0  0
 13 12  1  0  0  0  0
 15 16  1  0  0  0  0
 16  1  1  0  0  0  0
 17 16  2  0  0  0  0
 17 18  1  0  0  0  0
 19 17  1  0  0  0  0
 20 21  1  0  0  0  0
 20 19  2  0  0  0  0
 21 15  2  0  0  0  0
 22 15  1  0  0  0  0
 23 22  1  0  0  0  0
 24 25  1  0  0  0  0
 24 21  1  0  0  0  0
M  END
>  <minimizedAffinity>
-5.0406065

$$$$

 OpenBabel03242518183D

 25 26  0  0  0  0  0  0  0  0999 V2000
   35.7300   29.4110   40.5030 C   0  0  0  0  0  0  0  0  0  0  0  0
   35.1040   30.0990   41.1410 H   0  0  0  0  0  0  0  0  0  0  0  0
   35.0910   28.6270   40.0300 H   0  0  0  0  0  0  0  0  0  0  0  0
   37.3190   30.3150   37.3400 C   0  0  0  0  0  0  0  0  0  0  0  0
   37.6780   31.6590   37.5030 C   0  0  0  0  0  0  0  0  0  0  0  0
   37.3650   32.2520   38.7190 C   0  0  0  0  0  0  0  0  0  0  0  0
   36.7460   31.5160   39.6580 N   0  0  0  0  0  0  0  0  0  0  0  0
   36.4140   30.2270   39.4700 C   0  0  0  0  0  0  0  0  0  0  0  0
   36.7020   29.6080   38.2930 N   0  0  0  0  0  0  0  0  0  0  0  0
   37.5300   29.7770   36.4140 H   0  0  0  0  0  0  0  0  0  0  0  0
   37.6480   33.2890   38.8330 H   0  0  0  0  0  0  0  0  0  0  0  0
   38.3260   32.2800   36.4130 N   0  0  0  0  0  0  0  0  0  0  0  0
   39.2610   31.9710   36.0590 H   0  0  0  0  0  0  0  0  0  0  0  0
   37.9180   33.0950   35.8790 H   0  0  0  0  0  0  0  0  0  0  0  0
   36.9670   27.4580   41.0920 C   0  0  0  0  0  0  0  0  0  0  0  0
   36.6880   28.7820   41.4390 C   0  0  0  0  0  0  0  0  0  0  0  0
   37.2870   29.3440   42.5400 C   0  0  0  0  0  0  0  0  0  0  0  0
   37.0170   30.3640   42.7350 H   0  0  0  0  0  0  0  0  0  0  0  0
   38.1560   28.5670   43.2750 C   0  0  0  0  0  3  0  0  0  0  0  0
   38.4570   27.2570   42.9640 C   0  0  0  0  0  3  0  0  0  0  0  0
   37.8480   26.6970   41.8520 C   0  0  0  0  0  0  0  0  0  0  0  0
   36.4150   26.7900   39.9960 O   0  0  0  0  0  0  0  0  0  0  0  0
   35.4630   26.4610   40.1120 H   0  0  0  0  0  0  0  0  0  0  0  0
   38.1640   25.3770   41.5570 O   0  0  0  0  0  0  0  0  0  0  0  0
   39.0790   25.2230   41.1130 H   0  0  0  0  0  0  0  0  0  0  0  0
  1  2  1  0  0  0  0
  1 16  1  0  0  0  0
  3  1  1  0  0  0  0
  4  5  2  0  0  0  0
  4  9  1  0  0  0  0
  5  6  1  0  0  0  0
  6 11  1  0  0  0  0
  6  7  2  0  0  0  0
  8  7  1  0  0  0  0
  8  1  1  0  0  0  0
  9  8  2  0  0  0  0
 10  4  1  0  0  0  0
 12  5  1  0  0  0  0
 13 12  1  0  0  0  0
 14 12  1  0  0  0  0
 15 16  2  0  0  0  0
 15 21  1  0  0  0  0
 16 17  1  0  0  0  0
 17 18  1  0  0  0  0
 17 19  2  0  0  0  0
 20 19  1  0  0  0  0
 21 20  2  0  0  0  0
 22 23  1  0  0  0  0
 22 15  1  0  0  0  0
 24 21  1  0  0  0  0
 25 24  1  0  0  0  0
M  END
>  <minimizedAffinity>
-4.95904398

$$$$

 OpenBabel03242518183D

 25 26  0  0  0  0  0  0  0  0999 V2000
   37.4700   32.8610   40.1680 C   0  0  0  0  0  0  0  0  0  0  0  0
   36.9350   32.7680   41.1570 H   0  0  0  0  0  0  0  0  0  0  0  0
   37.1620   33.7980   39.6440 H   0  0  0  0  0  0  0  0  0  0  0  0
   40.9630   33.9310   40.1380 C   0  0  0  0  0  0  0  0  0  0  0  0
   41.6380   32.9350   40.8550 C   0  0  0  0  0  0  0  0  0  0  0  0
   40.8720   31.8890   41.3520 C   0  0  0  0  0  0  0  0  0  0  0  0
   39.5490   31.8860   41.1200 N   0  0  0  0  0  0  0  0  0  0  0  0
   38.9310   32.8580   40.4270 C   0  0  0  0  0  0  0  0  0  0  0  0
   39.6430   33.9030   39.9240 N   0  0  0  0  0  0  0  0  0  0  0  0
   41.4930   34.7870   39.7160 H   0  0  0  0  0  0  0  0  0  0  0  0
   41.4050   31.1260   41.9040 H   0  0  0  0  0  0  0  0  0  0  0  0
   43.0330   33.0930   41.0030 N   0  0  0  0  0  0  0  0  0  0  0  0
   43.6920   33.0920   40.1900 H   0  0  0  0  0  0  0  0  0  0  0  0
   43.5100   33.2240   41.9370 H   0  0  0  0  0  0  0  0  0  0  0  0
   36.1720   30.8600   40.1060 C   0  0  0  0  0  0  0  0  0  0  0  0
   37.0420   31.6820   39.3850 C   0  0  0  0  0  0  0  0  0  0  0  0
   37.3970   31.3460   38.1010 C   0  0  0  0  0  0  0  0  0  0  0  0
   38.0690   32.0300   37.6200 H   0  0  0  0  0  0  0  0  0  0  0  0
   36.8730   30.1910   37.5620 C   0  0  0  0  0  3  0  0  0  0  0  0
   36.0110   29.3550   38.2420 C   0  0  0  0  0  3  0  0  0  0  0  0
   35.6570   29.7000   39.5370 C   0  0  0  0  0  0  0  0  0  0  0  0
   35.7460   31.1080   41.4140 O   0  0  0  0  0  0  0  0  0  0  0  0
   36.4120   30.8850   42.1450 H   0  0  0  0  0  0  0  0  0  0  0  0
   34.7890   28.8460   40.2040 O   0  0  0  0  0  0  0  0  0  0  0  0
   33.7990   28.9120   39.9350 H   0  0  0  0  0  0  0  0  0  0  0  0
  1  8  1  0  0  0  0
  1  2  1  0  0  0  0
  3  1  1  0  0  0  0
  4  5  1  0  0  0  0
  5 12  1  0  0  0  0
  5  6  2  0  0  0  0
  6 11  1  0  0  0  0
  7  6  1  0  0  0  0
  8  7  2  0  0  0  0
  9  4  2  0  0  0  0
  9  8  1  0  0  0  0
 10  4  1  0  0  0  0
 12 14  1  0  0  0  0
 13 12  1  0  0  0  0
 15 22  1  0  0  0  0
 16 15  2  0  0  0  0
 16  1  1  0  0  0  0
 17 16  1  0  0  0  0
 18 17  1  0  0  0  0
 19 17  2  0  0  0  0
 19 20  1  0  0  0  0
 20 21  2  0  0  0  0
 21 15  1  0  0  0  0
 21 24  1  0  0  0  0
 22 23  1  0  0  0  0
 25 24  1  0  0  0  0
M  END
>  <minimizedAffinity>
-4.94693851

$$$$
