
     RDKit          3D

 26 27  0  0  0  0  0  0  0  0999 V2000
   44.2480   35.7413   44.2634 C   0  0  0  0  0  0  0  0  0  0  0  0
   44.4559   34.9335   43.1285 C   0  0  0  0  0  0  0  0  0  0  0  0
   45.1019   33.7190   43.2242 C   0  0  0  0  0  0  0  0  0  0  0  0
   45.5234   33.3507   44.4723 N   0  0  0  0  0  0  0  0  0  0  0  0
   45.3097   34.1469   45.5415 C   0  0  0  0  0  0  0  0  0  0  0  0
   44.6917   35.3190   45.4792 N   0  0  0  0  0  0  0  0  0  0  0  0
   43.8718   35.4921   41.5278 S   0  0  0  0  0  0  0  0  0  0  0  0
   43.8036   34.0986   40.3821 C   0  0  0  0  0  0  0  0  0  0  0  0
   43.7324   36.6953   44.1476 H   0  0  0  0  0  0  0  0  0  0  0  0
   45.2869   33.0671   42.3970 H   0  0  0  0  0  0  0  0  0  0  0  0
   45.7203   33.6775   46.4494 H   0  0  0  0  0  0  0  0  0  0  0  0
   43.4725   34.5280   39.4048 H   0  0  0  0  0  0  0  0  0  0  0  0
   44.7509   33.5443   40.2820 H   0  0  0  0  0  0  0  0  0  0  0  0
   42.9513   32.1055   38.6203 O   0  0  0  0  0  0  0  0  0  0  0  0
   42.3819   32.1434   39.8935 C   0  0  0  0  0  0  0  0  0  0  0  0
   42.7682   33.1058   40.7999 C   0  0  0  0  0  0  0  0  0  0  0  0
   42.1732   33.1069   42.0608 C   0  0  0  0  0  0  0  0  0  0  0  0
   42.5064   33.8824   42.7463 H   0  0  0  0  0  0  0  0  0  0  0  0
   41.2287   32.1664   42.3740 C   0  0  0  0  0  0  0  0  0  0  0  0
   40.8265   31.1895   41.4750 C   0  0  0  0  0  0  0  0  0  0  0  0
   41.4307   31.1984   40.2130 C   0  0  0  0  0  0  0  0  0  0  0  0
   40.9947   30.1973   39.3422 O   0  0  0  0  0  0  0  0  0  0  0  0
   43.9541   32.1078   38.4773 H   0  0  0  0  0  0  0  0  0  0  0  0
   40.7896   32.2005   43.3653 H   0  0  0  0  0  0  0  0  0  0  0  0
   40.0726   30.4457   41.7364 H   0  0  0  0  0  0  0  0  0  0  0  0
   41.5645   29.3385   39.3831 H   0  0  0  0  0  0  0  0  0  0  0  0
  1  6  2  0
  2  3  2  0
  2  1  1  0
  3  4  1  0
  4  5  2  0
  6  5  1  0
  7  2  1  0
  8  7  1  0
  1  9  1  0
  3 10  1  0
  5 11  1  0
  8 12  1  0
  8 13  1  0
 14 15  1  0
 15 16  2  0
 16 17  1  0
 17 18  1  0
 17 19  2  0
 19 20  1  0
 20 21  2  0
 21 22  1  0
 21 15  1  0
 14 23  1  0
 19 24  1  0
 20 25  1  0
 22 26  1  0
  8 16  1  0
M  ISO  6   9  14  10  14  11  14  12   8  13   8  18  16
M  END
>  <DihAtoms>  (1) 
6,7,15,14

>  <DihDeg>  (1) 
-179.07972420120984

$$$$
