REMARK  Name = 
REMARK  8 active torsions:
REMARK  status: ('A' for Active; 'I' for Inactive)
REMARK    1  A    between atoms: P_2  and  O_3
REMARK    2  A    between atoms: P_2  and  O_4
REMARK    3  A    between atoms: P_2  and  O_14
REMARK    4  A    between atoms: O_4  and  C_6
REMARK    5  A    between atoms: O_14  and  C_15
REMARK    6  A    between atoms: C_20  and  C_36
REMARK    7  A    between atoms: O_34  and  C_35
REMARK    8  A    between atoms: C_41  and  O_42
REMARK                            x       y       z     vdW  Elec       q    Type
REMARK                         _______ _______ _______ _____ _____    ______ ____
ROOT
ATOM      1  C   UNL     1      46.537  35.126  42.094  0.00  0.00    +0.000 C 
ATOM      2  C   UNL     1      45.491  35.607  43.028  0.00  0.00    +0.000 C 
ATOM      3  C   UNL     1      44.187  35.746  42.295  0.00  0.00    +0.000 C 
ATOM      4  O   UNL     1      43.654  34.517  41.919  0.00  0.00    +0.000 OA
ATOM      5  C   UNL     1      44.650  33.587  41.717  0.00  0.00    +0.000 C 
ATOM      6  C   UNL     1      45.873  34.213  41.086  0.00  0.00    +0.000 C 
ATOM      7  H   UNL     1      46.934  36.035  41.563  0.00  0.00    +0.000 HD
ATOM      8  H   UNL     1      45.327  34.943  43.904  0.00  0.00    +0.000 HD
ATOM      9  H   UNL     1      45.735  36.612  43.475  0.00  0.00    +0.000 HD
ATOM     10  H   UNL     1      44.159  36.523  41.536  0.00  0.00    +0.000 HD
ATOM     11  H   UNL     1      43.472  36.152  43.102  0.00  0.00    +0.000 HD
ATOM     12  H   UNL     1      44.238  32.761  41.119  0.00  0.00    +0.000 HD
ATOM     13  H   UNL     1      44.955  33.165  42.703  0.00  0.00    +0.000 HD
ATOM     14  H   UNL     1      46.599  33.334  41.030  0.00  0.00    +0.000 HD
ENDROOT
BRANCH   6  16
ATOM     15  C   UNL     1      46.823  35.148  39.094  0.00  0.00    +0.000 A 
ATOM     16  C   UNL     1      45.678  34.637  39.741  0.00  0.00    +0.000 A 
ATOM     17  C   UNL     1      44.578  34.678  38.912  0.00  0.00    +0.000 A 
ATOM     18  H   UNL     1      43.678  34.320  39.340  0.00  0.00    +0.000 HD
ATOM     19  C   UNL     1      44.523  35.141  37.618  0.00  0.00    +0.000 A 
ATOM     20  C   UNL     1      45.687  35.623  37.063  0.00  0.00    +0.000 A 
ATOM     21  C   UNL     1      46.818  35.617  37.816  0.00  0.00    +0.000 A 
BRANCH  15  22
ATOM     22  O   UNL     1      48.069  35.206  39.749  0.00  0.00    +0.000 OA
ATOM     23  H   UNL     1      48.712  35.952  39.621  0.00  0.00    +0.000 HD
ENDBRANCH  15  22
BRANCH  21  24
ATOM     24  O   UNL     1      47.959  36.116  37.203  0.00  0.00    +0.000 OA
ATOM     25  H   UNL     1      48.659  35.568  36.753  0.00  0.00    +0.000 HD
ENDBRANCH  21  24
ENDBRANCH   6  16
BRANCH   1  26
ATOM     26  O   UNL     1      47.619  34.554  42.649  0.00  0.00    +0.000 OA
BRANCH  26  28
ATOM     27  O   UNL     1      50.220  34.904  42.714  0.00  0.00    +0.000 OA
ATOM     28  P   UNL     1      49.059  34.619  41.844  0.00  0.00    +0.000 P 
BRANCH  28  29
ATOM     29  O   UNL     1      48.970  35.876  40.697  0.00  0.00    +0.000 OA
ATOM     30  H   UNL     1      49.339  35.610  39.819  0.00  0.00    +0.000 HD
ENDBRANCH  28  29
BRANCH  28  31
ATOM     31  O   UNL     1      49.314  33.159  40.962  0.00  0.00    +0.000 OA
BRANCH  31  33
ATOM     32  C   UNL     1      49.531  31.439  42.559  0.00  0.00    +0.000 A 
ATOM     33  C   UNL     1      50.054  32.119  41.484  0.00  0.00    +0.000 A 
ATOM     34  C   UNL     1      51.315  31.727  40.967  0.00  0.00    +0.000 A 
ATOM     35  N   UNL     1      51.932  30.685  41.578  0.00  0.00    +0.000 NA
ATOM     36  C   UNL     1      51.396  30.051  42.616  0.00  0.00    +0.000 A 
ATOM     37  N   UNL     1      50.189  30.442  43.096  0.00  0.00    +0.000 NA
ATOM     38  C   UNL     1      47.090  31.038  42.834  0.00  0.00    +0.000 C 
ATOM     39  O   UNL     1      46.922  30.698  41.613  0.00  0.00    +0.000 OA
ATOM     40  N   UNL     1      48.387  31.437  43.398  0.00  0.00    +0.000 N 
ATOM     41  H   UNL     1      51.706  32.282  40.115  0.00  0.00    +0.000 HD
ATOM     42  H   UNL     1      51.884  29.216  43.111  0.00  0.00    +0.000 HD
ATOM     43  H   UNL     1      46.194  31.019  43.463  0.00  0.00    +0.000 HD
ATOM     44  H   UNL     1      48.335  31.694  44.402  0.00  0.00    +0.000 HD
ENDBRANCH  31  33
ENDBRANCH  28  31
ENDBRANCH  26  28
ENDBRANCH   1  26
TORSDOF 8
