
 OpenBabel03252508153D

 39 42  0  0  1  0  0  0  0  0999 V2000
   46.0770   33.1190   46.0470 C   0  0  0  0  0  3  0  0  0  0  0  0
   46.7980   32.1360   45.6740 C   0  0  0  0  0  3  0  0  0  0  0  0
   44.4580   35.9990   44.4200 C   0  0  0  0  0  0  0  0  0  0  0  0
   44.7700   35.8000   43.0810 C   0  0  0  0  0  0  0  0  0  0  0  0
   45.5300   34.7200   42.7630 C   0  0  0  0  0  0  0  0  0  0  0  0
   45.9290   33.9120   43.7770 N   0  0  0  0  0  0  0  0  0  0  0  0
   45.6370   34.0890   45.0630 C   0  0  0  0  0  0  0  0  0  0  0  0
   44.8880   35.1590   45.3560 N   0  0  0  0  0  0  0  0  0  0  0  0
   43.8530   36.8490   44.7330 H   0  0  0  0  0  0  0  0  0  0  0  0
   44.4330   36.4620   42.3160 H   0  0  0  0  0  0  0  0  0  0  0  0
   47.2010   34.5190   40.8630 C   0  0  0  0  0  0  0  0  0  0  0  0
   45.9790   34.3110   41.4420 C   0  0  0  0  0  0  0  0  0  0  0  0
   45.1160   33.6160   40.6100 C   0  0  0  0  0  0  0  0  0  0  0  0
   44.0880   33.3590   40.9120 H   0  0  0  0  0  0  0  0  0  0  0  0
   45.4500   33.1850   39.3450 C   0  0  0  0  0  3  0  0  0  0  0  0
   46.7030   33.4330   38.8280 C   0  0  0  0  0  3  0  0  0  0  0  0
   47.5920   34.1170   39.6170 C   0  0  0  0  0  0  0  0  0  0  0  0
   48.1410   35.1950   41.5920 O   0  0  0  0  0  0  0  0  0  0  0  0
   48.8440   34.6410   42.0800 H   0  0  0  0  0  0  0  0  0  0  0  0
   48.8420   34.3700   39.1140 O   0  0  0  0  0  0  0  0  0  0  0  0
   49.5070   33.5930   39.1230 H   0  0  0  0  0  0  0  0  0  0  0  0
   47.1880   31.1620   46.7760 C   0  0  0  0  0  0  0  0  0  0  0  0
   46.4810   30.3040   46.6100 H   0  0  0  0  0  0  0  0  0  0  0  0
   48.2120   30.8050   46.6470 H   0  0  0  0  0  0  0  0  0  0  0  0
   46.8540   31.7420   48.1080 C   0  0  1  0  0  0  0  0  0  0  0  0
   46.2150   30.8330   49.1060 C   0  0  0  0  0  0  0  0  0  0  0  0
   47.5790   31.2780   49.3200 C   0  0  1  0  0  0  0  0  0  0  0  0
   46.4980   32.8090   48.1210 H   0  0  0  0  0  0  0  0  0  0  0  0
   46.0490   29.7750   48.7940 H   0  0  0  0  0  0  0  0  0  0  0  0
   45.3700   31.2280   49.6980 H   0  0  0  0  0  0  0  0  0  0  0  0
   47.6990   32.0540   50.1360 H   0  0  0  0  0  0  0  0  0  0  0  0
   48.7950   30.4600   49.1260 C   0  0  0  0  0  0  0  0  0  0  0  0
   49.6410   30.2690   50.4120 C   0  0  0  0  0  0  0  0  0  0  0  0
   50.1430   31.1780   49.3420 C   0  0  0  0  0  0  0  0  0  0  0  0
   48.7870   29.5830   48.4470 H   0  0  0  0  0  0  0  0  0  0  0  0
   50.1080   29.2920   50.5530 H   0  0  0  0  0  0  0  0  0  0  0  0
   49.3010   30.7840   51.3310 H   0  0  0  0  0  0  0  0  0  0  0  0
   50.9930   30.7830   48.7610 H   0  0  0  0  0  0  0  0  0  0  0  0
   50.0780   32.2640   49.4370 H   0  0  0  0  0  0  0  0  0  0  0  0
  2  1  2  0  0  0  0
  2 22  1  0  0  0  0
  3  9  1  0  0  0  0
  3  8  1  0  0  0  0
  4  3  2  0  0  0  0
  5  4  1  0  0  0  0
  5  6  2  0  0  0  0
  6  7  1  0  0  0  0
  7  8  2  0  0  0  0
  7  1  1  0  0  0  0
 10  4  1  0  0  0  0
 11 12  1  0  0  0  0
 11 18  1  0  0  0  0
 12  5  1  0  0  0  0
 13 14  1  0  0  0  0
 13 12  2  0  0  0  0
 15 13  1  0  0  0  0
 16 15  2  0  0  0  0
 16 17  1  0  0  0  0
 17 11  2  0  0  0  0
 18 19  1  0  0  0  0
 20 21  1  0  0  0  0
 20 17  1  0  0  0  0
 22 25  1  0  0  0  0
 23 22  1  0  0  0  0
 24 22  1  0  0  0  0
 25 28  1  1  0  0  0
 25 26  1  0  0  0  0
 25 27  1  0  0  0  0
 26 27  1  0  0  0  0
 26 30  1  0  0  0  0
 27 31  1  1  0  0  0
 29 26  1  0  0  0  0
 32 27  1  0  0  0  0
 32 34  1  0  0  0  0
 32 33  1  0  0  0  0
 33 36  1  0  0  0  0
 33 37  1  0  0  0  0
 34 39  1  0  0  0  0
 34 33  1  0  0  0  0
 35 32  1  0  0  0  0
 38 34  1  0  0  0  0
M  END
>  <minimizedAffinity>
-6.07955456

>  <minimizedRMSD>
1.0129329

$$$$
