REMARK  Name = 
REMARK  4 active torsions:
REMARK  status: ('A' for Active; 'I' for Inactive)
REMARK    1  A    between atoms: C_2  and  C_7
REMARK    2  A    between atoms: C_5  and  C_15
REMARK    3  A    between atoms: O_13  and  C_14
REMARK    4  A    between atoms: C_20  and  O_21
REMARK                            x       y       z     vdW  Elec       q    Type
REMARK                         _______ _______ _______ _____ _____    ______ ____
ROOT
ATOM      1  C   UNL     1      44.385  35.775  44.425  0.00  0.00    +0.000 A 
ATOM      2  C   UNL     1      44.668  35.060  43.259  0.00  0.00    +0.000 A 
ATOM      3  C   UNL     1      45.292  33.827  43.395  0.00  0.00    +0.000 A 
ATOM      4  N   UNL     1      45.591  33.385  44.646  0.00  0.00    +0.000 NA
ATOM      5  C   UNL     1      45.307  34.092  45.749  0.00  0.00    +0.000 A 
ATOM      6  N   UNL     1      44.702  35.292  45.654  0.00  0.00    +0.000 NA
ATOM      7  H   UNL     1      43.898  36.756  44.478  0.00  0.00    +0.000 HD
ATOM      8  H   UNL     1      45.481  33.334  42.469  0.00  0.00    +0.000 HD
ENDROOT
BRANCH   5  10
ATOM      9  C   UNL     1      46.860  33.846  47.645  0.00  0.00    +0.000 A 
ATOM     10  C   UNL     1      45.648  33.575  47.070  0.00  0.00    +0.000 A 
ATOM     11  C   UNL     1      44.771  32.799  47.784  0.00  0.00    +0.000 A 
ATOM     12  H   UNL     1      43.802  32.537  47.411  0.00  0.00    +0.000 HD
ATOM     13  C   UNL     1      45.121  32.320  49.038  0.00  0.00    +0.000 A 
ATOM     14  C   UNL     1      46.353  32.609  49.597  0.00  0.00    +0.000 A 
ATOM     15  C   UNL     1      47.249  33.391  48.887  0.00  0.00    +0.000 A 
BRANCH   9  16
ATOM     16  O   UNL     1      47.752  34.643  46.903  0.00  0.00    +0.000 OA
ATOM     17  H   UNL     1      47.799  35.641  47.002  0.00  0.00    +0.000 HD
ENDBRANCH   9  16
BRANCH  15  18
ATOM     18  O   UNL     1      48.522  33.748  49.353  0.00  0.00    +0.000 OA
ATOM     19  H   UNL     1      48.908  34.666  49.141  0.00  0.00    +0.000 HD
ENDBRANCH  15  18
ENDBRANCH   5  10
BRANCH   2  20
ATOM     20  C   UNL     1      44.253  35.735  42.009  0.00  0.00    +0.000 C 
ATOM     21  H   UNL     1      43.151  35.689  41.863  0.00  0.00    +0.000 HD
ATOM     22  H   UNL     1      44.776  35.225  41.175  0.00  0.00    +0.000 HD
ATOM     23  H   UNL     1      44.493  36.813  42.094  0.00  0.00    +0.000 HD
ENDBRANCH   2  20
TORSDOF 4
