
 OpenBabel03242511593D

 43 46  0  0  1  0  0  0  0  0999 V2000
   36.3710   29.5300   40.4730 C   0  0  2  0  0  0  0  0  0  0  0  0
   35.0460   28.9780   40.0800 C   0  0  0  0  0  0  0  0  0  0  0  0
   35.0100   28.4500   38.6930 C   0  0  0  0  0  0  0  0  0  0  0  0
   35.4430   29.4870   37.6830 C   0  0  0  0  0  0  0  0  0  0  0  0
   36.6590   30.2670   38.1030 C   0  0  0  0  0  0  0  0  0  0  0  0
   37.3230   29.7150   39.3310 C   0  0  1  0  0  0  0  0  0  0  0  0
   36.2160   30.5460   40.9480 H   0  0  0  0  0  0  0  0  0  0  0  0
   34.7300   28.1820   40.7760 H   0  0  0  0  0  0  0  0  0  0  0  0
   34.2800   29.7770   40.1480 H   0  0  0  0  0  0  0  0  0  0  0  0
   34.0180   28.0920   38.4290 H   0  0  0  0  0  0  0  0  0  0  0  0
   35.7060   27.5860   38.5460 H   0  0  0  0  0  0  0  0  0  0  0  0
   35.5340   29.0080   36.6880 H   0  0  0  0  0  0  0  0  0  0  0  0
   34.6110   30.2280   37.6020 H   0  0  0  0  0  0  0  0  0  0  0  0
   36.4780   31.3590   38.1710 H   0  0  0  0  0  0  0  0  0  0  0  0
   37.4010   30.1600   37.2640 H   0  0  0  0  0  0  0  0  0  0  0  0
   37.8720   28.8140   39.0130 H   0  0  0  0  0  0  0  0  0  0  0  0
   37.0320   28.7260   41.5210 C   0  0  0  0  0  0  0  0  0  0  0  0
   37.3550   27.4230   41.1390 C   0  0  0  0  0  0  0  0  0  0  0  0
   37.9900   26.5600   42.0420 C   0  0  0  0  0  0  0  0  0  0  0  0
   38.2540   27.0940   43.2970 N   0  0  0  0  0  0  0  0  0  0  0  0
   37.9250   28.3590   43.6320 C   0  0  0  0  0  0  0  0  0  0  0  0
   37.3140   29.1670   42.7360 N   0  0  0  0  0  0  0  0  0  0  0  0
   37.2160   26.8550   40.2320 H   0  0  0  0  0  0  0  0  0  0  0  0
   38.3010   25.5570   41.9160 H   0  0  0  0  0  0  0  0  0  0  0  0
   38.1750   28.6700   44.6270 H   0  0  0  0  0  0  0  0  0  0  0  0
   38.3740   30.7070   39.7650 C   0  0  2  0  0  0  0  0  0  0  0  0
   37.9080   32.0030   40.3970 C   0  0  0  0  0  0  0  0  0  0  0  0
   38.5800   31.9860   39.0770 C   0  0  1  0  0  0  0  0  0  0  0  0
   39.2720   30.2560   40.2180 H   0  0  0  0  0  0  0  0  0  0  0  0
   38.4390   32.3240   41.3060 H   0  0  0  0  0  0  0  0  0  0  0  0
   36.8120   32.0850   40.4890 H   0  0  0  0  0  0  0  0  0  0  0  0
   37.8850   32.2590   38.2300 H   0  0  0  0  0  0  0  0  0  0  0  0
   40.6330   32.9980   37.9050 C   0  0  0  0  0  0  0  0  0  0  0  0
   39.8480   32.7050   38.9990 C   0  0  0  0  0  0  0  0  0  0  0  0
   40.3710   33.1930   40.1840 C   0  0  0  0  0  0  0  0  0  0  0  0
   39.9060   33.0640   41.1300 H   0  0  0  0  0  0  0  0  0  0  0  0
   41.5520   33.9000   40.2630 C   0  0  0  0  0  3  0  0  0  0  0  0
   42.2890   34.1580   39.1200 C   0  0  0  0  0  3  0  0  0  0  0  0
   41.8060   33.6920   37.9320 C   0  0  0  0  0  0  0  0  0  0  0  0
   40.1710   32.5370   36.6820 O   0  0  0  0  0  0  0  0  0  0  0  0
   39.9980   31.5520   36.5300 H   0  0  0  0  0  0  0  0  0  0  0  0
   42.5000   33.9160   36.7320 O   0  0  0  0  0  0  0  0  0  0  0  0
   42.4500   33.1760   36.0480 H   0  0  0  0  0  0  0  0  0  0  0  0
  1  7  1  1  0  0  0
  1 17  1  0  0  0  0
  2  9  1  0  0  0  0
  2  1  1  0  0  0  0
  2  8  1  0  0  0  0
  3  2  1  0  0  0  0
  4  5  1  0  0  0  0
  4  3  1  0  0  0  0
  5 14  1  0  0  0  0
  5  6  1  0  0  0  0
  6 16  1  6  0  0  0
  6 26  1  0  0  0  0
  6  1  1  0  0  0  0
 10  3  1  0  0  0  0
 11  3  1  0  0  0  0
 12  4  1  0  0  0  0
 13  4  1  0  0  0  0
 15  5  1  0  0  0  0
 17 22  1  0  0  0  0
 18 17  2  0  0  0  0
 18 19  1  0  0  0  0
 19 20  2  0  0  0  0
 20 21  1  0  0  0  0
 21 25  1  0  0  0  0
 22 21  2  0  0  0  0
 23 18  1  0  0  0  0
 24 19  1  0  0  0  0
 26 29  1  1  0  0  0
 26 27  1  0  0  0  0
 27 31  1  0  0  0  0
 27 30  1  0  0  0  0
 28 32  1  6  0  0  0
 28 26  1  0  0  0  0
 28 27  1  0  0  0  0
 33 39  2  0  0  0  0
 33 34  1  0  0  0  0
 34 28  1  0  0  0  0
 34 35  2  0  0  0  0
 35 37  1  0  0  0  0
 35 36  1  0  0  0  0
 38 37  2  0  0  0  0
 39 38  1  0  0  0  0
 40 33  1  0  0  0  0
 41 40  1  0  0  0  0
 42 39  1  0  0  0  0
 43 42  1  0  0  0  0
M  END
>  <minimizedAffinity>
-6.80219126

$$$$

 OpenBabel03242511593D

 43 46  0  0  1  0  0  0  0  0999 V2000
   37.0300   31.2210   39.9060 C   0  0  2  0  0  0  0  0  0  0  0  0
   37.2240   32.6630   39.5990 C   0  0  0  0  0  0  0  0  0  0  0  0
   38.6470   33.0880   39.6200 C   0  0  0  0  0  0  0  0  0  0  0  0
   39.3160   32.7580   40.9340 C   0  0  0  0  0  0  0  0  0  0  0  0
   38.9900   31.3820   41.4480 C   0  0  0  0  0  0  0  0  0  0  0  0
   38.2460   30.5380   40.4530 C   0  0  1  0  0  0  0  0  0  0  0  0
   36.2120   31.1210   40.6830 H   0  0  0  0  0  0  0  0  0  0  0  0
   36.7870   32.9190   38.6190 H   0  0  0  0  0  0  0  0  0  0  0  0
   36.6880   33.2760   40.3520 H   0  0  0  0  0  0  0  0  0  0  0  0
   38.7470   34.1540   39.4290 H   0  0  0  0  0  0  0  0  0  0  0  0
   39.2590   32.5700   38.8390 H   0  0  0  0  0  0  0  0  0  0  0  0
   40.4020   32.9630   40.8490 H   0  0  0  0  0  0  0  0  0  0  0  0
   38.9160   33.4750   41.6910 H   0  0  0  0  0  0  0  0  0  0  0  0
   38.5060   31.3910   42.4460 H   0  0  0  0  0  0  0  0  0  0  0  0
   39.9780   30.8730   41.6220 H   0  0  0  0  0  0  0  0  0  0  0  0
   38.9860   30.2070   39.7070 H   0  0  0  0  0  0  0  0  0  0  0  0
   36.5330   30.4560   38.7440 C   0  0  0  0  0  0  0  0  0  0  0  0
   37.3210   30.5640   37.5960 C   0  0  0  0  0  0  0  0  0  0  0  0
   36.9600   29.8820   36.4270 C   0  0  0  0  0  0  0  0  0  0  0  0
   35.7990   29.1250   36.5080 N   0  0  0  0  0  0  0  0  0  0  0  0
   35.0610   29.0450   37.6360 C   0  0  0  0  0  0  0  0  0  0  0  0
   35.4380   29.7140   38.7480 N   0  0  0  0  0  0  0  0  0  0  0  0
   38.2250   31.1040   37.3600 H   0  0  0  0  0  0  0  0  0  0  0  0
   37.4390   29.8550   35.4840 H   0  0  0  0  0  0  0  0  0  0  0  0
   34.1830   28.4310   37.5890 H   0  0  0  0  0  0  0  0  0  0  0  0
   37.7910   29.2890   41.1670 C   0  0  2  0  0  0  0  0  0  0  0  0
   38.0110   29.2080   42.6640 C   0  0  0  0  0  0  0  0  0  0  0  0
   38.7330   28.3160   41.7270 C   0  0  1  0  0  0  0  0  0  0  0  0
   36.8330   28.8780   40.8070 H   0  0  0  0  0  0  0  0  0  0  0  0
   37.1660   28.8430   43.2660 H   0  0  0  0  0  0  0  0  0  0  0  0
   38.4870   30.1050   43.0930 H   0  0  0  0  0  0  0  0  0  0  0  0
   39.8390   28.5440   41.6720 H   0  0  0  0  0  0  0  0  0  0  0  0
   39.2410   25.9110   42.4830 C   0  0  0  0  0  0  0  0  0  0  0  0
   38.4760   26.8870   41.8830 C   0  0  0  0  0  0  0  0  0  0  0  0
   37.2850   26.4010   41.3710 C   0  0  0  0  0  0  0  0  0  0  0  0
   36.5680   27.0050   40.8730 H   0  0  0  0  0  0  0  0  0  0  0  0
   36.9030   25.0790   41.4540 C   0  0  0  0  0  3  0  0  0  0  0  0
   37.7230   24.1520   42.0730 C   0  0  0  0  0  3  0  0  0  0  0  0
   38.9070   24.5940   42.5900 C   0  0  0  0  0  0  0  0  0  0  0  0
   40.4510   26.3260   43.0170 O   0  0  0  0  0  0  0  0  0  0  0  0
   41.1460   26.7790   42.4380 H   0  0  0  0  0  0  0  0  0  0  0  0
   39.7890   23.7100   43.2320 O   0  0  0  0  0  0  0  0  0  0  0  0
   40.7720   23.8990   43.1070 H   0  0  0  0  0  0  0  0  0  0  0  0
  1  6  1  0  0  0  0
  1  7  1  1  0  0  0
  2  3  1  0  0  0  0
  2  1  1  0  0  0  0
  2  9  1  0  0  0  0
  3  4  1  0  0  0  0
  4  5  1  0  0  0  0
  4 13  1  0  0  0  0
  5 15  1  0  0  0  0
  5 14  1  0  0  0  0
  6 16  1  6  0  0  0
  6 26  1  0  0  0  0
  6  5  1  0  0  0  0
  8  2  1  0  0  0  0
 10  3  1  0  0  0  0
 11  3  1  0  0  0  0
 12  4  1  0  0  0  0
 17 22  1  0  0  0  0
 17  1  1  0  0  0  0
 18 17  2  0  0  0  0
 19 20  2  0  0  0  0
 19 18  1  0  0  0  0
 20 21  1  0  0  0  0
 21 22  2  0  0  0  0
 23 18  1  0  0  0  0
 24 19  1  0  0  0  0
 25 21  1  0  0  0  0
 26 29  1  6  0  0  0
 26 28  1  0  0  0  0
 26 27  1  0  0  0  0
 27 31  1  0  0  0  0
 27 30  1  0  0  0  0
 28 32  1  6  0  0  0
 28 34  1  0  0  0  0
 28 27  1  0  0  0  0
 33 39  1  0  0  0  0
 33 40  1  0  0  0  0
 34 33  2  0  0  0  0
 35 37  2  0  0  0  0
 35 34  1  0  0  0  0
 36 35  1  0  0  0  0
 37 38  1  0  0  0  0
 38 39  2  0  0  0  0
 39 42  1  0  0  0  0
 41 40  1  0  0  0  0
 43 42  1  0  0  0  0
M  END
>  <minimizedAffinity>
-6.08697128

$$$$

 OpenBabel03242511593D

 43 46  0  0  1  0  0  0  0  0999 V2000
   39.3820   26.4280   40.9350 C   0  0  2  0  0  0  0  0  0  0  0  0
   39.7120   24.9770   40.9240 C   0  0  0  0  0  0  0  0  0  0  0  0
   39.1840   24.2390   42.0980 C   0  0  0  0  0  0  0  0  0  0  0  0
   39.6420   24.8500   43.4020 C   0  0  0  0  0  0  0  0  0  0  0  0
   39.5590   26.3520   43.4270 C   0  0  0  0  0  0  0  0  0  0  0  0
   38.8400   26.9260   42.2400 C   0  0  1  0  0  0  0  0  0  0  0  0
   40.3230   27.0180   40.7170 H   0  0  0  0  0  0  0  0  0  0  0  0
   39.3440   24.4970   40.0010 H   0  0  0  0  0  0  0  0  0  0  0  0
   40.8140   24.8500   40.9250 H   0  0  0  0  0  0  0  0  0  0  0  0
   39.4780   23.1920   42.0750 H   0  0  0  0  0  0  0  0  0  0  0  0
   38.0660   24.2510   42.1430 H   0  0  0  0  0  0  0  0  0  0  0  0
   39.1120   24.3540   44.2400 H   0  0  0  0  0  0  0  0  0  0  0  0
   40.7230   24.5960   43.5170 H   0  0  0  0  0  0  0  0  0  0  0  0
   40.5380   26.8410   43.6090 H   0  0  0  0  0  0  0  0  0  0  0  0
   38.9440   26.6140   44.3310 H   0  0  0  0  0  0  0  0  0  0  0  0
   37.7650   26.7520   42.4110 H   0  0  0  0  0  0  0  0  0  0  0  0
   38.4480   26.8050   39.8540 C   0  0  0  0  0  0  0  0  0  0  0  0
   37.1570   26.2920   39.9950 C   0  0  0  0  0  0  0  0  0  0  0  0
   36.1750   26.5810   39.0380 C   0  0  0  0  0  0  0  0  0  0  0  0
   36.5850   27.3850   37.9820 N   0  0  0  0  0  0  0  0  0  0  0  0
   37.8440   27.8620   37.8790 C   0  0  0  0  0  0  0  0  0  0  0  0
   38.7670   27.5660   38.8200 N   0  0  0  0  0  0  0  0  0  0  0  0
   36.6820   25.6570   40.7270 H   0  0  0  0  0  0  0  0  0  0  0  0
   35.1630   26.2780   38.9930 H   0  0  0  0  0  0  0  0  0  0  0  0
   38.0530   28.4740   37.0230 H   0  0  0  0  0  0  0  0  0  0  0  0
   39.0260   28.4230   42.2750 C   0  0  2  0  0  0  0  0  0  0  0  0
   38.1890   29.2190   43.2560 C   0  0  0  0  0  0  0  0  0  0  0  0
   38.0030   29.3540   41.7930 C   0  0  1  0  0  0  0  0  0  0  0  0
   40.0710   28.7570   42.1650 H   0  0  0  0  0  0  0  0  0  0  0  0
   38.7160   29.9870   43.8400 H   0  0  0  0  0  0  0  0  0  0  0  0
   37.5160   28.5990   43.8710 H   0  0  0  0  0  0  0  0  0  0  0  0
   37.0160   28.9330   41.4380 H   0  0  0  0  0  0  0  0  0  0  0  0
   37.3860   31.6280   40.7610 C   0  0  0  0  0  0  0  0  0  0  0  0
   38.2640   30.6790   41.2380 C   0  0  0  0  0  0  0  0  0  0  0  0
   39.5860   31.0870   41.1740 C   0  0  0  0  0  0  0  0  0  0  0  0
   40.4030   30.4900   41.4960 H   0  0  0  0  0  0  0  0  0  0  0  0
   39.9820   32.3140   40.6860 C   0  0  0  0  0  3  0  0  0  0  0  0
   39.0420   33.2190   40.2240 C   0  0  0  0  0  3  0  0  0  0  0  0
   37.7280   32.8520   40.2700 C   0  0  0  0  0  0  0  0  0  0  0  0
   36.0420   31.2860   40.7930 O   0  0  0  0  0  0  0  0  0  0  0  0
   35.7050   30.4610   40.3140 H   0  0  0  0  0  0  0  0  0  0  0  0
   36.7200   33.7180   39.8180 O   0  0  0  0  0  0  0  0  0  0  0  0
   35.9270   33.2800   39.3740 H   0  0  0  0  0  0  0  0  0  0  0  0
  1  7  1  6  0  0  0
  1  6  1  0  0  0  0
  2  9  1  0  0  0  0
  2  1  1  0  0  0  0
  2  3  1  0  0  0  0
  3 11  1  0  0  0  0
  3  4  1  0  0  0  0
  4  5  1  0  0  0  0
  4 13  1  0  0  0  0
  4 12  1  0  0  0  0
  5 14  1  0  0  0  0
  5 15  1  0  0  0  0
  6 26  1  0  0  0  0
  6 16  1  1  0  0  0
  6  5  1  0  0  0  0
  8  2  1  0  0  0  0
 10  3  1  0  0  0  0
 17 18  1  0  0  0  0
 17  1  1  0  0  0  0
 18 23  1  0  0  0  0
 19 18  2  0  0  0  0
 20 19  1  0  0  0  0
 21 20  2  0  0  0  0
 21 22  1  0  0  0  0
 22 17  2  0  0  0  0
 24 19  1  0  0  0  0
 25 21  1  0  0  0  0
 26 29  1  6  0  0  0
 26 27  1  0  0  0  0
 27 30  1  0  0  0  0
 27 31  1  0  0  0  0
 28 32  1  6  0  0  0
 28 26  1  0  0  0  0
 28 27  1  0  0  0  0
 33 40  1  0  0  0  0
 33 34  1  0  0  0  0
 34 28  1  0  0  0  0
 35 34  2  0  0  0  0
 35 36  1  0  0  0  0
 37 35  1  0  0  0  0
 38 39  1  0  0  0  0
 38 37  2  0  0  0  0
 39 33  2  0  0  0  0
 41 40  1  0  0  0  0
 42 39  1  0  0  0  0
 43 42  1  0  0  0  0
M  END
>  <minimizedAffinity>
-6.03538132

$$$$

 OpenBabel03242511593D

 43 46  0  0  1  0  0  0  0  0999 V2000
   37.1610   26.1410   41.3910 C   0  0  2  0  0  0  0  0  0  0  0  0
   36.9430   24.9150   42.2040 C   0  0  0  0  0  0  0  0  0  0  0  0
   37.2280   23.6570   41.4700 C   0  0  0  0  0  0  0  0  0  0  0  0
   36.4340   23.5580   40.1880 C   0  0  0  0  0  0  0  0  0  0  0  0
   36.4060   24.8380   39.3970 C   0  0  0  0  0  0  0  0  0  0  0  0
   37.3440   25.8840   39.9260 C   0  0  1  0  0  0  0  0  0  0  0  0
   36.2600   26.8170   41.5020 H   0  0  0  0  0  0  0  0  0  0  0  0
   37.5510   24.9400   43.1240 H   0  0  0  0  0  0  0  0  0  0  0  0
   35.8830   24.8720   42.5290 H   0  0  0  0  0  0  0  0  0  0  0  0
   37.0210   22.7820   42.0820 H   0  0  0  0  0  0  0  0  0  0  0  0
   38.3010   23.5760   41.1600 H   0  0  0  0  0  0  0  0  0  0  0  0
   36.7840   22.6790   39.6120 H   0  0  0  0  0  0  0  0  0  0  0  0
   35.3760   23.3480   40.4770 H   0  0  0  0  0  0  0  0  0  0  0  0
   35.3800   25.2290   39.2340 H   0  0  0  0  0  0  0  0  0  0  0  0
   36.7700   24.5740   38.3660 H   0  0  0  0  0  0  0  0  0  0  0  0
   38.3570   25.5830   39.6150 H   0  0  0  0  0  0  0  0  0  0  0  0
   38.2960   26.9510   41.8800 C   0  0  0  0  0  0  0  0  0  0  0  0
   37.9330   28.1620   42.4740 C   0  0  0  0  0  0  0  0  0  0  0  0
   38.9180   29.0190   42.9820 C   0  0  0  0  0  0  0  0  0  0  0  0
   40.2280   28.5770   42.8460 N   0  0  0  0  0  0  0  0  0  0  0  0
   40.5400   27.4000   42.2640 C   0  0  0  0  0  0  0  0  0  0  0  0
   39.5660   26.5950   41.7840 N   0  0  0  0  0  0  0  0  0  0  0  0
   36.9900   28.6540   42.6480 H   0  0  0  0  0  0  0  0  0  0  0  0
   38.8170   29.9590   43.4570 H   0  0  0  0  0  0  0  0  0  0  0  0
   41.5830   27.1560   42.2110 H   0  0  0  0  0  0  0  0  0  0  0  0
   37.0510   27.1700   39.1930 C   0  0  2  0  0  0  0  0  0  0  0  0
   37.3300   27.2170   37.7040 C   0  0  0  0  0  0  0  0  0  0  0  0
   38.1130   28.0320   38.6630 C   0  0  1  0  0  0  0  0  0  0  0  0
   36.1320   27.6850   39.5180 H   0  0  0  0  0  0  0  0  0  0  0  0
   36.5510   27.6660   37.0720 H   0  0  0  0  0  0  0  0  0  0  0  0
   37.7210   26.2700   37.2950 H   0  0  0  0  0  0  0  0  0  0  0  0
   39.1840   27.6860   38.7570 H   0  0  0  0  0  0  0  0  0  0  0  0
   38.7410   30.3240   37.6810 C   0  0  0  0  0  0  0  0  0  0  0  0
   38.0170   29.4790   38.4930 C   0  0  0  0  0  0  0  0  0  0  0  0
   37.0560   30.1390   39.2390 C   0  0  0  0  0  0  0  0  0  0  0  0
   36.4020   29.6530   39.9210 H   0  0  0  0  0  0  0  0  0  0  0  0
   36.8420   31.5000   39.1750 C   0  0  0  0  0  3  0  0  0  0  0  0
   37.6090   32.2870   38.3340 C   0  0  0  0  0  3  0  0  0  0  0  0
   38.5680   31.6720   37.5830 C   0  0  0  0  0  0  0  0  0  0  0  0
   39.7250   29.7300   36.9060 O   0  0  0  0  0  0  0  0  0  0  0  0
   40.4710   29.1970   37.3330 H   0  0  0  0  0  0  0  0  0  0  0  0
   39.3830   32.4080   36.7080 O   0  0  0  0  0  0  0  0  0  0  0  0
   40.3340   32.0860   36.6140 H   0  0  0  0  0  0  0  0  0  0  0  0
  1  7  1  1  0  0  0
  1 17  1  0  0  0  0
  1  2  1  0  0  0  0
  2  9  1  0  0  0  0
  2  8  1  0  0  0  0
  3 10  1  0  0  0  0
  3  2  1  0  0  0  0
  4 13  1  0  0  0  0
  4  3  1  0  0  0  0
  5  6  1  0  0  0  0
  5  4  1  0  0  0  0
  6 16  1  6  0  0  0
  6  1  1  0  0  0  0
 11  3  1  0  0  0  0
 12  4  1  0  0  0  0
 14  5  1  0  0  0  0
 15  5  1  0  0  0  0
 17 18  1  0  0  0  0
 18 23  1  0  0  0  0
 18 19  2  0  0  0  0
 19 24  1  0  0  0  0
 20 19  1  0  0  0  0
 21 20  2  0  0  0  0
 22 17  2  0  0  0  0
 22 21  1  0  0  0  0
 25 21  1  0  0  0  0
 26 29  1  1  0  0  0
 26  6  1  0  0  0  0
 27 28  1  0  0  0  0
 27 26  1  0  0  0  0
 28 32  1  1  0  0  0
 28 26  1  0  0  0  0
 30 27  1  0  0  0  0
 31 27  1  0  0  0  0
 33 34  1  0  0  0  0
 34 28  1  0  0  0  0
 34 35  2  0  0  0  0
 35 36  1  0  0  0  0
 37 35  1  0  0  0  0
 38 37  2  0  0  0  0
 39 33  2  0  0  0  0
 39 38  1  0  0  0  0
 40 41  1  0  0  0  0
 40 33  1  0  0  0  0
 42 39  1  0  0  0  0
 43 42  1  0  0  0  0
M  END
>  <minimizedAffinity>
-5.98646688

$$$$

 OpenBabel03242511593D

 43 46  0  0  1  0  0  0  0  0999 V2000
   37.0670   29.1400   41.4230 C   0  0  2  0  0  0  0  0  0  0  0  0
   37.4120   29.1830   42.8690 C   0  0  0  0  0  0  0  0  0  0  0  0
   38.2790   28.0600   43.3060 C   0  0  0  0  0  0  0  0  0  0  0  0
   37.6740   26.7170   42.9740 C   0  0  0  0  0  0  0  0  0  0  0  0
   37.0840   26.6470   41.5910 C   0  0  0  0  0  0  0  0  0  0  0  0
   37.4060   27.8460   40.7470 C   0  0  1  0  0  0  0  0  0  0  0  0
   35.9510   29.2940   41.3100 H   0  0  0  0  0  0  0  0  0  0  0  0
   37.9010   30.1370   43.1280 H   0  0  0  0  0  0  0  0  0  0  0  0
   36.4820   29.1340   43.4720 H   0  0  0  0  0  0  0  0  0  0  0  0
   38.4780   28.1040   44.3750 H   0  0  0  0  0  0  0  0  0  0  0  0
   39.2770   28.0680   42.8000 H   0  0  0  0  0  0  0  0  0  0  0  0
   38.4150   25.9220   43.1890 H   0  0  0  0  0  0  0  0  0  0  0  0
   36.8250   26.5590   43.6820 H   0  0  0  0  0  0  0  0  0  0  0  0
   36.0020   26.4020   41.5880 H   0  0  0  0  0  0  0  0  0  0  0  0
   37.5710   25.7650   41.0900 H   0  0  0  0  0  0  0  0  0  0  0  0
   38.4550   27.7330   40.4280 H   0  0  0  0  0  0  0  0  0  0  0  0
   37.6740   30.2510   40.6610 C   0  0  0  0  0  0  0  0  0  0  0  0
   36.7900   31.2800   40.3290 C   0  0  0  0  0  0  0  0  0  0  0  0
   37.2450   32.3940   39.6110 C   0  0  0  0  0  0  0  0  0  0  0  0
   38.5920   32.3820   39.2730 N   0  0  0  0  0  0  0  0  0  0  0  0
   39.4160   31.3670   39.6110 C   0  0  0  0  0  0  0  0  0  0  0  0
   38.9460   30.3070   40.3050 N   0  0  0  0  0  0  0  0  0  0  0  0
   35.7370   31.4420   40.4970 H   0  0  0  0  0  0  0  0  0  0  0  0
   36.7160   33.2500   39.2830 H   0  0  0  0  0  0  0  0  0  0  0  0
   40.4380   31.4600   39.3000 H   0  0  0  0  0  0  0  0  0  0  0  0
   36.5790   27.7530   39.4890 C   0  0  2  0  0  0  0  0  0  0  0  0
   36.7320   26.5140   38.6300 C   0  0  0  0  0  0  0  0  0  0  0  0
   37.1690   27.8460   38.1500 C   0  0  1  0  0  0  0  0  0  0  0  0
   35.5490   28.1350   39.5880 H   0  0  0  0  0  0  0  0  0  0  0  0
   35.8040   26.0510   38.2660 H   0  0  0  0  0  0  0  0  0  0  0  0
   37.4490   25.7790   39.0320 H   0  0  0  0  0  0  0  0  0  0  0  0
   38.2930   27.9310   38.0630 H   0  0  0  0  0  0  0  0  0  0  0  0
   36.9820   28.6150   35.7040 C   0  0  0  0  0  0  0  0  0  0  0  0
   36.4870   28.3500   36.9620 C   0  0  0  0  0  0  0  0  0  0  0  0
   35.1310   28.6040   37.0730 C   0  0  0  0  0  0  0  0  0  0  0  0
   34.5750   28.4590   37.9670 H   0  0  0  0  0  0  0  0  0  0  0  0
   34.3550   29.0700   36.0330 C   0  0  0  0  0  3  0  0  0  0  0  0
   34.9210   29.3130   34.7940 C   0  0  0  0  0  3  0  0  0  0  0  0
   36.2570   29.0770   34.6460 C   0  0  0  0  0  0  0  0  0  0  0  0
   38.3370   28.3860   35.5200 O   0  0  0  0  0  0  0  0  0  0  0  0
   39.0250   28.8550   36.0950 H   0  0  0  0  0  0  0  0  0  0  0  0
   36.8980   29.3010   33.4180 O   0  0  0  0  0  0  0  0  0  0  0  0
   37.8490   29.6360   33.4700 H   0  0  0  0  0  0  0  0  0  0  0  0
  1  7  1  6  0  0  0
  1  2  1  0  0  0  0
  2  8  1  0  0  0  0
  2  3  1  0  0  0  0
  2  9  1  0  0  0  0
  3 10  1  0  0  0  0
  4 12  1  0  0  0  0
  4  3  1  0  0  0  0
  4 13  1  0  0  0  0
  5  4  1  0  0  0  0
  6 16  1  6  0  0  0
  6  1  1  0  0  0  0
  6  5  1  0  0  0  0
 11  3  1  0  0  0  0
 14  5  1  0  0  0  0
 15  5  1  0  0  0  0
 17  1  1  0  0  0  0
 18 23  1  0  0  0  0
 18 17  1  0  0  0  0
 19 18  2  0  0  0  0
 20 19  1  0  0  0  0
 20 21  2  0  0  0  0
 21 22  1  0  0  0  0
 22 17  2  0  0  0  0
 24 19  1  0  0  0  0
 25 21  1  0  0  0  0
 26 29  1  1  0  0  0
 26  6  1  0  0  0  0
 27 31  1  0  0  0  0
 27 26  1  0  0  0  0
 28 32  1  6  0  0  0
 28 27  1  0  0  0  0
 28 26  1  0  0  0  0
 30 27  1  0  0  0  0
 33 34  1  0  0  0  0
 34 35  2  0  0  0  0
 34 28  1  0  0  0  0
 35 36  1  0  0  0  0
 37 35  1  0  0  0  0
 38 37  2  0  0  0  0
 39 38  1  0  0  0  0
 39 33  2  0  0  0  0
 40 33  1  0  0  0  0
 40 41  1  0  0  0  0
 42 43  1  0  0  0  0
 42 39  1  0  0  0  0
M  END
>  <minimizedAffinity>
-5.95072794

$$$$

 OpenBabel03242511593D

 43 46  0  0  1  0  0  0  0  0999 V2000
   37.5590   26.6160   40.0260 C   0  0  2  0  0  0  0  0  0  0  0  0
   37.2820   25.1860   39.7260 C   0  0  0  0  0  0  0  0  0  0  0  0
   36.5450   24.4840   40.8070 C   0  0  0  0  0  0  0  0  0  0  0  0
   37.2570   24.5900   42.1360 C   0  0  0  0  0  0  0  0  0  0  0  0
   37.7820   25.9690   42.4300 C   0  0  0  0  0  0  0  0  0  0  0  0
   37.3090   27.0060   41.4510 C   0  0  1  0  0  0  0  0  0  0  0  0
   38.6490   26.8300   39.8070 H   0  0  0  0  0  0  0  0  0  0  0  0
   36.7190   25.0840   38.7820 H   0  0  0  0  0  0  0  0  0  0  0  0
   38.2400   24.6480   39.5790 H   0  0  0  0  0  0  0  0  0  0  0  0
   36.3950   23.4330   40.5690 H   0  0  0  0  0  0  0  0  0  0  0  0
   35.5270   24.9150   40.9810 H   0  0  0  0  0  0  0  0  0  0  0  0
   36.6030   24.1770   42.9300 H   0  0  0  0  0  0  0  0  0  0  0  0
   38.1500   23.9230   42.0800 H   0  0  0  0  0  0  0  0  0  0  0  0
   38.8800   25.9960   42.5810 H   0  0  0  0  0  0  0  0  0  0  0  0
   37.3560   26.2570   43.4300 H   0  0  0  0  0  0  0  0  0  0  0  0
   36.2610   27.2270   41.7110 H   0  0  0  0  0  0  0  0  0  0  0  0
   36.8150   27.5360   39.1410 C   0  0  0  0  0  0  0  0  0  0  0  0
   37.5910   28.1560   38.1610 C   0  0  0  0  0  0  0  0  0  0  0  0
   37.0020   29.0480   37.2550 C   0  0  0  0  0  0  0  0  0  0  0  0
   35.6370   29.2520   37.4150 N   0  0  0  0  0  0  0  0  0  0  0  0
   34.9190   28.6350   38.3770 C   0  0  0  0  0  0  0  0  0  0  0  0
   35.5170   27.7790   39.2340 N   0  0  0  0  0  0  0  0  0  0  0  0
   38.6390   28.1220   37.9080 H   0  0  0  0  0  0  0  0  0  0  0  0
   37.4390   29.5950   36.4620 H   0  0  0  0  0  0  0  0  0  0  0  0
   33.8720   28.8640   38.4110 H   0  0  0  0  0  0  0  0  0  0  0  0
   38.0790   28.2740   41.7240 C   0  0  2  0  0  0  0  0  0  0  0  0
   37.7070   29.0790   42.9530 C   0  0  0  0  0  0  0  0  0  0  0  0
   37.4780   29.6040   41.5860 C   0  0  1  0  0  0  0  0  0  0  0  0
   39.1590   28.2100   41.5100 H   0  0  0  0  0  0  0  0  0  0  0  0
   38.5400   29.4410   43.5730 H   0  0  0  0  0  0  0  0  0  0  0  0
   36.8920   28.6330   43.5470 H   0  0  0  0  0  0  0  0  0  0  0  0
   36.3810   29.6740   41.3240 H   0  0  0  0  0  0  0  0  0  0  0  0
   37.7640   31.9640   40.6060 C   0  0  0  0  0  0  0  0  0  0  0  0
   38.2030   30.8240   41.2440 C   0  0  0  0  0  0  0  0  0  0  0  0
   39.5370   30.8900   41.6090 C   0  0  0  0  0  0  0  0  0  0  0  0
   40.0490   30.1060   42.1100 H   0  0  0  0  0  0  0  0  0  0  0  0
   40.3420   31.9810   41.3620 C   0  0  0  0  0  3  0  0  0  0  0  0
   39.8320   33.0930   40.7160 C   0  0  0  0  0  3  0  0  0  0  0  0
   38.5200   33.0660   40.3400 C   0  0  0  0  0  0  0  0  0  0  0  0
   36.4360   31.9680   40.2090 O   0  0  0  0  0  0  0  0  0  0  0  0
   36.0780   31.2550   39.5870 H   0  0  0  0  0  0  0  0  0  0  0  0
   37.9350   34.1590   39.6800 O   0  0  0  0  0  0  0  0  0  0  0  0
   37.2380   33.9340   38.9870 H   0  0  0  0  0  0  0  0  0  0  0  0
  1  7  1  6  0  0  0
  1  6  1  0  0  0  0
  2  1  1  0  0  0  0
  2  3  1  0  0  0  0
  3 11  1  0  0  0  0
  3  4  1  0  0  0  0
  4  5  1  0  0  0  0
  4 12  1  0  0  0  0
  5 14  1  0  0  0  0
  5 15  1  0  0  0  0
  6 16  1  1  0  0  0
  6 26  1  0  0  0  0
  6  5  1  0  0  0  0
  8  2  1  0  0  0  0
  9  2  1  0  0  0  0
 10  3  1  0  0  0  0
 13  4  1  0  0  0  0
 17 22  1  0  0  0  0
 17  1  1  0  0  0  0
 18 17  2  0  0  0  0
 19 20  2  0  0  0  0
 19 18  1  0  0  0  0
 20 21  1  0  0  0  0
 21 25  1  0  0  0  0
 21 22  2  0  0  0  0
 23 18  1  0  0  0  0
 24 19  1  0  0  0  0
 26 29  1  6  0  0  0
 26 27  1  0  0  0  0
 27 31  1  0  0  0  0
 27 30  1  0  0  0  0
 28 32  1  6  0  0  0
 28 26  1  0  0  0  0
 28 27  1  0  0  0  0
 33 34  1  0  0  0  0
 34 28  1  0  0  0  0
 34 35  2  0  0  0  0
 35 36  1  0  0  0  0
 37 35  1  0  0  0  0
 38 37  2  0  0  0  0
 39 33  2  0  0  0  0
 39 38  1  0  0  0  0
 40 33  1  0  0  0  0
 41 40  1  0  0  0  0
 42 39  1  0  0  0  0
 43 42  1  0  0  0  0
M  END
>  <minimizedAffinity>
-5.84660482

$$$$

 OpenBabel03242511593D

 43 46  0  0  1  0  0  0  0  0999 V2000
   38.1070   28.2470   40.7060 C   0  0  2  0  0  0  0  0  0  0  0  0
   37.2500   27.2780   41.4410 C   0  0  0  0  0  0  0  0  0  0  0  0
   36.5910   27.8570   42.6380 C   0  0  0  0  0  0  0  0  0  0  0  0
   37.5900   28.4690   43.5920 C   0  0  0  0  0  0  0  0  0  0  0  0
   38.6490   29.2920   42.9100 C   0  0  0  0  0  0  0  0  0  0  0  0
   38.3770   29.5190   41.4510 C   0  0  1  0  0  0  0  0  0  0  0  0
   39.1090   27.7620   40.4990 H   0  0  0  0  0  0  0  0  0  0  0  0
   36.4780   26.8530   40.7760 H   0  0  0  0  0  0  0  0  0  0  0  0
   37.8690   26.4260   41.7870 H   0  0  0  0  0  0  0  0  0  0  0  0
   36.0050   27.1110   43.1700 H   0  0  0  0  0  0  0  0  0  0  0  0
   35.8850   28.6860   42.3790 H   0  0  0  0  0  0  0  0  0  0  0  0
   37.0450   29.0070   44.3920 H   0  0  0  0  0  0  0  0  0  0  0  0
   38.1260   27.6230   44.0880 H   0  0  0  0  0  0  0  0  0  0  0  0
   39.6790   28.9250   43.0990 H   0  0  0  0  0  0  0  0  0  0  0  0
   38.6200   30.3040   43.4010 H   0  0  0  0  0  0  0  0  0  0  0  0
   37.5860   30.2840   41.3950 H   0  0  0  0  0  0  0  0  0  0  0  0
   37.5710   28.5790   39.3700 C   0  0  0  0  0  0  0  0  0  0  0  0
   36.3640   29.2810   39.3860 C   0  0  0  0  0  0  0  0  0  0  0  0
   35.7540   29.6600   38.1820 C   0  0  0  0  0  0  0  0  0  0  0  0
   36.4270   29.2880   37.0260 N   0  0  0  0  0  0  0  0  0  0  0  0
   37.5930   28.6080   37.0500 C   0  0  0  0  0  0  0  0  0  0  0  0
   38.1560   28.2590   38.2280 N   0  0  0  0  0  0  0  0  0  0  0  0
   35.7150   29.6310   40.1730 H   0  0  0  0  0  0  0  0  0  0  0  0
   34.8520   30.1880   38.0170 H   0  0  0  0  0  0  0  0  0  0  0  0
   38.0280   28.3730   36.0980 H   0  0  0  0  0  0  0  0  0  0  0  0
   39.6080   30.1520   40.8510 C   0  0  2  0  0  0  0  0  0  0  0  0
   39.9000   31.5980   41.1940 C   0  0  0  0  0  0  0  0  0  0  0  0
   39.5350   31.1890   39.8180 C   0  0  1  0  0  0  0  0  0  0  0  0
   40.4880   29.4890   40.8060 H   0  0  0  0  0  0  0  0  0  0  0  0
   40.9390   31.8390   41.4640 H   0  0  0  0  0  0  0  0  0  0  0  0
   39.1630   32.0510   41.8790 H   0  0  0  0  0  0  0  0  0  0  0  0
   38.5170   31.5670   39.5060 H   0  0  0  0  0  0  0  0  0  0  0  0
   40.9650   32.6130   38.2240 C   0  0  0  0  0  0  0  0  0  0  0  0
   40.5460   31.4300   38.7930 C   0  0  0  0  0  0  0  0  0  0  0  0
   41.2190   30.3260   38.2990 C   0  0  0  0  0  0  0  0  0  0  0  0
   41.0320   29.3300   38.6180 H   0  0  0  0  0  0  0  0  0  0  0  0
   42.2060   30.4010   37.3380 C   0  0  0  0  0  3  0  0  0  0  0  0
   42.5750   31.6260   36.8120 C   0  0  0  0  0  3  0  0  0  0  0  0
   41.9340   32.7380   37.2740 C   0  0  0  0  0  0  0  0  0  0  0  0
   40.3310   33.7630   38.6710 O   0  0  0  0  0  0  0  0  0  0  0  0
   39.3280   33.8640   38.5980 H   0  0  0  0  0  0  0  0  0  0  0  0
   42.2560   34.0140   36.7850 O   0  0  0  0  0  0  0  0  0  0  0  0
   41.4900   34.6660   36.7100 H   0  0  0  0  0  0  0  0  0  0  0  0
  1  7  1  6  0  0  0
  1  2  1  0  0  0  0
  1  6  1  0  0  0  0
  2  9  1  0  0  0  0
  2  3  1  0  0  0  0
  3 10  1  0  0  0  0
  3  4  1  0  0  0  0
  4 13  1  0  0  0  0
  4 12  1  0  0  0  0
  5 14  1  0  0  0  0
  5 15  1  0  0  0  0
  5  4  1  0  0  0  0
  6 16  1  6  0  0  0
  6  5  1  0  0  0  0
  8  2  1  0  0  0  0
 11  3  1  0  0  0  0
 17 18  1  0  0  0  0
 17  1  1  0  0  0  0
 18 23  1  0  0  0  0
 19 18  2  0  0  0  0
 20 21  2  0  0  0  0
 20 19  1  0  0  0  0
 21 22  1  0  0  0  0
 22 17  2  0  0  0  0
 24 19  1  0  0  0  0
 25 21  1  0  0  0  0
 26 29  1  6  0  0  0
 26 27  1  0  0  0  0
 26  6  1  0  0  0  0
 27 30  1  0  0  0  0
 27 31  1  0  0  0  0
 28 32  1  6  0  0  0
 28 26  1  0  0  0  0
 28 27  1  0  0  0  0
 33 40  1  0  0  0  0
 33 34  1  0  0  0  0
 34 28  1  0  0  0  0
 35 36  1  0  0  0  0
 35 34  2  0  0  0  0
 37 35  1  0  0  0  0
 38 39  1  0  0  0  0
 38 37  2  0  0  0  0
 39 33  2  0  0  0  0
 41 40  1  0  0  0  0
 42 39  1  0  0  0  0
 43 42  1  0  0  0  0
M  END
>  <minimizedAffinity>
-5.82811737

$$$$

 OpenBabel03242511593D

 43 46  0  0  1  0  0  0  0  0999 V2000
   37.3240   29.1400   41.6820 C   0  0  2  0  0  0  0  0  0  0  0  0
   38.0920   29.3610   42.9370 C   0  0  0  0  0  0  0  0  0  0  0  0
   39.0840   28.2940   43.2220 C   0  0  0  0  0  0  0  0  0  0  0  0
   38.4460   26.9250   43.2570 C   0  0  0  0  0  0  0  0  0  0  0  0
   37.4660   26.6880   42.1400 C   0  0  0  0  0  0  0  0  0  0  0  0
   37.4800   27.7690   41.0980 C   0  0  1  0  0  0  0  0  0  0  0  0
   36.2220   29.2880   41.8980 H   0  0  0  0  0  0  0  0  0  0  0  0
   38.6080   30.3360   42.9150 H   0  0  0  0  0  0  0  0  0  0  0  0
   37.3910   29.3960   43.7970 H   0  0  0  0  0  0  0  0  0  0  0  0
   39.5970   28.4700   44.1650 H   0  0  0  0  0  0  0  0  0  0  0  0
   39.8800   28.2300   42.4380 H   0  0  0  0  0  0  0  0  0  0  0  0
   39.2410   26.1570   43.3310 H   0  0  0  0  0  0  0  0  0  0  0  0
   37.8580   26.8650   44.2050 H   0  0  0  0  0  0  0  0  0  0  0  0
   36.4420   26.4540   42.4980 H   0  0  0  0  0  0  0  0  0  0  0  0
   37.8030   25.7450   41.6260 H   0  0  0  0  0  0  0  0  0  0  0  0
   38.3840   27.6070   40.4910 H   0  0  0  0  0  0  0  0  0  0  0  0
   37.6370   30.1410   40.6420 C   0  0  0  0  0  0  0  0  0  0  0  0
   36.6890   31.1570   40.5080 C   0  0  0  0  0  0  0  0  0  0  0  0
   36.8730   32.1720   39.5590 C   0  0  0  0  0  0  0  0  0  0  0  0
   38.0300   32.0780   38.7960 N   0  0  0  0  0  0  0  0  0  0  0  0
   38.9240   31.0790   38.9530 C   0  0  0  0  0  0  0  0  0  0  0  0
   38.7180   30.1160   39.8790 N   0  0  0  0  0  0  0  0  0  0  0  0
   35.7510   31.3720   40.9970 H   0  0  0  0  0  0  0  0  0  0  0  0
   36.2610   33.0040   39.3300 H   0  0  0  0  0  0  0  0  0  0  0  0
   39.7830   31.1030   38.3120 H   0  0  0  0  0  0  0  0  0  0  0  0
   36.3120   27.5260   40.1750 C   0  0  2  0  0  0  0  0  0  0  0  0
   36.5280   26.6170   38.9820 C   0  0  0  0  0  0  0  0  0  0  0  0
   36.2620   28.0640   38.8120 C   0  0  1  0  0  0  0  0  0  0  0  0
   35.3400   27.4150   40.6840 H   0  0  0  0  0  0  0  0  0  0  0  0
   35.7500   25.8640   38.7900 H   0  0  0  0  0  0  0  0  0  0  0  0
   37.5490   26.2040   38.9170 H   0  0  0  0  0  0  0  0  0  0  0  0
   37.1590   28.6310   38.4240 H   0  0  0  0  0  0  0  0  0  0  0  0
   33.8590   28.9410   38.5470 C   0  0  0  0  0  0  0  0  0  0  0  0
   35.0420   28.4050   38.0860 C   0  0  0  0  0  0  0  0  0  0  0  0
   35.0360   28.1800   36.7200 C   0  0  0  0  0  0  0  0  0  0  0  0
   35.8590   27.7710   36.1870 H   0  0  0  0  0  0  0  0  0  0  0  0
   33.9610   28.4630   35.9050 C   0  0  0  0  0  3  0  0  0  0  0  0
   32.8040   29.0020   36.4380 C   0  0  0  0  0  3  0  0  0  0  0  0
   32.7700   29.2380   37.7820 C   0  0  0  0  0  0  0  0  0  0  0  0
   33.7920   29.1910   39.9090 O   0  0  0  0  0  0  0  0  0  0  0  0
   33.9350   28.4490   40.5810 H   0  0  0  0  0  0  0  0  0  0  0  0
   31.6300   29.7830   38.3920 O   0  0  0  0  0  0  0  0  0  0  0  0
   31.4270   29.4550   39.3240 H   0  0  0  0  0  0  0  0  0  0  0  0
  1  7  1  1  0  0  0
  1  2  1  0  0  0  0
  2  3  1  0  0  0  0
  2  9  1  0  0  0  0
  3  4  1  0  0  0  0
  3 10  1  0  0  0  0
  4 12  1  0  0  0  0
  4 13  1  0  0  0  0
  5 14  1  0  0  0  0
  5  4  1  0  0  0  0
  6 16  1  6  0  0  0
  6  1  1  0  0  0  0
  6  5  1  0  0  0  0
  8  2  1  0  0  0  0
 11  3  1  0  0  0  0
 15  5  1  0  0  0  0
 17  1  1  0  0  0  0
 18 17  1  0  0  0  0
 18 23  1  0  0  0  0
 19 18  2  0  0  0  0
 20 21  2  0  0  0  0
 20 19  1  0  0  0  0
 21 22  1  0  0  0  0
 22 17  2  0  0  0  0
 24 19  1  0  0  0  0
 25 21  1  0  0  0  0
 26 29  1  1  0  0  0
 26  6  1  0  0  0  0
 27 26  1  0  0  0  0
 28 32  1  6  0  0  0
 28 27  1  0  0  0  0
 28 26  1  0  0  0  0
 30 27  1  0  0  0  0
 31 27  1  0  0  0  0
 33 40  1  0  0  0  0
 34 33  1  0  0  0  0
 34 28  1  0  0  0  0
 35 34  2  0  0  0  0
 36 35  1  0  0  0  0
 37 38  2  0  0  0  0
 37 35  1  0  0  0  0
 38 39  1  0  0  0  0
 39 42  1  0  0  0  0
 39 33  2  0  0  0  0
 40 41  1  0  0  0  0
 42 43  1  0  0  0  0
M  END
>  <minimizedAffinity>
-5.82239676

$$$$

 OpenBabel03242511593D

 43 46  0  0  1  0  0  0  0  0999 V2000
   38.5960   30.7950   40.2390 C   0  0  2  0  0  0  0  0  0  0  0  0
   39.2980   32.0020   40.7530 C   0  0  0  0  0  0  0  0  0  0  0  0
   38.4310   33.2040   40.8330 C   0  0  0  0  0  0  0  0  0  0  0  0
   37.7850   33.5250   39.5060 C   0  0  0  0  0  0  0  0  0  0  0  0
   37.2400   32.3170   38.7930 C   0  0  0  0  0  0  0  0  0  0  0  0
   37.2530   31.0740   39.6360 C   0  0  1  0  0  0  0  0  0  0  0  0
   39.2320   30.3190   39.4330 H   0  0  0  0  0  0  0  0  0  0  0  0
   39.7370   31.8080   41.7460 H   0  0  0  0  0  0  0  0  0  0  0  0
   40.1430   32.2510   40.0790 H   0  0  0  0  0  0  0  0  0  0  0  0
   38.9870   34.0740   41.1750 H   0  0  0  0  0  0  0  0  0  0  0  0
   37.5820   33.0720   41.5510 H   0  0  0  0  0  0  0  0  0  0  0  0
   37.0440   34.3360   39.6500 H   0  0  0  0  0  0  0  0  0  0  0  0
   38.5860   33.9390   38.8470 H   0  0  0  0  0  0  0  0  0  0  0  0
   37.6920   32.1570   37.7930 H   0  0  0  0  0  0  0  0  0  0  0  0
   36.1600   32.5450   38.5770 H   0  0  0  0  0  0  0  0  0  0  0  0
   36.4180   31.1700   40.3490 H   0  0  0  0  0  0  0  0  0  0  0  0
   38.4500   29.7440   41.2670 C   0  0  0  0  0  0  0  0  0  0  0  0
   39.4010   28.7250   41.1960 C   0  0  0  0  0  0  0  0  0  0  0  0
   39.3740   27.6700   42.1190 C   0  0  0  0  0  0  0  0  0  0  0  0
   38.3590   27.7270   43.0650 N   0  0  0  0  0  0  0  0  0  0  0  0
   37.4540   28.7280   43.1010 C   0  0  0  0  0  0  0  0  0  0  0  0
   37.5100   29.7320   42.1970 N   0  0  0  0  0  0  0  0  0  0  0  0
   40.2300   28.5230   40.5360 H   0  0  0  0  0  0  0  0  0  0  0  0
   40.0120   26.8300   42.2060 H   0  0  0  0  0  0  0  0  0  0  0  0
   36.7130   28.6740   43.8740 H   0  0  0  0  0  0  0  0  0  0  0  0
   36.9000   29.9130   38.7400 C   0  0  2  0  0  0  0  0  0  0  0  0
   37.9820   29.3610   37.8340 C   0  0  0  0  0  0  0  0  0  0  0  0
   36.7900   30.0480   37.2840 C   0  0  1  0  0  0  0  0  0  0  0  0
   36.2420   29.1590   39.2030 H   0  0  0  0  0  0  0  0  0  0  0  0
   38.0810   28.2670   37.7970 H   0  0  0  0  0  0  0  0  0  0  0  0
   38.9520   29.8760   37.9360 H   0  0  0  0  0  0  0  0  0  0  0  0
   37.0390   31.0460   36.8160 H   0  0  0  0  0  0  0  0  0  0  0  0
   36.1820   28.6890   35.1870 C   0  0  0  0  0  0  0  0  0  0  0  0
   35.9300   29.2390   36.4260 C   0  0  0  0  0  0  0  0  0  0  0  0
   34.6620   28.9480   36.8970 C   0  0  0  0  0  0  0  0  0  0  0  0
   34.2890   29.2860   37.8330 H   0  0  0  0  0  0  0  0  0  0  0  0
   33.7460   28.1870   36.2020 C   0  0  0  0  0  3  0  0  0  0  0  0
   34.0690   27.6660   34.9620 C   0  0  0  0  0  3  0  0  0  0  0  0
   35.3110   27.9320   34.4620 C   0  0  0  0  0  0  0  0  0  0  0  0
   37.4350   28.9430   34.6500 O   0  0  0  0  0  0  0  0  0  0  0  0
   37.7550   29.8910   34.5030 H   0  0  0  0  0  0  0  0  0  0  0  0
   35.7070   27.4370   33.2100 O   0  0  0  0  0  0  0  0  0  0  0  0
   36.3140   28.0350   32.6700 H   0  0  0  0  0  0  0  0  0  0  0  0
  1  7  1  6  0  0  0
  1  2  1  0  0  0  0
  1 17  1  0  0  0  0
  2  3  1  0  0  0  0
  2  8  1  0  0  0  0
  3 10  1  0  0  0  0
  3 11  1  0  0  0  0
  4 12  1  0  0  0  0
  4  3  1  0  0  0  0
  5  4  1  0  0  0  0
  5  6  1  0  0  0  0
  6  1  1  0  0  0  0
  6 16  1  1  0  0  0
  9  2  1  0  0  0  0
 13  4  1  0  0  0  0
 14  5  1  0  0  0  0
 15  5  1  0  0  0  0
 17 22  1  0  0  0  0
 18 17  2  0  0  0  0
 18 19  1  0  0  0  0
 19 24  1  0  0  0  0
 19 20  2  0  0  0  0
 20 21  1  0  0  0  0
 21 25  1  0  0  0  0
 22 21  2  0  0  0  0
 23 18  1  0  0  0  0
 26 29  1  1  0  0  0
 26  6  1  0  0  0  0
 27 31  1  0  0  0  0
 27 26  1  0  0  0  0
 28 32  1  6  0  0  0
 28 27  1  0  0  0  0
 28 26  1  0  0  0  0
 30 27  1  0  0  0  0
 33 34  1  0  0  0  0
 34 35  2  0  0  0  0
 34 28  1  0  0  0  0
 35 36  1  0  0  0  0
 37 35  1  0  0  0  0
 38 37  2  0  0  0  0
 39 38  1  0  0  0  0
 39 33  2  0  0  0  0
 40 33  1  0  0  0  0
 41 40  1  0  0  0  0
 42 39  1  0  0  0  0
 43 42  1  0  0  0  0
M  END
>  <minimizedAffinity>
-5.68571758

$$$$
