
 OpenBabel03252505193D

 36 39  0  0  0  0  0  0  0  0999 V2000
   45.9730   32.8480   46.8040 C   0  0  0  0  0  0  0  0  0  0  0  0
   45.0390   32.8030   47.8320 C   0  0  0  0  0  0  0  0  0  0  0  0
   45.2320   31.9120   48.8680 C   0  0  0  0  0  0  0  0  0  0  0  0
   46.3540   31.1070   48.8230 C   0  0  0  0  0  0  0  0  0  0  0  0
   47.2550   31.1920   47.7740 C   0  0  0  0  0  0  0  0  0  0  0  0
   47.0590   32.0740   46.7550 N   0  0  0  0  0  0  0  0  0  0  0  0
   44.1880   33.4680   47.7930 H   0  0  0  0  0  0  0  0  0  0  0  0
   44.5060   31.8770   49.6680 H   0  0  0  0  0  0  0  0  0  0  0  0
   46.4740   30.4310   49.6380 H   0  0  0  0  0  0  0  0  0  0  0  0
   44.6020   35.6280   44.7910 C   0  0  0  0  0  0  0  0  0  0  0  0
   45.2910   35.5110   43.5700 C   0  0  0  0  0  0  0  0  0  0  0  0
   46.2100   34.4850   43.4860 C   0  0  0  0  0  0  0  0  0  0  0  0
   46.4270   33.6340   44.5480 N   0  0  0  0  0  0  0  0  0  0  0  0
   45.7320   33.7870   45.7130 C   0  0  0  0  0  0  0  0  0  0  0  0
   44.8270   34.7880   45.8120 N   0  0  0  0  0  0  0  0  0  0  0  0
   43.8700   36.4190   44.9050 H   0  0  0  0  0  0  0  0  0  0  0  0
   45.1300   36.1670   42.7400 H   0  0  0  0  0  0  0  0  0  0  0  0
   46.9740   34.2470   42.2220 C   0  0  0  0  0  0  0  0  0  0  0  0
   48.0190   35.3260   41.9330 C   0  0  0  0  0  0  0  0  0  0  0  0
   48.3500   33.8370   42.2910 C   0  0  0  0  0  0  0  0  0  0  0  0
   46.2880   34.0090   41.3740 H   0  0  0  0  0  0  0  0  0  0  0  0
   48.0980   35.5950   40.8820 H   0  0  0  0  0  0  0  0  0  0  0  0
   48.2810   36.0550   42.7020 H   0  0  0  0  0  0  0  0  0  0  0  0
   48.8420   33.6630   43.2590 H   0  0  0  0  0  0  0  0  0  0  0  0
   48.7500   33.2600   41.4220 H   0  0  0  0  0  0  0  0  0  0  0  0
   48.7450   29.6100   46.5970 C   0  0  0  0  0  0  0  0  0  0  0  0
   48.4400   30.3470   47.7210 C   0  0  0  0  0  0  0  0  0  0  0  0
   49.3430   30.2010   48.7510 C   0  0  0  0  0  0  0  0  0  0  0  0
   49.1830   30.7420   49.6700 H   0  0  0  0  0  0  0  0  0  0  0  0
   50.4600   29.3950   48.6800 C   0  0  0  0  0  3  0  0  0  0  0  0
   50.7110   28.6820   47.5230 C   0  0  0  0  0  3  0  0  0  0  0  0
   49.8480   28.7910   46.4790 C   0  0  0  0  0  0  0  0  0  0  0  0
   47.9110   29.6710   45.4920 O   0  0  0  0  0  0  0  0  0  0  0  0
   47.1630   28.9960   45.3860 H   0  0  0  0  0  0  0  0  0  0  0  0
   50.0900   28.0740   45.3020 O   0  0  0  0  0  0  0  0  0  0  0  0
   50.2920   27.0870   45.3370 H   0  0  0  0  0  0  0  0  0  0  0  0
  1  2  1  0  0  0  0
  2  3  2  0  0  0  0
  3  8  1  0  0  0  0
  4  3  1  0  0  0  0
  4  9  1  0  0  0  0
  5  4  2  0  0  0  0
  6  1  2  0  0  0  0
  6  5  1  0  0  0  0
  7  2  1  0  0  0  0
 10 16  1  0  0  0  0
 10 15  1  0  0  0  0
 11 10  2  0  0  0  0
 12 11  1  0  0  0  0
 12 13  2  0  0  0  0
 13 14  1  0  0  0  0
 14 15  2  0  0  0  0
 14  1  1  0  0  0  0
 17 11  1  0  0  0  0
 18 20  1  0  0  0  0
 18 12  1  0  0  0  0
 19 18  1  0  0  0  0
 19 20  1  0  0  0  0
 19 23  1  0  0  0  0
 20 24  1  0  0  0  0
 21 18  1  0  0  0  0
 22 19  1  0  0  0  0
 25 20  1  0  0  0  0
 26 27  1  0  0  0  0
 27  5  1  0  0  0  0
 27 28  2  0  0  0  0
 28 29  1  0  0  0  0
 30 28  1  0  0  0  0
 31 30  2  0  0  0  0
 32 26  2  0  0  0  0
 32 31  1  0  0  0  0
 33 26  1  0  0  0  0
 34 33  1  0  0  0  0
 35 36  1  0  0  0  0
 35 32  1  0  0  0  0
M  END
>  <minimizedAffinity>
-5.98103189

>  <minimizedRMSD>
0.595660448

$$$$
