
     RDKit          3D

 25 26  0  0  0  0  0  0  0  0999 V2000
   44.3845   35.7747   44.4255 C   0  0  0  0  0  0  0  0  0  0  0  0
   44.6682   35.0601   43.2589 C   0  0  0  0  0  0  0  0  0  0  0  0
   45.2924   33.8268   43.3955 C   0  0  0  0  0  0  0  0  0  0  0  0
   45.5912   33.3852   44.6456 N   0  0  0  0  0  0  0  0  0  0  0  0
   45.3073   34.0922   45.7489 C   0  0  0  0  0  0  0  0  0  0  0  0
   44.7022   35.2924   45.6535 N   0  0  0  0  0  0  0  0  0  0  0  0
   44.2532   35.7346   42.0091 C   0  0  0  0  0  0  0  0  0  0  0  0
   43.8981   36.7556   44.4784 H   0  0  0  0  0  0  0  0  0  0  0  0
   45.4806   33.3337   42.4693 H   0  0  0  0  0  0  0  0  0  0  0  0
   43.1505   35.6888   41.8631 H   0  0  0  0  0  0  0  0  0  0  0  0
   44.7755   35.2253   41.1753 H   0  0  0  0  0  0  0  0  0  0  0  0
   44.4927   36.8129   42.0936 H   0  0  0  0  0  0  0  0  0  0  0  0
   47.7518   34.6430   46.9029 O   0  0  0  0  0  0  0  0  0  0  0  0
   46.8598   33.8460   47.6450 C   0  0  0  0  0  0  0  0  0  0  0  0
   45.6484   33.5747   47.0698 C   0  0  0  0  0  0  0  0  0  0  0  0
   44.7711   32.7986   47.7843 C   0  0  0  0  0  0  0  0  0  0  0  0
   43.8020   32.5370   47.4112 H   0  0  0  0  0  0  0  0  0  0  0  0
   45.1214   32.3203   49.0375 C   0  0  0  0  0  0  0  0  0  0  0  0
   46.3530   32.6092   49.5966 C   0  0  0  0  0  0  0  0  0  0  0  0
   47.2486   33.3911   48.8872 C   0  0  0  0  0  0  0  0  0  0  0  0
   48.5222   33.7478   49.3526 O   0  0  0  0  0  0  0  0  0  0  0  0
   47.7991   35.6408   47.0019 H   0  0  0  0  0  0  0  0  0  0  0  0
   44.4952   31.7059   49.6655 H   0  0  0  0  0  0  0  0  0  0  0  0
   46.7135   32.2826   50.5627 H   0  0  0  0  0  0  0  0  0  0  0  0
   48.9078   34.6657   49.1406 H   0  0  0  0  0  0  0  0  0  0  0  0
  1  6  2  0
  2  3  2  0
  2  1  1  0
  3  4  1  0
  4  5  2  0
  6  5  1  0
  7  2  1  0
  1  8  1  0
  3  9  1  0
  7 10  1  0
  7 11  1  0
  7 12  1  0
 13 14  1  0
 14 15  2  0
 15 16  1  0
 16 17  1  0
 16 18  2  0
 18 19  1  0
 19 20  2  0
 20 21  1  0
 20 14  1  0
 13 22  1  0
 18 23  1  0
 19 24  1  0
 21 25  1  0
  5 15  1  0
M  ISO  6   8  14   9  14  10   8  11   8  12   8  17  16
M  END
>  <DihAtoms>  (1) 
3,4,14,13

>  <DihDeg>  (1) 
-179.99571611363953

$$$$
