
 OpenBabel03242510203D

 38 41  0  0  1  0  0  0  0  0999 V2000
   38.0140   28.9920   41.9960 N   0  0  0  0  0  0  0  0  0  0  0  0
   38.4120   29.4880   40.7690 C   0  0  0  0  0  0  0  0  0  0  0  0
   38.4480   28.9370   39.6340 O   0  0  0  0  0  0  0  0  0  0  0  0
   38.6480   29.2130   42.8130 H   0  0  0  0  0  0  0  0  0  0  0  0
   37.0210   26.8010   42.5870 C   0  0  1  0  0  0  0  0  0  0  0  0
   36.6240   27.6940   43.6140 C   0  0  0  0  0  0  0  0  0  0  0  0
   36.8250   28.2250   42.1830 C   0  0  1  0  0  0  0  0  0  0  0  0
   36.3230   26.0840   42.1240 H   0  0  0  0  0  0  0  0  0  0  0  0
   37.2510   28.2010   44.3530 H   0  0  0  0  0  0  0  0  0  0  0  0
   35.5660   27.6300   43.9760 H   0  0  0  0  0  0  0  0  0  0  0  0
   35.8800   28.6690   41.8080 H   0  0  0  0  0  0  0  0  0  0  0  0
   39.3560   26.5390   43.6730 C   0  0  0  0  0  0  0  0  0  0  0  0
   38.4600   26.2870   42.5950 C   0  0  0  0  0  0  0  0  0  0  0  0
   38.9310   25.5700   41.5200 C   0  0  0  0  0  0  0  0  0  0  0  0
   40.2160   25.1380   41.5340 N   0  0  0  0  0  0  0  0  0  0  0  0
   41.0620   25.3790   42.5590 C   0  0  0  0  0  0  0  0  0  0  0  0
   40.6120   26.1050   43.6650 N   0  0  0  0  0  0  0  0  0  0  0  0
   38.9710   27.0940   44.4950 H   0  0  0  0  0  0  0  0  0  0  0  0
   38.2990   25.3510   40.6790 H   0  0  0  0  0  0  0  0  0  0  0  0
   42.0820   25.0280   42.5550 H   0  0  0  0  0  0  0  0  0  0  0  0
   38.8970   30.9230   40.6560 C   0  0  2  0  0  0  0  0  0  0  0  0
   37.8130   32.0130   40.3930 C   0  0  0  0  0  0  0  0  0  0  0  0
   38.8570   31.6420   39.3840 C   0  0  1  0  0  0  0  0  0  0  0  0
   39.5280   31.2870   41.5060 H   0  0  0  0  0  0  0  0  0  0  0  0
   37.9080   32.9770   40.9040 H   0  0  0  0  0  0  0  0  0  0  0  0
   36.7810   31.6620   40.3140 H   0  0  0  0  0  0  0  0  0  0  0  0
   38.3740   31.3110   38.4760 H   0  0  0  0  0  0  0  0  0  0  0  0
   40.6600   32.9150   37.9510 C   0  0  0  0  0  0  0  0  0  0  0  0
   40.0360   32.4880   39.1000 C   0  0  0  0  0  0  0  0  0  0  0  0
   40.5740   32.9130   40.3280 C   0  0  0  0  0  0  0  0  0  0  0  0
   40.2280   32.6870   41.3500 H   0  0  0  0  0  0  0  0  0  0  0  0
   41.7030   33.7400   40.3780 C   0  0  0  0  0  3  0  0  0  0  0  0
   42.2940   34.1420   39.2150 C   0  0  0  0  0  3  0  0  0  0  0  0
   41.7690   33.7270   38.0290 C   0  0  0  0  0  0  0  0  0  0  0  0
   40.0270   32.4220   36.8370 O   0  0  0  0  0  0  0  0  0  0  0  0
   40.2890   32.6720   35.9080 H   0  0  0  0  0  0  0  0  0  0  0  0
   42.3100   34.0910   36.8190 O   0  0  0  0  0  0  0  0  0  0  0  0
   42.7770   33.4530   36.1840 H   0  0  0  0  0  0  0  0  0  0  0  0
  1  7  1  0  0  0  0
  1  4  1  0  0  0  0
  2  1  1  0  0  0  0
  3  2  2  0  0  0  0
  5  8  1  6  0  0  0
  5 13  1  0  0  0  0
  5  6  1  0  0  0  0
  6 10  1  0  0  0  0
  6  9  1  0  0  0  0
  7 11  1  6  0  0  0
  7  5  1  0  0  0  0
  7  6  1  0  0  0  0
 12 18  1  0  0  0  0
 13 12  2  0  0  0  0
 14 15  2  0  0  0  0
 14 13  1  0  0  0  0
 15 16  1  0  0  0  0
 16 17  2  0  0  0  0
 17 12  1  0  0  0  0
 19 14  1  0  0  0  0
 20 16  1  0  0  0  0
 21  2  1  0  0  0  0
 21 24  1  1  0  0  0
 22 21  1  0  0  0  0
 22 25  1  0  0  0  0
 23 27  1  6  0  0  0
 23 22  1  0  0  0  0
 23 21  1  0  0  0  0
 26 22  1  0  0  0  0
 28 34  2  0  0  0  0
 28 29  1  0  0  0  0
 29 23  1  0  0  0  0
 29 30  2  0  0  0  0
 30 32  1  0  0  0  0
 30 31  1  0  0  0  0
 33 32  2  0  0  0  0
 34 33  1  0  0  0  0
 35 28  1  0  0  0  0
 36 35  1  0  0  0  0
 37 34  1  0  0  0  0
 38 37  1  0  0  0  0
M  END
>  <minimizedAffinity>
-6.36120462

$$$$

 OpenBabel03242510203D

 38 41  0  0  1  0  0  0  0  0999 V2000
   37.4980   30.0210   39.7450 N   0  0  0  0  0  0  0  0  0  0  0  0
   36.8320   29.9940   40.9570 C   0  0  0  0  0  0  0  0  0  0  0  0
   36.0630   30.8410   41.4890 O   0  0  0  0  0  0  0  0  0  0  0  0
   38.5100   29.7150   39.7660 H   0  0  0  0  0  0  0  0  0  0  0  0
   37.3460   31.7390   37.9670 C   0  0  1  0  0  0  0  0  0  0  0  0
   37.8570   30.5760   37.3370 C   0  0  0  0  0  0  0  0  0  0  0  0
   36.8860   30.4330   38.5240 C   0  0  1  0  0  0  0  0  0  0  0  0
   36.5550   32.3590   37.5150 H   0  0  0  0  0  0  0  0  0  0  0  0
   38.8170   30.0790   37.5050 H   0  0  0  0  0  0  0  0  0  0  0  0
   37.4500   30.3140   36.3280 H   0  0  0  0  0  0  0  0  0  0  0  0
   35.9810   29.8750   38.2060 H   0  0  0  0  0  0  0  0  0  0  0  0
   39.7080   32.4190   38.7810 C   0  0  0  0  0  0  0  0  0  0  0  0
   38.2920   32.5580   38.8460 C   0  0  0  0  0  0  0  0  0  0  0  0
   37.7740   33.4520   39.7520 C   0  0  0  0  0  0  0  0  0  0  0  0
   38.6260   34.1560   40.5380 N   0  0  0  0  0  0  0  0  0  0  0  0
   39.9680   34.0210   40.4730 C   0  0  0  0  0  0  0  0  0  0  0  0
   40.5240   33.1190   39.5610 N   0  0  0  0  0  0  0  0  0  0  0  0
   40.0890   31.7220   38.0720 H   0  0  0  0  0  0  0  0  0  0  0  0
   36.7130   33.5980   39.8440 H   0  0  0  0  0  0  0  0  0  0  0  0
   40.6330   34.5880   41.1040 H   0  0  0  0  0  0  0  0  0  0  0  0
   36.9740   28.7870   41.8690 C   0  0  2  0  0  0  0  0  0  0  0  0
   37.7040   29.0160   43.2290 C   0  0  0  0  0  0  0  0  0  0  0  0
   38.2790   28.1790   42.1260 C   0  0  1  0  0  0  0  0  0  0  0  0
   36.0260   28.2380   42.0940 H   0  0  0  0  0  0  0  0  0  0  0  0
   37.3210   28.5060   44.1180 H   0  0  0  0  0  0  0  0  0  0  0  0
   38.0540   30.0310   43.4260 H   0  0  0  0  0  0  0  0  0  0  0  0
   39.2400   28.5780   41.8380 H   0  0  0  0  0  0  0  0  0  0  0  0
   39.0900   25.7580   42.7620 C   0  0  0  0  0  0  0  0  0  0  0  0
   38.2880   26.7000   42.1620 C   0  0  0  0  0  0  0  0  0  0  0  0
   37.2030   26.2380   41.3960 C   0  0  0  0  0  0  0  0  0  0  0  0
   36.4500   26.8210   40.8420 H   0  0  0  0  0  0  0  0  0  0  0  0
   36.9490   24.8690   41.2490 C   0  0  0  0  0  3  0  0  0  0  0  0
   37.7690   23.9640   41.8600 C   0  0  0  0  0  3  0  0  0  0  0  0
   38.8180   24.4170   42.6010 C   0  0  0  0  0  0  0  0  0  0  0  0
   40.1030   26.3540   43.4710 O   0  0  0  0  0  0  0  0  0  0  0  0
   40.7500   25.8420   44.0300 H   0  0  0  0  0  0  0  0  0  0  0  0
   39.6850   23.5670   43.2440 O   0  0  0  0  0  0  0  0  0  0  0  0
   40.6570   23.4370   42.9880 H   0  0  0  0  0  0  0  0  0  0  0  0
  1  4  1  0  0  0  0
  1  2  1  0  0  0  0
  2  3  2  0  0  0  0
  2 21  1  0  0  0  0
  5  8  1  6  0  0  0
  5  7  1  0  0  0  0
  5 13  1  0  0  0  0
  6  9  1  0  0  0  0
  6  5  1  0  0  0  0
  6  7  1  0  0  0  0
  7 11  1  6  0  0  0
  7  1  1  0  0  0  0
 10  6  1  0  0  0  0
 12 13  2  0  0  0  0
 12 17  1  0  0  0  0
 13 14  1  0  0  0  0
 14 19  1  0  0  0  0
 14 15  2  0  0  0  0
 16 15  1  0  0  0  0
 16 20  1  0  0  0  0
 17 16  2  0  0  0  0
 18 12  1  0  0  0  0
 21 24  1  1  0  0  0
 21 23  1  0  0  0  0
 21 22  1  0  0  0  0
 22 26  1  0  0  0  0
 22 25  1  0  0  0  0
 23 27  1  6  0  0  0
 23 29  1  0  0  0  0
 23 22  1  0  0  0  0
 28 35  1  0  0  0  0
 29 28  2  0  0  0  0
 30 29  1  0  0  0  0
 31 30  1  0  0  0  0
 32 30  2  0  0  0  0
 32 33  1  0  0  0  0
 33 34  2  0  0  0  0
 34 28  1  0  0  0  0
 34 37  1  0  0  0  0
 35 36  1  0  0  0  0
 38 37  1  0  0  0  0
M  END
>  <minimizedAffinity>
-6.22713709

$$$$

 OpenBabel03242510203D

 38 41  0  0  1  0  0  0  0  0999 V2000
   36.2210   28.1580   42.1990 N   0  0  0  0  0  0  0  0  0  0  0  0
   36.1020   28.9750   41.0890 C   0  0  0  0  0  0  0  0  0  0  0  0
   35.9820   30.2280   41.0020 O   0  0  0  0  0  0  0  0  0  0  0  0
   35.6290   27.2820   42.1960 H   0  0  0  0  0  0  0  0  0  0  0  0
   38.2150   27.5020   43.5140 C   0  0  1  0  0  0  0  0  0  0  0  0
   38.5440   28.7400   42.9060 C   0  0  0  0  0  0  0  0  0  0  0  0
   37.0830   28.4510   43.2980 C   0  0  1  0  0  0  0  0  0  0  0  0
   38.4440   27.2810   44.5690 H   0  0  0  0  0  0  0  0  0  0  0  0
   38.6690   28.9620   41.8420 H   0  0  0  0  0  0  0  0  0  0  0  0
   39.0860   29.4950   43.5310 H   0  0  0  0  0  0  0  0  0  0  0  0
   36.7280   29.2130   44.0210 H   0  0  0  0  0  0  0  0  0  0  0  0
   37.0980   25.3820   42.5330 C   0  0  0  0  0  0  0  0  0  0  0  0
   38.2250   26.2460   42.6430 C   0  0  0  0  0  0  0  0  0  0  0  0
   39.3630   25.9120   41.9460 C   0  0  0  0  0  0  0  0  0  0  0  0
   39.3620   24.7840   41.1930 N   0  0  0  0  0  0  0  0  0  0  0  0
   38.2910   23.9680   41.0930 C   0  0  0  0  0  0  0  0  0  0  0  0
   37.1200   24.2820   41.7890 N   0  0  0  0  0  0  0  0  0  0  0  0
   36.2280   25.6590   43.0790 H   0  0  0  0  0  0  0  0  0  0  0  0
   40.2430   26.5270   41.9920 H   0  0  0  0  0  0  0  0  0  0  0  0
   38.3050   23.0740   40.4890 H   0  0  0  0  0  0  0  0  0  0  0  0
   36.1130   28.3640   39.6980 C   0  0  2  0  0  0  0  0  0  0  0  0
   37.3290   27.4550   39.3390 C   0  0  0  0  0  0  0  0  0  0  0  0
   37.0860   28.7840   38.6910 C   0  0  1  0  0  0  0  0  0  0  0  0
   35.1890   27.8030   39.4100 H   0  0  0  0  0  0  0  0  0  0  0  0
   37.1480   26.5510   38.7480 H   0  0  0  0  0  0  0  0  0  0  0  0
   38.0820   27.3210   40.1190 H   0  0  0  0  0  0  0  0  0  0  0  0
   37.9410   29.4230   38.8530 H   0  0  0  0  0  0  0  0  0  0  0  0
   37.1190   28.9940   36.0680 C   0  0  0  0  0  0  0  0  0  0  0  0
   36.5520   28.9230   37.3180 C   0  0  0  0  0  0  0  0  0  0  0  0
   35.1490   28.9810   37.4000 C   0  0  0  0  0  0  0  0  0  0  0  0
   34.5060   28.9410   38.2950 H   0  0  0  0  0  0  0  0  0  0  0  0
   34.3600   29.1070   36.2500 C   0  0  0  0  0  3  0  0  0  0  0  0
   34.9610   29.1740   35.0260 C   0  0  0  0  0  3  0  0  0  0  0  0
   36.3190   29.1170   34.9540 C   0  0  0  0  0  0  0  0  0  0  0  0
   38.4880   28.9250   36.1450 O   0  0  0  0  0  0  0  0  0  0  0  0
   39.0770   28.8940   35.3420 H   0  0  0  0  0  0  0  0  0  0  0  0
   36.9950   29.1800   33.7580 O   0  0  0  0  0  0  0  0  0  0  0  0
   37.5790   29.9550   33.4680 H   0  0  0  0  0  0  0  0  0  0  0  0
  1  7  1  0  0  0  0
  2  1  1  0  0  0  0
  3  2  2  0  0  0  0
  4  1  1  0  0  0  0
  5  8  1  1  0  0  0
  6  7  1  0  0  0  0
  6  5  1  0  0  0  0
  6 10  1  0  0  0  0
  7  5  1  0  0  0  0
  7 11  1  1  0  0  0
  9  6  1  0  0  0  0
 12 13  1  0  0  0  0
 12 18  1  0  0  0  0
 13  5  1  0  0  0  0
 14 19  1  0  0  0  0
 14 13  2  0  0  0  0
 15 14  1  0  0  0  0
 16 15  2  0  0  0  0
 16 17  1  0  0  0  0
 17 12  2  0  0  0  0
 20 16  1  0  0  0  0
 21 24  1  6  0  0  0
 21  2  1  0  0  0  0
 22 21  1  0  0  0  0
 22 26  1  0  0  0  0
 23 27  1  1  0  0  0
 23 22  1  0  0  0  0
 23 21  1  0  0  0  0
 25 22  1  0  0  0  0
 28 35  1  0  0  0  0
 28 29  1  0  0  0  0
 29 30  2  0  0  0  0
 29 23  1  0  0  0  0
 30 31  1  0  0  0  0
 32 30  1  0  0  0  0
 33 32  2  0  0  0  0
 34 33  1  0  0  0  0
 34 28  2  0  0  0  0
 36 35  1  0  0  0  0
 37 34  1  0  0  0  0
 38 37  1  0  0  0  0
M  END
>  <minimizedAffinity>
-5.82833862

$$$$

 OpenBabel03242510203D

 38 41  0  0  1  0  0  0  0  0999 V2000
   37.9850   25.5690   40.2100 N   0  0  0  0  0  0  0  0  0  0  0  0
   37.0670   26.4310   39.6400 C   0  0  0  0  0  0  0  0  0  0  0  0
   36.1030   26.2010   38.8590 O   0  0  0  0  0  0  0  0  0  0  0  0
   38.9940   25.8850   40.1870 H   0  0  0  0  0  0  0  0  0  0  0  0
   38.1450   24.0790   42.1830 C   0  0  1  0  0  0  0  0  0  0  0  0
   36.7790   24.4440   42.0840 C   0  0  0  0  0  0  0  0  0  0  0  0
   37.6260   24.3220   40.8040 C   0  0  1  0  0  0  0  0  0  0  0  0
   38.4690   23.0450   42.3840 H   0  0  0  0  0  0  0  0  0  0  0  0
   36.3290   25.4320   42.2100 H   0  0  0  0  0  0  0  0  0  0  0  0
   36.0160   23.6410   42.2530 H   0  0  0  0  0  0  0  0  0  0  0  0
   37.1870   23.5570   40.1320 H   0  0  0  0  0  0  0  0  0  0  0  0
   38.7210   26.4140   43.1420 C   0  0  0  0  0  0  0  0  0  0  0  0
   39.1290   25.1130   42.7310 C   0  0  0  0  0  0  0  0  0  0  0  0
   40.4650   24.7980   42.8210 C   0  0  0  0  0  0  0  0  0  0  0  0
   41.3270   25.7330   43.2920 N   0  0  0  0  0  0  0  0  0  0  0  0
   40.9350   26.9660   43.6800 C   0  0  0  0  0  0  0  0  0  0  0  0
   39.5840   27.3140   43.6010 N   0  0  0  0  0  0  0  0  0  0  0  0
   37.6830   26.6360   43.0660 H   0  0  0  0  0  0  0  0  0  0  0  0
   40.8290   23.8310   42.5250 H   0  0  0  0  0  0  0  0  0  0  0  0
   41.6330   27.6990   44.0520 H   0  0  0  0  0  0  0  0  0  0  0  0
   37.1360   27.9170   39.9440 C   0  0  2  0  0  0  0  0  0  0  0  0
   36.0350   28.4950   40.8860 C   0  0  0  0  0  0  0  0  0  0  0  0
   36.1300   28.8470   39.4320 C   0  0  1  0  0  0  0  0  0  0  0  0
   38.1210   28.2860   40.3280 H   0  0  0  0  0  0  0  0  0  0  0  0
   36.3220   29.2540   41.6210 H   0  0  0  0  0  0  0  0  0  0  0  0
   35.2950   27.7840   41.2610 H   0  0  0  0  0  0  0  0  0  0  0  0
   35.2070   28.5830   38.9390 H   0  0  0  0  0  0  0  0  0  0  0  0
   37.1420   30.5980   37.7480 C   0  0  0  0  0  0  0  0  0  0  0  0
   36.6560   30.1430   38.9520 C   0  0  0  0  0  0  0  0  0  0  0  0
   36.6080   31.0560   40.0210 C   0  0  0  0  0  0  0  0  0  0  0  0
   36.2570   30.8950   41.0530 H   0  0  0  0  0  0  0  0  0  0  0  0
   37.0380   32.3790   39.8640 C   0  0  0  0  0  3  0  0  0  0  0  0
   37.5150   32.7930   38.6540 C   0  0  0  0  0  3  0  0  0  0  0  0
   37.5590   31.9040   37.6230 C   0  0  0  0  0  0  0  0  0  0  0  0
   37.1300   29.6010   36.8060 O   0  0  0  0  0  0  0  0  0  0  0  0
   37.3810   29.7500   35.8530 H   0  0  0  0  0  0  0  0  0  0  0  0
   38.0250   32.2480   36.3760 O   0  0  0  0  0  0  0  0  0  0  0  0
   38.8840   31.8970   35.9670 H   0  0  0  0  0  0  0  0  0  0  0  0
  1  7  1  0  0  0  0
  2 21  1  0  0  0  0
  2  1  1  0  0  0  0
  3  2  2  0  0  0  0
  4  1  1  0  0  0  0
  5  8  1  1  0  0  0
  5 13  1  0  0  0  0
  6  5  1  0  0  0  0
  6  9  1  0  0  0  0
  6 10  1  0  0  0  0
  7 11  1  6  0  0  0
  7  6  1  0  0  0  0
  7  5  1  0  0  0  0
 12 17  1  0  0  0  0
 13 14  1  0  0  0  0
 13 12  2  0  0  0  0
 14 15  2  0  0  0  0
 15 16  1  0  0  0  0
 16 20  1  0  0  0  0
 17 16  2  0  0  0  0
 18 12  1  0  0  0  0
 19 14  1  0  0  0  0
 21 24  1  1  0  0  0
 21 22  1  0  0  0  0
 22 26  1  0  0  0  0
 22 25  1  0  0  0  0
 23 27  1  6  0  0  0
 23 21  1  0  0  0  0
 23 22  1  0  0  0  0
 28 29  1  0  0  0  0
 29 23  1  0  0  0  0
 29 30  2  0  0  0  0
 30 31  1  0  0  0  0
 32 30  1  0  0  0  0
 33 32  2  0  0  0  0
 34 28  2  0  0  0  0
 34 33  1  0  0  0  0
 35 28  1  0  0  0  0
 36 35  1  0  0  0  0
 37 34  1  0  0  0  0
 38 37  1  0  0  0  0
M  END
>  <minimizedAffinity>
-5.81865311

$$$$

 OpenBabel03242510203D

 38 41  0  0  1  0  0  0  0  0999 V2000
   38.6110   27.5610   42.3020 N   0  0  0  0  0  0  0  0  0  0  0  0
   37.3550   28.1050   42.5000 C   0  0  0  0  0  0  0  0  0  0  0  0
   36.3730   27.6790   43.1680 O   0  0  0  0  0  0  0  0  0  0  0  0
   38.9730   27.5800   41.3090 H   0  0  0  0  0  0  0  0  0  0  0  0
   39.7590   25.5610   43.2050 C   0  0  1  0  0  0  0  0  0  0  0  0
   40.7840   26.4970   42.9170 C   0  0  0  0  0  0  0  0  0  0  0  0
   39.3970   27.0020   43.3540 C   0  0  1  0  0  0  0  0  0  0  0  0
   39.7370   24.9760   44.1390 H   0  0  0  0  0  0  0  0  0  0  0  0
   41.0950   26.8840   41.9420 H   0  0  0  0  0  0  0  0  0  0  0  0
   41.6100   26.6060   43.6650 H   0  0  0  0  0  0  0  0  0  0  0  0
   39.4880   27.6020   44.2820 H   0  0  0  0  0  0  0  0  0  0  0  0
   37.7960   24.2800   42.1050 C   0  0  0  0  0  0  0  0  0  0  0  0
   39.1150   24.8140   42.0370 C   0  0  0  0  0  0  0  0  0  0  0  0
   39.8280   24.6250   40.8770 C   0  0  0  0  0  0  0  0  0  0  0  0
   39.2490   23.9440   39.8570 N   0  0  0  0  0  0  0  0  0  0  0  0
   37.9980   23.4400   39.9260 C   0  0  0  0  0  0  0  0  0  0  0  0
   37.2490   23.6160   41.0930 N   0  0  0  0  0  0  0  0  0  0  0  0
   37.2620   24.4390   43.0120 H   0  0  0  0  0  0  0  0  0  0  0  0
   40.8270   25.0070   40.7700 H   0  0  0  0  0  0  0  0  0  0  0  0
   37.5510   22.9000   39.1060 H   0  0  0  0  0  0  0  0  0  0  0  0
   37.0000   29.4360   41.8590 C   0  0  2  0  0  0  0  0  0  0  0  0
   36.1500   29.3830   40.5520 C   0  0  0  0  0  0  0  0  0  0  0  0
   37.5770   29.8420   40.5780 C   0  0  1  0  0  0  0  0  0  0  0  0
   36.5130   30.1830   42.5360 H   0  0  0  0  0  0  0  0  0  0  0  0
   35.3680   30.1350   40.4070 H   0  0  0  0  0  0  0  0  0  0  0  0
   35.8690   28.3890   40.1970 H   0  0  0  0  0  0  0  0  0  0  0  0
   38.1640   29.2230   39.9160 H   0  0  0  0  0  0  0  0  0  0  0  0
   39.0040   32.0150   40.9840 C   0  0  0  0  0  0  0  0  0  0  0  0
   37.9640   31.2660   40.4840 C   0  0  0  0  0  0  0  0  0  0  0  0
   37.0130   31.9250   39.6860 C   0  0  0  0  0  0  0  0  0  0  0  0
   36.1160   31.5120   39.1960 H   0  0  0  0  0  0  0  0  0  0  0  0
   37.1190   33.2940   39.4110 C   0  0  0  0  0  3  0  0  0  0  0  0
   38.1660   34.0040   39.9260 C   0  0  0  0  0  3  0  0  0  0  0  0
   39.0840   33.3590   40.6980 C   0  0  0  0  0  0  0  0  0  0  0  0
   39.8470   31.2410   41.7400 O   0  0  0  0  0  0  0  0  0  0  0  0
   40.6960   31.5860   42.1340 H   0  0  0  0  0  0  0  0  0  0  0  0
   40.1640   34.0070   41.2500 O   0  0  0  0  0  0  0  0  0  0  0  0
   40.2870   34.1750   42.2420 H   0  0  0  0  0  0  0  0  0  0  0  0
  1  2  1  0  0  0  0
  1  7  1  0  0  0  0
  2  3  2  0  0  0  0
  4  1  1  0  0  0  0
  5  7  1  0  0  0  0
  5  8  1  1  0  0  0
  6  5  1  0  0  0  0
  6  7  1  0  0  0  0
  6 10  1  0  0  0  0
  7 11  1  1  0  0  0
  9  6  1  0  0  0  0
 12 18  1  0  0  0  0
 13 12  1  0  0  0  0
 13  5  1  0  0  0  0
 14 13  2  0  0  0  0
 15 16  2  0  0  0  0
 15 14  1  0  0  0  0
 16 17  1  0  0  0  0
 17 12  2  0  0  0  0
 19 14  1  0  0  0  0
 20 16  1  0  0  0  0
 21  2  1  0  0  0  0
 21 24  1  1  0  0  0
 22 23  1  0  0  0  0
 22 21  1  0  0  0  0
 23 27  1  6  0  0  0
 23 21  1  0  0  0  0
 25 22  1  0  0  0  0
 26 22  1  0  0  0  0
 28 35  1  0  0  0  0
 29 23  1  0  0  0  0
 29 28  2  0  0  0  0
 30 29  1  0  0  0  0
 31 30  1  0  0  0  0
 32 30  2  0  0  0  0
 32 33  1  0  0  0  0
 33 34  2  0  0  0  0
 34 28  1  0  0  0  0
 34 37  1  0  0  0  0
 35 36  1  0  0  0  0
 37 38  1  0  0  0  0
M  END
>  <minimizedAffinity>
-5.77300882

$$$$

 OpenBabel03242510203D

 38 41  0  0  1  0  0  0  0  0999 V2000
   37.9950   26.4130   41.3330 N   0  0  0  0  0  0  0  0  0  0  0  0
   37.1890   26.2740   40.2190 C   0  0  0  0  0  0  0  0  0  0  0  0
   36.3160   25.4060   39.9420 O   0  0  0  0  0  0  0  0  0  0  0  0
   39.0120   26.6330   41.1450 H   0  0  0  0  0  0  0  0  0  0  0  0
   37.8880   27.3700   43.6150 C   0  0  1  0  0  0  0  0  0  0  0  0
   36.5580   27.3950   43.1240 C   0  0  0  0  0  0  0  0  0  0  0  0
   37.5150   26.2760   42.6700 C   0  0  1  0  0  0  0  0  0  0  0  0
   38.1350   27.0400   44.6370 H   0  0  0  0  0  0  0  0  0  0  0  0
   36.1530   27.9770   42.2920 H   0  0  0  0  0  0  0  0  0  0  0  0
   35.7410   27.0930   43.8270 H   0  0  0  0  0  0  0  0  0  0  0  0
   37.1010   25.2870   42.9530 H   0  0  0  0  0  0  0  0  0  0  0  0
   40.2760   28.1940   43.0460 C   0  0  0  0  0  0  0  0  0  0  0  0
   38.8700   28.4180   43.0900 C   0  0  0  0  0  0  0  0  0  0  0  0
   38.3970   29.6350   42.6580 C   0  0  0  0  0  0  0  0  0  0  0  0
   39.2840   30.5590   42.2140 N   0  0  0  0  0  0  0  0  0  0  0  0
   40.6160   30.3430   42.1740 C   0  0  0  0  0  0  0  0  0  0  0  0
   41.1250   29.1150   42.6060 N   0  0  0  0  0  0  0  0  0  0  0  0
   40.6200   27.2450   43.3840 H   0  0  0  0  0  0  0  0  0  0  0  0
   37.3460   29.8580   42.6690 H   0  0  0  0  0  0  0  0  0  0  0  0
   41.3080   31.0890   41.8170 H   0  0  0  0  0  0  0  0  0  0  0  0
   37.2850   27.2820   39.0860 C   0  0  2  0  0  0  0  0  0  0  0  0
   38.1630   26.8810   37.8600 C   0  0  0  0  0  0  0  0  0  0  0  0
   38.5340   27.9880   38.8010 C   0  0  1  0  0  0  0  0  0  0  0  0
   36.3080   27.6500   38.6830 H   0  0  0  0  0  0  0  0  0  0  0  0
   37.8140   27.1500   36.8590 H   0  0  0  0  0  0  0  0  0  0  0  0
   38.6410   25.8990   37.9060 H   0  0  0  0  0  0  0  0  0  0  0  0
   39.5000   27.7800   39.2340 H   0  0  0  0  0  0  0  0  0  0  0  0
   39.0860   30.2950   37.6620 C   0  0  0  0  0  0  0  0  0  0  0  0
   38.3840   29.4180   38.4560 C   0  0  0  0  0  0  0  0  0  0  0  0
   37.2480   29.9110   39.1230 C   0  0  0  0  0  0  0  0  0  0  0  0
   36.5570   29.3790   39.7980 H   0  0  0  0  0  0  0  0  0  0  0  0
   36.8470   31.2450   38.9840 C   0  0  0  0  0  3  0  0  0  0  0  0
   37.5700   32.0850   38.1870 C   0  0  0  0  0  3  0  0  0  0  0  0
   38.6680   31.6020   37.5430 C   0  0  0  0  0  0  0  0  0  0  0  0
   40.1630   29.6760   37.0800 O   0  0  0  0  0  0  0  0  0  0  0  0
   40.7570   30.1260   36.4170 H   0  0  0  0  0  0  0  0  0  0  0  0
   39.4450   32.3870   36.7240 O   0  0  0  0  0  0  0  0  0  0  0  0
   40.3950   32.6720   36.9340 H   0  0  0  0  0  0  0  0  0  0  0  0
  1  7  1  0  0  0  0
  2  1  1  0  0  0  0
  3  2  2  0  0  0  0
  4  1  1  0  0  0  0
  5  8  1  1  0  0  0
  6  5  1  0  0  0  0
  6 10  1  0  0  0  0
  7 11  1  1  0  0  0
  7  6  1  0  0  0  0
  7  5  1  0  0  0  0
  9  6  1  0  0  0  0
 12 13  1  0  0  0  0
 12 18  1  0  0  0  0
 13  5  1  0  0  0  0
 14 19  1  0  0  0  0
 14 13  2  0  0  0  0
 15 14  1  0  0  0  0
 16 15  2  0  0  0  0
 16 17  1  0  0  0  0
 17 12  2  0  0  0  0
 20 16  1  0  0  0  0
 21 24  1  6  0  0  0
 21  2  1  0  0  0  0
 22 26  1  0  0  0  0
 22 23  1  0  0  0  0
 22 21  1  0  0  0  0
 23 21  1  0  0  0  0
 23 27  1  1  0  0  0
 25 22  1  0  0  0  0
 28 29  1  0  0  0  0
 29 23  1  0  0  0  0
 29 30  2  0  0  0  0
 30 31  1  0  0  0  0
 32 30  1  0  0  0  0
 33 32  2  0  0  0  0
 34 28  2  0  0  0  0
 34 33  1  0  0  0  0
 35 28  1  0  0  0  0
 36 35  1  0  0  0  0
 37 38  1  0  0  0  0
 37 34  1  0  0  0  0
M  END
>  <minimizedAffinity>
-5.68050766

$$$$

 OpenBabel03242510203D

 38 41  0  0  1  0  0  0  0  0999 V2000
   38.1760   29.8930   41.2110 N   0  0  0  0  0  0  0  0  0  0  0  0
   37.5080   31.0080   40.7410 C   0  0  0  0  0  0  0  0  0  0  0  0
   36.3330   31.4130   40.9610 O   0  0  0  0  0  0  0  0  0  0  0  0
   38.7280   29.3460   40.4930 H   0  0  0  0  0  0  0  0  0  0  0  0
   38.1060   28.0050   42.8130 C   0  0  1  0  0  0  0  0  0  0  0  0
   39.3580   28.6380   43.0180 C   0  0  0  0  0  0  0  0  0  0  0  0
   38.1450   29.4790   42.5760 C   0  0  1  0  0  0  0  0  0  0  0  0
   37.4610   27.6840   43.6480 H   0  0  0  0  0  0  0  0  0  0  0  0
   40.2040   28.7080   42.3290 H   0  0  0  0  0  0  0  0  0  0  0  0
   39.7000   28.7780   44.0750 H   0  0  0  0  0  0  0  0  0  0  0  0
   37.9340   30.2640   43.3320 H   0  0  0  0  0  0  0  0  0  0  0  0
   39.0390   26.4790   40.9420 C   0  0  0  0  0  0  0  0  0  0  0  0
   37.9380   27.1220   41.5770 C   0  0  0  0  0  0  0  0  0  0  0  0
   36.6870   26.9450   41.0340 C   0  0  0  0  0  0  0  0  0  0  0  0
   36.5590   26.1730   39.9260 N   0  0  0  0  0  0  0  0  0  0  0  0
   37.6060   25.5660   39.3270 C   0  0  0  0  0  0  0  0  0  0  0  0
   38.8890   25.7270   39.8570 N   0  0  0  0  0  0  0  0  0  0  0  0
   39.9970   26.6280   41.3790 H   0  0  0  0  0  0  0  0  0  0  0  0
   35.8210   27.4060   41.4720 H   0  0  0  0  0  0  0  0  0  0  0  0
   37.4870   24.9550   38.4460 H   0  0  0  0  0  0  0  0  0  0  0  0
   38.2160   31.9740   39.8060 C   0  0  2  0  0  0  0  0  0  0  0  0
   37.9150   31.8270   38.2830 C   0  0  0  0  0  0  0  0  0  0  0  0
   39.2530   31.5170   38.8830 C   0  0  1  0  0  0  0  0  0  0  0  0
   38.1040   33.0590   40.0580 H   0  0  0  0  0  0  0  0  0  0  0  0
   37.8180   32.7350   37.6800 H   0  0  0  0  0  0  0  0  0  0  0  0
   37.2120   31.0400   38.0010 H   0  0  0  0  0  0  0  0  0  0  0  0
   39.5120   30.4910   38.6690 H   0  0  0  0  0  0  0  0  0  0  0  0
   41.1550   32.8900   37.6890 C   0  0  0  0  0  0  0  0  0  0  0  0
   40.4210   32.4150   38.7510 C   0  0  0  0  0  0  0  0  0  0  0  0
   40.7930   32.8380   40.0400 C   0  0  0  0  0  0  0  0  0  0  0  0
   40.3410   32.5780   41.0110 H   0  0  0  0  0  0  0  0  0  0  0  0
   41.8720   33.7090   40.2340 C   0  0  0  0  0  3  0  0  0  0  0  0
   42.5770   34.1580   39.1540 C   0  0  0  0  0  3  0  0  0  0  0  0
   42.2110   33.7450   37.9090 C   0  0  0  0  0  0  0  0  0  0  0  0
   40.6770   32.3940   36.5030 O   0  0  0  0  0  0  0  0  0  0  0  0
   41.0340   32.6720   35.6140 H   0  0  0  0  0  0  0  0  0  0  0  0
   42.8730   34.1540   36.7750 O   0  0  0  0  0  0  0  0  0  0  0  0
   43.4370   33.5490   36.1900 H   0  0  0  0  0  0  0  0  0  0  0  0
  1  7  1  0  0  0  0
  2  3  2  0  0  0  0
  2  1  1  0  0  0  0
  4  1  1  0  0  0  0
  5  6  1  0  0  0  0
  5  8  1  1  0  0  0
  6 10  1  0  0  0  0
  7  5  1  0  0  0  0
  7  6  1  0  0  0  0
  7 11  1  1  0  0  0
  9  6  1  0  0  0  0
 12 18  1  0  0  0  0
 12 13  1  0  0  0  0
 13  5  1  0  0  0  0
 14 19  1  0  0  0  0
 14 13  2  0  0  0  0
 15 14  1  0  0  0  0
 16 17  1  0  0  0  0
 16 15  2  0  0  0  0
 17 12  2  0  0  0  0
 20 16  1  0  0  0  0
 21 24  1  1  0  0  0
 21  2  1  0  0  0  0
 22 23  1  0  0  0  0
 22 21  1  0  0  0  0
 23 27  1  1  0  0  0
 23 21  1  0  0  0  0
 25 22  1  0  0  0  0
 26 22  1  0  0  0  0
 28 34  2  0  0  0  0
 28 29  1  0  0  0  0
 29 23  1  0  0  0  0
 29 30  2  0  0  0  0
 30 32  1  0  0  0  0
 30 31  1  0  0  0  0
 33 32  2  0  0  0  0
 34 33  1  0  0  0  0
 35 28  1  0  0  0  0
 36 35  1  0  0  0  0
 37 34  1  0  0  0  0
 38 37  1  0  0  0  0
M  END
>  <minimizedAffinity>
-5.67911148

$$$$

 OpenBabel03242510203D

 38 41  0  0  1  0  0  0  0  0999 V2000
   36.7740   25.5980   40.7740 N   0  0  0  0  0  0  0  0  0  0  0  0
   37.6390   25.8870   41.8140 C   0  0  0  0  0  0  0  0  0  0  0  0
   38.3340   25.1230   42.5380 O   0  0  0  0  0  0  0  0  0  0  0  0
   35.8490   26.1100   40.7850 H   0  0  0  0  0  0  0  0  0  0  0  0
   37.0940   25.2230   38.3460 C   0  0  1  0  0  0  0  0  0  0  0  0
   38.3610   24.9990   38.9410 C   0  0  0  0  0  0  0  0  0  0  0  0
   37.0820   24.6710   39.7340 C   0  0  1  0  0  0  0  0  0  0  0  0
   36.6760   24.5550   37.5750 H   0  0  0  0  0  0  0  0  0  0  0  0
   39.0090   25.7190   39.4500 H   0  0  0  0  0  0  0  0  0  0  0  0
   38.9570   24.1250   38.5760 H   0  0  0  0  0  0  0  0  0  0  0  0
   37.0710   23.5950   40.0040 H   0  0  0  0  0  0  0  0  0  0  0  0
   35.2510   27.0010   37.9640 C   0  0  0  0  0  0  0  0  0  0  0  0
   36.6180   26.6660   38.1850 C   0  0  0  0  0  0  0  0  0  0  0  0
   37.5320   27.6920   38.2330 C   0  0  0  0  0  0  0  0  0  0  0  0
   37.0960   28.9650   38.0680 N   0  0  0  0  0  0  0  0  0  0  0  0
   35.7990   29.2780   37.8590 C   0  0  0  0  0  0  0  0  0  0  0  0
   34.8470   28.2560   37.8050 N   0  0  0  0  0  0  0  0  0  0  0  0
   34.5600   26.1920   37.9320 H   0  0  0  0  0  0  0  0  0  0  0  0
   38.5770   27.4980   38.3970 H   0  0  0  0  0  0  0  0  0  0  0  0
   35.4680   30.2960   37.7300 H   0  0  0  0  0  0  0  0  0  0  0  0
   37.8670   27.3310   42.2260 C   0  0  2  0  0  0  0  0  0  0  0  0
   36.9850   27.8780   43.3910 C   0  0  0  0  0  0  0  0  0  0  0  0
   36.8590   28.3610   41.9780 C   0  0  1  0  0  0  0  0  0  0  0  0
   38.9260   27.6040   42.4620 H   0  0  0  0  0  0  0  0  0  0  0  0
   37.4460   28.5450   44.1260 H   0  0  0  0  0  0  0  0  0  0  0  0
   36.2700   27.1770   43.8280 H   0  0  0  0  0  0  0  0  0  0  0  0
   35.8490   28.1990   41.6330 H   0  0  0  0  0  0  0  0  0  0  0  0
   36.8170   30.8500   41.1240 C   0  0  0  0  0  0  0  0  0  0  0  0
   37.3890   29.6650   41.5250 C   0  0  0  0  0  0  0  0  0  0  0  0
   38.7940   29.5960   41.5450 C   0  0  0  0  0  0  0  0  0  0  0  0
   39.4410   28.7510   41.8300 H   0  0  0  0  0  0  0  0  0  0  0  0
   39.5800   30.6930   41.1690 C   0  0  0  0  0  3  0  0  0  0  0  0
   38.9740   31.8510   40.7770 C   0  0  0  0  0  3  0  0  0  0  0  0
   37.6130   31.9120   40.7600 C   0  0  0  0  0  0  0  0  0  0  0  0
   35.4470   30.7680   41.1550 O   0  0  0  0  0  0  0  0  0  0  0  0
   34.8510   31.5440   40.9630 H   0  0  0  0  0  0  0  0  0  0  0  0
   36.9330   33.0440   40.3770 O   0  0  0  0  0  0  0  0  0  0  0  0
   36.3800   33.1230   39.5320 H   0  0  0  0  0  0  0  0  0  0  0  0
  1  4  1  0  0  0  0
  1  2  1  0  0  0  0
  2 21  1  0  0  0  0
  2  3  2  0  0  0  0
  5  8  1  6  0  0  0
  5  6  1  0  0  0  0
  5  7  1  0  0  0  0
  6  9  1  0  0  0  0
  6  7  1  0  0  0  0
  7 11  1  1  0  0  0
  7  1  1  0  0  0  0
 10  6  1  0  0  0  0
 12 13  1  0  0  0  0
 13 14  2  0  0  0  0
 13  5  1  0  0  0  0
 14 19  1  0  0  0  0
 15 14  1  0  0  0  0
 16 15  2  0  0  0  0
 17 16  1  0  0  0  0
 17 12  2  0  0  0  0
 18 12  1  0  0  0  0
 20 16  1  0  0  0  0
 21 24  1  6  0  0  0
 21 22  1  0  0  0  0
 22 26  1  0  0  0  0
 22 25  1  0  0  0  0
 23 27  1  6  0  0  0
 23 21  1  0  0  0  0
 23 22  1  0  0  0  0
 28 35  1  0  0  0  0
 28 29  1  0  0  0  0
 29 30  2  0  0  0  0
 29 23  1  0  0  0  0
 30 31  1  0  0  0  0
 32 30  1  0  0  0  0
 33 32  2  0  0  0  0
 34 33  1  0  0  0  0
 34 28  2  0  0  0  0
 36 35  1  0  0  0  0
 37 34  1  0  0  0  0
 38 37  1  0  0  0  0
M  END
>  <minimizedAffinity>
-5.66490793

$$$$

 OpenBabel03242510203D

 38 41  0  0  1  0  0  0  0  0999 V2000
   39.8620   31.5440   39.9910 N   0  0  0  0  0  0  0  0  0  0  0  0
   40.4650   31.3840   41.2250 C   0  0  0  0  0  0  0  0  0  0  0  0
   41.3310   32.0890   41.8120 O   0  0  0  0  0  0  0  0  0  0  0  0
   39.7890   30.6740   39.3940 H   0  0  0  0  0  0  0  0  0  0  0  0
   37.8820   32.8670   39.3090 C   0  0  1  0  0  0  0  0  0  0  0  0
   38.3770   33.4900   40.4830 C   0  0  0  0  0  0  0  0  0  0  0  0
   39.3580   32.7940   39.5210 C   0  0  1  0  0  0  0  0  0  0  0  0
   37.5660   33.4410   38.4230 H   0  0  0  0  0  0  0  0  0  0  0  0
   38.4140   33.0900   41.5000 H   0  0  0  0  0  0  0  0  0  0  0  0
   38.4090   34.6090   40.5000 H   0  0  0  0  0  0  0  0  0  0  0  0
   40.1050   33.5250   39.1480 H   0  0  0  0  0  0  0  0  0  0  0  0
   36.9290   30.6460   38.3810 C   0  0  0  0  0  0  0  0  0  0  0  0
   37.1070   31.5580   39.4600 C   0  0  0  0  0  0  0  0  0  0  0  0
   36.5390   31.2420   40.6710 C   0  0  0  0  0  0  0  0  0  0  0  0
   35.8390   30.0860   40.7830 N   0  0  0  0  0  0  0  0  0  0  0  0
   35.6720   29.2240   39.7570 C   0  0  0  0  0  0  0  0  0  0  0  0
   36.2390   29.5190   38.5130 N   0  0  0  0  0  0  0  0  0  0  0  0
   37.3780   30.9100   37.4530 H   0  0  0  0  0  0  0  0  0  0  0  0
   36.6410   31.8930   41.5200 H   0  0  0  0  0  0  0  0  0  0  0  0
   35.1120   28.3090   39.8620 H   0  0  0  0  0  0  0  0  0  0  0  0
   40.0860   30.2020   42.1010 C   0  0  2  0  0  0  0  0  0  0  0  0
   41.2070   29.1580   42.3960 C   0  0  0  0  0  0  0  0  0  0  0  0
   40.0040   28.8470   41.5580 C   0  0  1  0  0  0  0  0  0  0  0  0
   39.6140   30.4610   43.0820 H   0  0  0  0  0  0  0  0  0  0  0  0
   41.2640   28.7220   43.3990 H   0  0  0  0  0  0  0  0  0  0  0  0
   42.1850   29.3570   41.9520 H   0  0  0  0  0  0  0  0  0  0  0  0
   40.3240   28.5310   40.5760 H   0  0  0  0  0  0  0  0  0  0  0  0
   38.3880   26.7810   41.7680 C   0  0  0  0  0  0  0  0  0  0  0  0
   38.8680   28.0380   42.0510 C   0  0  0  0  0  0  0  0  0  0  0  0
   38.1870   28.7910   43.0240 C   0  0  0  0  0  0  0  0  0  0  0  0
   38.4060   29.8060   43.3920 H   0  0  0  0  0  0  0  0  0  0  0  0
   37.0610   28.2790   43.6800 C   0  0  0  0  0  3  0  0  0  0  0  0
   36.6140   27.0260   43.3710 C   0  0  0  0  0  3  0  0  0  0  0  0
   37.2790   26.3020   42.4280 C   0  0  0  0  0  0  0  0  0  0  0  0
   39.1500   26.1700   40.8040 O   0  0  0  0  0  0  0  0  0  0  0  0
   39.0030   25.2290   40.5090 H   0  0  0  0  0  0  0  0  0  0  0  0
   36.8890   25.0350   42.0640 O   0  0  0  0  0  0  0  0  0  0  0  0
   36.5010   24.7910   41.1600 H   0  0  0  0  0  0  0  0  0  0  0  0
  1  2  1  0  0  0  0
  2  3  2  0  0  0  0
  2 21  1  0  0  0  0
  4  1  1  0  0  0  0
  5  8  1  6  0  0  0
  5 13  1  0  0  0  0
  5  7  1  0  0  0  0
  5  6  1  0  0  0  0
  6 10  1  0  0  0  0
  6  9  1  0  0  0  0
  7 11  1  6  0  0  0
  7  1  1  0  0  0  0
  7  6  1  0  0  0  0
 12 17  2  0  0  0  0
 12 13  1  0  0  0  0
 13 14  2  0  0  0  0
 14 15  1  0  0  0  0
 14 19  1  0  0  0  0
 16 20  1  0  0  0  0
 16 15  2  0  0  0  0
 17 16  1  0  0  0  0
 18 12  1  0  0  0  0
 21 22  1  0  0  0  0
 21 24  1  1  0  0  0
 22 25  1  0  0  0  0
 23 27  1  6  0  0  0
 23 29  1  0  0  0  0
 23 21  1  0  0  0  0
 23 22  1  0  0  0  0
 26 22  1  0  0  0  0
 28 29  2  0  0  0  0
 28 34  1  0  0  0  0
 29 30  1  0  0  0  0
 30 31  1  0  0  0  0
 30 32  2  0  0  0  0
 33 32  1  0  0  0  0
 34 33  2  0  0  0  0
 35 28  1  0  0  0  0
 36 35  1  0  0  0  0
 37 34  1  0  0  0  0
 38 37  1  0  0  0  0
M  END
>  <minimizedAffinity>
-5.62061596

$$$$
