
     RDKit          3D

 35 37  0  0  0  0  0  0  0  0999 V2000
   44.1039   32.5589   42.6955 Cl  0  0  0  0  0  0  0  0  0  0  0  0
   45.5570   33.4769   42.3947 C   0  0  0  0  0  0  0  0  0  0  0  0
   46.3284   33.9218   43.4064 C   0  0  0  0  0  0  0  0  0  0  0  0
   47.4613   34.6414   43.0653 C   0  0  0  0  0  0  0  0  0  0  0  0
   47.7951   34.8965   41.7745 C   0  0  0  0  0  0  0  0  0  0  0  0
   47.0049   34.4402   40.7534 C   0  0  0  0  0  0  0  0  0  0  0  0
   45.8797   33.7260   41.0792 C   0  0  0  0  0  0  0  0  0  0  0  0
   44.7767   34.1521   46.8571 C   0  0  0  0  0  0  0  0  0  0  0  0
   45.1412   34.4516   45.5453 C   0  0  0  0  0  0  0  0  0  0  0  0
   45.9356   33.6269   44.7807 C   0  0  0  0  0  0  0  0  0  0  0  0
   46.3413   32.4948   45.3980 N   0  0  0  0  0  0  0  0  0  0  0  0
   46.0040   32.1819   46.6628 C   0  0  0  0  0  0  0  0  0  0  0  0
   45.2249   33.0082   47.3880 N   0  0  0  0  0  0  0  0  0  0  0  0
   49.0108   35.6688   41.4045 C   0  0  0  0  0  0  0  0  0  0  0  0
   50.1110   34.9373   41.7668 F   0  0  0  0  0  0  0  0  0  0  0  0
   49.0084   36.9248   41.9931 F   0  0  0  0  0  0  0  0  0  0  0  0
   48.9997   35.8540   40.0295 F   0  0  0  0  0  0  0  0  0  0  0  0
   48.0992   35.0109   43.8585 H   0  0  0  0  0  0  0  0  0  0  0  0
   47.2358   34.6226   39.6972 H   0  0  0  0  0  0  0  0  0  0  0  0
   45.2509   33.3626   40.2741 H   0  0  0  0  0  0  0  0  0  0  0  0
   44.1487   34.8542   47.3906 H   0  0  0  0  0  0  0  0  0  0  0  0
   44.7868   35.3783   45.0943 H   0  0  0  0  0  0  0  0  0  0  0  0
   47.0756   30.1453   45.0831 O   0  0  0  0  0  0  0  0  0  0  0  0
   47.0063   29.9463   46.4528 C   0  0  0  0  0  0  0  0  0  0  0  0
   46.4792   30.9371   47.2708 C   0  0  0  0  0  0  0  0  0  0  0  0
   46.4063   30.7475   48.6358 C   0  0  0  0  0  0  0  0  0  0  0  0
   45.9953   31.5161   49.2882 H   0  0  0  0  0  0  0  0  0  0  0  0
   46.8492   29.5738   49.2544 C   0  0  0  0  0  0  0  0  0  0  0  0
   47.3587   28.6381   48.3780 C   0  0  0  0  0  0  0  0  0  0  0  0
   47.4633   28.7564   47.0101 C   0  0  0  0  0  0  0  0  0  0  0  0
   47.9990   27.7343   46.2356 O   0  0  0  0  0  0  0  0  0  0  0  0
   46.3647   29.8146   44.4360 H   0  0  0  0  0  0  0  0  0  0  0  0
   46.8135   29.3807   50.3057 H   0  0  0  0  0  0  0  0  0  0  0  0
   47.7277   27.6876   48.7892 H   0  0  0  0  0  0  0  0  0  0  0  0
   48.4594   27.9519   45.3410 H   0  0  0  0  0  0  0  0  0  0  0  0
  2  1  1  0
  2  3  2  0
  3 10  1  0
  4  3  1  0
  5  4  2  0
  6  7  2  0
  6  5  1  0
  7  2  1  0
  8 13  2  0
  9  8  1  0
 10 11  1  0
 10  9  2  0
 11 12  2  0
 12 13  1  0
 14 15  1  0
 14  5  1  0
 14 16  1  0
 17 14  1  0
  4 18  1  0
  6 19  1  0
  7 20  1  0
  8 21  1  0
  9 22  1  0
 23 24  1  0
 24 25  2  0
 25 26  1  0
 26 27  1  0
 26 28  2  0
 28 29  1  0
 29 30  2  0
 30 31  1  0
 30 24  1  0
 23 32  1  0
 28 33  1  0
 29 34  1  0
 31 35  1  0
 12 25  1  0
M  ISO  6  18  14  19  14  20  14  21  14  22  14  27  16
M  END
>  <DihAtoms>  (1) 
10,11,24,23

>  <DihDeg>  (1) 
0.0033127803827263185

$$$$
