
 OpenBabel03252501563D

 23 24  0  0  0  0  0  0  0  0999 V2000
   44.3880   35.8330   44.4620 C   0  0  0  0  0  0  0  0  0  0  0  0
   44.8420   35.2870   43.2510 C   0  0  0  0  0  0  0  0  0  0  0  0
   45.6150   34.1400   43.3130 C   0  0  0  0  0  0  0  0  0  0  0  0
   45.8830   33.6290   44.5070 N   0  0  0  0  0  0  0  0  0  0  0  0
   45.4530   34.1470   45.6650 C   0  0  0  0  0  0  0  0  0  0  0  0
   44.6920   35.2680   45.6660 N   0  0  0  0  0  0  0  0  0  0  0  0
   43.7780   36.7200   44.4760 H   0  0  0  0  0  0  0  0  0  0  0  0
   45.7370   33.6430   46.5930 H   0  0  0  0  0  0  0  0  0  0  0  0
   45.5000   32.7740   41.1570 C   0  0  0  0  0  0  0  0  0  0  0  0
   46.0440   33.6750   42.0210 C   0  0  0  0  0  0  0  0  0  0  0  0
   47.2200   34.3210   41.5980 C   0  0  0  0  0  0  0  0  0  0  0  0
   47.7850   35.0490   42.1730 H   0  0  0  0  0  0  0  0  0  0  0  0
   47.8050   34.0710   40.3850 C   0  0  0  0  0  3  0  0  0  0  0  0
   47.1920   33.1360   39.5490 C   0  0  0  0  0  3  0  0  0  0  0  0
   46.0430   32.4680   39.9000 C   0  0  0  0  0  0  0  0  0  0  0  0
   44.3330   32.1830   41.6640 O   0  0  0  0  0  0  0  0  0  0  0  0
   44.2850   31.8330   42.6250 H   0  0  0  0  0  0  0  0  0  0  0  0
   45.3410   31.5260   39.1740 O   0  0  0  0  0  0  0  0  0  0  0  0
   45.5280   30.5170   39.2360 H   0  0  0  0  0  0  0  0  0  0  0  0
   44.4480   36.0620   42.0330 C   0  0  0  0  0  0  0  0  0  0  0  0
   45.1450   36.9620   42.0170 H   0  0  0  0  0  0  0  0  0  0  0  0
   44.5110   35.5230   41.0980 H   0  0  0  0  0  0  0  0  0  0  0  0
   43.4490   36.5100   42.2250 H   0  0  0  0  0  0  0  0  0  0  0  0
  1  7  1  0  0  0  0
  1  6  1  0  0  0  0
  2  3  1  0  0  0  0
  2  1  2  0  0  0  0
  3  4  2  0  0  0  0
  4  5  1  0  0  0  0
  5  6  2  0  0  0  0
  5  8  1  0  0  0  0
  9 16  1  0  0  0  0
  9 10  1  0  0  0  0
 10  3  1  0  0  0  0
 11 10  2  0  0  0  0
 11 12  1  0  0  0  0
 13 11  1  0  0  0  0
 14 15  1  0  0  0  0
 14 13  2  0  0  0  0
 15  9  2  0  0  0  0
 16 17  1  0  0  0  0
 18 19  1  0  0  0  0
 18 15  1  0  0  0  0
 20 23  1  0  0  0  0
 20  2  1  0  0  0  0
 21 20  1  0  0  0  0
 22 20  1  0  0  0  0
M  END
>  <minimizedAffinity>
-3.94566607

>  <minimizedRMSD>
0.770453334

$$$$
