REMARK  Name = 
REMARK  4 active torsions:
REMARK  status: ('A' for Active; 'I' for Inactive)
REMARK    1  A    between atoms: C_2  and  N_12
REMARK    2  A    between atoms: C_11  and  C_26
REMARK    3  A    between atoms: O_24  and  C_25
REMARK    4  A    between atoms: C_31  and  O_32
REMARK                            x       y       z     vdW  Elec       q    Type
REMARK                         _______ _______ _______ _____ _____    ______ ____
ROOT
ATOM      1  C   UNL     1      44.481  35.748  45.018  0.00  0.00    +0.000 A 
ATOM      2  C   UNL     1      45.116  35.710  43.757  0.00  0.00    +0.000 A 
ATOM      3  C   UNL     1      46.023  34.687  43.489  0.00  0.00    +0.000 A 
ATOM      4  N   UNL     1      46.236  33.786  44.473  0.00  0.00    +0.000 NA
ATOM      5  C   UNL     1      45.627  33.838  45.658  0.00  0.00    +0.000 A 
ATOM      6  N   UNL     1      44.747  34.809  45.952  0.00  0.00    +0.000 NA
ATOM      7  N   UNL     1      45.952  32.830  46.610  0.00  0.00    +0.000 N 
ATOM      8  C   UNL     1      45.158  32.543  47.815  0.00  0.00    +0.000 C 
ATOM      9  C   UNL     1      46.241  32.234  48.814  0.00  0.00    +0.000 C 
ATOM     10  C   UNL     1      47.525  32.064  48.050  0.00  0.00    +0.000 C 
ATOM     11  C   UNL     1      47.040  31.909  46.644  0.00  0.00    +0.000 C 
ATOM     12  H   UNL     1      43.768  36.545  45.239  0.00  0.00    +0.000 HD
ATOM     13  H   UNL     1      46.490  34.690  42.514  0.00  0.00    +0.000 HD
ATOM     14  H   UNL     1      44.526  33.388  48.112  0.00  0.00    +0.000 HD
ATOM     15  H   UNL     1      44.616  31.608  47.594  0.00  0.00    +0.000 HD
ATOM     16  H   UNL     1      46.263  33.076  49.535  0.00  0.00    +0.000 HD
ATOM     17  H   UNL     1      46.030  31.308  49.383  0.00  0.00    +0.000 HD
ATOM     18  H   UNL     1      48.117  31.195  48.388  0.00  0.00    +0.000 HD
ATOM     19  H   UNL     1      48.119  33.004  48.200  0.00  0.00    +0.000 HD
ATOM     20  H   UNL     1      46.562  30.877  46.616  0.00  0.00    +0.000 HD
ENDROOT
BRANCH  11  22
ATOM     21  C   UNL     1      49.108  31.088  45.559  0.00  0.00    +0.000 A 
ATOM     22  C   UNL     1      48.085  32.041  45.642  0.00  0.00    +0.000 A 
ATOM     23  C   UNL     1      48.224  33.050  44.733  0.00  0.00    +0.000 A 
ATOM     24  H   UNL     1      47.490  33.846  44.726  0.00  0.00    +0.000 HD
ATOM     25  C   UNL     1      49.225  33.187  43.808  0.00  0.00    +0.000 A 
ATOM     26  C   UNL     1      50.207  32.218  43.771  0.00  0.00    +0.000 A 
ATOM     27  C   UNL     1      50.151  31.163  44.649  0.00  0.00    +0.000 A 
BRANCH  21  28
ATOM     28  O   UNL     1      49.109  29.997  46.418  0.00  0.00    +0.000 OA
ATOM     29  H   UNL     1      48.485  29.198  46.270  0.00  0.00    +0.000 HD
ENDBRANCH  21  28
BRANCH  27  30
ATOM     30  O   UNL     1      51.134  30.171  44.629  0.00  0.00    +0.000 OA
ATOM     31  H   UNL     1      51.651  30.000  43.778  0.00  0.00    +0.000 HD
ENDBRANCH  27  30
ENDBRANCH  11  22
BRANCH   2  32
ATOM     32  N   UNL     1      44.763  36.752  42.846  0.00  0.00    +0.000 N 
ATOM     33  H   UNL     1      44.544  37.687  43.199  0.00  0.00    +0.000 HD
ATOM     34  H   UNL     1      44.738  36.525  41.820  0.00  0.00    +0.000 HD
ENDBRANCH   2  32
TORSDOF 4
