
 OpenBabel03252508173D

 49 53  0  0  1  0  0  0  0  0999 V2000
   46.8040   31.5660   48.1220 C   0  0  1  0  0  0  0  0  0  0  0  0
   46.4630   30.9300   49.4260 C   0  0  0  0  0  0  0  0  0  0  0  0
   47.8090   30.7950   48.8770 C   0  0  1  0  0  0  0  0  0  0  0  0
   46.6780   32.6840   48.2170 H   0  0  0  0  0  0  0  0  0  0  0  0
   46.3210   31.5190   50.3560 H   0  0  0  0  0  0  0  0  0  0  0  0
   45.7850   30.0410   49.4250 H   0  0  0  0  0  0  0  0  0  0  0  0
   48.6020   31.3930   49.3720 H   0  0  0  0  0  0  0  0  0  0  0  0
   48.3070   29.5160   48.2830 C   0  0  2  0  0  0  0  0  0  0  0  0
   49.7560   29.1580   48.7000 C   0  0  0  0  0  0  0  0  0  0  0  0
   49.4890   29.5960   47.3220 C   0  0  1  0  0  0  0  0  0  0  0  0
   47.6960   28.6080   48.2240 H   0  0  0  0  0  0  0  0  0  0  0  0
   50.2870   29.8910   49.3710 H   0  0  0  0  0  0  0  0  0  0  0  0
   50.0040   28.1360   48.9780 H   0  0  0  0  0  0  0  0  0  0  0  0
   49.7880   30.6300   47.0520 H   0  0  0  0  0  0  0  0  0  0  0  0
   49.1590   28.8970   44.9230 C   0  0  0  0  0  0  0  0  0  0  0  0
   49.5380   28.5860   46.2140 C   0  0  0  0  0  0  0  0  0  0  0  0
   49.9710   27.3000   46.4700 C   0  0  0  0  0  0  0  0  0  0  0  0
   50.2840   26.9710   47.4440 H   0  0  0  0  0  0  0  0  0  0  0  0
   50.0400   26.3180   45.4850 C   0  0  0  0  0  3  0  0  0  0  0  0
   49.6540   26.6550   44.1950 C   0  0  0  0  0  3  0  0  0  0  0  0
   49.2130   27.9510   43.9160 C   0  0  0  0  0  0  0  0  0  0  0  0
   48.7210   30.2050   44.6720 O   0  0  0  0  0  0  0  0  0  0  0  0
   49.4530   30.9280   44.6760 H   0  0  0  0  0  0  0  0  0  0  0  0
   48.8260   28.2800   42.6060 O   0  0  0  0  0  0  0  0  0  0  0  0
   49.6230   28.4960   41.9900 H   0  0  0  0  0  0  0  0  0  0  0  0
   46.1330   30.9730   46.9400 C   0  0  0  0  0  0  0  0  0  0  0  0
   45.0680   30.7650   47.2560 H   0  0  0  0  0  0  0  0  0  0  0  0
   46.5040   30.0580   46.5250 H   0  0  0  0  0  0  0  0  0  0  0  0
   45.7620   33.1900   46.2290 C   0  0  0  0  0  3  0  0  0  0  0  0
   45.9640   32.0020   45.8450 C   0  0  0  0  0  3  0  0  0  0  0  0
   44.5150   36.1600   44.4370 C   0  0  0  0  0  0  0  0  0  0  0  0
   45.1840   36.0920   43.2190 C   0  0  0  0  0  0  0  0  0  0  0  0
   46.0260   35.0460   43.0540 C   0  0  0  0  0  0  0  0  0  0  0  0
   46.1880   34.1270   44.0480 N   0  0  0  0  0  0  0  0  0  0  0  0
   45.5280   34.2180   45.2140 C   0  0  0  0  0  0  0  0  0  0  0  0
   44.7020   35.2420   45.3790 N   0  0  0  0  0  0  0  0  0  0  0  0
   43.8340   36.9980   44.5820 H   0  0  0  0  0  0  0  0  0  0  0  0
   45.0490   36.8240   42.4410 H   0  0  0  0  0  0  0  0  0  0  0  0
   46.7930   34.8400   41.8300 C   0  0  0  0  0  0  0  0  0  0  0  0
   48.0200   35.3790   41.5730 C   0  0  0  0  0  0  0  0  0  0  0  0
   48.7290   35.1710   40.4060 C   0  0  0  0  0  0  0  0  0  0  0  0
   48.1970   34.3720   39.4150 C   0  0  0  0  0  0  0  0  0  0  0  0
   46.9680   33.8000   39.6100 C   0  0  0  0  0  0  0  0  0  0  0  0
   46.3070   34.0460   40.7980 C   0  0  0  0  0  0  0  0  0  0  0  0
   48.4730   36.0180   42.3350 H   0  0  0  0  0  0  0  0  0  0  0  0
   49.6970   35.6200   40.2500 H   0  0  0  0  0  0  0  0  0  0  0  0
   48.6850   34.1590   38.4720 H   0  0  0  0  0  0  0  0  0  0  0  0
   46.5280   33.1750   38.8590 H   0  0  0  0  0  0  0  0  0  0  0  0
   45.3240   33.5610   40.9030 H   0  0  0  0  0  0  0  0  0  0  0  0
  1  4  1  1  0  0  0
  1  3  1  0  0  0  0
  1  2  1  0  0  0  0
  2  5  1  0  0  0  0
  3  7  1  1  0  0  0
  3  2  1  0  0  0  0
  6  2  1  0  0  0  0
  8 11  1  6  0  0  0
  8  9  1  0  0  0  0
  8  3  1  0  0  0  0
  9 13  1  0  0  0  0
  9 12  1  0  0  0  0
 10 14  1  6  0  0  0
 10  8  1  0  0  0  0
 10  9  1  0  0  0  0
 15 16  1  0  0  0  0
 16 17  2  0  0  0  0
 16 10  1  0  0  0  0
 17 18  1  0  0  0  0
 19 17  1  0  0  0  0
 20 19  2  0  0  0  0
 21 20  1  0  0  0  0
 21 15  2  0  0  0  0
 22 23  1  0  0  0  0
 22 15  1  0  0  0  0
 24 21  1  0  0  0  0
 25 24  1  0  0  0  0
 26 27  1  0  0  0  0
 26  1  1  0  0  0  0
 28 26  1  0  0  0  0
 30 29  2  0  0  0  0
 30 26  1  0  0  0  0
 31 37  1  0  0  0  0
 31 36  1  0  0  0  0
 32 31  2  0  0  0  0
 33 32  1  0  0  0  0
 33 34  2  0  0  0  0
 34 35  1  0  0  0  0
 35 36  2  0  0  0  0
 35 29  1  0  0  0  0
 38 32  1  0  0  0  0
 39 33  1  0  0  0  0
 40 39  1  0  0  0  0
 40 45  1  0  0  0  0
 41 40  2  0  0  0  0
 42 43  2  0  0  0  0
 42 41  1  0  0  0  0
 43 44  1  0  0  0  0
 44 49  1  0  0  0  0
 44 39  2  0  0  0  0
 46 41  1  0  0  0  0
 47 42  1  0  0  0  0
 48 43  1  0  0  0  0
M  END
>  <minimizedAffinity>
-5.83531523

>  <minimizedRMSD>
2.5542686

$$$$
