
 OpenBabel03242522333D

 23 24  0  0  0  0  0  0  0  0999 V2000
   46.8020   33.1600   46.0790 C   0  0  0  0  0  0  0  0  0  0  0  0
   46.6040   33.9380   46.8560 H   0  0  0  0  0  0  0  0  0  0  0  0
   47.9160   33.0070   46.0890 H   0  0  0  0  0  0  0  0  0  0  0  0
   44.7720   34.3800   43.2050 C   0  0  0  0  0  0  0  0  0  0  0  0
   45.7560   34.5760   42.2320 C   0  0  0  0  0  0  0  0  0  0  0  0
   47.0740   34.2900   42.5820 C   0  0  0  0  0  0  0  0  0  0  0  0
   47.3610   33.8370   43.8290 N   0  0  0  0  0  0  0  0  0  0  0  0
   46.3630   33.6580   44.7520 C   0  0  0  0  0  0  0  0  0  0  0  0
   45.0970   33.9350   44.4130 N   0  0  0  0  0  0  0  0  0  0  0  0
   43.7040   34.5630   43.0740 H   0  0  0  0  0  0  0  0  0  0  0  0
   45.4260   34.9360   41.2770 H   0  0  0  0  0  0  0  0  0  0  0  0
   47.8390   34.4430   41.8240 H   0  0  0  0  0  0  0  0  0  0  0  0
   46.0250   30.8240   45.5670 C   0  0  0  0  0  0  0  0  0  0  0  0
   46.1300   31.8950   46.4280 C   0  0  0  0  0  0  0  0  0  0  0  0
   45.5660   31.7540   47.6830 C   0  0  0  0  0  0  0  0  0  0  0  0
   45.6440   32.5940   48.3690 H   0  0  0  0  0  0  0  0  0  0  0  0
   44.9060   30.6080   48.1240 C   0  0  0  0  0  3  0  0  0  0  0  0
   44.8170   29.5450   47.2360 C   0  0  0  0  0  3  0  0  0  0  0  0
   45.3750   29.6740   45.9810 C   0  0  0  0  0  0  0  0  0  0  0  0
   46.5680   30.9120   44.3070 O   0  0  0  0  0  0  0  0  0  0  0  0
   46.1370   30.3240   43.5790 H   0  0  0  0  0  0  0  0  0  0  0  0
   45.2720   28.6030   45.1120 O   0  0  0  0  0  0  0  0  0  0  0  0
   45.3620   27.6320   45.4040 H   0  0  0  0  0  0  0  0  0  0  0  0
  1  3  1  0  0  0  0
  1 14  1  0  0  0  0
  1  2  1  0  0  0  0
  4  9  1  0  0  0  0
  5  6  1  0  0  0  0
  5  4  2  0  0  0  0
  6  7  2  0  0  0  0
  7  8  1  0  0  0  0
  8  1  1  0  0  0  0
  9  8  2  0  0  0  0
 10  4  1  0  0  0  0
 11  5  1  0  0  0  0
 12  6  1  0  0  0  0
 13 19  2  0  0  0  0
 13 14  1  0  0  0  0
 14 15  2  0  0  0  0
 15 17  1  0  0  0  0
 15 16  1  0  0  0  0
 18 17  2  0  0  0  0
 19 18  1  0  0  0  0
 20 13  1  0  0  0  0
 21 20  1  0  0  0  0
 22 23  1  0  0  0  0
 22 19  1  0  0  0  0
M  END
>  <minimizedAffinity>
-3.73920989

>  <minimizedRMSD>
1.7096473

$$$$
