
 OpenBabel03242521403D

 23 24  0  0  0  0  0  0  0  0999 V2000
   45.4990   35.2100   43.7280 C   0  0  0  0  0  0  0  0  0  0  0  0
   46.4910   34.5910   42.9730 C   0  0  0  0  0  0  0  0  0  0  0  0
   47.1780   33.5050   43.5220 C   0  0  0  0  0  0  0  0  0  0  0  0
   46.8300   33.1200   44.7660 N   0  0  0  0  0  0  0  0  0  0  0  0
   45.8630   33.7380   45.4750 C   0  0  0  0  0  0  0  0  0  0  0  0
   45.1960   34.7880   44.9500 N   0  0  0  0  0  0  0  0  0  0  0  0
   46.7010   34.9610   42.0000 H   0  0  0  0  0  0  0  0  0  0  0  0
   45.6230   33.3830   46.4790 H   0  0  0  0  0  0  0  0  0  0  0  0
   49.4550   33.4140   42.6700 C   0  0  0  0  0  0  0  0  0  0  0  0
   48.2130   32.8260   42.7910 C   0  0  0  0  0  0  0  0  0  0  0  0
   48.0960   31.5990   42.1730 C   0  0  0  0  0  0  0  0  0  0  0  0
   47.1450   31.0900   42.2350 H   0  0  0  0  0  0  0  0  0  0  0  0
   49.1360   30.9930   41.4810 C   0  0  0  0  0  0  0  0  0  0  0  0
   50.3660   31.6070   41.3780 C   0  0  0  0  0  0  0  0  0  0  0  0
   50.5080   32.8360   41.9880 C   0  0  0  0  0  0  0  0  0  0  0  0
   49.7470   34.6670   43.2410 O   0  0  0  0  0  0  0  0  0  0  0  0
   49.7890   34.6550   44.2650 H   0  0  0  0  0  0  0  0  0  0  0  0
   51.7600   33.4600   41.8830 O   0  0  0  0  0  0  0  0  0  0  0  0
   52.4600   33.3200   42.6090 H   0  0  0  0  0  0  0  0  0  0  0  0
   44.7840   36.3680   43.1110 C   0  0  0  0  0  0  0  0  0  0  0  0
   45.2810   37.2820   43.5480 H   0  0  0  0  0  0  0  0  0  0  0  0
   44.9150   36.3780   42.0110 H   0  0  0  0  0  0  0  0  0  0  0  0
   43.7210   36.4190   43.3810 H   0  0  0  0  0  0  0  0  0  0  0  0
  1  6  1  0  0  0  0
  2  3  1  0  0  0  0
  2  1  2  0  0  0  0
  3  4  2  0  0  0  0
  4  5  1  0  0  0  0
  5  8  1  0  0  0  0
  6  5  2  0  0  0  0
  7  2  1  0  0  0  0
  9 10  1  0  0  0  0
  9 16  1  0  0  0  0
 10  3  1  0  0  0  0
 11 12  1  0  0  0  0
 11 10  2  0  0  0  0
 13 11  1  0  0  0  0
 14 13  2  0  0  0  0
 14 15  1  0  0  0  0
 15  9  2  0  0  0  0
 16 17  1  0  0  0  0
 18 15  1  0  0  0  0
 18 19  1  0  0  0  0
 20 23  1  0  0  0  0
 20 21  1  0  0  0  0
 20  1  1  0  0  0  0
 22 20  1  0  0  0  0
M  END
>  <minimizedAffinity>
-4.8609333

>  <minimizedRMSD>
1.09134316

$$$$
