
 OpenBabel03252505313D

 29 30  0  0  0  0  0  0  0  0999 V2000
   45.1490   29.8930   45.1140 O   0  0  0  0  0  0  0  0  0  0  0  0
   45.1950   29.3770   46.3760 C   0  0  0  0  0  0  0  0  0  0  0  0
   44.8210   30.1290   47.1230 H   0  0  0  0  0  0  0  0  0  0  0  0
   46.2510   29.1840   46.7040 H   0  0  0  0  0  0  0  0  0  0  0  0
   44.6040   27.2270   47.5660 C   0  0  0  0  0  0  0  0  0  0  0  0
   44.3640   28.1650   46.5870 C   0  0  0  0  0  0  0  0  0  0  0  0
   43.2790   27.9610   45.7470 C   0  0  0  0  0  0  0  0  0  0  0  0
   43.0320   28.6510   44.9570 H   0  0  0  0  0  0  0  0  0  0  0  0
   42.4220   26.8730   45.8290 C   0  0  0  0  0  3  0  0  0  0  0  0
   42.6810   25.9410   46.8210 C   0  0  0  0  0  3  0  0  0  0  0  0
   43.7730   26.1520   47.6620 C   0  0  0  0  0  0  0  0  0  0  0  0
   45.6880   27.4350   48.4050 O   0  0  0  0  0  0  0  0  0  0  0  0
   46.5830   26.9740   48.3350 H   0  0  0  0  0  0  0  0  0  0  0  0
   44.0400   25.2250   48.6550 O   0  0  0  0  0  0  0  0  0  0  0  0
   43.7240   25.4440   49.5900 H   0  0  0  0  0  0  0  0  0  0  0  0
   47.3540   30.8590   46.0590 O   0  0  0  0  0  0  0  0  0  0  0  0
   46.2680   31.1650   45.0270 P   0  0  2  0  0  0  0  0  0  0  0  0
   45.4400   32.5880   45.3940 O   0  0  0  0  0  0  0  0  0  0  0  0
   46.0530   33.1100   46.0050 H   0  0  0  0  0  0  0  0  0  0  0  0
   47.0140   31.2730   43.5270 O   0  0  0  0  0  0  0  0  0  0  0  0
   48.0610   34.5910   42.8770 C   0  0  0  0  0  0  0  0  0  0  0  0
   47.8250   34.8000   41.4970 C   0  0  0  0  0  0  0  0  0  0  0  0
   47.2700   33.6980   40.8030 C   0  0  0  0  0  0  0  0  0  0  0  0
   47.0140   32.5450   41.5040 N   0  0  0  0  0  0  0  0  0  0  0  0
   47.2630   32.4210   42.8070 C   0  0  0  0  0  0  0  0  0  0  0  0
   47.7820   33.4390   43.4800 N   0  0  0  0  0  0  0  0  0  0  0  0
   48.4890   35.4690   43.3720 H   0  0  0  0  0  0  0  0  0  0  0  0
   48.0420   35.7300   40.9890 H   0  0  0  0  0  0  0  0  0  0  0  0
   47.0610   33.7810   39.7470 H   0  0  0  0  0  0  0  0  0  0  0  0
  1  2  1  0  0  0  0
  2  6  1  0  0  0  0
  2  4  1  0  0  0  0
  2  3  1  0  0  0  0
  5 11  1  0  0  0  0
  5 12  1  0  0  0  0
  6  5  2  0  0  0  0
  7  9  2  0  0  0  0
  7  6  1  0  0  0  0
  8  7  1  0  0  0  0
  9 10  1  0  0  0  0
 10 11  2  0  0  0  0
 11 14  1  0  0  0  0
 13 12  1  0  0  0  0
 14 15  1  0  0  0  0
 17  1  1  0  0  0  0
 17 18  1  0  0  0  0
 17 16  2  1  0  0  0
 18 19  1  0  0  0  0
 20 17  1  0  0  0  0
 21 27  1  0  0  0  0
 21 26  1  0  0  0  0
 22 21  2  0  0  0  0
 23 22  1  0  0  0  0
 23 24  2  0  0  0  0
 24 25  1  0  0  0  0
 25 26  2  0  0  0  0
 25 20  1  0  0  0  0
 28 22  1  0  0  0  0
 29 23  1  0  0  0  0
M  END
>  <minimizedAffinity>
-4.14301157

>  <minimizedRMSD>
2.5622921

$$$$
