REMARK  Name = 
REMARK  7 active torsions:
REMARK  status: ('A' for Active; 'I' for Inactive)
REMARK    1  A    between atoms: C_1  and  C_2
REMARK    2  A    between atoms: C_1  and  C_9
REMARK    3  A    between atoms: C_4  and  C_5
REMARK    4  A    between atoms: C_8  and  C_14
REMARK    5  A    between atoms: C_12  and  C_33
REMARK    6  A    between atoms: O_31  and  C_32
REMARK    7  A    between atoms: C_38  and  O_39
REMARK                            x       y       z     vdW  Elec       q    Type
REMARK                         _______ _______ _______ _____ _____    ______ ____
ROOT
ATOM      1  C   UNL     1      45.939  33.150  45.911  0.00  0.00    +0.000 C 
ATOM      2  C   UNL     1      46.953  32.405  45.705  0.00  0.00    +0.000 C 
ENDROOT
BRANCH   1   7
ATOM      3  C   UNL     1      44.510  36.163  44.349  0.00  0.00    +0.000 A 
ATOM      4  C   UNL     1      45.114  36.166  43.098  0.00  0.00    +0.000 A 
ATOM      5  C   UNL     1      45.997  35.172  42.820  0.00  0.00    +0.000 A 
ATOM      6  N   UNL     1      46.225  34.247  43.785  0.00  0.00    +0.000 NA
ATOM      7  C   UNL     1      45.653  34.230  44.987  0.00  0.00    +0.000 A 
ATOM      8  N   UNL     1      44.787  35.218  45.242  0.00  0.00    +0.000 NA
ATOM      9  H   UNL     1      43.795  36.937  44.627  0.00  0.00    +0.000 HD
ATOM     10  H   UNL     1      44.903  36.915  42.369  0.00  0.00    +0.000 HD
BRANCH   5  12
ATOM     11  C   UNL     1      48.103  34.922  41.425  0.00  0.00    +0.000 A 
ATOM     12  C   UNL     1      46.745  34.970  41.590  0.00  0.00    +0.000 A 
ATOM     13  C   UNL     1      46.066  34.794  40.397  0.00  0.00    +0.000 A 
ATOM     14  H   UNL     1      44.965  34.803  40.339  0.00  0.00    +0.000 HD
ATOM     15  C   UNL     1      46.686  34.595  39.182  0.00  0.00    +0.000 A 
ATOM     16  C   UNL     1      48.059  34.559  39.094  0.00  0.00    +0.000 A 
ATOM     17  C   UNL     1      48.775  34.728  40.252  0.00  0.00    +0.000 A 
BRANCH  11  18
ATOM     18  O   UNL     1      48.883  35.084  42.538  0.00  0.00    +0.000 OA
ATOM     19  H   UNL     1      49.246  34.240  42.981  0.00  0.00    +0.000 HD
ENDBRANCH  11  18
BRANCH  17  20
ATOM     20  O   UNL     1      50.143  34.695  40.178  0.00  0.00    +0.000 OA
ATOM     21  H   UNL     1      50.578  33.772  40.101  0.00  0.00    +0.000 HD
ENDBRANCH  17  20
ENDBRANCH   5  12
ENDBRANCH   1   7
BRANCH   2  22
ATOM     22  C   UNL     1      47.153  31.287  46.717  0.00  0.00    +0.000 C 
ATOM     23  H   UNL     1      46.376  30.534  46.412  0.00  0.00    +0.000 HD
ATOM     24  H   UNL     1      48.142  30.833  46.618  0.00  0.00    +0.000 HD
BRANCH  22  25
ATOM     25  C   UNL     1      46.779  31.762  48.080  0.00  0.00    +0.000 C 
ATOM     26  C   UNL     1      46.177  30.760  49.009  0.00  0.00    +0.000 C 
ATOM     27  C   UNL     1      47.515  31.256  49.268  0.00  0.00    +0.000 C 
ATOM     28  H   UNL     1      46.370  32.807  48.157  0.00  0.00    +0.000 HD
ATOM     29  H   UNL     1      46.066  29.717  48.627  0.00  0.00    +0.000 HD
ATOM     30  H   UNL     1      45.308  31.073  49.615  0.00  0.00    +0.000 HD
ATOM     31  H   UNL     1      47.589  31.982  50.134  0.00  0.00    +0.000 HD
BRANCH  27  32
ATOM     32  C   UNL     1      48.772  30.512  49.036  0.00  0.00    +0.000 C 
ATOM     33  C   UNL     1      49.585  30.226  50.326  0.00  0.00    +0.000 C 
ATOM     34  C   UNL     1      50.079  31.259  49.372  0.00  0.00    +0.000 C 
ATOM     35  H   UNL     1      48.824  29.710  48.273  0.00  0.00    +0.000 HD
ATOM     36  H   UNL     1      50.090  29.260  50.385  0.00  0.00    +0.000 HD
ATOM     37  H   UNL     1      49.193  30.630  51.279  0.00  0.00    +0.000 HD
ATOM     38  H   UNL     1      50.964  30.961  48.785  0.00  0.00    +0.000 HD
ATOM     39  H   UNL     1      49.963  32.327  49.573  0.00  0.00    +0.000 HD
ENDBRANCH  27  32
ENDBRANCH  22  25
ENDBRANCH   2  22
TORSDOF 7
