
 OpenBabel03252508193D

 49 53  0  0  1  0  0  0  0  0999 V2000
   36.7620   25.1250   40.7440 C   0  0  1  0  0  0  0  0  0  0  0  0
   37.6120   24.3820   41.7160 C   0  0  0  0  0  0  0  0  0  0  0  0
   36.7910   25.5010   42.1690 C   0  0  1  0  0  0  0  0  0  0  0  0
   36.0030   24.4130   40.3040 H   0  0  0  0  0  0  0  0  0  0  0  0
   37.3620   23.3590   42.0650 H   0  0  0  0  0  0  0  0  0  0  0  0
   38.7220   24.5110   41.6620 H   0  0  0  0  0  0  0  0  0  0  0  0
   35.8850   25.2380   42.7550 H   0  0  0  0  0  0  0  0  0  0  0  0
   37.3760   26.8270   42.5370 C   0  0  2  0  0  0  0  0  0  0  0  0
   36.5640   27.5910   43.6130 C   0  0  0  0  0  0  0  0  0  0  0  0
   36.5540   28.0730   42.2240 C   0  0  1  0  0  0  0  0  0  0  0  0
   38.4500   26.9830   42.6930 H   0  0  0  0  0  0  0  0  0  0  0  0
   35.6220   27.0960   43.9850 H   0  0  0  0  0  0  0  0  0  0  0  0
   37.0800   28.0920   44.4290 H   0  0  0  0  0  0  0  0  0  0  0  0
   35.6390   27.8780   41.6260 H   0  0  0  0  0  0  0  0  0  0  0  0
   36.6940   30.4110   41.2920 C   0  0  0  0  0  0  0  0  0  0  0  0
   37.3100   29.3230   41.8820 C   0  0  0  0  0  0  0  0  0  0  0  0
   38.6590   29.4120   42.1570 C   0  0  0  0  0  0  0  0  0  0  0  0
   39.2170   28.6170   42.6140 H   0  0  0  0  0  0  0  0  0  0  0  0
   39.4150   30.5460   41.8640 C   0  0  0  0  0  3  0  0  0  0  0  0
   38.7750   31.6240   41.2710 C   0  0  0  0  0  3  0  0  0  0  0  0
   37.4090   31.5540   40.9850 C   0  0  0  0  0  0  0  0  0  0  0  0
   35.3240   30.3120   41.0180 O   0  0  0  0  0  0  0  0  0  0  0  0
   34.7020   30.3530   41.8360 H   0  0  0  0  0  0  0  0  0  0  0  0
   36.7740   32.6530   40.3850 O   0  0  0  0  0  0  0  0  0  0  0  0
   36.5210   33.3940   41.0580 H   0  0  0  0  0  0  0  0  0  0  0  0
   37.5060   25.9230   39.7400 C   0  0  0  0  0  0  0  0  0  0  0  0
   38.3160   25.2440   39.3390 H   0  0  0  0  0  0  0  0  0  0  0  0
   37.9990   26.8250   40.0420 H   0  0  0  0  0  0  0  0  0  0  0  0
   36.1000   27.3250   38.4690 C   0  0  0  0  0  3  0  0  0  0  0  0
   36.6520   26.1870   38.5220 C   0  0  0  0  0  3  0  0  0  0  0  0
   34.5830   27.4470   35.1120 C   0  0  0  0  0  0  0  0  0  0  0  0
   33.4500   28.2290   35.3100 C   0  0  0  0  0  0  0  0  0  0  0  0
   33.2470   28.6840   36.5690 C   0  0  0  0  0  0  0  0  0  0  0  0
   34.1250   28.3720   37.5650 N   0  0  0  0  0  0  0  0  0  0  0  0
   35.2110   27.6140   37.3430 C   0  0  0  0  0  0  0  0  0  0  0  0
   35.4130   27.1680   36.1110 N   0  0  0  0  0  0  0  0  0  0  0  0
   34.7580   27.0750   34.1020 H   0  0  0  0  0  0  0  0  0  0  0  0
   32.7640   28.4690   34.5160 H   0  0  0  0  0  0  0  0  0  0  0  0
   32.1050   29.5180   36.9290 C   0  0  0  0  0  0  0  0  0  0  0  0
   31.5320   29.5700   38.1660 C   0  0  0  0  0  0  0  0  0  0  0  0
   30.4500   30.3670   38.4860 C   0  0  0  0  0  0  0  0  0  0  0  0
   29.8880   31.1770   37.5200 C   0  0  0  0  0  0  0  0  0  0  0  0
   30.4170   31.1720   36.2580 C   0  0  0  0  0  0  0  0  0  0  0  0
   31.4990   30.3530   35.9980 C   0  0  0  0  0  0  0  0  0  0  0  0
   31.9500   28.9410   38.9560 H   0  0  0  0  0  0  0  0  0  0  0  0
   30.0320   30.3720   39.4800 H   0  0  0  0  0  0  0  0  0  0  0  0
   29.0400   31.8300   37.6870 H   0  0  0  0  0  0  0  0  0  0  0  0
   30.0020   31.7910   35.4870 H   0  0  0  0  0  0  0  0  0  0  0  0
   31.8840   30.3890   34.9680 H   0  0  0  0  0  0  0  0  0  0  0  0
  1  4  1  6  0  0  0
  1  2  1  0  0  0  0
  1  3  1  0  0  0  0
  2  5  1  0  0  0  0
  2  3  1  0  0  0  0
  3  8  1  0  0  0  0
  3  7  1  1  0  0  0
  6  2  1  0  0  0  0
  8 11  1  1  0  0  0
  8  9  1  0  0  0  0
  9 12  1  0  0  0  0
  9 13  1  0  0  0  0
 10 14  1  6  0  0  0
 10  8  1  0  0  0  0
 10  9  1  0  0  0  0
 15 16  1  0  0  0  0
 16 17  2  0  0  0  0
 16 10  1  0  0  0  0
 17 18  1  0  0  0  0
 19 17  1  0  0  0  0
 20 19  2  0  0  0  0
 21 20  1  0  0  0  0
 21 15  2  0  0  0  0
 22 15  1  0  0  0  0
 22 23  1  0  0  0  0
 24 21  1  0  0  0  0
 24 25  1  0  0  0  0
 26 28  1  0  0  0  0
 26  1  1  0  0  0  0
 27 26  1  0  0  0  0
 29 30  2  0  0  0  0
 30 26  1  0  0  0  0
 31 32  2  0  0  0  0
 31 36  1  0  0  0  0
 32 33  1  0  0  0  0
 33 39  1  0  0  0  0
 33 34  2  0  0  0  0
 35 34  1  0  0  0  0
 35 29  1  0  0  0  0
 36 35  2  0  0  0  0
 37 31  1  0  0  0  0
 38 32  1  0  0  0  0
 39 40  1  0  0  0  0
 40 41  2  0  0  0  0
 40 45  1  0  0  0  0
 41 46  1  0  0  0  0
 42 47  1  0  0  0  0
 42 41  1  0  0  0  0
 43 42  2  0  0  0  0
 44 43  1  0  0  0  0
 44 39  2  0  0  0  0
 48 43  1  0  0  0  0
 49 44  1  0  0  0  0
M  END
>  <minimizedAffinity>
-7.07768965

$$$$

 OpenBabel03252508193D

 49 53  0  0  1  0  0  0  0  0999 V2000
   40.9580   33.2100   41.0370 C   0  0  1  0  0  0  0  0  0  0  0  0
   41.3490   34.1560   39.9550 C   0  0  0  0  0  0  0  0  0  0  0  0
   39.9540   34.0620   40.3740 C   0  0  1  0  0  0  0  0  0  0  0  0
   41.4920   33.5020   41.9890 H   0  0  0  0  0  0  0  0  0  0  0  0
   41.9060   35.0940   40.1570 H   0  0  0  0  0  0  0  0  0  0  0  0
   41.6450   33.7370   38.9610 H   0  0  0  0  0  0  0  0  0  0  0  0
   39.5660   34.9080   40.9790 H   0  0  0  0  0  0  0  0  0  0  0  0
   38.9090   33.3970   39.5370 C   0  0  2  0  0  0  0  0  0  0  0  0
   37.5580   34.1570   39.5060 C   0  0  0  0  0  0  0  0  0  0  0  0
   37.6560   32.8890   40.2430 C   0  0  1  0  0  0  0  0  0  0  0  0
   39.1190   32.9620   38.5530 H   0  0  0  0  0  0  0  0  0  0  0  0
   37.4900   35.0980   40.1230 H   0  0  0  0  0  0  0  0  0  0  0  0
   37.0240   34.2770   38.5660 H   0  0  0  0  0  0  0  0  0  0  0  0
   37.7000   32.9470   41.3500 H   0  0  0  0  0  0  0  0  0  0  0  0
   36.1010   30.9110   40.4050 C   0  0  0  0  0  0  0  0  0  0  0  0
   37.0000   31.6640   39.6740 C   0  0  0  0  0  0  0  0  0  0  0  0
   37.2870   31.2620   38.3860 C   0  0  0  0  0  0  0  0  0  0  0  0
   37.9730   31.7860   37.7470 H   0  0  0  0  0  0  0  0  0  0  0  0
   36.7110   30.1350   37.8020 C   0  0  0  0  0  3  0  0  0  0  0  0
   35.8120   29.3940   38.5570 C   0  0  0  0  0  3  0  0  0  0  0  0
   35.5080   29.7860   39.8630 C   0  0  0  0  0  0  0  0  0  0  0  0
   35.8150   31.3280   41.7120 O   0  0  0  0  0  0  0  0  0  0  0  0
   35.2330   32.1730   41.7910 H   0  0  0  0  0  0  0  0  0  0  0  0
   34.5960   29.0270   40.6140 O   0  0  0  0  0  0  0  0  0  0  0  0
   33.6110   29.2440   40.3960 H   0  0  0  0  0  0  0  0  0  0  0  0
   41.0740   31.7730   40.6880 C   0  0  0  0  0  0  0  0  0  0  0  0
   42.0760   31.4340   41.0870 H   0  0  0  0  0  0  0  0  0  0  0  0
   41.0480   31.4750   39.6600 H   0  0  0  0  0  0  0  0  0  0  0  0
   39.7790   29.8250   40.9860 C   0  0  0  0  0  3  0  0  0  0  0  0
   40.0960   30.9440   41.4870 C   0  0  0  0  0  3  0  0  0  0  0  0
   37.4200   28.5200   43.4990 C   0  0  0  0  0  0  0  0  0  0  0  0
   36.9120   27.3790   42.8860 C   0  0  0  0  0  0  0  0  0  0  0  0
   37.3880   27.0980   41.6510 C   0  0  0  0  0  0  0  0  0  0  0  0
   38.3150   27.9100   41.0680 N   0  0  0  0  0  0  0  0  0  0  0  0
   38.7880   29.0060   41.6850 C   0  0  0  0  0  0  0  0  0  0  0  0
   38.3230   29.2840   42.8940 N   0  0  0  0  0  0  0  0  0  0  0  0
   37.0440   28.7570   44.4940 H   0  0  0  0  0  0  0  0  0  0  0  0
   36.1800   26.7450   43.3560 H   0  0  0  0  0  0  0  0  0  0  0  0
   36.9530   25.9340   40.8870 C   0  0  0  0  0  0  0  0  0  0  0  0
   36.8930   24.6580   41.3670 C   0  0  0  0  0  0  0  0  0  0  0  0
   36.4790   23.5690   40.6260 C   0  0  0  0  0  0  0  0  0  0  0  0
   36.0920   23.7430   39.3130 C   0  0  0  0  0  0  0  0  0  0  0  0
   36.1280   24.9990   38.7690 C   0  0  0  0  0  0  0  0  0  0  0  0
   36.5530   26.0490   39.5610 C   0  0  0  0  0  0  0  0  0  0  0  0
   37.1930   24.4820   42.4040 H   0  0  0  0  0  0  0  0  0  0  0  0
   36.4490   22.5790   41.0510 H   0  0  0  0  0  0  0  0  0  0  0  0
   35.7550   22.9450   38.6630 H   0  0  0  0  0  0  0  0  0  0  0  0
   35.8340   25.1660   37.7520 H   0  0  0  0  0  0  0  0  0  0  0  0
   36.5630   27.0360   39.0750 H   0  0  0  0  0  0  0  0  0  0  0  0
  1  4  1  1  0  0  0
  2  5  1  0  0  0  0
  2  3  1  0  0  0  0
  2  1  1  0  0  0  0
  3  7  1  1  0  0  0
  3  1  1  0  0  0  0
  6  2  1  0  0  0  0
  8 11  1  6  0  0  0
  8 10  1  0  0  0  0
  8  3  1  0  0  0  0
  9  8  1  0  0  0  0
  9 12  1  0  0  0  0
  9 10  1  0  0  0  0
 10 14  1  1  0  0  0
 13  9  1  0  0  0  0
 15 22  1  0  0  0  0
 16 10  1  0  0  0  0
 16 15  2  0  0  0  0
 17 16  1  0  0  0  0
 18 17  1  0  0  0  0
 19 17  2  0  0  0  0
 19 20  1  0  0  0  0
 20 21  2  0  0  0  0
 21 15  1  0  0  0  0
 21 24  1  0  0  0  0
 22 23  1  0  0  0  0
 25 24  1  0  0  0  0
 26  1  1  0  0  0  0
 26 27  1  0  0  0  0
 26 30  1  0  0  0  0
 28 26  1  0  0  0  0
 29 30  2  0  0  0  0
 29 35  1  0  0  0  0
 31 37  1  0  0  0  0
 32 38  1  0  0  0  0
 32 31  2  0  0  0  0
 33 32  1  0  0  0  0
 34 33  2  0  0  0  0
 34 35  1  0  0  0  0
 35 36  2  0  0  0  0
 36 31  1  0  0  0  0
 39 40  1  0  0  0  0
 39 33  1  0  0  0  0
 40 45  1  0  0  0  0
 41 46  1  0  0  0  0
 41 40  2  0  0  0  0
 42 41  1  0  0  0  0
 43 42  2  0  0  0  0
 43 44  1  0  0  0  0
 44 39  2  0  0  0  0
 47 42  1  0  0  0  0
 48 43  1  0  0  0  0
 49 44  1  0  0  0  0
M  END
>  <minimizedAffinity>
-7.03942585

$$$$

 OpenBabel03252508193D

 49 53  0  0  1  0  0  0  0  0999 V2000
   37.1190   24.9550   40.6810 C   0  0  1  0  0  0  0  0  0  0  0  0
   37.4550   24.2290   41.9380 C   0  0  0  0  0  0  0  0  0  0  0  0
   36.7210   25.4900   41.9950 C   0  0  1  0  0  0  0  0  0  0  0  0
   36.4510   24.2980   40.0480 H   0  0  0  0  0  0  0  0  0  0  0  0
   36.9390   23.2960   42.2430 H   0  0  0  0  0  0  0  0  0  0  0  0
   38.5220   24.2080   42.2730 H   0  0  0  0  0  0  0  0  0  0  0  0
   35.6400   25.4170   42.2370 H   0  0  0  0  0  0  0  0  0  0  0  0
   37.3520   26.7650   42.4570 C   0  0  2  0  0  0  0  0  0  0  0  0
   36.6050   27.4380   43.6360 C   0  0  0  0  0  0  0  0  0  0  0  0
   36.5440   28.0490   42.3010 C   0  0  1  0  0  0  0  0  0  0  0  0
   38.4340   26.8850   42.5770 H   0  0  0  0  0  0  0  0  0  0  0  0
   35.6700   26.9280   44.0030 H   0  0  0  0  0  0  0  0  0  0  0  0
   37.1680   27.8500   44.4710 H   0  0  0  0  0  0  0  0  0  0  0  0
   35.6000   27.9290   41.7300 H   0  0  0  0  0  0  0  0  0  0  0  0
   36.7460   30.3920   41.3920 C   0  0  0  0  0  0  0  0  0  0  0  0
   37.3130   29.3120   42.0430 C   0  0  0  0  0  0  0  0  0  0  0  0
   38.6240   29.4210   42.4600 C   0  0  0  0  0  0  0  0  0  0  0  0
   39.1430   28.6330   42.9720 H   0  0  0  0  0  0  0  0  0  0  0  0
   39.3890   30.5670   42.2490 C   0  0  0  0  0  3  0  0  0  0  0  0
   38.7980   31.6370   41.5930 C   0  0  0  0  0  3  0  0  0  0  0  0
   37.4710   31.5470   41.1640 C   0  0  0  0  0  0  0  0  0  0  0  0
   35.4150   30.2720   40.9730 O   0  0  0  0  0  0  0  0  0  0  0  0
   34.7090   30.3020   41.7210 H   0  0  0  0  0  0  0  0  0  0  0  0
   36.8870   32.6380   40.5010 O   0  0  0  0  0  0  0  0  0  0  0  0
   36.5530   33.3720   41.1440 H   0  0  0  0  0  0  0  0  0  0  0  0
   38.2790   25.5260   39.9550 C   0  0  0  0  0  0  0  0  0  0  0  0
   38.5000   24.8120   39.1070 H   0  0  0  0  0  0  0  0  0  0  0  0
   39.2060   25.6700   40.4710 H   0  0  0  0  0  0  0  0  0  0  0  0
   38.7960   27.6760   39.1370 C   0  0  0  0  0  3  0  0  0  0  0  0
   37.8910   26.7960   39.2340 C   0  0  0  0  0  3  0  0  0  0  0  0
   37.0190   30.3760   37.3650 C   0  0  0  0  0  0  0  0  0  0  0  0
   37.9530   31.4070   37.3520 C   0  0  0  0  0  0  0  0  0  0  0  0
   39.1440   31.1460   37.9400 C   0  0  0  0  0  0  0  0  0  0  0  0
   39.3820   29.9290   38.5060 N   0  0  0  0  0  0  0  0  0  0  0  0
   38.4600   28.9520   38.5050 C   0  0  0  0  0  0  0  0  0  0  0  0
   37.2930   29.2040   37.9290 N   0  0  0  0  0  0  0  0  0  0  0  0
   36.0560   30.5730   36.8950 H   0  0  0  0  0  0  0  0  0  0  0  0
   37.7540   32.3640   36.9010 H   0  0  0  0  0  0  0  0  0  0  0  0
   40.2220   32.1270   38.0000 C   0  0  0  0  0  0  0  0  0  0  0  0
   40.2690   33.1890   38.8550 C   0  0  0  0  0  0  0  0  0  0  0  0
   41.3000   34.1070   38.8950 C   0  0  0  0  0  0  0  0  0  0  0  0
   42.3690   33.9740   38.0310 C   0  0  0  0  0  0  0  0  0  0  0  0
   42.3830   32.9290   37.1470 C   0  0  0  0  0  0  0  0  0  0  0  0
   41.3220   32.0430   37.1540 C   0  0  0  0  0  0  0  0  0  0  0  0
   39.4400   33.3270   39.5530 H   0  0  0  0  0  0  0  0  0  0  0  0
   41.2920   34.9310   39.5910 H   0  0  0  0  0  0  0  0  0  0  0  0
   43.2160   34.6480   37.9970 H   0  0  0  0  0  0  0  0  0  0  0  0
   43.1990   32.7990   36.4640 H   0  0  0  0  0  0  0  0  0  0  0  0
   41.3850   31.2220   36.4250 H   0  0  0  0  0  0  0  0  0  0  0  0
  1  4  1  6  0  0  0
  1  2  1  0  0  0  0
  1  3  1  0  0  0  0
  2  3  1  0  0  0  0
  2  5  1  0  0  0  0
  2  6  1  0  0  0  0
  3  7  1  1  0  0  0
  3  8  1  0  0  0  0
  8 11  1  6  0  0  0
  8  9  1  0  0  0  0
  9 12  1  0  0  0  0
  9 13  1  0  0  0  0
 10 14  1  6  0  0  0
 10  8  1  0  0  0  0
 10  9  1  0  0  0  0
 15 16  1  0  0  0  0
 16 10  1  0  0  0  0
 16 17  2  0  0  0  0
 17 18  1  0  0  0  0
 19 17  1  0  0  0  0
 20 19  2  0  0  0  0
 21 15  2  0  0  0  0
 21 20  1  0  0  0  0
 22 15  1  0  0  0  0
 22 23  1  0  0  0  0
 24 25  1  0  0  0  0
 24 21  1  0  0  0  0
 26 28  1  0  0  0  0
 26  1  1  0  0  0  0
 27 26  1  0  0  0  0
 29 30  2  0  0  0  0
 30 26  1  0  0  0  0
 31 36  1  0  0  0  0
 32 31  2  0  0  0  0
 32 33  1  0  0  0  0
 33 39  1  0  0  0  0
 33 34  2  0  0  0  0
 35 34  1  0  0  0  0
 35 29  1  0  0  0  0
 36 35  2  0  0  0  0
 37 31  1  0  0  0  0
 38 32  1  0  0  0  0
 39 40  1  0  0  0  0
 40 41  2  0  0  0  0
 40 45  1  0  0  0  0
 41 46  1  0  0  0  0
 42 41  1  0  0  0  0
 43 44  1  0  0  0  0
 43 42  2  0  0  0  0
 44 39  2  0  0  0  0
 47 42  1  0  0  0  0
 48 43  1  0  0  0  0
 49 44  1  0  0  0  0
M  END
>  <minimizedAffinity>
-6.96764994

$$$$

 OpenBabel03252508193D

 49 53  0  0  1  0  0  0  0  0999 V2000
   35.6800   28.1760   35.1140 C   0  0  1  0  0  0  0  0  0  0  0  0
   35.6250   27.3790   36.3720 C   0  0  0  0  0  0  0  0  0  0  0  0
   34.4030   27.9560   35.8180 C   0  0  1  0  0  0  0  0  0  0  0  0
   36.0520   27.5130   34.2780 H   0  0  0  0  0  0  0  0  0  0  0  0
   35.7380   26.2750   36.3830 H   0  0  0  0  0  0  0  0  0  0  0  0
   36.0590   27.8210   37.3030 H   0  0  0  0  0  0  0  0  0  0  0  0
   33.7020   27.2450   35.3320 H   0  0  0  0  0  0  0  0  0  0  0  0
   33.7250   29.1380   36.4330 C   0  0  2  0  0  0  0  0  0  0  0  0
   33.4370   28.9740   37.9470 C   0  0  0  0  0  0  0  0  0  0  0  0
   32.3200   28.9340   36.9920 C   0  0  1  0  0  0  0  0  0  0  0  0
   34.0120   30.1720   36.2140 H   0  0  0  0  0  0  0  0  0  0  0  0
   33.7370   27.9950   38.4180 H   0  0  0  0  0  0  0  0  0  0  0  0
   33.6280   29.8000   38.6290 H   0  0  0  0  0  0  0  0  0  0  0  0
   31.8790   27.9400   36.7680 H   0  0  0  0  0  0  0  0  0  0  0  0
   30.6230   30.4960   38.0090 C   0  0  0  0  0  0  0  0  0  0  0  0
   31.3810   30.1010   36.9220 C   0  0  0  0  0  0  0  0  0  0  0  0
   31.2540   30.8180   35.7490 C   0  0  0  0  0  0  0  0  0  0  0  0
   31.8030   30.5830   34.8570 H   0  0  0  0  0  0  0  0  0  0  0  0
   30.3990   31.9110   35.6230 C   0  0  0  0  0  3  0  0  0  0  0  0
   29.6490   32.2870   36.7270 C   0  0  0  0  0  3  0  0  0  0  0  0
   29.7630   31.5750   37.9240 C   0  0  0  0  0  0  0  0  0  0  0  0
   30.7590   29.7630   39.1950 O   0  0  0  0  0  0  0  0  0  0  0  0
   31.6400   29.9040   39.7070 H   0  0  0  0  0  0  0  0  0  0  0  0
   28.9970   31.9670   39.0340 O   0  0  0  0  0  0  0  0  0  0  0  0
   29.4080   32.7600   39.5510 H   0  0  0  0  0  0  0  0  0  0  0  0
   36.3850   29.4760   35.2240 C   0  0  0  0  0  0  0  0  0  0  0  0
   35.5780   30.2660   35.2780 H   0  0  0  0  0  0  0  0  0  0  0  0
   37.0510   29.7840   34.4450 H   0  0  0  0  0  0  0  0  0  0  0  0
   37.3500   30.7820   36.9340 C   0  0  0  0  0  3  0  0  0  0  0  0
   37.0710   29.6040   36.5650 C   0  0  0  0  0  3  0  0  0  0  0  0
   39.6030   32.0570   39.5580 C   0  0  0  0  0  0  0  0  0  0  0  0
   39.3550   31.1980   40.6250 C   0  0  0  0  0  0  0  0  0  0  0  0
   38.4400   30.2250   40.4120 C   0  0  0  0  0  0  0  0  0  0  0  0
   37.8120   30.1190   39.2060 N   0  0  0  0  0  0  0  0  0  0  0  0
   38.0710   30.9640   38.1940 C   0  0  0  0  0  0  0  0  0  0  0  0
   38.9680   31.9180   38.3990 N   0  0  0  0  0  0  0  0  0  0  0  0
   40.3380   32.8460   39.7170 H   0  0  0  0  0  0  0  0  0  0  0  0
   39.8570   31.2910   41.5720 H   0  0  0  0  0  0  0  0  0  0  0  0
   38.0790   29.2480   41.4340 C   0  0  0  0  0  0  0  0  0  0  0  0
   36.8540   28.6600   41.5590 C   0  0  0  0  0  0  0  0  0  0  0  0
   36.5330   27.7380   42.5350 C   0  0  0  0  0  0  0  0  0  0  0  0
   37.4860   27.3600   43.4590 C   0  0  0  0  0  0  0  0  0  0  0  0
   38.7360   27.9120   43.3890 C   0  0  0  0  0  0  0  0  0  0  0  0
   38.9970   28.8310   42.3900 C   0  0  0  0  0  0  0  0  0  0  0  0
   36.0740   28.9360   40.8450 H   0  0  0  0  0  0  0  0  0  0  0  0
   35.5490   27.3010   42.5920 H   0  0  0  0  0  0  0  0  0  0  0  0
   37.3170   26.6450   44.2550 H   0  0  0  0  0  0  0  0  0  0  0  0
   39.4970   27.6390   44.0930 H   0  0  0  0  0  0  0  0  0  0  0  0
   40.0180   29.2420   42.3790 H   0  0  0  0  0  0  0  0  0  0  0  0
  1  4  1  6  0  0  0
  1 26  1  0  0  0  0
  1  3  1  0  0  0  0
  1  2  1  0  0  0  0
  2  5  1  0  0  0  0
  2  6  1  0  0  0  0
  3  7  1  6  0  0  0
  3  2  1  0  0  0  0
  3  8  1  0  0  0  0
  8 11  1  6  0  0  0
  8 10  1  0  0  0  0
  8  9  1  0  0  0  0
  9 12  1  0  0  0  0
  9 13  1  0  0  0  0
 10 14  1  6  0  0  0
 10  9  1  0  0  0  0
 15 22  1  0  0  0  0
 16 10  1  0  0  0  0
 16 15  2  0  0  0  0
 17 16  1  0  0  0  0
 18 17  1  0  0  0  0
 19 17  2  0  0  0  0
 19 20  1  0  0  0  0
 20 21  2  0  0  0  0
 21 15  1  0  0  0  0
 21 24  1  0  0  0  0
 22 23  1  0  0  0  0
 24 25  1  0  0  0  0
 26 27  1  0  0  0  0
 26 30  1  0  0  0  0
 28 26  1  0  0  0  0
 29 35  1  0  0  0  0
 30 29  2  0  0  0  0
 31 37  1  0  0  0  0
 31 32  1  0  0  0  0
 32 38  1  0  0  0  0
 33 32  2  0  0  0  0
 33 39  1  0  0  0  0
 34 33  1  0  0  0  0
 35 36  1  0  0  0  0
 35 34  2  0  0  0  0
 36 31  2  0  0  0  0
 39 40  2  0  0  0  0
 39 44  1  0  0  0  0
 40 41  1  0  0  0  0
 41 46  1  0  0  0  0
 41 42  2  0  0  0  0
 42 47  1  0  0  0  0
 43 42  1  0  0  0  0
 43 48  1  0  0  0  0
 44 43  2  0  0  0  0
 45 40  1  0  0  0  0
 49 44  1  0  0  0  0
M  END
>  <minimizedAffinity>
-6.84552145

$$$$

 OpenBabel03252508193D

 49 53  0  0  1  0  0  0  0  0999 V2000
   37.5170   24.6590   40.9940 C   0  0  1  0  0  0  0  0  0  0  0  0
   37.8720   24.0680   42.3150 C   0  0  0  0  0  0  0  0  0  0  0  0
   37.0060   25.2400   42.2480 C   0  0  1  0  0  0  0  0  0  0  0  0
   36.9530   23.8890   40.3900 H   0  0  0  0  0  0  0  0  0  0  0  0
   37.4470   23.1070   42.6710 H   0  0  0  0  0  0  0  0  0  0  0  0
   38.9200   24.1890   42.6890 H   0  0  0  0  0  0  0  0  0  0  0  0
   35.9290   25.0660   42.4550 H   0  0  0  0  0  0  0  0  0  0  0  0
   37.4750   26.6070   42.6340 C   0  0  2  0  0  0  0  0  0  0  0  0
   36.5650   27.3080   43.6750 C   0  0  0  0  0  0  0  0  0  0  0  0
   36.5740   27.7870   42.2850 C   0  0  1  0  0  0  0  0  0  0  0  0
   38.5260   26.8430   42.8320 H   0  0  0  0  0  0  0  0  0  0  0  0
   35.6490   26.7440   44.0110 H   0  0  0  0  0  0  0  0  0  0  0  0
   37.0100   27.8460   44.5090 H   0  0  0  0  0  0  0  0  0  0  0  0
   35.7010   27.5240   41.6520 H   0  0  0  0  0  0  0  0  0  0  0  0
   36.5910   30.1090   41.3030 C   0  0  0  0  0  0  0  0  0  0  0  0
   37.2470   29.0910   41.9690 C   0  0  0  0  0  0  0  0  0  0  0  0
   38.5580   29.3010   42.3460 C   0  0  0  0  0  0  0  0  0  0  0  0
   39.1430   28.5660   42.8660 H   0  0  0  0  0  0  0  0  0  0  0  0
   39.2370   30.4890   42.0810 C   0  0  0  0  0  3  0  0  0  0  0  0
   38.5570   31.4960   41.4110 C   0  0  0  0  0  3  0  0  0  0  0  0
   37.2290   31.3030   41.0220 C   0  0  0  0  0  0  0  0  0  0  0  0
   35.2600   29.8870   40.9260 O   0  0  0  0  0  0  0  0  0  0  0  0
   34.5740   29.8910   41.6930 H   0  0  0  0  0  0  0  0  0  0  0  0
   36.5540   32.3310   40.3450 O   0  0  0  0  0  0  0  0  0  0  0  0
   36.1870   33.0600   40.9760 H   0  0  0  0  0  0  0  0  0  0  0  0
   38.6410   25.3010   40.2700 C   0  0  0  0  0  0  0  0  0  0  0  0
   39.0240   24.5280   39.5390 H   0  0  0  0  0  0  0  0  0  0  0  0
   39.4960   25.6410   40.8170 H   0  0  0  0  0  0  0  0  0  0  0  0
   38.8320   27.4610   39.3450 C   0  0  0  0  0  3  0  0  0  0  0  0
   38.1390   26.4020   39.3650 C   0  0  0  0  0  3  0  0  0  0  0  0
   38.6240   30.6710   37.5460 C   0  0  0  0  0  0  0  0  0  0  0  0
   37.3520   30.6310   36.9830 C   0  0  0  0  0  0  0  0  0  0  0  0
   36.6190   29.5220   37.2360 C   0  0  0  0  0  0  0  0  0  0  0  0
   37.1280   28.5180   38.0040 N   0  0  0  0  0  0  0  0  0  0  0  0
   38.3610   28.5850   38.5350 C   0  0  0  0  0  0  0  0  0  0  0  0
   39.0820   29.6690   38.2890 N   0  0  0  0  0  0  0  0  0  0  0  0
   39.2250   31.5590   37.3490 H   0  0  0  0  0  0  0  0  0  0  0  0
   36.9600   31.4300   36.3770 H   0  0  0  0  0  0  0  0  0  0  0  0
   35.2670   29.3390   36.7180 C   0  0  0  0  0  0  0  0  0  0  0  0
   34.9300   29.3250   35.3960 C   0  0  0  0  0  0  0  0  0  0  0  0
   33.6430   29.1500   34.9260 C   0  0  0  0  0  0  0  0  0  0  0  0
   32.6060   28.9740   35.8200 C   0  0  0  0  0  0  0  0  0  0  0  0
   32.8770   28.9780   37.1610 C   0  0  0  0  0  0  0  0  0  0  0  0
   34.1850   29.1580   37.5700 C   0  0  0  0  0  0  0  0  0  0  0  0
   35.7250   29.4620   34.6580 H   0  0  0  0  0  0  0  0  0  0  0  0
   33.4270   29.1470   33.8690 H   0  0  0  0  0  0  0  0  0  0  0  0
   31.5710   28.8310   35.5360 H   0  0  0  0  0  0  0  0  0  0  0  0
   32.0930   28.8440   37.8800 H   0  0  0  0  0  0  0  0  0  0  0  0
   34.3470   29.1510   38.6590 H   0  0  0  0  0  0  0  0  0  0  0  0
  1  4  1  6  0  0  0
  1  3  1  0  0  0  0
  1  2  1  0  0  0  0
  2  5  1  0  0  0  0
  2  6  1  0  0  0  0
  3  2  1  0  0  0  0
  3  7  1  1  0  0  0
  3  8  1  0  0  0  0
  8 11  1  1  0  0  0
  8  9  1  0  0  0  0
  9 12  1  0  0  0  0
  9 13  1  0  0  0  0
 10 14  1  6  0  0  0
 10  8  1  0  0  0  0
 10  9  1  0  0  0  0
 15 16  1  0  0  0  0
 16 10  1  0  0  0  0
 16 17  2  0  0  0  0
 17 18  1  0  0  0  0
 19 17  1  0  0  0  0
 20 19  2  0  0  0  0
 21 15  2  0  0  0  0
 21 20  1  0  0  0  0
 22 15  1  0  0  0  0
 22 23  1  0  0  0  0
 24 25  1  0  0  0  0
 24 21  1  0  0  0  0
 26 28  1  0  0  0  0
 26  1  1  0  0  0  0
 27 26  1  0  0  0  0
 29 30  2  0  0  0  0
 30 26  1  0  0  0  0
 31 36  1  0  0  0  0
 32 33  1  0  0  0  0
 32 31  2  0  0  0  0
 33 34  2  0  0  0  0
 34 35  1  0  0  0  0
 35 29  1  0  0  0  0
 36 35  2  0  0  0  0
 37 31  1  0  0  0  0
 38 32  1  0  0  0  0
 39 33  1  0  0  0  0
 39 44  1  0  0  0  0
 40 39  2  0  0  0  0
 41 40  1  0  0  0  0
 41 42  2  0  0  0  0
 42 43  1  0  0  0  0
 43 44  2  0  0  0  0
 43 48  1  0  0  0  0
 44 49  1  0  0  0  0
 45 40  1  0  0  0  0
 46 41  1  0  0  0  0
 47 42  1  0  0  0  0
M  END
>  <minimizedAffinity>
-6.81184244

$$$$

 OpenBabel03252508193D

 49 53  0  0  1  0  0  0  0  0999 V2000
   35.6740   26.8780   35.1110 C   0  0  1  0  0  0  0  0  0  0  0  0
   35.4560   27.7910   33.9530 C   0  0  0  0  0  0  0  0  0  0  0  0
   36.3460   28.1880   35.0400 C   0  0  1  0  0  0  0  0  0  0  0  0
   36.1390   25.9190   34.7360 H   0  0  0  0  0  0  0  0  0  0  0  0
   35.8900   27.5950   32.9510 H   0  0  0  0  0  0  0  0  0  0  0  0
   34.4640   28.2980   33.8530 H   0  0  0  0  0  0  0  0  0  0  0  0
   37.4340   28.1590   34.8180 H   0  0  0  0  0  0  0  0  0  0  0  0
   35.9690   29.2290   36.0450 C   0  0  2  0  0  0  0  0  0  0  0  0
   36.5350   30.6360   35.7280 C   0  0  0  0  0  0  0  0  0  0  0  0
   37.0930   29.8710   36.8530 C   0  0  1  0  0  0  0  0  0  0  0  0
   34.9610   29.3140   36.4670 H   0  0  0  0  0  0  0  0  0  0  0  0
   37.1790   30.7290   34.8080 H   0  0  0  0  0  0  0  0  0  0  0  0
   35.9020   31.5140   35.8410 H   0  0  0  0  0  0  0  0  0  0  0  0
   38.0880   29.4020   36.7030 H   0  0  0  0  0  0  0  0  0  0  0  0
   37.2420   31.4830   38.7850 C   0  0  0  0  0  0  0  0  0  0  0  0
   36.7700   30.2980   38.2540 C   0  0  0  0  0  0  0  0  0  0  0  0
   35.9780   29.4990   39.0550 C   0  0  0  0  0  0  0  0  0  0  0  0
   35.5690   28.5630   38.7260 H   0  0  0  0  0  0  0  0  0  0  0  0
   35.6440   29.8410   40.3640 C   0  0  0  0  0  3  0  0  0  0  0  0
   36.1310   31.0350   40.8740 C   0  0  0  0  0  3  0  0  0  0  0  0
   36.9330   31.8580   40.0790 C   0  0  0  0  0  0  0  0  0  0  0  0
   38.0440   32.2880   37.9640 O   0  0  0  0  0  0  0  0  0  0  0  0
   37.5520   32.7760   37.2040 H   0  0  0  0  0  0  0  0  0  0  0  0
   37.4190   33.0650   40.6080 O   0  0  0  0  0  0  0  0  0  0  0  0
   36.7270   33.8300   40.5760 H   0  0  0  0  0  0  0  0  0  0  0  0
   34.4950   26.6840   35.9880 C   0  0  0  0  0  0  0  0  0  0  0  0
   34.0260   25.7060   35.6710 H   0  0  0  0  0  0  0  0  0  0  0  0
   33.7050   27.4080   35.9810 H   0  0  0  0  0  0  0  0  0  0  0  0
   35.7790   25.4870   37.5630 C   0  0  0  0  0  3  0  0  0  0  0  0
   34.9220   26.4070   37.4110 C   0  0  0  0  0  3  0  0  0  0  0  0
   36.5270   23.6080   40.6440 C   0  0  0  0  0  0  0  0  0  0  0  0
   36.9840   24.5980   41.5090 C   0  0  0  0  0  0  0  0  0  0  0  0
   37.0170   25.8570   41.0160 C   0  0  0  0  0  0  0  0  0  0  0  0
   36.6200   26.1080   39.7360 N   0  0  0  0  0  0  0  0  0  0  0  0
   36.1840   25.1320   38.9230 C   0  0  0  0  0  0  0  0  0  0  0  0
   36.1490   23.8970   39.4030 N   0  0  0  0  0  0  0  0  0  0  0  0
   36.4950   22.5890   41.0290 H   0  0  0  0  0  0  0  0  0  0  0  0
   37.2950   24.3870   42.5170 H   0  0  0  0  0  0  0  0  0  0  0  0
   37.4680   26.9990   41.8050 C   0  0  0  0  0  0  0  0  0  0  0  0
   36.8700   27.4460   42.9470 C   0  0  0  0  0  0  0  0  0  0  0  0
   37.3120   28.5300   43.6800 C   0  0  0  0  0  0  0  0  0  0  0  0
   38.4270   29.2290   43.2630 C   0  0  0  0  0  0  0  0  0  0  0  0
   39.0740   28.8300   42.1250 C   0  0  0  0  0  0  0  0  0  0  0  0
   38.5830   27.7390   41.4340 C   0  0  0  0  0  0  0  0  0  0  0  0
   35.9830   26.9180   43.3070 H   0  0  0  0  0  0  0  0  0  0  0  0
   36.8040   28.8460   44.5770 H   0  0  0  0  0  0  0  0  0  0  0  0
   38.8390   30.0880   43.7780 H   0  0  0  0  0  0  0  0  0  0  0  0
   39.9430   29.3530   41.7760 H   0  0  0  0  0  0  0  0  0  0  0  0
   39.1420   27.4620   40.5270 H   0  0  0  0  0  0  0  0  0  0  0  0
  1  4  1  6  0  0  0
  1 26  1  0  0  0  0
  2  3  1  0  0  0  0
  2  1  1  0  0  0  0
  3  7  1  6  0  0  0
  3  1  1  0  0  0  0
  3  8  1  0  0  0  0
  5  2  1  0  0  0  0
  6  2  1  0  0  0  0
  8 11  1  1  0  0  0
  8 10  1  0  0  0  0
  9 13  1  0  0  0  0
  9  8  1  0  0  0  0
  9 10  1  0  0  0  0
 10 14  1  6  0  0  0
 10 16  1  0  0  0  0
 12  9  1  0  0  0  0
 15 21  1  0  0  0  0
 16 15  2  0  0  0  0
 16 17  1  0  0  0  0
 17 19  2  0  0  0  0
 18 17  1  0  0  0  0
 19 20  1  0  0  0  0
 21 24  1  0  0  0  0
 21 20  2  0  0  0  0
 22 15  1  0  0  0  0
 23 22  1  0  0  0  0
 25 24  1  0  0  0  0
 26 30  1  0  0  0  0
 27 26  1  0  0  0  0
 28 26  1  0  0  0  0
 29 35  1  0  0  0  0
 30 29  2  0  0  0  0
 31 37  1  0  0  0  0
 31 32  1  0  0  0  0
 32 38  1  0  0  0  0
 33 32  2  0  0  0  0
 33 39  1  0  0  0  0
 34 33  1  0  0  0  0
 35 36  1  0  0  0  0
 35 34  2  0  0  0  0
 36 31  2  0  0  0  0
 39 40  1  0  0  0  0
 40 45  1  0  0  0  0
 40 41  2  0  0  0  0
 41 46  1  0  0  0  0
 42 41  1  0  0  0  0
 42 47  1  0  0  0  0
 43 42  2  0  0  0  0
 44 39  2  0  0  0  0
 44 43  1  0  0  0  0
 48 43  1  0  0  0  0
 49 44  1  0  0  0  0
M  END
>  <minimizedAffinity>
-6.49329948

$$$$

 OpenBabel03252508193D

 49 53  0  0  1  0  0  0  0  0999 V2000
   36.6040   25.5610   37.5570 C   0  0  1  0  0  0  0  0  0  0  0  0
   35.6790   25.6860   36.3960 C   0  0  0  0  0  0  0  0  0  0  0  0
   36.6220   26.7580   36.6990 C   0  0  1  0  0  0  0  0  0  0  0  0
   37.2760   24.6670   37.3940 H   0  0  0  0  0  0  0  0  0  0  0  0
   35.8140   25.1030   35.4610 H   0  0  0  0  0  0  0  0  0  0  0  0
   34.5910   25.8490   36.5950 H   0  0  0  0  0  0  0  0  0  0  0  0
   37.4950   26.8500   36.0190 H   0  0  0  0  0  0  0  0  0  0  0  0
   36.1910   28.0600   37.2960 C   0  0  2  0  0  0  0  0  0  0  0  0
   35.9180   29.1680   36.2470 C   0  0  0  0  0  0  0  0  0  0  0  0
   37.1080   29.2630   37.1050 C   0  0  1  0  0  0  0  0  0  0  0  0
   35.4660   28.1290   38.1150 H   0  0  0  0  0  0  0  0  0  0  0  0
   36.0920   28.8980   35.1670 H   0  0  0  0  0  0  0  0  0  0  0  0
   35.0420   29.8050   36.3460 H   0  0  0  0  0  0  0  0  0  0  0  0
   38.0880   29.0220   36.6430 H   0  0  0  0  0  0  0  0  0  0  0  0
   36.3470   30.1610   39.3340 C   0  0  0  0  0  0  0  0  0  0  0  0
   37.1330   30.2850   38.2040 C   0  0  0  0  0  0  0  0  0  0  0  0
   37.9580   31.3870   38.1040 C   0  0  0  0  0  0  0  0  0  0  0  0
   38.6000   31.5640   37.2630 H   0  0  0  0  0  0  0  0  0  0  0  0
   38.0250   32.3700   39.0910 C   0  0  0  0  0  3  0  0  0  0  0  0
   37.2260   32.2230   40.2160 C   0  0  0  0  0  3  0  0  0  0  0  0
   36.3850   31.1140   40.3360 C   0  0  0  0  0  0  0  0  0  0  0  0
   35.5150   29.0380   39.4270 O   0  0  0  0  0  0  0  0  0  0  0  0
   35.9910   28.1460   39.6110 H   0  0  0  0  0  0  0  0  0  0  0  0
   35.5830   30.9790   41.4800 O   0  0  0  0  0  0  0  0  0  0  0  0
   36.0910   30.5900   42.2890 H   0  0  0  0  0  0  0  0  0  0  0  0
   35.9500   25.5980   38.8880 C   0  0  0  0  0  0  0  0  0  0  0  0
   35.7150   24.5240   39.1510 H   0  0  0  0  0  0  0  0  0  0  0  0
   35.0350   26.1410   39.0120 H   0  0  0  0  0  0  0  0  0  0  0  0
   37.6560   25.0700   40.4270 C   0  0  0  0  0  3  0  0  0  0  0  0
   36.9350   26.0000   39.9610 C   0  0  0  0  0  3  0  0  0  0  0  0
   39.8840   24.8150   43.3520 C   0  0  0  0  0  0  0  0  0  0  0  0
   40.3390   26.1200   43.5120 C   0  0  0  0  0  0  0  0  0  0  0  0
   39.8720   27.0310   42.6260 C   0  0  0  0  0  0  0  0  0  0  0  0
   39.0050   26.6560   41.6430 N   0  0  0  0  0  0  0  0  0  0  0  0
   38.5840   25.3870   41.5130 C   0  0  0  0  0  0  0  0  0  0  0  0
   39.0390   24.4930   42.3790 N   0  0  0  0  0  0  0  0  0  0  0  0
   40.2530   24.0720   44.0590 H   0  0  0  0  0  0  0  0  0  0  0  0
   41.0230   26.4050   44.2920 H   0  0  0  0  0  0  0  0  0  0  0  0
   40.2550   28.4380   42.6710 C   0  0  0  0  0  0  0  0  0  0  0  0
   39.3960   29.4890   42.5330 C   0  0  0  0  0  0  0  0  0  0  0  0
   39.7800   30.8150   42.5770 C   0  0  0  0  0  0  0  0  0  0  0  0
   41.1080   31.1370   42.7730 C   0  0  0  0  0  0  0  0  0  0  0  0
   42.0220   30.1280   42.9180 C   0  0  0  0  0  0  0  0  0  0  0  0
   41.5770   28.8210   42.8640 C   0  0  0  0  0  0  0  0  0  0  0  0
   38.3360   29.2730   42.3760 H   0  0  0  0  0  0  0  0  0  0  0  0
   39.0620   31.6120   42.4640 H   0  0  0  0  0  0  0  0  0  0  0  0
   41.4920   32.1480   42.8200 H   0  0  0  0  0  0  0  0  0  0  0  0
   43.0600   30.3460   43.0710 H   0  0  0  0  0  0  0  0  0  0  0  0
   42.3530   28.0510   42.9870 H   0  0  0  0  0  0  0  0  0  0  0  0
  1  4  1  6  0  0  0
  1 26  1  0  0  0  0
  2  6  1  0  0  0  0
  2  3  1  0  0  0  0
  2  1  1  0  0  0  0
  3  7  1  6  0  0  0
  3  8  1  0  0  0  0
  3  1  1  0  0  0  0
  5  2  1  0  0  0  0
  8 11  1  1  0  0  0
  9 13  1  0  0  0  0
  9 10  1  0  0  0  0
  9  8  1  0  0  0  0
 10 14  1  6  0  0  0
 10  8  1  0  0  0  0
 10 16  1  0  0  0  0
 12  9  1  0  0  0  0
 15 22  1  0  0  0  0
 15 21  1  0  0  0  0
 16 15  2  0  0  0  0
 17 16  1  0  0  0  0
 17 19  2  0  0  0  0
 18 17  1  0  0  0  0
 19 20  1  0  0  0  0
 20 21  2  0  0  0  0
 21 24  1  0  0  0  0
 22 23  1  0  0  0  0
 24 25  1  0  0  0  0
 26 28  1  0  0  0  0
 26 27  1  0  0  0  0
 26 30  1  0  0  0  0
 29 35  1  0  0  0  0
 30 29  2  0  0  0  0
 31 32  1  0  0  0  0
 31 37  1  0  0  0  0
 32 38  1  0  0  0  0
 33 39  1  0  0  0  0
 33 32  2  0  0  0  0
 34 33  1  0  0  0  0
 35 34  2  0  0  0  0
 35 36  1  0  0  0  0
 36 31  2  0  0  0  0
 39 44  1  0  0  0  0
 40 41  1  0  0  0  0
 40 39  2  0  0  0  0
 41 42  2  0  0  0  0
 42 47  1  0  0  0  0
 42 43  1  0  0  0  0
 43 48  1  0  0  0  0
 44 43  2  0  0  0  0
 44 49  1  0  0  0  0
 45 40  1  0  0  0  0
 46 41  1  0  0  0  0
M  END
>  <minimizedAffinity>
-6.28674269

$$$$

 OpenBabel03252508193D

 49 53  0  0  1  0  0  0  0  0999 V2000
   36.8340   25.0480   41.0860 C   0  0  1  0  0  0  0  0  0  0  0  0
   37.8380   24.3990   41.9750 C   0  0  0  0  0  0  0  0  0  0  0  0
   37.0860   25.5590   42.4450 C   0  0  1  0  0  0  0  0  0  0  0  0
   36.0240   24.2990   40.8420 H   0  0  0  0  0  0  0  0  0  0  0  0
   37.6600   23.4150   42.4560 H   0  0  0  0  0  0  0  0  0  0  0  0
   38.9230   24.5190   41.7320 H   0  0  0  0  0  0  0  0  0  0  0  0
   36.2890   25.3560   43.1910 H   0  0  0  0  0  0  0  0  0  0  0  0
   37.7060   26.9120   42.5860 C   0  0  2  0  0  0  0  0  0  0  0  0
   37.0460   27.7900   43.6790 C   0  0  0  0  0  0  0  0  0  0  0  0
   36.8380   28.1240   42.2630 C   0  0  1  0  0  0  0  0  0  0  0  0
   38.7900   27.0770   42.5730 H   0  0  0  0  0  0  0  0  0  0  0  0
   36.1700   27.3430   44.2290 H   0  0  0  0  0  0  0  0  0  0  0  0
   37.6680   28.3700   44.3580 H   0  0  0  0  0  0  0  0  0  0  0  0
   35.8500   27.8740   41.8220 H   0  0  0  0  0  0  0  0  0  0  0  0
   36.8260   30.4390   41.2640 C   0  0  0  0  0  0  0  0  0  0  0  0
   37.5280   29.3260   41.6890 C   0  0  0  0  0  0  0  0  0  0  0  0
   38.9040   29.3450   41.5750 C   0  0  0  0  0  0  0  0  0  0  0  0
   39.5270   28.5260   41.8790 H   0  0  0  0  0  0  0  0  0  0  0  0
   39.6010   30.4310   41.0510 C   0  0  0  0  0  3  0  0  0  0  0  0
   38.8740   31.5360   40.6300 C   0  0  0  0  0  3  0  0  0  0  0  0
   37.4810   31.5370   40.7390 C   0  0  0  0  0  0  0  0  0  0  0  0
   35.4300   30.4110   41.3860 O   0  0  0  0  0  0  0  0  0  0  0  0
   35.0660   30.4960   42.3440 H   0  0  0  0  0  0  0  0  0  0  0  0
   36.7580   32.6610   40.3090 O   0  0  0  0  0  0  0  0  0  0  0  0
   36.7410   33.4230   41.0050 H   0  0  0  0  0  0  0  0  0  0  0  0
   37.3990   25.7440   39.9040 C   0  0  0  0  0  0  0  0  0  0  0  0
   37.9730   24.9610   39.3250 H   0  0  0  0  0  0  0  0  0  0  0  0
   38.0740   26.5630   40.0450 H   0  0  0  0  0  0  0  0  0  0  0  0
   36.1110   27.3850   38.8050 C   0  0  0  0  0  3  0  0  0  0  0  0
   36.3050   26.1410   38.9400 C   0  0  0  0  0  3  0  0  0  0  0  0
   33.1220   29.0850   37.4770 C   0  0  0  0  0  0  0  0  0  0  0  0
   33.0270   28.5830   36.1830 C   0  0  0  0  0  0  0  0  0  0  0  0
   33.9750   27.6900   35.8150 C   0  0  0  0  0  0  0  0  0  0  0  0
   34.9560   27.3250   36.6880 N   0  0  0  0  0  0  0  0  0  0  0  0
   35.0230   27.8280   37.9320 C   0  0  0  0  0  0  0  0  0  0  0  0
   34.0960   28.7020   38.2960 N   0  0  0  0  0  0  0  0  0  0  0  0
   32.3650   29.8050   37.7860 H   0  0  0  0  0  0  0  0  0  0  0  0
   32.2480   28.8780   35.5020 H   0  0  0  0  0  0  0  0  0  0  0  0
   34.0030   27.0740   34.4920 C   0  0  0  0  0  0  0  0  0  0  0  0
   35.1320   26.8170   33.7710 C   0  0  0  0  0  0  0  0  0  0  0  0
   35.1370   26.2330   32.5200 C   0  0  0  0  0  0  0  0  0  0  0  0
   33.9430   25.8720   31.9290 C   0  0  0  0  0  0  0  0  0  0  0  0
   32.7720   26.1020   32.6000 C   0  0  0  0  0  0  0  0  0  0  0  0
   32.8320   26.6900   33.8490 C   0  0  0  0  0  0  0  0  0  0  0  0
   36.0970   27.0900   34.2070 H   0  0  0  0  0  0  0  0  0  0  0  0
   36.0570   26.0500   31.9890 H   0  0  0  0  0  0  0  0  0  0  0  0
   33.8580   25.4100   30.9530 H   0  0  0  0  0  0  0  0  0  0  0  0
   31.8290   25.8320   32.1680 H   0  0  0  0  0  0  0  0  0  0  0  0
   31.8630   26.8510   34.3440 H   0  0  0  0  0  0  0  0  0  0  0  0
  1  4  1  6  0  0  0
  1  2  1  0  0  0  0
  1  3  1  0  0  0  0
  2  3  1  0  0  0  0
  2  5  1  0  0  0  0
  3  8  1  0  0  0  0
  3  7  1  1  0  0  0
  6  2  1  0  0  0  0
  8 11  1  6  0  0  0
  8  9  1  0  0  0  0
  9 12  1  0  0  0  0
  9 13  1  0  0  0  0
 10 14  1  6  0  0  0
 10  8  1  0  0  0  0
 10  9  1  0  0  0  0
 15 22  1  0  0  0  0
 15 16  1  0  0  0  0
 16 10  1  0  0  0  0
 17 16  2  0  0  0  0
 17 18  1  0  0  0  0
 19 17  1  0  0  0  0
 20 21  1  0  0  0  0
 20 19  2  0  0  0  0
 21 15  2  0  0  0  0
 22 23  1  0  0  0  0
 24 21  1  0  0  0  0
 24 25  1  0  0  0  0
 26 28  1  0  0  0  0
 26  1  1  0  0  0  0
 27 26  1  0  0  0  0
 29 30  2  0  0  0  0
 30 26  1  0  0  0  0
 31 37  1  0  0  0  0
 31 36  1  0  0  0  0
 32 31  2  0  0  0  0
 33 32  1  0  0  0  0
 33 34  2  0  0  0  0
 34 35  1  0  0  0  0
 35 36  2  0  0  0  0
 35 29  1  0  0  0  0
 38 32  1  0  0  0  0
 39 33  1  0  0  0  0
 40 45  1  0  0  0  0
 40 39  2  0  0  0  0
 41 40  1  0  0  0  0
 42 41  2  0  0  0  0
 42 43  1  0  0  0  0
 43 44  2  0  0  0  0
 44 49  1  0  0  0  0
 44 39  1  0  0  0  0
 46 41  1  0  0  0  0
 47 42  1  0  0  0  0
 48 43  1  0  0  0  0
M  END
>  <minimizedAffinity>
-6.25370216

$$$$

 OpenBabel03252508193D

 49 53  0  0  1  0  0  0  0  0999 V2000
   34.5310   28.2630   38.4300 C   0  0  1  0  0  0  0  0  0  0  0  0
   33.7190   28.6910   37.2560 C   0  0  0  0  0  0  0  0  0  0  0  0
   35.1760   28.7740   37.2070 C   0  0  1  0  0  0  0  0  0  0  0  0
   34.3440   27.1660   38.6230 H   0  0  0  0  0  0  0  0  0  0  0  0
   33.2020   27.9670   36.5940 H   0  0  0  0  0  0  0  0  0  0  0  0
   33.1250   29.6360   37.3350 H   0  0  0  0  0  0  0  0  0  0  0  0
   35.6890   28.0150   36.5800 H   0  0  0  0  0  0  0  0  0  0  0  0
   35.9080   30.0760   37.2880 C   0  0  2  0  0  0  0  0  0  0  0  0
   36.9940   30.2500   36.1960 C   0  0  0  0  0  0  0  0  0  0  0  0
   37.4020   30.0290   37.5910 C   0  0  1  0  0  0  0  0  0  0  0  0
   35.4060   31.0320   37.4760 H   0  0  0  0  0  0  0  0  0  0  0  0
   37.1390   29.3900   35.4830 H   0  0  0  0  0  0  0  0  0  0  0  0
   37.0920   31.1990   35.6740 H   0  0  0  0  0  0  0  0  0  0  0  0
   37.7830   29.0200   37.8550 H   0  0  0  0  0  0  0  0  0  0  0  0
   39.3070   31.5360   38.2630 C   0  0  0  0  0  0  0  0  0  0  0  0
   37.9770   31.1750   38.3700 C   0  0  0  0  0  0  0  0  0  0  0  0
   37.1740   31.9030   39.2240 C   0  0  0  0  0  0  0  0  0  0  0  0
   36.1310   31.6930   39.3690 H   0  0  0  0  0  0  0  0  0  0  0  0
   37.6500   32.9770   39.9740 C   0  0  0  0  0  3  0  0  0  0  0  0
   38.9890   33.3200   39.8500 C   0  0  0  0  0  3  0  0  0  0  0  0
   39.8180   32.5950   38.9910 C   0  0  0  0  0  0  0  0  0  0  0  0
   40.1150   30.7910   37.3940 O   0  0  0  0  0  0  0  0  0  0  0  0
   39.9500   30.9480   36.3900 H   0  0  0  0  0  0  0  0  0  0  0  0
   41.1710   32.9540   38.8750 O   0  0  0  0  0  0  0  0  0  0  0  0
   41.3270   33.7500   38.2380 H   0  0  0  0  0  0  0  0  0  0  0  0
   34.4040   29.1250   39.6300 C   0  0  0  0  0  0  0  0  0  0  0  0
   33.4930   28.7530   40.1870 H   0  0  0  0  0  0  0  0  0  0  0  0
   34.2690   30.1810   39.5110 H   0  0  0  0  0  0  0  0  0  0  0  0
   36.2400   27.8410   40.3650 C   0  0  0  0  0  3  0  0  0  0  0  0
   35.5270   28.8590   40.6060 C   0  0  0  0  0  3  0  0  0  0  0  0
   38.3430   26.0680   42.8180 C   0  0  0  0  0  0  0  0  0  0  0  0
   39.3700   26.9750   43.0610 C   0  0  0  0  0  0  0  0  0  0  0  0
   39.3080   28.1470   42.3880 C   0  0  0  0  0  0  0  0  0  0  0  0
   38.2810   28.3940   41.5250 N   0  0  0  0  0  0  0  0  0  0  0  0
   37.3030   27.4980   41.3100 C   0  0  0  0  0  0  0  0  0  0  0  0
   37.3610   26.3490   41.9680 N   0  0  0  0  0  0  0  0  0  0  0  0
   38.3820   25.1200   43.3540 H   0  0  0  0  0  0  0  0  0  0  0  0
   40.1760   26.7690   43.7450 H   0  0  0  0  0  0  0  0  0  0  0  0
   40.3090   29.1970   42.5430 C   0  0  0  0  0  0  0  0  0  0  0  0
   40.1050   30.5200   42.2780 C   0  0  0  0  0  0  0  0  0  0  0  0
   41.0680   31.4980   42.4310 C   0  0  0  0  0  0  0  0  0  0  0  0
   42.3280   31.1540   42.8790 C   0  0  0  0  0  0  0  0  0  0  0  0
   42.5980   29.8430   43.1630 C   0  0  0  0  0  0  0  0  0  0  0  0
   41.5930   28.9090   42.9890 C   0  0  0  0  0  0  0  0  0  0  0  0
   39.1200   30.8290   41.9200 H   0  0  0  0  0  0  0  0  0  0  0  0
   40.8580   32.5320   42.2080 H   0  0  0  0  0  0  0  0  0  0  0  0
   43.1380   31.8580   43.0250 H   0  0  0  0  0  0  0  0  0  0  0  0
   43.5660   29.5450   43.5120 H   0  0  0  0  0  0  0  0  0  0  0  0
   41.8640   27.8710   43.2330 H   0  0  0  0  0  0  0  0  0  0  0  0
  1  4  1  1  0  0  0
  1 26  1  0  0  0  0
  2  6  1  0  0  0  0
  2  1  1  0  0  0  0
  3  7  1  6  0  0  0
  3  2  1  0  0  0  0
  3  8  1  0  0  0  0
  3  1  1  0  0  0  0
  5  2  1  0  0  0  0
  8 11  1  1  0  0  0
  8 10  1  0  0  0  0
  9  8  1  0  0  0  0
  9 10  1  0  0  0  0
 10 14  1  1  0  0  0
 10 16  1  0  0  0  0
 12  9  1  0  0  0  0
 13  9  1  0  0  0  0
 15 16  2  0  0  0  0
 15 21  1  0  0  0  0
 16 17  1  0  0  0  0
 17 18  1  0  0  0  0
 17 19  2  0  0  0  0
 20 19  1  0  0  0  0
 21 20  2  0  0  0  0
 22 15  1  0  0  0  0
 23 22  1  0  0  0  0
 24 21  1  0  0  0  0
 25 24  1  0  0  0  0
 26 27  1  0  0  0  0
 26 30  1  0  0  0  0
 28 26  1  0  0  0  0
 29 30  2  0  0  0  0
 29 35  1  0  0  0  0
 31 32  1  0  0  0  0
 31 37  1  0  0  0  0
 32 38  1  0  0  0  0
 33 39  1  0  0  0  0
 33 32  2  0  0  0  0
 34 33  1  0  0  0  0
 35 34  2  0  0  0  0
 35 36  1  0  0  0  0
 36 31  2  0  0  0  0
 39 44  1  0  0  0  0
 40 41  1  0  0  0  0
 40 39  2  0  0  0  0
 41 42  2  0  0  0  0
 42 47  1  0  0  0  0
 42 43  1  0  0  0  0
 43 48  1  0  0  0  0
 44 43  2  0  0  0  0
 44 49  1  0  0  0  0
 45 40  1  0  0  0  0
 46 41  1  0  0  0  0
M  END
>  <minimizedAffinity>
-6.2114563

$$$$
