
 OpenBabel03242523253D

 45 48  0  0  1  0  0  0  0  0999 V2000
   37.2930   28.8430   40.2000 C   0  0  0  0  0  0  0  0  0  0  0  0
   37.3250   27.8200   41.0490 C   0  0  0  0  0  0  0  0  0  0  0  0
   37.6860   26.6110   40.5110 C   0  0  0  0  0  0  0  0  0  0  0  0
   37.9810   26.5770   39.1310 N   0  0  0  0  0  0  0  0  0  0  0  0
   37.9290   27.6250   38.3460 C   0  0  0  0  0  0  0  0  0  0  0  0
   37.5710   28.8450   38.8630 N   0  0  0  0  0  0  0  0  0  0  0  0
   37.7640   25.6780   41.0610 H   0  0  0  0  0  0  0  0  0  0  0  0
   38.1890   27.4080   37.3110 H   0  0  0  0  0  0  0  0  0  0  0  0
   36.9220   27.8260   42.4140 C   0  0  1  0  0  0  0  0  0  0  0  0
   36.7730   26.7800   43.2620 C   0  0  0  0  0  0  0  0  0  0  0  0
   37.9760   27.6360   43.5290 C   0  0  1  0  0  0  0  0  0  0  0  0
   36.1670   28.6480   42.6110 H   0  0  0  0  0  0  0  0  0  0  0  0
   36.9940   25.7310   42.8900 H   0  0  0  0  0  0  0  0  0  0  0  0
   36.1190   26.6550   44.1550 H   0  0  0  0  0  0  0  0  0  0  0  0
   37.8520   28.4060   44.3520 H   0  0  0  0  0  0  0  0  0  0  0  0
   40.0100   25.9340   43.1680 C   0  0  0  0  0  0  0  0  0  0  0  0
   39.3070   27.1060   43.3090 C   0  0  0  0  0  0  0  0  0  0  0  0
   40.1240   28.2610   43.2700 C   0  0  0  0  0  0  0  0  0  0  0  0
   39.9130   29.3340   43.3470 H   0  0  0  0  0  0  0  0  0  0  0  0
   41.5210   28.2070   43.1010 C   0  0  0  0  0  3  0  0  0  0  0  0
   42.1300   26.9580   42.9680 C   0  0  0  0  0  3  0  0  0  0  0  0
   41.3650   25.8170   43.0020 C   0  0  0  0  0  0  0  0  0  0  0  0
   39.1350   24.8650   43.2130 O   0  0  0  0  0  0  0  0  0  0  0  0
   39.2140   24.0520   42.6180 H   0  0  0  0  0  0  0  0  0  0  0  0
   41.7870   24.5000   42.8880 O   0  0  0  0  0  0  0  0  0  0  0  0
   41.9340   24.1550   41.9500 H   0  0  0  0  0  0  0  0  0  0  0  0
   37.0060   30.2560   40.5230 C   0  0  0  0  0  0  0  0  0  0  0  0
   36.2830   31.1900   40.7540 O   0  0  0  0  0  0  0  0  0  0  0  0
   37.9950   31.9460   38.1400 Cl  0  0  0  0  0  0  0  0  0  0  0  0
   38.9100   31.7820   39.6420 C   0  0  0  0  0  0  0  0  0  0  0  0
   38.3100   30.9850   40.6370 C   0  0  0  0  0  0  0  0  0  0  0  0
   39.1140   30.9430   41.7540 C   0  0  0  0  0  0  0  0  0  0  0  0
   40.2880   31.5060   41.9980 C   0  0  0  0  0  0  0  0  0  0  0  0
   40.8120   32.2700   40.9760 C   0  0  0  0  0  0  0  0  0  0  0  0
   40.1380   32.4140   39.8040 C   0  0  0  0  0  0  0  0  0  0  0  0
   38.7430   30.3740   42.6390 H   0  0  0  0  0  0  0  0  0  0  0  0
   40.8570   31.4140   42.9240 H   0  0  0  0  0  0  0  0  0  0  0  0
   41.7900   32.7550   41.1440 H   0  0  0  0  0  0  0  0  0  0  0  0
   40.7570   33.1960   38.8650 O   0  0  0  0  0  0  0  0  0  0  0  0
   43.1060   32.1950   38.2870 O   0  0  0  0  0  0  0  0  0  0  0  0
   41.8610   32.7820   37.6590 P   0  0  0  0  0  0  0  0  0  0  0  0
   41.1290   31.6860   36.5930 O   0  0  0  0  0  0  0  0  0  0  0  0
   40.7400   30.9080   37.0770 H   0  0  0  0  0  0  0  0  0  0  0  0
   42.2740   34.1350   36.7110 O   0  0  0  0  0  0  0  0  0  0  0  0
   41.5220   34.3290   36.1020 H   0  0  0  0  0  0  0  0  0  0  0  0
  1 27  1  0  0  0  0
  1  2  1  0  0  0  0
  2  9  1  0  0  0  0
  3  2  2  0  0  0  0
  3  7  1  0  0  0  0
  4  3  1  0  0  0  0
  5  6  1  0  0  0  0
  5  4  2  0  0  0  0
  6  1  2  0  0  0  0
  8  5  1  0  0  0  0
  9 12  1  1  0  0  0
  9 10  1  0  0  0  0
  9 11  1  0  0  0  0
 10 11  1  0  0  0  0
 10 14  1  0  0  0  0
 11 15  1  1  0  0  0
 13 10  1  0  0  0  0
 16 23  1  0  0  0  0
 16 17  1  0  0  0  0
 17 11  1  0  0  0  0
 18 17  2  0  0  0  0
 18 19  1  0  0  0  0
 20 18  1  0  0  0  0
 21 22  1  0  0  0  0
 21 20  2  0  0  0  0
 22 16  2  0  0  0  0
 24 23  1  0  0  0  0
 25 22  1  0  0  0  0
 26 25  1  0  0  0  0
 27 31  1  0  0  0  0
 27 28  2  0  0  0  0
 29 30  1  0  0  0  0
 30 35  2  0  0  0  0
 30 31  1  0  0  0  0
 31 32  2  0  0  0  0
 32 33  1  0  0  0  0
 32 36  1  0  0  0  0
 33 37  1  0  0  0  0
 34 38  1  0  0  0  0
 34 33  2  0  0  0  0
 35 34  1  0  0  0  0
 39 35  1  0  0  0  0
 41 40  2  0  0  0  0
 41 39  1  0  0  0  0
 42 43  1  0  0  0  0
 42 41  1  0  0  0  0
 44 41  1  0  0  0  0
 45 44  1  0  0  0  0
M  END
>  <minimizedAffinity>
-7.05276346

$$$$

 OpenBabel03242523253D

 45 48  0  0  1  0  0  0  0  0999 V2000
   37.3480   29.8940   39.6100 C   0  0  0  0  0  0  0  0  0  0  0  0
   37.2820   30.9790   38.8440 C   0  0  0  0  0  0  0  0  0  0  0  0
   37.4540   30.7700   37.4990 C   0  0  0  0  0  0  0  0  0  0  0  0
   37.6830   29.4440   37.0720 N   0  0  0  0  0  0  0  0  0  0  0  0
   37.7380   28.4150   37.8820 C   0  0  0  0  0  0  0  0  0  0  0  0
   37.5670   28.6000   39.2300 N   0  0  0  0  0  0  0  0  0  0  0  0
   37.4300   31.5420   36.7360 H   0  0  0  0  0  0  0  0  0  0  0  0
   37.9240   27.4700   37.3730 H   0  0  0  0  0  0  0  0  0  0  0  0
   37.1640   32.3290   39.2790 C   0  0  1  0  0  0  0  0  0  0  0  0
   37.6620   32.9100   40.3970 C   0  0  0  0  0  0  0  0  0  0  0  0
   38.3600   33.2960   39.1270 C   0  0  1  0  0  0  0  0  0  0  0  0
   36.1610   32.7660   38.9790 H   0  0  0  0  0  0  0  0  0  0  0  0
   38.2730   32.2850   41.1200 H   0  0  0  0  0  0  0  0  0  0  0  0
   37.3030   33.7880   40.9820 H   0  0  0  0  0  0  0  0  0  0  0  0
   38.0400   34.2850   38.6760 H   0  0  0  0  0  0  0  0  0  0  0  0
   40.5800   32.4180   37.9140 C   0  0  0  0  0  0  0  0  0  0  0  0
   39.7260   32.8700   38.8920 C   0  0  0  0  0  0  0  0  0  0  0  0
   40.3230   32.9370   40.1730 C   0  0  0  0  0  0  0  0  0  0  0  0
   39.9530   33.2430   41.1590 H   0  0  0  0  0  0  0  0  0  0  0  0
   41.6610   32.5750   40.4160 C   0  0  0  0  0  3  0  0  0  0  0  0
   42.4380   32.1280   39.3460 C   0  0  0  0  0  3  0  0  0  0  0  0
   41.8890   32.0510   38.0880 C   0  0  0  0  0  0  0  0  0  0  0  0
   39.9170   32.3910   36.7010 O   0  0  0  0  0  0  0  0  0  0  0  0
   40.3410   32.6660   35.8260 H   0  0  0  0  0  0  0  0  0  0  0  0
   42.4980   31.6350   36.9130 O   0  0  0  0  0  0  0  0  0  0  0  0
   43.0570   32.3230   36.4290 H   0  0  0  0  0  0  0  0  0  0  0  0
   37.1330   29.8240   41.0700 C   0  0  0  0  0  0  0  0  0  0  0  0
   36.4940   29.9680   42.0790 O   0  0  0  0  0  0  0  0  0  0  0  0
   37.0810   26.9740   42.2480 Cl  0  0  0  0  0  0  0  0  0  0  0  0
   38.5150   28.0030   42.2970 C   0  0  0  0  0  0  0  0  0  0  0  0
   38.3740   29.2730   41.7010 C   0  0  0  0  0  0  0  0  0  0  0  0
   39.5580   29.9710   41.7970 C   0  0  0  0  0  0  0  0  0  0  0  0
   40.7200   29.6360   42.3370 C   0  0  0  0  0  0  0  0  0  0  0  0
   40.7800   28.3790   42.9020 C   0  0  0  0  0  0  0  0  0  0  0  0
   39.6940   27.5610   42.8880 C   0  0  0  0  0  0  0  0  0  0  0  0
   39.6010   30.9840   41.3320 H   0  0  0  0  0  0  0  0  0  0  0  0
   41.6110   30.2640   42.3680 H   0  0  0  0  0  0  0  0  0  0  0  0
   41.7340   28.0650   43.3630 H   0  0  0  0  0  0  0  0  0  0  0  0
   39.8740   26.3380   43.4770 O   0  0  0  0  0  0  0  0  0  0  0  0
   40.0040   24.8420   41.3330 O   0  0  0  0  0  0  0  0  0  0  0  0
   40.3480   24.8650   42.8060 P   0  0  0  0  0  0  0  0  0  0  0  0
   42.0110   24.6540   43.0570 O   0  0  0  0  0  0  0  0  0  0  0  0
   42.5340   25.4370   42.7360 H   0  0  0  0  0  0  0  0  0  0  0  0
   39.5970   23.5570   43.5960 O   0  0  0  0  0  0  0  0  0  0  0  0
   40.0410   23.4240   44.4680 H   0  0  0  0  0  0  0  0  0  0  0  0
  1 27  1  0  0  0  0
  2  9  1  0  0  0  0
  2  1  2  0  0  0  0
  3  2  1  0  0  0  0
  4  3  2  0  0  0  0
  4  5  1  0  0  0  0
  5  6  2  0  0  0  0
  6  1  1  0  0  0  0
  7  3  1  0  0  0  0
  8  5  1  0  0  0  0
  9 12  1  6  0  0  0
  9 10  1  0  0  0  0
 10 14  1  0  0  0  0
 10 13  1  0  0  0  0
 11 15  1  6  0  0  0
 11  9  1  0  0  0  0
 11 10  1  0  0  0  0
 16 22  2  0  0  0  0
 16 17  1  0  0  0  0
 17 11  1  0  0  0  0
 17 18  2  0  0  0  0
 18 20  1  0  0  0  0
 18 19  1  0  0  0  0
 21 20  2  0  0  0  0
 22 21  1  0  0  0  0
 23 16  1  0  0  0  0
 24 23  1  0  0  0  0
 25 22  1  0  0  0  0
 26 25  1  0  0  0  0
 27 31  1  0  0  0  0
 27 28  2  0  0  0  0
 29 30  1  0  0  0  0
 30 35  1  0  0  0  0
 31 32  1  0  0  0  0
 31 30  2  0  0  0  0
 32 33  2  0  0  0  0
 33 37  1  0  0  0  0
 33 34  1  0  0  0  0
 34 38  1  0  0  0  0
 35 34  2  0  0  0  0
 35 39  1  0  0  0  0
 36 32  1  0  0  0  0
 40 41  2  0  0  0  0
 41 42  1  0  0  0  0
 41 39  1  0  0  0  0
 41 44  1  0  0  0  0
 43 42  1  0  0  0  0
 44 45  1  0  0  0  0
M  END
>  <minimizedAffinity>
-6.83241463

$$$$

 OpenBabel03242523253D

 45 48  0  0  1  0  0  0  0  0999 V2000
   38.0660   29.9550   41.1890 C   0  0  0  0  0  0  0  0  0  0  0  0
   37.2360   29.0090   41.6180 C   0  0  0  0  0  0  0  0  0  0  0  0
   36.4540   28.4220   40.6560 C   0  0  0  0  0  0  0  0  0  0  0  0
   36.6060   28.8780   39.3290 N   0  0  0  0  0  0  0  0  0  0  0  0
   37.4450   29.8190   38.9710 C   0  0  0  0  0  0  0  0  0  0  0  0
   38.2380   30.4190   39.9150 N   0  0  0  0  0  0  0  0  0  0  0  0
   35.7270   27.6350   40.8330 H   0  0  0  0  0  0  0  0  0  0  0  0
   37.4240   30.0390   37.9040 H   0  0  0  0  0  0  0  0  0  0  0  0
   36.9990   28.6240   42.9680 C   0  0  1  0  0  0  0  0  0  0  0  0
   36.4810   27.4660   43.4440 C   0  0  0  0  0  0  0  0  0  0  0  0
   37.9560   27.6300   43.6650 C   0  0  1  0  0  0  0  0  0  0  0  0
   36.7030   29.5180   43.5990 H   0  0  0  0  0  0  0  0  0  0  0  0
   36.1850   26.6510   42.7130 H   0  0  0  0  0  0  0  0  0  0  0  0
   35.9200   27.2520   44.3830 H   0  0  0  0  0  0  0  0  0  0  0  0
   38.2570   27.9960   44.6940 H   0  0  0  0  0  0  0  0  0  0  0  0
   38.9700   25.7070   42.1020 C   0  0  0  0  0  0  0  0  0  0  0  0
   38.8940   26.7750   42.9640 C   0  0  0  0  0  0  0  0  0  0  0  0
   40.1580   27.2430   43.3930 C   0  0  0  0  0  0  0  0  0  0  0  0
   40.4720   28.0540   44.0610 H   0  0  0  0  0  0  0  0  0  0  0  0
   41.3720   26.6670   42.9730 C   0  0  0  0  0  3  0  0  0  0  0  0
   41.3300   25.5820   42.0950 C   0  0  0  0  0  3  0  0  0  0  0  0
   40.1180   25.1030   41.6590 C   0  0  0  0  0  0  0  0  0  0  0  0
   37.6940   25.3220   41.7330 O   0  0  0  0  0  0  0  0  0  0  0  0
   37.4450   25.0380   40.7960 H   0  0  0  0  0  0  0  0  0  0  0  0
   39.8770   24.0460   40.7940 O   0  0  0  0  0  0  0  0  0  0  0  0
   39.9460   24.2480   39.8070 H   0  0  0  0  0  0  0  0  0  0  0  0
   39.0600   30.6950   41.9930 C   0  0  0  0  0  0  0  0  0  0  0  0
   39.7160   30.9060   42.9800 O   0  0  0  0  0  0  0  0  0  0  0  0
   41.7570   30.3980   40.5270 Cl  0  0  0  0  0  0  0  0  0  0  0  0
   40.7860   31.8720   40.4540 C   0  0  0  0  0  0  0  0  0  0  0  0
   39.5730   31.8370   41.1700 C   0  0  0  0  0  0  0  0  0  0  0  0
   38.9090   33.0350   41.0280 C   0  0  0  0  0  0  0  0  0  0  0  0
   39.2360   34.1330   40.3630 C   0  0  0  0  0  0  0  0  0  0  0  0
   40.4380   34.0920   39.6890 C   0  0  0  0  0  0  0  0  0  0  0  0
   41.2150   32.9770   39.7260 C   0  0  0  0  0  0  0  0  0  0  0  0
   37.9110   33.1360   41.5160 H   0  0  0  0  0  0  0  0  0  0  0  0
   38.6400   35.0450   40.3100 H   0  0  0  0  0  0  0  0  0  0  0  0
   40.7440   34.9900   39.1230 H   0  0  0  0  0  0  0  0  0  0  0  0
   42.3840   33.0530   39.0180 O   0  0  0  0  0  0  0  0  0  0  0  0
   41.7030   31.6990   36.8820 O   0  0  0  0  0  0  0  0  0  0  0  0
   42.6980   32.7180   37.3950 P   0  0  0  0  0  0  0  0  0  0  0  0
   42.6190   34.1610   36.5080 O   0  0  0  0  0  0  0  0  0  0  0  0
   41.7640   34.6440   36.6690 H   0  0  0  0  0  0  0  0  0  0  0  0
   44.2830   32.1350   37.1800 O   0  0  0  0  0  0  0  0  0  0  0  0
   44.9070   32.8970   37.2520 H   0  0  0  0  0  0  0  0  0  0  0  0
  1  2  1  0  0  0  0
  1 27  1  0  0  0  0
  2  9  1  0  0  0  0
  3  7  1  0  0  0  0
  3  2  2  0  0  0  0
  4  3  1  0  0  0  0
  5  4  2  0  0  0  0
  5  6  1  0  0  0  0
  6  1  2  0  0  0  0
  8  5  1  0  0  0  0
  9 10  1  0  0  0  0
  9 12  1  1  0  0  0
  9 11  1  0  0  0  0
 10 11  1  0  0  0  0
 10 14  1  0  0  0  0
 11 15  1  1  0  0  0
 13 10  1  0  0  0  0
 16 17  1  0  0  0  0
 17 18  2  0  0  0  0
 17 11  1  0  0  0  0
 18 19  1  0  0  0  0
 20 18  1  0  0  0  0
 21 20  2  0  0  0  0
 22 21  1  0  0  0  0
 22 16  2  0  0  0  0
 23 16  1  0  0  0  0
 24 23  1  0  0  0  0
 25 22  1  0  0  0  0
 26 25  1  0  0  0  0
 27 28  2  0  0  0  0
 30 29  1  0  0  0  0
 30 31  1  0  0  0  0
 31 27  1  0  0  0  0
 32 31  2  0  0  0  0
 32 36  1  0  0  0  0
 33 32  1  0  0  0  0
 34 35  1  0  0  0  0
 34 33  2  0  0  0  0
 35 30  2  0  0  0  0
 37 33  1  0  0  0  0
 38 34  1  0  0  0  0
 39 35  1  0  0  0  0
 40 41  2  0  0  0  0
 41 39  1  0  0  0  0
 42 43  1  0  0  0  0
 42 41  1  0  0  0  0
 44 45  1  0  0  0  0
 44 41  1  0  0  0  0
M  END
>  <minimizedAffinity>
-6.76242828

$$$$

 OpenBabel03242523253D

 45 48  0  0  1  0  0  0  0  0999 V2000
   37.5440   26.1680   38.9110 C   0  0  0  0  0  0  0  0  0  0  0  0
   37.8070   25.3950   39.9600 C   0  0  0  0  0  0  0  0  0  0  0  0
   38.8600   24.5290   39.8140 C   0  0  0  0  0  0  0  0  0  0  0  0
   39.5460   24.5450   38.5800 N   0  0  0  0  0  0  0  0  0  0  0  0
   39.2340   25.3330   37.5800 C   0  0  0  0  0  0  0  0  0  0  0  0
   38.1860   26.2080   37.7060 N   0  0  0  0  0  0  0  0  0  0  0  0
   39.2090   23.8320   40.5690 H   0  0  0  0  0  0  0  0  0  0  0  0
   39.8740   25.2040   36.7080 H   0  0  0  0  0  0  0  0  0  0  0  0
   37.0510   25.2970   41.1630 C   0  0  1  0  0  0  0  0  0  0  0  0
   37.1200   24.3570   42.1370 C   0  0  0  0  0  0  0  0  0  0  0  0
   37.6950   25.6900   42.5120 C   0  0  1  0  0  0  0  0  0  0  0  0
   35.9950   25.6810   41.0120 H   0  0  0  0  0  0  0  0  0  0  0  0
   37.8700   23.5120   42.0370 H   0  0  0  0  0  0  0  0  0  0  0  0
   36.3480   23.9960   42.8540 H   0  0  0  0  0  0  0  0  0  0  0  0
   37.0120   26.3630   43.1170 H   0  0  0  0  0  0  0  0  0  0  0  0
   40.2630   25.1200   43.0080 C   0  0  0  0  0  0  0  0  0  0  0  0
   39.1220   25.8310   42.7220 C   0  0  0  0  0  0  0  0  0  0  0  0
   39.3410   27.2250   42.6130 C   0  0  0  0  0  0  0  0  0  0  0  0
   38.6810   28.0740   42.3990 H   0  0  0  0  0  0  0  0  0  0  0  0
   40.6060   27.8190   42.7800 C   0  0  0  0  0  3  0  0  0  0  0  0
   41.6970   26.9980   43.0700 C   0  0  0  0  0  3  0  0  0  0  0  0
   41.5200   25.6390   43.1830 C   0  0  0  0  0  0  0  0  0  0  0  0
   39.9580   23.7740   43.0900 O   0  0  0  0  0  0  0  0  0  0  0  0
   40.5510   23.0420   42.7240 H   0  0  0  0  0  0  0  0  0  0  0  0
   42.4740   24.6720   43.4620 O   0  0  0  0  0  0  0  0  0  0  0  0
   43.0300   24.3510   42.6830 H   0  0  0  0  0  0  0  0  0  0  0  0
   36.5180   27.2280   38.8230 C   0  0  0  0  0  0  0  0  0  0  0  0
   35.4900   27.7110   38.4250 O   0  0  0  0  0  0  0  0  0  0  0  0
   38.6420   29.2080   37.7820 Cl  0  0  0  0  0  0  0  0  0  0  0  0
   37.9100   29.3450   39.3840 C   0  0  0  0  0  0  0  0  0  0  0  0
   36.9450   28.3660   39.6980 C   0  0  0  0  0  0  0  0  0  0  0  0
   36.4470   28.5860   40.9630 C   0  0  0  0  0  0  0  0  0  0  0  0
   36.7340   29.5210   41.8560 C   0  0  0  0  0  0  0  0  0  0  0  0
   37.6880   30.4420   41.4780 C   0  0  0  0  0  0  0  0  0  0  0  0
   38.2780   30.3650   40.2550 C   0  0  0  0  0  0  0  0  0  0  0  0
   35.6450   27.9040   41.3310 H   0  0  0  0  0  0  0  0  0  0  0  0
   36.2840   29.6150   42.8460 H   0  0  0  0  0  0  0  0  0  0  0  0
   37.9540   31.2370   42.1980 H   0  0  0  0  0  0  0  0  0  0  0  0
   39.2080   31.3340   39.9900 O   0  0  0  0  0  0  0  0  0  0  0  0
   40.2490   33.5980   39.1850 O   0  0  0  0  0  0  0  0  0  0  0  0
   39.0310   33.0070   39.8610 P   0  0  0  0  0  0  0  0  0  0  0  0
   37.6150   33.3470   38.9930 O   0  0  0  0  0  0  0  0  0  0  0  0
   37.5930   32.8640   38.1230 H   0  0  0  0  0  0  0  0  0  0  0  0
   38.8120   33.7240   41.3900 O   0  0  0  0  0  0  0  0  0  0  0  0
   37.8890   33.5440   41.6890 H   0  0  0  0  0  0  0  0  0  0  0  0
  1  2  1  0  0  0  0
  2  9  1  0  0  0  0
  3  2  2  0  0  0  0
  3  7  1  0  0  0  0
  4  3  1  0  0  0  0
  5  6  1  0  0  0  0
  5  4  2  0  0  0  0
  6  1  2  0  0  0  0
  8  5  1  0  0  0  0
  9 12  1  6  0  0  0
  9 10  1  0  0  0  0
  9 11  1  0  0  0  0
 10 11  1  0  0  0  0
 10 14  1  0  0  0  0
 11 17  1  0  0  0  0
 11 15  1  1  0  0  0
 13 10  1  0  0  0  0
 16 23  1  0  0  0  0
 16 22  1  0  0  0  0
 17 16  2  0  0  0  0
 18 17  1  0  0  0  0
 18 20  2  0  0  0  0
 19 18  1  0  0  0  0
 20 21  1  0  0  0  0
 21 22  2  0  0  0  0
 22 25  1  0  0  0  0
 24 23  1  0  0  0  0
 26 25  1  0  0  0  0
 27  1  1  0  0  0  0
 27 31  1  0  0  0  0
 28 27  2  0  0  0  0
 29 30  1  0  0  0  0
 30 31  2  0  0  0  0
 30 35  1  0  0  0  0
 31 32  1  0  0  0  0
 32 36  1  0  0  0  0
 32 33  2  0  0  0  0
 33 37  1  0  0  0  0
 34 33  1  0  0  0  0
 34 38  1  0  0  0  0
 35 34  2  0  0  0  0
 39 35  1  0  0  0  0
 40 41  2  0  0  0  0
 41 39  1  0  0  0  0
 41 44  1  0  0  0  0
 42 41  1  0  0  0  0
 43 42  1  0  0  0  0
 44 45  1  0  0  0  0
M  END
>  <minimizedAffinity>
-6.65495157

$$$$

 OpenBabel03242523253D

 45 48  0  0  1  0  0  0  0  0999 V2000
   36.1890   27.2990   39.9920 C   0  0  0  0  0  0  0  0  0  0  0  0
   36.8380   27.0390   41.1220 C   0  0  0  0  0  0  0  0  0  0  0  0
   37.6320   25.9200   41.1090 C   0  0  0  0  0  0  0  0  0  0  0  0
   37.6750   25.1700   39.9140 N   0  0  0  0  0  0  0  0  0  0  0  0
   37.0070   25.4810   38.8310 C   0  0  0  0  0  0  0  0  0  0  0  0
   36.2080   26.5960   38.8210 N   0  0  0  0  0  0  0  0  0  0  0  0
   38.2290   25.5650   41.9430 H   0  0  0  0  0  0  0  0  0  0  0  0
   37.1630   24.7850   38.0070 H   0  0  0  0  0  0  0  0  0  0  0  0
   36.7120   27.7270   42.3620 C   0  0  1  0  0  0  0  0  0  0  0  0
   37.1320   27.3480   43.5940 C   0  0  0  0  0  0  0  0  0  0  0  0
   37.9360   28.4500   42.9700 C   0  0  1  0  0  0  0  0  0  0  0  0
   35.7450   28.3180   42.4020 H   0  0  0  0  0  0  0  0  0  0  0  0
   37.6720   26.3570   43.7120 H   0  0  0  0  0  0  0  0  0  0  0  0
   36.7450   27.6070   44.6050 H   0  0  0  0  0  0  0  0  0  0  0  0
   37.6720   29.4980   43.3110 H   0  0  0  0  0  0  0  0  0  0  0  0
   40.1950   28.3970   41.5340 C   0  0  0  0  0  0  0  0  0  0  0  0
   39.3070   28.2090   42.5670 C   0  0  0  0  0  0  0  0  0  0  0  0
   39.8560   27.4930   43.6570 C   0  0  0  0  0  0  0  0  0  0  0  0
   39.4510   27.1700   44.6240 H   0  0  0  0  0  0  0  0  0  0  0  0
   41.1830   27.0240   43.6770 C   0  0  0  0  0  3  0  0  0  0  0  0
   41.9970   27.2720   42.5700 C   0  0  0  0  0  3  0  0  0  0  0  0
   41.4950   27.9640   41.4940 C   0  0  0  0  0  0  0  0  0  0  0  0
   39.5780   29.1060   40.5200 O   0  0  0  0  0  0  0  0  0  0  0  0
   40.0350   29.8330   39.9870 H   0  0  0  0  0  0  0  0  0  0  0  0
   42.1450   28.3040   40.3160 O   0  0  0  0  0  0  0  0  0  0  0  0
   42.7250   29.1300   40.3460 H   0  0  0  0  0  0  0  0  0  0  0  0
   35.3280   28.4670   39.7120 C   0  0  0  0  0  0  0  0  0  0  0  0
   34.2870   29.0710   39.7110 O   0  0  0  0  0  0  0  0  0  0  0  0
   36.1350   30.9590   41.3410 Cl  0  0  0  0  0  0  0  0  0  0  0  0
   36.6080   30.7240   39.6550 C   0  0  0  0  0  0  0  0  0  0  0  0
   36.1680   29.5230   39.0620 C   0  0  0  0  0  0  0  0  0  0  0  0
   36.6070   29.4560   37.7580 C   0  0  0  0  0  0  0  0  0  0  0  0
   37.3270   30.3050   37.0410 C   0  0  0  0  0  0  0  0  0  0  0  0
   37.7190   31.4580   37.6890 C   0  0  0  0  0  0  0  0  0  0  0  0
   37.3690   31.6760   38.9850 C   0  0  0  0  0  0  0  0  0  0  0  0
   36.3600   28.5370   37.1750 H   0  0  0  0  0  0  0  0  0  0  0  0
   37.6270   30.1650   36.0020 H   0  0  0  0  0  0  0  0  0  0  0  0
   38.3210   32.1900   37.1230 H   0  0  0  0  0  0  0  0  0  0  0  0
   37.8160   32.8530   39.5230 O   0  0  0  0  0  0  0  0  0  0  0  0
   40.2030   33.9180   39.3560 O   0  0  0  0  0  0  0  0  0  0  0  0
   39.2650   33.2090   40.3100 P   0  0  0  0  0  0  0  0  0  0  0  0
   38.9330   34.1600   41.6730 O   0  0  0  0  0  0  0  0  0  0  0  0
   38.3870   34.9590   41.4400 H   0  0  0  0  0  0  0  0  0  0  0  0
   40.0060   31.7980   40.9070 O   0  0  0  0  0  0  0  0  0  0  0  0
   39.5180   31.5070   41.7140 H   0  0  0  0  0  0  0  0  0  0  0  0
  1  2  1  0  0  0  0
  2  9  1  0  0  0  0
  3  2  2  0  0  0  0
  3  7  1  0  0  0  0
  4  3  1  0  0  0  0
  5  4  2  0  0  0  0
  6  5  1  0  0  0  0
  6  1  2  0  0  0  0
  8  5  1  0  0  0  0
  9 12  1  1  0  0  0
  9 11  1  0  0  0  0
  9 10  1  0  0  0  0
 10 13  1  0  0  0  0
 10 14  1  0  0  0  0
 11 15  1  1  0  0  0
 11 10  1  0  0  0  0
 16 17  1  0  0  0  0
 17 11  1  0  0  0  0
 17 18  2  0  0  0  0
 18 20  1  0  0  0  0
 18 19  1  0  0  0  0
 21 20  2  0  0  0  0
 22 16  2  0  0  0  0
 22 21  1  0  0  0  0
 23 16  1  0  0  0  0
 24 23  1  0  0  0  0
 25 26  1  0  0  0  0
 25 22  1  0  0  0  0
 27  1  1  0  0  0  0
 28 27  2  0  0  0  0
 30 29  1  0  0  0  0
 31 30  1  0  0  0  0
 31 27  1  0  0  0  0
 32 31  2  0  0  0  0
 33 34  2  0  0  0  0
 33 32  1  0  0  0  0
 34 35  1  0  0  0  0
 35 39  1  0  0  0  0
 35 30  2  0  0  0  0
 36 32  1  0  0  0  0
 37 33  1  0  0  0  0
 38 34  1  0  0  0  0
 39 41  1  0  0  0  0
 40 41  2  0  0  0  0
 41 44  1  0  0  0  0
 41 42  1  0  0  0  0
 43 42  1  0  0  0  0
 44 45  1  0  0  0  0
M  END
>  <minimizedAffinity>
-6.61407137

$$$$

 OpenBabel03242523253D

 45 48  0  0  1  0  0  0  0  0999 V2000
   37.9170   29.6430   37.6680 C   0  0  0  0  0  0  0  0  0  0  0  0
   37.1930   29.0650   38.6220 C   0  0  0  0  0  0  0  0  0  0  0  0
   37.5270   27.7680   38.9200 C   0  0  0  0  0  0  0  0  0  0  0  0
   38.5880   27.1880   38.1920 N   0  0  0  0  0  0  0  0  0  0  0  0
   39.2630   27.8140   37.2600 C   0  0  0  0  0  0  0  0  0  0  0  0
   38.9480   29.1120   36.9470 N   0  0  0  0  0  0  0  0  0  0  0  0
   37.0400   27.1520   39.6700 H   0  0  0  0  0  0  0  0  0  0  0  0
   40.0460   27.2070   36.8060 H   0  0  0  0  0  0  0  0  0  0  0  0
   36.0520   29.6070   39.2790 C   0  0  1  0  0  0  0  0  0  0  0  0
   35.1170   28.9700   40.0260 C   0  0  0  0  0  0  0  0  0  0  0  0
   36.0740   29.8190   40.8110 C   0  0  1  0  0  0  0  0  0  0  0  0
   35.6140   30.4690   38.6880 H   0  0  0  0  0  0  0  0  0  0  0  0
   35.2100   27.8510   40.1910 H   0  0  0  0  0  0  0  0  0  0  0  0
   34.0500   29.2200   40.2220 H   0  0  0  0  0  0  0  0  0  0  0  0
   35.6930   30.8490   41.0930 H   0  0  0  0  0  0  0  0  0  0  0  0
   38.3480   29.2270   42.0930 C   0  0  0  0  0  0  0  0  0  0  0  0
   37.0300   29.1970   41.7050 C   0  0  0  0  0  0  0  0  0  0  0  0
   36.2770   28.1880   42.3510 C   0  0  0  0  0  0  0  0  0  0  0  0
   35.2250   27.8810   42.2920 H   0  0  0  0  0  0  0  0  0  0  0  0
   36.8290   27.3060   43.2990 C   0  0  0  0  0  3  0  0  0  0  0  0
   38.1830   27.4280   43.6170 C   0  0  0  0  0  3  0  0  0  0  0  0
   38.9430   28.3970   43.0070 C   0  0  0  0  0  0  0  0  0  0  0  0
   39.0030   30.2410   41.4180 O   0  0  0  0  0  0  0  0  0  0  0  0
   39.6920   30.8440   41.8460 H   0  0  0  0  0  0  0  0  0  0  0  0
   40.2910   28.6690   43.1920 O   0  0  0  0  0  0  0  0  0  0  0  0
   40.5290   29.2420   43.9890 H   0  0  0  0  0  0  0  0  0  0  0  0
   37.8170   31.0420   37.2020 C   0  0  0  0  0  0  0  0  0  0  0  0
   37.5740   31.9000   36.3950 O   0  0  0  0  0  0  0  0  0  0  0  0
   40.8290   31.3540   37.7890 Cl  0  0  0  0  0  0  0  0  0  0  0  0
   39.5810   32.1800   38.7270 C   0  0  0  0  0  0  0  0  0  0  0  0
   38.2530   31.9400   38.3190 C   0  0  0  0  0  0  0  0  0  0  0  0
   37.3810   32.6430   39.1190 C   0  0  0  0  0  0  0  0  0  0  0  0
   37.6060   33.4500   40.1450 C   0  0  0  0  0  0  0  0  0  0  0  0
   38.9290   33.6350   40.4870 C   0  0  0  0  0  0  0  0  0  0  0  0
   39.9170   33.0110   39.7910 C   0  0  0  0  0  0  0  0  0  0  0  0
   36.2920   32.5740   38.8860 H   0  0  0  0  0  0  0  0  0  0  0  0
   36.8410   33.9670   40.7270 H   0  0  0  0  0  0  0  0  0  0  0  0
   39.1550   34.3010   41.3380 H   0  0  0  0  0  0  0  0  0  0  0  0
   41.1900   33.2710   40.2200 O   0  0  0  0  0  0  0  0  0  0  0  0
   43.1410   31.6190   40.7870 O   0  0  0  0  0  0  0  0  0  0  0  0
   42.1090   32.5250   41.4220 P   0  0  0  0  0  0  0  0  0  0  0  0
   42.8370   33.7180   42.3810 O   0  0  0  0  0  0  0  0  0  0  0  0
   43.3420   34.3750   41.8290 H   0  0  0  0  0  0  0  0  0  0  0  0
   41.1250   31.6250   42.4810 O   0  0  0  0  0  0  0  0  0  0  0  0
   40.6580   32.2540   43.0810 H   0  0  0  0  0  0  0  0  0  0  0  0
  1  2  1  0  0  0  0
  2  3  2  0  0  0  0
  2  9  1  0  0  0  0
  3  7  1  0  0  0  0
  4  3  1  0  0  0  0
  5  4  2  0  0  0  0
  6  5  1  0  0  0  0
  6  1  2  0  0  0  0
  8  5  1  0  0  0  0
  9 12  1  6  0  0  0
  9 10  1  0  0  0  0
  9 11  1  0  0  0  0
 10 13  1  0  0  0  0
 10 14  1  0  0  0  0
 10 11  1  0  0  0  0
 11 15  1  1  0  0  0
 11 17  1  0  0  0  0
 16 22  1  0  0  0  0
 17 16  2  0  0  0  0
 17 18  1  0  0  0  0
 18 20  2  0  0  0  0
 19 18  1  0  0  0  0
 20 21  1  0  0  0  0
 22 25  1  0  0  0  0
 22 21  2  0  0  0  0
 23 24  1  0  0  0  0
 23 16  1  0  0  0  0
 25 26  1  0  0  0  0
 27  1  1  0  0  0  0
 27 31  1  0  0  0  0
 28 27  2  0  0  0  0
 29 30  1  0  0  0  0
 30 35  1  0  0  0  0
 31 30  2  0  0  0  0
 31 32  1  0  0  0  0
 32 33  2  0  0  0  0
 33 34  1  0  0  0  0
 33 37  1  0  0  0  0
 34 38  1  0  0  0  0
 35 39  1  0  0  0  0
 35 34  2  0  0  0  0
 36 32  1  0  0  0  0
 39 41  1  0  0  0  0
 40 41  2  0  0  0  0
 41 42  1  0  0  0  0
 41 44  1  0  0  0  0
 43 42  1  0  0  0  0
 44 45  1  0  0  0  0
M  END
>  <minimizedAffinity>
-6.61318731

$$$$

 OpenBabel03242523253D

 45 48  0  0  1  0  0  0  0  0999 V2000
   39.7380   28.0530   41.1090 C   0  0  0  0  0  0  0  0  0  0  0  0
   39.4110   27.7720   42.3670 C   0  0  0  0  0  0  0  0  0  0  0  0
   40.4130   27.2380   43.1370 C   0  0  0  0  0  0  0  0  0  0  0  0
   41.6690   27.0430   42.5240 N   0  0  0  0  0  0  0  0  0  0  0  0
   41.9260   27.3400   41.2740 C   0  0  0  0  0  0  0  0  0  0  0  0
   40.9400   27.8760   40.4850 N   0  0  0  0  0  0  0  0  0  0  0  0
   40.3180   26.9540   44.1810 H   0  0  0  0  0  0  0  0  0  0  0  0
   42.9500   27.1190   40.9750 H   0  0  0  0  0  0  0  0  0  0  0  0
   38.1190   27.8630   42.9580 C   0  0  1  0  0  0  0  0  0  0  0  0
   36.9180   28.0370   42.3550 C   0  0  0  0  0  0  0  0  0  0  0  0
   37.1560   26.6570   42.8930 C   0  0  1  0  0  0  0  0  0  0  0  0
   38.1700   28.3760   43.9680 H   0  0  0  0  0  0  0  0  0  0  0  0
   36.8730   28.1180   41.2240 H   0  0  0  0  0  0  0  0  0  0  0  0
   35.9750   28.4960   42.7310 H   0  0  0  0  0  0  0  0  0  0  0  0
   36.6910   26.4420   43.9050 H   0  0  0  0  0  0  0  0  0  0  0  0
   37.9010   24.3060   41.8520 C   0  0  0  0  0  0  0  0  0  0  0  0
   37.3100   25.5390   41.9830 C   0  0  0  0  0  0  0  0  0  0  0  0
   36.6020   25.9490   40.8280 C   0  0  0  0  0  0  0  0  0  0  0  0
   36.0240   26.8480   40.5800 H   0  0  0  0  0  0  0  0  0  0  0  0
   36.5150   25.1640   39.6620 C   0  0  0  0  0  3  0  0  0  0  0  0
   37.1570   23.9250   39.6410 C   0  0  0  0  0  3  0  0  0  0  0  0
   37.8530   23.4970   40.7470 C   0  0  0  0  0  0  0  0  0  0  0  0
   38.5620   23.9860   43.0240 O   0  0  0  0  0  0  0  0  0  0  0  0
   38.5670   23.0600   43.4290 H   0  0  0  0  0  0  0  0  0  0  0  0
   38.5480   22.3070   40.9130 O   0  0  0  0  0  0  0  0  0  0  0  0
   38.0000   21.4990   41.1700 H   0  0  0  0  0  0  0  0  0  0  0  0
   38.8790   28.6930   40.0900 C   0  0  0  0  0  0  0  0  0  0  0  0
   38.0420   28.6960   39.2260 O   0  0  0  0  0  0  0  0  0  0  0  0
   40.3280   29.9220   37.6610 Cl  0  0  0  0  0  0  0  0  0  0  0  0
   39.8400   30.8740   39.0660 C   0  0  0  0  0  0  0  0  0  0  0  0
   39.1750   30.1610   40.0840 C   0  0  0  0  0  0  0  0  0  0  0  0
   38.8420   31.0120   41.1140 C   0  0  0  0  0  0  0  0  0  0  0  0
   39.0510   32.3120   41.2650 C   0  0  0  0  0  0  0  0  0  0  0  0
   39.7090   32.9400   40.2290 C   0  0  0  0  0  0  0  0  0  0  0  0
   40.1050   32.2380   39.1340 C   0  0  0  0  0  0  0  0  0  0  0  0
   38.2760   30.5870   41.9760 H   0  0  0  0  0  0  0  0  0  0  0  0
   38.7500   32.9070   42.1280 H   0  0  0  0  0  0  0  0  0  0  0  0
   39.9010   34.0240   40.3210 H   0  0  0  0  0  0  0  0  0  0  0  0
   40.7460   32.9690   38.1700 O   0  0  0  0  0  0  0  0  0  0  0  0
   43.1130   31.9060   37.8170 O   0  0  0  0  0  0  0  0  0  0  0  0
   42.3930   33.2330   37.9200 P   0  0  0  0  0  0  0  0  0  0  0  0
   42.5960   34.1580   36.5140 O   0  0  0  0  0  0  0  0  0  0  0  0
   42.1240   33.7540   35.7370 H   0  0  0  0  0  0  0  0  0  0  0  0
   43.0670   34.1610   39.1780 O   0  0  0  0  0  0  0  0  0  0  0  0
   42.7900   35.1000   39.0550 H   0  0  0  0  0  0  0  0  0  0  0  0
  1  2  1  0  0  0  0
  2  9  1  0  0  0  0
  2  3  2  0  0  0  0
  3  7  1  0  0  0  0
  4  3  1  0  0  0  0
  5  4  2  0  0  0  0
  6  1  2  0  0  0  0
  6  5  1  0  0  0  0
  8  5  1  0  0  0  0
  9 12  1  1  0  0  0
 10 14  1  0  0  0  0
 10 11  1  0  0  0  0
 10  9  1  0  0  0  0
 11  9  1  0  0  0  0
 11 15  1  1  0  0  0
 13 10  1  0  0  0  0
 16 17  1  0  0  0  0
 16 23  1  0  0  0  0
 17 11  1  0  0  0  0
 18 17  2  0  0  0  0
 19 18  1  0  0  0  0
 20 18  1  0  0  0  0
 21 20  2  0  0  0  0
 21 22  1  0  0  0  0
 22 25  1  0  0  0  0
 22 16  2  0  0  0  0
 23 24  1  0  0  0  0
 25 26  1  0  0  0  0
 27  1  1  0  0  0  0
 28 27  2  0  0  0  0
 29 30  1  0  0  0  0
 30 35  2  0  0  0  0
 30 31  1  0  0  0  0
 31 27  1  0  0  0  0
 31 32  2  0  0  0  0
 32 33  1  0  0  0  0
 32 36  1  0  0  0  0
 33 37  1  0  0  0  0
 34 38  1  0  0  0  0
 34 33  2  0  0  0  0
 35 34  1  0  0  0  0
 39 35  1  0  0  0  0
 40 41  2  0  0  0  0
 41 39  1  0  0  0  0
 41 44  1  0  0  0  0
 42 41  1  0  0  0  0
 43 42  1  0  0  0  0
 45 44  1  0  0  0  0
M  END
>  <minimizedAffinity>
-6.47928286

$$$$

 OpenBabel03242523253D

 45 48  0  0  1  0  0  0  0  0999 V2000
   37.9150   27.2430   40.9760 C   0  0  0  0  0  0  0  0  0  0  0  0
   36.8610   28.0390   41.1300 C   0  0  0  0  0  0  0  0  0  0  0  0
   36.7470   28.6480   42.3530 C   0  0  0  0  0  0  0  0  0  0  0  0
   37.7450   28.3680   43.3120 N   0  0  0  0  0  0  0  0  0  0  0  0
   38.7610   27.5700   43.0980 C   0  0  0  0  0  0  0  0  0  0  0  0
   38.8960   26.9520   41.8810 N   0  0  0  0  0  0  0  0  0  0  0  0
   35.9510   29.3260   42.6450 H   0  0  0  0  0  0  0  0  0  0  0  0
   39.4280   27.4740   43.9540 H   0  0  0  0  0  0  0  0  0  0  0  0
   35.7950   28.2370   40.2070 C   0  0  1  0  0  0  0  0  0  0  0  0
   34.8090   29.1660   40.2320 C   0  0  0  0  0  0  0  0  0  0  0  0
   35.8620   29.4000   39.1900 C   0  0  1  0  0  0  0  0  0  0  0  0
   35.4430   27.2500   39.7750 H   0  0  0  0  0  0  0  0  0  0  0  0
   34.7830   29.9220   41.0780 H   0  0  0  0  0  0  0  0  0  0  0  0
   33.7770   29.1420   39.8130 H   0  0  0  0  0  0  0  0  0  0  0  0
   35.5980   29.0510   38.1440 H   0  0  0  0  0  0  0  0  0  0  0  0
   37.0010   31.6680   40.0420 C   0  0  0  0  0  0  0  0  0  0  0  0
   36.7590   30.5320   39.3060 C   0  0  0  0  0  0  0  0  0  0  0  0
   37.6590   30.3590   38.2280 C   0  0  0  0  0  0  0  0  0  0  0  0
   37.7640   29.5890   37.4530 H   0  0  0  0  0  0  0  0  0  0  0  0
   38.6970   31.2650   37.9420 C   0  0  0  0  0  3  0  0  0  0  0  0
   38.8490   32.3870   38.7570 C   0  0  0  0  0  3  0  0  0  0  0  0
   37.9930   32.5860   39.8140 C   0  0  0  0  0  0  0  0  0  0  0  0
   36.0820   31.7520   41.0720 O   0  0  0  0  0  0  0  0  0  0  0  0
   36.3160   32.0600   42.0060 H   0  0  0  0  0  0  0  0  0  0  0  0
   37.9860   33.6310   40.7260 O   0  0  0  0  0  0  0  0  0  0  0  0
   38.6310   33.5570   41.4990 H   0  0  0  0  0  0  0  0  0  0  0  0
   38.3140   26.5240   39.7490 C   0  0  0  0  0  0  0  0  0  0  0  0
   39.0410   26.2870   38.8200 O   0  0  0  0  0  0  0  0  0  0  0  0
   36.7660   26.7500   37.0910 Cl  0  0  0  0  0  0  0  0  0  0  0  0
   36.4480   25.4810   38.2780 C   0  0  0  0  0  0  0  0  0  0  0  0
   37.2550   25.5130   39.4330 C   0  0  0  0  0  0  0  0  0  0  0  0
   36.9170   24.4740   40.2710 C   0  0  0  0  0  0  0  0  0  0  0  0
   36.0020   23.5230   40.1470 C   0  0  0  0  0  0  0  0  0  0  0  0
   35.2510   23.5590   38.9910 C   0  0  0  0  0  0  0  0  0  0  0  0
   35.4640   24.5240   38.0570 C   0  0  0  0  0  0  0  0  0  0  0  0
   37.5030   24.3550   41.2130 H   0  0  0  0  0  0  0  0  0  0  0  0
   35.8030   22.7340   40.8730 H   0  0  0  0  0  0  0  0  0  0  0  0
   34.4780   22.7820   38.8530 H   0  0  0  0  0  0  0  0  0  0  0  0
   34.6590   24.4560   36.9510 O   0  0  0  0  0  0  0  0  0  0  0  0
   32.9970   25.2610   35.0950 O   0  0  0  0  0  0  0  0  0  0  0  0
   33.2330   25.2810   36.5900 P   0  0  0  0  0  0  0  0  0  0  0  0
   31.9500   24.5570   37.4290 O   0  0  0  0  0  0  0  0  0  0  0  0
   31.9090   23.5770   37.2630 H   0  0  0  0  0  0  0  0  0  0  0  0
   33.2920   26.8890   37.1450 O   0  0  0  0  0  0  0  0  0  0  0  0
   33.1660   26.8850   38.1240 H   0  0  0  0  0  0  0  0  0  0  0  0
  1  2  2  0  0  0  0
  1  6  1  0  0  0  0
  2  3  1  0  0  0  0
  3  7  1  0  0  0  0
  3  4  2  0  0  0  0
  5  4  1  0  0  0  0
  5  8  1  0  0  0  0
  6  5  2  0  0  0  0
  9 12  1  6  0  0  0
  9 10  1  0  0  0  0
  9  2  1  0  0  0  0
 10 13  1  0  0  0  0
 11 15  1  6  0  0  0
 11 17  1  0  0  0  0
 11  9  1  0  0  0  0
 11 10  1  0  0  0  0
 14 10  1  0  0  0  0
 16 23  1  0  0  0  0
 17 16  2  0  0  0  0
 18 17  1  0  0  0  0
 19 18  1  0  0  0  0
 20 18  2  0  0  0  0
 20 21  1  0  0  0  0
 21 22  2  0  0  0  0
 22 16  1  0  0  0  0
 22 25  1  0  0  0  0
 23 24  1  0  0  0  0
 25 26  1  0  0  0  0
 27  1  1  0  0  0  0
 28 27  2  0  0  0  0
 29 30  1  0  0  0  0
 30 31  1  0  0  0  0
 31 27  1  0  0  0  0
 31 32  2  0  0  0  0
 32 36  1  0  0  0  0
 33 32  1  0  0  0  0
 33 37  1  0  0  0  0
 34 33  2  0  0  0  0
 35 30  2  0  0  0  0
 35 34  1  0  0  0  0
 38 34  1  0  0  0  0
 39 35  1  0  0  0  0
 40 41  2  0  0  0  0
 41 39  1  0  0  0  0
 41 44  1  0  0  0  0
 41 42  1  0  0  0  0
 43 42  1  0  0  0  0
 44 45  1  0  0  0  0
M  END
>  <minimizedAffinity>
-6.4332571

$$$$

 OpenBabel03242523253D

 45 48  0  0  1  0  0  0  0  0999 V2000
   37.6240   29.7550   40.6000 C   0  0  0  0  0  0  0  0  0  0  0  0
   37.1610   28.7910   41.3890 C   0  0  0  0  0  0  0  0  0  0  0  0
   36.3150   27.8890   40.7960 C   0  0  0  0  0  0  0  0  0  0  0  0
   36.0250   28.0770   39.4270 N   0  0  0  0  0  0  0  0  0  0  0  0
   36.5140   29.0530   38.7030 C   0  0  0  0  0  0  0  0  0  0  0  0
   37.3640   29.9650   39.2760 N   0  0  0  0  0  0  0  0  0  0  0  0
   35.8500   27.0440   41.2930 H   0  0  0  0  0  0  0  0  0  0  0  0
   36.1780   29.0380   37.6660 H   0  0  0  0  0  0  0  0  0  0  0  0
   37.3620   28.6620   42.7930 C   0  0  1  0  0  0  0  0  0  0  0  0
   36.7840   27.7950   43.6600 C   0  0  0  0  0  0  0  0  0  0  0  0
   38.2210   27.5010   43.3450 C   0  0  1  0  0  0  0  0  0  0  0  0
   37.5660   29.6700   43.2690 H   0  0  0  0  0  0  0  0  0  0  0  0
   36.0340   27.0390   43.2670 H   0  0  0  0  0  0  0  0  0  0  0  0
   36.5840   27.8830   44.7520 H   0  0  0  0  0  0  0  0  0  0  0  0
   38.9720   27.8690   44.1110 H   0  0  0  0  0  0  0  0  0  0  0  0
   38.0980   25.0840   42.2010 C   0  0  0  0  0  0  0  0  0  0  0  0
   38.5700   26.3160   42.5880 C   0  0  0  0  0  0  0  0  0  0  0  0
   39.8900   26.5750   42.1500 C   0  0  0  0  0  0  0  0  0  0  0  0
   40.5670   27.4300   42.2680 H   0  0  0  0  0  0  0  0  0  0  0  0
   40.6410   25.6580   41.3910 C   0  0  0  0  0  3  0  0  0  0  0  0
   40.0610   24.4340   41.0550 C   0  0  0  0  0  3  0  0  0  0  0  0
   38.7800   24.1500   41.4650 C   0  0  0  0  0  0  0  0  0  0  0  0
   36.8070   24.9200   42.6660 O   0  0  0  0  0  0  0  0  0  0  0  0
   36.0700   24.4830   42.1290 H   0  0  0  0  0  0  0  0  0  0  0  0
   38.0420   22.9990   41.2310 O   0  0  0  0  0  0  0  0  0  0  0  0
   37.5750   22.9390   40.3380 H   0  0  0  0  0  0  0  0  0  0  0  0
   38.5960   30.8080   40.9610 C   0  0  0  0  0  0  0  0  0  0  0  0
   38.9440   31.8180   41.5150 O   0  0  0  0  0  0  0  0  0  0  0  0
   39.5510   32.6150   38.6500 Cl  0  0  0  0  0  0  0  0  0  0  0  0
   40.4640   31.2090   39.2060 C   0  0  0  0  0  0  0  0  0  0  0  0
   39.8950   30.4990   40.2820 C   0  0  0  0  0  0  0  0  0  0  0  0
   40.7020   29.4370   40.6240 C   0  0  0  0  0  0  0  0  0  0  0  0
   41.8520   29.0230   40.1130 C   0  0  0  0  0  0  0  0  0  0  0  0
   42.3460   29.7670   39.0620 C   0  0  0  0  0  0  0  0  0  0  0  0
   41.6670   30.8530   38.6040 C   0  0  0  0  0  0  0  0  0  0  0  0
   40.3900   28.8050   41.4890 H   0  0  0  0  0  0  0  0  0  0  0  0
   42.4250   28.1590   40.4520 H   0  0  0  0  0  0  0  0  0  0  0  0
   43.3030   29.4520   38.6100 H   0  0  0  0  0  0  0  0  0  0  0  0
   42.2550   31.5140   37.5580 O   0  0  0  0  0  0  0  0  0  0  0  0
   43.4940   33.3380   38.9710 O   0  0  0  0  0  0  0  0  0  0  0  0
   43.2210   32.8960   37.5490 P   0  0  0  0  0  0  0  0  0  0  0  0
   44.6600   32.5580   36.7190 O   0  0  0  0  0  0  0  0  0  0  0  0
   45.1100   31.7470   37.0790 H   0  0  0  0  0  0  0  0  0  0  0  0
   42.4800   34.1610   36.6830 O   0  0  0  0  0  0  0  0  0  0  0  0
   42.5640   33.9680   35.7180 H   0  0  0  0  0  0  0  0  0  0  0  0
  1 27  1  0  0  0  0
  1  2  1  0  0  0  0
  2  9  1  0  0  0  0
  3  7  1  0  0  0  0
  3  2  2  0  0  0  0
  4  3  1  0  0  0  0
  5  6  1  0  0  0  0
  5  4  2  0  0  0  0
  6  1  2  0  0  0  0
  8  5  1  0  0  0  0
  9 12  1  1  0  0  0
  9 11  1  0  0  0  0
  9 10  1  0  0  0  0
 10 14  1  0  0  0  0
 11 10  1  0  0  0  0
 11 15  1  1  0  0  0
 13 10  1  0  0  0  0
 16 17  1  0  0  0  0
 16 23  1  0  0  0  0
 17 11  1  0  0  0  0
 18 19  1  0  0  0  0
 18 17  2  0  0  0  0
 20 18  1  0  0  0  0
 21 20  2  0  0  0  0
 21 22  1  0  0  0  0
 22 16  2  0  0  0  0
 24 23  1  0  0  0  0
 25 22  1  0  0  0  0
 26 25  1  0  0  0  0
 27 28  2  0  0  0  0
 29 30  1  0  0  0  0
 30 31  1  0  0  0  0
 31 32  2  0  0  0  0
 31 27  1  0  0  0  0
 32 36  1  0  0  0  0
 33 37  1  0  0  0  0
 33 32  1  0  0  0  0
 34 33  2  0  0  0  0
 35 34  1  0  0  0  0
 35 30  2  0  0  0  0
 38 34  1  0  0  0  0
 39 35  1  0  0  0  0
 41 39  1  0  0  0  0
 41 40  2  0  0  0  0
 42 43  1  0  0  0  0
 42 41  1  0  0  0  0
 44 41  1  0  0  0  0
 45 44  1  0  0  0  0
M  END
>  <minimizedAffinity>
-6.29683447

$$$$
