REMARK  Name = 
REMARK  5 active torsions:
REMARK  status: ('A' for Active; 'I' for Inactive)
REMARK    1  A    between atoms: C_2  and  S_7
REMARK    2  A    between atoms: S_7  and  C_8
REMARK    3  A    between atoms: C_8  and  C_16
REMARK    4  A    between atoms: O_14  and  C_15
REMARK    5  A    between atoms: C_21  and  O_22
REMARK                            x       y       z     vdW  Elec       q    Type
REMARK                         _______ _______ _______ _____ _____    ______ ____
ROOT
ATOM      1  C   UNL     1      43.804  34.099  40.382  0.00  0.00    +0.000 C 
ATOM      2  H   UNL     1      43.472  34.528  39.405  0.00  0.00    +0.000 HD
ATOM      3  H   UNL     1      44.751  33.544  40.282  0.00  0.00    +0.000 HD
ENDROOT
BRANCH   1   5
ATOM      4  C   UNL     1      42.382  32.143  39.894  0.00  0.00    +0.000 A 
ATOM      5  C   UNL     1      42.768  33.106  40.800  0.00  0.00    +0.000 A 
ATOM      6  C   UNL     1      42.173  33.107  42.061  0.00  0.00    +0.000 A 
ATOM      7  H   UNL     1      42.506  33.882  42.746  0.00  0.00    +0.000 HD
ATOM      8  C   UNL     1      41.229  32.166  42.374  0.00  0.00    +0.000 A 
ATOM      9  C   UNL     1      40.827  31.189  41.475  0.00  0.00    +0.000 A 
ATOM     10  C   UNL     1      41.431  31.198  40.213  0.00  0.00    +0.000 A 
BRANCH   4  11
ATOM     11  O   UNL     1      42.951  32.105  38.620  0.00  0.00    +0.000 OA
ATOM     12  H   UNL     1      43.954  32.108  38.477  0.00  0.00    +0.000 HD
ENDBRANCH   4  11
BRANCH  10  13
ATOM     13  O   UNL     1      40.995  30.197  39.342  0.00  0.00    +0.000 OA
ATOM     14  H   UNL     1      41.565  29.338  39.383  0.00  0.00    +0.000 HD
ENDBRANCH  10  13
ENDBRANCH   1   5
BRANCH   1  15
ATOM     15  S   UNL     1      43.872  35.492  41.528  0.00  0.00    +0.000 S 
BRANCH  15  17
ATOM     16  C   UNL     1      44.248  35.741  44.263  0.00  0.00    +0.000 A 
ATOM     17  C   UNL     1      44.456  34.934  43.129  0.00  0.00    +0.000 A 
ATOM     18  C   UNL     1      45.102  33.719  43.224  0.00  0.00    +0.000 A 
ATOM     19  N   UNL     1      45.523  33.351  44.472  0.00  0.00    +0.000 NA
ATOM     20  C   UNL     1      45.310  34.147  45.541  0.00  0.00    +0.000 A 
ATOM     21  N   UNL     1      44.692  35.319  45.479  0.00  0.00    +0.000 NA
ATOM     22  H   UNL     1      43.732  36.695  44.148  0.00  0.00    +0.000 HD
ATOM     23  H   UNL     1      45.287  33.067  42.397  0.00  0.00    +0.000 HD
ATOM     24  H   UNL     1      45.720  33.678  46.449  0.00  0.00    +0.000 HD
ENDBRANCH  15  17
ENDBRANCH   1  15
TORSDOF 5
