
 OpenBabel03242513283D

 32 34  0  0  0  0  0  0  0  0999 V2000
   36.9030   26.5520   40.2680 C   0  0  0  0  0  0  0  0  0  0  0  0
   37.5390   25.5950   41.0370 C   0  0  0  0  0  0  0  0  0  0  0  0
   37.6680   25.8640   42.3760 C   0  0  0  0  0  0  0  0  0  0  0  0
   37.1900   27.0310   42.9440 C   0  0  0  0  0  0  0  0  0  0  0  0
   36.5690   27.9600   42.1800 C   0  0  0  0  0  0  0  0  0  0  0  0
   36.4040   27.7480   40.8050 C   0  0  0  0  0  0  0  0  0  0  0  0
   38.1590   25.1440   43.0140 H   0  0  0  0  0  0  0  0  0  0  0  0
   37.3200   27.1920   44.0050 H   0  0  0  0  0  0  0  0  0  0  0  0
   36.1930   28.8600   42.6160 H   0  0  0  0  0  0  0  0  0  0  0  0
   38.0120   21.9790   40.1130 C   0  0  0  0  0  0  0  0  0  0  0  0
   37.5360   23.1350   40.7490 C   0  0  0  0  0  0  0  0  0  0  0  0
   38.0140   24.4020   40.3970 C   0  0  0  0  0  0  0  0  0  0  0  0
   38.9430   24.4120   39.4250 N   0  0  0  0  0  0  0  0  0  0  0  0
   39.4020   23.2980   38.8110 C   0  0  0  0  0  0  0  0  0  0  0  0
   38.9400   22.0930   39.1540 N   0  0  0  0  0  0  0  0  0  0  0  0
   37.5280   21.0960   40.5160 H   0  0  0  0  0  0  0  0  0  0  0  0
   36.7850   23.1400   41.5380 H   0  0  0  0  0  0  0  0  0  0  0  0
   40.1500   23.3210   38.0290 H   0  0  0  0  0  0  0  0  0  0  0  0
   36.7510   26.3220   38.9100 O   0  0  0  0  0  0  0  0  0  0  0  0
   37.5010   25.9700   38.3220 H   0  0  0  0  0  0  0  0  0  0  0  0
   35.7900   28.6260   39.9420 O   0  0  0  0  0  0  0  0  0  0  0  0
   36.3540   31.0590   40.1550 C   0  0  0  0  0  0  0  0  0  0  0  0
   36.3440   29.8240   39.5560 C   0  0  0  0  0  0  0  0  0  0  0  0
   37.0010   29.6990   38.3280 C   0  0  0  0  0  0  0  0  0  0  0  0
   37.0830   28.7880   37.7290 H   0  0  0  0  0  0  0  0  0  0  0  0
   37.6420   30.7710   37.7260 C   0  0  0  0  0  3  0  0  0  0  0  0
   37.6320   32.0070   38.3610 C   0  0  0  0  0  3  0  0  0  0  0  0
   36.9870   32.1050   39.5530 C   0  0  0  0  0  0  0  0  0  0  0  0
   35.6790   31.0900   41.3700 O   0  0  0  0  0  0  0  0  0  0  0  0
   35.4640   31.9630   41.8280 H   0  0  0  0  0  0  0  0  0  0  0  0
   36.9570   33.3220   40.2130 O   0  0  0  0  0  0  0  0  0  0  0  0
   37.5770   34.0880   39.9840 H   0  0  0  0  0  0  0  0  0  0  0  0
  1  6  2  0  0  0  0
  1  2  1  0  0  0  0
  2  3  2  0  0  0  0
  3  4  1  0  0  0  0
  3  7  1  0  0  0  0
  4  8  1  0  0  0  0
  5  9  1  0  0  0  0
  5  4  2  0  0  0  0
  6  5  1  0  0  0  0
 10 16  1  0  0  0  0
 10 11  1  0  0  0  0
 11 17  1  0  0  0  0
 12 11  2  0  0  0  0
 12  2  1  0  0  0  0
 13 12  1  0  0  0  0
 14 15  1  0  0  0  0
 14 13  2  0  0  0  0
 15 10  2  0  0  0  0
 18 14  1  0  0  0  0
 19  1  1  0  0  0  0
 20 19  1  0  0  0  0
 21  6  1  0  0  0  0
 22 29  1  0  0  0  0
 23 21  1  0  0  0  0
 23 22  1  0  0  0  0
 24 23  2  0  0  0  0
 25 24  1  0  0  0  0
 26 24  1  0  0  0  0
 26 27  2  0  0  0  0
 27 28  1  0  0  0  0
 28 22  2  0  0  0  0
 28 31  1  0  0  0  0
 29 30  1  0  0  0  0
 32 31  1  0  0  0  0
M  END
>  <minimizedAffinity>
-6.49760628

$$$$

 OpenBabel03242513283D

 32 34  0  0  0  0  0  0  0  0999 V2000
   38.1460   27.3760   40.9920 C   0  0  0  0  0  0  0  0  0  0  0  0
   37.4300   26.3770   41.6260 C   0  0  0  0  0  0  0  0  0  0  0  0
   36.9500   26.6640   42.8790 C   0  0  0  0  0  0  0  0  0  0  0  0
   37.1630   27.8860   43.4910 C   0  0  0  0  0  0  0  0  0  0  0  0
   37.8650   28.8540   42.8590 C   0  0  0  0  0  0  0  0  0  0  0  0
   38.3840   28.6280   41.5770 C   0  0  0  0  0  0  0  0  0  0  0  0
   36.3850   25.9120   43.4120 H   0  0  0  0  0  0  0  0  0  0  0  0
   36.7620   28.0570   44.4800 H   0  0  0  0  0  0  0  0  0  0  0  0
   38.0270   29.8020   43.3250 H   0  0  0  0  0  0  0  0  0  0  0  0
   37.7280   22.7600   40.6380 C   0  0  0  0  0  0  0  0  0  0  0  0
   37.9300   23.9720   41.3150 C   0  0  0  0  0  0  0  0  0  0  0  0
   37.2370   25.1300   40.9460 C   0  0  0  0  0  0  0  0  0  0  0  0
   36.3850   24.9820   39.9160 N   0  0  0  0  0  0  0  0  0  0  0  0
   36.1900   23.8130   39.2620 C   0  0  0  0  0  0  0  0  0  0  0  0
   36.8570   22.7140   39.6220 N   0  0  0  0  0  0  0  0  0  0  0  0
   38.3490   21.9790   41.0630 H   0  0  0  0  0  0  0  0  0  0  0  0
   38.6170   24.1050   42.1500 H   0  0  0  0  0  0  0  0  0  0  0  0
   35.5010   23.7080   38.4350 H   0  0  0  0  0  0  0  0  0  0  0  0
   38.6510   27.1300   39.7250 O   0  0  0  0  0  0  0  0  0  0  0  0
   39.1280   26.2690   39.4770 H   0  0  0  0  0  0  0  0  0  0  0  0
   39.1110   29.5420   40.8490 O   0  0  0  0  0  0  0  0  0  0  0  0
   38.9930   32.0240   41.1870 C   0  0  0  0  0  0  0  0  0  0  0  0
   38.6810   30.8250   40.5970 C   0  0  0  0  0  0  0  0  0  0  0  0
   37.7660   30.8460   39.5410 C   0  0  0  0  0  0  0  0  0  0  0  0
   37.4160   29.9800   38.9710 H   0  0  0  0  0  0  0  0  0  0  0  0
   37.1870   32.0250   39.0950 C   0  0  0  0  0  3  0  0  0  0  0  0
   37.5260   33.2200   39.7160 C   0  0  0  0  0  3  0  0  0  0  0  0
   38.4180   33.1750   40.7410 C   0  0  0  0  0  0  0  0  0  0  0  0
   39.9110   31.9070   42.2250 O   0  0  0  0  0  0  0  0  0  0  0  0
   40.0950   32.6770   42.8500 H   0  0  0  0  0  0  0  0  0  0  0  0
   38.7790   34.3480   41.3820 O   0  0  0  0  0  0  0  0  0  0  0  0
   38.6020   35.2650   40.9930 H   0  0  0  0  0  0  0  0  0  0  0  0
  1  6  2  0  0  0  0
  1  2  1  0  0  0  0
  2  3  2  0  0  0  0
  3  7  1  0  0  0  0
  3  4  1  0  0  0  0
  4  8  1  0  0  0  0
  5  9  1  0  0  0  0
  5  4  2  0  0  0  0
  6  5  1  0  0  0  0
 10 16  1  0  0  0  0
 10 11  1  0  0  0  0
 11 17  1  0  0  0  0
 12 11  2  0  0  0  0
 12  2  1  0  0  0  0
 13 12  1  0  0  0  0
 14 15  1  0  0  0  0
 14 13  2  0  0  0  0
 15 10  2  0  0  0  0
 18 14  1  0  0  0  0
 19  1  1  0  0  0  0
 20 19  1  0  0  0  0
 21  6  1  0  0  0  0
 22 29  1  0  0  0  0
 23 21  1  0  0  0  0
 23 22  2  0  0  0  0
 24 23  1  0  0  0  0
 25 24  1  0  0  0  0
 26 24  2  0  0  0  0
 26 27  1  0  0  0  0
 27 28  2  0  0  0  0
 28 22  1  0  0  0  0
 28 31  1  0  0  0  0
 29 30  1  0  0  0  0
 32 31  1  0  0  0  0
M  END
>  <minimizedAffinity>
-6.32190943

$$$$

 OpenBabel03242513283D

 32 34  0  0  0  0  0  0  0  0999 V2000
   37.7550   29.9780   41.7210 C   0  0  0  0  0  0  0  0  0  0  0  0
   37.5770   30.8930   40.7000 C   0  0  0  0  0  0  0  0  0  0  0  0
   36.5010   30.6930   39.8730 C   0  0  0  0  0  0  0  0  0  0  0  0
   35.6270   29.6340   40.0410 C   0  0  0  0  0  0  0  0  0  0  0  0
   35.8120   28.7460   41.0450 C   0  0  0  0  0  0  0  0  0  0  0  0
   36.8920   28.8910   41.9250 C   0  0  0  0  0  0  0  0  0  0  0  0
   36.3240   31.3840   39.0610 H   0  0  0  0  0  0  0  0  0  0  0  0
   34.7950   29.5250   39.3590 H   0  0  0  0  0  0  0  0  0  0  0  0
   35.1370   27.9300   41.1820 H   0  0  0  0  0  0  0  0  0  0  0  0
   39.0210   34.3480   40.3310 C   0  0  0  0  0  0  0  0  0  0  0  0
   38.0920   33.3030   40.4550 C   0  0  0  0  0  0  0  0  0  0  0  0
   38.5120   31.9740   40.5720 C   0  0  0  0  0  0  0  0  0  0  0  0
   39.8440   31.7910   40.5550 N   0  0  0  0  0  0  0  0  0  0  0  0
   40.7400   32.7980   40.4360 C   0  0  0  0  0  0  0  0  0  0  0  0
   40.3300   34.0630   40.3250 N   0  0  0  0  0  0  0  0  0  0  0  0
   38.5110   35.3020   40.2530 H   0  0  0  0  0  0  0  0  0  0  0  0
   37.0110   33.4370   40.4700 H   0  0  0  0  0  0  0  0  0  0  0  0
   41.8100   32.6370   40.4240 H   0  0  0  0  0  0  0  0  0  0  0  0
   38.8310   30.1400   42.5800 O   0  0  0  0  0  0  0  0  0  0  0  0
   39.7690   30.3560   42.2560 H   0  0  0  0  0  0  0  0  0  0  0  0
   37.1710   28.0460   42.9750 O   0  0  0  0  0  0  0  0  0  0  0  0
   39.1210   26.4720   43.0580 C   0  0  0  0  0  0  0  0  0  0  0  0
   37.8190   26.8410   42.8280 C   0  0  0  0  0  0  0  0  0  0  0  0
   36.9430   25.8570   42.3590 C   0  0  0  0  0  0  0  0  0  0  0  0
   35.8830   25.9930   42.1300 H   0  0  0  0  0  0  0  0  0  0  0  0
   37.3590   24.5550   42.1300 C   0  0  0  0  0  3  0  0  0  0  0  0
   38.6840   24.2160   42.3730 C   0  0  0  0  0  3  0  0  0  0  0  0
   39.5170   25.1890   42.8290 C   0  0  0  0  0  0  0  0  0  0  0  0
   39.9170   27.5120   43.5230 O   0  0  0  0  0  0  0  0  0  0  0  0
   40.9210   27.4240   43.5680 H   0  0  0  0  0  0  0  0  0  0  0  0
   40.8440   24.8860   43.0820 O   0  0  0  0  0  0  0  0  0  0  0  0
   41.1850   23.9380   43.1720 H   0  0  0  0  0  0  0  0  0  0  0  0
  1  6  1  0  0  0  0
  1 19  1  0  0  0  0
  2  1  2  0  0  0  0
  3  4  2  0  0  0  0
  3  2  1  0  0  0  0
  4  5  1  0  0  0  0
  5  9  1  0  0  0  0
  5  6  2  0  0  0  0
  6 21  1  0  0  0  0
  7  3  1  0  0  0  0
  8  4  1  0  0  0  0
 10 11  1  0  0  0  0
 11 17  1  0  0  0  0
 11 12  2  0  0  0  0
 12  2  1  0  0  0  0
 13 12  1  0  0  0  0
 14 13  2  0  0  0  0
 15 10  2  0  0  0  0
 15 14  1  0  0  0  0
 16 10  1  0  0  0  0
 18 14  1  0  0  0  0
 20 19  1  0  0  0  0
 22 29  1  0  0  0  0
 23 21  1  0  0  0  0
 23 22  2  0  0  0  0
 24 23  1  0  0  0  0
 25 24  1  0  0  0  0
 26 24  2  0  0  0  0
 26 27  1  0  0  0  0
 27 28  2  0  0  0  0
 28 22  1  0  0  0  0
 28 31  1  0  0  0  0
 29 30  1  0  0  0  0
 31 32  1  0  0  0  0
M  END
>  <minimizedAffinity>
-6.15058136

$$$$

 OpenBabel03242513283D

 32 34  0  0  0  0  0  0  0  0999 V2000
   37.1670   27.2070   41.6430 C   0  0  0  0  0  0  0  0  0  0  0  0
   37.5090   25.9030   41.3350 C   0  0  0  0  0  0  0  0  0  0  0  0
   38.5420   25.3510   42.0510 C   0  0  0  0  0  0  0  0  0  0  0  0
   39.2160   26.0510   43.0340 C   0  0  0  0  0  0  0  0  0  0  0  0
   38.8720   27.3260   43.3250 C   0  0  0  0  0  0  0  0  0  0  0  0
   37.8270   27.9520   42.6320 C   0  0  0  0  0  0  0  0  0  0  0  0
   38.8420   24.3340   41.8430 H   0  0  0  0  0  0  0  0  0  0  0  0
   40.0230   25.5660   43.5660 H   0  0  0  0  0  0  0  0  0  0  0  0
   39.3870   27.8690   44.0880 H   0  0  0  0  0  0  0  0  0  0  0  0
   35.4820   23.3160   39.5060 C   0  0  0  0  0  0  0  0  0  0  0  0
   36.1960   23.9670   40.5220 C   0  0  0  0  0  0  0  0  0  0  0  0
   36.7750   25.2230   40.3080 C   0  0  0  0  0  0  0  0  0  0  0  0
   36.5910   25.7340   39.0780 N   0  0  0  0  0  0  0  0  0  0  0  0
   35.9020   25.1070   38.0970 C   0  0  0  0  0  0  0  0  0  0  0  0
   35.3540   23.9090   38.3110 N   0  0  0  0  0  0  0  0  0  0  0  0
   35.1100   22.3590   39.8550 H   0  0  0  0  0  0  0  0  0  0  0  0
   36.3530   23.5640   41.5220 H   0  0  0  0  0  0  0  0  0  0  0  0
   35.7610   25.5310   37.1120 H   0  0  0  0  0  0  0  0  0  0  0  0
   36.1310   27.8060   40.9450 O   0  0  0  0  0  0  0  0  0  0  0  0
   36.0340   27.7420   39.9360 H   0  0  0  0  0  0  0  0  0  0  0  0
   37.3990   29.2410   42.8490 O   0  0  0  0  0  0  0  0  0  0  0  0
   36.9810   31.1620   41.2930 C   0  0  0  0  0  0  0  0  0  0  0  0
   37.7430   30.3010   42.0420 C   0  0  0  0  0  0  0  0  0  0  0  0
   39.1290   30.4850   42.0230 C   0  0  0  0  0  0  0  0  0  0  0  0
   39.8680   29.8860   42.5630 H   0  0  0  0  0  0  0  0  0  0  0  0
   39.7250   31.4920   41.2800 C   0  0  0  0  0  3  0  0  0  0  0  0
   38.9230   32.3460   40.5330 C   0  0  0  0  0  3  0  0  0  0  0  0
   37.5780   32.1480   40.5670 C   0  0  0  0  0  0  0  0  0  0  0  0
   35.6170   30.9050   41.3730 O   0  0  0  0  0  0  0  0  0  0  0  0
   34.9630   31.3480   40.7450 H   0  0  0  0  0  0  0  0  0  0  0  0
   36.7490   32.9800   39.8350 O   0  0  0  0  0  0  0  0  0  0  0  0
   37.0540   33.8680   39.4580 H   0  0  0  0  0  0  0  0  0  0  0  0
  1  6  1  0  0  0  0
  2  1  2  0  0  0  0
  2  3  1  0  0  0  0
  3  4  2  0  0  0  0
  4  5  1  0  0  0  0
  4  8  1  0  0  0  0
  5  9  1  0  0  0  0
  6 21  1  0  0  0  0
  6  5  2  0  0  0  0
  7  3  1  0  0  0  0
 10 16  1  0  0  0  0
 10 11  1  0  0  0  0
 11 17  1  0  0  0  0
 12 11  2  0  0  0  0
 12  2  1  0  0  0  0
 13 12  1  0  0  0  0
 14 15  1  0  0  0  0
 14 13  2  0  0  0  0
 15 10  2  0  0  0  0
 18 14  1  0  0  0  0
 19  1  1  0  0  0  0
 20 19  1  0  0  0  0
 22 29  1  0  0  0  0
 22 23  1  0  0  0  0
 23 21  1  0  0  0  0
 24 23  2  0  0  0  0
 24 25  1  0  0  0  0
 26 24  1  0  0  0  0
 27 28  1  0  0  0  0
 27 26  2  0  0  0  0
 28 22  2  0  0  0  0
 30 29  1  0  0  0  0
 31 28  1  0  0  0  0
 32 31  1  0  0  0  0
M  END
>  <minimizedAffinity>
-6.08418608

$$$$

 OpenBabel03242513283D

 32 34  0  0  0  0  0  0  0  0999 V2000
   37.3270   27.3650   40.5320 C   0  0  0  0  0  0  0  0  0  0  0  0
   37.1460   26.2880   41.3800 C   0  0  0  0  0  0  0  0  0  0  0  0
   36.9920   26.5720   42.7140 C   0  0  0  0  0  0  0  0  0  0  0  0
   37.0140   27.8670   43.2000 C   0  0  0  0  0  0  0  0  0  0  0  0
   37.1920   28.9110   42.3600 C   0  0  0  0  0  0  0  0  0  0  0  0
   37.3560   28.6930   40.9860 C   0  0  0  0  0  0  0  0  0  0  0  0
   36.8480   25.7610   43.4120 H   0  0  0  0  0  0  0  0  0  0  0  0
   36.8880   28.0320   44.2610 H   0  0  0  0  0  0  0  0  0  0  0  0
   37.2040   29.9130   42.7310 H   0  0  0  0  0  0  0  0  0  0  0  0
   38.0620   22.7240   40.6010 C   0  0  0  0  0  0  0  0  0  0  0  0
   38.0940   24.0110   41.1570 C   0  0  0  0  0  0  0  0  0  0  0  0
   37.1290   24.9670   40.8220 C   0  0  0  0  0  0  0  0  0  0  0  0
   36.1960   24.5540   39.9460 N   0  0  0  0  0  0  0  0  0  0  0  0
   36.1640   23.3130   39.4090 C   0  0  0  0  0  0  0  0  0  0  0  0
   37.0900   22.4080   39.7350 N   0  0  0  0  0  0  0  0  0  0  0  0
   38.8850   22.1260   40.9770 H   0  0  0  0  0  0  0  0  0  0  0  0
   38.8440   24.3580   41.8670 H   0  0  0  0  0  0  0  0  0  0  0  0
   35.4070   22.9940   38.7050 H   0  0  0  0  0  0  0  0  0  0  0  0
   37.4870   27.1260   39.1760 O   0  0  0  0  0  0  0  0  0  0  0  0
   38.0980   26.4000   38.8120 H   0  0  0  0  0  0  0  0  0  0  0  0
   37.5430   29.6810   40.0480 O   0  0  0  0  0  0  0  0  0  0  0  0
   37.9120   32.1060   40.5670 C   0  0  0  0  0  0  0  0  0  0  0  0
   38.2850   30.8170   40.2800 C   0  0  0  0  0  0  0  0  0  0  0  0
   39.6530   30.5460   40.1930 C   0  0  0  0  0  0  0  0  0  0  0  0
   40.1070   29.5750   39.9730 H   0  0  0  0  0  0  0  0  0  0  0  0
   40.6100   31.5310   40.3870 C   0  0  0  0  0  3  0  0  0  0  0  0
   40.1970   32.8250   40.6770 C   0  0  0  0  0  3  0  0  0  0  0  0
   38.8620   33.0650   40.7560 C   0  0  0  0  0  0  0  0  0  0  0  0
   36.5350   32.2820   40.6350 O   0  0  0  0  0  0  0  0  0  0  0  0
   36.1260   33.2040   40.6680 H   0  0  0  0  0  0  0  0  0  0  0  0
   38.4150   34.3440   41.0430 O   0  0  0  0  0  0  0  0  0  0  0  0
   39.0150   35.0630   41.4260 H   0  0  0  0  0  0  0  0  0  0  0  0
  1  6  2  0  0  0  0
  1  2  1  0  0  0  0
  2  3  2  0  0  0  0
  3  4  1  0  0  0  0
  3  7  1  0  0  0  0
  4  8  1  0  0  0  0
  5  9  1  0  0  0  0
  5  4  2  0  0  0  0
  6  5  1  0  0  0  0
 10 16  1  0  0  0  0
 10 11  1  0  0  0  0
 11 17  1  0  0  0  0
 12 11  2  0  0  0  0
 12  2  1  0  0  0  0
 13 12  1  0  0  0  0
 14 15  1  0  0  0  0
 14 13  2  0  0  0  0
 15 10  2  0  0  0  0
 18 14  1  0  0  0  0
 19  1  1  0  0  0  0
 20 19  1  0  0  0  0
 21 23  1  0  0  0  0
 21  6  1  0  0  0  0
 22 29  1  0  0  0  0
 22 28  1  0  0  0  0
 23 22  2  0  0  0  0
 24 23  1  0  0  0  0
 24 26  2  0  0  0  0
 25 24  1  0  0  0  0
 26 27  1  0  0  0  0
 27 28  2  0  0  0  0
 28 31  1  0  0  0  0
 29 30  1  0  0  0  0
 31 32  1  0  0  0  0
M  END
>  <minimizedAffinity>
-5.9236331

$$$$

 OpenBabel03242513283D

 32 34  0  0  0  0  0  0  0  0999 V2000
   38.0940   29.4040   41.5780 C   0  0  0  0  0  0  0  0  0  0  0  0
   37.4560   28.1800   41.6600 C   0  0  0  0  0  0  0  0  0  0  0  0
   36.1610   28.1280   41.2090 C   0  0  0  0  0  0  0  0  0  0  0  0
   35.5130   29.2370   40.6970 C   0  0  0  0  0  0  0  0  0  0  0  0
   36.1480   30.4280   40.6230 C   0  0  0  0  0  0  0  0  0  0  0  0
   37.4710   30.5520   41.0660 C   0  0  0  0  0  0  0  0  0  0  0  0
   35.6250   27.1910   41.2540 H   0  0  0  0  0  0  0  0  0  0  0  0
   34.4910   29.1380   40.3570 H   0  0  0  0  0  0  0  0  0  0  0  0
   35.6530   31.2860   40.2220 H   0  0  0  0  0  0  0  0  0  0  0  0
   38.6650   24.6730   42.2900 C   0  0  0  0  0  0  0  0  0  0  0  0
   37.9520   25.7550   41.7520 C   0  0  0  0  0  0  0  0  0  0  0  0
   38.1760   27.0620   42.1980 C   0  0  0  0  0  0  0  0  0  0  0  0
   39.1090   27.1860   43.1590 N   0  0  0  0  0  0  0  0  0  0  0  0
   39.7970   26.1440   43.6780 C   0  0  0  0  0  0  0  0  0  0  0  0
   39.5760   24.9000   43.2460 N   0  0  0  0  0  0  0  0  0  0  0  0
   38.3570   23.7440   41.8240 H   0  0  0  0  0  0  0  0  0  0  0  0
   37.1940   25.6680   40.9750 H   0  0  0  0  0  0  0  0  0  0  0  0
   40.5460   26.2570   44.4510 H   0  0  0  0  0  0  0  0  0  0  0  0
   39.4030   29.5030   42.0220 O   0  0  0  0  0  0  0  0  0  0  0  0
   39.7220   29.1000   42.8990 H   0  0  0  0  0  0  0  0  0  0  0  0
   38.2070   31.7140   41.0350 O   0  0  0  0  0  0  0  0  0  0  0  0
   39.0990   32.0470   38.7160 C   0  0  0  0  0  0  0  0  0  0  0  0
   39.1650   31.9820   40.0850 C   0  0  0  0  0  0  0  0  0  0  0  0
   40.4070   32.2210   40.6820 C   0  0  0  0  0  0  0  0  0  0  0  0
   40.6220   32.2060   41.7540 H   0  0  0  0  0  0  0  0  0  0  0  0
   41.5360   32.5150   39.9330 C   0  0  0  0  0  3  0  0  0  0  0  0
   41.4320   32.5730   38.5490 C   0  0  0  0  0  3  0  0  0  0  0  0
   40.2150   32.3360   37.9910 C   0  0  0  0  0  0  0  0  0  0  0  0
   37.8280   31.7960   38.2120 O   0  0  0  0  0  0  0  0  0  0  0  0
   37.6760   31.6440   37.2260 H   0  0  0  0  0  0  0  0  0  0  0  0
   40.0760   32.3860   36.6140 O   0  0  0  0  0  0  0  0  0  0  0  0
   40.7630   32.8120   36.0070 H   0  0  0  0  0  0  0  0  0  0  0  0
  1  2  1  0  0  0  0
  1 19  1  0  0  0  0
  2 12  1  0  0  0  0
  3  7  1  0  0  0  0
  3  2  2  0  0  0  0
  4  3  1  0  0  0  0
  5  4  2  0  0  0  0
  5  6  1  0  0  0  0
  6  1  2  0  0  0  0
  8  4  1  0  0  0  0
  9  5  1  0  0  0  0
 10 15  1  0  0  0  0
 11 12  1  0  0  0  0
 11 10  2  0  0  0  0
 12 13  2  0  0  0  0
 13 14  1  0  0  0  0
 14 18  1  0  0  0  0
 15 14  2  0  0  0  0
 16 10  1  0  0  0  0
 17 11  1  0  0  0  0
 19 20  1  0  0  0  0
 21  6  1  0  0  0  0
 22 23  1  0  0  0  0
 23 24  2  0  0  0  0
 23 21  1  0  0  0  0
 24 25  1  0  0  0  0
 26 24  1  0  0  0  0
 27 26  2  0  0  0  0
 28 27  1  0  0  0  0
 28 22  2  0  0  0  0
 29 22  1  0  0  0  0
 30 29  1  0  0  0  0
 31 28  1  0  0  0  0
 32 31  1  0  0  0  0
M  END
>  <minimizedAffinity>
-5.84722519

$$$$

 OpenBabel03242513283D

 32 34  0  0  0  0  0  0  0  0999 V2000
   38.2360   27.6480   41.2120 C   0  0  0  0  0  0  0  0  0  0  0  0
   37.4800   26.6120   41.7300 C   0  0  0  0  0  0  0  0  0  0  0  0
   36.9190   26.8150   42.9660 C   0  0  0  0  0  0  0  0  0  0  0  0
   37.0910   27.9930   43.6710 C   0  0  0  0  0  0  0  0  0  0  0  0
   37.8330   28.9980   43.1530 C   0  0  0  0  0  0  0  0  0  0  0  0
   38.4350   28.8570   41.8960 C   0  0  0  0  0  0  0  0  0  0  0  0
   36.3200   26.0320   43.4080 H   0  0  0  0  0  0  0  0  0  0  0  0
   36.6260   28.0980   44.6410 H   0  0  0  0  0  0  0  0  0  0  0  0
   37.9640   29.9120   43.6910 H   0  0  0  0  0  0  0  0  0  0  0  0
   37.6270   23.0110   40.6500 C   0  0  0  0  0  0  0  0  0  0  0  0
   37.7810   24.1730   41.4210 C   0  0  0  0  0  0  0  0  0  0  0  0
   37.3310   25.4140   40.9560 C   0  0  0  0  0  0  0  0  0  0  0  0
   36.7560   25.3940   39.7400 N   0  0  0  0  0  0  0  0  0  0  0  0
   36.6080   24.2740   38.9970 C   0  0  0  0  0  0  0  0  0  0  0  0
   37.0400   23.0950   39.4490 N   0  0  0  0  0  0  0  0  0  0  0  0
   38.0340   22.1520   41.1720 H   0  0  0  0  0  0  0  0  0  0  0  0
   38.2450   24.2030   42.4070 H   0  0  0  0  0  0  0  0  0  0  0  0
   36.1430   24.2720   38.0200 H   0  0  0  0  0  0  0  0  0  0  0  0
   38.8220   27.4860   39.9670 O   0  0  0  0  0  0  0  0  0  0  0  0
   39.3150   26.6410   39.6940 H   0  0  0  0  0  0  0  0  0  0  0  0
   39.2070   29.8150   41.2800 O   0  0  0  0  0  0  0  0  0  0  0  0
   39.1100   30.8410   38.9950 C   0  0  0  0  0  0  0  0  0  0  0  0
   38.7340   30.6580   40.3020 C   0  0  0  0  0  0  0  0  0  0  0  0
   37.6830   31.4440   40.7850 C   0  0  0  0  0  0  0  0  0  0  0  0
   37.2690   31.4170   41.7970 H   0  0  0  0  0  0  0  0  0  0  0  0
   37.0360   32.3750   39.9880 C   0  0  0  0  0  3  0  0  0  0  0  0
   37.4430   32.5340   38.6690 C   0  0  0  0  0  3  0  0  0  0  0  0
   38.4670   31.7590   38.2210 C   0  0  0  0  0  0  0  0  0  0  0  0
   40.1590   30.0180   38.6010 O   0  0  0  0  0  0  0  0  0  0  0  0
   40.6430   30.1670   37.7280 H   0  0  0  0  0  0  0  0  0  0  0  0
   38.8980   31.8900   36.9120 O   0  0  0  0  0  0  0  0  0  0  0  0
   38.3550   32.3580   36.1980 H   0  0  0  0  0  0  0  0  0  0  0  0
  1  2  2  0  0  0  0
  1  6  1  0  0  0  0
  2  3  1  0  0  0  0
  3  7  1  0  0  0  0
  3  4  2  0  0  0  0
  4  8  1  0  0  0  0
  5  4  1  0  0  0  0
  5  9  1  0  0  0  0
  6  5  2  0  0  0  0
 10 16  1  0  0  0  0
 10 11  1  0  0  0  0
 11 17  1  0  0  0  0
 12 11  2  0  0  0  0
 12  2  1  0  0  0  0
 13 12  1  0  0  0  0
 14 15  1  0  0  0  0
 14 13  2  0  0  0  0
 15 10  2  0  0  0  0
 18 14  1  0  0  0  0
 19  1  1  0  0  0  0
 20 19  1  0  0  0  0
 21  6  1  0  0  0  0
 22 23  1  0  0  0  0
 23 24  2  0  0  0  0
 23 21  1  0  0  0  0
 24 25  1  0  0  0  0
 26 24  1  0  0  0  0
 27 26  2  0  0  0  0
 28 27  1  0  0  0  0
 28 22  2  0  0  0  0
 29 22  1  0  0  0  0
 30 29  1  0  0  0  0
 31 28  1  0  0  0  0
 32 31  1  0  0  0  0
M  END
>  <minimizedAffinity>
-5.72606897

$$$$

 OpenBabel03242513283D

 32 34  0  0  0  0  0  0  0  0999 V2000
   37.6100   28.4340   39.3540 C   0  0  0  0  0  0  0  0  0  0  0  0
   36.7550   27.9360   40.3200 C   0  0  0  0  0  0  0  0  0  0  0  0
   35.9170   28.8380   40.9260 C   0  0  0  0  0  0  0  0  0  0  0  0
   35.9160   30.1820   40.5970 C   0  0  0  0  0  0  0  0  0  0  0  0
   36.7580   30.6560   39.6510 C   0  0  0  0  0  0  0  0  0  0  0  0
   37.6410   29.7900   38.9930 C   0  0  0  0  0  0  0  0  0  0  0  0
   35.2310   28.4930   41.6860 H   0  0  0  0  0  0  0  0  0  0  0  0
   35.2340   30.8480   41.1080 H   0  0  0  0  0  0  0  0  0  0  0  0
   36.7560   31.6920   39.3900 H   0  0  0  0  0  0  0  0  0  0  0  0
   37.2380   24.6830   42.1460 C   0  0  0  0  0  0  0  0  0  0  0  0
   37.2050   26.0580   41.8700 C   0  0  0  0  0  0  0  0  0  0  0  0
   36.7950   26.5350   40.6200 C   0  0  0  0  0  0  0  0  0  0  0  0
   36.4480   25.5850   39.7320 N   0  0  0  0  0  0  0  0  0  0  0  0
   36.4800   24.2590   39.9980 C   0  0  0  0  0  0  0  0  0  0  0  0
   36.8720   23.8150   41.1940 N   0  0  0  0  0  0  0  0  0  0  0  0
   37.5800   24.5070   43.1600 H   0  0  0  0  0  0  0  0  0  0  0  0
   37.4840   26.8370   42.5790 H   0  0  0  0  0  0  0  0  0  0  0  0
   36.1970   23.5060   39.2740 H   0  0  0  0  0  0  0  0  0  0  0  0
   38.4750   27.5590   38.7160 O   0  0  0  0  0  0  0  0  0  0  0  0
   39.0200   26.8600   39.2130 H   0  0  0  0  0  0  0  0  0  0  0  0
   38.5350   30.1680   38.0190 O   0  0  0  0  0  0  0  0  0  0  0  0
   40.0560   32.1050   37.5490 C   0  0  0  0  0  0  0  0  0  0  0  0
   39.5920   31.0180   38.2480 C   0  0  0  0  0  0  0  0  0  0  0  0
   40.2780   30.6610   39.4120 C   0  0  0  0  0  0  0  0  0  0  0  0
   40.0340   29.8250   40.0750 H   0  0  0  0  0  0  0  0  0  0  0  0
   41.3840   31.3670   39.8580 C   0  0  0  0  0  3  0  0  0  0  0  0
   41.8260   32.4620   39.1270 C   0  0  0  0  0  3  0  0  0  0  0  0
   41.1450   32.7900   37.9980 C   0  0  0  0  0  0  0  0  0  0  0  0
   39.3140   32.3870   36.4080 O   0  0  0  0  0  0  0  0  0  0  0  0
   39.6440   33.0460   35.7180 H   0  0  0  0  0  0  0  0  0  0  0  0
   41.5580   33.8760   37.2440 O   0  0  0  0  0  0  0  0  0  0  0  0
   42.1910   34.5820   37.5970 H   0  0  0  0  0  0  0  0  0  0  0  0
  1  2  1  0  0  0  0
  2 12  1  0  0  0  0
  2  3  2  0  0  0  0
  3  7  1  0  0  0  0
  4  3  1  0  0  0  0
  4  8  1  0  0  0  0
  5  4  2  0  0  0  0
  6  1  2  0  0  0  0
  6  5  1  0  0  0  0
  9  5  1  0  0  0  0
 10 16  1  0  0  0  0
 11 10  1  0  0  0  0
 11 17  1  0  0  0  0
 12 11  2  0  0  0  0
 13 14  2  0  0  0  0
 13 12  1  0  0  0  0
 14 15  1  0  0  0  0
 15 10  2  0  0  0  0
 18 14  1  0  0  0  0
 19 20  1  0  0  0  0
 19  1  1  0  0  0  0
 21 23  1  0  0  0  0
 21  6  1  0  0  0  0
 22 28  2  0  0  0  0
 22 23  1  0  0  0  0
 23 24  2  0  0  0  0
 24 26  1  0  0  0  0
 24 25  1  0  0  0  0
 27 26  2  0  0  0  0
 28 27  1  0  0  0  0
 29 22  1  0  0  0  0
 30 29  1  0  0  0  0
 31 32  1  0  0  0  0
 31 28  1  0  0  0  0
M  END
>  <minimizedAffinity>
-5.6797986

$$$$

 OpenBabel03242513283D

 32 34  0  0  0  0  0  0  0  0999 V2000
   37.8420   25.7960   41.7620 C   0  0  0  0  0  0  0  0  0  0  0  0
   38.8460   24.8460   41.7280 C   0  0  0  0  0  0  0  0  0  0  0  0
   39.8400   24.9640   42.6670 C   0  0  0  0  0  0  0  0  0  0  0  0
   39.8500   25.9780   43.6080 C   0  0  0  0  0  0  0  0  0  0  0  0
   38.8620   26.9010   43.6300 C   0  0  0  0  0  0  0  0  0  0  0  0
   37.8170   26.8400   42.7000 C   0  0  0  0  0  0  0  0  0  0  0  0
   40.6450   24.2430   42.6770 H   0  0  0  0  0  0  0  0  0  0  0  0
   40.6590   26.0230   44.3240 H   0  0  0  0  0  0  0  0  0  0  0  0
   38.8630   27.6830   44.3590 H   0  0  0  0  0  0  0  0  0  0  0  0
   39.5130   22.8280   38.6240 C   0  0  0  0  0  0  0  0  0  0  0  0
   39.5860   23.8460   39.5870 C   0  0  0  0  0  0  0  0  0  0  0  0
   38.7860   23.8150   40.7330 C   0  0  0  0  0  0  0  0  0  0  0  0
   37.9650   22.7530   40.8280 N   0  0  0  0  0  0  0  0  0  0  0  0
   37.8940   21.7720   39.9000 C   0  0  0  0  0  0  0  0  0  0  0  0
   38.6620   21.8110   38.8090 N   0  0  0  0  0  0  0  0  0  0  0  0
   40.2040   23.0240   37.8110 H   0  0  0  0  0  0  0  0  0  0  0  0
   40.2460   24.7110   39.5220 H   0  0  0  0  0  0  0  0  0  0  0  0
   37.2290   20.9230   39.9890 H   0  0  0  0  0  0  0  0  0  0  0  0
   36.8180   25.7160   40.8320 O   0  0  0  0  0  0  0  0  0  0  0  0
   36.9810   25.5430   39.8450 H   0  0  0  0  0  0  0  0  0  0  0  0
   36.7660   27.7260   42.6350 O   0  0  0  0  0  0  0  0  0  0  0  0
   37.5190   29.9870   41.8550 C   0  0  0  0  0  0  0  0  0  0  0  0
   36.7630   28.8420   41.8300 C   0  0  0  0  0  0  0  0  0  0  0  0
   35.7950   28.7310   40.8280 C   0  0  0  0  0  0  0  0  0  0  0  0
   35.1160   27.8870   40.6750 H   0  0  0  0  0  0  0  0  0  0  0  0
   35.5950   29.7300   39.8870 C   0  0  0  0  0  3  0  0  0  0  0  0
   36.3790   30.8760   39.9420 C   0  0  0  0  0  3  0  0  0  0  0  0
   37.3140   30.9610   40.9260 C   0  0  0  0  0  0  0  0  0  0  0  0
   38.4550   30.0090   42.8830 O   0  0  0  0  0  0  0  0  0  0  0  0
   38.9530   30.8530   43.1200 H   0  0  0  0  0  0  0  0  0  0  0  0
   38.1130   32.0890   41.0100 O   0  0  0  0  0  0  0  0  0  0  0  0
   38.2090   32.7530   40.2530 H   0  0  0  0  0  0  0  0  0  0  0  0
  1  6  1  0  0  0  0
  2  1  2  0  0  0  0
  2  3  1  0  0  0  0
  3  7  1  0  0  0  0
  3  4  2  0  0  0  0
  4  5  1  0  0  0  0
  4  8  1  0  0  0  0
  5  9  1  0  0  0  0
  6  5  2  0  0  0  0
 10 15  2  0  0  0  0
 10 11  1  0  0  0  0
 11 12  2  0  0  0  0
 12 13  1  0  0  0  0
 12  2  1  0  0  0  0
 14 18  1  0  0  0  0
 14 13  2  0  0  0  0
 15 14  1  0  0  0  0
 16 10  1  0  0  0  0
 17 11  1  0  0  0  0
 19  1  1  0  0  0  0
 20 19  1  0  0  0  0
 21  6  1  0  0  0  0
 22 29  1  0  0  0  0
 23 22  1  0  0  0  0
 23 21  1  0  0  0  0
 24 23  2  0  0  0  0
 25 24  1  0  0  0  0
 26 27  2  0  0  0  0
 26 24  1  0  0  0  0
 27 28  1  0  0  0  0
 28 31  1  0  0  0  0
 28 22  2  0  0  0  0
 29 30  1  0  0  0  0
 32 31  1  0  0  0  0
M  END
>  <minimizedAffinity>
-5.66067219

$$$$
