REMARK  Name = 
REMARK  7 active torsions:
REMARK  status: ('A' for Active; 'I' for Inactive)
REMARK    1  A    between atoms: C_1  and  C_3
REMARK    2  A    between atoms: C_1  and  O_9
REMARK    3  A    between atoms: O_9  and  C_10
REMARK    4  A    between atoms: C_13  and  C_15
REMARK    5  A    between atoms: C_17  and  C_29
REMARK    6  A    between atoms: O_27  and  C_28
REMARK    7  A    between atoms: C_34  and  O_35
REMARK                            x       y       z     vdW  Elec       q    Type
REMARK                         _______ _______ _______ _____ _____    ______ ____
ROOT
ATOM      1  C   UNL     1      47.241  33.638  39.821  0.00  0.00    +0.000 A 
ATOM      2  C   UNL     1      48.191  34.199  38.970  0.00  0.00    +0.000 A 
ATOM      3  C   UNL     1      47.765  34.040  37.660  0.00  0.00    +0.000 A 
ATOM      4  C   UNL     1      46.567  33.385  37.784  0.00  0.00    +0.000 A 
ATOM      5  O   UNL     1      46.269  33.154  39.043  0.00  0.00    +0.000 OA
ATOM      6  H   UNL     1      49.094  34.665  39.376  0.00  0.00    +0.000 HD
ATOM      7  H   UNL     1      48.314  34.385  36.795  0.00  0.00    +0.000 HD
ENDROOT
BRANCH   4   8
ATOM      8  C   UNL     1      45.715  32.992  36.648  0.00  0.00    +0.000 C 
ATOM      9  C   UNL     1      44.683  31.951  36.836  0.00  0.00    +0.000 C 
ATOM     10  C   UNL     1      45.955  31.546  36.161  0.00  0.00    +0.000 C 
ATOM     11  H   UNL     1      45.699  33.758  35.845  0.00  0.00    +0.000 HD
ATOM     12  H   UNL     1      44.494  31.545  37.836  0.00  0.00    +0.000 HD
ATOM     13  H   UNL     1      43.741  32.074  36.232  0.00  0.00    +0.000 HD
ATOM     14  H   UNL     1      46.665  30.916  36.744  0.00  0.00    +0.000 HD
BRANCH  10  16
ATOM     15  C   UNL     1      47.088  31.556  33.973  0.00  0.00    +0.000 A 
ATOM     16  C   UNL     1      45.918  31.405  34.685  0.00  0.00    +0.000 A 
ATOM     17  C   UNL     1      44.773  31.127  33.967  0.00  0.00    +0.000 A 
ATOM     18  H   UNL     1      43.839  31.003  34.498  0.00  0.00    +0.000 HD
ATOM     19  C   UNL     1      44.815  31.010  32.593  0.00  0.00    +0.000 A 
ATOM     20  C   UNL     1      45.979  31.159  31.871  0.00  0.00    +0.000 A 
ATOM     21  C   UNL     1      47.132  31.437  32.580  0.00  0.00    +0.000 A 
BRANCH  15  22
ATOM     22  O   UNL     1      48.260  31.837  34.673  0.00  0.00    +0.000 OA
ATOM     23  H   UNL     1      49.089  32.087  34.168  0.00  0.00    +0.000 HD
ENDBRANCH  15  22
BRANCH  21  24
ATOM     24  O   UNL     1      48.329  31.595  31.884  0.00  0.00    +0.000 OA
ATOM     25  H   UNL     1      48.475  32.535  31.511  0.00  0.00    +0.000 HD
ENDBRANCH  21  24
ENDBRANCH  10  16
ENDBRANCH   4   8
BRANCH   1  26
ATOM     26  O   UNL     1      47.198  33.540  41.225  0.00  0.00    +0.000 OA
BRANCH  26  27
ATOM     27  C   UNL     1      47.299  34.705  42.011  0.00  0.00    +0.000 C 
ATOM     28  O   UNL     1      48.157  35.546  41.630  0.00  0.00    +0.000 OA
BRANCH  27  29
ATOM     29  C   UNL     1      46.430  34.794  43.132  0.00  0.00    +0.000 A 
ATOM     30  C   UNL     1      45.545  35.836  43.092  0.00  0.00    +0.000 A 
ATOM     31  C   UNL     1      44.662  35.985  44.160  0.00  0.00    +0.000 A 
ATOM     32  N   UNL     1      44.727  35.099  45.168  0.00  0.00    +0.000 NA
ATOM     33  C   UNL     1      45.603  34.091  45.177  0.00  0.00    +0.000 A 
ATOM     34  N   UNL     1      46.456  33.950  44.144  0.00  0.00    +0.000 NA
ATOM     35  H   UNL     1      45.423  36.600  42.316  0.00  0.00    +0.000 HD
ATOM     36  H   UNL     1      43.934  36.791  44.191  0.00  0.00    +0.000 HD
ATOM     37  H   UNL     1      45.577  33.425  46.042  0.00  0.00    +0.000 HD
ENDBRANCH  27  29
ENDBRANCH  26  27
ENDBRANCH   1  26
TORSDOF 7
