
     RDKit          3D

 39 42  0  0  0  0  0  0  0  0999 V2000
   47.2990   34.7048   42.0115 C   0  0  0  0  0  0  0  0  0  0  0  0
   48.1571   35.5459   41.6298 O   0  0  0  0  0  0  0  0  0  0  0  0
   46.4298   34.7941   43.1320 C   0  0  0  0  0  0  0  0  0  0  0  0
   45.5451   35.8363   43.0919 C   0  0  0  0  0  0  0  0  0  0  0  0
   44.6617   35.9853   44.1595 C   0  0  0  0  0  0  0  0  0  0  0  0
   44.7265   35.0989   45.1683 N   0  0  0  0  0  0  0  0  0  0  0  0
   45.6035   34.0908   45.1769 C   0  0  0  0  0  0  0  0  0  0  0  0
   46.4555   33.9495   44.1442 N   0  0  0  0  0  0  0  0  0  0  0  0
   47.1984   33.5397   41.2251 O   0  0  0  0  0  0  0  0  0  0  0  0
   47.2407   33.6375   39.8214 C   0  0  0  0  0  0  0  0  0  0  0  0
   48.1911   34.1987   38.9703 C   0  0  0  0  0  0  0  0  0  0  0  0
   47.7648   34.0403   37.6598 C   0  0  0  0  0  0  0  0  0  0  0  0
   46.5669   33.3850   37.7839 C   0  0  0  0  0  0  0  0  0  0  0  0
   46.2690   33.1535   39.0433 O   0  0  0  0  0  0  0  0  0  0  0  0
   45.7146   32.9917   36.6477 C   0  0  2  0  0  0  0  0  0  0  0  0
   44.6829   31.9508   36.8361 C   0  0  0  0  0  0  0  0  0  0  0  0
   45.9554   31.5462   36.1614 C   0  0  1  0  0  0  0  0  0  0  0  0
   45.4232   36.6004   42.3159 H   0  0  0  0  0  0  0  0  0  0  0  0
   43.9337   36.7907   44.1912 H   0  0  0  0  0  0  0  0  0  0  0  0
   45.5768   33.4245   46.0423 H   0  0  0  0  0  0  0  0  0  0  0  0
   49.0941   34.6651   39.3756 H   0  0  0  0  0  0  0  0  0  0  0  0
   48.3143   34.3854   36.7951 H   0  0  0  0  0  0  0  0  0  0  0  0
   45.6989   33.7584   35.8447 H   0  0  0  0  0  0  0  0  0  0  0  0
   44.4939   31.5447   37.8358 H   0  0  0  0  0  0  0  0  0  0  0  0
   43.7406   32.0744   36.2321 H   0  0  0  0  0  0  0  0  0  0  0  0
   46.6647   30.9158   36.7438 H   0  0  0  0  0  0  0  0  0  0  0  0
   46.7167   33.6431   34.5392 O   0  0  0  0  0  0  0  0  0  0  0  0
   46.3054   32.4730   33.9049 C   0  0  0  0  0  0  0  0  0  0  0  0
   45.9179   31.4046   34.6846 C   0  0  0  0  0  0  0  0  0  0  0  0
   45.5151   30.2579   34.0317 C   0  0  0  0  0  0  0  0  0  0  0  0
   45.2055   29.4032   34.6172 H   0  0  0  0  0  0  0  0  0  0  0  0
   45.5067   30.2002   32.6533 C   0  0  0  0  0  0  0  0  0  0  0  0
   45.8919   31.2618   31.8635 C   0  0  0  0  0  0  0  0  0  0  0  0
   46.2968   32.4145   32.5072 C   0  0  0  0  0  0  0  0  0  0  0  0
   46.6936   33.5094   31.7424 O   0  0  0  0  0  0  0  0  0  0  0  0
   46.8683   34.4724   33.9955 H   0  0  0  0  0  0  0  0  0  0  0  0
   45.1784   29.2674   32.1931 H   0  0  0  0  0  0  0  0  0  0  0  0
   45.8646   31.1590   30.7832 H   0  0  0  0  0  0  0  0  0  0  0  0
   45.9216   34.1005   31.4253 H   0  0  0  0  0  0  0  0  0  0  0  0
  1  3  1  0
  2  1  2  0
  3  8  1  0
  4  3  2  0
  4  5  1  0
  5  6  2  0
  7  6  1  0
  8  7  2  0
  9  1  1  0
 10  9  1  0
 11 10  2  0
 12 13  2  0
 12 11  1  0
 13 14  1  0
 14 10  1  0
 15 16  1  0
 15 13  1  0
 17 15  1  0
 17 16  1  0
  4 18  1  0
  5 19  1  0
  7 20  1  0
 11 21  1  0
 12 22  1  0
 15 23  1  6
 16 24  1  0
 16 25  1  0
 17 26  1  1
 27 28  1  0
 28 29  2  0
 29 30  1  0
 30 31  1  0
 30 32  2  0
 32 33  1  0
 33 34  2  0
 34 35  1  0
 34 28  1  0
 27 36  1  0
 32 37  1  0
 33 38  1  0
 35 39  1  0
 17 29  1  0
M  ISO  8  18  14  19  14  20  14  21  14  22  14  23  13  24  13  25  13
M  ISO  2  26  13  31  16
M  END
>  <DihAtoms>  (1) 
14,16,28,27

>  <DihDeg>  (1) 
89.99821962347781

$$$$
