
 OpenBabel03252507133D

 44 46  0  0  1  0  0  0  0  0999 V2000
   46.3730   32.8500   41.6270 C   0  0  2  0  0  0  0  0  0  0  0  0
   45.3040   33.7440   42.1330 C   0  0  0  0  0  0  0  0  0  0  0  0
   44.8360   34.6460   41.0270 C   0  0  0  0  0  0  0  0  0  0  0  0
   44.1480   33.9560   40.0330 O   0  0  0  0  0  0  0  0  0  0  0  0
   44.5850   32.6530   39.9420 C   0  0  0  0  0  0  0  0  0  0  0  0
   46.0760   32.5510   40.1730 C   0  0  1  0  0  0  0  0  0  0  0  0
   47.3340   33.4300   41.6950 H   0  0  0  0  0  0  0  0  0  0  0  0
   44.4200   33.2070   42.5400 H   0  0  0  0  0  0  0  0  0  0  0  0
   45.6510   34.4010   42.9800 H   0  0  0  0  0  0  0  0  0  0  0  0
   45.5650   35.3720   40.6770 H   0  0  0  0  0  0  0  0  0  0  0  0
   44.0440   35.3060   41.5410 H   0  0  0  0  0  0  0  0  0  0  0  0
   44.2770   32.2500   38.9670 H   0  0  0  0  0  0  0  0  0  0  0  0
   44.0770   32.0470   40.7290 H   0  0  0  0  0  0  0  0  0  0  0  0
   46.2590   31.4260   40.1080 H   0  0  0  0  0  0  0  0  0  0  0  0
   46.7390   32.5240   37.8690 C   0  0  0  0  0  0  0  0  0  0  0  0
   46.8630   33.1290   39.1380 C   0  0  0  0  0  0  0  0  0  0  0  0
   47.7650   34.1720   39.1050 C   0  0  0  0  0  0  0  0  0  0  0  0
   47.9160   34.6640   40.0300 H   0  0  0  0  0  0  0  0  0  0  0  0
   48.4850   34.6200   38.0240 C   0  0  0  0  0  3  0  0  0  0  0  0
   48.3040   33.9720   36.8220 C   0  0  0  0  0  3  0  0  0  0  0  0
   47.4300   32.9320   36.7710 C   0  0  0  0  0  0  0  0  0  0  0  0
   45.8710   31.4330   37.6620 O   0  0  0  0  0  0  0  0  0  0  0  0
   46.0890   30.6790   37.0530 H   0  0  0  0  0  0  0  0  0  0  0  0
   47.2890   32.3180   35.5340 O   0  0  0  0  0  0  0  0  0  0  0  0
   46.5730   32.5150   34.8700 H   0  0  0  0  0  0  0  0  0  0  0  0
   46.5990   31.7280   42.3310 O   0  0  0  0  0  0  0  0  0  0  0  0
   48.0440   30.3920   44.0700 O   0  0  0  0  0  0  0  0  0  0  0  0
   47.9480   31.6380   43.2790 P   0  0  2  0  0  0  0  0  0  0  0  0
   47.9080   32.9340   44.3850 O   0  0  0  0  0  0  0  0  0  0  0  0
   48.7840   33.3840   44.4680 H   0  0  0  0  0  0  0  0  0  0  0  0
   49.3650   31.8490   42.3190 O   0  0  0  0  0  0  0  0  0  0  0  0
   50.3410   29.9920   41.2430 C   0  0  0  0  0  0  0  0  0  0  0  0
   50.3610   30.8960   42.2800 C   0  0  0  0  0  0  0  0  0  0  0  0
   51.3900   30.8080   43.2510 C   0  0  0  0  0  0  0  0  0  0  0  0
   52.3060   29.8210   43.0880 N   0  0  0  0  0  0  0  0  0  0  0  0
   52.2550   28.9640   42.0730 C   0  0  0  0  0  0  0  0  0  0  0  0
   51.2610   29.0650   41.1550 N   0  0  0  0  0  0  0  0  0  0  0  0
   49.5790   30.5960   38.9520 C   0  0  0  0  0  0  0  0  0  0  0  0
   50.2240   31.6990   38.9360 O   0  0  0  0  0  0  0  0  0  0  0  0
   49.5780   29.6680   40.0920 N   0  0  0  0  0  0  0  0  0  0  0  0
   51.3830   31.5360   44.0620 H   0  0  0  0  0  0  0  0  0  0  0  0
   52.9840   28.1710   41.9360 H   0  0  0  0  0  0  0  0  0  0  0  0
   49.0050   30.3650   38.0480 H   0  0  0  0  0  0  0  0  0  0  0  0
   48.9870   28.8290   39.9360 H   0  0  0  0  0  0  0  0  0  0  0  0
  1  7  1  1  0  0  0
  1  2  1  0  0  0  0
  1 26  1  0  0  0  0
  2  8  1  0  0  0  0
  2  9  1  0  0  0  0
  3 11  1  0  0  0  0
  3  2  1  0  0  0  0
  4  3  1  0  0  0  0
  5  4  1  0  0  0  0
  5  6  1  0  0  0  0
  5 13  1  0  0  0  0
  6 14  1  6  0  0  0
  6  1  1  0  0  0  0
 10  3  1  0  0  0  0
 12  5  1  0  0  0  0
 15 16  1  0  0  0  0
 16  6  1  0  0  0  0
 17 16  2  0  0  0  0
 17 18  1  0  0  0  0
 19 17  1  0  0  0  0
 20 19  2  0  0  0  0
 21 20  1  0  0  0  0
 21 15  2  0  0  0  0
 22 15  1  0  0  0  0
 23 22  1  0  0  0  0
 24 21  1  0  0  0  0
 25 24  1  0  0  0  0
 26 28  1  0  0  0  0
 28 27  2  1  0  0  0
 28 29  1  0  0  0  0
 29 30  1  0  0  0  0
 31 28  1  0  0  0  0
 32 33  1  0  0  0  0
 33 31  1  0  0  0  0
 33 34  2  0  0  0  0
 34 41  1  0  0  0  0
 35 34  1  0  0  0  0
 36 35  2  0  0  0  0
 37 32  2  0  0  0  0
 37 36  1  0  0  0  0
 38 40  1  0  0  0  0
 39 38  2  0  0  0  0
 40 32  1  0  0  0  0
 42 36  1  0  0  0  0
 43 38  1  0  0  0  0
 44 40  1  0  0  0  0
M  END
>  <minimizedAffinity>
-3.75292921

>  <minimizedRMSD>
3.26242423

$$$$
