
 OpenBabel03242518363D

 37 40  0  0  1  0  0  0  0  0999 V2000
   47.4760   33.6040   39.8480 C   0  0  0  0  0  0  0  0  0  0  0  0
   48.1900   34.4990   39.0530 C   0  0  0  0  0  0  0  0  0  0  0  0
   48.0200   34.1450   37.7230 C   0  0  0  0  0  0  0  0  0  0  0  0
   47.2040   33.0450   37.7790 C   0  0  0  0  0  0  0  0  0  0  0  0
   46.8930   32.7360   39.0180 O   0  0  0  0  0  0  0  0  0  0  0  0
   48.7610   35.3140   39.5090 H   0  0  0  0  0  0  0  0  0  0  0  0
   48.4660   34.6730   36.8910 H   0  0  0  0  0  0  0  0  0  0  0  0
   46.7310   32.3030   36.5980 C   0  0  2  0  0  0  0  0  0  0  0  0
   46.3480   30.8820   36.7350 C   0  0  0  0  0  0  0  0  0  0  0  0
   47.6890   31.1800   36.1430 C   0  0  1  0  0  0  0  0  0  0  0  0
   46.3810   32.9740   35.7870 H   0  0  0  0  0  0  0  0  0  0  0  0
   46.3290   30.4150   37.7260 H   0  0  0  0  0  0  0  0  0  0  0  0
   45.5070   30.5300   36.0740 H   0  0  0  0  0  0  0  0  0  0  0  0
   48.5830   30.9770   36.7750 H   0  0  0  0  0  0  0  0  0  0  0  0
   48.7200   31.8770   34.0150 C   0  0  0  0  0  0  0  0  0  0  0  0
   47.8130   31.0690   34.6690 C   0  0  0  0  0  0  0  0  0  0  0  0
   47.0710   30.1990   33.8980 C   0  0  0  0  0  0  0  0  0  0  0  0
   46.3530   29.5520   34.3820 H   0  0  0  0  0  0  0  0  0  0  0  0
   47.2420   30.1510   32.5290 C   0  0  0  0  0  3  0  0  0  0  0  0
   48.1450   30.9530   31.8660 C   0  0  0  0  0  3  0  0  0  0  0  0
   48.8930   31.8290   32.6280 C   0  0  0  0  0  0  0  0  0  0  0  0
   49.4810   32.7650   34.7720 O   0  0  0  0  0  0  0  0  0  0  0  0
   50.0420   33.4540   34.3060 H   0  0  0  0  0  0  0  0  0  0  0  0
   49.8160   32.6560   31.9930 O   0  0  0  0  0  0  0  0  0  0  0  0
   49.4160   33.5180   31.6140 H   0  0  0  0  0  0  0  0  0  0  0  0
   47.3220   33.5270   41.2460 O   0  0  0  0  0  0  0  0  0  0  0  0
   47.3830   34.7010   42.0220 C   0  0  0  0  0  0  0  0  0  0  0  0
   48.2380   35.5520   41.6560 O   0  0  0  0  0  0  0  0  0  0  0  0
   46.4810   34.7870   43.1180 C   0  0  0  0  0  0  0  0  0  0  0  0
   45.6020   35.8340   43.0580 C   0  0  0  0  0  0  0  0  0  0  0  0
   44.6890   35.9800   44.1000 C   0  0  0  0  0  0  0  0  0  0  0  0
   44.7200   35.0880   45.1040 N   0  0  0  0  0  0  0  0  0  0  0  0
   45.5920   34.0760   45.1330 C   0  0  0  0  0  0  0  0  0  0  0  0
   46.4740   33.9370   44.1250 N   0  0  0  0  0  0  0  0  0  0  0  0
   45.5060   36.6030   42.2830 H   0  0  0  0  0  0  0  0  0  0  0  0
   43.9640   36.7890   44.1150 H   0  0  0  0  0  0  0  0  0  0  0  0
   45.5370   33.4050   45.9930 H   0  0  0  0  0  0  0  0  0  0  0  0
  1 26  1  0  0  0  0
  2  6  1  0  0  0  0
  2  1  2  0  0  0  0
  3  4  2  0  0  0  0
  3  2  1  0  0  0  0
  4  5  1  0  0  0  0
  5  1  1  0  0  0  0
  7  3  1  0  0  0  0
  8 11  1  6  0  0  0
  8  9  1  0  0  0  0
  8  4  1  0  0  0  0
  9 12  1  0  0  0  0
 10  8  1  0  0  0  0
 10  9  1  0  0  0  0
 10 14  1  1  0  0  0
 13  9  1  0  0  0  0
 15 16  1  0  0  0  0
 15 22  1  0  0  0  0
 16 10  1  0  0  0  0
 17 18  1  0  0  0  0
 17 16  2  0  0  0  0
 19 17  1  0  0  0  0
 20 19  2  0  0  0  0
 20 21  1  0  0  0  0
 21 15  2  0  0  0  0
 23 22  1  0  0  0  0
 24 21  1  0  0  0  0
 25 24  1  0  0  0  0
 26 27  1  0  0  0  0
 27 29  1  0  0  0  0
 28 27  2  0  0  0  0
 29 34  1  0  0  0  0
 30 29  2  0  0  0  0
 30 31  1  0  0  0  0
 31 36  1  0  0  0  0
 31 32  2  0  0  0  0
 32 33  1  0  0  0  0
 33 37  1  0  0  0  0
 34 33  2  0  0  0  0
 35 30  1  0  0  0  0
M  END
>  <minimizedAffinity>
-5.68590593

>  <minimizedRMSD>
1.38447297

$$$$
