
 OpenBabel03252504543D

 23 24  0  0  0  0  0  0  0  0999 V2000
   35.5200   28.7220   40.5700 C   0  0  0  0  0  0  0  0  0  0  0  0
   34.6920   29.1420   41.1790 H   0  0  0  0  0  0  0  0  0  0  0  0
   35.0110   28.0300   39.8520 H   0  0  0  0  0  0  0  0  0  0  0  0
   37.9290   26.1570   41.7510 C   0  0  0  0  0  0  0  0  0  0  0  0
   36.9730   26.8200   40.9540 C   0  0  0  0  0  0  0  0  0  0  0  0
   36.5130   28.0500   41.4090 C   0  0  0  0  0  0  0  0  0  0  0  0
   36.9930   28.5520   42.5740 N   0  0  0  0  0  0  0  0  0  0  0  0
   37.9130   27.8800   43.3100 C   0  0  0  0  0  0  0  0  0  0  0  0
   38.3700   26.6900   42.8880 N   0  0  0  0  0  0  0  0  0  0  0  0
   38.2720   25.1910   41.3670 H   0  0  0  0  0  0  0  0  0  0  0  0
   36.6070   26.3810   40.0150 H   0  0  0  0  0  0  0  0  0  0  0  0
   38.3040   28.2690   44.2410 H   0  0  0  0  0  0  0  0  0  0  0  0
   36.2790   31.0670   40.3990 C   0  0  0  0  0  0  0  0  0  0  0  0
   36.2230   29.8040   39.8150 C   0  0  0  0  0  0  0  0  0  0  0  0
   36.8030   29.5780   38.5830 C   0  0  0  0  0  0  0  0  0  0  0  0
   36.7180   28.5710   38.1970 H   0  0  0  0  0  0  0  0  0  0  0  0
   37.4470   30.6030   37.9130 C   0  0  0  0  0  3  0  0  0  0  0  0
   37.5020   31.8690   38.4980 C   0  0  0  0  0  3  0  0  0  0  0  0
   36.9190   32.0960   39.7380 C   0  0  0  0  0  0  0  0  0  0  0  0
   35.7170   31.3820   41.6450 O   0  0  0  0  0  0  0  0  0  0  0  0
   35.2220   30.6120   42.0850 H   0  0  0  0  0  0  0  0  0  0  0  0
   37.0490   33.3920   40.1970 O   0  0  0  0  0  0  0  0  0  0  0  0
   36.2170   33.9480   40.3650 H   0  0  0  0  0  0  0  0  0  0  0  0
  1  2  1  0  0  0  0
  1  6  1  0  0  0  0
  3  1  1  0  0  0  0
  4  9  1  0  0  0  0
  5  6  1  0  0  0  0
  5  4  2  0  0  0  0
  6  7  2  0  0  0  0
  7  8  1  0  0  0  0
  8 12  1  0  0  0  0
  9  8  2  0  0  0  0
 10  4  1  0  0  0  0
 11  5  1  0  0  0  0
 13 20  1  0  0  0  0
 14 13  1  0  0  0  0
 14  1  1  0  0  0  0
 15 14  2  0  0  0  0
 16 15  1  0  0  0  0
 17 18  2  0  0  0  0
 17 15  1  0  0  0  0
 18 19  1  0  0  0  0
 19 22  1  0  0  0  0
 19 13  2  0  0  0  0
 20 21  1  0  0  0  0
 22 23  1  0  0  0  0
M  END
>  <minimizedAffinity>
-5.43003941

$$$$

 OpenBabel03252504543D

 23 24  0  0  0  0  0  0  0  0999 V2000
   37.4290   26.5600   42.3080 C   0  0  0  0  0  0  0  0  0  0  0  0
   36.9840   26.6500   43.3230 H   0  0  0  0  0  0  0  0  0  0  0  0
   37.1820   25.5150   41.9910 H   0  0  0  0  0  0  0  0  0  0  0  0
   41.0220   26.4100   41.3870 C   0  0  0  0  0  0  0  0  0  0  0  0
   39.6330   26.1640   41.3790 C   0  0  0  0  0  0  0  0  0  0  0  0
   38.8680   26.8270   42.3310 C   0  0  0  0  0  0  0  0  0  0  0  0
   39.4750   27.6650   43.2090 N   0  0  0  0  0  0  0  0  0  0  0  0
   40.8150   27.8720   43.1810 C   0  0  0  0  0  0  0  0  0  0  0  0
   41.5720   27.2410   42.2690 N   0  0  0  0  0  0  0  0  0  0  0  0
   41.5970   25.8740   40.6250 H   0  0  0  0  0  0  0  0  0  0  0  0
   39.1770   25.4780   40.6510 H   0  0  0  0  0  0  0  0  0  0  0  0
   41.3110   28.5370   43.8750 H   0  0  0  0  0  0  0  0  0  0  0  0
   36.5410   28.8170   41.8430 C   0  0  0  0  0  0  0  0  0  0  0  0
   36.8020   27.5350   41.3650 C   0  0  0  0  0  0  0  0  0  0  0  0
   36.4860   27.1960   40.0660 C   0  0  0  0  0  0  0  0  0  0  0  0
   36.7200   26.1810   39.7700 H   0  0  0  0  0  0  0  0  0  0  0  0
   35.9070   28.1250   39.2200 C   0  0  0  0  0  3  0  0  0  0  0  0
   35.6450   29.4100   39.6980 C   0  0  0  0  0  3  0  0  0  0  0  0
   35.9630   29.7510   41.0060 C   0  0  0  0  0  0  0  0  0  0  0  0
   36.8300   29.2440   43.1470 O   0  0  0  0  0  0  0  0  0  0  0  0
   37.2190   28.5210   43.7450 H   0  0  0  0  0  0  0  0  0  0  0  0
   35.6510   31.0530   41.3450 O   0  0  0  0  0  0  0  0  0  0  0  0
   34.9820   31.2280   42.0880 H   0  0  0  0  0  0  0  0  0  0  0  0
  1  6  1  0  0  0  0
  1  2  1  0  0  0  0
  3  1  1  0  0  0  0
  4  9  1  0  0  0  0
  5  4  2  0  0  0  0
  5  6  1  0  0  0  0
  6  7  2  0  0  0  0
  8  7  1  0  0  0  0
  8 12  1  0  0  0  0
  9  8  2  0  0  0  0
 10  4  1  0  0  0  0
 11  5  1  0  0  0  0
 13 20  1  0  0  0  0
 14 13  1  0  0  0  0
 14  1  1  0  0  0  0
 15 14  2  0  0  0  0
 16 15  1  0  0  0  0
 17 18  2  0  0  0  0
 17 15  1  0  0  0  0
 18 19  1  0  0  0  0
 19 22  1  0  0  0  0
 19 13  2  0  0  0  0
 20 21  1  0  0  0  0
 22 23  1  0  0  0  0
M  END
>  <minimizedAffinity>
-4.8919487

$$$$

 OpenBabel03252504543D

 23 24  0  0  0  0  0  0  0  0999 V2000
   37.0680   28.8570   42.5310 C   0  0  0  0  0  0  0  0  0  0  0  0
   37.5740   28.6920   43.5070 H   0  0  0  0  0  0  0  0  0  0  0  0
   36.0330   29.1800   42.8080 H   0  0  0  0  0  0  0  0  0  0  0  0
   37.7910   25.3780   41.4580 C   0  0  0  0  0  0  0  0  0  0  0  0
   37.7590   26.5510   42.2390 C   0  0  0  0  0  0  0  0  0  0  0  0
   37.0900   27.6470   41.7080 C   0  0  0  0  0  0  0  0  0  0  0  0
   36.5070   27.5450   40.4870 N   0  0  0  0  0  0  0  0  0  0  0  0
   36.5620   26.3950   39.7700 C   0  0  0  0  0  0  0  0  0  0  0  0
   37.2040   25.3250   40.2650 N   0  0  0  0  0  0  0  0  0  0  0  0
   38.3250   24.5320   41.9030 H   0  0  0  0  0  0  0  0  0  0  0  0
   38.2440   26.5970   43.2240 H   0  0  0  0  0  0  0  0  0  0  0  0
   36.1010   26.3000   38.7950 H   0  0  0  0  0  0  0  0  0  0  0  0
   36.9530   30.9780   41.2710 C   0  0  0  0  0  0  0  0  0  0  0  0
   37.7460   29.9430   41.7600 C   0  0  0  0  0  0  0  0  0  0  0  0
   39.1070   29.9370   41.5300 C   0  0  0  0  0  0  0  0  0  0  0  0
   39.6540   29.0990   41.9430 H   0  0  0  0  0  0  0  0  0  0  0  0
   39.7010   30.9610   40.8130 C   0  0  0  0  0  3  0  0  0  0  0  0
   38.9070   31.9980   40.3230 C   0  0  0  0  0  3  0  0  0  0  0  0
   37.5370   32.0030   40.5540 C   0  0  0  0  0  0  0  0  0  0  0  0
   35.5660   31.0610   41.4590 O   0  0  0  0  0  0  0  0  0  0  0  0
   35.1650   30.2720   41.9570 H   0  0  0  0  0  0  0  0  0  0  0  0
   36.8750   33.0880   40.0130 O   0  0  0  0  0  0  0  0  0  0  0  0
   36.1570   32.9360   39.3120 H   0  0  0  0  0  0  0  0  0  0  0  0
  1  3  1  0  0  0  0
  1  2  1  0  0  0  0
  4 10  1  0  0  0  0
  4  5  1  0  0  0  0
  5 11  1  0  0  0  0
  6  5  2  0  0  0  0
  6  1  1  0  0  0  0
  7  6  1  0  0  0  0
  8  9  1  0  0  0  0
  8  7  2  0  0  0  0
  9  4  2  0  0  0  0
 12  8  1  0  0  0  0
 13 20  1  0  0  0  0
 13 14  1  0  0  0  0
 14  1  1  0  0  0  0
 15 14  2  0  0  0  0
 15 16  1  0  0  0  0
 17 15  1  0  0  0  0
 18 19  1  0  0  0  0
 18 17  2  0  0  0  0
 19 13  2  0  0  0  0
 20 21  1  0  0  0  0
 22 19  1  0  0  0  0
 23 22  1  0  0  0  0
M  END
>  <minimizedAffinity>
-4.83480263

$$$$

 OpenBabel03252504543D

 23 24  0  0  0  0  0  0  0  0999 V2000
   36.6200   31.3480   40.6380 C   0  0  0  0  0  0  0  0  0  0  0  0
   36.6740   32.4470   40.7940 H   0  0  0  0  0  0  0  0  0  0  0  0
   35.5900   31.0720   40.9800 H   0  0  0  0  0  0  0  0  0  0  0  0
   38.2810   28.8780   42.8550 C   0  0  0  0  0  0  0  0  0  0  0  0
   37.2770   29.5610   42.1380 C   0  0  0  0  0  0  0  0  0  0  0  0
   37.6750   30.6520   41.3750 C   0  0  0  0  0  0  0  0  0  0  0  0
   38.9840   31.0070   41.3510 N   0  0  0  0  0  0  0  0  0  0  0  0
   39.9180   30.3220   42.0570 C   0  0  0  0  0  0  0  0  0  0  0  0
   39.5540   29.2650   42.8010 N   0  0  0  0  0  0  0  0  0  0  0  0
   37.9370   28.0240   43.4460 H   0  0  0  0  0  0  0  0  0  0  0  0
   36.2260   29.2440   42.1810 H   0  0  0  0  0  0  0  0  0  0  0  0
   40.9650   30.5940   42.0470 H   0  0  0  0  0  0  0  0  0  0  0  0
   37.5580   31.8610   38.4110 C   0  0  0  0  0  0  0  0  0  0  0  0
   36.7790   31.0100   39.1910 C   0  0  0  0  0  0  0  0  0  0  0  0
   36.1830   29.8990   38.6300 C   0  0  0  0  0  0  0  0  0  0  0  0
   35.5950   29.2870   39.3010 H   0  0  0  0  0  0  0  0  0  0  0  0
   36.3530   29.6150   37.2860 C   0  0  0  0  0  3  0  0  0  0  0  0
   37.1330   30.4680   36.5040 C   0  0  0  0  0  3  0  0  0  0  0  0
   37.7330   31.5870   37.0690 C   0  0  0  0  0  0  0  0  0  0  0  0
   38.1980   33.0090   38.9000 O   0  0  0  0  0  0  0  0  0  0  0  0
   38.0160   33.2010   39.8810 H   0  0  0  0  0  0  0  0  0  0  0  0
   38.4750   32.3410   36.1820 O   0  0  0  0  0  0  0  0  0  0  0  0
   38.2120   33.3040   36.0040 H   0  0  0  0  0  0  0  0  0  0  0  0
  1  2  1  0  0  0  0
  1  3  1  0  0  0  0
  1  6  1  0  0  0  0
  4 10  1  0  0  0  0
  5 11  1  0  0  0  0
  5  4  2  0  0  0  0
  6  5  1  0  0  0  0
  7  6  2  0  0  0  0
  7  8  1  0  0  0  0
  8  9  2  0  0  0  0
  9  4  1  0  0  0  0
 12  8  1  0  0  0  0
 13 20  1  0  0  0  0
 13 14  1  0  0  0  0
 14  1  1  0  0  0  0
 15 14  2  0  0  0  0
 15 16  1  0  0  0  0
 17 15  1  0  0  0  0
 18 19  1  0  0  0  0
 18 17  2  0  0  0  0
 19 13  2  0  0  0  0
 20 21  1  0  0  0  0
 22 19  1  0  0  0  0
 23 22  1  0  0  0  0
M  END
>  <minimizedAffinity>
-4.8308754

$$$$

 OpenBabel03252504543D

 23 24  0  0  0  0  0  0  0  0999 V2000
   35.3960   29.0320   40.6610 C   0  0  0  0  0  0  0  0  0  0  0  0
   34.6100   28.6300   39.9860 H   0  0  0  0  0  0  0  0  0  0  0  0
   34.8410   29.3180   41.5910 H   0  0  0  0  0  0  0  0  0  0  0  0
   37.0140   31.1400   38.0700 C   0  0  0  0  0  0  0  0  0  0  0  0
   36.3310   30.0660   38.6790 C   0  0  0  0  0  0  0  0  0  0  0  0
   36.1040   30.1550   40.0470 C   0  0  0  0  0  0  0  0  0  0  0  0
   36.5380   31.2460   40.7250 N   0  0  0  0  0  0  0  0  0  0  0  0
   37.1910   32.2570   40.0990 C   0  0  0  0  0  0  0  0  0  0  0  0
   37.4210   32.1910   38.7780 N   0  0  0  0  0  0  0  0  0  0  0  0
   37.1770   31.0410   36.9920 H   0  0  0  0  0  0  0  0  0  0  0  0
   35.9950   29.1970   38.0960 H   0  0  0  0  0  0  0  0  0  0  0  0
   37.5420   33.1330   40.6280 H   0  0  0  0  0  0  0  0  0  0  0  0
   37.1000   28.0960   42.1860 C   0  0  0  0  0  0  0  0  0  0  0  0
   36.4070   27.9790   40.9830 C   0  0  0  0  0  0  0  0  0  0  0  0
   36.6590   26.9230   40.1320 C   0  0  0  0  0  0  0  0  0  0  0  0
   36.0800   26.9010   39.2180 H   0  0  0  0  0  0  0  0  0  0  0  0
   37.6020   25.9650   40.4640 C   0  0  0  0  0  3  0  0  0  0  0  0
   38.2960   26.0820   41.6680 C   0  0  0  0  0  3  0  0  0  0  0  0
   38.0420   27.1460   42.5250 C   0  0  0  0  0  0  0  0  0  0  0  0
   36.9050   29.1360   43.1070 O   0  0  0  0  0  0  0  0  0  0  0  0
   36.2330   29.8360   42.8080 H   0  0  0  0  0  0  0  0  0  0  0  0
   38.7990   27.1370   43.6800 O   0  0  0  0  0  0  0  0  0  0  0  0
   39.4320   27.9080   43.8670 H   0  0  0  0  0  0  0  0  0  0  0  0
  1 14  1  0  0  0  0
  1  3  1  0  0  0  0
  2  1  1  0  0  0  0
  4  5  2  0  0  0  0
  4  9  1  0  0  0  0
  5  6  1  0  0  0  0
  6  1  1  0  0  0  0
  6  7  2  0  0  0  0
  8 12  1  0  0  0  0
  8  7  1  0  0  0  0
  9  8  2  0  0  0  0
 10  4  1  0  0  0  0
 11  5  1  0  0  0  0
 13 19  1  0  0  0  0
 13 20  1  0  0  0  0
 14 13  2  0  0  0  0
 15 17  2  0  0  0  0
 15 14  1  0  0  0  0
 16 15  1  0  0  0  0
 17 18  1  0  0  0  0
 18 19  2  0  0  0  0
 19 22  1  0  0  0  0
 21 20  1  0  0  0  0
 22 23  1  0  0  0  0
M  END
>  <minimizedAffinity>
-4.82082939

$$$$

 OpenBabel03252504543D

 23 24  0  0  0  0  0  0  0  0999 V2000
   39.4060   29.3370   40.6310 C   0  0  0  0  0  0  0  0  0  0  0  0
   39.6110   28.7320   39.7210 H   0  0  0  0  0  0  0  0  0  0  0  0
   40.4200   29.5480   41.0560 H   0  0  0  0  0  0  0  0  0  0  0  0
   37.0460   26.7910   41.9450 C   0  0  0  0  0  0  0  0  0  0  0  0
   37.8930   27.4920   41.0620 C   0  0  0  0  0  0  0  0  0  0  0  0
   38.5310   28.6210   41.5610 C   0  0  0  0  0  0  0  0  0  0  0  0
   38.3190   28.9940   42.8480 N   0  0  0  0  0  0  0  0  0  0  0  0
   37.4950   28.2890   43.6630 C   0  0  0  0  0  0  0  0  0  0  0  0
   36.8680   27.1960   43.2000 N   0  0  0  0  0  0  0  0  0  0  0  0
   36.5580   25.9070   41.5240 H   0  0  0  0  0  0  0  0  0  0  0  0
   38.0410   27.1600   40.0250 H   0  0  0  0  0  0  0  0  0  0  0  0
   37.3160   28.5750   44.6910 H   0  0  0  0  0  0  0  0  0  0  0  0
   39.0480   31.7490   41.0280 C   0  0  0  0  0  0  0  0  0  0  0  0
   38.7320   30.6220   40.2730 C   0  0  0  0  0  0  0  0  0  0  0  0
   37.8270   30.7090   39.2350 C   0  0  0  0  0  0  0  0  0  0  0  0
   37.6350   29.7910   38.6950 H   0  0  0  0  0  0  0  0  0  0  0  0
   37.2230   31.9160   38.9300 C   0  0  0  0  0  3  0  0  0  0  0  0
   37.5400   33.0450   39.6870 C   0  0  0  0  0  3  0  0  0  0  0  0
   38.4510   32.9570   40.7320 C   0  0  0  0  0  0  0  0  0  0  0  0
   39.9550   31.7480   42.0980 O   0  0  0  0  0  0  0  0  0  0  0  0
   40.3460   30.8350   42.3120 H   0  0  0  0  0  0  0  0  0  0  0  0
   38.6700   34.1490   41.3950 O   0  0  0  0  0  0  0  0  0  0  0  0
   38.4440   34.2200   42.3820 H   0  0  0  0  0  0  0  0  0  0  0  0
  1  3  1  0  0  0  0
  1  6  1  0  0  0  0
  2  1  1  0  0  0  0
  4  9  1  0  0  0  0
  5  6  1  0  0  0  0
  5  4  2  0  0  0  0
  6  7  2  0  0  0  0
  7  8  1  0  0  0  0
  8 12  1  0  0  0  0
  9  8  2  0  0  0  0
 10  4  1  0  0  0  0
 11  5  1  0  0  0  0
 13 20  1  0  0  0  0
 14  1  1  0  0  0  0
 14 13  2  0  0  0  0
 15 14  1  0  0  0  0
 16 15  1  0  0  0  0
 17 15  2  0  0  0  0
 17 18  1  0  0  0  0
 18 19  2  0  0  0  0
 19 13  1  0  0  0  0
 19 22  1  0  0  0  0
 20 21  1  0  0  0  0
 22 23  1  0  0  0  0
M  END
>  <minimizedAffinity>
-4.74616289

$$$$

 OpenBabel03252504543D

 23 24  0  0  0  0  0  0  0  0999 V2000
   36.9280   31.3740   38.7720 C   0  0  0  0  0  0  0  0  0  0  0  0
   36.9680   31.2410   37.6700 H   0  0  0  0  0  0  0  0  0  0  0  0
   35.9030   31.7800   38.9640 H   0  0  0  0  0  0  0  0  0  0  0  0
   40.2570   32.9950   39.0350 C   0  0  0  0  0  0  0  0  0  0  0  0
   39.2180   32.1480   38.5950 C   0  0  0  0  0  0  0  0  0  0  0  0
   37.9930   32.2600   39.2420 C   0  0  0  0  0  0  0  0  0  0  0  0
   37.8500   33.1600   40.2470 N   0  0  0  0  0  0  0  0  0  0  0  0
   38.8770   33.9550   40.6390 C   0  0  0  0  0  0  0  0  0  0  0  0
   40.0680   33.8620   40.0270 N   0  0  0  0  0  0  0  0  0  0  0  0
   41.2090   32.8840   38.5070 H   0  0  0  0  0  0  0  0  0  0  0  0
   39.3720   31.4320   37.7760 H   0  0  0  0  0  0  0  0  0  0  0  0
   38.7760   34.6760   41.4390 H   0  0  0  0  0  0  0  0  0  0  0  0
   36.4910   29.9190   40.7210 C   0  0  0  0  0  0  0  0  0  0  0  0
   37.0890   30.0620   39.4710 C   0  0  0  0  0  0  0  0  0  0  0  0
   37.8000   29.0190   38.9130 C   0  0  0  0  0  0  0  0  0  0  0  0
   38.2330   29.2080   37.9400 H   0  0  0  0  0  0  0  0  0  0  0  0
   37.9270   27.8170   39.5880 C   0  0  0  0  0  3  0  0  0  0  0  0
   37.3280   27.6740   40.8400 C   0  0  0  0  0  3  0  0  0  0  0  0
   36.6120   28.7240   41.4010 C   0  0  0  0  0  0  0  0  0  0  0  0
   35.7520   30.9260   41.3580 O   0  0  0  0  0  0  0  0  0  0  0  0
   35.7150   31.8030   40.8460 H   0  0  0  0  0  0  0  0  0  0  0  0
   36.0740   28.4450   42.6420 O   0  0  0  0  0  0  0  0  0  0  0  0
   36.3630   28.9930   43.4460 H   0  0  0  0  0  0  0  0  0  0  0  0
  1  3  1  0  0  0  0
  1  6  1  0  0  0  0
  1 14  1  0  0  0  0
  2  1  1  0  0  0  0
  4  9  1  0  0  0  0
  5  4  2  0  0  0  0
  5  6  1  0  0  0  0
  6  7  2  0  0  0  0
  7  8  1  0  0  0  0
  8 12  1  0  0  0  0
  9  8  2  0  0  0  0
 10  4  1  0  0  0  0
 11  5  1  0  0  0  0
 13 20  1  0  0  0  0
 13 19  1  0  0  0  0
 14 13  2  0  0  0  0
 15 14  1  0  0  0  0
 15 17  2  0  0  0  0
 16 15  1  0  0  0  0
 17 18  1  0  0  0  0
 18 19  2  0  0  0  0
 19 22  1  0  0  0  0
 21 20  1  0  0  0  0
 22 23  1  0  0  0  0
M  END
>  <minimizedAffinity>
-4.66553307

$$$$

 OpenBabel03252504543D

 23 24  0  0  0  0  0  0  0  0999 V2000
   37.8900   32.6880   40.2660 C   0  0  0  0  0  0  0  0  0  0  0  0
   36.9510   32.6140   39.6750 H   0  0  0  0  0  0  0  0  0  0  0  0
   37.7340   33.5830   40.9200 H   0  0  0  0  0  0  0  0  0  0  0  0
   40.2360   32.0460   37.4630 C   0  0  0  0  0  0  0  0  0  0  0  0
   39.1150   31.9430   38.3110 C   0  0  0  0  0  0  0  0  0  0  0  0
   39.0600   32.8090   39.3960 C   0  0  0  0  0  0  0  0  0  0  0  0
   40.0650   33.6990   39.5900 N   0  0  0  0  0  0  0  0  0  0  0  0
   41.1270   33.7640   38.7480 C   0  0  0  0  0  0  0  0  0  0  0  0
   41.1990   32.9360   37.6940 N   0  0  0  0  0  0  0  0  0  0  0  0
   40.2500   31.3510   36.6180 H   0  0  0  0  0  0  0  0  0  0  0  0
   38.3190   31.2090   38.1220 H   0  0  0  0  0  0  0  0  0  0  0  0
   41.9350   34.4690   38.8910 H   0  0  0  0  0  0  0  0  0  0  0  0
   36.9870   30.6200   41.2740 C   0  0  0  0  0  0  0  0  0  0  0  0
   38.0790   31.4710   41.1140 C   0  0  0  0  0  0  0  0  0  0  0  0
   39.2830   31.1840   41.7220 C   0  0  0  0  0  0  0  0  0  0  0  0
   40.0830   31.8920   41.5490 H   0  0  0  0  0  0  0  0  0  0  0  0
   39.4230   30.0470   42.4990 C   0  0  0  0  0  3  0  0  0  0  0  0
   38.3290   29.1950   42.6610 C   0  0  0  0  0  3  0  0  0  0  0  0
   37.1170   29.4840   42.0470 C   0  0  0  0  0  0  0  0  0  0  0  0
   35.7300   30.8370   40.6910 O   0  0  0  0  0  0  0  0  0  0  0  0
   35.6600   31.7010   40.1620 H   0  0  0  0  0  0  0  0  0  0  0  0
   36.1230   28.5580   42.2910 O   0  0  0  0  0  0  0  0  0  0  0  0
   35.2750   28.8480   42.7670 H   0  0  0  0  0  0  0  0  0  0  0  0
  1  3  1  0  0  0  0
  1 14  1  0  0  0  0
  2  1  1  0  0  0  0
  4  9  2  0  0  0  0
  4  5  1  0  0  0  0
  5  6  2  0  0  0  0
  6  7  1  0  0  0  0
  6  1  1  0  0  0  0
  8 12  1  0  0  0  0
  8  7  2  0  0  0  0
  9  8  1  0  0  0  0
 10  4  1  0  0  0  0
 11  5  1  0  0  0  0
 13 19  1  0  0  0  0
 14 13  2  0  0  0  0
 14 15  1  0  0  0  0
 15 17  2  0  0  0  0
 16 15  1  0  0  0  0
 17 18  1  0  0  0  0
 19 22  1  0  0  0  0
 19 18  2  0  0  0  0
 20 13  1  0  0  0  0
 21 20  1  0  0  0  0
 22 23  1  0  0  0  0
M  END
>  <minimizedAffinity>
-4.65869713

$$$$

 OpenBabel03252504543D

 23 24  0  0  0  0  0  0  0  0999 V2000
   36.1030   30.5920   40.9060 C   0  0  0  0  0  0  0  0  0  0  0  0
   35.9460   31.5340   41.4740 H   0  0  0  0  0  0  0  0  0  0  0  0
   35.0760   30.2980   40.5700 H   0  0  0  0  0  0  0  0  0  0  0  0
   36.7530   27.3290   42.5510 C   0  0  0  0  0  0  0  0  0  0  0  0
   36.1420   28.3230   41.7600 C   0  0  0  0  0  0  0  0  0  0  0  0
   36.7510   29.5720   41.7310 C   0  0  0  0  0  0  0  0  0  0  0  0
   37.8840   29.7780   42.4490 N   0  0  0  0  0  0  0  0  0  0  0  0
   38.4380   28.7920   43.1970 C   0  0  0  0  0  0  0  0  0  0  0  0
   37.8650   27.5790   43.2390 N   0  0  0  0  0  0  0  0  0  0  0  0
   36.2500   26.3570   42.5530 H   0  0  0  0  0  0  0  0  0  0  0  0
   35.2240   28.1190   41.1920 H   0  0  0  0  0  0  0  0  0  0  0  0
   39.3410   28.9420   43.7750 H   0  0  0  0  0  0  0  0  0  0  0  0
   37.8250   31.9330   39.7480 C   0  0  0  0  0  0  0  0  0  0  0  0
   36.9740   30.8310   39.7140 C   0  0  0  0  0  0  0  0  0  0  0  0
   36.9500   30.0010   38.6130 C   0  0  0  0  0  0  0  0  0  0  0  0
   36.2630   29.1660   38.6630 H   0  0  0  0  0  0  0  0  0  0  0  0
   37.7710   30.2520   37.5270 C   0  0  0  0  0  3  0  0  0  0  0  0
   38.6230   31.3560   37.5610 C   0  0  0  0  0  3  0  0  0  0  0  0
   38.6480   32.1920   38.6700 C   0  0  0  0  0  0  0  0  0  0  0  0
   37.9120   32.8260   40.8260 O   0  0  0  0  0  0  0  0  0  0  0  0
   37.2660   32.6270   41.5840 H   0  0  0  0  0  0  0  0  0  0  0  0
   39.5360   33.2440   38.5690 O   0  0  0  0  0  0  0  0  0  0  0  0
   39.1870   34.1960   38.5970 H   0  0  0  0  0  0  0  0  0  0  0  0
  1  2  1  0  0  0  0
  1  6  1  0  0  0  0
  3  1  1  0  0  0  0
  4 10  1  0  0  0  0
  4  9  1  0  0  0  0
  5  4  2  0  0  0  0
  6  5  1  0  0  0  0
  6  7  2  0  0  0  0
  7  8  1  0  0  0  0
  8  9  2  0  0  0  0
  8 12  1  0  0  0  0
 11  5  1  0  0  0  0
 13 20  1  0  0  0  0
 14 13  1  0  0  0  0
 14  1  1  0  0  0  0
 15 16  1  0  0  0  0
 15 14  2  0  0  0  0
 17 18  2  0  0  0  0
 17 15  1  0  0  0  0
 18 19  1  0  0  0  0
 19 13  2  0  0  0  0
 20 21  1  0  0  0  0
 22 23  1  0  0  0  0
 22 19  1  0  0  0  0
M  END
>  <minimizedAffinity>
-4.59229231

$$$$
