
 OpenBabel03252500513D

 37 39  0  0  0  0  0  0  0  0999 V2000
   44.9510   35.0110   42.2750 C   0  0  0  0  0  0  0  0  0  0  0  0
   45.5790   34.6830   41.2480 O   0  0  0  0  0  0  0  0  0  0  0  0
   44.9280   34.9290   44.7140 C   0  0  0  0  0  0  0  0  0  0  0  0
   45.2650   34.3360   43.5230 C   0  0  0  0  0  0  0  0  0  0  0  0
   45.9110   33.0790   43.4900 C   0  0  0  0  0  0  0  0  0  0  0  0
   46.1740   32.5030   44.7090 N   0  0  0  0  0  0  0  0  0  0  0  0
   45.8440   33.0870   45.8560 C   0  0  0  0  0  0  0  0  0  0  0  0
   45.2270   34.2880   45.8560 N   0  0  0  0  0  0  0  0  0  0  0  0
   44.4420   35.8700   44.8130 H   0  0  0  0  0  0  0  0  0  0  0  0
   46.1830   32.5970   42.5700 H   0  0  0  0  0  0  0  0  0  0  0  0
   46.1410   32.4430   47.1260 C   0  0  0  0  0  0  0  0  0  0  0  0
   47.4050   32.1060   47.4990 C   0  0  0  0  0  0  0  0  0  0  0  0
   47.7010   31.5010   48.6900 C   0  0  0  0  0  0  0  0  0  0  0  0
   46.6640   31.2350   49.5150 N   0  0  0  0  0  0  0  0  0  0  0  0
   45.4280   31.5650   49.1450 C   0  0  0  0  0  0  0  0  0  0  0  0
   45.1110   32.1580   47.9870 N   0  0  0  0  0  0  0  0  0  0  0  0
   48.2370   32.3180   46.8410 H   0  0  0  0  0  0  0  0  0  0  0  0
   48.6990   31.2280   49.0000 H   0  0  0  0  0  0  0  0  0  0  0  0
   44.5800   31.3590   49.7950 H   0  0  0  0  0  0  0  0  0  0  0  0
   44.0650   35.9910   41.9360 O   0  0  0  0  0  0  0  0  0  0  0  0
   43.0370   35.8230   41.0460 C   0  0  0  0  0  0  0  0  0  0  0  0
   42.4780   36.8100   41.0320 H   0  0  0  0  0  0  0  0  0  0  0  0
   43.2910   35.6820   39.9780 H   0  0  0  0  0  0  0  0  0  0  0  0
   41.9660   34.8400   41.5040 C   0  0  0  0  0  0  0  0  0  0  0  0
   41.2300   35.3090   42.1610 H   0  0  0  0  0  0  0  0  0  0  0  0
   42.4810   33.9660   41.9220 H   0  0  0  0  0  0  0  0  0  0  0  0
   41.7690   33.4140   39.4280 C   0  0  0  0  0  0  0  0  0  0  0  0
   41.2540   34.3920   40.2650 C   0  0  0  0  0  0  0  0  0  0  0  0
   40.0300   34.9510   39.9090 C   0  0  0  0  0  0  0  0  0  0  0  0
   39.6500   35.7130   40.5800 H   0  0  0  0  0  0  0  0  0  0  0  0
   39.3150   34.5840   38.7780 C   0  0  0  0  0  3  0  0  0  0  0  0
   39.8620   33.6030   37.9650 C   0  0  0  0  0  3  0  0  0  0  0  0
   41.0630   33.0350   38.2880 C   0  0  0  0  0  0  0  0  0  0  0  0
   42.9780   32.8230   39.7290 O   0  0  0  0  0  0  0  0  0  0  0  0
   43.5410   32.3290   39.0440 H   0  0  0  0  0  0  0  0  0  0  0  0
   41.5370   32.0620   37.4190 O   0  0  0  0  0  0  0  0  0  0  0  0
   40.9080   31.4310   36.9190 H   0  0  0  0  0  0  0  0  0  0  0  0
  1  4  1  0  0  0  0
  2  1  2  0  0  0  0
  3  9  1  0  0  0  0
  3  8  1  0  0  0  0
  4  3  2  0  0  0  0
  5  4  1  0  0  0  0
  5  6  2  0  0  0  0
  6  7  1  0  0  0  0
  7  8  2  0  0  0  0
  7 11  1  0  0  0  0
 10  5  1  0  0  0  0
 11 12  2  0  0  0  0
 11 16  1  0  0  0  0
 12 13  1  0  0  0  0
 13 18  1  0  0  0  0
 13 14  2  0  0  0  0
 15 14  1  0  0  0  0
 15 19  1  0  0  0  0
 16 15  2  0  0  0  0
 17 12  1  0  0  0  0
 20  1  1  0  0  0  0
 21 24  1  0  0  0  0
 21 20  1  0  0  0  0
 22 21  1  0  0  0  0
 23 21  1  0  0  0  0
 24 26  1  0  0  0  0
 24 25  1  0  0  0  0
 27 34  1  0  0  0  0
 27 28  1  0  0  0  0
 28 24  1  0  0  0  0
 29 28  2  0  0  0  0
 29 30  1  0  0  0  0
 31 29  1  0  0  0  0
 32 33  1  0  0  0  0
 32 31  2  0  0  0  0
 33 27  2  0  0  0  0
 35 34  1  0  0  0  0
 36 33  1  0  0  0  0
 37 36  1  0  0  0  0
M  END
>  <minimizedAffinity>
-5.84260178

>  <minimizedRMSD>
1.05967987

$$$$
