
 OpenBabel03242518363D

 37 40  0  0  1  0  0  0  0  0999 V2000
   45.7060   34.9050   42.4570 C   0  0  0  0  0  0  0  0  0  0  0  0
   47.0580   35.0770   42.1660 C   0  0  0  0  0  0  0  0  0  0  0  0
   47.8060   34.3270   43.0620 C   0  0  0  0  0  0  0  0  0  0  0  0
   46.8610   33.7320   43.8570 C   0  0  0  0  0  0  0  0  0  0  0  0
   45.6430   34.0730   43.5000 O   0  0  0  0  0  0  0  0  0  0  0  0
   47.3700   35.7240   41.3410 H   0  0  0  0  0  0  0  0  0  0  0  0
   48.8850   34.2780   43.0620 H   0  0  0  0  0  0  0  0  0  0  0  0
   47.1700   32.8190   44.9710 C   0  0  2  0  0  0  0  0  0  0  0  0
   47.3830   31.3820   44.7000 C   0  0  0  0  0  0  0  0  0  0  0  0
   46.0560   31.7880   45.2590 C   0  0  1  0  0  0  0  0  0  0  0  0
   47.5520   33.3550   45.8650 H   0  0  0  0  0  0  0  0  0  0  0  0
   47.4020   31.0200   43.6660 H   0  0  0  0  0  0  0  0  0  0  0  0
   48.1340   30.8610   45.3570 H   0  0  0  0  0  0  0  0  0  0  0  0
   45.1820   31.7660   44.5690 H   0  0  0  0  0  0  0  0  0  0  0  0
   45.4920   30.2760   47.1220 C   0  0  0  0  0  0  0  0  0  0  0  0
   45.8330   31.5460   46.7050 C   0  0  0  0  0  0  0  0  0  0  0  0
   45.9460   32.5200   47.6760 C   0  0  0  0  0  0  0  0  0  0  0  0
   46.2120   33.5250   47.3790 H   0  0  0  0  0  0  0  0  0  0  0  0
   45.7230   32.2190   49.0030 C   0  0  0  0  0  0  0  0  0  0  0  0
   45.3830   30.9540   49.4310 C   0  0  0  0  0  0  0  0  0  0  0  0
   45.2670   29.9710   48.4680 C   0  0  0  0  0  0  0  0  0  0  0  0
   45.3720   29.2740   46.1620 O   0  0  0  0  0  0  0  0  0  0  0  0
   44.9920   28.3830   46.4240 H   0  0  0  0  0  0  0  0  0  0  0  0
   44.9240   28.6790   48.8610 O   0  0  0  0  0  0  0  0  0  0  0  0
   43.9180   28.5270   48.9670 H   0  0  0  0  0  0  0  0  0  0  0  0
   44.5530   35.4390   41.8510 O   0  0  0  0  0  0  0  0  0  0  0  0
   43.9250   34.7380   40.8030 C   0  0  0  0  0  0  0  0  0  0  0  0
   44.6270   33.8530   40.2420 O   0  0  0  0  0  0  0  0  0  0  0  0
   42.5860   35.1070   40.5020 C   0  0  0  0  0  0  0  0  0  0  0  0
   42.2360   34.9800   39.1860 C   0  0  0  0  0  0  0  0  0  0  0  0
   40.9370   35.3250   38.8190 C   0  0  0  0  0  0  0  0  0  0  0  0
   40.1000   35.7630   39.7750 N   0  0  0  0  0  0  0  0  0  0  0  0
   40.4730   35.8760   41.0520 C   0  0  0  0  0  0  0  0  0  0  0  0
   41.7290   35.5420   41.4040 N   0  0  0  0  0  0  0  0  0  0  0  0
   42.8490   34.6340   38.3460 H   0  0  0  0  0  0  0  0  0  0  0  0
   40.5940   35.2480   37.7910 H   0  0  0  0  0  0  0  0  0  0  0  0
   39.7190   36.2410   41.7530 H   0  0  0  0  0  0  0  0  0  0  0  0
  1  5  1  0  0  0  0
  2  1  2  0  0  0  0
  2  3  1  0  0  0  0
  3  7  1  0  0  0  0
  3  4  2  0  0  0  0
  4  8  1  0  0  0  0
  5  4  1  0  0  0  0
  6  2  1  0  0  0  0
  8 10  1  0  0  0  0
  8 11  1  1  0  0  0
  9  8  1  0  0  0  0
  9 10  1  0  0  0  0
  9 13  1  0  0  0  0
 10 14  1  6  0  0  0
 10 16  1  0  0  0  0
 12  9  1  0  0  0  0
 15 21  1  0  0  0  0
 16 15  2  0  0  0  0
 16 17  1  0  0  0  0
 17 19  2  0  0  0  0
 18 17  1  0  0  0  0
 19 20  1  0  0  0  0
 21 24  1  0  0  0  0
 21 20  2  0  0  0  0
 22 23  1  0  0  0  0
 22 15  1  0  0  0  0
 24 25  1  0  0  0  0
 26  1  1  0  0  0  0
 27 26  1  0  0  0  0
 28 27  2  0  0  0  0
 29 27  1  0  0  0  0
 29 34  1  0  0  0  0
 30 29  2  0  0  0  0
 31 30  1  0  0  0  0
 31 32  2  0  0  0  0
 32 33  1  0  0  0  0
 33 34  2  0  0  0  0
 33 37  1  0  0  0  0
 35 30  1  0  0  0  0
 36 31  1  0  0  0  0
M  END
>  <minimizedAffinity>
-6.42314434

>  <minimizedRMSD>
9.65868092

$$$$
