
 OpenBabel03252508173D

 49 53  0  0  1  0  0  0  0  0999 V2000
   46.8750   31.5840   48.3210 C   0  0  1  0  0  0  0  0  0  0  0  0
   46.4010   30.5460   49.2780 C   0  0  0  0  0  0  0  0  0  0  0  0
   47.6940   31.1910   49.4810 C   0  0  1  0  0  0  0  0  0  0  0  0
   46.1510   32.4520   48.3350 H   0  0  0  0  0  0  0  0  0  0  0  0
   45.5870   30.7360   50.0080 H   0  0  0  0  0  0  0  0  0  0  0  0
   46.3740   29.4800   48.9400 H   0  0  0  0  0  0  0  0  0  0  0  0
   47.7480   31.9330   50.3060 H   0  0  0  0  0  0  0  0  0  0  0  0
   48.9890   30.4890   49.2240 C   0  0  2  0  0  0  0  0  0  0  0  0
   49.7370   30.0670   50.5140 C   0  0  0  0  0  0  0  0  0  0  0  0
   50.2690   31.1700   49.7000 C   0  0  1  0  0  0  0  0  0  0  0  0
   49.1090   29.7220   48.4510 H   0  0  0  0  0  0  0  0  0  0  0  0
   49.2560   30.3470   51.4940 H   0  0  0  0  0  0  0  0  0  0  0  0
   50.1940   29.0820   50.5800 H   0  0  0  0  0  0  0  0  0  0  0  0
   50.1220   32.2010   50.0840 H   0  0  0  0  0  0  0  0  0  0  0  0
   52.5210   31.8800   48.8170 C   0  0  0  0  0  0  0  0  0  0  0  0
   51.5080   30.9420   48.8860 C   0  0  0  0  0  0  0  0  0  0  0  0
   51.6640   29.7670   48.1780 C   0  0  0  0  0  0  0  0  0  0  0  0
   50.9290   28.9840   48.1740 H   0  0  0  0  0  0  0  0  0  0  0  0
   52.7910   29.4970   47.4050 C   0  0  0  0  0  0  0  0  0  0  0  0
   53.7930   30.4550   47.3510 C   0  0  0  0  0  0  0  0  0  0  0  0
   53.6550   31.6510   48.0610 C   0  0  0  0  0  0  0  0  0  0  0  0
   52.3540   33.0690   49.5400 O   0  0  0  0  0  0  0  0  0  0  0  0
   52.4460   32.9850   50.5610 H   0  0  0  0  0  0  0  0  0  0  0  0
   54.6770   32.6110   47.9980 O   0  0  0  0  0  0  0  0  0  0  0  0
   55.4650   32.4090   48.6340 H   0  0  0  0  0  0  0  0  0  0  0  0
   47.2040   31.0840   46.9640 C   0  0  0  0  0  0  0  0  0  0  0  0
   46.4320   30.2930   46.7270 H   0  0  0  0  0  0  0  0  0  0  0  0
   48.1570   30.6320   46.7830 H   0  0  0  0  0  0  0  0  0  0  0  0
   46.0900   33.0320   46.2390 C   0  0  0  0  0  0  0  0  0  0  0  0
   46.9320   32.1430   45.9190 C   0  0  0  0  0  0  0  0  0  0  0  0
   44.5300   35.8920   44.5150 C   0  0  0  0  0  0  0  0  0  0  0  0
   45.1810   35.9070   43.2850 C   0  0  0  0  0  0  0  0  0  0  0  0
   46.1170   34.9500   43.0900 C   0  0  0  0  0  0  0  0  0  0  0  0
   46.3850   34.0360   44.0660 N   0  0  0  0  0  0  0  0  0  0  0  0
   45.7400   34.0470   45.2450 C   0  0  0  0  0  0  0  0  0  0  0  0
   44.8220   34.9830   45.4390 N   0  0  0  0  0  0  0  0  0  0  0  0
   43.7730   36.6580   44.6850 H   0  0  0  0  0  0  0  0  0  0  0  0
   44.9610   36.6330   42.5220 H   0  0  0  0  0  0  0  0  0  0  0  0
   46.8790   34.8370   41.8500 C   0  0  0  0  0  0  0  0  0  0  0  0
   48.0810   35.4360   41.6120 C   0  0  0  0  0  0  0  0  0  0  0  0
   48.7850   35.3160   40.4300 C   0  0  0  0  0  0  0  0  0  0  0  0
   48.2740   34.5490   39.4030 C   0  0  0  0  0  0  0  0  0  0  0  0
   47.0710   33.9200   39.5790 C   0  0  0  0  0  0  0  0  0  0  0  0
   46.4130   34.0780   40.7840 C   0  0  0  0  0  0  0  0  0  0  0  0
   48.5170   36.0530   42.4020 H   0  0  0  0  0  0  0  0  0  0  0  0
   49.7330   35.8100   40.2890 H   0  0  0  0  0  0  0  0  0  0  0  0
   48.7610   34.4030   38.4470 H   0  0  0  0  0  0  0  0  0  0  0  0
   46.6480   33.3170   38.8000 H   0  0  0  0  0  0  0  0  0  0  0  0
   45.4510   33.5500   40.8710 H   0  0  0  0  0  0  0  0  0  0  0  0
  1  4  1  1  0  0  0
  1  2  1  0  0  0  0
  1  3  1  0  0  0  0
  2  3  1  0  0  0  0
  2  5  1  0  0  0  0
  3  7  1  1  0  0  0
  6  2  1  0  0  0  0
  8 11  1  6  0  0  0
  8  3  1  0  0  0  0
  8 10  1  0  0  0  0
  8  9  1  0  0  0  0
  9 13  1  0  0  0  0
  9 12  1  0  0  0  0
 10 14  1  1  0  0  0
 10  9  1  0  0  0  0
 15 16  1  0  0  0  0
 15 22  1  0  0  0  0
 16 10  1  0  0  0  0
 17 16  2  0  0  0  0
 18 17  1  0  0  0  0
 19 17  1  0  0  0  0
 20 19  2  0  0  0  0
 20 21  1  0  0  0  0
 21 15  2  0  0  0  0
 22 23  1  0  0  0  0
 24 21  1  0  0  0  0
 24 25  1  0  0  0  0
 26  1  1  0  0  0  0
 27 26  1  0  0  0  0
 28 26  1  0  0  0  0
 30 29  2  0  0  0  0
 30 26  1  0  0  0  0
 31 37  1  0  0  0  0
 31 36  1  0  0  0  0
 32 31  2  0  0  0  0
 33 32  1  0  0  0  0
 33 34  2  0  0  0  0
 34 35  1  0  0  0  0
 35 36  2  0  0  0  0
 35 29  1  0  0  0  0
 38 32  1  0  0  0  0
 39 33  1  0  0  0  0
 40 39  1  0  0  0  0
 40 45  1  0  0  0  0
 41 40  2  0  0  0  0
 42 43  2  0  0  0  0
 42 41  1  0  0  0  0
 43 44  1  0  0  0  0
 44 49  1  0  0  0  0
 44 39  2  0  0  0  0
 46 41  1  0  0  0  0
 47 42  1  0  0  0  0
 48 43  1  0  0  0  0
M  END
>  <minimizedAffinity>
-7.16417313

>  <minimizedRMSD>
0.839825571

$$$$
