
 OpenBabel03242520593D

 43 45  0  0  0  0  0  0  0  0999 V2000
   39.1580   29.3310   40.0630 C   0  0  0  0  0  0  0  0  0  0  0  0
   38.9700   29.3340   41.4730 C   0  0  0  0  0  0  0  0  0  0  0  0
   37.6870   29.2200   41.9860 C   0  0  0  0  0  0  0  0  0  0  0  0
   36.6840   29.1150   41.1140 N   0  0  0  0  0  0  0  0  0  0  0  0
   36.8620   29.1140   39.7780 C   0  0  0  0  0  0  0  0  0  0  0  0
   38.0940   29.2210   39.2510 N   0  0  0  0  0  0  0  0  0  0  0  0
   40.1040   29.4120   39.5500 H   0  0  0  0  0  0  0  0  0  0  0  0
   40.6150   30.8120   42.1880 C   0  0  0  0  0  0  0  0  0  0  0  0
   40.2470   29.4590   42.1510 C   0  0  0  0  0  0  0  0  0  0  0  0
   41.1150   28.5440   42.7110 C   0  0  0  0  0  0  0  0  0  0  0  0
   40.7030   27.5450   42.6110 H   0  0  0  0  0  0  0  0  0  0  0  0
   42.2980   28.9570   43.2820 C   0  0  0  0  0  3  0  0  0  0  0  0
   42.6530   30.2880   43.3140 C   0  0  0  0  0  3  0  0  0  0  0  0
   41.8130   31.2320   42.7660 C   0  0  0  0  0  0  0  0  0  0  0  0
   39.8860   31.9040   41.6810 O   0  0  0  0  0  0  0  0  0  0  0  0
   39.4850   31.8600   40.7470 H   0  0  0  0  0  0  0  0  0  0  0  0
   42.2470   32.5260   42.8440 O   0  0  0  0  0  0  0  0  0  0  0  0
   41.7380   33.2460   42.3180 H   0  0  0  0  0  0  0  0  0  0  0  0
   35.7150   29.0070   38.8760 C   0  0  0  0  0  3  0  0  0  0  0  0
   35.3590   27.8690   38.3270 C   0  0  0  0  0  3  0  0  0  0  0  0
   34.1920   27.7960   37.4170 C   0  0  0  0  0  0  0  0  0  0  0  0
   34.5770   27.3910   36.4850 H   0  0  0  0  0  0  0  0  0  0  0  0
   33.5040   26.9970   37.8240 H   0  0  0  0  0  0  0  0  0  0  0  0
   32.2720   28.8860   36.6470 C   0  0  0  0  0  0  0  0  0  0  0  0
   31.6830   27.9600   36.0620 O   0  0  0  0  0  0  0  0  0  0  0  0
   33.4660   28.9920   37.3650 N   0  0  0  0  0  0  0  0  0  0  0  0
   33.7200   29.8900   37.7850 H   0  0  0  0  0  0  0  0  0  0  0  0
   30.5100   30.0290   38.8670 Cl  0  0  0  0  0  0  0  0  0  0  0  0
   30.4610   30.6320   37.2380 C   0  0  0  0  0  0  0  0  0  0  0  0
   31.3330   29.9840   36.3920 C   0  0  0  0  0  0  0  0  0  0  0  0
   31.4120   30.3530   35.0450 C   0  0  0  0  0  0  0  0  0  0  0  0
   30.6060   31.3820   34.5530 C   0  0  0  0  0  0  0  0  0  0  0  0
   29.7390   32.0180   35.4200 C   0  0  0  0  0  0  0  0  0  0  0  0
   28.7040   33.3130   34.8660 Cl  0  0  0  0  0  0  0  0  0  0  0  0
   29.6700   31.6440   36.7480 C   0  0  0  0  0  0  0  0  0  0  0  0
   32.0410   29.9330   34.2930 H   0  0  0  0  0  0  0  0  0  0  0  0
   30.6180   31.7120   33.5370 H   0  0  0  0  0  0  0  0  0  0  0  0
   29.0210   32.0890   37.4890 H   0  0  0  0  0  0  0  0  0  0  0  0
   37.4670   29.2170   43.3190 O   0  0  0  0  0  0  0  0  0  0  0  0
   37.2820   27.9310   43.9500 C   0  0  0  0  0  0  0  0  0  0  0  0
   38.5230   27.3870   44.2550 F   0  0  0  0  0  0  0  0  0  0  0  0
   36.6150   28.2010   45.1470 F   0  0  0  0  0  0  0  0  0  0  0  0
   36.5000   27.0630   43.1950 F   0  0  0  0  0  0  0  0  0  0  0  0
  1  2  1  0  0  0  0
  2  3  2  0  0  0  0
  2  9  1  0  0  0  0
  3 39  1  0  0  0  0
  4  3  1  0  0  0  0
  5  4  2  0  0  0  0
  6  5  1  0  0  0  0
  6  1  2  0  0  0  0
  7  1  1  0  0  0  0
  8 14  1  0  0  0  0
  9  8  2  0  0  0  0
  9 10  1  0  0  0  0
 10 12  2  0  0  0  0
 11 10  1  0  0  0  0
 12 13  1  0  0  0  0
 14 17  1  0  0  0  0
 14 13  2  0  0  0  0
 15  8  1  0  0  0  0
 16 15  1  0  0  0  0
 18 17  1  0  0  0  0
 19  5  1  0  0  0  0
 20 19  2  0  0  0  0
 21 23  1  0  0  0  0
 21 20  1  0  0  0  0
 22 21  1  0  0  0  0
 24 26  1  0  0  0  0
 25 24  2  0  0  0  0
 26 21  1  0  0  0  0
 26 27  1  0  0  0  0
 29 28  1  0  0  0  0
 30 24  1  0  0  0  0
 30 29  2  0  0  0  0
 31 30  1  0  0  0  0
 32 31  2  0  0  0  0
 32 33  1  0  0  0  0
 33 35  2  0  0  0  0
 34 33  1  0  0  0  0
 35 29  1  0  0  0  0
 35 38  1  0  0  0  0
 36 31  1  0  0  0  0
 37 32  1  0  0  0  0
 39 40  1  0  0  0  0
 40 41  1  0  0  0  0
 40 42  1  0  0  0  0
 43 40  1  0  0  0  0
M  END
>  <minimizedAffinity>
-7.08380938

$$$$

 OpenBabel03242520593D

 43 45  0  0  0  0  0  0  0  0999 V2000
   36.5320   30.2120   38.1420 C   0  0  0  0  0  0  0  0  0  0  0  0
   36.0580   29.2260   39.0510 C   0  0  0  0  0  0  0  0  0  0  0  0
   36.1670   29.4540   40.4150 C   0  0  0  0  0  0  0  0  0  0  0  0
   36.7210   30.6030   40.8030 N   0  0  0  0  0  0  0  0  0  0  0  0
   37.1710   31.5360   39.9410 C   0  0  0  0  0  0  0  0  0  0  0  0
   37.0770   31.3450   38.6140 N   0  0  0  0  0  0  0  0  0  0  0  0
   36.5000   30.1480   37.0650 H   0  0  0  0  0  0  0  0  0  0  0  0
   36.5090   27.1230   38.1710 C   0  0  0  0  0  0  0  0  0  0  0  0
   35.5100   28.0940   38.3270 C   0  0  0  0  0  0  0  0  0  0  0  0
   34.2690   27.8300   37.7840 C   0  0  0  0  0  0  0  0  0  0  0  0
   33.6020   28.6620   37.9810 H   0  0  0  0  0  0  0  0  0  0  0  0
   34.0330   26.6510   37.1140 C   0  0  0  0  0  3  0  0  0  0  0  0
   35.0200   25.7010   36.9640 C   0  0  0  0  0  3  0  0  0  0  0  0
   36.2710   25.9280   37.4920 C   0  0  0  0  0  0  0  0  0  0  0  0
   37.8340   27.1850   38.6410 O   0  0  0  0  0  0  0  0  0  0  0  0
   38.3870   28.0260   38.4970 H   0  0  0  0  0  0  0  0  0  0  0  0
   37.1860   24.9310   37.2950 O   0  0  0  0  0  0  0  0  0  0  0  0
   38.1690   25.1130   37.5310 H   0  0  0  0  0  0  0  0  0  0  0  0
   37.7800   32.7710   40.4360 C   0  0  0  0  0  3  0  0  0  0  0  0
   37.8040   33.8740   39.7230 C   0  0  0  0  0  3  0  0  0  0  0  0
   38.4310   35.1080   40.2540 C   0  0  0  0  0  0  0  0  0  0  0  0
   38.5490   35.7630   39.3950 H   0  0  0  0  0  0  0  0  0  0  0  0
   37.6620   35.6140   40.9090 H   0  0  0  0  0  0  0  0  0  0  0  0
   40.7250   35.4410   40.5590 C   0  0  0  0  0  0  0  0  0  0  0  0
   40.9960   36.1750   39.5920 O   0  0  0  0  0  0  0  0  0  0  0  0
   39.5560   34.8500   41.0460 N   0  0  0  0  0  0  0  0  0  0  0  0
   39.5960   34.2950   41.9050 H   0  0  0  0  0  0  0  0  0  0  0  0
   42.6480   33.2310   39.6940 Cl  0  0  0  0  0  0  0  0  0  0  0  0
   43.0610   34.3970   40.9140 C   0  0  0  0  0  0  0  0  0  0  0  0
   42.0580   35.3080   41.1560 C   0  0  0  0  0  0  0  0  0  0  0  0
   42.2360   36.3120   42.1130 C   0  0  0  0  0  0  0  0  0  0  0  0
   43.4340   36.3950   42.8280 C   0  0  0  0  0  0  0  0  0  0  0  0
   44.4260   35.4700   42.5680 C   0  0  0  0  0  0  0  0  0  0  0  0
   45.9470   35.5190   43.4270 Cl  0  0  0  0  0  0  0  0  0  0  0  0
   44.2380   34.4830   41.6200 C   0  0  0  0  0  0  0  0  0  0  0  0
   41.5420   37.0730   42.3920 H   0  0  0  0  0  0  0  0  0  0  0  0
   43.6330   37.1360   43.5700 H   0  0  0  0  0  0  0  0  0  0  0  0
   44.9610   33.7230   41.3580 H   0  0  0  0  0  0  0  0  0  0  0  0
   35.7270   28.5430   41.3110 O   0  0  0  0  0  0  0  0  0  0  0  0
   36.7300   27.7940   42.0310 C   0  0  0  0  0  0  0  0  0  0  0  0
   36.4750   27.8780   43.3940 F   0  0  0  0  0  0  0  0  0  0  0  0
   36.5550   26.4670   41.6330 F   0  0  0  0  0  0  0  0  0  0  0  0
   38.0280   28.1820   41.7160 F   0  0  0  0  0  0  0  0  0  0  0  0
  1  6  2  0  0  0  0
  1  2  1  0  0  0  0
  2  3  2  0  0  0  0
  3  4  1  0  0  0  0
  3 39  1  0  0  0  0
  5 19  1  0  0  0  0
  5  4  2  0  0  0  0
  6  5  1  0  0  0  0
  7  1  1  0  0  0  0
  8  9  1  0  0  0  0
  8 15  1  0  0  0  0
  9  2  1  0  0  0  0
 10 11  1  0  0  0  0
 10  9  2  0  0  0  0
 12 10  1  0  0  0  0
 13 12  2  0  0  0  0
 13 14  1  0  0  0  0
 14  8  2  0  0  0  0
 16 15  1  0  0  0  0
 17 14  1  0  0  0  0
 17 18  1  0  0  0  0
 20 21  1  0  0  0  0
 20 19  2  0  0  0  0
 21 23  1  0  0  0  0
 21 26  1  0  0  0  0
 22 21  1  0  0  0  0
 24 26  1  0  0  0  0
 24 30  1  0  0  0  0
 25 24  2  0  0  0  0
 26 27  1  0  0  0  0
 28 29  1  0  0  0  0
 29 30  2  0  0  0  0
 29 35  1  0  0  0  0
 30 31  1  0  0  0  0
 31 36  1  0  0  0  0
 31 32  2  0  0  0  0
 32 37  1  0  0  0  0
 33 32  1  0  0  0  0
 33 34  1  0  0  0  0
 35 33  2  0  0  0  0
 38 35  1  0  0  0  0
 39 40  1  0  0  0  0
 40 41  1  0  0  0  0
 42 40  1  0  0  0  0
 43 40  1  0  0  0  0
M  END
>  <minimizedAffinity>
-6.99195051

$$$$

 OpenBabel03242520593D

 43 45  0  0  0  0  0  0  0  0999 V2000
   39.6780   31.8610   41.9530 C   0  0  0  0  0  0  0  0  0  0  0  0
   39.4440   32.1610   40.5830 C   0  0  0  0  0  0  0  0  0  0  0  0
   39.0190   31.1520   39.7310 C   0  0  0  0  0  0  0  0  0  0  0  0
   38.8530   29.9370   40.2540 N   0  0  0  0  0  0  0  0  0  0  0  0
   39.0750   29.6530   41.5520 C   0  0  0  0  0  0  0  0  0  0  0  0
   39.4860   30.6100   42.4020 N   0  0  0  0  0  0  0  0  0  0  0  0
   40.0070   32.5590   42.7080 H   0  0  0  0  0  0  0  0  0  0  0  0
   40.9050   33.6760   39.5970 C   0  0  0  0  0  0  0  0  0  0  0  0
   39.7100   33.5640   40.3210 C   0  0  0  0  0  0  0  0  0  0  0  0
   39.0500   34.7290   40.6540 C   0  0  0  0  0  0  0  0  0  0  0  0
   38.1480   34.4900   41.2080 H   0  0  0  0  0  0  0  0  0  0  0  0
   39.5580   35.9540   40.2820 C   0  0  0  0  0  3  0  0  0  0  0  0
   40.7340   36.0560   39.5700 C   0  0  0  0  0  3  0  0  0  0  0  0
   41.4210   34.9150   39.2200 C   0  0  0  0  0  0  0  0  0  0  0  0
   41.7330   32.6260   39.1570 O   0  0  0  0  0  0  0  0  0  0  0  0
   41.9880   31.8770   39.7950 H   0  0  0  0  0  0  0  0  0  0  0  0
   42.5760   35.1140   38.5150 O   0  0  0  0  0  0  0  0  0  0  0  0
   43.2020   34.3150   38.3640 H   0  0  0  0  0  0  0  0  0  0  0  0
   38.8850   28.2940   42.0580 C   0  0  0  0  0  3  0  0  0  0  0  0
   39.8250   27.6520   42.7130 C   0  0  0  0  0  3  0  0  0  0  0  0
   39.5990   26.2740   43.2100 C   0  0  0  0  0  0  0  0  0  0  0  0
   40.5630   25.7780   43.1330 H   0  0  0  0  0  0  0  0  0  0  0  0
   39.3950   26.3520   44.3190 H   0  0  0  0  0  0  0  0  0  0  0  0
   38.8000   24.9710   41.4420 C   0  0  0  0  0  0  0  0  0  0  0  0
   39.8460   24.7550   40.8040 O   0  0  0  0  0  0  0  0  0  0  0  0
   38.4910   25.6560   42.6190 N   0  0  0  0  0  0  0  0  0  0  0  0
   37.5240   25.6620   42.9580 H   0  0  0  0  0  0  0  0  0  0  0  0
   36.5660   26.4660   39.9890 Cl  0  0  0  0  0  0  0  0  0  0  0  0
   36.7700   24.7460   39.8580 C   0  0  0  0  0  0  0  0  0  0  0  0
   37.8350   24.2680   40.5880 C   0  0  0  0  0  0  0  0  0  0  0  0
   38.1320   22.9010   40.5880 C   0  0  0  0  0  0  0  0  0  0  0  0
   37.3480   22.0140   39.8460 C   0  0  0  0  0  0  0  0  0  0  0  0
   36.2840   22.5170   39.1220 C   0  0  0  0  0  0  0  0  0  0  0  0
   35.2650   21.4600   38.1740 Cl  0  0  0  0  0  0  0  0  0  0  0  0
   36.0020   23.8690   39.1300 C   0  0  0  0  0  0  0  0  0  0  0  0
   38.9230   22.4080   41.1070 H   0  0  0  0  0  0  0  0  0  0  0  0
   37.5200   20.9620   39.8030 H   0  0  0  0  0  0  0  0  0  0  0  0
   35.1910   24.3400   38.5920 H   0  0  0  0  0  0  0  0  0  0  0  0
   38.7850   31.3970   38.4230 O   0  0  0  0  0  0  0  0  0  0  0  0
   37.4210   31.6760   38.0420 C   0  0  0  0  0  0  0  0  0  0  0  0
   36.9910   32.8290   38.6880 F   0  0  0  0  0  0  0  0  0  0  0  0
   37.4660   31.9330   36.6710 F   0  0  0  0  0  0  0  0  0  0  0  0
   36.5640   30.6020   38.2630 F   0  0  0  0  0  0  0  0  0  0  0  0
  1  6  1  0  0  0  0
  1  7  1  0  0  0  0
  2  1  2  0  0  0  0
  3  4  2  0  0  0  0
  3  2  1  0  0  0  0
  4  5  1  0  0  0  0
  5 19  1  0  0  0  0
  5  6  2  0  0  0  0
  8  9  1  0  0  0  0
  9  2  1  0  0  0  0
  9 10  2  0  0  0  0
 10 11  1  0  0  0  0
 12 10  1  0  0  0  0
 13 12  2  0  0  0  0
 14 13  1  0  0  0  0
 14  8  2  0  0  0  0
 15  8  1  0  0  0  0
 15 16  1  0  0  0  0
 17 14  1  0  0  0  0
 18 17  1  0  0  0  0
 19 20  2  0  0  0  0
 20 21  1  0  0  0  0
 21 23  1  0  0  0  0
 22 21  1  0  0  0  0
 24 26  1  0  0  0  0
 25 24  2  0  0  0  0
 26 27  1  0  0  0  0
 26 21  1  0  0  0  0
 29 28  1  0  0  0  0
 29 30  1  0  0  0  0
 30 31  2  0  0  0  0
 30 24  1  0  0  0  0
 31 36  1  0  0  0  0
 32 31  1  0  0  0  0
 33 35  1  0  0  0  0
 33 32  2  0  0  0  0
 34 33  1  0  0  0  0
 35 29  2  0  0  0  0
 37 32  1  0  0  0  0
 38 35  1  0  0  0  0
 39  3  1  0  0  0  0
 40 43  1  0  0  0  0
 40 39  1  0  0  0  0
 40 41  1  0  0  0  0
 42 40  1  0  0  0  0
M  END
>  <minimizedAffinity>
-6.6882534

$$$$

 OpenBabel03242520593D

 43 45  0  0  0  0  0  0  0  0999 V2000
   42.1730   31.7050   41.2600 C   0  0  0  0  0  0  0  0  0  0  0  0
   41.9640   32.9090   40.5320 C   0  0  0  0  0  0  0  0  0  0  0  0
   40.6680   33.3460   40.3020 C   0  0  0  0  0  0  0  0  0  0  0  0
   39.6740   32.5990   40.7830 N   0  0  0  0  0  0  0  0  0  0  0  0
   39.8720   31.4570   41.4710 C   0  0  0  0  0  0  0  0  0  0  0  0
   41.1160   31.0090   41.7110 N   0  0  0  0  0  0  0  0  0  0  0  0
   43.1300   31.2680   41.5000 H   0  0  0  0  0  0  0  0  0  0  0  0
   43.4130   33.3330   38.7660 C   0  0  0  0  0  0  0  0  0  0  0  0
   43.2360   33.4930   40.1470 C   0  0  0  0  0  0  0  0  0  0  0  0
   44.2440   34.1160   40.8540 C   0  0  0  0  0  0  0  0  0  0  0  0
   43.9710   34.1690   41.9030 H   0  0  0  0  0  0  0  0  0  0  0  0
   45.3790   34.5610   40.2140 C   0  0  0  0  0  3  0  0  0  0  0  0
   45.5450   34.4010   38.8560 C   0  0  0  0  0  3  0  0  0  0  0  0
   44.5620   33.7840   38.1160 C   0  0  0  0  0  0  0  0  0  0  0  0
   42.5200   32.7310   37.8590 O   0  0  0  0  0  0  0  0  0  0  0  0
   42.0940   31.8360   38.0820 H   0  0  0  0  0  0  0  0  0  0  0  0
   44.8140   33.6690   36.7760 O   0  0  0  0  0  0  0  0  0  0  0  0
   44.1900   33.0850   36.2080 H   0  0  0  0  0  0  0  0  0  0  0  0
   38.7350   30.6780   41.9600 C   0  0  0  0  0  3  0  0  0  0  0  0
   38.8560   29.7840   42.9140 C   0  0  0  0  0  3  0  0  0  0  0  0
   37.6820   29.0110   43.3850 C   0  0  0  0  0  0  0  0  0  0  0  0
   38.0350   28.4470   44.2440 H   0  0  0  0  0  0  0  0  0  0  0  0
   36.9420   29.7550   43.8030 H   0  0  0  0  0  0  0  0  0  0  0  0
   37.6320   27.0780   42.0710 C   0  0  0  0  0  0  0  0  0  0  0  0
   38.5860   26.4350   42.5450 O   0  0  0  0  0  0  0  0  0  0  0  0
   37.0420   28.3120   42.3550 N   0  0  0  0  0  0  0  0  0  0  0  0
   36.2210   28.6100   41.8200 H   0  0  0  0  0  0  0  0  0  0  0  0
   37.4020   27.9690   39.1580 Cl  0  0  0  0  0  0  0  0  0  0  0  0
   37.0340   26.3490   39.6660 C   0  0  0  0  0  0  0  0  0  0  0  0
   37.2020   26.1520   41.0180 C   0  0  0  0  0  0  0  0  0  0  0  0
   36.9450   24.8990   41.5830 C   0  0  0  0  0  0  0  0  0  0  0  0
   36.5160   23.8410   40.7780 C   0  0  0  0  0  0  0  0  0  0  0  0
   36.3540   24.0630   39.4240 C   0  0  0  0  0  0  0  0  0  0  0  0
   35.8190   22.7810   38.3620 Cl  0  0  0  0  0  0  0  0  0  0  0  0
   36.6120   25.3050   38.8770 C   0  0  0  0  0  0  0  0  0  0  0  0
   37.0360   24.6180   42.6090 H   0  0  0  0  0  0  0  0  0  0  0  0
   36.3020   22.8620   41.1460 H   0  0  0  0  0  0  0  0  0  0  0  0
   36.5090   25.5590   37.8320 H   0  0  0  0  0  0  0  0  0  0  0  0
   40.4280   34.4860   39.6180 O   0  0  0  0  0  0  0  0  0  0  0  0
   40.0160   35.6380   40.3840 C   0  0  0  0  0  0  0  0  0  0  0  0
   39.2430   35.2200   41.4610 F   0  0  0  0  0  0  0  0  0  0  0  0
   41.1970   36.1920   40.8810 F   0  0  0  0  0  0  0  0  0  0  0  0
   39.3670   36.5980   39.6150 F   0  0  0  0  0  0  0  0  0  0  0  0
  1  7  1  0  0  0  0
  1  6  1  0  0  0  0
  2  1  2  0  0  0  0
  3  2  1  0  0  0  0
  3  4  2  0  0  0  0
  4  5  1  0  0  0  0
  5  6  2  0  0  0  0
  5 19  1  0  0  0  0
  8  9  1  0  0  0  0
  9  2  1  0  0  0  0
  9 10  2  0  0  0  0
 10 11  1  0  0  0  0
 12 10  1  0  0  0  0
 13 12  2  0  0  0  0
 14  8  2  0  0  0  0
 14 13  1  0  0  0  0
 15 16  1  0  0  0  0
 15  8  1  0  0  0  0
 17 14  1  0  0  0  0
 18 17  1  0  0  0  0
 19 20  2  0  0  0  0
 20 21  1  0  0  0  0
 21 23  1  0  0  0  0
 21 22  1  0  0  0  0
 24 26  1  0  0  0  0
 24 25  2  0  0  0  0
 26 21  1  0  0  0  0
 27 26  1  0  0  0  0
 28 29  1  0  0  0  0
 29 30  1  0  0  0  0
 30 31  2  0  0  0  0
 30 24  1  0  0  0  0
 31 36  1  0  0  0  0
 32 37  1  0  0  0  0
 32 31  1  0  0  0  0
 33 32  2  0  0  0  0
 34 33  1  0  0  0  0
 35 33  1  0  0  0  0
 35 29  2  0  0  0  0
 38 35  1  0  0  0  0
 39  3  1  0  0  0  0
 39 40  1  0  0  0  0
 40 42  1  0  0  0  0
 40 41  1  0  0  0  0
 43 40  1  0  0  0  0
M  END
>  <minimizedAffinity>
-6.66903019

$$$$

 OpenBabel03242520593D

 43 45  0  0  0  0  0  0  0  0999 V2000
   37.5470   31.5280   38.0940 C   0  0  0  0  0  0  0  0  0  0  0  0
   37.4070   30.2510   38.7040 C   0  0  0  0  0  0  0  0  0  0  0  0
   38.2140   29.9250   39.7850 C   0  0  0  0  0  0  0  0  0  0  0  0
   39.0890   30.8420   40.1960 N   0  0  0  0  0  0  0  0  0  0  0  0
   39.2220   32.0510   39.6170 C   0  0  0  0  0  0  0  0  0  0  0  0
   38.4540   32.3970   38.5690 N   0  0  0  0  0  0  0  0  0  0  0  0
   36.9780   31.8940   37.2520 H   0  0  0  0  0  0  0  0  0  0  0  0
   36.9000   28.9370   36.8560 C   0  0  0  0  0  0  0  0  0  0  0  0
   36.3740   29.4830   38.0350 C   0  0  0  0  0  0  0  0  0  0  0  0
   35.0490   29.2270   38.3230 C   0  0  0  0  0  0  0  0  0  0  0  0
   34.7820   29.7080   39.2590 H   0  0  0  0  0  0  0  0  0  0  0  0
   34.2810   28.4620   37.4740 C   0  0  0  0  0  3  0  0  0  0  0  0
   34.8050   27.9290   36.3170 C   0  0  0  0  0  3  0  0  0  0  0  0
   36.1240   28.1620   35.9950 C   0  0  0  0  0  0  0  0  0  0  0  0
   38.2160   29.0710   36.3710 O   0  0  0  0  0  0  0  0  0  0  0  0
   38.6620   29.9840   36.3530 H   0  0  0  0  0  0  0  0  0  0  0  0
   36.5570   27.5940   34.8280 O   0  0  0  0  0  0  0  0  0  0  0  0
   37.4790   27.8620   34.4650 H   0  0  0  0  0  0  0  0  0  0  0  0
   40.2130   33.0070   40.1120 C   0  0  0  0  0  3  0  0  0  0  0  0
   40.2660   34.2470   39.6830 C   0  0  0  0  0  3  0  0  0  0  0  0
   41.2840   35.1890   40.2040 C   0  0  0  0  0  0  0  0  0  0  0  0
   41.9900   35.3300   39.3900 H   0  0  0  0  0  0  0  0  0  0  0  0
   40.7750   36.1900   40.3310 H   0  0  0  0  0  0  0  0  0  0  0  0
   43.1240   34.4060   41.4160 C   0  0  0  0  0  0  0  0  0  0  0  0
   43.9890   34.3310   40.5250 O   0  0  0  0  0  0  0  0  0  0  0  0
   41.7870   34.8110   41.4550 N   0  0  0  0  0  0  0  0  0  0  0  0
   41.2870   34.8050   42.3480 H   0  0  0  0  0  0  0  0  0  0  0  0
   44.9820   36.2500   42.9920 Cl  0  0  0  0  0  0  0  0  0  0  0  0
   44.7790   34.5720   43.3930 C   0  0  0  0  0  0  0  0  0  0  0  0
   43.8980   33.9170   42.5620 C   0  0  0  0  0  0  0  0  0  0  0  0
   43.6270   32.5590   42.7550 C   0  0  0  0  0  0  0  0  0  0  0  0
   44.2510   31.8600   43.7910 C   0  0  0  0  0  0  0  0  0  0  0  0
   45.1320   32.5380   44.6120 C   0  0  0  0  0  0  0  0  0  0  0  0
   45.9450   31.7210   45.9260 Cl  0  0  0  0  0  0  0  0  0  0  0  0
   45.3900   33.8800   44.4120 C   0  0  0  0  0  0  0  0  0  0  0  0
   42.9700   31.9410   42.1850 H   0  0  0  0  0  0  0  0  0  0  0  0
   44.0880   30.8240   43.9920 H   0  0  0  0  0  0  0  0  0  0  0  0
   46.0640   34.4810   45.0060 H   0  0  0  0  0  0  0  0  0  0  0  0
   38.1110   28.7230   40.3930 O   0  0  0  0  0  0  0  0  0  0  0  0
   37.3850   28.6790   41.6400 C   0  0  0  0  0  0  0  0  0  0  0  0
   36.3580   29.6150   41.6070 F   0  0  0  0  0  0  0  0  0  0  0  0
   36.8160   27.4050   41.6910 F   0  0  0  0  0  0  0  0  0  0  0  0
   38.2050   28.8400   42.7520 F   0  0  0  0  0  0  0  0  0  0  0  0
  1  6  2  0  0  0  0
  1  2  1  0  0  0  0
  2  3  2  0  0  0  0
  3  4  1  0  0  0  0
  3 39  1  0  0  0  0
  5 19  1  0  0  0  0
  5  4  2  0  0  0  0
  6  5  1  0  0  0  0
  7  1  1  0  0  0  0
  8  9  1  0  0  0  0
  9 10  2  0  0  0  0
  9  2  1  0  0  0  0
 10 11  1  0  0  0  0
 12 10  1  0  0  0  0
 13 12  2  0  0  0  0
 14 13  1  0  0  0  0
 14  8  2  0  0  0  0
 15  8  1  0  0  0  0
 16 15  1  0  0  0  0
 17 14  1  0  0  0  0
 18 17  1  0  0  0  0
 20 19  2  0  0  0  0
 20 21  1  0  0  0  0
 21 23  1  0  0  0  0
 21 26  1  0  0  0  0
 22 21  1  0  0  0  0
 24 26  1  0  0  0  0
 24 30  1  0  0  0  0
 25 24  2  0  0  0  0
 26 27  1  0  0  0  0
 28 29  1  0  0  0  0
 29 35  1  0  0  0  0
 30 31  1  0  0  0  0
 30 29  2  0  0  0  0
 31 32  2  0  0  0  0
 32 37  1  0  0  0  0
 32 33  1  0  0  0  0
 33 34  1  0  0  0  0
 35 33  2  0  0  0  0
 35 38  1  0  0  0  0
 36 31  1  0  0  0  0
 39 40  1  0  0  0  0
 40 42  1  0  0  0  0
 40 43  1  0  0  0  0
 41 40  1  0  0  0  0
M  END
>  <minimizedAffinity>
-6.45941019

$$$$

 OpenBabel03242520593D

 43 45  0  0  0  0  0  0  0  0999 V2000
   38.6330   31.8000   37.9930 C   0  0  0  0  0  0  0  0  0  0  0  0
   38.7200   31.8670   39.4110 C   0  0  0  0  0  0  0  0  0  0  0  0
   37.8570   31.1000   40.1800 C   0  0  0  0  0  0  0  0  0  0  0  0
   36.9810   30.3300   39.5350 N   0  0  0  0  0  0  0  0  0  0  0  0
   36.8980   30.2670   38.1920 C   0  0  0  0  0  0  0  0  0  0  0  0
   37.7200   30.9980   37.4200 N   0  0  0  0  0  0  0  0  0  0  0  0
   39.2470   32.3470   37.2940 H   0  0  0  0  0  0  0  0  0  0  0  0
   39.2420   34.0850   39.8690 C   0  0  0  0  0  0  0  0  0  0  0  0
   39.7690   32.7880   39.8090 C   0  0  0  0  0  0  0  0  0  0  0  0
   41.1080   32.6270   40.0990 C   0  0  0  0  0  0  0  0  0  0  0  0
   41.3750   31.5780   40.0140 H   0  0  0  0  0  0  0  0  0  0  0  0
   41.8890   33.7100   40.4340 C   0  0  0  0  0  3  0  0  0  0  0  0
   41.3640   34.9820   40.4910 C   0  0  0  0  0  3  0  0  0  0  0  0
   40.0310   35.1840   40.2080 C   0  0  0  0  0  0  0  0  0  0  0  0
   37.9130   34.4750   39.6140 O   0  0  0  0  0  0  0  0  0  0  0  0
   37.4310   34.1310   38.7870 H   0  0  0  0  0  0  0  0  0  0  0  0
   39.5980   36.4780   40.2900 O   0  0  0  0  0  0  0  0  0  0  0  0
   38.6590   36.7050   39.9420 H   0  0  0  0  0  0  0  0  0  0  0  0
   35.9020   29.4100   37.5490 C   0  0  0  0  0  3  0  0  0  0  0  0
   34.7560   29.1180   38.1190 C   0  0  0  0  0  3  0  0  0  0  0  0
   33.7690   28.2450   37.4400 C   0  0  0  0  0  0  0  0  0  0  0  0
   34.1920   27.2440   37.4840 H   0  0  0  0  0  0  0  0  0  0  0  0
   32.8520   28.2070   38.0990 H   0  0  0  0  0  0  0  0  0  0  0  0
   32.0850   29.2800   36.1930 C   0  0  0  0  0  0  0  0  0  0  0  0
   31.2110   29.4550   37.0610 O   0  0  0  0  0  0  0  0  0  0  0  0
   33.3730   28.7390   36.1920 N   0  0  0  0  0  0  0  0  0  0  0  0
   33.9150   28.7370   35.3240 H   0  0  0  0  0  0  0  0  0  0  0  0
   31.0990   27.4810   33.9290 Cl  0  0  0  0  0  0  0  0  0  0  0  0
   30.8780   29.2050   33.9100 C   0  0  0  0  0  0  0  0  0  0  0  0
   31.3930   29.8310   35.0230 C   0  0  0  0  0  0  0  0  0  0  0  0
   31.2950   31.2190   35.1570 C   0  0  0  0  0  0  0  0  0  0  0  0
   30.6740   31.9780   34.1610 C   0  0  0  0  0  0  0  0  0  0  0  0
   30.1660   31.3280   33.0530 C   0  0  0  0  0  0  0  0  0  0  0  0
   29.3780   32.2190   31.7730 Cl  0  0  0  0  0  0  0  0  0  0  0  0
   30.2680   29.9560   32.9330 C   0  0  0  0  0  0  0  0  0  0  0  0
   31.6510   31.8200   35.9640 H   0  0  0  0  0  0  0  0  0  0  0  0
   30.5670   33.0390   34.2030 H   0  0  0  0  0  0  0  0  0  0  0  0
   29.8970   29.3730   32.1010 H   0  0  0  0  0  0  0  0  0  0  0  0
   37.9090   31.1340   41.5300 O   0  0  0  0  0  0  0  0  0  0  0  0
   38.8390   30.2370   42.1740 C   0  0  0  0  0  0  0  0  0  0  0  0
   39.7910   30.9800   42.8610 F   0  0  0  0  0  0  0  0  0  0  0  0
   38.0800   29.5260   43.1060 F   0  0  0  0  0  0  0  0  0  0  0  0
   39.4180   29.3300   41.2920 F   0  0  0  0  0  0  0  0  0  0  0  0
  1  2  1  0  0  0  0
  2  9  1  0  0  0  0
  2  3  2  0  0  0  0
  3 39  1  0  0  0  0
  4  3  1  0  0  0  0
  5  4  2  0  0  0  0
  6  1  2  0  0  0  0
  6  5  1  0  0  0  0
  7  1  1  0  0  0  0
  8 14  1  0  0  0  0
  9  8  2  0  0  0  0
  9 10  1  0  0  0  0
 10 12  2  0  0  0  0
 11 10  1  0  0  0  0
 12 13  1  0  0  0  0
 14 17  1  0  0  0  0
 14 13  2  0  0  0  0
 15  8  1  0  0  0  0
 16 15  1  0  0  0  0
 18 17  1  0  0  0  0
 19 20  2  0  0  0  0
 19  5  1  0  0  0  0
 21 22  1  0  0  0  0
 21 23  1  0  0  0  0
 21 20  1  0  0  0  0
 24 25  2  0  0  0  0
 26 24  1  0  0  0  0
 26 21  1  0  0  0  0
 27 26  1  0  0  0  0
 29 28  1  0  0  0  0
 29 30  1  0  0  0  0
 30 31  2  0  0  0  0
 30 24  1  0  0  0  0
 31 36  1  0  0  0  0
 32 37  1  0  0  0  0
 32 31  1  0  0  0  0
 33 32  2  0  0  0  0
 34 33  1  0  0  0  0
 35 33  1  0  0  0  0
 35 29  2  0  0  0  0
 38 35  1  0  0  0  0
 39 40  1  0  0  0  0
 40 41  1  0  0  0  0
 40 42  1  0  0  0  0
 43 40  1  0  0  0  0
M  END
>  <minimizedAffinity>
-6.4433794

$$$$

 OpenBabel03242520593D

 43 45  0  0  0  0  0  0  0  0999 V2000
   39.7470   32.0260   41.7760 C   0  0  0  0  0  0  0  0  0  0  0  0
   39.0810   32.5060   40.6140 C   0  0  0  0  0  0  0  0  0  0  0  0
   38.1740   31.6820   39.9640 C   0  0  0  0  0  0  0  0  0  0  0  0
   37.9750   30.4660   40.4730 N   0  0  0  0  0  0  0  0  0  0  0  0
   38.6070   30.0110   41.5730 C   0  0  0  0  0  0  0  0  0  0  0  0
   39.4900   30.7860   42.2250 N   0  0  0  0  0  0  0  0  0  0  0  0
   40.4690   32.5720   42.3630 H   0  0  0  0  0  0  0  0  0  0  0  0
   40.7060   33.8140   39.5900 C   0  0  0  0  0  0  0  0  0  0  0  0
   39.5060   33.8600   40.3130 C   0  0  0  0  0  0  0  0  0  0  0  0
   38.9850   35.1030   40.6100 C   0  0  0  0  0  0  0  0  0  0  0  0
   38.0620   34.9850   41.1680 H   0  0  0  0  0  0  0  0  0  0  0  0
   39.6300   36.2500   40.2050 C   0  0  0  0  0  3  0  0  0  0  0  0
   40.8090   36.1960   39.4930 C   0  0  0  0  0  3  0  0  0  0  0  0
   41.3600   34.9750   39.1780 C   0  0  0  0  0  0  0  0  0  0  0  0
   41.4080   32.6640   39.1820 O   0  0  0  0  0  0  0  0  0  0  0  0
   41.5760   31.9090   39.8410 H   0  0  0  0  0  0  0  0  0  0  0  0
   42.5300   35.0190   38.4710 O   0  0  0  0  0  0  0  0  0  0  0  0
   43.0600   34.1490   38.3450 H   0  0  0  0  0  0  0  0  0  0  0  0
   38.3510   28.6600   42.0710 C   0  0  0  0  0  3  0  0  0  0  0  0
   37.1340   28.1940   42.2380 C   0  0  0  0  0  3  0  0  0  0  0  0
   36.9100   26.8190   42.7460 C   0  0  0  0  0  0  0  0  0  0  0  0
   36.8500   26.9180   43.8260 H   0  0  0  0  0  0  0  0  0  0  0  0
   35.8730   26.5110   42.4190 H   0  0  0  0  0  0  0  0  0  0  0  0
   37.3990   25.3430   41.0000 C   0  0  0  0  0  0  0  0  0  0  0  0
   36.4180   25.5150   40.2530 O   0  0  0  0  0  0  0  0  0  0  0  0
   37.8130   25.8890   42.2170 N   0  0  0  0  0  0  0  0  0  0  0  0
   38.7030   25.5890   42.6240 H   0  0  0  0  0  0  0  0  0  0  0  0
   39.6780   26.0700   39.0990 Cl  0  0  0  0  0  0  0  0  0  0  0  0
   39.1580   24.4300   39.3430 C   0  0  0  0  0  0  0  0  0  0  0  0
   38.1190   24.3170   40.2390 C   0  0  0  0  0  0  0  0  0  0  0  0
   37.5860   23.0600   40.5430 C   0  0  0  0  0  0  0  0  0  0  0  0
   38.1050   21.9130   39.9380 C   0  0  0  0  0  0  0  0  0  0  0  0
   39.1480   22.0510   39.0410 C   0  0  0  0  0  0  0  0  0  0  0  0
   39.8420   20.6560   38.2500 Cl  0  0  0  0  0  0  0  0  0  0  0  0
   39.6660   23.2980   38.7500 C   0  0  0  0  0  0  0  0  0  0  0  0
   36.7870   22.8390   41.2150 H   0  0  0  0  0  0  0  0  0  0  0  0
   37.7450   20.9260   40.1260 H   0  0  0  0  0  0  0  0  0  0  0  0
   40.4770   23.4910   38.0620 H   0  0  0  0  0  0  0  0  0  0  0  0
   37.5200   32.1010   38.8590 O   0  0  0  0  0  0  0  0  0  0  0  0
   37.7830   31.3880   37.6310 C   0  0  0  0  0  0  0  0  0  0  0  0
   37.5560   32.2340   36.5520 F   0  0  0  0  0  0  0  0  0  0  0  0
   39.1440   31.0800   37.6680 F   0  0  0  0  0  0  0  0  0  0  0  0
   37.0640   30.2020   37.5270 F   0  0  0  0  0  0  0  0  0  0  0  0
  1  6  1  0  0  0  0
  1  7  1  0  0  0  0
  2  1  2  0  0  0  0
  3  4  2  0  0  0  0
  3  2  1  0  0  0  0
  4  5  1  0  0  0  0
  5 19  1  0  0  0  0
  5  6  2  0  0  0  0
  8  9  1  0  0  0  0
  9 10  2  0  0  0  0
  9  2  1  0  0  0  0
 10 11  1  0  0  0  0
 12 10  1  0  0  0  0
 13 12  2  0  0  0  0
 14 13  1  0  0  0  0
 14  8  2  0  0  0  0
 15  8  1  0  0  0  0
 15 16  1  0  0  0  0
 17 14  1  0  0  0  0
 18 17  1  0  0  0  0
 19 20  2  0  0  0  0
 20 21  1  0  0  0  0
 21 22  1  0  0  0  0
 23 21  1  0  0  0  0
 24 26  1  0  0  0  0
 25 24  2  0  0  0  0
 26 27  1  0  0  0  0
 26 21  1  0  0  0  0
 28 29  1  0  0  0  0
 29 30  1  0  0  0  0
 30 31  2  0  0  0  0
 30 24  1  0  0  0  0
 31 36  1  0  0  0  0
 32 37  1  0  0  0  0
 32 31  1  0  0  0  0
 33 32  2  0  0  0  0
 34 33  1  0  0  0  0
 35 33  1  0  0  0  0
 35 29  2  0  0  0  0
 38 35  1  0  0  0  0
 39  3  1  0  0  0  0
 40 42  1  0  0  0  0
 40 39  1  0  0  0  0
 41 40  1  0  0  0  0
 43 40  1  0  0  0  0
M  END
>  <minimizedAffinity>
-6.43703556

$$$$

 OpenBabel03242520593D

 43 45  0  0  0  0  0  0  0  0999 V2000
   36.8600   27.0390   38.2860 C   0  0  0  0  0  0  0  0  0  0  0  0
   36.9150   26.5000   39.6010 C   0  0  0  0  0  0  0  0  0  0  0  0
   37.0090   27.3620   40.6840 C   0  0  0  0  0  0  0  0  0  0  0  0
   37.0450   28.6700   40.4250 N   0  0  0  0  0  0  0  0  0  0  0  0
   36.9940   29.1800   39.1790 C   0  0  0  0  0  0  0  0  0  0  0  0
   36.9010   28.3700   38.1110 N   0  0  0  0  0  0  0  0  0  0  0  0
   36.7850   26.4710   37.3710 H   0  0  0  0  0  0  0  0  0  0  0  0
   38.1430   24.5450   39.3370 C   0  0  0  0  0  0  0  0  0  0  0  0
   36.8540   25.0510   39.5550 C   0  0  0  0  0  0  0  0  0  0  0  0
   35.8190   24.1440   39.6610 C   0  0  0  0  0  0  0  0  0  0  0  0
   34.8870   24.6740   39.8270 H   0  0  0  0  0  0  0  0  0  0  0  0
   36.0570   22.7920   39.5530 C   0  0  0  0  0  3  0  0  0  0  0  0
   37.3270   22.3020   39.3380 C   0  0  0  0  0  3  0  0  0  0  0  0
   38.3860   23.1760   39.2280 C   0  0  0  0  0  0  0  0  0  0  0  0
   39.3330   25.2830   39.1990 O   0  0  0  0  0  0  0  0  0  0  0  0
   39.3610   26.0960   38.5880 H   0  0  0  0  0  0  0  0  0  0  0  0
   39.6080   22.6000   39.0160 O   0  0  0  0  0  0  0  0  0  0  0  0
   40.4000   23.2060   38.7730 H   0  0  0  0  0  0  0  0  0  0  0  0
   37.0510   30.6260   38.9660 C   0  0  0  0  0  3  0  0  0  0  0  0
   37.0300   31.4820   39.9620 C   0  0  0  0  0  3  0  0  0  0  0  0
   37.0880   32.9420   39.7110 C   0  0  0  0  0  0  0  0  0  0  0  0
   37.1290   33.0470   38.6300 H   0  0  0  0  0  0  0  0  0  0  0  0
   36.0860   33.3690   40.0120 H   0  0  0  0  0  0  0  0  0  0  0  0
   39.3400   33.5390   39.8980 C   0  0  0  0  0  0  0  0  0  0  0  0
   39.8040   33.0760   38.8400 O   0  0  0  0  0  0  0  0  0  0  0  0
   38.0680   33.5880   40.4730 N   0  0  0  0  0  0  0  0  0  0  0  0
   37.9410   34.0670   41.3690 H   0  0  0  0  0  0  0  0  0  0  0  0
   39.7590   36.5530   40.1760 Cl  0  0  0  0  0  0  0  0  0  0  0  0
   40.9450   35.3970   40.7030 C   0  0  0  0  0  0  0  0  0  0  0  0
   40.5630   34.0920   40.4900 C   0  0  0  0  0  0  0  0  0  0  0  0
   41.4100   33.0420   40.8600 C   0  0  0  0  0  0  0  0  0  0  0  0
   42.6480   33.3140   41.4470 C   0  0  0  0  0  0  0  0  0  0  0  0
   43.0100   34.6320   41.6510 C   0  0  0  0  0  0  0  0  0  0  0  0
   44.5440   35.0390   42.3810 Cl  0  0  0  0  0  0  0  0  0  0  0  0
   42.1640   35.6600   41.2820 C   0  0  0  0  0  0  0  0  0  0  0  0
   41.2340   31.9960   40.7500 H   0  0  0  0  0  0  0  0  0  0  0  0
   43.3400   32.5600   41.7520 H   0  0  0  0  0  0  0  0  0  0  0  0
   42.3710   36.7140   41.4060 H   0  0  0  0  0  0  0  0  0  0  0  0
   37.0620   26.8900   41.9480 O   0  0  0  0  0  0  0  0  0  0  0  0
   38.3660   26.5510   42.4680 C   0  0  0  0  0  0  0  0  0  0  0  0
   39.3410   27.1920   41.7140 F   0  0  0  0  0  0  0  0  0  0  0  0
   38.3960   27.0750   43.7610 F   0  0  0  0  0  0  0  0  0  0  0  0
   38.5800   25.1780   42.5430 F   0  0  0  0  0  0  0  0  0  0  0  0
  1  2  1  0  0  0  0
  2  3  2  0  0  0  0
  3 39  1  0  0  0  0
  4  3  1  0  0  0  0
  5  4  2  0  0  0  0
  6  1  2  0  0  0  0
  6  5  1  0  0  0  0
  7  1  1  0  0  0  0
  8  9  1  0  0  0  0
  9  2  1  0  0  0  0
  9 10  2  0  0  0  0
 10 11  1  0  0  0  0
 12 10  1  0  0  0  0
 13 12  2  0  0  0  0
 14  8  2  0  0  0  0
 14 13  1  0  0  0  0
 15  8  1  0  0  0  0
 16 15  1  0  0  0  0
 17 14  1  0  0  0  0
 18 17  1  0  0  0  0
 19  5  1  0  0  0  0
 19 20  2  0  0  0  0
 21 20  1  0  0  0  0
 21 23  1  0  0  0  0
 21 26  1  0  0  0  0
 22 21  1  0  0  0  0
 24 26  1  0  0  0  0
 24 30  1  0  0  0  0
 25 24  2  0  0  0  0
 26 27  1  0  0  0  0
 28 29  1  0  0  0  0
 29 35  1  0  0  0  0
 30 29  2  0  0  0  0
 30 31  1  0  0  0  0
 31 32  2  0  0  0  0
 32 33  1  0  0  0  0
 32 37  1  0  0  0  0
 33 34  1  0  0  0  0
 35 38  1  0  0  0  0
 35 33  2  0  0  0  0
 36 31  1  0  0  0  0
 39 40  1  0  0  0  0
 40 43  1  0  0  0  0
 40 42  1  0  0  0  0
 41 40  1  0  0  0  0
M  END
>  <minimizedAffinity>
-6.23040152

$$$$

 OpenBabel03242520593D

 43 45  0  0  0  0  0  0  0  0999 V2000
   38.0190   27.5280   38.8320 C   0  0  0  0  0  0  0  0  0  0  0  0
   37.8170   26.9410   40.1120 C   0  0  0  0  0  0  0  0  0  0  0  0
   38.1600   27.6570   41.2490 C   0  0  0  0  0  0  0  0  0  0  0  0
   38.6700   28.8760   41.0750 N   0  0  0  0  0  0  0  0  0  0  0  0
   38.8630   29.4320   39.8630 C   0  0  0  0  0  0  0  0  0  0  0  0
   38.5390   28.7640   38.7430 N   0  0  0  0  0  0  0  0  0  0  0  0
   37.7920   27.0710   37.8820 H   0  0  0  0  0  0  0  0  0  0  0  0
   38.1350   24.6740   40.5150 C   0  0  0  0  0  0  0  0  0  0  0  0
   37.2470   25.6130   39.9720 C   0  0  0  0  0  0  0  0  0  0  0  0
   36.0750   25.1400   39.4190 C   0  0  0  0  0  0  0  0  0  0  0  0
   35.4900   25.9730   39.0410 H   0  0  0  0  0  0  0  0  0  0  0  0
   35.7990   23.7920   39.4060 C   0  0  0  0  0  3  0  0  0  0  0  0
   36.6760   22.8750   39.9420 C   0  0  0  0  0  3  0  0  0  0  0  0
   37.8570   23.3080   40.5040 C   0  0  0  0  0  0  0  0  0  0  0  0
   39.3770   24.9340   41.1250 O   0  0  0  0  0  0  0  0  0  0  0  0
   40.0420   25.5620   40.6810 H   0  0  0  0  0  0  0  0  0  0  0  0
   38.6650   22.3280   41.0100 O   0  0  0  0  0  0  0  0  0  0  0  0
   39.6180   22.5780   41.2980 H   0  0  0  0  0  0  0  0  0  0  0  0
   39.4400   30.7720   39.7440 C   0  0  0  0  0  3  0  0  0  0  0  0
   38.7620   31.8550   40.0450 C   0  0  0  0  0  3  0  0  0  0  0  0
   39.3760   33.1980   39.9120 C   0  0  0  0  0  0  0  0  0  0  0  0
   39.7880   33.2280   38.9060 H   0  0  0  0  0  0  0  0  0  0  0  0
   38.5320   33.9490   39.9080 H   0  0  0  0  0  0  0  0  0  0  0  0
   41.5610   33.6580   40.6050 C   0  0  0  0  0  0  0  0  0  0  0  0
   42.1790   33.5920   39.5260 O   0  0  0  0  0  0  0  0  0  0  0  0
   40.2230   33.5180   40.9800 N   0  0  0  0  0  0  0  0  0  0  0  0
   39.9600   33.6520   41.9600 H   0  0  0  0  0  0  0  0  0  0  0  0
   43.3060   31.4290   41.7540 Cl  0  0  0  0  0  0  0  0  0  0  0  0
   43.5670   33.1030   42.1360 C   0  0  0  0  0  0  0  0  0  0  0  0
   42.6740   33.9480   41.5150 C   0  0  0  0  0  0  0  0  0  0  0  0
   42.7510   35.3290   41.7220 C   0  0  0  0  0  0  0  0  0  0  0  0
   43.7350   35.8580   42.5610 C   0  0  0  0  0  0  0  0  0  0  0  0
   44.6200   34.9910   43.1730 C   0  0  0  0  0  0  0  0  0  0  0  0
   45.8740   35.5890   44.2340 Cl  0  0  0  0  0  0  0  0  0  0  0  0
   44.5340   33.6290   42.9600 C   0  0  0  0  0  0  0  0  0  0  0  0
   42.1250   36.0840   41.3040 H   0  0  0  0  0  0  0  0  0  0  0  0
   43.8490   36.9000   42.7610 H   0  0  0  0  0  0  0  0  0  0  0  0
   45.1840   32.8860   43.4000 H   0  0  0  0  0  0  0  0  0  0  0  0
   37.9820   27.1350   42.4820 O   0  0  0  0  0  0  0  0  0  0  0  0
   36.6720   27.2790   43.0720 C   0  0  0  0  0  0  0  0  0  0  0  0
   35.8700   28.0380   42.2290 F   0  0  0  0  0  0  0  0  0  0  0  0
   36.1490   25.9860   43.1290 F   0  0  0  0  0  0  0  0  0  0  0  0
   36.7130   27.7950   44.3630 F   0  0  0  0  0  0  0  0  0  0  0  0
  1  2  1  0  0  0  0
  2  3  2  0  0  0  0
  3 39  1  0  0  0  0
  4  3  1  0  0  0  0
  5  4  2  0  0  0  0
  6  1  2  0  0  0  0
  6  5  1  0  0  0  0
  7  1  1  0  0  0  0
  8 15  1  0  0  0  0
  9  2  1  0  0  0  0
  9  8  2  0  0  0  0
 10  9  1  0  0  0  0
 11 10  1  0  0  0  0
 12 10  2  0  0  0  0
 12 13  1  0  0  0  0
 13 14  2  0  0  0  0
 14  8  1  0  0  0  0
 14 17  1  0  0  0  0
 16 15  1  0  0  0  0
 17 18  1  0  0  0  0
 19  5  1  0  0  0  0
 19 20  2  0  0  0  0
 21 20  1  0  0  0  0
 21 26  1  0  0  0  0
 22 21  1  0  0  0  0
 23 21  1  0  0  0  0
 24 26  1  0  0  0  0
 24 30  1  0  0  0  0
 25 24  2  0  0  0  0
 26 27  1  0  0  0  0
 28 29  1  0  0  0  0
 29 35  1  0  0  0  0
 30 31  1  0  0  0  0
 30 29  2  0  0  0  0
 31 32  2  0  0  0  0
 32 37  1  0  0  0  0
 32 33  1  0  0  0  0
 33 34  1  0  0  0  0
 35 33  2  0  0  0  0
 35 38  1  0  0  0  0
 36 31  1  0  0  0  0
 39 40  1  0  0  0  0
 40 42  1  0  0  0  0
 40 43  1  0  0  0  0
 41 40  1  0  0  0  0
M  END
>  <minimizedAffinity>
-6.20208931

$$$$
