
 OpenBabel03242511103D

 45 49  0  0  1  0  0  0  0  0999 V2000
   37.0970   28.9580   41.4820 C   0  0  0  0  0  0  0  0  0  0  0  0
   37.5890   29.2890   42.7410 C   0  0  0  0  0  0  0  0  0  0  0  0
   37.9850   28.3430   43.6780 C   0  0  0  0  0  0  0  0  0  0  0  0
   37.9000   27.0030   43.3780 C   0  0  0  0  0  0  0  0  0  0  0  0
   37.4210   26.6410   42.1490 C   0  0  0  0  0  0  0  0  0  0  0  0
   37.3390   25.3000   41.8460 C   0  0  0  0  0  0  0  0  0  0  0  0
   36.8670   24.8630   40.6160 C   0  0  0  0  0  0  0  0  0  0  0  0
   36.4830   25.8420   39.7070 C   0  0  0  0  0  0  0  0  0  0  0  0
   36.5810   27.1840   40.0500 C   0  0  0  0  0  0  0  0  0  0  0  0
   37.0440   27.6070   41.2590 C   0  0  0  0  0  0  0  0  0  0  0  0
   37.6920   30.3140   43.0610 H   0  0  0  0  0  0  0  0  0  0  0  0
   38.3640   28.6410   44.6490 H   0  0  0  0  0  0  0  0  0  0  0  0
   38.2100   26.2740   44.1140 H   0  0  0  0  0  0  0  0  0  0  0  0
   37.6550   24.5810   42.5990 H   0  0  0  0  0  0  0  0  0  0  0  0
   36.8450   23.7860   40.4850 H   0  0  0  0  0  0  0  0  0  0  0  0
   36.1360   25.3760   38.7920 H   0  0  0  0  0  0  0  0  0  0  0  0
   37.2110   28.0380   37.9830 C   0  0  0  0  0  0  0  0  0  0  0  0
   36.1410   27.9430   38.8940 C   0  0  0  0  0  0  0  0  0  0  0  0
   34.9470   28.5200   38.5110 C   0  0  0  0  0  0  0  0  0  0  0  0
   34.2180   28.3710   39.2910 H   0  0  0  0  0  0  0  0  0  0  0  0
   34.8130   29.1560   37.2990 C   0  0  0  0  0  3  0  0  0  0  0  0
   35.8490   29.2560   36.3980 C   0  0  0  0  0  3  0  0  0  0  0  0
   37.0530   28.6880   36.7540 C   0  0  0  0  0  0  0  0  0  0  0  0
   38.5130   27.5310   38.1460 O   0  0  0  0  0  0  0  0  0  0  0  0
   39.2380   28.1890   38.4200 H   0  0  0  0  0  0  0  0  0  0  0  0
   38.0680   28.8160   35.8140 O   0  0  0  0  0  0  0  0  0  0  0  0
   37.9210   28.2990   34.9420 H   0  0  0  0  0  0  0  0  0  0  0  0
   36.7120   29.9790   40.6030 N   0  0  0  0  0  0  0  0  0  0  0  0
   35.7130   30.0660   40.3200 H   0  0  0  0  0  0  0  0  0  0  0  0
   38.0260   32.1650   40.6550 C   0  0  1  0  0  0  0  0  0  0  0  0
   37.1190   32.1860   39.4410 C   0  0  0  0  0  0  0  0  0  0  0  0
   37.6670   30.8960   40.0440 C   0  0  2  0  0  0  0  0  0  0  0  0
   37.5160   32.6520   41.5210 H   0  0  0  0  0  0  0  0  0  0  0  0
   36.0400   32.3600   39.5470 H   0  0  0  0  0  0  0  0  0  0  0  0
   37.5800   32.4740   38.4690 H   0  0  0  0  0  0  0  0  0  0  0  0
   38.5020   30.3930   39.4760 H   0  0  0  0  0  0  0  0  0  0  0  0
   40.9080   34.1600   39.4130 C   0  0  0  0  0  0  0  0  0  0  0  0
   41.9770   33.6230   40.1960 C   0  0  0  0  0  0  0  0  0  0  0  0
   41.6690   32.5990   41.1300 C   0  0  0  0  0  0  0  0  0  0  0  0
   40.4090   32.1640   41.2570 N   0  0  0  0  0  0  0  0  0  0  0  0
   39.4150   32.6970   40.4960 C   0  0  0  0  0  0  0  0  0  0  0  0
   39.6700   33.6910   39.5800 N   0  0  0  0  0  0  0  0  0  0  0  0
   41.0710   34.9320   38.6900 H   0  0  0  0  0  0  0  0  0  0  0  0
   42.9350   34.0460   40.0070 H   0  0  0  0  0  0  0  0  0  0  0  0
   42.5070   32.2290   41.6940 H   0  0  0  0  0  0  0  0  0  0  0  0
  1  2  1  0  0  0  0
  2 11  1  0  0  0  0
  2  3  2  0  0  0  0
  3 12  1  0  0  0  0
  4  3  1  0  0  0  0
  4 13  1  0  0  0  0
  5  4  2  0  0  0  0
  6  5  1  0  0  0  0
  6 14  1  0  0  0  0
  7  6  2  0  0  0  0
  8  9  2  0  0  0  0
  8  7  1  0  0  0  0
  9 10  1  0  0  0  0
 10  1  2  0  0  0  0
 10  5  1  0  0  0  0
 15  7  1  0  0  0  0
 16  8  1  0  0  0  0
 17 24  1  0  0  0  0
 17 18  1  0  0  0  0
 18  9  1  0  0  0  0
 19 18  2  0  0  0  0
 19 20  1  0  0  0  0
 21 19  1  0  0  0  0
 22 23  1  0  0  0  0
 22 21  2  0  0  0  0
 23 17  2  0  0  0  0
 24 25  1  0  0  0  0
 26 23  1  0  0  0  0
 27 26  1  0  0  0  0
 28  1  1  0  0  0  0
 29 28  1  0  0  0  0
 30 33  1  1  0  0  0
 31 34  1  0  0  0  0
 31 32  1  0  0  0  0
 31 30  1  0  0  0  0
 32 36  1  6  0  0  0
 32 28  1  0  0  0  0
 32 30  1  0  0  0  0
 35 31  1  0  0  0  0
 37 42  2  0  0  0  0
 37 38  1  0  0  0  0
 38 39  2  0  0  0  0
 39 40  1  0  0  0  0
 39 45  1  0  0  0  0
 41 30  1  0  0  0  0
 41 40  2  0  0  0  0
 42 41  1  0  0  0  0
 43 37  1  0  0  0  0
 44 38  1  0  0  0  0
M  END
>  <minimizedAffinity>
-6.91091442

$$$$

 OpenBabel03242511103D

 45 49  0  0  1  0  0  0  0  0999 V2000
   39.4750   27.5370   42.2340 C   0  0  0  0  0  0  0  0  0  0  0  0
   40.4090   27.1500   43.1900 C   0  0  0  0  0  0  0  0  0  0  0  0
   40.5070   25.8530   43.6800 C   0  0  0  0  0  0  0  0  0  0  0  0
   39.6520   24.8790   43.2170 C   0  0  0  0  0  0  0  0  0  0  0  0
   38.7220   25.2240   42.2760 C   0  0  0  0  0  0  0  0  0  0  0  0
   37.8690   24.2490   41.8090 C   0  0  0  0  0  0  0  0  0  0  0  0
   36.9040   24.5290   40.8510 C   0  0  0  0  0  0  0  0  0  0  0  0
   36.8410   25.8380   40.3860 C   0  0  0  0  0  0  0  0  0  0  0  0
   37.7200   26.7930   40.8820 C   0  0  0  0  0  0  0  0  0  0  0  0
   38.6630   26.5120   41.8230 C   0  0  0  0  0  0  0  0  0  0  0  0
   41.1190   27.8460   43.6080 H   0  0  0  0  0  0  0  0  0  0  0  0
   41.2480   25.5900   44.4250 H   0  0  0  0  0  0  0  0  0  0  0  0
   39.7360   23.8720   43.6040 H   0  0  0  0  0  0  0  0  0  0  0  0
   37.9660   23.2430   42.2100 H   0  0  0  0  0  0  0  0  0  0  0  0
   36.2860   23.6870   40.5560 H   0  0  0  0  0  0  0  0  0  0  0  0
   36.0540   25.9270   39.6470 H   0  0  0  0  0  0  0  0  0  0  0  0
   36.6780   28.8630   41.0420 C   0  0  0  0  0  0  0  0  0  0  0  0
   37.4260   28.0320   40.1850 C   0  0  0  0  0  0  0  0  0  0  0  0
   37.7460   28.5450   38.9450 C   0  0  0  0  0  0  0  0  0  0  0  0
   38.3190   27.8150   38.3990 H   0  0  0  0  0  0  0  0  0  0  0  0
   37.3520   29.8080   38.5670 C   0  0  0  0  0  3  0  0  0  0  0  0
   36.6210   30.6320   39.3930 C   0  0  0  0  0  3  0  0  0  0  0  0
   36.2870   30.1450   40.6390 C   0  0  0  0  0  0  0  0  0  0  0  0
   36.2360   28.5640   42.3440 O   0  0  0  0  0  0  0  0  0  0  0  0
   35.2650   28.2850   42.4530 H   0  0  0  0  0  0  0  0  0  0  0  0
   35.5500   31.0120   41.4340 O   0  0  0  0  0  0  0  0  0  0  0  0
   36.0490   31.8520   41.7420 H   0  0  0  0  0  0  0  0  0  0  0  0
   39.4430   28.8700   41.8030 N   0  0  0  0  0  0  0  0  0  0  0  0
   38.5260   29.3310   41.6230 H   0  0  0  0  0  0  0  0  0  0  0  0
   40.6740   30.9350   40.9510 C   0  0  1  0  0  0  0  0  0  0  0  0
   41.1060   29.7470   40.1160 C   0  0  0  0  0  0  0  0  0  0  0  0
   40.6470   29.6180   41.5650 C   0  0  2  0  0  0  0  0  0  0  0  0
   39.8170   31.4560   40.4600 H   0  0  0  0  0  0  0  0  0  0  0  0
   40.4430   29.3260   39.3480 H   0  0  0  0  0  0  0  0  0  0  0  0
   42.2010   29.6050   39.9640 H   0  0  0  0  0  0  0  0  0  0  0  0
   41.4540   29.4370   42.3320 H   0  0  0  0  0  0  0  0  0  0  0  0
   42.7760   34.0010   41.0400 C   0  0  0  0  0  0  0  0  0  0  0  0
   43.6880   33.6840   42.0950 C   0  0  0  0  0  0  0  0  0  0  0  0
   43.5430   32.4310   42.7450 C   0  0  0  0  0  0  0  0  0  0  0  0
   42.5770   31.5860   42.3660 N   0  0  0  0  0  0  0  0  0  0  0  0
   41.7250   31.9190   41.3570 C   0  0  0  0  0  0  0  0  0  0  0  0
   41.8300   33.1240   40.7020 N   0  0  0  0  0  0  0  0  0  0  0  0
   42.8300   34.9280   40.5080 H   0  0  0  0  0  0  0  0  0  0  0  0
   44.4140   34.4330   42.3070 H   0  0  0  0  0  0  0  0  0  0  0  0
   44.2530   32.2400   43.5310 H   0  0  0  0  0  0  0  0  0  0  0  0
  1  2  1  0  0  0  0
  2 11  1  0  0  0  0
  2  3  2  0  0  0  0
  3 12  1  0  0  0  0
  4 13  1  0  0  0  0
  4  3  1  0  0  0  0
  5  4  2  0  0  0  0
  6 14  1  0  0  0  0
  6  5  1  0  0  0  0
  7  6  2  0  0  0  0
  8  7  1  0  0  0  0
  8  9  2  0  0  0  0
  9 10  1  0  0  0  0
 10  1  2  0  0  0  0
 10  5  1  0  0  0  0
 15  7  1  0  0  0  0
 16  8  1  0  0  0  0
 17 24  1  0  0  0  0
 18  9  1  0  0  0  0
 18 17  2  0  0  0  0
 19 18  1  0  0  0  0
 20 19  1  0  0  0  0
 21 19  2  0  0  0  0
 21 22  1  0  0  0  0
 22 23  2  0  0  0  0
 23 17  1  0  0  0  0
 23 26  1  0  0  0  0
 24 25  1  0  0  0  0
 26 27  1  0  0  0  0
 28  1  1  0  0  0  0
 29 28  1  0  0  0  0
 30 33  1  6  0  0  0
 30 41  1  0  0  0  0
 30 32  1  0  0  0  0
 31 30  1  0  0  0  0
 31 32  1  0  0  0  0
 32 28  1  0  0  0  0
 32 36  1  1  0  0  0
 34 31  1  0  0  0  0
 35 31  1  0  0  0  0
 37 38  1  0  0  0  0
 38 44  1  0  0  0  0
 38 39  2  0  0  0  0
 39 45  1  0  0  0  0
 40 39  1  0  0  0  0
 41 40  2  0  0  0  0
 42 37  2  0  0  0  0
 42 41  1  0  0  0  0
 43 37  1  0  0  0  0
M  END
>  <minimizedAffinity>
-6.89414072

$$$$

 OpenBabel03242511103D

 45 49  0  0  1  0  0  0  0  0999 V2000
   37.3910   30.9950   40.1150 C   0  0  0  0  0  0  0  0  0  0  0  0
   36.9520   32.1820   39.5370 C   0  0  0  0  0  0  0  0  0  0  0  0
   37.6910   33.3590   39.5570 C   0  0  0  0  0  0  0  0  0  0  0  0
   38.9220   33.3850   40.1710 C   0  0  0  0  0  0  0  0  0  0  0  0
   39.3860   32.2350   40.7490 C   0  0  0  0  0  0  0  0  0  0  0  0
   40.6190   32.2590   41.3610 C   0  0  0  0  0  0  0  0  0  0  0  0
   41.1510   31.1270   41.9630 C   0  0  0  0  0  0  0  0  0  0  0  0
   40.3800   29.9710   41.9190 C   0  0  0  0  0  0  0  0  0  0  0  0
   39.1400   29.9870   41.2920 C   0  0  0  0  0  0  0  0  0  0  0  0
   38.6230   31.1010   40.7040 C   0  0  0  0  0  0  0  0  0  0  0  0
   36.0010   32.2540   39.0330 H   0  0  0  0  0  0  0  0  0  0  0  0
   37.3160   34.2640   39.0950 H   0  0  0  0  0  0  0  0  0  0  0  0
   39.4910   34.3060   40.1820 H   0  0  0  0  0  0  0  0  0  0  0  0
   41.1750   33.1930   41.3630 H   0  0  0  0  0  0  0  0  0  0  0  0
   42.1290   31.2590   42.4150 H   0  0  0  0  0  0  0  0  0  0  0  0
   40.9010   29.1640   42.4200 H   0  0  0  0  0  0  0  0  0  0  0  0
   37.6360   28.6110   42.4050 C   0  0  0  0  0  0  0  0  0  0  0  0
   38.6080   28.6400   41.3870 C   0  0  0  0  0  0  0  0  0  0  0  0
   38.8180   27.4650   40.6950 C   0  0  0  0  0  0  0  0  0  0  0  0
   39.5760   27.6280   39.9460 H   0  0  0  0  0  0  0  0  0  0  0  0
   38.1120   26.3220   40.9890 C   0  0  0  0  0  3  0  0  0  0  0  0
   37.1580   26.2780   41.9820 C   0  0  0  0  0  3  0  0  0  0  0  0
   36.9270   27.4380   42.6890 C   0  0  0  0  0  0  0  0  0  0  0  0
   37.2470   29.6750   43.2400 O   0  0  0  0  0  0  0  0  0  0  0  0
   37.6290   29.6910   44.1820 H   0  0  0  0  0  0  0  0  0  0  0  0
   35.9580   27.3440   43.6790 O   0  0  0  0  0  0  0  0  0  0  0  0
   35.0030   27.1930   43.3420 H   0  0  0  0  0  0  0  0  0  0  0  0
   36.5740   29.8570   40.0540 N   0  0  0  0  0  0  0  0  0  0  0  0
   36.3750   29.3190   40.9240 H   0  0  0  0  0  0  0  0  0  0  0  0
   34.6890   28.8370   38.6730 C   0  0  1  0  0  0  0  0  0  0  0  0
   35.8590   27.8750   38.6610 C   0  0  0  0  0  0  0  0  0  0  0  0
   36.0280   29.3830   38.8120 C   0  0  2  0  0  0  0  0  0  0  0  0
   33.9880   28.5770   39.5020 H   0  0  0  0  0  0  0  0  0  0  0  0
   36.0930   27.2610   39.5410 H   0  0  0  0  0  0  0  0  0  0  0  0
   36.1740   27.4710   37.6710 H   0  0  0  0  0  0  0  0  0  0  0  0
   36.4090   29.9380   37.9070 H   0  0  0  0  0  0  0  0  0  0  0  0
   33.9460   29.1730   35.0440 C   0  0  0  0  0  0  0  0  0  0  0  0
   32.5430   29.4450   35.0700 C   0  0  0  0  0  0  0  0  0  0  0  0
   31.8990   29.4960   36.3350 C   0  0  0  0  0  0  0  0  0  0  0  0
   32.6020   29.2930   37.4550 N   0  0  0  0  0  0  0  0  0  0  0  0
   33.9380   29.0350   37.3940 C   0  0  0  0  0  0  0  0  0  0  0  0
   34.6010   28.9760   36.1900 N   0  0  0  0  0  0  0  0  0  0  0  0
   34.4930   29.1210   34.1260 H   0  0  0  0  0  0  0  0  0  0  0  0
   32.0910   29.5910   34.1180 H   0  0  0  0  0  0  0  0  0  0  0  0
   30.8430   29.7040   36.3010 H   0  0  0  0  0  0  0  0  0  0  0  0
  1 10  1  0  0  0  0
  2  3  1  0  0  0  0
  2  1  2  0  0  0  0
  3  4  2  0  0  0  0
  4 13  1  0  0  0  0
  4  5  1  0  0  0  0
  5  6  1  0  0  0  0
  6 14  1  0  0  0  0
  6  7  2  0  0  0  0
  7 15  1  0  0  0  0
  8  7  1  0  0  0  0
  8 16  1  0  0  0  0
  9 18  1  0  0  0  0
  9  8  2  0  0  0  0
 10  5  2  0  0  0  0
 10  9  1  0  0  0  0
 11  2  1  0  0  0  0
 12  3  1  0  0  0  0
 17 23  1  0  0  0  0
 17 24  1  0  0  0  0
 18 17  2  0  0  0  0
 19 21  2  0  0  0  0
 19 18  1  0  0  0  0
 20 19  1  0  0  0  0
 21 22  1  0  0  0  0
 22 23  2  0  0  0  0
 23 26  1  0  0  0  0
 24 25  1  0  0  0  0
 27 26  1  0  0  0  0
 28  1  1  0  0  0  0
 28 29  1  0  0  0  0
 30 32  1  0  0  0  0
 30 33  1  1  0  0  0
 31 30  1  0  0  0  0
 31 32  1  0  0  0  0
 31 34  1  0  0  0  0
 32 36  1  6  0  0  0
 32 28  1  0  0  0  0
 35 31  1  0  0  0  0
 37 38  2  0  0  0  0
 37 42  1  0  0  0  0
 38 39  1  0  0  0  0
 39 40  2  0  0  0  0
 41 40  1  0  0  0  0
 41 30  1  0  0  0  0
 42 41  2  0  0  0  0
 43 37  1  0  0  0  0
 44 38  1  0  0  0  0
 45 39  1  0  0  0  0
M  END
>  <minimizedAffinity>
-6.48598242

$$$$

 OpenBabel03242511103D

 45 49  0  0  1  0  0  0  0  0999 V2000
   37.2430   26.6500   40.1920 C   0  0  0  0  0  0  0  0  0  0  0  0
   36.6300   25.4010   40.2140 C   0  0  0  0  0  0  0  0  0  0  0  0
   36.8380   24.4680   41.2220 C   0  0  0  0  0  0  0  0  0  0  0  0
   37.6850   24.7620   42.2650 C   0  0  0  0  0  0  0  0  0  0  0  0
   38.3030   25.9820   42.2770 C   0  0  0  0  0  0  0  0  0  0  0  0
   39.1480   26.2800   43.3230 C   0  0  0  0  0  0  0  0  0  0  0  0
   39.8030   27.5010   43.3990 C   0  0  0  0  0  0  0  0  0  0  0  0
   39.5670   28.4070   42.3710 C   0  0  0  0  0  0  0  0  0  0  0  0
   38.7070   28.0690   41.3340 C   0  0  0  0  0  0  0  0  0  0  0  0
   38.0680   26.8690   41.2640 C   0  0  0  0  0  0  0  0  0  0  0  0
   35.9510   25.0850   39.4380 H   0  0  0  0  0  0  0  0  0  0  0  0
   36.3430   23.5040   41.2040 H   0  0  0  0  0  0  0  0  0  0  0  0
   37.8410   24.0290   43.0460 H   0  0  0  0  0  0  0  0  0  0  0  0
   39.2930   25.5310   44.0980 H   0  0  0  0  0  0  0  0  0  0  0  0
   40.4450   27.6290   44.2650 H   0  0  0  0  0  0  0  0  0  0  0  0
   40.1320   29.3140   42.5460 H   0  0  0  0  0  0  0  0  0  0  0  0
   37.6750   30.1130   40.9430 C   0  0  0  0  0  0  0  0  0  0  0  0
   38.6470   29.2200   40.4520 C   0  0  0  0  0  0  0  0  0  0  0  0
   39.3350   29.6120   39.3210 C   0  0  0  0  0  0  0  0  0  0  0  0
   40.0460   28.8460   39.0590 H   0  0  0  0  0  0  0  0  0  0  0  0
   39.0820   30.8160   38.7070 C   0  0  0  0  0  3  0  0  0  0  0  0
   38.1350   31.7000   39.1760 C   0  0  0  0  0  3  0  0  0  0  0  0
   37.4330   31.3340   40.3040 C   0  0  0  0  0  0  0  0  0  0  0  0
   36.8530   29.9380   42.0710 O   0  0  0  0  0  0  0  0  0  0  0  0
   35.8940   29.6430   41.9070 H   0  0  0  0  0  0  0  0  0  0  0  0
   36.4900   32.2570   40.7370 O   0  0  0  0  0  0  0  0  0  0  0  0
   36.8720   33.1390   41.0900 H   0  0  0  0  0  0  0  0  0  0  0  0
   36.9800   27.5270   39.1300 N   0  0  0  0  0  0  0  0  0  0  0  0
   37.7680   28.0420   38.6820 H   0  0  0  0  0  0  0  0  0  0  0  0
   35.2550   28.9390   37.8940 C   0  0  1  0  0  0  0  0  0  0  0  0
   34.8540   28.8720   39.3530 C   0  0  0  0  0  0  0  0  0  0  0  0
   35.6450   27.7670   38.6590 C   0  0  2  0  0  0  0  0  0  0  0  0
   35.8760   29.8490   37.7090 H   0  0  0  0  0  0  0  0  0  0  0  0
   35.3880   29.4590   40.1120 H   0  0  0  0  0  0  0  0  0  0  0  0
   33.7940   28.6110   39.5770 H   0  0  0  0  0  0  0  0  0  0  0  0
   35.0750   26.8270   38.4060 H   0  0  0  0  0  0  0  0  0  0  0  0
   31.9050   29.0830   36.2850 C   0  0  0  0  0  0  0  0  0  0  0  0
   32.1980   28.5710   34.9830 C   0  0  0  0  0  0  0  0  0  0  0  0
   33.5390   28.2010   34.7000 C   0  0  0  0  0  0  0  0  0  0  0  0
   34.4850   28.3350   35.6380 N   0  0  0  0  0  0  0  0  0  0  0  0
   34.1700   28.8280   36.8680 C   0  0  0  0  0  0  0  0  0  0  0  0
   32.8840   29.1990   37.1840 N   0  0  0  0  0  0  0  0  0  0  0  0
   30.9150   29.3800   36.5640 H   0  0  0  0  0  0  0  0  0  0  0  0
   31.3670   28.5080   34.3220 H   0  0  0  0  0  0  0  0  0  0  0  0
   33.7080   27.8210   33.7070 H   0  0  0  0  0  0  0  0  0  0  0  0
  1  2  2  0  0  0  0
  1 10  1  0  0  0  0
  2  3  1  0  0  0  0
  3  4  2  0  0  0  0
  4  5  1  0  0  0  0
  4 13  1  0  0  0  0
  5  6  1  0  0  0  0
  6  7  2  0  0  0  0
  6 14  1  0  0  0  0
  7 15  1  0  0  0  0
  8 16  1  0  0  0  0
  8  7  1  0  0  0  0
  9  8  2  0  0  0  0
 10  9  1  0  0  0  0
 10  5  2  0  0  0  0
 11  2  1  0  0  0  0
 12  3  1  0  0  0  0
 17 24  1  0  0  0  0
 18 17  1  0  0  0  0
 18  9  1  0  0  0  0
 19 18  2  0  0  0  0
 20 19  1  0  0  0  0
 21 22  2  0  0  0  0
 21 19  1  0  0  0  0
 22 23  1  0  0  0  0
 23 26  1  0  0  0  0
 23 17  2  0  0  0  0
 25 24  1  0  0  0  0
 26 27  1  0  0  0  0
 28  1  1  0  0  0  0
 29 28  1  0  0  0  0
 30 33  1  6  0  0  0
 30 32  1  0  0  0  0
 30 31  1  0  0  0  0
 31 35  1  0  0  0  0
 31 34  1  0  0  0  0
 32 36  1  6  0  0  0
 32 28  1  0  0  0  0
 32 31  1  0  0  0  0
 37 43  1  0  0  0  0
 37 42  1  0  0  0  0
 38 37  2  0  0  0  0
 39 38  1  0  0  0  0
 39 40  2  0  0  0  0
 40 41  1  0  0  0  0
 41 42  2  0  0  0  0
 41 30  1  0  0  0  0
 44 38  1  0  0  0  0
 45 39  1  0  0  0  0
M  END
>  <minimizedAffinity>
-6.36825895

$$$$

 OpenBabel03242511103D

 45 49  0  0  1  0  0  0  0  0999 V2000
   37.0800   31.1150   40.8400 C   0  0  0  0  0  0  0  0  0  0  0  0
   36.7790   32.2400   40.0780 C   0  0  0  0  0  0  0  0  0  0  0  0
   37.7080   33.2300   39.7810 C   0  0  0  0  0  0  0  0  0  0  0  0
   38.9970   33.1240   40.2480 C   0  0  0  0  0  0  0  0  0  0  0  0
   39.3290   32.0300   41.0000 C   0  0  0  0  0  0  0  0  0  0  0  0
   40.6210   31.9200   41.4650 C   0  0  0  0  0  0  0  0  0  0  0  0
   41.0250   30.8340   42.2290 C   0  0  0  0  0  0  0  0  0  0  0  0
   40.0650   29.8650   42.5020 C   0  0  0  0  0  0  0  0  0  0  0  0
   38.7730   30.0120   42.0150 C   0  0  0  0  0  0  0  0  0  0  0  0
   38.3820   31.0810   41.2660 C   0  0  0  0  0  0  0  0  0  0  0  0
   35.7950   32.4060   39.6700 H   0  0  0  0  0  0  0  0  0  0  0  0
   37.4360   34.0920   39.1840 H   0  0  0  0  0  0  0  0  0  0  0  0
   39.7140   33.9000   40.0120 H   0  0  0  0  0  0  0  0  0  0  0  0
   41.3260   32.7100   41.2190 H   0  0  0  0  0  0  0  0  0  0  0  0
   42.0640   30.8500   42.5430 H   0  0  0  0  0  0  0  0  0  0  0  0
   40.5030   29.0760   43.1020 H   0  0  0  0  0  0  0  0  0  0  0  0
   38.2660   27.8020   41.5120 C   0  0  0  0  0  0  0  0  0  0  0  0
   38.0320   28.8380   42.4370 C   0  0  0  0  0  0  0  0  0  0  0  0
   37.2280   28.5370   43.5170 C   0  0  0  0  0  0  0  0  0  0  0  0
   37.1380   29.4090   44.1440 H   0  0  0  0  0  0  0  0  0  0  0  0
   36.6820   27.2850   43.6790 C   0  0  0  0  0  3  0  0  0  0  0  0
   36.9010   26.2610   42.7840 C   0  0  0  0  0  3  0  0  0  0  0  0
   37.7020   26.5350   41.6950 C   0  0  0  0  0  0  0  0  0  0  0  0
   39.0460   27.8660   40.3430 O   0  0  0  0  0  0  0  0  0  0  0  0
   38.5530   27.9760   39.4600 H   0  0  0  0  0  0  0  0  0  0  0  0
   37.8920   25.4730   40.8210 O   0  0  0  0  0  0  0  0  0  0  0  0
   38.4320   24.6880   41.1980 H   0  0  0  0  0  0  0  0  0  0  0  0
   36.0770   30.1700   41.0970 N   0  0  0  0  0  0  0  0  0  0  0  0
   35.5810   30.1820   42.0130 H   0  0  0  0  0  0  0  0  0  0  0  0
   35.7050   29.3670   38.7050 C   0  0  1  0  0  0  0  0  0  0  0  0
   34.3840   29.2860   39.4430 C   0  0  0  0  0  0  0  0  0  0  0  0
   35.7340   29.1530   40.1420 C   0  0  2  0  0  0  0  0  0  0  0  0
   35.7890   30.3480   38.1780 H   0  0  0  0  0  0  0  0  0  0  0  0
   33.8030   30.1920   39.6600 H   0  0  0  0  0  0  0  0  0  0  0  0
   33.8130   28.3330   39.3560 H   0  0  0  0  0  0  0  0  0  0  0  0
   36.0340   28.1130   40.4580 H   0  0  0  0  0  0  0  0  0  0  0  0
   35.8270   27.2050   35.6820 C   0  0  0  0  0  0  0  0  0  0  0  0
   36.6850   26.1510   36.1270 C   0  0  0  0  0  0  0  0  0  0  0  0
   37.1990   26.2250   37.4480 C   0  0  0  0  0  0  0  0  0  0  0  0
   36.8770   27.2570   38.2370 N   0  0  0  0  0  0  0  0  0  0  0  0
   36.0570   28.2440   37.7810 C   0  0  0  0  0  0  0  0  0  0  0  0
   35.5380   28.2120   36.5080 N   0  0  0  0  0  0  0  0  0  0  0  0
   35.4050   27.2100   34.6980 H   0  0  0  0  0  0  0  0  0  0  0  0
   36.8690   25.3840   35.4130 H   0  0  0  0  0  0  0  0  0  0  0  0
   37.8390   25.4080   37.7350 H   0  0  0  0  0  0  0  0  0  0  0  0
  1 28  1  0  0  0  0
  1 10  1  0  0  0  0
  2  1  2  0  0  0  0
  3  2  1  0  0  0  0
  3  4  2  0  0  0  0
  4  5  1  0  0  0  0
  5 10  2  0  0  0  0
  5  6  1  0  0  0  0
  6  7  2  0  0  0  0
  7  8  1  0  0  0  0
  7 15  1  0  0  0  0
  8 16  1  0  0  0  0
  9 18  1  0  0  0  0
  9  8  2  0  0  0  0
 10  9  1  0  0  0  0
 11  2  1  0  0  0  0
 12  3  1  0  0  0  0
 13  4  1  0  0  0  0
 14  6  1  0  0  0  0
 17 23  2  0  0  0  0
 17 18  1  0  0  0  0
 18 19  2  0  0  0  0
 19 21  1  0  0  0  0
 19 20  1  0  0  0  0
 22 21  2  0  0  0  0
 23 22  1  0  0  0  0
 24 17  1  0  0  0  0
 25 24  1  0  0  0  0
 26 27  1  0  0  0  0
 26 23  1  0  0  0  0
 28 29  1  0  0  0  0
 30 33  1  6  0  0  0
 30 31  1  0  0  0  0
 30 32  1  0  0  0  0
 31 34  1  0  0  0  0
 31 32  1  0  0  0  0
 32 36  1  1  0  0  0
 32 28  1  0  0  0  0
 35 31  1  0  0  0  0
 37 38  2  0  0  0  0
 37 42  1  0  0  0  0
 38 39  1  0  0  0  0
 39 45  1  0  0  0  0
 39 40  2  0  0  0  0
 41 40  1  0  0  0  0
 41 30  1  0  0  0  0
 42 41  2  0  0  0  0
 43 37  1  0  0  0  0
 44 38  1  0  0  0  0
M  END
>  <minimizedAffinity>
-6.28495741

$$$$

 OpenBabel03242511103D

 45 49  0  0  1  0  0  0  0  0999 V2000
   36.6830   26.4380   38.5670 C   0  0  0  0  0  0  0  0  0  0  0  0
   36.1600   25.5290   37.6520 C   0  0  0  0  0  0  0  0  0  0  0  0
   35.8000   24.2300   37.9900 C   0  0  0  0  0  0  0  0  0  0  0  0
   35.9540   23.7900   39.2840 C   0  0  0  0  0  0  0  0  0  0  0  0
   36.4630   24.6580   40.2100 C   0  0  0  0  0  0  0  0  0  0  0  0
   36.6140   24.2200   41.5070 C   0  0  0  0  0  0  0  0  0  0  0  0
   37.1210   25.0500   42.4970 C   0  0  0  0  0  0  0  0  0  0  0  0
   37.4680   26.3420   42.1180 C   0  0  0  0  0  0  0  0  0  0  0  0
   37.3000   26.7460   40.8000 C   0  0  0  0  0  0  0  0  0  0  0  0
   36.8040   25.9270   39.8320 C   0  0  0  0  0  0  0  0  0  0  0  0
   36.0040   25.7870   36.6170 H   0  0  0  0  0  0  0  0  0  0  0  0
   35.3960   23.5500   37.2490 H   0  0  0  0  0  0  0  0  0  0  0  0
   35.6700   22.7770   39.5380 H   0  0  0  0  0  0  0  0  0  0  0  0
   36.3250   23.1980   41.7430 H   0  0  0  0  0  0  0  0  0  0  0  0
   37.1970   24.6020   43.4830 H   0  0  0  0  0  0  0  0  0  0  0  0
   37.8470   26.8850   42.9750 H   0  0  0  0  0  0  0  0  0  0  0  0
   36.6100   28.9510   41.0370 C   0  0  0  0  0  0  0  0  0  0  0  0
   37.7160   28.1350   40.7340 C   0  0  0  0  0  0  0  0  0  0  0  0
   38.9130   28.7770   40.4890 C   0  0  0  0  0  0  0  0  0  0  0  0
   39.6710   28.0400   40.2780 H   0  0  0  0  0  0  0  0  0  0  0  0
   39.0160   30.1470   40.5400 C   0  0  0  0  0  3  0  0  0  0  0  0
   37.9440   30.9590   40.8360 C   0  0  0  0  0  3  0  0  0  0  0  0
   36.7360   30.3440   41.0850 C   0  0  0  0  0  0  0  0  0  0  0  0
   35.2970   28.5320   41.3230 O   0  0  0  0  0  0  0  0  0  0  0  0
   34.6130   28.6040   40.5740 H   0  0  0  0  0  0  0  0  0  0  0  0
   35.6850   31.2030   41.3780 O   0  0  0  0  0  0  0  0  0  0  0  0
   35.7700   31.7100   42.2640 H   0  0  0  0  0  0  0  0  0  0  0  0
   37.0260   27.7270   38.1360 N   0  0  0  0  0  0  0  0  0  0  0  0
   37.7190   28.2840   38.6800 H   0  0  0  0  0  0  0  0  0  0  0  0
   36.5950   29.7170   36.6010 C   0  0  1  0  0  0  0  0  0  0  0  0
   35.2770   29.3030   37.2220 C   0  0  0  0  0  0  0  0  0  0  0  0
   36.4210   28.3240   36.9780 C   0  0  2  0  0  0  0  0  0  0  0  0
   37.0740   30.5170   37.2160 H   0  0  0  0  0  0  0  0  0  0  0  0
   35.0460   29.5430   38.2680 H   0  0  0  0  0  0  0  0  0  0  0  0
   34.4090   29.1800   36.5330 H   0  0  0  0  0  0  0  0  0  0  0  0
   36.2960   27.6130   36.1120 H   0  0  0  0  0  0  0  0  0  0  0  0
   36.5560   31.7780   33.5050 C   0  0  0  0  0  0  0  0  0  0  0  0
   36.5490   30.7650   32.4960 C   0  0  0  0  0  0  0  0  0  0  0  0
   36.5660   29.4090   32.9140 C   0  0  0  0  0  0  0  0  0  0  0  0
   36.5880   29.1090   34.2190 N   0  0  0  0  0  0  0  0  0  0  0  0
   36.5940   30.0990   35.1530 C   0  0  0  0  0  0  0  0  0  0  0  0
   36.5790   31.4250   34.7920 N   0  0  0  0  0  0  0  0  0  0  0  0
   36.5440   32.8200   33.2590 H   0  0  0  0  0  0  0  0  0  0  0  0
   36.5300   31.1230   31.4940 H   0  0  0  0  0  0  0  0  0  0  0  0
   36.5600   28.6860   32.1170 H   0  0  0  0  0  0  0  0  0  0  0  0
  1 10  1  0  0  0  0
  2  3  1  0  0  0  0
  2  1  2  0  0  0  0
  3  4  2  0  0  0  0
  4 13  1  0  0  0  0
  4  5  1  0  0  0  0
  5  6  1  0  0  0  0
  6 14  1  0  0  0  0
  6  7  2  0  0  0  0
  7 15  1  0  0  0  0
  8  7  1  0  0  0  0
  8 16  1  0  0  0  0
  9  8  2  0  0  0  0
 10  5  2  0  0  0  0
 10  9  1  0  0  0  0
 11  2  1  0  0  0  0
 12  3  1  0  0  0  0
 17 23  1  0  0  0  0
 17 24  1  0  0  0  0
 18  9  1  0  0  0  0
 18 17  2  0  0  0  0
 19 21  2  0  0  0  0
 19 18  1  0  0  0  0
 20 19  1  0  0  0  0
 21 22  1  0  0  0  0
 22 23  2  0  0  0  0
 23 26  1  0  0  0  0
 25 24  1  0  0  0  0
 26 27  1  0  0  0  0
 28  1  1  0  0  0  0
 28 29  1  0  0  0  0
 30 32  1  0  0  0  0
 30 33  1  1  0  0  0
 30 31  1  0  0  0  0
 31 34  1  0  0  0  0
 32 36  1  6  0  0  0
 32 31  1  0  0  0  0
 32 28  1  0  0  0  0
 35 31  1  0  0  0  0
 37 42  1  0  0  0  0
 38 39  1  0  0  0  0
 38 37  2  0  0  0  0
 39 40  2  0  0  0  0
 40 41  1  0  0  0  0
 41 30  1  0  0  0  0
 42 41  2  0  0  0  0
 43 37  1  0  0  0  0
 44 38  1  0  0  0  0
 45 39  1  0  0  0  0
M  END
>  <minimizedAffinity>
-6.27109528

$$$$

 OpenBabel03242511103D

 45 49  0  0  1  0  0  0  0  0999 V2000
   40.1900   30.8740   38.7620 C   0  0  0  0  0  0  0  0  0  0  0  0
   41.5310   30.9090   39.1320 C   0  0  0  0  0  0  0  0  0  0  0  0
   42.0980   31.9560   39.8480 C   0  0  0  0  0  0  0  0  0  0  0  0
   41.3220   33.0280   40.2250 C   0  0  0  0  0  0  0  0  0  0  0  0
   39.9990   33.0270   39.8800 C   0  0  0  0  0  0  0  0  0  0  0  0
   39.2200   34.0970   40.2610 C   0  0  0  0  0  0  0  0  0  0  0  0
   37.8690   34.1570   39.9470 C   0  0  0  0  0  0  0  0  0  0  0  0
   37.3420   33.0880   39.2320 C   0  0  0  0  0  0  0  0  0  0  0  0
   38.1600   32.0270   38.8660 C   0  0  0  0  0  0  0  0  0  0  0  0
   39.4850   31.9740   39.1750 C   0  0  0  0  0  0  0  0  0  0  0  0
   42.2130   30.1120   38.8800 H   0  0  0  0  0  0  0  0  0  0  0  0
   43.1480   31.9470   40.1170 H   0  0  0  0  0  0  0  0  0  0  0  0
   41.7720   33.8390   40.7820 H   0  0  0  0  0  0  0  0  0  0  0  0
   39.6900   34.9030   40.8190 H   0  0  0  0  0  0  0  0  0  0  0  0
   37.3520   35.0450   40.2960 H   0  0  0  0  0  0  0  0  0  0  0  0
   36.2860   33.2540   39.0510 H   0  0  0  0  0  0  0  0  0  0  0  0
   37.4760   31.2600   36.7830 C   0  0  0  0  0  0  0  0  0  0  0  0
   37.3180   31.0720   38.1700 C   0  0  0  0  0  0  0  0  0  0  0  0
   36.4760   30.0520   38.5670 C   0  0  0  0  0  0  0  0  0  0  0  0
   36.4510   30.0160   39.6430 H   0  0  0  0  0  0  0  0  0  0  0  0
   35.8250   29.2600   37.6500 C   0  0  0  0  0  3  0  0  0  0  0  0
   35.9700   29.4310   36.2910 C   0  0  0  0  0  3  0  0  0  0  0  0
   36.8060   30.4420   35.8660 C   0  0  0  0  0  0  0  0  0  0  0  0
   38.2740   32.2240   36.1410 O   0  0  0  0  0  0  0  0  0  0  0  0
   37.8040   33.0480   35.7750 H   0  0  0  0  0  0  0  0  0  0  0  0
   36.9190   30.5750   34.4880 O   0  0  0  0  0  0  0  0  0  0  0  0
   37.3860   29.7980   34.0120 H   0  0  0  0  0  0  0  0  0  0  0  0
   39.7060   29.7790   38.0330 N   0  0  0  0  0  0  0  0  0  0  0  0
   39.5740   29.8660   37.0020 H   0  0  0  0  0  0  0  0  0  0  0  0
   39.7720   28.1710   40.0100 C   0  0  1  0  0  0  0  0  0  0  0  0
   40.4490   27.5010   38.8310 C   0  0  0  0  0  0  0  0  0  0  0  0
   39.3470   28.5440   38.6710 C   0  0  2  0  0  0  0  0  0  0  0  0
   40.5310   28.6980   40.6370 H   0  0  0  0  0  0  0  0  0  0  0  0
   41.4590   27.7970   38.5170 H   0  0  0  0  0  0  0  0  0  0  0  0
   40.1360   26.4580   38.5930 H   0  0  0  0  0  0  0  0  0  0  0  0
   38.3300   28.1570   38.3740 H   0  0  0  0  0  0  0  0  0  0  0  0
   38.3810   25.2510   41.8450 C   0  0  0  0  0  0  0  0  0  0  0  0
   37.1900   25.8130   42.4020 C   0  0  0  0  0  0  0  0  0  0  0  0
   36.9110   27.1780   42.1340 C   0  0  0  0  0  0  0  0  0  0  0  0
   37.7490   27.9000   41.3810 N   0  0  0  0  0  0  0  0  0  0  0  0
   38.8750   27.3330   40.8660 C   0  0  0  0  0  0  0  0  0  0  0  0
   39.1840   26.0140   41.1010 N   0  0  0  0  0  0  0  0  0  0  0  0
   38.6500   24.2270   42.0070 H   0  0  0  0  0  0  0  0  0  0  0  0
   36.6010   25.1430   42.9830 H   0  0  0  0  0  0  0  0  0  0  0  0
   36.0040   27.5540   42.5760 H   0  0  0  0  0  0  0  0  0  0  0  0
  1  2  2  0  0  0  0
  1 10  1  0  0  0  0
  2  3  1  0  0  0  0
  3 12  1  0  0  0  0
  3  4  2  0  0  0  0
  4 13  1  0  0  0  0
  5  4  1  0  0  0  0
  5  6  1  0  0  0  0
  6 14  1  0  0  0  0
  7  6  2  0  0  0  0
  7 15  1  0  0  0  0
  8  7  1  0  0  0  0
  9 10  1  0  0  0  0
  9  8  2  0  0  0  0
 10  5  2  0  0  0  0
 11  2  1  0  0  0  0
 16  8  1  0  0  0  0
 17 18  1  0  0  0  0
 18 19  2  0  0  0  0
 18  9  1  0  0  0  0
 19 20  1  0  0  0  0
 21 19  1  0  0  0  0
 22 21  2  0  0  0  0
 23 22  1  0  0  0  0
 23 17  2  0  0  0  0
 24 17  1  0  0  0  0
 25 24  1  0  0  0  0
 26 23  1  0  0  0  0
 27 26  1  0  0  0  0
 28 32  1  0  0  0  0
 28  1  1  0  0  0  0
 29 28  1  0  0  0  0
 30 33  1  1  0  0  0
 30 41  1  0  0  0  0
 31 30  1  0  0  0  0
 32 36  1  6  0  0  0
 32 31  1  0  0  0  0
 32 30  1  0  0  0  0
 34 31  1  0  0  0  0
 35 31  1  0  0  0  0
 37 43  1  0  0  0  0
 37 38  1  0  0  0  0
 38 44  1  0  0  0  0
 39 38  2  0  0  0  0
 39 45  1  0  0  0  0
 40 39  1  0  0  0  0
 41 42  1  0  0  0  0
 41 40  2  0  0  0  0
 42 37  2  0  0  0  0
M  END
>  <minimizedAffinity>
-6.2571435

$$$$

 OpenBabel03242511103D

 45 49  0  0  1  0  0  0  0  0999 V2000
   36.6520   27.9380   39.9090 C   0  0  0  0  0  0  0  0  0  0  0  0
   37.2860   28.0200   41.1460 C   0  0  0  0  0  0  0  0  0  0  0  0
   37.6110   26.9060   41.9100 C   0  0  0  0  0  0  0  0  0  0  0  0
   37.3040   25.6460   41.4510 C   0  0  0  0  0  0  0  0  0  0  0  0
   36.6830   25.5280   40.2380 C   0  0  0  0  0  0  0  0  0  0  0  0
   36.3790   24.2670   39.7760 C   0  0  0  0  0  0  0  0  0  0  0  0
   35.7530   24.0760   38.5520 C   0  0  0  0  0  0  0  0  0  0  0  0
   35.4470   25.2170   37.8180 C   0  0  0  0  0  0  0  0  0  0  0  0
   35.7690   26.4710   38.3190 C   0  0  0  0  0  0  0  0  0  0  0  0
   36.3830   26.6520   39.5210 C   0  0  0  0  0  0  0  0  0  0  0  0
   37.5640   28.9650   41.5830 H   0  0  0  0  0  0  0  0  0  0  0  0
   38.1040   27.0090   42.8690 H   0  0  0  0  0  0  0  0  0  0  0  0
   37.5610   24.7840   42.0530 H   0  0  0  0  0  0  0  0  0  0  0  0
   36.6440   23.4140   40.3950 H   0  0  0  0  0  0  0  0  0  0  0  0
   35.5610   23.0420   38.2860 H   0  0  0  0  0  0  0  0  0  0  0  0
   34.9640   24.9360   36.8890 H   0  0  0  0  0  0  0  0  0  0  0  0
   36.4000   27.5950   36.3870 C   0  0  0  0  0  0  0  0  0  0  0  0
   35.3560   27.4380   37.3190 C   0  0  0  0  0  0  0  0  0  0  0  0
   34.2020   28.1600   37.0870 C   0  0  0  0  0  0  0  0  0  0  0  0
   33.4890   27.9430   37.8650 H   0  0  0  0  0  0  0  0  0  0  0  0
   34.0820   28.9910   35.9980 C   0  0  0  0  0  3  0  0  0  0  0  0
   35.0930   29.1550   35.0780 C   0  0  0  0  0  3  0  0  0  0  0  0
   36.2570   28.4460   35.2840 C   0  0  0  0  0  0  0  0  0  0  0  0
   37.6600   26.9700   36.4080 O   0  0  0  0  0  0  0  0  0  0  0  0
   38.4450   27.5180   36.7490 H   0  0  0  0  0  0  0  0  0  0  0  0
   37.2470   28.6450   34.3310 O   0  0  0  0  0  0  0  0  0  0  0  0
   37.0300   28.2880   33.3960 H   0  0  0  0  0  0  0  0  0  0  0  0
   36.3550   29.1170   39.2100 N   0  0  0  0  0  0  0  0  0  0  0  0
   35.3850   29.2790   38.8650 H   0  0  0  0  0  0  0  0  0  0  0  0
   37.1360   31.5330   38.9750 C   0  0  1  0  0  0  0  0  0  0  0  0
   37.2170   30.8740   37.6130 C   0  0  0  0  0  0  0  0  0  0  0  0
   37.3630   30.0980   38.9180 C   0  0  2  0  0  0  0  0  0  0  0  0
   36.1510   32.0450   39.0940 H   0  0  0  0  0  0  0  0  0  0  0  0
   36.3100   30.6840   37.0240 H   0  0  0  0  0  0  0  0  0  0  0  0
   38.1660   31.0020   37.0430 H   0  0  0  0  0  0  0  0  0  0  0  0
   38.4070   29.7740   39.1940 H   0  0  0  0  0  0  0  0  0  0  0  0
   40.4830   33.1480   39.1060 C   0  0  0  0  0  0  0  0  0  0  0  0
   40.2950   34.0970   40.1590 C   0  0  0  0  0  0  0  0  0  0  0  0
   39.0200   34.1540   40.7820 C   0  0  0  0  0  0  0  0  0  0  0  0
   38.0400   33.3350   40.3820 N   0  0  0  0  0  0  0  0  0  0  0  0
   38.2540   32.4440   39.3750 C   0  0  0  0  0  0  0  0  0  0  0  0
   39.4730   32.3560   38.7440 N   0  0  0  0  0  0  0  0  0  0  0  0
   41.4190   33.0520   38.5950 H   0  0  0  0  0  0  0  0  0  0  0  0
   41.1450   34.6920   40.3910 H   0  0  0  0  0  0  0  0  0  0  0  0
   38.9290   34.8830   41.5680 H   0  0  0  0  0  0  0  0  0  0  0  0
  1  2  1  0  0  0  0
  2 11  1  0  0  0  0
  2  3  2  0  0  0  0
  3 12  1  0  0  0  0
  4  3  1  0  0  0  0
  4 13  1  0  0  0  0
  5  4  2  0  0  0  0
  6  5  1  0  0  0  0
  6 14  1  0  0  0  0
  7  6  2  0  0  0  0
  8  9  2  0  0  0  0
  8  7  1  0  0  0  0
  9 10  1  0  0  0  0
 10  1  2  0  0  0  0
 10  5  1  0  0  0  0
 15  7  1  0  0  0  0
 16  8  1  0  0  0  0
 17 24  1  0  0  0  0
 17 18  1  0  0  0  0
 18  9  1  0  0  0  0
 19 18  2  0  0  0  0
 19 20  1  0  0  0  0
 21 19  1  0  0  0  0
 22 23  1  0  0  0  0
 22 21  2  0  0  0  0
 23 17  2  0  0  0  0
 24 25  1  0  0  0  0
 26 23  1  0  0  0  0
 27 26  1  0  0  0  0
 28  1  1  0  0  0  0
 29 28  1  0  0  0  0
 30 33  1  1  0  0  0
 30 41  1  0  0  0  0
 31 32  1  0  0  0  0
 31 30  1  0  0  0  0
 32 30  1  0  0  0  0
 32 36  1  1  0  0  0
 32 28  1  0  0  0  0
 34 31  1  0  0  0  0
 35 31  1  0  0  0  0
 37 38  1  0  0  0  0
 38 44  1  0  0  0  0
 38 39  2  0  0  0  0
 39 45  1  0  0  0  0
 40 39  1  0  0  0  0
 41 40  2  0  0  0  0
 42 37  2  0  0  0  0
 42 41  1  0  0  0  0
 43 37  1  0  0  0  0
M  END
>  <minimizedAffinity>
-6.20142841

$$$$

 OpenBabel03242511103D

 45 49  0  0  1  0  0  0  0  0999 V2000
   38.0460   28.2190   39.5300 C   0  0  0  0  0  0  0  0  0  0  0  0
   37.6860   27.0550   38.8570 C   0  0  0  0  0  0  0  0  0  0  0  0
   37.1250   25.9530   39.4880 C   0  0  0  0  0  0  0  0  0  0  0  0
   36.9010   25.9790   40.8450 C   0  0  0  0  0  0  0  0  0  0  0  0
   37.2420   27.1080   41.5390 C   0  0  0  0  0  0  0  0  0  0  0  0
   37.0140   27.1380   42.8970 C   0  0  0  0  0  0  0  0  0  0  0  0
   37.3320   28.2530   43.6600 C   0  0  0  0  0  0  0  0  0  0  0  0
   37.8900   29.3350   42.9890 C   0  0  0  0  0  0  0  0  0  0  0  0
   38.1040   29.2670   41.6180 C   0  0  0  0  0  0  0  0  0  0  0  0
   37.7910   28.1690   40.8750 C   0  0  0  0  0  0  0  0  0  0  0  0
   37.8250   26.9460   37.7930 H   0  0  0  0  0  0  0  0  0  0  0  0
   36.8580   25.0630   38.9290 H   0  0  0  0  0  0  0  0  0  0  0  0
   36.4640   25.1160   41.3280 H   0  0  0  0  0  0  0  0  0  0  0  0
   36.5750   26.2600   43.3650 H   0  0  0  0  0  0  0  0  0  0  0  0
   37.1110   28.1670   44.7190 H   0  0  0  0  0  0  0  0  0  0  0  0
   38.0920   30.1360   43.6900 H   0  0  0  0  0  0  0  0  0  0  0  0
   37.6020   31.3920   40.8270 C   0  0  0  0  0  0  0  0  0  0  0  0
   38.6580   30.5470   41.2180 C   0  0  0  0  0  0  0  0  0  0  0  0
   39.9290   31.0840   41.1840 C   0  0  0  0  0  0  0  0  0  0  0  0
   40.6350   30.3380   41.5110 H   0  0  0  0  0  0  0  0  0  0  0  0
   40.1500   32.3820   40.7870 C   0  0  0  0  0  3  0  0  0  0  0  0
   39.1280   33.2210   40.4030 C   0  0  0  0  0  3  0  0  0  0  0  0
   37.8480   32.7100   40.4270 C   0  0  0  0  0  0  0  0  0  0  0  0
   36.2320   31.0750   40.7800 O   0  0  0  0  0  0  0  0  0  0  0  0
   35.8370   30.8550   39.8690 H   0  0  0  0  0  0  0  0  0  0  0  0
   36.8520   33.5940   40.0300 O   0  0  0  0  0  0  0  0  0  0  0  0
   36.6980   34.3880   40.6580 H   0  0  0  0  0  0  0  0  0  0  0  0
   38.6140   29.2810   38.8120 N   0  0  0  0  0  0  0  0  0  0  0  0
   38.2390   30.2460   38.9380 H   0  0  0  0  0  0  0  0  0  0  0  0
   41.0670   28.8610   38.2550 C   0  0  1  0  0  0  0  0  0  0  0  0
   40.6800   30.2150   37.6970 C   0  0  0  0  0  0  0  0  0  0  0  0
   39.6820   29.0750   37.8720 C   0  0  2  0  0  0  0  0  0  0  0  0
   41.4990   28.9780   39.2780 H   0  0  0  0  0  0  0  0  0  0  0  0
   40.5590   31.0840   38.3580 H   0  0  0  0  0  0  0  0  0  0  0  0
   40.9590   30.4260   36.6390 H   0  0  0  0  0  0  0  0  0  0  0  0
   39.3630   28.5390   36.9330 H   0  0  0  0  0  0  0  0  0  0  0  0
   44.0480   27.5500   36.4580 C   0  0  0  0  0  0  0  0  0  0  0  0
   43.5060   26.3840   35.8310 C   0  0  0  0  0  0  0  0  0  0  0  0
   42.1360   26.0850   36.0560 C   0  0  0  0  0  0  0  0  0  0  0  0
   41.3930   26.8820   36.8320 N   0  0  0  0  0  0  0  0  0  0  0  0
   41.9410   27.9850   37.4130 C   0  0  0  0  0  0  0  0  0  0  0  0
   43.2630   28.3110   37.2240 N   0  0  0  0  0  0  0  0  0  0  0  0
   45.0720   27.8340   36.3300 H   0  0  0  0  0  0  0  0  0  0  0  0
   44.1910   25.8290   35.2370 H   0  0  0  0  0  0  0  0  0  0  0  0
   41.7770   25.1980   35.5620 H   0  0  0  0  0  0  0  0  0  0  0  0
  1 10  1  0  0  0  0
  2  3  1  0  0  0  0
  2  1  2  0  0  0  0
  3  4  2  0  0  0  0
  4 13  1  0  0  0  0
  4  5  1  0  0  0  0
  5  6  1  0  0  0  0
  6 14  1  0  0  0  0
  6  7  2  0  0  0  0
  7 15  1  0  0  0  0
  8  7  1  0  0  0  0
  8 16  1  0  0  0  0
  9  8  2  0  0  0  0
 10  5  2  0  0  0  0
 10  9  1  0  0  0  0
 11  2  1  0  0  0  0
 12  3  1  0  0  0  0
 17 18  1  0  0  0  0
 18  9  1  0  0  0  0
 19 18  2  0  0  0  0
 19 20  1  0  0  0  0
 21 19  1  0  0  0  0
 22 23  1  0  0  0  0
 22 21  2  0  0  0  0
 23 17  2  0  0  0  0
 24 17  1  0  0  0  0
 25 24  1  0  0  0  0
 26 23  1  0  0  0  0
 26 27  1  0  0  0  0
 28 29  1  0  0  0  0
 28  1  1  0  0  0  0
 30 33  1  1  0  0  0
 31 32  1  0  0  0  0
 31 30  1  0  0  0  0
 31 34  1  0  0  0  0
 32 36  1  6  0  0  0
 32 30  1  0  0  0  0
 32 28  1  0  0  0  0
 35 31  1  0  0  0  0
 37 42  1  0  0  0  0
 38 39  1  0  0  0  0
 38 37  2  0  0  0  0
 39 40  2  0  0  0  0
 40 41  1  0  0  0  0
 41 30  1  0  0  0  0
 42 41  2  0  0  0  0
 43 37  1  0  0  0  0
 44 38  1  0  0  0  0
 45 39  1  0  0  0  0
M  END
>  <minimizedAffinity>
-6.17396164

$$$$
