
 OpenBabel03252500513D

 37 39  0  0  0  0  0  0  0  0999 V2000
   45.1020   34.9640   42.2740 C   0  0  0  0  0  0  0  0  0  0  0  0
   46.0180   35.0330   41.4280 O   0  0  0  0  0  0  0  0  0  0  0  0
   44.9780   34.8700   44.7090 C   0  0  0  0  0  0  0  0  0  0  0  0
   45.3700   34.2850   43.5310 C   0  0  0  0  0  0  0  0  0  0  0  0
   46.0290   33.0360   43.5190 C   0  0  0  0  0  0  0  0  0  0  0  0
   46.2470   32.4570   44.7450 N   0  0  0  0  0  0  0  0  0  0  0  0
   45.8630   33.0310   45.8800 C   0  0  0  0  0  0  0  0  0  0  0  0
   45.2350   34.2260   45.8590 N   0  0  0  0  0  0  0  0  0  0  0  0
   44.4780   35.8050   44.7920 H   0  0  0  0  0  0  0  0  0  0  0  0
   46.3450   32.5610   42.6090 H   0  0  0  0  0  0  0  0  0  0  0  0
   46.1140   32.3840   47.1580 C   0  0  0  0  0  0  0  0  0  0  0  0
   47.3600   32.0250   47.5660 C   0  0  0  0  0  0  0  0  0  0  0  0
   47.6130   31.4160   48.7650 C   0  0  0  0  0  0  0  0  0  0  0  0
   46.5490   31.1710   49.5620 N   0  0  0  0  0  0  0  0  0  0  0  0
   45.3300   31.5230   49.1580 C   0  0  0  0  0  0  0  0  0  0  0  0
   45.0560   32.1200   47.9910 N   0  0  0  0  0  0  0  0  0  0  0  0
   48.2140   32.2190   46.9310 H   0  0  0  0  0  0  0  0  0  0  0  0
   48.5970   31.1250   49.1030 H   0  0  0  0  0  0  0  0  0  0  0  0
   44.4610   31.3340   49.7850 H   0  0  0  0  0  0  0  0  0  0  0  0
   44.0030   35.5880   41.7610 O   0  0  0  0  0  0  0  0  0  0  0  0
   42.9000   34.9310   41.2790 C   0  0  0  0  0  0  0  0  0  0  0  0
   43.0100   34.9340   40.1510 H   0  0  0  0  0  0  0  0  0  0  0  0
   42.7990   33.8520   41.5030 H   0  0  0  0  0  0  0  0  0  0  0  0
   41.5870   35.6750   41.4890 C   0  0  0  0  0  0  0  0  0  0  0  0
   41.6000   36.6700   41.0350 H   0  0  0  0  0  0  0  0  0  0  0  0
   41.3640   35.6500   42.5620 H   0  0  0  0  0  0  0  0  0  0  0  0
   40.2180   35.0610   39.4570 C   0  0  0  0  0  0  0  0  0  0  0  0
   40.5350   34.8680   40.7920 C   0  0  0  0  0  0  0  0  0  0  0  0
   39.8310   33.8800   41.4740 C   0  0  0  0  0  0  0  0  0  0  0  0
   40.0980   33.7480   42.5160 H   0  0  0  0  0  0  0  0  0  0  0  0
   38.8460   33.0940   40.8920 C   0  0  0  0  0  3  0  0  0  0  0  0
   38.5570   33.3180   39.5550 C   0  0  0  0  0  3  0  0  0  0  0  0
   39.2310   34.2820   38.8580 C   0  0  0  0  0  0  0  0  0  0  0  0
   40.8830   36.0270   38.7290 O   0  0  0  0  0  0  0  0  0  0  0  0
   40.5230   36.4140   37.8630 H   0  0  0  0  0  0  0  0  0  0  0  0
   38.8770   34.4380   37.5250 O   0  0  0  0  0  0  0  0  0  0  0  0
   38.5830   33.6480   36.9470 H   0  0  0  0  0  0  0  0  0  0  0  0
  1  4  1  0  0  0  0
  2  1  2  0  0  0  0
  3  9  1  0  0  0  0
  3  8  1  0  0  0  0
  4  3  2  0  0  0  0
  5  4  1  0  0  0  0
  5  6  2  0  0  0  0
  6  7  1  0  0  0  0
  7 11  1  0  0  0  0
  8  7  2  0  0  0  0
 10  5  1  0  0  0  0
 11 12  2  0  0  0  0
 11 16  1  0  0  0  0
 12 13  1  0  0  0  0
 13 18  1  0  0  0  0
 13 14  2  0  0  0  0
 15 14  1  0  0  0  0
 15 19  1  0  0  0  0
 16 15  2  0  0  0  0
 17 12  1  0  0  0  0
 20  1  1  0  0  0  0
 21 24  1  0  0  0  0
 21 23  1  0  0  0  0
 21 20  1  0  0  0  0
 22 21  1  0  0  0  0
 24 26  1  0  0  0  0
 25 24  1  0  0  0  0
 27 28  1  0  0  0  0
 28 29  2  0  0  0  0
 28 24  1  0  0  0  0
 29 30  1  0  0  0  0
 31 29  1  0  0  0  0
 32 31  2  0  0  0  0
 33 27  2  0  0  0  0
 33 32  1  0  0  0  0
 34 27  1  0  0  0  0
 35 34  1  0  0  0  0
 36 33  1  0  0  0  0
 37 36  1  0  0  0  0
M  END
>  <minimizedAffinity>
-6.23505878

>  <minimizedRMSD>
0.763860524

$$$$
