
 OpenBabel03252502543D

 33 35  0  0  0  0  0  0  0  0999 V2000
   46.5890   29.2910   44.6090 Br  0  0  0  0  0  0  0  0  0  0  0  0
   46.0160   30.4790   46.0240 C   0  0  0  0  0  0  0  0  0  0  0  0
   46.3990   31.7880   45.9080 C   0  0  0  0  0  0  0  0  0  0  0  0
   45.9610   32.5980   46.9510 C   0  0  0  0  0  0  0  0  0  0  0  0
   45.2140   32.1550   48.0120 C   0  0  0  0  0  0  0  0  0  0  0  0
   44.8720   30.8340   48.0530 C   0  0  0  0  0  0  0  0  0  0  0  0
   45.2630   29.9600   47.0620 C   0  0  0  0  0  0  0  0  0  0  0  0
   46.2120   33.6630   46.9570 H   0  0  0  0  0  0  0  0  0  0  0  0
   44.8920   32.8190   48.8050 H   0  0  0  0  0  0  0  0  0  0  0  0
   44.2910   30.4110   48.8490 H   0  0  0  0  0  0  0  0  0  0  0  0
   43.7750   28.2660   46.3400 C   0  0  0  0  0  0  0  0  0  0  0  0
   44.9120   28.5270   47.0770 C   0  0  0  0  0  0  0  0  0  0  0  0
   45.5710   27.4970   47.7170 C   0  0  0  0  0  0  0  0  0  0  0  0
   46.4440   27.8130   48.2620 H   0  0  0  0  0  0  0  0  0  0  0  0
   45.0630   26.2210   47.5950 C   0  0  0  0  0  3  0  0  0  0  0  0
   43.9250   25.9550   46.8610 C   0  0  0  0  0  3  0  0  0  0  0  0
   43.2670   27.0060   46.2170 C   0  0  0  0  0  0  0  0  0  0  0  0
   43.0250   29.2330   45.6510 O   0  0  0  0  0  0  0  0  0  0  0  0
   43.1370   30.2240   45.8590 H   0  0  0  0  0  0  0  0  0  0  0  0
   42.1370   26.6190   45.5070 O   0  0  0  0  0  0  0  0  0  0  0  0
   41.2420   26.7280   46.0080 H   0  0  0  0  0  0  0  0  0  0  0  0
   47.1940   32.3830   44.8290 C   0  0  0  0  0  0  0  0  0  0  0  0
   47.9990   33.0020   45.2740 H   0  0  0  0  0  0  0  0  0  0  0  0
   47.7020   31.5580   44.2720 H   0  0  0  0  0  0  0  0  0  0  0  0
   44.4880   33.7080   42.6390 C   0  0  0  0  0  0  0  0  0  0  0  0
   45.0640   34.8940   42.1640 C   0  0  0  0  0  0  0  0  0  0  0  0
   46.3470   35.2110   42.5960 C   0  0  0  0  0  0  0  0  0  0  0  0
   46.9940   34.3740   43.4530 N   0  0  0  0  0  0  0  0  0  0  0  0
   46.4000   33.2230   43.8980 C   0  0  0  0  0  0  0  0  0  0  0  0
   45.1580   32.9180   43.4780 N   0  0  0  0  0  0  0  0  0  0  0  0
   43.4890   33.5020   42.2760 H   0  0  0  0  0  0  0  0  0  0  0  0
   44.5560   35.5680   41.4810 H   0  0  0  0  0  0  0  0  0  0  0  0
   46.8780   36.1030   42.2880 H   0  0  0  0  0  0  0  0  0  0  0  0
  1  2  1  0  0  0  0
  2  7  1  0  0  0  0
  3  2  2  0  0  0  0
  3  4  1  0  0  0  0
  4  8  1  0  0  0  0
  4  5  2  0  0  0  0
  5  6  1  0  0  0  0
  5  9  1  0  0  0  0
  6 10  1  0  0  0  0
  7 12  1  0  0  0  0
  7  6  2  0  0  0  0
 11 12  1  0  0  0  0
 12 13  2  0  0  0  0
 13 14  1  0  0  0  0
 15 13  1  0  0  0  0
 16 15  2  0  0  0  0
 17 11  2  0  0  0  0
 17 16  1  0  0  0  0
 18 19  1  0  0  0  0
 18 11  1  0  0  0  0
 20 21  1  0  0  0  0
 20 17  1  0  0  0  0
 22 23  1  0  0  0  0
 22  3  1  0  0  0  0
 24 22  1  0  0  0  0
 25 30  1  0  0  0  0
 26 27  1  0  0  0  0
 26 25  2  0  0  0  0
 27 28  2  0  0  0  0
 28 29  1  0  0  0  0
 29 22  1  0  0  0  0
 30 29  2  0  0  0  0
 31 25  1  0  0  0  0
 32 26  1  0  0  0  0
 33 27  1  0  0  0  0
M  END
>  <minimizedAffinity>
-5.08248663

>  <minimizedRMSD>
1.45201933

$$$$
