
     RDKit          3D

 31 32  0  0  0  0  0  0  0  0999 V2000
   44.5186   35.6098   44.7918 C   0  0  0  0  0  0  0  0  0  0  0  0
   44.9086   35.8337   43.4495 C   0  0  0  0  0  0  0  0  0  0  0  0
   45.9731   35.0255   42.9844 C   0  0  0  0  0  0  0  0  0  0  0  0
   46.5291   34.1135   43.8492 N   0  0  0  0  0  0  0  0  0  0  0  0
   46.1084   33.9584   45.1032 C   0  0  0  0  0  0  0  0  0  0  0  0
   45.1124   34.7028   45.5629 N   0  0  0  0  0  0  0  0  0  0  0  0
   46.6528   33.0496   45.9845 O   0  0  0  0  0  0  0  0  0  0  0  0
   46.9878   32.2888   48.4355 O   0  0  0  0  0  0  0  0  0  0  0  0
   45.9189   32.4019   47.3476 P   0  0  1  0  0  0  0  0  0  0  0  0
   44.6198   33.3560   47.8460 O   0  0  0  0  0  0  0  0  0  0  0  0
   45.3252   30.8339   47.0924 O   0  0  0  0  0  0  0  0  0  0  0  0
   45.1233   30.2552   48.3100 C   0  0  0  0  0  0  0  0  0  0  0  0
   43.6930   36.2556   45.1082 H   0  0  0  0  0  0  0  0  0  0  0  0
   44.4372   36.5654   42.8071 H   0  0  0  0  0  0  0  0  0  0  0  0
   46.3259   35.1380   41.9696 H   0  0  0  0  0  0  0  0  0  0  0  0
   44.9738   33.9252   48.6021 H   0  0  0  0  0  0  0  0  0  0  0  0
   44.3686   30.8405   48.9043 H   0  0  0  0  0  0  0  0  0  0  0  0
   46.0483   30.2981   48.9453 H   0  0  0  0  0  0  0  0  0  0  0  0
   44.6051   28.6668   50.6217 O   0  0  0  0  0  0  0  0  0  0  0  0
   44.3496   28.1012   49.3818 C   0  0  0  0  0  0  0  0  0  0  0  0
   44.5971   28.8684   48.2651 C   0  0  0  0  0  0  0  0  0  0  0  0
   44.3414   28.3045   47.0235 C   0  0  0  0  0  0  0  0  0  0  0  0
   44.5130   28.8441   46.1061 H   0  0  0  0  0  0  0  0  0  0  0  0
   43.8527   27.0202   46.8348 C   0  0  0  0  0  0  0  0  0  0  0  0
   43.6106   26.2650   47.9712 C   0  0  0  0  0  0  0  0  0  0  0  0
   43.8698   26.8372   49.2159 C   0  0  0  0  0  0  0  0  0  0  0  0
   43.6312   26.0907   50.3568 O   0  0  0  0  0  0  0  0  0  0  0  0
   45.4155   28.4855   51.1947 H   0  0  0  0  0  0  0  0  0  0  0  0
   43.6640   26.6134   45.8513 H   0  0  0  0  0  0  0  0  0  0  0  0
   43.2326   25.2681   47.8441 H   0  0  0  0  0  0  0  0  0  0  0  0
   42.7664   26.2614   50.8498 H   0  0  0  0  0  0  0  0  0  0  0  0
  1  6  2  0
  2  1  1  0
  3  2  2  0
  3  4  1  0
  4  5  2  0
  5  6  1  0
  5  7  1  0
  9  7  1  6
  9 10  1  0
  9  8  2  0
 11  9  1  0
 11 12  1  0
  1 13  1  0
  2 14  1  0
  3 15  1  0
 10 16  1  0
 12 17  1  0
 12 18  1  0
 19 20  1  0
 20 21  2  0
 21 22  1  0
 22 23  1  0
 22 24  2  0
 24 25  1  0
 25 26  2  0
 26 27  1  0
 26 20  1  0
 19 28  1  0
 24 29  1  0
 25 30  1  0
 27 31  1  0
 12 21  1  0
M  ISO  7  13  14  14  14  15  14  16   3  17   8  18   8  23  16
M  END
>  <DihAtoms>  (1) 
10,11,20,19

>  <DihDeg>  (1) 
-76.28126222582988

$$$$
