
 OpenBabel03252508153D

 39 42  0  0  1  0  0  0  0  0999 V2000
   46.0680   33.1160   46.0490 C   0  0  0  0  0  3  0  0  0  0  0  0
   46.8040   32.1430   45.6790 C   0  0  0  0  0  3  0  0  0  0  0  0
   44.4600   36.0020   44.4230 C   0  0  0  0  0  0  0  0  0  0  0  0
   44.7730   35.8030   43.0840 C   0  0  0  0  0  0  0  0  0  0  0  0
   45.5290   34.7210   42.7650 C   0  0  0  0  0  0  0  0  0  0  0  0
   45.9250   33.9120   43.7790 N   0  0  0  0  0  0  0  0  0  0  0  0
   45.6320   34.0880   45.0660 C   0  0  0  0  0  0  0  0  0  0  0  0
   44.8870   35.1610   45.3590 N   0  0  0  0  0  0  0  0  0  0  0  0
   43.8580   36.8550   44.7360 H   0  0  0  0  0  0  0  0  0  0  0  0
   44.4380   36.4670   42.3190 H   0  0  0  0  0  0  0  0  0  0  0  0
   47.2000   34.5190   40.8660 C   0  0  0  0  0  0  0  0  0  0  0  0
   45.9780   34.3120   41.4450 C   0  0  0  0  0  0  0  0  0  0  0  0
   45.1150   33.6190   40.6130 C   0  0  0  0  0  0  0  0  0  0  0  0
   44.0880   33.3620   40.9140 H   0  0  0  0  0  0  0  0  0  0  0  0
   45.4500   33.1880   39.3470 C   0  0  0  0  0  3  0  0  0  0  0  0
   46.7030   33.4350   38.8300 C   0  0  0  0  0  3  0  0  0  0  0  0
   47.5910   34.1190   39.6200 C   0  0  0  0  0  0  0  0  0  0  0  0
   48.1410   35.1970   41.5950 O   0  0  0  0  0  0  0  0  0  0  0  0
   48.8430   34.6420   42.0840 H   0  0  0  0  0  0  0  0  0  0  0  0
   48.8410   34.3720   39.1180 O   0  0  0  0  0  0  0  0  0  0  0  0
   49.5060   33.5950   39.1260 H   0  0  0  0  0  0  0  0  0  0  0  0
   47.1880   31.1660   46.7800 C   0  0  0  0  0  0  0  0  0  0  0  0
   46.4780   30.3110   46.6130 H   0  0  0  0  0  0  0  0  0  0  0  0
   48.2120   30.8040   46.6520 H   0  0  0  0  0  0  0  0  0  0  0  0
   46.8560   31.7460   48.1130 C   0  0  1  0  0  0  0  0  0  0  0  0
   46.2130   30.8380   49.1100 C   0  0  0  0  0  0  0  0  0  0  0  0
   47.5790   31.2770   49.3250 C   0  0  1  0  0  0  0  0  0  0  0  0
   46.5040   32.8140   48.1270 H   0  0  0  0  0  0  0  0  0  0  0  0
   46.0430   29.7810   48.7960 H   0  0  0  0  0  0  0  0  0  0  0  0
   45.3700   31.2350   49.7020 H   0  0  0  0  0  0  0  0  0  0  0  0
   47.7020   32.0520   50.1420 H   0  0  0  0  0  0  0  0  0  0  0  0
   48.7920   30.4540   49.1300 C   0  0  0  0  0  0  0  0  0  0  0  0
   49.6430   30.2680   50.4140 C   0  0  0  0  0  0  0  0  0  0  0  0
   50.1430   31.1690   49.3370 C   0  0  0  0  0  0  0  0  0  0  0  0
   48.7780   29.5730   48.4570 H   0  0  0  0  0  0  0  0  0  0  0  0
   50.1080   29.2910   50.5590 H   0  0  0  0  0  0  0  0  0  0  0  0
   49.3080   30.7890   51.3310 H   0  0  0  0  0  0  0  0  0  0  0  0
   50.9890   30.7680   48.7540 H   0  0  0  0  0  0  0  0  0  0  0  0
   50.0820   32.2570   49.4250 H   0  0  0  0  0  0  0  0  0  0  0  0
  2  1  2  0  0  0  0
  2 22  1  0  0  0  0
  3  9  1  0  0  0  0
  3  8  1  0  0  0  0
  4  3  2  0  0  0  0
  5  4  1  0  0  0  0
  5  6  2  0  0  0  0
  6  7  1  0  0  0  0
  7  8  2  0  0  0  0
  7  1  1  0  0  0  0
 10  4  1  0  0  0  0
 11 12  1  0  0  0  0
 11 18  1  0  0  0  0
 12  5  1  0  0  0  0
 13 14  1  0  0  0  0
 13 12  2  0  0  0  0
 15 13  1  0  0  0  0
 16 15  2  0  0  0  0
 16 17  1  0  0  0  0
 17 11  2  0  0  0  0
 18 19  1  0  0  0  0
 20 21  1  0  0  0  0
 20 17  1  0  0  0  0
 22 25  1  0  0  0  0
 23 22  1  0  0  0  0
 24 22  1  0  0  0  0
 25 28  1  1  0  0  0
 25 26  1  0  0  0  0
 25 27  1  0  0  0  0
 26 27  1  0  0  0  0
 26 30  1  0  0  0  0
 27 31  1  1  0  0  0
 29 26  1  0  0  0  0
 32 27  1  0  0  0  0
 32 34  1  0  0  0  0
 32 33  1  0  0  0  0
 33 36  1  0  0  0  0
 33 37  1  0  0  0  0
 34 39  1  0  0  0  0
 34 33  1  0  0  0  0
 35 32  1  0  0  0  0
 38 34  1  0  0  0  0
M  END
>  <minimizedAffinity>
-6.0828948

>  <minimizedRMSD>
1.11314023

$$$$
