
 OpenBabel03242520253D

 26 27  0  0  0  0  0  0  0  0999 V2000
   45.2020   35.8800   43.5390 C   0  0  0  0  0  0  0  0  0  0  0  0
   46.0810   34.8030   43.3400 C   0  0  0  0  0  0  0  0  0  0  0  0
   46.2020   33.8880   44.3760 C   0  0  0  0  0  0  0  0  0  0  0  0
   45.4760   34.0820   45.5070 N   0  0  0  0  0  0  0  0  0  0  0  0
   44.6440   35.1230   45.6680 C   0  0  0  0  0  0  0  0  0  0  0  0
   44.4980   36.0300   44.6920 N   0  0  0  0  0  0  0  0  0  0  0  0
   45.0950   36.6060   42.7400 H   0  0  0  0  0  0  0  0  0  0  0  0
   44.0930   35.2180   46.5980 H   0  0  0  0  0  0  0  0  0  0  0  0
   46.3630   34.1210   40.9290 C   0  0  0  0  0  0  0  0  0  0  0  0
   46.7890   34.7360   42.0660 C   0  0  0  0  0  0  0  0  0  0  0  0
   48.0290   35.3830   42.0520 C   0  0  0  0  0  0  0  0  0  0  0  0
   48.4520   35.9030   42.9220 H   0  0  0  0  0  0  0  0  0  0  0  0
   48.8180   35.4100   40.9270 C   0  0  0  0  0  0  0  0  0  0  0  0
   48.3950   34.7910   39.7720 C   0  0  0  0  0  0  0  0  0  0  0  0
   47.1710   34.1560   39.7960 C   0  0  0  0  0  0  0  0  0  0  0  0
   45.1330   33.5010   41.0030 O   0  0  0  0  0  0  0  0  0  0  0  0
   45.0040   32.4850   40.9760 H   0  0  0  0  0  0  0  0  0  0  0  0
   46.6880   33.5090   38.6500 O   0  0  0  0  0  0  0  0  0  0  0  0
   47.2270   32.7110   38.2920 H   0  0  0  0  0  0  0  0  0  0  0  0
   47.0750   32.8210   44.1740 O   0  0  0  0  0  0  0  0  0  0  0  0
   45.6220   30.8050   45.0770 O   0  0  0  0  0  0  0  0  0  0  0  0
   46.9790   31.4590   45.2200 P   0  0  0  0  0  0  0  0  0  0  0  0
   48.2310   30.4080   44.8440 O   0  0  0  0  0  0  0  0  0  0  0  0
   48.5650   29.9980   45.7020 H   0  0  0  0  0  0  0  0  0  0  0  0
   47.1260   32.0320   46.8110 O   0  0  0  0  0  0  0  0  0  0  0  0
   46.2190   32.3180   47.1040 H   0  0  0  0  0  0  0  0  0  0  0  0
  1  6  1  0  0  0  0
  2  1  2  0  0  0  0
  2  3  1  0  0  0  0
  3  4  2  0  0  0  0
  4  5  1  0  0  0  0
  5  8  1  0  0  0  0
  6  5  2  0  0  0  0
  7  1  1  0  0  0  0
  9 16  1  0  0  0  0
  9 10  1  0  0  0  0
 10  2  1  0  0  0  0
 11 10  2  0  0  0  0
 11 12  1  0  0  0  0
 13 11  1  0  0  0  0
 14 15  1  0  0  0  0
 14 13  2  0  0  0  0
 15  9  2  0  0  0  0
 17 16  1  0  0  0  0
 18 15  1  0  0  0  0
 19 18  1  0  0  0  0
 20  3  1  0  0  0  0
 20 22  1  0  0  0  0
 21 22  2  0  0  0  0
 22 25  1  0  0  0  0
 23 22  1  0  0  0  0
 23 24  1  0  0  0  0
 25 26  1  0  0  0  0
M  END
>  <minimizedAffinity>
-5.48370171

>  <minimizedRMSD>
4.14245701

$$$$
