REMARK  Name = 
REMARK  7 active torsions:
REMARK  status: ('A' for Active; 'I' for Inactive)
REMARK    1  A    between atoms: C_1  and  O_11
REMARK    2  A    between atoms: N_3  and  C_4
REMARK    3  A    between atoms: C_5  and  N_10
REMARK    4  A    between atoms: O_11  and  C_14
REMARK    5  A    between atoms: C_19  and  C_29
REMARK    6  A    between atoms: O_27  and  C_28
REMARK    7  A    between atoms: C_34  and  O_35
REMARK                            x       y       z     vdW  Elec       q    Type
REMARK                         _______ _______ _______ _____ _____    ______ ____
ROOT
ATOM      1 CL   UNL     1      43.670  33.666  38.595  0.00  0.00    +0.000 Cl
ATOM      2  C   UNL     1      42.329  34.323  39.493  0.00  0.00    +0.000 A 
ATOM      3  C   UNL     1      42.483  35.195  40.575  0.00  0.00    +0.000 A 
ATOM      4  C   UNL     1      41.380  35.668  41.228  0.00  0.00    +0.000 A 
ATOM      5  C   UNL     1      40.089  35.344  40.896  0.00  0.00    +0.000 A 
ATOM      6  C   UNL     1      39.905  34.477  39.822  0.00  0.00    +0.000 A 
ATOM      7 CL   UNL     1      38.295  33.986  39.298  0.00  0.00    +0.000 Cl
ATOM      8  C   UNL     1      41.035  34.004  39.167  0.00  0.00    +0.000 A 
ATOM      9  H   UNL     1      41.581  36.343  42.061  0.00  0.00    +0.000 HD
ATOM     10  H   UNL     1      39.231  35.725  41.421  0.00  0.00    +0.000 HD
ENDROOT
BRANCH   8  12
ATOM     11  C   UNL     1      41.322  31.796  37.925  0.00  0.00    +0.000 A 
ATOM     12  C   UNL     1      40.847  33.090  38.035  0.00  0.00    +0.000 A 
ATOM     13  C   UNL     1      40.097  33.680  37.012  0.00  0.00    +0.000 A 
ATOM     14  H   UNL     1      39.696  34.675  37.025  0.00  0.00    +0.000 HD
ATOM     15  C   UNL     1      39.830  32.937  35.862  0.00  0.00    +0.000 A 
ATOM     16  C   UNL     1      40.299  31.660  35.753  0.00  0.00    +0.000 A 
ATOM     17  C   UNL     1      41.036  31.096  36.772  0.00  0.00    +0.000 A 
BRANCH  11  18
ATOM     18  O   UNL     1      42.050  31.342  39.016  0.00  0.00    +0.000 OA
ATOM     19  H   UNL     1      42.647  30.529  39.007  0.00  0.00    +0.000 HD
ENDBRANCH  11  18
BRANCH  17  20
ATOM     20  O   UNL     1      41.537  29.798  36.708  0.00  0.00    +0.000 OA
ATOM     21  H   UNL     1      40.871  29.041  36.537  0.00  0.00    +0.000 HD
ENDBRANCH  17  20
ENDBRANCH   8  12
BRANCH   3  22
ATOM     22  O   UNL     1      43.806  35.512  40.896  0.00  0.00    +0.000 OA
BRANCH  22  23
ATOM     23  C   UNL     1      44.395  34.859  41.984  0.00  0.00    +0.000 C 
ATOM     24  O   UNL     1      44.179  33.656  42.343  0.00  0.00    +0.000 OA
ATOM     25  N   UNL     1      45.336  35.525  42.824  0.00  0.00    +0.000 N 
ATOM     26  H   UNL     1      45.615  36.495  42.655  0.00  0.00    +0.000 HD
BRANCH  25  27
ATOM     27  C   UNL     1      45.761  34.600  43.867  0.00  0.00    +0.000 A 
ATOM     28  C   UNL     1      45.228  34.547  45.135  0.00  0.00    +0.000 A 
ATOM     29  C   UNL     1      45.761  33.603  45.985  0.00  0.00    +0.000 A 
ATOM     30  N   UNL     1      46.744  32.816  45.523  0.00  0.00    +0.000 NA
ATOM     31  C   UNL     1      47.242  32.896  44.275  0.00  0.00    +0.000 A 
ATOM     32  N   UNL     1      46.738  33.818  43.410  0.00  0.00    +0.000 NA
ATOM     33  H   UNL     1      45.344  33.559  46.981  0.00  0.00    +0.000 HD
ATOM     34  H   UNL     1      48.034  32.210  44.014  0.00  0.00    +0.000 HD
BRANCH  28  35
ATOM     35  N   UNL     1      44.191  35.461  45.441  0.00  0.00    +0.000 N 
ATOM     36  H   UNL     1      44.333  35.960  46.342  0.00  0.00    +0.000 HD
ATOM     37  H   UNL     1      43.421  35.526  44.739  0.00  0.00    +0.000 HD
ENDBRANCH  28  35
ENDBRANCH  25  27
ENDBRANCH  22  23
ENDBRANCH   3  22
TORSDOF 7
