
 OpenBabel03242518363D

 37 40  0  0  1  0  0  0  0  0999 V2000
   48.3950   32.4840   41.8080 C   0  0  0  0  0  0  0  0  0  0  0  0
   49.6370   33.1160   41.8280 C   0  0  0  0  0  0  0  0  0  0  0  0
   50.6260   32.1620   41.6470 C   0  0  0  0  0  0  0  0  0  0  0  0
   49.9280   30.9880   41.5260 C   0  0  0  0  0  0  0  0  0  0  0  0
   48.6320   31.1830   41.6210 O   0  0  0  0  0  0  0  0  0  0  0  0
   49.7060   34.1990   41.9700 H   0  0  0  0  0  0  0  0  0  0  0  0
   51.6850   32.3790   41.6200 H   0  0  0  0  0  0  0  0  0  0  0  0
   50.5520   29.6710   41.3100 C   0  0  2  0  0  0  0  0  0  0  0  0
   51.6500   29.2300   42.1950 C   0  0  0  0  0  0  0  0  0  0  0  0
   52.0220   29.7470   40.8420 C   0  0  1  0  0  0  0  0  0  0  0  0
   49.9080   28.9890   40.7160 H   0  0  0  0  0  0  0  0  0  0  0  0
   51.9310   29.8400   43.0610 H   0  0  0  0  0  0  0  0  0  0  0  0
   51.7010   28.1250   42.4080 H   0  0  0  0  0  0  0  0  0  0  0  0
   52.4960   30.7540   40.7920 H   0  0  0  0  0  0  0  0  0  0  0  0
   52.6030   29.1650   38.5190 C   0  0  0  0  0  0  0  0  0  0  0  0
   52.3660   28.7410   39.8080 C   0  0  0  0  0  0  0  0  0  0  0  0
   52.4660   27.3860   40.0560 C   0  0  0  0  0  0  0  0  0  0  0  0
   52.2860   27.0240   41.0580 H   0  0  0  0  0  0  0  0  0  0  0  0
   52.7920   26.5090   39.0430 C   0  0  0  0  0  3  0  0  0  0  0  0
   53.0300   26.9220   37.7510 C   0  0  0  0  0  3  0  0  0  0  0  0
   52.9330   28.2750   37.4920 C   0  0  0  0  0  0  0  0  0  0  0  0
   52.5080   30.5280   38.2410 O   0  0  0  0  0  0  0  0  0  0  0  0
   52.5400   30.8410   37.2890 H   0  0  0  0  0  0  0  0  0  0  0  0
   53.1670   28.7320   36.1960 O   0  0  0  0  0  0  0  0  0  0  0  0
   52.3540   28.6770   35.5790 H   0  0  0  0  0  0  0  0  0  0  0  0
   47.0920   32.9980   41.9450 O   0  0  0  0  0  0  0  0  0  0  0  0
   46.5720   33.8590   40.9580 C   0  0  0  0  0  0  0  0  0  0  0  0
   47.3720   34.7290   40.5190 O   0  0  0  0  0  0  0  0  0  0  0  0
   45.2200   33.6480   40.5760 C   0  0  0  0  0  0  0  0  0  0  0  0
   45.0520   32.9250   39.4270 C   0  0  0  0  0  0  0  0  0  0  0  0
   43.7510   32.6800   38.9930 C   0  0  0  0  0  0  0  0  0  0  0  0
   42.7330   33.1660   39.7250 N   0  0  0  0  0  0  0  0  0  0  0  0
   42.9300   33.8680   40.8440 C   0  0  0  0  0  0  0  0  0  0  0  0
   44.1890   34.1040   41.2610 N   0  0  0  0  0  0  0  0  0  0  0  0
   45.8180   32.4940   38.7730 H   0  0  0  0  0  0  0  0  0  0  0  0
   43.5470   32.1130   38.0890 H   0  0  0  0  0  0  0  0  0  0  0  0
   42.0380   34.2190   41.3670 H   0  0  0  0  0  0  0  0  0  0  0  0
  1  2  2  0  0  0  0
  1 26  1  0  0  0  0
  2  6  1  0  0  0  0
  3  2  1  0  0  0  0
  4  5  1  0  0  0  0
  4  3  2  0  0  0  0
  5  1  1  0  0  0  0
  7  3  1  0  0  0  0
  8 11  1  6  0  0  0
  8  4  1  0  0  0  0
  8  9  1  0  0  0  0
  9 13  1  0  0  0  0
  9 12  1  0  0  0  0
 10 14  1  6  0  0  0
 10  8  1  0  0  0  0
 10  9  1  0  0  0  0
 15 16  1  0  0  0  0
 16 17  2  0  0  0  0
 16 10  1  0  0  0  0
 17 18  1  0  0  0  0
 19 17  1  0  0  0  0
 20 19  2  0  0  0  0
 21 20  1  0  0  0  0
 21 15  2  0  0  0  0
 22 15  1  0  0  0  0
 23 22  1  0  0  0  0
 24 21  1  0  0  0  0
 25 24  1  0  0  0  0
 27 26  1  0  0  0  0
 28 27  2  0  0  0  0
 29 27  1  0  0  0  0
 29 34  1  0  0  0  0
 30 29  2  0  0  0  0
 31 30  1  0  0  0  0
 31 32  2  0  0  0  0
 32 33  1  0  0  0  0
 33 34  2  0  0  0  0
 33 37  1  0  0  0  0
 35 30  1  0  0  0  0
 36 31  1  0  0  0  0
M  END
>  <minimizedAffinity>
-2.7645483

>  <minimizedRMSD>
6.77300453

$$$$
