
     RDKit          3D

 51 56  0  0  0  0  0  0  0  0999 V2000
   46.6866   33.4671   43.0972 C   0  0  1  0  0  0  0  0  0  0  0  0
   46.9798   34.8320   42.6775 C   0  0  0  0  0  0  0  0  0  0  0  0
   48.0994   33.8595   42.6907 C   0  0  2  0  0  0  0  0  0  0  0  0
   48.5280   33.3034   41.3787 C   0  0  0  0  0  0  0  0  0  0  0  0
   49.3615   32.2149   41.2335 C   0  0  0  0  0  0  0  0  0  0  0  0
   49.7223   31.7572   39.9785 C   0  0  0  0  0  0  0  0  0  0  0  0
   49.2540   32.3830   38.8422 C   0  0  0  0  0  0  0  0  0  0  0  0
   49.5865   31.9549   37.6011 N   0  0  0  0  0  0  0  0  0  0  0  0
   49.1064   32.5900   36.5047 C   0  0  0  0  0  0  0  0  0  0  0  0
   48.2477   33.7142   36.5599 C   0  0  0  0  0  0  0  0  0  0  0  0
   47.9031   34.1578   37.8134 C   0  0  0  0  0  0  0  0  0  0  0  0
   48.4053   33.4932   38.9375 C   0  0  0  0  0  0  0  0  0  0  0  0
   48.0733   33.9131   40.2088 C   0  0  0  0  0  0  0  0  0  0  0  0
   45.5503   33.9468   45.2946 C   0  0  0  0  0  0  0  0  0  0  0  0
   46.4787   33.1462   44.5409 C   0  0  0  0  0  0  0  0  0  0  0  0
   47.1326   32.1316   45.1899 C   0  0  0  0  0  0  0  0  0  0  0  0
   46.8628   31.9432   46.5115 N   0  0  0  0  0  0  0  0  0  0  0  0
   45.9825   32.7092   47.2082 C   0  0  0  0  0  0  0  0  0  0  0  0
   45.3280   33.7095   46.5980 N   0  0  0  0  0  0  0  0  0  0  0  0
   45.7690   32.3947   48.6476 C   0  0  2  0  0  0  0  0  0  0  0  0
   46.2542   31.1609   49.2408 C   0  0  0  0  0  0  0  0  0  0  0  0
   44.8022   31.1936   48.8857 C   0  0  2  0  0  0  0  0  0  0  0  0
   46.1934   32.7322   42.4349 H   0  0  0  0  0  0  0  0  0  0  0  0
   47.0415   35.5921   43.5111 H   0  0  0  0  0  0  0  0  0  0  0  0
   46.4552   35.2132   41.8187 H   0  0  0  0  0  0  0  0  0  0  0  0
   48.8693   33.8243   43.4824 H   0  0  0  0  0  0  0  0  0  0  0  0
   49.7247   31.7297   42.1300 H   0  0  0  0  0  0  0  0  0  0  0  0
   50.3814   30.8961   39.8839 H   0  0  0  0  0  0  0  0  0  0  0  0
   49.4235   32.1801   35.5675 H   0  0  0  0  0  0  0  0  0  0  0  0
   47.9108   34.1611   35.6343 H   0  0  0  0  0  0  0  0  0  0  0  0
   47.2509   35.0114   37.9138 H   0  0  0  0  0  0  0  0  0  0  0  0
   47.4218   34.7763   40.2011 H   0  0  0  0  0  0  0  0  0  0  0  0
   45.0374   34.7451   44.7793 H   0  0  0  0  0  0  0  0  0  0  0  0
   47.8322   31.5143   44.6585 H   0  0  0  0  0  0  0  0  0  0  0  0
   45.4643   33.2999   49.2432 H   0  0  0  0  0  0  0  0  0  0  0  0
   47.0040   30.6002   48.6853 H   0  0  0  0  0  0  0  0  0  0  0  0
   46.5169   31.2345   50.3392 H   0  0  0  0  0  0  0  0  0  0  0  0
   44.1100   31.2958   49.7405 H   0  0  0  0  0  0  0  0  0  0  0  0
   42.5199   31.7654   47.1809 O   0  0  0  0  0  0  0  0  0  0  0  0
   43.2850   30.6619   46.8348 C   0  0  0  0  0  0  0  0  0  0  0  0
   44.3422   30.4720   47.6962 C   0  0  0  0  0  0  0  0  0  0  0  0
   45.1845   29.3819   47.4393 C   0  0  0  0  0  0  0  0  0  0  0  0
   46.0731   29.0726   48.0126 H   0  0  0  0  0  0  0  0  0  0  0  0
   44.9551   28.5281   46.3534 C   0  0  0  0  0  0  0  0  0  0  0  0
   43.8907   28.7400   45.5073 C   0  0  0  0  0  0  0  0  0  0  0  0
   43.0783   29.8088   45.7723 C   0  0  0  0  0  0  0  0  0  0  0  0
   41.9882   30.1033   44.9837 O   0  0  0  0  0  0  0  0  0  0  0  0
   42.6712   32.6921   46.8073 H   0  0  0  0  0  0  0  0  0  0  0  0
   45.5835   27.6785   46.1253 H   0  0  0  0  0  0  0  0  0  0  0  0
   43.6481   28.1283   44.6516 H   0  0  0  0  0  0  0  0  0  0  0  0
   41.7805   31.0746   44.7384 H   0  0  0  0  0  0  0  0  0  0  0  0
  1 15  1  0
  2  3  1  0
  2  1  1  0
  3  1  1  0
  4  3  1  0
  5  4  2  0
  6  5  1  0
  7 12  1  0
  7  6  2  0
  8  7  1  0
  9 10  1  0
  9  8  2  0
 10 11  2  0
 11 12  1  0
 12 13  2  0
 13  4  1  0
 14 19  2  0
 15 16  2  0
 15 14  1  0
 16 17  1  0
 17 18  2  0
 18 20  1  0
 19 18  1  0
 20 22  1  0
 20 21  1  0
 22 21  1  0
  1 23  1  6
  2 24  1  0
  2 25  1  0
  3 26  1  1
  5 27  1  0
  6 28  1  0
  9 29  1  0
 10 30  1  0
 11 31  1  0
 13 32  1  0
 14 33  1  0
 16 34  1  0
 20 35  1  1
 21 36  1  0
 21 37  1  0
 22 38  1  1
 39 40  1  0
 40 41  2  0
 41 42  1  0
 42 43  1  0
 42 44  2  0
 44 45  1  0
 45 46  2  0
 46 47  1  0
 46 40  1  0
 39 48  1  0
 44 49  1  0
 45 50  1  0
 47 51  1  0
 22 41  1  0
M  ISO  8  23  13  24  13  25  13  26  13  27  14  28  14  29  14  30  14
M  ISO  8  31  14  32  14  33  14  34  14  35  13  36  13  37  13  38  13
M  ISO  1  43  16
M  END
>  <DihAtoms>  (1) 
19,21,40,39

>  <DihDeg>  (1) 
92.81311500331793

$$$$
