
 OpenBabel03252503483D

 46 49  0  0  1  0  0  0  0  0999 V2000
   35.4990   29.4910   40.5310 C   0  0  0  0  0  0  0  0  0  0  0  0
   34.5440   29.0380   40.7940 H   0  0  0  0  0  0  0  0  0  0  0  0
   35.4410   30.5690   40.8750 H   0  0  0  0  0  0  0  0  0  0  0  0
   35.7310   29.4230   39.0740 C   0  0  0  0  0  0  0  0  0  0  0  0
   35.1730   28.5120   38.2140 C   0  0  0  0  0  0  0  0  0  0  0  0
   35.4320   28.5170   36.8680 C   0  0  0  0  0  0  0  0  0  0  0  0
   36.2930   29.4860   36.3660 C   0  0  0  0  0  0  0  0  0  0  0  0
   36.8680   30.4230   37.2340 C   0  0  0  0  0  0  0  0  0  0  0  0
   36.5840   30.3910   38.6010 C   0  0  0  0  0  0  0  0  0  0  0  0
   34.5230   27.8130   38.7410 H   0  0  0  0  0  0  0  0  0  0  0  0
   34.9220   27.7460   36.3360 H   0  0  0  0  0  0  0  0  0  0  0  0
   36.4010   29.3640   35.2840 H   0  0  0  0  0  0  0  0  0  0  0  0
   37.4840   31.0490   36.5900 H   0  0  0  0  0  0  0  0  0  0  0  0
   38.6950   31.0620   39.2950 C   0  0  0  0  0  0  0  0  0  0  0  0
   37.3780   31.4990   39.1020 C   0  0  0  0  0  0  0  0  0  0  0  0
   37.0640   32.7960   39.4330 C   0  0  0  0  0  0  0  0  0  0  0  0
   36.0150   32.9900   39.2300 H   0  0  0  0  0  0  0  0  0  0  0  0
   38.0260   33.6400   39.9420 C   0  0  0  0  0  3  0  0  0  0  0  0
   39.3210   33.2050   40.1300 C   0  0  0  0  0  3  0  0  0  0  0  0
   39.6750   31.9110   39.8110 C   0  0  0  0  0  0  0  0  0  0  0  0
   39.2160   29.7830   39.0230 O   0  0  0  0  0  0  0  0  0  0  0  0
   39.3040   29.0800   39.7430 H   0  0  0  0  0  0  0  0  0  0  0  0
   40.9950   31.5500   40.0290 O   0  0  0  0  0  0  0  0  0  0  0  0
   41.3560   30.6820   39.6150 H   0  0  0  0  0  0  0  0  0  0  0  0
   36.9900   27.5590   41.0400 C   0  0  0  0  0  0  0  0  0  0  0  0
   36.5950   28.8760   41.2460 C   0  0  0  0  0  0  0  0  0  0  0  0
   37.3260   29.5990   42.1850 C   0  0  0  0  0  0  0  0  0  0  0  0
   38.3660   29.0540   42.8610 N   0  0  0  0  0  0  0  0  0  0  0  0
   38.7130   27.7640   42.6240 C   0  0  0  0  0  0  0  0  0  0  0  0
   38.0300   27.0190   41.7200 N   0  0  0  0  0  0  0  0  0  0  0  0
   36.3980   27.0330   40.3050 H   0  0  0  0  0  0  0  0  0  0  0  0
   37.1330   30.6070   42.4890 H   0  0  0  0  0  0  0  0  0  0  0  0
   40.2530   25.8200   42.7760 C   0  0  2  0  0  0  0  0  0  0  0  0
   39.8390   27.2050   43.3570 C   0  0  1  0  0  0  0  0  0  0  0  0
   41.0210   27.8490   43.2230 O   0  0  0  0  0  0  0  0  0  0  0  0
   42.0070   27.0220   43.6800 C   0  0  0  0  0  0  0  0  0  0  0  0
   41.4840   25.5990   43.6620 C   0  0  2  0  0  0  0  0  0  0  0  0
   39.4640   25.0810   42.9760 H   0  0  0  0  0  0  0  0  0  0  0  0
   39.5890   27.0350   44.4270 H   0  0  0  0  0  0  0  0  0  0  0  0
   42.3880   27.3400   44.6600 H   0  0  0  0  0  0  0  0  0  0  0  0
   42.8720   27.1250   42.9630 H   0  0  0  0  0  0  0  0  0  0  0  0
   41.2190   25.3370   44.6870 H   0  0  0  0  0  0  0  0  0  0  0  0
   40.6800   25.9590   41.5090 O   0  0  0  0  0  0  0  0  0  0  0  0
   40.3990   25.1800   40.9750 H   0  0  0  0  0  0  0  0  0  0  0  0
   42.3650   24.6930   43.1450 O   0  0  0  0  0  0  0  0  0  0  0  0
   42.0540   24.3470   42.2750 H   0  0  0  0  0  0  0  0  0  0  0  0
  1  2  1  0  0  0  0
  1  3  1  0  0  0  0
  1 26  1  0  0  0  0
  4  1  1  0  0  0  0
  5 10  1  0  0  0  0
  5  4  2  0  0  0  0
  6  5  1  0  0  0  0
  7  6  2  0  0  0  0
  7  8  1  0  0  0  0
  8  9  2  0  0  0  0
  9  4  1  0  0  0  0
  9 15  1  0  0  0  0
 11  6  1  0  0  0  0
 12  7  1  0  0  0  0
 13  8  1  0  0  0  0
 14 20  1  0  0  0  0
 15 14  2  0  0  0  0
 15 16  1  0  0  0  0
 16 18  2  0  0  0  0
 17 16  1  0  0  0  0
 18 19  1  0  0  0  0
 20 23  1  0  0  0  0
 20 19  2  0  0  0  0
 21 14  1  0  0  0  0
 21 22  1  0  0  0  0
 24 23  1  0  0  0  0
 25 26  2  0  0  0  0
 25 30  1  0  0  0  0
 26 27  1  0  0  0  0
 27 32  1  0  0  0  0
 27 28  2  0  0  0  0
 29 28  1  0  0  0  0
 29 34  1  0  0  0  0
 30 29  2  0  0  0  0
 31 25  1  0  0  0  0
 33 38  1  1  0  0  0
 33 34  1  0  0  0  0
 33 37  1  0  0  0  0
 34 39  1  1  0  0  0
 35 34  1  0  0  0  0
 35 36  1  0  0  0  0
 36 40  1  0  0  0  0
 37 36  1  0  0  0  0
 37 42  1  1  0  0  0
 41 36  1  0  0  0  0
 43 33  1  0  0  0  0
 44 43  1  0  0  0  0
 45 37  1  0  0  0  0
 46 45  1  0  0  0  0
M  END
>  <minimizedAffinity>
-6.86664391

$$$$

 OpenBabel03252503483D

 46 49  0  0  1  0  0  0  0  0999 V2000
   37.4950   26.2120   42.7320 C   0  0  0  0  0  0  0  0  0  0  0  0
   38.3550   26.1200   43.3930 H   0  0  0  0  0  0  0  0  0  0  0  0
   36.5810   26.0390   43.3800 H   0  0  0  0  0  0  0  0  0  0  0  0
   37.5560   25.2140   41.6450 C   0  0  0  0  0  0  0  0  0  0  0  0
   36.5130   24.4380   41.2080 C   0  0  0  0  0  0  0  0  0  0  0  0
   36.6460   23.5360   40.1840 C   0  0  0  0  0  0  0  0  0  0  0  0
   37.8890   23.4100   39.5740 C   0  0  0  0  0  0  0  0  0  0  0  0
   38.9620   24.1980   40.0100 C   0  0  0  0  0  0  0  0  0  0  0  0
   38.7940   25.1090   41.0560 C   0  0  0  0  0  0  0  0  0  0  0  0
   35.6040   24.6390   41.7740 H   0  0  0  0  0  0  0  0  0  0  0  0
   35.7450   23.0120   39.9630 H   0  0  0  0  0  0  0  0  0  0  0  0
   37.8400   22.6580   38.7810 H   0  0  0  0  0  0  0  0  0  0  0  0
   39.7940   23.9030   39.3740 H   0  0  0  0  0  0  0  0  0  0  0  0
   40.8100   25.0140   42.2020 C   0  0  0  0  0  0  0  0  0  0  0  0
   40.1240   25.6790   41.1790 C   0  0  0  0  0  0  0  0  0  0  0  0
   40.7560   26.7150   40.5320 C   0  0  0  0  0  0  0  0  0  0  0  0
   40.1060   27.1320   39.7680 H   0  0  0  0  0  0  0  0  0  0  0  0
   42.0340   27.0840   40.8880 C   0  0  0  0  0  3  0  0  0  0  0  0
   42.7060   26.4250   41.8970 C   0  0  0  0  0  3  0  0  0  0  0  0
   42.1050   25.3820   42.5680 C   0  0  0  0  0  0  0  0  0  0  0  0
   40.3440   23.9370   42.9800 O   0  0  0  0  0  0  0  0  0  0  0  0
   39.9370   24.0790   43.8940 H   0  0  0  0  0  0  0  0  0  0  0  0
   42.8450   24.7720   43.5690 O   0  0  0  0  0  0  0  0  0  0  0  0
   42.5340   23.8690   43.9460 H   0  0  0  0  0  0  0  0  0  0  0  0
   36.4070   27.9070   41.2630 C   0  0  0  0  0  0  0  0  0  0  0  0
   37.3810   27.5460   42.1860 C   0  0  0  0  0  0  0  0  0  0  0  0
   38.2580   28.5530   42.5820 C   0  0  0  0  0  0  0  0  0  0  0  0
   38.1680   29.8150   42.0990 N   0  0  0  0  0  0  0  0  0  0  0  0
   37.1990   30.1180   41.2000 C   0  0  0  0  0  0  0  0  0  0  0  0
   36.3230   29.1710   40.7820 N   0  0  0  0  0  0  0  0  0  0  0  0
   35.7470   27.0990   40.9820 H   0  0  0  0  0  0  0  0  0  0  0  0
   39.0840   28.4370   43.2530 H   0  0  0  0  0  0  0  0  0  0  0  0
   38.5170   32.1700   40.7260 C   0  0  2  0  0  0  0  0  0  0  0  0
   37.1190   31.4830   40.7020 C   0  0  1  0  0  0  0  0  0  0  0  0
   36.8400   31.6260   39.3860 O   0  0  0  0  0  0  0  0  0  0  0  0
   37.1370   32.9090   39.0270 C   0  0  0  0  0  0  0  0  0  0  0  0
   38.1000   33.4800   40.0490 C   0  0  2  0  0  0  0  0  0  0  0  0
   38.8360   32.3280   41.7660 H   0  0  0  0  0  0  0  0  0  0  0  0
   36.4490   32.1100   41.3280 H   0  0  0  0  0  0  0  0  0  0  0  0
   36.2310   33.5160   38.8870 H   0  0  0  0  0  0  0  0  0  0  0  0
   37.6330   32.8550   38.0160 H   0  0  0  0  0  0  0  0  0  0  0  0
   37.5250   34.1290   40.7120 H   0  0  0  0  0  0  0  0  0  0  0  0
   39.3610   31.5310   39.8970 O   0  0  0  0  0  0  0  0  0  0  0  0
   40.2670   31.5250   40.2840 H   0  0  0  0  0  0  0  0  0  0  0  0
   39.1490   34.1610   39.5000 O   0  0  0  0  0  0  0  0  0  0  0  0
   39.9980   33.6750   39.6260 H   0  0  0  0  0  0  0  0  0  0  0  0
  1  3  1  0  0  0  0
  1  2  1  0  0  0  0
  4  1  1  0  0  0  0
  5  4  1  0  0  0  0
  5 10  1  0  0  0  0
  6  5  2  0  0  0  0
  7  8  2  0  0  0  0
  7  6  1  0  0  0  0
  8  9  1  0  0  0  0
  9 15  1  0  0  0  0
  9  4  2  0  0  0  0
 11  6  1  0  0  0  0
 12  7  1  0  0  0  0
 13  8  1  0  0  0  0
 14 20  1  0  0  0  0
 14 21  1  0  0  0  0
 15 14  2  0  0  0  0
 16 18  2  0  0  0  0
 16 15  1  0  0  0  0
 17 16  1  0  0  0  0
 18 19  1  0  0  0  0
 19 20  2  0  0  0  0
 20 23  1  0  0  0  0
 21 22  1  0  0  0  0
 23 24  1  0  0  0  0
 25 26  1  0  0  0  0
 26 27  2  0  0  0  0
 26  1  1  0  0  0  0
 27 32  1  0  0  0  0
 28 27  1  0  0  0  0
 29 28  2  0  0  0  0
 30 29  1  0  0  0  0
 30 25  2  0  0  0  0
 31 25  1  0  0  0  0
 33 38  1  1  0  0  0
 34 33  1  0  0  0  0
 34 29  1  0  0  0  0
 34 39  1  1  0  0  0
 35 34  1  0  0  0  0
 36 35  1  0  0  0  0
 36 37  1  0  0  0  0
 37 42  1  1  0  0  0
 37 33  1  0  0  0  0
 40 36  1  0  0  0  0
 41 36  1  0  0  0  0
 43 44  1  0  0  0  0
 43 33  1  0  0  0  0
 45 46  1  0  0  0  0
 45 37  1  0  0  0  0
M  END
>  <minimizedAffinity>
-6.83940172

$$$$

 OpenBabel03252503483D

 46 49  0  0  1  0  0  0  0  0999 V2000
   36.7110   31.0200   41.0430 C   0  0  0  0  0  0  0  0  0  0  0  0
   36.3470   31.6450   41.8570 H   0  0  0  0  0  0  0  0  0  0  0  0
   35.9320   31.0870   40.2230 H   0  0  0  0  0  0  0  0  0  0  0  0
   36.8780   29.6220   41.4870 C   0  0  0  0  0  0  0  0  0  0  0  0
   37.3140   29.2190   42.7240 C   0  0  0  0  0  0  0  0  0  0  0  0
   37.4360   27.8970   43.0660 C   0  0  0  0  0  0  0  0  0  0  0  0
   37.1050   26.9370   42.1170 C   0  0  0  0  0  0  0  0  0  0  0  0
   36.6570   27.3350   40.8500 C   0  0  0  0  0  0  0  0  0  0  0  0
   36.5430   28.6910   40.5330 C   0  0  0  0  0  0  0  0  0  0  0  0
   37.5380   30.0720   43.3640 H   0  0  0  0  0  0  0  0  0  0  0  0
   37.7860   27.7490   44.0620 H   0  0  0  0  0  0  0  0  0  0  0  0
   37.2520   25.9360   42.5320 H   0  0  0  0  0  0  0  0  0  0  0  0
   36.4730   26.4030   40.3200 H   0  0  0  0  0  0  0  0  0  0  0  0
   34.6970   28.9090   39.1420 C   0  0  0  0  0  0  0  0  0  0  0  0
   36.0720   28.6420   39.1600 C   0  0  0  0  0  0  0  0  0  0  0  0
   36.6990   28.3580   37.9700 C   0  0  0  0  0  0  0  0  0  0  0  0
   37.7560   28.1740   38.1380 H   0  0  0  0  0  0  0  0  0  0  0  0
   35.9860   28.3360   36.7920 C   0  0  0  0  0  3  0  0  0  0  0  0
   34.6320   28.6000   36.7800 C   0  0  0  0  0  3  0  0  0  0  0  0
   33.9680   28.8890   37.9530 C   0  0  0  0  0  0  0  0  0  0  0  0
   33.8760   29.2190   40.2420 O   0  0  0  0  0  0  0  0  0  0  0  0
   33.3250   28.5140   40.7100 H   0  0  0  0  0  0  0  0  0  0  0  0
   32.6080   29.1410   37.8580 O   0  0  0  0  0  0  0  0  0  0  0  0
   32.1170   29.5660   38.6540 H   0  0  0  0  0  0  0  0  0  0  0  0
   38.1230   31.8020   39.1440 C   0  0  0  0  0  0  0  0  0  0  0  0
   37.9490   31.5270   40.4950 C   0  0  0  0  0  0  0  0  0  0  0  0
   39.0430   31.7780   41.3210 C   0  0  0  0  0  0  0  0  0  0  0  0
   40.2110   32.2650   40.8380 N   0  0  0  0  0  0  0  0  0  0  0  0
   40.3300   32.5180   39.5100 C   0  0  0  0  0  0  0  0  0  0  0  0
   39.2940   32.2880   38.6670 N   0  0  0  0  0  0  0  0  0  0  0  0
   37.2530   31.5940   38.5380 H   0  0  0  0  0  0  0  0  0  0  0  0
   39.0900   31.5870   42.3730 H   0  0  0  0  0  0  0  0  0  0  0  0
   42.3590   31.9820   38.1790 C   0  0  2  0  0  0  0  0  0  0  0  0
   41.5930   33.0480   39.0180 C   0  0  1  0  0  0  0  0  0  0  0  0
   41.5110   34.0250   38.0870 O   0  0  0  0  0  0  0  0  0  0  0  0
   42.7380   34.1580   37.5030 C   0  0  0  0  0  0  0  0  0  0  0  0
   43.5190   32.8800   37.7380 C   0  0  2  0  0  0  0  0  0  0  0  0
   42.6970   31.1650   38.8340 H   0  0  0  0  0  0  0  0  0  0  0  0
   42.2690   33.3380   39.8510 H   0  0  0  0  0  0  0  0  0  0  0  0
   43.2590   35.0630   37.8440 H   0  0  0  0  0  0  0  0  0  0  0  0
   42.5560   34.3030   36.3990 H   0  0  0  0  0  0  0  0  0  0  0  0
   44.2270   33.0750   38.5440 H   0  0  0  0  0  0  0  0  0  0  0  0
   41.6500   31.6590   37.0830 O   0  0  0  0  0  0  0  0  0  0  0  0
   41.7600   30.7000   36.8860 H   0  0  0  0  0  0  0  0  0  0  0  0
   44.1680   32.4170   36.6290 O   0  0  0  0  0  0  0  0  0  0  0  0
   43.7600   31.5830   36.2970 H   0  0  0  0  0  0  0  0  0  0  0  0
  1  4  1  0  0  0  0
  1  2  1  0  0  0  0
  3  1  1  0  0  0  0
  4  5  1  0  0  0  0
  5  6  2  0  0  0  0
  5 10  1  0  0  0  0
  6 11  1  0  0  0  0
  7 12  1  0  0  0  0
  7  6  1  0  0  0  0
  8  7  2  0  0  0  0
  9  8  1  0  0  0  0
  9  4  2  0  0  0  0
 13  8  1  0  0  0  0
 14 15  1  0  0  0  0
 14 21  1  0  0  0  0
 15  9  1  0  0  0  0
 16 17  1  0  0  0  0
 16 15  2  0  0  0  0
 18 16  1  0  0  0  0
 19 18  2  0  0  0  0
 19 20  1  0  0  0  0
 20 14  2  0  0  0  0
 21 22  1  0  0  0  0
 23 20  1  0  0  0  0
 23 24  1  0  0  0  0
 25 26  1  0  0  0  0
 26  1  1  0  0  0  0
 26 27  2  0  0  0  0
 27 32  1  0  0  0  0
 28 27  1  0  0  0  0
 29 28  2  0  0  0  0
 30 25  2  0  0  0  0
 30 29  1  0  0  0  0
 31 25  1  0  0  0  0
 33 38  1  1  0  0  0
 33 34  1  0  0  0  0
 34 29  1  0  0  0  0
 34 39  1  1  0  0  0
 35 34  1  0  0  0  0
 36 37  1  0  0  0  0
 36 40  1  0  0  0  0
 36 35  1  0  0  0  0
 37 33  1  0  0  0  0
 37 42  1  1  0  0  0
 41 36  1  0  0  0  0
 43 33  1  0  0  0  0
 44 43  1  0  0  0  0
 45 37  1  0  0  0  0
 46 45  1  0  0  0  0
M  END
>  <minimizedAffinity>
-6.80029154

$$$$

 OpenBabel03252503483D

 46 49  0  0  1  0  0  0  0  0999 V2000
   37.0300   31.7210   38.9220 C   0  0  0  0  0  0  0  0  0  0  0  0
   36.4420   32.5970   39.1950 H   0  0  0  0  0  0  0  0  0  0  0  0
   36.7220   31.4520   37.8650 H   0  0  0  0  0  0  0  0  0  0  0  0
   36.7620   30.5980   39.8420 C   0  0  0  0  0  0  0  0  0  0  0  0
   37.1210   30.5420   41.1650 C   0  0  0  0  0  0  0  0  0  0  0  0
   36.8290   29.4640   41.9610 C   0  0  0  0  0  0  0  0  0  0  0  0
   36.1450   28.3940   41.3960 C   0  0  0  0  0  0  0  0  0  0  0  0
   35.7710   28.4400   40.0460 C   0  0  0  0  0  0  0  0  0  0  0  0
   36.0830   29.5530   39.2620 C   0  0  0  0  0  0  0  0  0  0  0  0
   37.6500   31.4440   41.4720 H   0  0  0  0  0  0  0  0  0  0  0  0
   37.1740   29.5730   42.9630 H   0  0  0  0  0  0  0  0  0  0  0  0
   35.9850   27.6160   42.1480 H   0  0  0  0  0  0  0  0  0  0  0  0
   35.2610   27.4940   39.8720 H   0  0  0  0  0  0  0  0  0  0  0  0
   36.5620   28.6390   37.1830 C   0  0  0  0  0  0  0  0  0  0  0  0
   35.5360   29.1770   37.9710 C   0  0  0  0  0  0  0  0  0  0  0  0
   34.2810   29.2930   37.4210 C   0  0  0  0  0  0  0  0  0  0  0  0
   33.5950   29.7240   38.1440 H   0  0  0  0  0  0  0  0  0  0  0  0
   34.0450   28.8890   36.1270 C   0  0  0  0  0  3  0  0  0  0  0  0
   35.0590   28.3590   35.3550 C   0  0  0  0  0  3  0  0  0  0  0  0
   36.3300   28.2260   35.8700 C   0  0  0  0  0  0  0  0  0  0  0  0
   37.9040   28.4370   37.5550 O   0  0  0  0  0  0  0  0  0  0  0  0
   38.6260   29.1040   37.3250 H   0  0  0  0  0  0  0  0  0  0  0  0
   37.2930   27.6850   35.0330 O   0  0  0  0  0  0  0  0  0  0  0  0
   38.1870   27.3710   35.4290 H   0  0  0  0  0  0  0  0  0  0  0  0
   39.0430   32.9550   39.7230 C   0  0  0  0  0  0  0  0  0  0  0  0
   38.4450   32.0190   38.8880 C   0  0  0  0  0  0  0  0  0  0  0  0
   39.2900   31.3550   38.0010 C   0  0  0  0  0  0  0  0  0  0  0  0
   40.6210   31.6030   37.9550 N   0  0  0  0  0  0  0  0  0  0  0  0
   41.1570   32.5260   38.7930 C   0  0  0  0  0  0  0  0  0  0  0  0
   40.3740   33.1990   39.6710 N   0  0  0  0  0  0  0  0  0  0  0  0
   38.3540   33.4470   40.3950 H   0  0  0  0  0  0  0  0  0  0  0  0
   38.9890   30.6360   37.2680 H   0  0  0  0  0  0  0  0  0  0  0  0
   43.0770   32.8600   37.2510 C   0  0  2  0  0  0  0  0  0  0  0  0
   42.5900   32.7690   38.7280 C   0  0  1  0  0  0  0  0  0  0  0  0
   43.0140   33.9780   39.1610 O   0  0  0  0  0  0  0  0  0  0  0  0
   44.2940   34.1610   38.7220 C   0  0  0  0  0  0  0  0  0  0  0  0
   44.5340   33.2300   37.5500 C   0  0  2  0  0  0  0  0  0  0  0  0
   42.9930   31.8740   36.7700 H   0  0  0  0  0  0  0  0  0  0  0  0
   43.1680   31.9450   39.2000 H   0  0  0  0  0  0  0  0  0  0  0  0
   45.0260   34.0470   39.5340 H   0  0  0  0  0  0  0  0  0  0  0  0
   44.3690   35.2340   38.3850 H   0  0  0  0  0  0  0  0  0  0  0  0
   45.1130   32.3830   37.9210 H   0  0  0  0  0  0  0  0  0  0  0  0
   42.5040   33.9110   36.6390 O   0  0  0  0  0  0  0  0  0  0  0  0
   42.3100   33.6840   35.7000 H   0  0  0  0  0  0  0  0  0  0  0  0
   45.1670   33.8210   36.4950 O   0  0  0  0  0  0  0  0  0  0  0  0
   44.5620   33.9190   35.7220 H   0  0  0  0  0  0  0  0  0  0  0  0
  1  2  1  0  0  0  0
  1  4  1  0  0  0  0
  3  1  1  0  0  0  0
  4  5  1  0  0  0  0
  5 10  1  0  0  0  0
  5  6  2  0  0  0  0
  6 11  1  0  0  0  0
  7  6  1  0  0  0  0
  7 12  1  0  0  0  0
  8  7  2  0  0  0  0
  9  4  2  0  0  0  0
  9  8  1  0  0  0  0
 13  8  1  0  0  0  0
 14 21  1  0  0  0  0
 14 15  1  0  0  0  0
 15  9  1  0  0  0  0
 16 15  2  0  0  0  0
 16 17  1  0  0  0  0
 18 16  1  0  0  0  0
 19 20  1  0  0  0  0
 19 18  2  0  0  0  0
 20 14  2  0  0  0  0
 22 21  1  0  0  0  0
 23 24  1  0  0  0  0
 23 20  1  0  0  0  0
 25 31  1  0  0  0  0
 26  1  1  0  0  0  0
 26 25  2  0  0  0  0
 27 26  1  0  0  0  0
 28 27  2  0  0  0  0
 28 29  1  0  0  0  0
 29 30  2  0  0  0  0
 30 25  1  0  0  0  0
 32 27  1  0  0  0  0
 33 38  1  6  0  0  0
 33 37  1  0  0  0  0
 33 34  1  0  0  0  0
 34 29  1  0  0  0  0
 34 35  1  0  0  0  0
 34 39  1  1  0  0  0
 36 35  1  0  0  0  0
 36 40  1  0  0  0  0
 37 42  1  1  0  0  0
 37 36  1  0  0  0  0
 41 36  1  0  0  0  0
 43 33  1  0  0  0  0
 44 43  1  0  0  0  0
 45 37  1  0  0  0  0
 46 45  1  0  0  0  0
M  END
>  <minimizedAffinity>
-6.74391937

$$$$

 OpenBabel03252503483D

 46 49  0  0  1  0  0  0  0  0999 V2000
   36.3350   29.1930   41.3060 C   0  0  0  0  0  0  0  0  0  0  0  0
   36.1390   29.3780   42.3610 H   0  0  0  0  0  0  0  0  0  0  0  0
   35.4130   29.5450   40.7480 H   0  0  0  0  0  0  0  0  0  0  0  0
   36.5740   27.7570   41.0590 C   0  0  0  0  0  0  0  0  0  0  0  0
   37.0260   26.8480   41.9810 C   0  0  0  0  0  0  0  0  0  0  0  0
   37.2160   25.5250   41.6780 C   0  0  0  0  0  0  0  0  0  0  0  0
   36.9380   25.0980   40.3840 C   0  0  0  0  0  0  0  0  0  0  0  0
   36.4740   26.0160   39.4330 C   0  0  0  0  0  0  0  0  0  0  0  0
   36.2900   27.3580   39.7740 C   0  0  0  0  0  0  0  0  0  0  0  0
   37.2040   27.3180   42.9480 H   0  0  0  0  0  0  0  0  0  0  0  0
   37.5710   24.9490   42.5020 H   0  0  0  0  0  0  0  0  0  0  0  0
   37.1370   24.0260   40.2950 H   0  0  0  0  0  0  0  0  0  0  0  0
   36.3400   25.4270   38.5270 H   0  0  0  0  0  0  0  0  0  0  0  0
   36.9340   28.1900   37.7050 C   0  0  0  0  0  0  0  0  0  0  0  0
   35.8270   27.9290   38.5210 C   0  0  0  0  0  0  0  0  0  0  0  0
   34.5770   28.2680   38.0580 C   0  0  0  0  0  0  0  0  0  0  0  0
   33.8220   28.0080   38.7950 H   0  0  0  0  0  0  0  0  0  0  0  0
   34.4250   28.8510   36.8210 C   0  0  0  0  0  3  0  0  0  0  0  0
   35.5190   29.1060   36.0190 C   0  0  0  0  0  3  0  0  0  0  0  0
   36.7870   28.7800   36.4480 C   0  0  0  0  0  0  0  0  0  0  0  0
   38.2860   27.9220   37.9900 O   0  0  0  0  0  0  0  0  0  0  0  0
   38.9010   28.6300   38.3640 H   0  0  0  0  0  0  0  0  0  0  0  0
   37.8350   29.0680   35.5870 O   0  0  0  0  0  0  0  0  0  0  0  0
   38.7590   28.6580   35.7610 H   0  0  0  0  0  0  0  0  0  0  0  0
   37.2930   31.0970   40.0130 C   0  0  0  0  0  0  0  0  0  0  0  0
   37.4490   29.9790   40.8250 C   0  0  0  0  0  0  0  0  0  0  0  0
   38.7570   29.6480   41.1730 C   0  0  0  0  0  0  0  0  0  0  0  0
   39.8180   30.3740   40.7480 N   0  0  0  0  0  0  0  0  0  0  0  0
   39.6130   31.4570   39.9580 C   0  0  0  0  0  0  0  0  0  0  0  0
   38.3590   31.8180   39.5910 N   0  0  0  0  0  0  0  0  0  0  0  0
   36.2650   31.3200   39.7660 H   0  0  0  0  0  0  0  0  0  0  0  0
   39.0540   28.8020   41.7560 H   0  0  0  0  0  0  0  0  0  0  0  0
   40.9180   32.1830   37.9710 C   0  0  2  0  0  0  0  0  0  0  0  0
   40.7710   32.2240   39.5220 C   0  0  1  0  0  0  0  0  0  0  0  0
   40.6990   33.5650   39.6880 O   0  0  0  0  0  0  0  0  0  0  0  0
   41.6830   34.1380   38.9350 C   0  0  0  0  0  0  0  0  0  0  0  0
   42.1020   33.1500   37.8640 C   0  0  2  0  0  0  0  0  0  0  0  0
   41.1870   31.1660   37.6500 H   0  0  0  0  0  0  0  0  0  0  0  0
   41.7160   31.8150   39.9390 H   0  0  0  0  0  0  0  0  0  0  0  0
   42.5170   34.4970   39.5550 H   0  0  0  0  0  0  0  0  0  0  0  0
   41.2330   35.0560   38.4600 H   0  0  0  0  0  0  0  0  0  0  0  0
   43.0410   32.6990   38.1860 H   0  0  0  0  0  0  0  0  0  0  0  0
   39.8560   32.7680   37.3900 O   0  0  0  0  0  0  0  0  0  0  0  0
   39.6260   32.2890   36.5610 H   0  0  0  0  0  0  0  0  0  0  0  0
   42.2340   33.7040   36.6230 O   0  0  0  0  0  0  0  0  0  0  0  0
   41.5260   33.3890   36.0120 H   0  0  0  0  0  0  0  0  0  0  0  0
  1  2  1  0  0  0  0
  3  1  1  0  0  0  0
  4  1  1  0  0  0  0
  4  5  1  0  0  0  0
  5 10  1  0  0  0  0
  6  5  2  0  0  0  0
  6 11  1  0  0  0  0
  7  6  1  0  0  0  0
  8  9  1  0  0  0  0
  8  7  2  0  0  0  0
  9  4  2  0  0  0  0
 12  7  1  0  0  0  0
 13  8  1  0  0  0  0
 14 21  1  0  0  0  0
 14 15  1  0  0  0  0
 15  9  1  0  0  0  0
 16 15  2  0  0  0  0
 16 17  1  0  0  0  0
 18 16  1  0  0  0  0
 19 20  1  0  0  0  0
 19 18  2  0  0  0  0
 20 14  2  0  0  0  0
 21 22  1  0  0  0  0
 23 24  1  0  0  0  0
 23 20  1  0  0  0  0
 25 26  1  0  0  0  0
 26 27  2  0  0  0  0
 26  1  1  0  0  0  0
 27 32  1  0  0  0  0
 28 27  1  0  0  0  0
 29 28  2  0  0  0  0
 30 29  1  0  0  0  0
 30 25  2  0  0  0  0
 31 25  1  0  0  0  0
 33 38  1  6  0  0  0
 33 34  1  0  0  0  0
 34 35  1  0  0  0  0
 34 39  1  1  0  0  0
 34 29  1  0  0  0  0
 36 40  1  0  0  0  0
 36 35  1  0  0  0  0
 37 33  1  0  0  0  0
 37 42  1  1  0  0  0
 37 36  1  0  0  0  0
 41 36  1  0  0  0  0
 43 33  1  0  0  0  0
 44 43  1  0  0  0  0
 45 37  1  0  0  0  0
 46 45  1  0  0  0  0
M  END
>  <minimizedAffinity>
-6.72943449

$$$$

 OpenBabel03252503483D

 46 49  0  0  1  0  0  0  0  0999 V2000
   34.4460   29.1970   36.8510 C   0  0  0  0  0  0  0  0  0  0  0  0
   34.0150   30.1970   36.8440 H   0  0  0  0  0  0  0  0  0  0  0  0
   35.2780   29.2070   36.0820 H   0  0  0  0  0  0  0  0  0  0  0  0
   33.4300   28.1830   36.5040 C   0  0  0  0  0  0  0  0  0  0  0  0
   33.6180   26.8240   36.5070 C   0  0  0  0  0  0  0  0  0  0  0  0
   32.6210   25.9420   36.1790 C   0  0  0  0  0  0  0  0  0  0  0  0
   31.3770   26.4550   35.8300 C   0  0  0  0  0  0  0  0  0  0  0  0
   31.1710   27.8410   35.8230 C   0  0  0  0  0  0  0  0  0  0  0  0
   32.2080   28.7130   36.1640 C   0  0  0  0  0  0  0  0  0  0  0  0
   34.6360   26.5650   36.7980 H   0  0  0  0  0  0  0  0  0  0  0  0
   32.9250   24.9220   36.2300 H   0  0  0  0  0  0  0  0  0  0  0  0
   30.6900   25.6370   35.5960 H   0  0  0  0  0  0  0  0  0  0  0  0
   30.1330   27.9620   35.5210 H   0  0  0  0  0  0  0  0  0  0  0  0
   30.9870   30.3720   37.2330 C   0  0  0  0  0  0  0  0  0  0  0  0
   31.5740   30.0110   36.0150 C   0  0  0  0  0  0  0  0  0  0  0  0
   31.4310   30.8600   34.9420 C   0  0  0  0  0  0  0  0  0  0  0  0
   31.9360   30.4510   34.0710 H   0  0  0  0  0  0  0  0  0  0  0  0
   30.7250   32.0350   35.0710 C   0  0  0  0  0  3  0  0  0  0  0  0
   30.1490   32.3860   36.2740 C   0  0  0  0  0  3  0  0  0  0  0  0
   30.2700   31.5610   37.3710 C   0  0  0  0  0  0  0  0  0  0  0  0
   31.0170   29.6480   38.4410 O   0  0  0  0  0  0  0  0  0  0  0  0
   30.2580   29.0410   38.7150 H   0  0  0  0  0  0  0  0  0  0  0  0
   29.6630   31.9830   38.5440 O   0  0  0  0  0  0  0  0  0  0  0  0
   29.9000   31.5220   39.4290 H   0  0  0  0  0  0  0  0  0  0  0  0
   34.4520   29.1860   39.3440 C   0  0  0  0  0  0  0  0  0  0  0  0
   35.0520   28.8870   38.1270 C   0  0  0  0  0  0  0  0  0  0  0  0
   36.2890   28.2490   38.1900 C   0  0  0  0  0  0  0  0  0  0  0  0
   36.8750   27.9340   39.3700 N   0  0  0  0  0  0  0  0  0  0  0  0
   36.2480   28.2480   40.5320 C   0  0  0  0  0  0  0  0  0  0  0  0
   35.0440   28.8700   40.5210 N   0  0  0  0  0  0  0  0  0  0  0  0
   33.4950   29.6800   39.2520 H   0  0  0  0  0  0  0  0  0  0  0  0
   36.9000   27.9820   37.3530 H   0  0  0  0  0  0  0  0  0  0  0  0
   38.4290   27.6900   41.5860 C   0  0  2  0  0  0  0  0  0  0  0  0
   36.8970   27.8920   41.7850 C   0  0  1  0  0  0  0  0  0  0  0  0
   36.9350   28.8550   42.7350 O   0  0  0  0  0  0  0  0  0  0  0  0
   37.8500   28.4830   43.6770 C   0  0  0  0  0  0  0  0  0  0  0  0
   38.7870   27.4640   43.0580 C   0  0  2  0  0  0  0  0  0  0  0  0
   38.6100   26.7940   40.9760 H   0  0  0  0  0  0  0  0  0  0  0  0
   36.5040   26.9360   42.1940 H   0  0  0  0  0  0  0  0  0  0  0  0
   37.3680   28.1350   44.6020 H   0  0  0  0  0  0  0  0  0  0  0  0
   38.4210   29.4140   43.9570 H   0  0  0  0  0  0  0  0  0  0  0  0
   38.4800   26.4810   43.4170 H   0  0  0  0  0  0  0  0  0  0  0  0
   39.0000   28.8430   41.1970 O   0  0  0  0  0  0  0  0  0  0  0  0
   39.7220   28.6570   40.5540 H   0  0  0  0  0  0  0  0  0  0  0  0
   40.1060   27.6880   43.3330 O   0  0  0  0  0  0  0  0  0  0  0  0
   40.5970   27.9720   42.5260 H   0  0  0  0  0  0  0  0  0  0  0  0
  1 26  1  0  0  0  0
  2  1  1  0  0  0  0
  3  1  1  0  0  0  0
  4  5  1  0  0  0  0
  4  1  1  0  0  0  0
  5 10  1  0  0  0  0
  6 11  1  0  0  0  0
  6  5  2  0  0  0  0
  7  6  1  0  0  0  0
  8  7  2  0  0  0  0
  8  9  1  0  0  0  0
  9  4  2  0  0  0  0
 12  7  1  0  0  0  0
 13  8  1  0  0  0  0
 14 20  1  0  0  0  0
 14 21  1  0  0  0  0
 15  9  1  0  0  0  0
 15 14  2  0  0  0  0
 16 18  2  0  0  0  0
 16 15  1  0  0  0  0
 17 16  1  0  0  0  0
 18 19  1  0  0  0  0
 19 20  2  0  0  0  0
 20 23  1  0  0  0  0
 21 22  1  0  0  0  0
 23 24  1  0  0  0  0
 25 30  1  0  0  0  0
 26 27  1  0  0  0  0
 26 25  2  0  0  0  0
 27 28  2  0  0  0  0
 28 29  1  0  0  0  0
 29 34  1  0  0  0  0
 30 29  2  0  0  0  0
 31 25  1  0  0  0  0
 32 27  1  0  0  0  0
 33 38  1  6  0  0  0
 33 34  1  0  0  0  0
 33 37  1  0  0  0  0
 34 39  1  1  0  0  0
 34 35  1  0  0  0  0
 35 36  1  0  0  0  0
 36 41  1  0  0  0  0
 36 40  1  0  0  0  0
 37 45  1  0  0  0  0
 37 42  1  1  0  0  0
 37 36  1  0  0  0  0
 43 33  1  0  0  0  0
 44 43  1  0  0  0  0
 46 45  1  0  0  0  0
M  END
>  <minimizedAffinity>
-6.50157785

$$$$

 OpenBabel03252503483D

 46 49  0  0  1  0  0  0  0  0999 V2000
   37.9340   28.0390   39.4120 C   0  0  0  0  0  0  0  0  0  0  0  0
   38.3400   27.0720   39.1150 H   0  0  0  0  0  0  0  0  0  0  0  0
   38.7230   28.8070   39.1420 H   0  0  0  0  0  0  0  0  0  0  0  0
   37.6540   28.0700   40.8610 C   0  0  0  0  0  0  0  0  0  0  0  0
   37.1080   27.0480   41.5950 C   0  0  0  0  0  0  0  0  0  0  0  0
   36.8840   27.1480   42.9440 C   0  0  0  0  0  0  0  0  0  0  0  0
   37.2260   28.3360   43.5820 C   0  0  0  0  0  0  0  0  0  0  0  0
   37.7860   29.3870   42.8440 C   0  0  0  0  0  0  0  0  0  0  0  0
   38.0020   29.2520   41.4700 C   0  0  0  0  0  0  0  0  0  0  0  0
   36.8890   26.1820   40.9700 H   0  0  0  0  0  0  0  0  0  0  0  0
   36.4560   26.2700   43.3680 H   0  0  0  0  0  0  0  0  0  0  0  0
   36.9910   28.2670   44.6480 H   0  0  0  0  0  0  0  0  0  0  0  0
   37.9530   30.1750   43.5750 H   0  0  0  0  0  0  0  0  0  0  0  0
   37.5290   31.4050   40.7450 C   0  0  0  0  0  0  0  0  0  0  0  0
   38.5660   30.5440   41.1240 C   0  0  0  0  0  0  0  0  0  0  0  0
   39.8580   31.0120   41.0700 C   0  0  0  0  0  0  0  0  0  0  0  0
   40.5500   30.2390   41.3900 H   0  0  0  0  0  0  0  0  0  0  0  0
   40.1190   32.2980   40.6520 C   0  0  0  0  0  3  0  0  0  0  0  0
   39.0930   33.1430   40.2810 C   0  0  0  0  0  3  0  0  0  0  0  0
   37.7850   32.7100   40.3200 C   0  0  0  0  0  0  0  0  0  0  0  0
   36.1500   31.1230   40.7280 O   0  0  0  0  0  0  0  0  0  0  0  0
   35.6770   30.8330   39.8840 H   0  0  0  0  0  0  0  0  0  0  0  0
   36.8120   33.6170   39.9310 O   0  0  0  0  0  0  0  0  0  0  0  0
   35.8270   33.4220   40.1440 H   0  0  0  0  0  0  0  0  0  0  0  0
   36.7800   29.0220   37.4330 C   0  0  0  0  0  0  0  0  0  0  0  0
   36.7450   28.3710   38.6610 C   0  0  0  0  0  0  0  0  0  0  0  0
   35.4810   28.0330   39.1430 C   0  0  0  0  0  0  0  0  0  0  0  0
   34.3500   28.3200   38.4550 N   0  0  0  0  0  0  0  0  0  0  0  0
   34.4390   28.9570   37.2600 C   0  0  0  0  0  0  0  0  0  0  0  0
   35.6450   29.3070   36.7510 N   0  0  0  0  0  0  0  0  0  0  0  0
   37.7770   29.2660   37.0950 H   0  0  0  0  0  0  0  0  0  0  0  0
   35.2740   27.5650   40.0820 H   0  0  0  0  0  0  0  0  0  0  0  0
   32.6970   27.9860   35.7760 C   0  0  2  0  0  0  0  0  0  0  0  0
   33.2090   29.2460   36.5380 C   0  0  1  0  0  0  0  0  0  0  0  0
   32.1130   29.4900   37.2930 O   0  0  0  0  0  0  0  0  0  0  0  0
   31.0150   29.4000   36.4870 C   0  0  0  0  0  0  0  0  0  0  0  0
   31.3870   28.5910   35.2610 C   0  0  2  0  0  0  0  0  0  0  0  0
   33.3880   27.7420   34.9560 H   0  0  0  0  0  0  0  0  0  0  0  0
   33.3580   30.0380   35.7730 H   0  0  0  0  0  0  0  0  0  0  0  0
   30.5960   30.3900   36.2540 H   0  0  0  0  0  0  0  0  0  0  0  0
   30.2220   28.8610   37.0810 H   0  0  0  0  0  0  0  0  0  0  0  0
   31.5450   29.2950   34.4420 H   0  0  0  0  0  0  0  0  0  0  0  0
   32.3850   27.0130   36.6490 O   0  0  0  0  0  0  0  0  0  0  0  0
   32.6230   26.1360   36.2690 H   0  0  0  0  0  0  0  0  0  0  0  0
   30.4590   27.6510   34.9160 O   0  0  0  0  0  0  0  0  0  0  0  0
   30.7960   26.7380   35.0760 H   0  0  0  0  0  0  0  0  0  0  0  0
  1  4  1  0  0  0  0
  2  1  1  0  0  0  0
  3  1  1  0  0  0  0
  4  9  2  0  0  0  0
  4  5  1  0  0  0  0
  5  6  2  0  0  0  0
  6 11  1  0  0  0  0
  6  7  1  0  0  0  0
  7 12  1  0  0  0  0
  8 13  1  0  0  0  0
  8  7  2  0  0  0  0
  9  8  1  0  0  0  0
 10  5  1  0  0  0  0
 14 15  1  0  0  0  0
 15  9  1  0  0  0  0
 16 15  2  0  0  0  0
 16 17  1  0  0  0  0
 18 16  1  0  0  0  0
 19 20  1  0  0  0  0
 19 18  2  0  0  0  0
 20 14  2  0  0  0  0
 21 14  1  0  0  0  0
 22 21  1  0  0  0  0
 23 24  1  0  0  0  0
 23 20  1  0  0  0  0
 25 26  1  0  0  0  0
 26 27  2  0  0  0  0
 26  1  1  0  0  0  0
 27 32  1  0  0  0  0
 28 27  1  0  0  0  0
 29 28  2  0  0  0  0
 30 29  1  0  0  0  0
 30 25  2  0  0  0  0
 31 25  1  0  0  0  0
 33 38  1  6  0  0  0
 33 34  1  0  0  0  0
 33 43  1  0  0  0  0
 34 39  1  6  0  0  0
 34 29  1  0  0  0  0
 34 35  1  0  0  0  0
 36 41  1  0  0  0  0
 36 35  1  0  0  0  0
 37 42  1  6  0  0  0
 37 33  1  0  0  0  0
 37 36  1  0  0  0  0
 40 36  1  0  0  0  0
 44 43  1  0  0  0  0
 45 46  1  0  0  0  0
 45 37  1  0  0  0  0
M  END
>  <minimizedAffinity>
-6.40764904

$$$$

 OpenBabel03252503483D

 46 49  0  0  1  0  0  0  0  0999 V2000
   40.2920   30.9150   38.8750 C   0  0  0  0  0  0  0  0  0  0  0  0
   41.3430   31.1500   39.0390 H   0  0  0  0  0  0  0  0  0  0  0  0
   40.1870   30.7010   37.7670 H   0  0  0  0  0  0  0  0  0  0  0  0
   39.4310   32.0480   39.2680 C   0  0  0  0  0  0  0  0  0  0  0  0
   39.8260   33.1420   39.9960 C   0  0  0  0  0  0  0  0  0  0  0  0
   38.9670   34.1610   40.3170 C   0  0  0  0  0  0  0  0  0  0  0  0
   37.6490   34.0720   39.8850 C   0  0  0  0  0  0  0  0  0  0  0  0
   37.2320   32.9610   39.1410 C   0  0  0  0  0  0  0  0  0  0  0  0
   38.1330   31.9390   38.8300 C   0  0  0  0  0  0  0  0  0  0  0  0
   40.8800   33.0790   40.2670 H   0  0  0  0  0  0  0  0  0  0  0  0
   39.4260   34.9380   40.8840 H   0  0  0  0  0  0  0  0  0  0  0  0
   37.0890   34.9520   40.2150 H   0  0  0  0  0  0  0  0  0  0  0  0
   36.1790   33.1460   38.9390 H   0  0  0  0  0  0  0  0  0  0  0  0
   37.4790   31.2440   36.7140 C   0  0  0  0  0  0  0  0  0  0  0  0
   37.2970   31.0150   38.0830 C   0  0  0  0  0  0  0  0  0  0  0  0
   36.3930   30.0550   38.4710 C   0  0  0  0  0  0  0  0  0  0  0  0
   36.3590   29.9890   39.5550 H   0  0  0  0  0  0  0  0  0  0  0  0
   35.6870   29.3390   37.5310 C   0  0  0  0  0  3  0  0  0  0  0  0
   35.8700   29.5680   36.1830 C   0  0  0  0  0  3  0  0  0  0  0  0
   36.7670   30.5220   35.7540 C   0  0  0  0  0  0  0  0  0  0  0  0
   38.3490   32.1740   36.1140 O   0  0  0  0  0  0  0  0  0  0  0  0
   38.0290   33.0840   35.8130 H   0  0  0  0  0  0  0  0  0  0  0  0
   36.8950   30.6940   34.3850 O   0  0  0  0  0  0  0  0  0  0  0  0
   37.6890   31.2280   34.0150 H   0  0  0  0  0  0  0  0  0  0  0  0
   39.5720   28.5290   38.9290 C   0  0  0  0  0  0  0  0  0  0  0  0
   39.8990   29.7140   39.5780 C   0  0  0  0  0  0  0  0  0  0  0  0
   39.8410   29.6910   40.9700 C   0  0  0  0  0  0  0  0  0  0  0  0
   39.4890   28.5770   41.6550 N   0  0  0  0  0  0  0  0  0  0  0  0
   39.1800   27.4450   40.9760 C   0  0  0  0  0  0  0  0  0  0  0  0
   39.2200   27.4190   39.6210 N   0  0  0  0  0  0  0  0  0  0  0  0
   39.6290   28.5880   37.8510 H   0  0  0  0  0  0  0  0  0  0  0  0
   40.0250   30.5230   41.6180 H   0  0  0  0  0  0  0  0  0  0  0  0
   38.5040   25.0600   40.7920 C   0  0  2  0  0  0  0  0  0  0  0  0
   38.8120   26.2600   41.7370 C   0  0  1  0  0  0  0  0  0  0  0  0
   39.7940   25.6940   42.4760 O   0  0  0  0  0  0  0  0  0  0  0  0
   39.3850   24.4420   42.8360 C   0  0  0  0  0  0  0  0  0  0  0  0
   38.2910   24.0050   41.8820 C   0  0  2  0  0  0  0  0  0  0  0  0
   37.5820   25.2600   40.2260 H   0  0  0  0  0  0  0  0  0  0  0  0
   37.8950   26.4280   42.3420 H   0  0  0  0  0  0  0  0  0  0  0  0
   39.0930   24.3940   43.8940 H   0  0  0  0  0  0  0  0  0  0  0  0
   40.2820   23.7670   42.7300 H   0  0  0  0  0  0  0  0  0  0  0  0
   37.3390   24.1270   42.4010 H   0  0  0  0  0  0  0  0  0  0  0  0
   39.6060   24.7200   40.1010 O   0  0  0  0  0  0  0  0  0  0  0  0
   39.3560   24.4420   39.1900 H   0  0  0  0  0  0  0  0  0  0  0  0
   38.4320   22.7250   41.4280 O   0  0  0  0  0  0  0  0  0  0  0  0
   38.6630   22.7080   40.4690 H   0  0  0  0  0  0  0  0  0  0  0  0
  1  2  1  0  0  0  0
  1  4  1  0  0  0  0
  1 26  1  0  0  0  0
  3  1  1  0  0  0  0
  4  5  1  0  0  0  0
  5 10  1  0  0  0  0
  5  6  2  0  0  0  0
  6 11  1  0  0  0  0
  7 12  1  0  0  0  0
  7  6  1  0  0  0  0
  8  7  2  0  0  0  0
  9  8  1  0  0  0  0
  9  4  2  0  0  0  0
 13  8  1  0  0  0  0
 14 15  1  0  0  0  0
 15 16  2  0  0  0  0
 15  9  1  0  0  0  0
 16 17  1  0  0  0  0
 18 16  1  0  0  0  0
 19 18  2  0  0  0  0
 20 19  1  0  0  0  0
 20 14  2  0  0  0  0
 21 14  1  0  0  0  0
 22 21  1  0  0  0  0
 23 20  1  0  0  0  0
 24 23  1  0  0  0  0
 25 26  2  0  0  0  0
 25 30  1  0  0  0  0
 26 27  1  0  0  0  0
 27 32  1  0  0  0  0
 27 28  2  0  0  0  0
 29 28  1  0  0  0  0
 29 34  1  0  0  0  0
 30 29  2  0  0  0  0
 31 25  1  0  0  0  0
 33 38  1  6  0  0  0
 33 34  1  0  0  0  0
 33 37  1  0  0  0  0
 34 39  1  1  0  0  0
 34 35  1  0  0  0  0
 35 36  1  0  0  0  0
 36 40  1  0  0  0  0
 37 42  1  1  0  0  0
 37 36  1  0  0  0  0
 41 36  1  0  0  0  0
 43 33  1  0  0  0  0
 44 43  1  0  0  0  0
 45 37  1  0  0  0  0
 46 45  1  0  0  0  0
M  END
>  <minimizedAffinity>
-6.36736298

$$$$

 OpenBabel03252503483D

 46 49  0  0  1  0  0  0  0  0999 V2000
   37.5970   28.4250   36.8880 C   0  0  0  0  0  0  0  0  0  0  0  0
   37.8550   28.2460   35.8450 H   0  0  0  0  0  0  0  0  0  0  0  0
   37.9460   27.5110   37.4600 H   0  0  0  0  0  0  0  0  0  0  0  0
   36.1420   28.6120   37.0460 C   0  0  0  0  0  0  0  0  0  0  0  0
   35.2810   29.0680   36.0800 C   0  0  0  0  0  0  0  0  0  0  0  0
   33.9350   29.2080   36.2990 C   0  0  0  0  0  0  0  0  0  0  0  0
   33.4340   28.8740   37.5520 C   0  0  0  0  0  0  0  0  0  0  0  0
   34.3020   28.4060   38.5480 C   0  0  0  0  0  0  0  0  0  0  0  0
   35.6690   28.2740   38.2910 C   0  0  0  0  0  0  0  0  0  0  0  0
   35.8080   29.2920   35.1520 H   0  0  0  0  0  0  0  0  0  0  0  0
   33.4040   29.5720   35.4510 H   0  0  0  0  0  0  0  0  0  0  0  0
   32.3530   29.0370   37.5760 H   0  0  0  0  0  0  0  0  0  0  0  0
   33.6590   28.2240   39.4070 H   0  0  0  0  0  0  0  0  0  0  0  0
   36.2510   28.8570   40.4610 C   0  0  0  0  0  0  0  0  0  0  0  0
   36.1700   27.7850   39.5640 C   0  0  0  0  0  0  0  0  0  0  0  0
   36.5870   26.5450   39.9870 C   0  0  0  0  0  0  0  0  0  0  0  0
   36.4670   25.8180   39.1890 H   0  0  0  0  0  0  0  0  0  0  0  0
   37.0720   26.3690   41.2630 C   0  0  0  0  0  3  0  0  0  0  0  0
   37.1490   27.4280   42.1430 C   0  0  0  0  0  3  0  0  0  0  0  0
   36.7410   28.6860   41.7570 C   0  0  0  0  0  0  0  0  0  0  0  0
   35.8780   30.1950   40.2270 O   0  0  0  0  0  0  0  0  0  0  0  0
   36.5540   30.8950   39.9550 H   0  0  0  0  0  0  0  0  0  0  0  0
   36.8500   29.6980   42.6980 O   0  0  0  0  0  0  0  0  0  0  0  0
   36.3680   30.5900   42.5370 H   0  0  0  0  0  0  0  0  0  0  0  0
   39.5420   29.4480   38.0650 C   0  0  0  0  0  0  0  0  0  0  0  0
   38.3130   29.5600   37.4260 C   0  0  0  0  0  0  0  0  0  0  0  0
   37.7930   30.8480   37.3130 C   0  0  0  0  0  0  0  0  0  0  0  0
   38.4470   31.9320   37.7950 N   0  0  0  0  0  0  0  0  0  0  0  0
   39.6450   31.7690   38.4110 C   0  0  0  0  0  0  0  0  0  0  0  0
   40.1900   30.5350   38.5460 N   0  0  0  0  0  0  0  0  0  0  0  0
   39.9110   28.4340   38.1320 H   0  0  0  0  0  0  0  0  0  0  0  0
   36.8470   31.1060   36.8840 H   0  0  0  0  0  0  0  0  0  0  0  0
   40.5710   32.8470   40.4490 C   0  0  2  0  0  0  0  0  0  0  0  0
   40.3300   32.9500   38.9130 C   0  0  1  0  0  0  0  0  0  0  0  0
   41.6120   33.1160   38.5130 O   0  0  0  0  0  0  0  0  0  0  0  0
   42.1910   34.0490   39.3240 C   0  0  0  0  0  0  0  0  0  0  0  0
   41.3840   34.1360   40.6040 C   0  0  2  0  0  0  0  0  0  0  0  0
   39.6090   32.9010   40.9810 H   0  0  0  0  0  0  0  0  0  0  0  0
   39.7330   33.8730   38.7490 H   0  0  0  0  0  0  0  0  0  0  0  0
   42.3160   35.0150   38.8140 H   0  0  0  0  0  0  0  0  0  0  0  0
   43.2330   33.6790   39.5470 H   0  0  0  0  0  0  0  0  0  0  0  0
   40.7650   35.0320   40.5380 H   0  0  0  0  0  0  0  0  0  0  0  0
   41.3850   31.8130   40.7220 O   0  0  0  0  0  0  0  0  0  0  0  0
   41.1090   31.3840   41.5640 H   0  0  0  0  0  0  0  0  0  0  0  0
   42.1470   34.1600   41.7370 O   0  0  0  0  0  0  0  0  0  0  0  0
   42.0470   33.3250   42.2540 H   0  0  0  0  0  0  0  0  0  0  0  0
  1  4  1  0  0  0  0
  1 26  1  0  0  0  0
  1  3  1  0  0  0  0
  2  1  1  0  0  0  0
  4  9  1  0  0  0  0
  5  6  1  0  0  0  0
  5  4  2  0  0  0  0
  6  7  2  0  0  0  0
  7 12  1  0  0  0  0
  7  8  1  0  0  0  0
  8 13  1  0  0  0  0
  9  8  2  0  0  0  0
  9 15  1  0  0  0  0
 10  5  1  0  0  0  0
 11  6  1  0  0  0  0
 14 20  1  0  0  0  0
 15 16  1  0  0  0  0
 15 14  2  0  0  0  0
 16 18  2  0  0  0  0
 17 16  1  0  0  0  0
 18 19  1  0  0  0  0
 20 19  2  0  0  0  0
 20 23  1  0  0  0  0
 21 14  1  0  0  0  0
 22 21  1  0  0  0  0
 24 23  1  0  0  0  0
 25 31  1  0  0  0  0
 25 30  1  0  0  0  0
 26 25  2  0  0  0  0
 27 26  1  0  0  0  0
 27 28  2  0  0  0  0
 28 29  1  0  0  0  0
 29 30  2  0  0  0  0
 29 34  1  0  0  0  0
 32 27  1  0  0  0  0
 33 37  1  0  0  0  0
 33 43  1  0  0  0  0
 33 38  1  1  0  0  0
 34 39  1  6  0  0  0
 34 33  1  0  0  0  0
 35 34  1  0  0  0  0
 35 36  1  0  0  0  0
 36 41  1  0  0  0  0
 36 37  1  0  0  0  0
 37 42  1  6  0  0  0
 37 45  1  0  0  0  0
 40 36  1  0  0  0  0
 43 44  1  0  0  0  0
 45 46  1  0  0  0  0
M  END
>  <minimizedAffinity>
-6.22454166

$$$$
