
 OpenBabel03242519473D

 40 42  0  0  1  0  0  0  0  0999 V2000
   46.6620   32.8610   46.6180 C   0  0  2  0  0  0  0  0  0  0  0  0
   47.0900   32.7950   45.2060 C   0  0  1  0  0  0  0  0  0  0  0  0
   46.6280   31.4700   44.7700 O   0  0  0  0  0  0  0  0  0  0  0  0
   47.2800   30.7420   45.7920 C   0  0  0  0  0  0  0  0  0  0  0  0
   46.6120   31.3940   47.0300 C   0  0  2  0  0  0  0  0  0  0  0  0
   47.3170   33.4420   47.2840 H   0  0  0  0  0  0  0  0  0  0  0  0
   48.1930   32.7930   45.0670 H   0  0  0  0  0  0  0  0  0  0  0  0
   48.3590   31.0230   45.7740 H   0  0  0  0  0  0  0  0  0  0  0  0
   47.1100   29.6880   45.7150 H   0  0  0  0  0  0  0  0  0  0  0  0
   47.2630   31.1290   47.8910 H   0  0  0  0  0  0  0  0  0  0  0  0
   44.7170   35.2730   43.9540 C   0  0  0  0  0  0  0  0  0  0  0  0
   45.3400   35.7750   42.8140 C   0  0  0  0  0  0  0  0  0  0  0  0
   46.6040   35.2560   42.4520 C   0  0  0  0  0  0  0  0  0  0  0  0
   47.1600   34.2940   43.2220 N   0  0  0  0  0  0  0  0  0  0  0  0
   46.5290   33.8220   44.3280 C   0  0  0  0  0  0  0  0  0  0  0  0
   45.3140   34.3020   44.7000 N   0  0  0  0  0  0  0  0  0  0  0  0
   44.8690   36.5320   42.2340 H   0  0  0  0  0  0  0  0  0  0  0  0
   47.1220   35.6170   41.5750 H   0  0  0  0  0  0  0  0  0  0  0  0
   43.4670   35.7450   44.3620 O   0  0  0  0  0  0  0  0  0  0  0  0
   42.6570   35.3280   43.8870 H   0  0  0  0  0  0  0  0  0  0  0  0
   45.3210   33.3760   46.6890 O   0  0  0  0  0  0  0  0  0  0  0  0
   45.1570   33.5460   47.6630 H   0  0  0  0  0  0  0  0  0  0  0  0
   45.3390   30.9360   47.1060 O   0  0  0  0  0  0  0  0  0  0  0  0
   44.9710   30.1490   48.1580 C   0  0  0  0  0  0  0  0  0  0  0  0
   43.8180   30.1990   48.2670 H   0  0  0  0  0  0  0  0  0  0  0  0
   45.4150   30.4110   49.0820 H   0  0  0  0  0  0  0  0  0  0  0  0
   45.1150   28.6460   47.9020 C   0  0  0  0  0  0  0  0  0  0  0  0
   44.5160   28.1450   48.6880 H   0  0  0  0  0  0  0  0  0  0  0  0
   46.1560   28.3030   48.0490 H   0  0  0  0  0  0  0  0  0  0  0  0
   45.4340   27.6180   45.7540 C   0  0  0  0  0  0  0  0  0  0  0  0
   44.5520   28.3190   46.5940 C   0  0  0  0  0  0  0  0  0  0  0  0
   43.3290   28.5710   46.0220 C   0  0  0  0  0  0  0  0  0  0  0  0
   42.6470   29.1080   46.6250 H   0  0  0  0  0  0  0  0  0  0  0  0
   42.9520   28.1970   44.7670 C   0  0  0  0  0  3  0  0  0  0  0  0
   43.8260   27.5110   43.9590 C   0  0  0  0  0  3  0  0  0  0  0  0
   45.0930   27.2160   44.4630 C   0  0  0  0  0  0  0  0  0  0  0  0
   46.7370   27.2210   46.0470 O   0  0  0  0  0  0  0  0  0  0  0  0
   47.5050   27.5230   45.4520 H   0  0  0  0  0  0  0  0  0  0  0  0
   45.9050   26.5320   43.5990 O   0  0  0  0  0  0  0  0  0  0  0  0
   45.8450   26.6160   42.6000 H   0  0  0  0  0  0  0  0  0  0  0  0
  1 21  1  0  0  0  0
  1  5  1  0  0  0  0
  1  6  1  1  0  0  0
  2  7  1  6  0  0  0
  2  1  1  0  0  0  0
  3  2  1  0  0  0  0
  3  4  1  0  0  0  0
  4  5  1  0  0  0  0
  5 23  1  0  0  0  0
  5 10  1  1  0  0  0
  8  4  1  0  0  0  0
  9  4  1  0  0  0  0
 11 19  1  0  0  0  0
 11 16  1  0  0  0  0
 12 11  2  0  0  0  0
 13 12  1  0  0  0  0
 13 14  2  0  0  0  0
 14 15  1  0  0  0  0
 15 16  2  0  0  0  0
 15  2  1  0  0  0  0
 17 12  1  0  0  0  0
 18 13  1  0  0  0  0
 20 19  1  0  0  0  0
 21 22  1  0  0  0  0
 23 24  1  0  0  0  0
 24 25  1  0  0  0  0
 24 26  1  0  0  0  0
 27 29  1  0  0  0  0
 27 24  1  0  0  0  0
 27 28  1  0  0  0  0
 30 37  1  0  0  0  0
 30 31  1  0  0  0  0
 31 27  1  0  0  0  0
 32 31  2  0  0  0  0
 32 33  1  0  0  0  0
 34 32  1  0  0  0  0
 35 36  1  0  0  0  0
 35 34  2  0  0  0  0
 36 30  2  0  0  0  0
 38 37  1  0  0  0  0
 39 36  1  0  0  0  0
 40 39  1  0  0  0  0
M  END
>  <minimizedAffinity>
-5.19747591

>  <minimizedRMSD>
0.836015642

$$$$
