
 OpenBabel03252505303D

 29 30  0  0  0  0  0  0  0  0999 V2000
   45.5650   30.5990   46.6310 O   0  0  0  0  0  0  0  0  0  0  0  0
   45.1380   29.8350   47.6760 C   0  0  0  0  0  0  0  0  0  0  0  0
   44.2920   30.3420   48.2150 H   0  0  0  0  0  0  0  0  0  0  0  0
   45.9310   29.7360   48.4650 H   0  0  0  0  0  0  0  0  0  0  0  0
   43.8170   28.2580   46.2090 C   0  0  0  0  0  0  0  0  0  0  0  0
   44.6190   28.4960   47.3020 C   0  0  0  0  0  0  0  0  0  0  0  0
   44.9570   27.4150   48.1050 C   0  0  0  0  0  0  0  0  0  0  0  0
   45.5780   27.5250   48.9770 H   0  0  0  0  0  0  0  0  0  0  0  0
   44.5390   26.1130   47.8750 C   0  0  0  0  0  3  0  0  0  0  0  0
   43.7320   25.8950   46.7700 C   0  0  0  0  0  3  0  0  0  0  0  0
   43.3960   26.9850   45.9680 C   0  0  0  0  0  0  0  0  0  0  0  0
   43.4810   29.3390   45.4080 O   0  0  0  0  0  0  0  0  0  0  0  0
   42.5990   29.8290   45.4200 H   0  0  0  0  0  0  0  0  0  0  0  0
   42.5910   26.7780   44.8610 O   0  0  0  0  0  0  0  0  0  0  0  0
   43.0480   26.7050   43.9640 H   0  0  0  0  0  0  0  0  0  0  0  0
   47.0090   31.8710   48.3590 O   0  0  0  0  0  0  0  0  0  0  0  0
   46.0010   32.1220   47.2370 P   0  0  2  0  0  0  0  0  0  0  0  0
   44.5940   32.8540   47.8140 O   0  0  0  0  0  0  0  0  0  0  0  0
   44.8510   33.2820   48.6930 H   0  0  0  0  0  0  0  0  0  0  0  0
   46.7540   33.0880   46.0890 O   0  0  0  0  0  0  0  0  0  0  0  0
   44.4720   35.5280   44.9190 C   0  0  0  0  0  0  0  0  0  0  0  0
   44.8190   35.7530   43.5650 C   0  0  0  0  0  0  0  0  0  0  0  0
   45.9090   34.9900   43.0830 C   0  0  0  0  0  0  0  0  0  0  0  0
   46.5280   34.1170   43.9450 N   0  0  0  0  0  0  0  0  0  0  0  0
   46.1450   33.9580   45.2110 C   0  0  0  0  0  0  0  0  0  0  0  0
   45.1260   34.6600   45.6860 N   0  0  0  0  0  0  0  0  0  0  0  0
   43.6240   36.1380   45.2470 H   0  0  0  0  0  0  0  0  0  0  0  0
   44.2970   36.4520   42.9250 H   0  0  0  0  0  0  0  0  0  0  0  0
   46.2320   35.1060   42.0600 H   0  0  0  0  0  0  0  0  0  0  0  0
  1 17  1  0  0  0  0
  1  2  1  0  0  0  0
  2  3  1  0  0  0  0
  2  4  1  0  0  0  0
  5  6  1  0  0  0  0
  6  2  1  0  0  0  0
  6  7  2  0  0  0  0
  7  8  1  0  0  0  0
  9  7  1  0  0  0  0
 10  9  2  0  0  0  0
 11  5  2  0  0  0  0
 11 10  1  0  0  0  0
 12 13  1  0  0  0  0
 12  5  1  0  0  0  0
 14 11  1  0  0  0  0
 15 14  1  0  0  0  0
 17 18  1  0  0  0  0
 17 16  2  1  0  0  0
 18 19  1  0  0  0  0
 20 17  1  0  0  0  0
 21 27  1  0  0  0  0
 21 26  1  0  0  0  0
 22 21  2  0  0  0  0
 23 22  1  0  0  0  0
 23 24  2  0  0  0  0
 24 25  1  0  0  0  0
 25 26  2  0  0  0  0
 25 20  1  0  0  0  0
 28 22  1  0  0  0  0
 29 23  1  0  0  0  0
M  END
>  <minimizedAffinity>
-4.99951792

>  <minimizedRMSD>
0.881299376

$$$$
