
 OpenBabel03252508173D

 49 53  0  0  1  0  0  0  0  0999 V2000
   46.8300   31.6270   48.2630 C   0  0  1  0  0  0  0  0  0  0  0  0
   46.3070   30.5840   49.1890 C   0  0  0  0  0  0  0  0  0  0  0  0
   47.5850   31.2330   49.4650 C   0  0  1  0  0  0  0  0  0  0  0  0
   46.1030   32.4920   48.2410 H   0  0  0  0  0  0  0  0  0  0  0  0
   45.4540   30.7690   49.8740 H   0  0  0  0  0  0  0  0  0  0  0  0
   46.3030   29.5190   48.8460 H   0  0  0  0  0  0  0  0  0  0  0  0
   47.5910   31.9710   50.2940 H   0  0  0  0  0  0  0  0  0  0  0  0
   48.8950   30.5360   49.2770 C   0  0  2  0  0  0  0  0  0  0  0  0
   49.6470   30.2530   50.6020 C   0  0  0  0  0  0  0  0  0  0  0  0
   50.1590   31.2840   49.6880 C   0  0  1  0  0  0  0  0  0  0  0  0
   49.0320   29.7010   48.5800 H   0  0  0  0  0  0  0  0  0  0  0  0
   49.1580   30.6140   51.5510 H   0  0  0  0  0  0  0  0  0  0  0  0
   50.1230   29.2880   50.7620 H   0  0  0  0  0  0  0  0  0  0  0  0
   49.9900   32.3440   49.9720 H   0  0  0  0  0  0  0  0  0  0  0  0
   51.4840   29.9560   48.0050 C   0  0  0  0  0  0  0  0  0  0  0  0
   51.4050   31.0050   48.9000 C   0  0  0  0  0  0  0  0  0  0  0  0
   52.5180   31.8050   49.0610 C   0  0  0  0  0  0  0  0  0  0  0  0
   52.5460   32.6410   49.7350 H   0  0  0  0  0  0  0  0  0  0  0  0
   53.7040   31.5970   48.3600 C   0  0  0  0  0  3  0  0  0  0  0  0
   53.7580   30.5370   47.4650 C   0  0  0  0  0  3  0  0  0  0  0  0
   52.6420   29.7150   47.2880 C   0  0  0  0  0  0  0  0  0  0  0  0
   50.3480   29.1490   47.8490 O   0  0  0  0  0  0  0  0  0  0  0  0
   49.5640   29.5780   47.3400 H   0  0  0  0  0  0  0  0  0  0  0  0
   52.7110   28.6470   46.3800 O   0  0  0  0  0  0  0  0  0  0  0  0
   52.5620   28.9350   45.4010 H   0  0  0  0  0  0  0  0  0  0  0  0
   47.2340   31.1340   46.9240 C   0  0  0  0  0  0  0  0  0  0  0  0
   46.5120   30.3030   46.6660 H   0  0  0  0  0  0  0  0  0  0  0  0
   48.2150   30.7280   46.7850 H   0  0  0  0  0  0  0  0  0  0  0  0
   46.1110   33.0640   46.1690 C   0  0  0  0  0  3  0  0  0  0  0  0
   46.9510   32.1690   45.8600 C   0  0  0  0  0  3  0  0  0  0  0  0
   44.5360   35.8890   44.4020 C   0  0  0  0  0  0  0  0  0  0  0  0
   45.1700   35.8740   43.1630 C   0  0  0  0  0  0  0  0  0  0  0  0
   46.1010   34.9100   42.9770 C   0  0  0  0  0  0  0  0  0  0  0  0
   46.3790   34.0180   43.9700 N   0  0  0  0  0  0  0  0  0  0  0  0
   45.7510   34.0580   45.1570 C   0  0  0  0  0  0  0  0  0  0  0  0
   44.8380   35.0000   45.3420 N   0  0  0  0  0  0  0  0  0  0  0  0
   43.7840   36.6610   44.5640 H   0  0  0  0  0  0  0  0  0  0  0  0
   44.9420   36.5840   42.3860 H   0  0  0  0  0  0  0  0  0  0  0  0
   46.8460   34.7670   41.7300 C   0  0  0  0  0  0  0  0  0  0  0  0
   48.0500   35.3500   41.4650 C   0  0  0  0  0  0  0  0  0  0  0  0
   48.7380   35.2010   40.2770 C   0  0  0  0  0  0  0  0  0  0  0  0
   48.2070   34.4200   39.2710 C   0  0  0  0  0  0  0  0  0  0  0  0
   47.0000   33.8060   39.4740 C   0  0  0  0  0  0  0  0  0  0  0  0
   46.3590   33.9930   40.6840 C   0  0  0  0  0  0  0  0  0  0  0  0
   48.5020   35.9770   42.2380 H   0  0  0  0  0  0  0  0  0  0  0  0
   49.6890   35.6830   40.1150 H   0  0  0  0  0  0  0  0  0  0  0  0
   48.6800   34.2510   38.3120 H   0  0  0  0  0  0  0  0  0  0  0  0
   46.5610   33.1930   38.7120 H   0  0  0  0  0  0  0  0  0  0  0  0
   45.3930   33.4760   40.7940 H   0  0  0  0  0  0  0  0  0  0  0  0
  1  4  1  1  0  0  0
  1  2  1  0  0  0  0
  1  3  1  0  0  0  0
  2  3  1  0  0  0  0
  2  5  1  0  0  0  0
  3  7  1  1  0  0  0
  6  2  1  0  0  0  0
  8 11  1  6  0  0  0
  8  3  1  0  0  0  0
  8 10  1  0  0  0  0
  8  9  1  0  0  0  0
  9 13  1  0  0  0  0
  9 12  1  0  0  0  0
 10 14  1  1  0  0  0
 10  9  1  0  0  0  0
 15 16  1  0  0  0  0
 16 17  2  0  0  0  0
 16 10  1  0  0  0  0
 17 18  1  0  0  0  0
 19 17  1  0  0  0  0
 20 19  2  0  0  0  0
 21 20  1  0  0  0  0
 21 15  2  0  0  0  0
 22 15  1  0  0  0  0
 23 22  1  0  0  0  0
 24 21  1  0  0  0  0
 25 24  1  0  0  0  0
 26  1  1  0  0  0  0
 27 26  1  0  0  0  0
 28 26  1  0  0  0  0
 30 29  2  0  0  0  0
 30 26  1  0  0  0  0
 31 37  1  0  0  0  0
 31 36  1  0  0  0  0
 32 31  2  0  0  0  0
 33 32  1  0  0  0  0
 33 34  2  0  0  0  0
 34 35  1  0  0  0  0
 35 36  2  0  0  0  0
 35 29  1  0  0  0  0
 38 32  1  0  0  0  0
 39 33  1  0  0  0  0
 40 39  1  0  0  0  0
 40 45  1  0  0  0  0
 41 40  2  0  0  0  0
 42 43  2  0  0  0  0
 42 41  1  0  0  0  0
 43 44  1  0  0  0  0
 44 49  1  0  0  0  0
 44 39  2  0  0  0  0
 46 41  1  0  0  0  0
 47 42  1  0  0  0  0
 48 43  1  0  0  0  0
M  END
>  <minimizedAffinity>
-6.62700224

>  <minimizedRMSD>
0.807728469

$$$$
