
 OpenBabel03252503413D

 23 24  0  0  0  0  0  0  0  0999 V2000
   46.0840   34.0590   44.6800 C   0  0  0  0  0  0  0  0  0  0  0  0
   45.5960   35.0160   43.7880 C   0  0  0  0  0  0  0  0  0  0  0  0
   46.1920   35.0920   42.5360 C   0  0  0  0  0  0  0  0  0  0  0  0
   47.2090   34.2370   42.2480 N   0  0  0  0  0  0  0  0  0  0  0  0
   47.6570   33.3260   43.1240 C   0  0  0  0  0  0  0  0  0  0  0  0
   47.1020   33.2250   44.3470 N   0  0  0  0  0  0  0  0  0  0  0  0
   45.7170   33.8790   45.6980 H   0  0  0  0  0  0  0  0  0  0  0  0
   45.7750   35.8430   41.9040 H   0  0  0  0  0  0  0  0  0  0  0  0
   49.9140   32.9120   42.2270 C   0  0  0  0  0  0  0  0  0  0  0  0
   48.7520   32.4300   42.7680 C   0  0  0  0  0  0  0  0  0  0  0  0
   48.6610   31.0750   42.9590 C   0  0  0  0  0  0  0  0  0  0  0  0
   47.7890   30.6130   43.3760 H   0  0  0  0  0  0  0  0  0  0  0  0
   49.7180   30.2470   42.6110 C   0  0  0  0  0  3  0  0  0  0  0  0
   50.8800   30.7600   42.0670 C   0  0  0  0  0  3  0  0  0  0  0  0
   50.9870   32.1250   41.8680 C   0  0  0  0  0  0  0  0  0  0  0  0
   49.9970   34.3040   42.0350 O   0  0  0  0  0  0  0  0  0  0  0  0
   50.3890   34.9240   42.7210 H   0  0  0  0  0  0  0  0  0  0  0  0
   52.1160   32.7560   41.3240 O   0  0  0  0  0  0  0  0  0  0  0  0
   52.4050   33.6710   41.6640 H   0  0  0  0  0  0  0  0  0  0  0  0
   44.4840   35.8380   44.3160 C   0  0  0  0  0  0  0  0  0  0  0  0
   43.5300   35.2670   44.3470 H   0  0  0  0  0  0  0  0  0  0  0  0
   44.3870   36.7200   43.6510 H   0  0  0  0  0  0  0  0  0  0  0  0
   44.7060   36.0960   45.3700 H   0  0  0  0  0  0  0  0  0  0  0  0
  1  7  1  0  0  0  0
  2 20  1  0  0  0  0
  2  1  2  0  0  0  0
  3  2  1  0  0  0  0
  4  3  2  0  0  0  0
  4  5  1  0  0  0  0
  5  6  2  0  0  0  0
  6  1  1  0  0  0  0
  8  3  1  0  0  0  0
  9 10  1  0  0  0  0
 10 11  2  0  0  0  0
 10  5  1  0  0  0  0
 11 12  1  0  0  0  0
 13 11  1  0  0  0  0
 14 13  2  0  0  0  0
 15 14  1  0  0  0  0
 15  9  2  0  0  0  0
 16  9  1  0  0  0  0
 16 17  1  0  0  0  0
 18 19  1  0  0  0  0
 18 15  1  0  0  0  0
 20 21  1  0  0  0  0
 20 23  1  0  0  0  0
 22 20  1  0  0  0  0
M  END
>  <minimizedAffinity>
-4.43128109

>  <minimizedRMSD>
5.60056973

$$$$
