
 OpenBabel03252503413D

 23 24  0  0  0  0  0  0  0  0999 V2000
   45.2800   34.8080   44.0480 C   0  0  0  0  0  0  0  0  0  0  0  0
   44.8850   35.7440   43.0890 C   0  0  0  0  0  0  0  0  0  0  0  0
   44.2580   35.2680   41.9450 C   0  0  0  0  0  0  0  0  0  0  0  0
   44.0650   33.9270   41.8200 N   0  0  0  0  0  0  0  0  0  0  0  0
   44.4540   33.0510   42.7570 C   0  0  0  0  0  0  0  0  0  0  0  0
   45.0640   33.4780   43.8790 N   0  0  0  0  0  0  0  0  0  0  0  0
   45.7820   35.0300   44.9970 H   0  0  0  0  0  0  0  0  0  0  0  0
   43.9840   36.0310   41.2530 H   0  0  0  0  0  0  0  0  0  0  0  0
   45.2570   30.7260   42.6290 C   0  0  0  0  0  0  0  0  0  0  0  0
   44.2240   31.6220   42.5770 C   0  0  0  0  0  0  0  0  0  0  0  0
   42.9670   31.1210   42.3500 C   0  0  0  0  0  0  0  0  0  0  0  0
   42.1010   31.7490   42.2920 H   0  0  0  0  0  0  0  0  0  0  0  0
   42.7760   29.7590   42.1820 C   0  0  0  0  0  3  0  0  0  0  0  0
   43.8380   28.8740   42.2390 C   0  0  0  0  0  3  0  0  0  0  0  0
   45.1120   29.3640   42.4670 C   0  0  0  0  0  0  0  0  0  0  0  0
   46.5420   31.2510   42.8630 O   0  0  0  0  0  0  0  0  0  0  0  0
   46.9370   31.3300   43.7820 H   0  0  0  0  0  0  0  0  0  0  0  0
   46.2610   28.5650   42.5450 O   0  0  0  0  0  0  0  0  0  0  0  0
   47.0060   28.7990   43.1990 H   0  0  0  0  0  0  0  0  0  0  0  0
   45.1970   37.1480   43.4360 C   0  0  0  0  0  0  0  0  0  0  0  0
   44.5100   37.5410   44.2170 H   0  0  0  0  0  0  0  0  0  0  0  0
   45.1050   37.7410   42.5040 H   0  0  0  0  0  0  0  0  0  0  0  0
   46.2070   37.1820   43.8900 H   0  0  0  0  0  0  0  0  0  0  0  0
  1  7  1  0  0  0  0
  2 20  1  0  0  0  0
  2  1  2  0  0  0  0
  3  2  1  0  0  0  0
  4  3  2  0  0  0  0
  4  5  1  0  0  0  0
  5  6  2  0  0  0  0
  6  1  1  0  0  0  0
  8  3  1  0  0  0  0
  9 16  1  0  0  0  0
 10  9  1  0  0  0  0
 10  5  1  0  0  0  0
 11 10  2  0  0  0  0
 12 11  1  0  0  0  0
 13 14  2  0  0  0  0
 13 11  1  0  0  0  0
 14 15  1  0  0  0  0
 15 18  1  0  0  0  0
 15  9  2  0  0  0  0
 16 17  1  0  0  0  0
 18 19  1  0  0  0  0
 20 23  1  0  0  0  0
 20 21  1  0  0  0  0
 22 20  1  0  0  0  0
M  END
>  <minimizedAffinity>
-2.71705294

>  <minimizedRMSD>
5.76463938

$$$$
