
 OpenBabel03242514453D

 23 24  0  0  0  0  0  0  0  0999 V2000
   37.2360   28.1160   40.9650 C   0  0  0  0  0  0  0  0  0  0  0  0
   37.7280   29.2380   41.6280 C   0  0  0  0  0  0  0  0  0  0  0  0
   37.7880   29.2060   43.0340 C   0  0  0  0  0  0  0  0  0  0  0  0
   37.3600   28.0730   43.6610 N   0  0  0  0  0  0  0  0  0  0  0  0
   36.8880   27.0020   42.9610 C   0  0  0  0  0  0  0  0  0  0  0  0
   36.8310   27.0350   41.6180 N   0  0  0  0  0  0  0  0  0  0  0  0
   38.1500   30.0160   43.6440 H   0  0  0  0  0  0  0  0  0  0  0  0
   36.5760   26.1560   43.5700 H   0  0  0  0  0  0  0  0  0  0  0  0
   37.2540   31.4570   40.7200 C   0  0  0  0  0  0  0  0  0  0  0  0
   38.1910   30.4610   40.9720 C   0  0  0  0  0  0  0  0  0  0  0  0
   39.5250   30.5630   40.6400 C   0  0  0  0  0  0  0  0  0  0  0  0
   40.2090   29.7440   40.8660 H   0  0  0  0  0  0  0  0  0  0  0  0
   39.9350   31.7260   40.0230 C   0  0  0  0  0  3  0  0  0  0  0  0
   39.0320   32.7350   39.7570 C   0  0  0  0  0  3  0  0  0  0  0  0
   37.7020   32.6150   40.0970 C   0  0  0  0  0  0  0  0  0  0  0  0
   35.9220   31.3080   41.0720 O   0  0  0  0  0  0  0  0  0  0  0  0
   35.6650   31.5950   42.0160 H   0  0  0  0  0  0  0  0  0  0  0  0
   36.7440   33.6160   39.8460 O   0  0  0  0  0  0  0  0  0  0  0  0
   36.7600   33.9930   38.8930 H   0  0  0  0  0  0  0  0  0  0  0  0
   37.1890   28.1900   39.4730 C   0  0  0  0  0  0  0  0  0  0  0  0
   37.8230   29.0050   39.0850 H   0  0  0  0  0  0  0  0  0  0  0  0
   37.5660   27.2340   39.0660 H   0  0  0  0  0  0  0  0  0  0  0  0
   36.1160   28.3230   39.1690 H   0  0  0  0  0  0  0  0  0  0  0  0
  1  6  2  0  0  0  0
  1  2  1  0  0  0  0
  2  3  2  0  0  0  0
  3  7  1  0  0  0  0
  3  4  1  0  0  0  0
  5  8  1  0  0  0  0
  5  4  2  0  0  0  0
  6  5  1  0  0  0  0
  9 10  1  0  0  0  0
  9 16  1  0  0  0  0
 10  2  1  0  0  0  0
 11 12  1  0  0  0  0
 11 10  2  0  0  0  0
 13 11  1  0  0  0  0
 14 13  2  0  0  0  0
 14 15  1  0  0  0  0
 15  9  2  0  0  0  0
 16 17  1  0  0  0  0
 18 15  1  0  0  0  0
 19 18  1  0  0  0  0
 20  1  1  0  0  0  0
 21 20  1  0  0  0  0
 22 20  1  0  0  0  0
 23 20  1  0  0  0  0
M  END
>  <minimizedAffinity>
-5.13499641

$$$$

 OpenBabel03242514453D

 23 24  0  0  0  0  0  0  0  0999 V2000
   38.5550   26.3420   42.1790 C   0  0  0  0  0  0  0  0  0  0  0  0
   38.9430   27.6730   42.0470 C   0  0  0  0  0  0  0  0  0  0  0  0
   40.0560   28.1180   42.7860 C   0  0  0  0  0  0  0  0  0  0  0  0
   40.6860   27.2120   43.5880 N   0  0  0  0  0  0  0  0  0  0  0  0
   40.2630   25.9190   43.6790 C   0  0  0  0  0  0  0  0  0  0  0  0
   39.2000   25.4970   42.9720 N   0  0  0  0  0  0  0  0  0  0  0  0
   40.4400   29.1230   42.7590 H   0  0  0  0  0  0  0  0  0  0  0  0
   40.8440   25.2900   44.3500 H   0  0  0  0  0  0  0  0  0  0  0  0
   37.2510   29.4100   41.7470 C   0  0  0  0  0  0  0  0  0  0  0  0
   38.2800   28.6570   41.1920 C   0  0  0  0  0  0  0  0  0  0  0  0
   38.7050   28.7880   39.8870 C   0  0  0  0  0  0  0  0  0  0  0  0
   39.5190   28.1660   39.5130 H   0  0  0  0  0  0  0  0  0  0  0  0
   38.0630   29.7230   39.1040 C   0  0  0  0  0  3  0  0  0  0  0  0
   37.0380   30.4870   39.6210 C   0  0  0  0  0  3  0  0  0  0  0  0
   36.6260   30.3430   40.9290 C   0  0  0  0  0  0  0  0  0  0  0  0
   36.8570   29.2430   43.0650 O   0  0  0  0  0  0  0  0  0  0  0  0
   37.3560   29.7930   43.7630 H   0  0  0  0  0  0  0  0  0  0  0  0
   35.5850   31.0990   41.5020 O   0  0  0  0  0  0  0  0  0  0  0  0
   34.7290   31.1440   40.9380 H   0  0  0  0  0  0  0  0  0  0  0  0
   37.3700   25.9110   41.3760 C   0  0  0  0  0  0  0  0  0  0  0  0
   37.1450   26.6240   40.5660 H   0  0  0  0  0  0  0  0  0  0  0  0
   37.5980   24.9290   40.9210 H   0  0  0  0  0  0  0  0  0  0  0  0
   36.5020   25.7980   42.0790 H   0  0  0  0  0  0  0  0  0  0  0  0
  1  6  1  0  0  0  0
  2  1  2  0  0  0  0
  2  3  1  0  0  0  0
  3  4  2  0  0  0  0
  4  5  1  0  0  0  0
  5  8  1  0  0  0  0
  6  5  2  0  0  0  0
  7  3  1  0  0  0  0
  9 16  1  0  0  0  0
 10  9  1  0  0  0  0
 10  2  1  0  0  0  0
 11 10  2  0  0  0  0
 12 11  1  0  0  0  0
 13 14  2  0  0  0  0
 13 11  1  0  0  0  0
 14 15  1  0  0  0  0
 15 18  1  0  0  0  0
 15  9  2  0  0  0  0
 16 17  1  0  0  0  0
 19 18  1  0  0  0  0
 20 23  1  0  0  0  0
 20  1  1  0  0  0  0
 21 20  1  0  0  0  0
 22 20  1  0  0  0  0
M  END
>  <minimizedAffinity>
-5.08323479

$$$$

 OpenBabel03242514453D

 23 24  0  0  0  0  0  0  0  0999 V2000
   39.0650   26.5400   41.4150 C   0  0  0  0  0  0  0  0  0  0  0  0
   37.6800   26.5510   41.2720 C   0  0  0  0  0  0  0  0  0  0  0  0
   36.9490   25.4670   41.7960 C   0  0  0  0  0  0  0  0  0  0  0  0
   37.6480   24.4720   42.4140 N   0  0  0  0  0  0  0  0  0  0  0  0
   39.0060   24.5130   42.5260 C   0  0  0  0  0  0  0  0  0  0  0  0
   39.7020   25.5490   42.0240 N   0  0  0  0  0  0  0  0  0  0  0  0
   35.8780   25.3750   41.7410 H   0  0  0  0  0  0  0  0  0  0  0  0
   39.4520   23.6630   43.0380 H   0  0  0  0  0  0  0  0  0  0  0  0
   36.5930   28.7380   41.3600 C   0  0  0  0  0  0  0  0  0  0  0  0
   36.9150   27.6100   40.6130 C   0  0  0  0  0  0  0  0  0  0  0  0
   36.5540   27.4360   39.2940 C   0  0  0  0  0  0  0  0  0  0  0  0
   36.8390   26.5270   38.7650 H   0  0  0  0  0  0  0  0  0  0  0  0
   35.8350   28.4500   38.6980 C   0  0  0  0  0  3  0  0  0  0  0  0
   35.4970   29.5840   39.4090 C   0  0  0  0  0  3  0  0  0  0  0  0
   35.8670   29.7390   40.7280 C   0  0  0  0  0  0  0  0  0  0  0  0
   36.9770   28.8660   42.6850 O   0  0  0  0  0  0  0  0  0  0  0  0
   37.8960   29.2720   42.8560 H   0  0  0  0  0  0  0  0  0  0  0  0
   35.5460   30.8760   41.4940 O   0  0  0  0  0  0  0  0  0  0  0  0
   34.5630   31.1650   41.4390 H   0  0  0  0  0  0  0  0  0  0  0  0
   39.8030   27.7090   40.8460 C   0  0  0  0  0  0  0  0  0  0  0  0
   39.1310   28.5610   40.6520 H   0  0  0  0  0  0  0  0  0  0  0  0
   40.5660   28.0290   41.5800 H   0  0  0  0  0  0  0  0  0  0  0  0
   40.3160   27.3670   39.9070 H   0  0  0  0  0  0  0  0  0  0  0  0
  1  6  1  0  0  0  0
  2  1  2  0  0  0  0
  2  3  1  0  0  0  0
  3  4  2  0  0  0  0
  4  5  1  0  0  0  0
  5  8  1  0  0  0  0
  6  5  2  0  0  0  0
  7  3  1  0  0  0  0
  9 16  1  0  0  0  0
 10  2  1  0  0  0  0
 10  9  2  0  0  0  0
 11 10  1  0  0  0  0
 12 11  1  0  0  0  0
 13 11  2  0  0  0  0
 13 14  1  0  0  0  0
 14 15  2  0  0  0  0
 15  9  1  0  0  0  0
 15 18  1  0  0  0  0
 16 17  1  0  0  0  0
 19 18  1  0  0  0  0
 20  1  1  0  0  0  0
 20 22  1  0  0  0  0
 21 20  1  0  0  0  0
 23 20  1  0  0  0  0
M  END
>  <minimizedAffinity>
-4.80068159

$$$$

 OpenBabel03242514453D

 23 24  0  0  0  0  0  0  0  0999 V2000
   38.3070   29.5200   42.5030 C   0  0  0  0  0  0  0  0  0  0  0  0
   37.6000   29.4620   41.3050 C   0  0  0  0  0  0  0  0  0  0  0  0
   36.5400   28.5410   41.2030 C   0  0  0  0  0  0  0  0  0  0  0  0
   36.2720   27.7610   42.2890 N   0  0  0  0  0  0  0  0  0  0  0  0
   36.9980   27.8600   43.4390 C   0  0  0  0  0  0  0  0  0  0  0  0
   38.0090   28.7410   43.5340 N   0  0  0  0  0  0  0  0  0  0  0  0
   35.9300   28.4130   40.3250 H   0  0  0  0  0  0  0  0  0  0  0  0
   36.6910   27.1870   44.2370 H   0  0  0  0  0  0  0  0  0  0  0  0
   37.2280   31.5180   40.0390 C   0  0  0  0  0  0  0  0  0  0  0  0
   37.8740   30.2910   40.1310 C   0  0  0  0  0  0  0  0  0  0  0  0
   38.7530   29.8150   39.1820 C   0  0  0  0  0  0  0  0  0  0  0  0
   39.2270   28.8420   39.3140 H   0  0  0  0  0  0  0  0  0  0  0  0
   38.9930   30.6160   38.0860 C   0  0  0  0  0  3  0  0  0  0  0  0
   38.3690   31.8410   37.9610 C   0  0  0  0  0  3  0  0  0  0  0  0
   37.4920   32.3000   38.9210 C   0  0  0  0  0  0  0  0  0  0  0  0
   36.3510   31.9540   41.0200 O   0  0  0  0  0  0  0  0  0  0  0  0
   36.7580   32.4620   41.8030 H   0  0  0  0  0  0  0  0  0  0  0  0
   36.8320   33.5410   38.8390 O   0  0  0  0  0  0  0  0  0  0  0  0
   36.3850   33.7270   37.9340 H   0  0  0  0  0  0  0  0  0  0  0  0
   39.4240   30.5110   42.5710 C   0  0  0  0  0  0  0  0  0  0  0  0
   39.3480   31.2670   41.7710 H   0  0  0  0  0  0  0  0  0  0  0  0
   39.3680   31.0320   43.5460 H   0  0  0  0  0  0  0  0  0  0  0  0
   40.3910   29.9440   42.5110 H   0  0  0  0  0  0  0  0  0  0  0  0
  1 20  1  0  0  0  0
  1  6  1  0  0  0  0
  2  1  2  0  0  0  0
  3  2  1  0  0  0  0
  3  4  2  0  0  0  0
  4  5  1  0  0  0  0
  5  6  2  0  0  0  0
  5  8  1  0  0  0  0
  7  3  1  0  0  0  0
  9 10  1  0  0  0  0
  9 16  1  0  0  0  0
 10  2  1  0  0  0  0
 11 12  1  0  0  0  0
 11 10  2  0  0  0  0
 13 11  1  0  0  0  0
 14 13  2  0  0  0  0
 14 15  1  0  0  0  0
 15  9  2  0  0  0  0
 16 17  1  0  0  0  0
 18 15  1  0  0  0  0
 19 18  1  0  0  0  0
 20 22  1  0  0  0  0
 21 20  1  0  0  0  0
 23 20  1  0  0  0  0
M  END
>  <minimizedAffinity>
-4.74130821

$$$$

 OpenBabel03242514453D

 23 24  0  0  0  0  0  0  0  0999 V2000
   38.8910   30.6140   39.6260 C   0  0  0  0  0  0  0  0  0  0  0  0
   39.0520   30.6740   41.0080 C   0  0  0  0  0  0  0  0  0  0  0  0
   39.4030   31.9100   41.5830 C   0  0  0  0  0  0  0  0  0  0  0  0
   39.5630   32.9760   40.7470 N   0  0  0  0  0  0  0  0  0  0  0  0
   39.3920   32.8600   39.3990 C   0  0  0  0  0  0  0  0  0  0  0  0
   39.0570   31.6780   38.8520 N   0  0  0  0  0  0  0  0  0  0  0  0
   39.5530   32.0680   42.6380 H   0  0  0  0  0  0  0  0  0  0  0  0
   39.5460   33.7780   38.8350 H   0  0  0  0  0  0  0  0  0  0  0  0
   37.6000   29.2550   42.3680 C   0  0  0  0  0  0  0  0  0  0  0  0
   38.8840   29.5420   41.9200 C   0  0  0  0  0  0  0  0  0  0  0  0
   40.0020   28.8220   42.2860 C   0  0  0  0  0  0  0  0  0  0  0  0
   40.9820   29.1000   41.8990 H   0  0  0  0  0  0  0  0  0  0  0  0
   39.8140   27.7610   43.1460 C   0  0  0  0  0  3  0  0  0  0  0  0
   38.5540   27.4470   43.6110 C   0  0  0  0  0  3  0  0  0  0  0  0
   37.4480   28.1790   43.2330 C   0  0  0  0  0  0  0  0  0  0  0  0
   36.5060   30.0090   41.9710 O   0  0  0  0  0  0  0  0  0  0  0  0
   36.0440   29.7240   41.1090 H   0  0  0  0  0  0  0  0  0  0  0  0
   36.1430   27.8980   43.6800 O   0  0  0  0  0  0  0  0  0  0  0  0
   36.0590   27.7600   44.6930 H   0  0  0  0  0  0  0  0  0  0  0  0
   38.5180   29.2840   39.0560 C   0  0  0  0  0  0  0  0  0  0  0  0
   38.1320   28.6010   39.8310 H   0  0  0  0  0  0  0  0  0  0  0  0
   37.7220   29.4400   38.3030 H   0  0  0  0  0  0  0  0  0  0  0  0
   39.4260   28.8610   38.5480 H   0  0  0  0  0  0  0  0  0  0  0  0
  1  2  1  0  0  0  0
  2  3  2  0  0  0  0
  2 10  1  0  0  0  0
  3  7  1  0  0  0  0
  4  3  1  0  0  0  0
  5  4  2  0  0  0  0
  6  5  1  0  0  0  0
  6  1  2  0  0  0  0
  8  5  1  0  0  0  0
  9 15  1  0  0  0  0
 10 11  1  0  0  0  0
 10  9  2  0  0  0  0
 11 13  2  0  0  0  0
 12 11  1  0  0  0  0
 13 14  1  0  0  0  0
 15 14  2  0  0  0  0
 15 18  1  0  0  0  0
 16  9  1  0  0  0  0
 17 16  1  0  0  0  0
 18 19  1  0  0  0  0
 20  1  1  0  0  0  0
 20 21  1  0  0  0  0
 22 20  1  0  0  0  0
 23 20  1  0  0  0  0
M  END
>  <minimizedAffinity>
-4.73838711

$$$$

 OpenBabel03242514453D

 23 24  0  0  0  0  0  0  0  0999 V2000
   38.5450   26.2980   42.1970 C   0  0  0  0  0  0  0  0  0  0  0  0
   37.7210   26.6820   41.1410 C   0  0  0  0  0  0  0  0  0  0  0  0
   36.9670   25.6860   40.4920 C   0  0  0  0  0  0  0  0  0  0  0  0
   37.0910   24.4040   40.9390 N   0  0  0  0  0  0  0  0  0  0  0  0
   37.9130   24.0840   41.9790 C   0  0  0  0  0  0  0  0  0  0  0  0
   38.6330   25.0370   42.5980 N   0  0  0  0  0  0  0  0  0  0  0  0
   36.3000   25.8720   39.6670 H   0  0  0  0  0  0  0  0  0  0  0  0
   37.9290   23.0300   42.2460 H   0  0  0  0  0  0  0  0  0  0  0  0
   36.6560   28.8760   41.2870 C   0  0  0  0  0  0  0  0  0  0  0  0
   37.5760   28.0510   40.6490 C   0  0  0  0  0  0  0  0  0  0  0  0
   38.3540   28.4520   39.5840 C   0  0  0  0  0  0  0  0  0  0  0  0
   39.0570   27.7550   39.1280 H   0  0  0  0  0  0  0  0  0  0  0  0
   38.1970   29.7480   39.1400 C   0  0  0  0  0  3  0  0  0  0  0  0
   37.2930   30.5940   39.7490 C   0  0  0  0  0  3  0  0  0  0  0  0
   36.5230   30.1750   40.8140 C   0  0  0  0  0  0  0  0  0  0  0  0
   35.8950   28.4270   42.3540 O   0  0  0  0  0  0  0  0  0  0  0  0
   36.3080   28.5220   43.2810 H   0  0  0  0  0  0  0  0  0  0  0  0
   35.5880   31.0000   41.4670 O   0  0  0  0  0  0  0  0  0  0  0  0
   34.9530   31.5060   40.8400 H   0  0  0  0  0  0  0  0  0  0  0  0
   39.3280   27.3850   42.8600 C   0  0  0  0  0  0  0  0  0  0  0  0
   38.9260   28.3830   42.6190 H   0  0  0  0  0  0  0  0  0  0  0  0
   39.2650   27.2400   43.9550 H   0  0  0  0  0  0  0  0  0  0  0  0
   40.3990   27.2830   42.5370 H   0  0  0  0  0  0  0  0  0  0  0  0
  1  6  1  0  0  0  0
  1 20  1  0  0  0  0
  2  1  2  0  0  0  0
  3  4  2  0  0  0  0
  3  2  1  0  0  0  0
  4  5  1  0  0  0  0
  5  8  1  0  0  0  0
  5  6  2  0  0  0  0
  7  3  1  0  0  0  0
  9 16  1  0  0  0  0
 10  2  1  0  0  0  0
 10  9  2  0  0  0  0
 11 10  1  0  0  0  0
 12 11  1  0  0  0  0
 13 11  2  0  0  0  0
 13 14  1  0  0  0  0
 14 15  2  0  0  0  0
 15  9  1  0  0  0  0
 15 18  1  0  0  0  0
 16 17  1  0  0  0  0
 19 18  1  0  0  0  0
 20 22  1  0  0  0  0
 21 20  1  0  0  0  0
 23 20  1  0  0  0  0
M  END
>  <minimizedAffinity>
-4.72293139

$$$$

 OpenBabel03242514453D

 23 24  0  0  0  0  0  0  0  0999 V2000
   36.6780   30.1640   38.3050 C   0  0  0  0  0  0  0  0  0  0  0  0
   36.6900   30.7600   39.5640 C   0  0  0  0  0  0  0  0  0  0  0  0
   35.7950   30.2770   40.5370 C   0  0  0  0  0  0  0  0  0  0  0  0
   34.9690   29.2500   40.1840 N   0  0  0  0  0  0  0  0  0  0  0  0
   34.9990   28.7040   38.9350 C   0  0  0  0  0  0  0  0  0  0  0  0
   35.8550   29.1670   38.0070 N   0  0  0  0  0  0  0  0  0  0  0  0
   35.7220   30.6640   41.5390 H   0  0  0  0  0  0  0  0  0  0  0  0
   34.2950   27.8910   38.7710 H   0  0  0  0  0  0  0  0  0  0  0  0
   38.7120   31.5490   40.6880 C   0  0  0  0  0  0  0  0  0  0  0  0
   37.5690   31.8610   39.9590 C   0  0  0  0  0  0  0  0  0  0  0  0
   37.2220   33.1430   39.5920 C   0  0  0  0  0  0  0  0  0  0  0  0
   36.3110   33.3200   39.0200 H   0  0  0  0  0  0  0  0  0  0  0  0
   38.0680   34.1610   39.9780 C   0  0  0  0  0  3  0  0  0  0  0  0
   39.2110   33.8880   40.7020 C   0  0  0  0  0  3  0  0  0  0  0  0
   39.5420   32.5980   41.0600 C   0  0  0  0  0  0  0  0  0  0  0  0
   39.0190   30.2420   41.0340 O   0  0  0  0  0  0  0  0  0  0  0  0
   39.5570   29.7050   40.3560 H   0  0  0  0  0  0  0  0  0  0  0  0
   40.6960   32.2700   41.7970 O   0  0  0  0  0  0  0  0  0  0  0  0
   40.8450   32.8440   42.6340 H   0  0  0  0  0  0  0  0  0  0  0  0
   37.6430   30.7060   37.3010 C   0  0  0  0  0  0  0  0  0  0  0  0
   38.4380   31.3030   37.7790 H   0  0  0  0  0  0  0  0  0  0  0  0
   38.1170   29.8530   36.7790 H   0  0  0  0  0  0  0  0  0  0  0  0
   37.0610   31.3150   36.5580 H   0  0  0  0  0  0  0  0  0  0  0  0
  1  2  1  0  0  0  0
  2 10  1  0  0  0  0
  2  3  2  0  0  0  0
  3  7  1  0  0  0  0
  4  3  1  0  0  0  0
  5  4  2  0  0  0  0
  6  1  2  0  0  0  0
  6  5  1  0  0  0  0
  8  5  1  0  0  0  0
  9 16  1  0  0  0  0
  9 15  1  0  0  0  0
 10  9  2  0  0  0  0
 11 10  1  0  0  0  0
 11 13  2  0  0  0  0
 12 11  1  0  0  0  0
 13 14  1  0  0  0  0
 14 15  2  0  0  0  0
 15 18  1  0  0  0  0
 17 16  1  0  0  0  0
 18 19  1  0  0  0  0
 20 21  1  0  0  0  0
 20  1  1  0  0  0  0
 22 20  1  0  0  0  0
 23 20  1  0  0  0  0
M  END
>  <minimizedAffinity>
-4.61657047

$$$$

 OpenBabel03242514453D

 23 24  0  0  0  0  0  0  0  0999 V2000
   39.0940   30.0460   38.7750 C   0  0  0  0  0  0  0  0  0  0  0  0
   39.0410   31.4190   39.0030 C   0  0  0  0  0  0  0  0  0  0  0  0
   37.7770   32.0160   39.1690 C   0  0  0  0  0  0  0  0  0  0  0  0
   36.6800   31.2090   39.0960 N   0  0  0  0  0  0  0  0  0  0  0  0
   36.7900   29.8690   38.8710 C   0  0  0  0  0  0  0  0  0  0  0  0
   37.9990   29.3000   38.7130 N   0  0  0  0  0  0  0  0  0  0  0  0
   37.6220   33.0660   39.3490 H   0  0  0  0  0  0  0  0  0  0  0  0
   35.8470   29.3290   38.8340 H   0  0  0  0  0  0  0  0  0  0  0  0
   40.7320   32.7920   37.8950 C   0  0  0  0  0  0  0  0  0  0  0  0
   40.2060   32.2990   39.0850 C   0  0  0  0  0  0  0  0  0  0  0  0
   40.7210   32.5940   40.3290 C   0  0  0  0  0  0  0  0  0  0  0  0
   40.2620   32.1740   41.2240 H   0  0  0  0  0  0  0  0  0  0  0  0
   41.8190   33.4260   40.3770 C   0  0  0  0  0  3  0  0  0  0  0  0
   42.3670   33.9330   39.2160 C   0  0  0  0  0  3  0  0  0  0  0  0
   41.8380   33.6270   37.9800 C   0  0  0  0  0  0  0  0  0  0  0  0
   40.1790   32.4670   36.6670 O   0  0  0  0  0  0  0  0  0  0  0  0
   39.4210   33.0620   36.3360 H   0  0  0  0  0  0  0  0  0  0  0  0
   42.3610   34.1190   36.7690 O   0  0  0  0  0  0  0  0  0  0  0  0
   43.3780   34.0250   36.6740 H   0  0  0  0  0  0  0  0  0  0  0  0
   40.4540   29.4510   38.6060 C   0  0  0  0  0  0  0  0  0  0  0  0
   41.2440   30.1250   38.9760 H   0  0  0  0  0  0  0  0  0  0  0  0
   40.4980   28.5110   39.1880 H   0  0  0  0  0  0  0  0  0  0  0  0
   40.5920   29.2140   37.5160 H   0  0  0  0  0  0  0  0  0  0  0  0
  1  2  1  0  0  0  0
  2 10  1  0  0  0  0
  2  3  2  0  0  0  0
  3  7  1  0  0  0  0
  4  3  1  0  0  0  0
  5  4  2  0  0  0  0
  6  1  2  0  0  0  0
  6  5  1  0  0  0  0
  8  5  1  0  0  0  0
  9 15  2  0  0  0  0
  9 10  1  0  0  0  0
 10 11  2  0  0  0  0
 11 13  1  0  0  0  0
 11 12  1  0  0  0  0
 14 13  2  0  0  0  0
 15 14  1  0  0  0  0
 16  9  1  0  0  0  0
 17 16  1  0  0  0  0
 18 15  1  0  0  0  0
 19 18  1  0  0  0  0
 20  1  1  0  0  0  0
 20 21  1  0  0  0  0
 20 22  1  0  0  0  0
 23 20  1  0  0  0  0
M  END
>  <minimizedAffinity>
-4.61345053

$$$$

 OpenBabel03242514453D

 23 24  0  0  0  0  0  0  0  0999 V2000
   39.2650   28.5150   41.2590 C   0  0  0  0  0  0  0  0  0  0  0  0
   38.4150   29.5120   41.7310 C   0  0  0  0  0  0  0  0  0  0  0  0
   37.7220   29.2790   42.9350 C   0  0  0  0  0  0  0  0  0  0  0  0
   37.9300   28.0880   43.5660 N   0  0  0  0  0  0  0  0  0  0  0  0
   38.7760   27.1470   43.0580 C   0  0  0  0  0  0  0  0  0  0  0  0
   39.4360   27.3710   41.9080 N   0  0  0  0  0  0  0  0  0  0  0  0
   37.0420   29.9800   43.3880 H   0  0  0  0  0  0  0  0  0  0  0  0
   38.8610   26.2370   43.6490 H   0  0  0  0  0  0  0  0  0  0  0  0
   38.9890   31.8680   41.4270 C   0  0  0  0  0  0  0  0  0  0  0  0
   38.1800   30.7950   41.0680 C   0  0  0  0  0  0  0  0  0  0  0  0
   37.1760   30.8740   40.1270 C   0  0  0  0  0  0  0  0  0  0  0  0
   36.5770   29.9940   39.8910 H   0  0  0  0  0  0  0  0  0  0  0  0
   36.9770   32.0940   39.5180 C   0  0  0  0  0  3  0  0  0  0  0  0
   37.7600   33.1810   39.8500 C   0  0  0  0  0  3  0  0  0  0  0  0
   38.7610   33.0820   40.7930 C   0  0  0  0  0  0  0  0  0  0  0  0
   39.9860   31.7390   42.3800 O   0  0  0  0  0  0  0  0  0  0  0  0
   40.8990   31.4320   42.0470 H   0  0  0  0  0  0  0  0  0  0  0  0
   39.5850   34.1610   41.1650 O   0  0  0  0  0  0  0  0  0  0  0  0
   39.0820   35.0310   41.3750 H   0  0  0  0  0  0  0  0  0  0  0  0
   39.9820   28.8010   39.9790 C   0  0  0  0  0  0  0  0  0  0  0  0
   39.9680   29.8770   39.7350 H   0  0  0  0  0  0  0  0  0  0  0  0
   41.0350   28.4850   40.0920 H   0  0  0  0  0  0  0  0  0  0  0  0
   39.4980   28.1890   39.1700 H   0  0  0  0  0  0  0  0  0  0  0  0
  1  2  2  0  0  0  0
  1  6  1  0  0  0  0
  2  3  1  0  0  0  0
  3  7  1  0  0  0  0
  3  4  2  0  0  0  0
  5  4  1  0  0  0  0
  5  8  1  0  0  0  0
  6  5  2  0  0  0  0
  9 16  1  0  0  0  0
 10  9  1  0  0  0  0
 10  2  1  0  0  0  0
 11 10  2  0  0  0  0
 12 11  1  0  0  0  0
 13 14  2  0  0  0  0
 13 11  1  0  0  0  0
 14 15  1  0  0  0  0
 15 18  1  0  0  0  0
 15  9  2  0  0  0  0
 17 16  1  0  0  0  0
 18 19  1  0  0  0  0
 20 22  1  0  0  0  0
 20  1  1  0  0  0  0
 21 20  1  0  0  0  0
 23 20  1  0  0  0  0
M  END
>  <minimizedAffinity>
-4.58525753

$$$$
