
 OpenBabel03242514453D

 23 24  0  0  0  0  0  0  0  0999 V2000
   45.6040   34.9370   43.9690 C   0  0  0  0  0  0  0  0  0  0  0  0
   46.5620   33.9290   44.0470 C   0  0  0  0  0  0  0  0  0  0  0  0
   46.6350   33.1740   45.2330 C   0  0  0  0  0  0  0  0  0  0  0  0
   45.7590   33.4780   46.2340 N   0  0  0  0  0  0  0  0  0  0  0  0
   44.8410   34.4770   46.1020 C   0  0  0  0  0  0  0  0  0  0  0  0
   44.7720   35.1980   44.9680 N   0  0  0  0  0  0  0  0  0  0  0  0
   47.3350   32.3740   45.4000 H   0  0  0  0  0  0  0  0  0  0  0  0
   44.1970   34.6280   46.9660 H   0  0  0  0  0  0  0  0  0  0  0  0
   47.1020   32.6660   42.0260 C   0  0  0  0  0  0  0  0  0  0  0  0
   47.5080   33.5880   42.9850 C   0  0  0  0  0  0  0  0  0  0  0  0
   48.7450   34.1960   42.9880 C   0  0  0  0  0  0  0  0  0  0  0  0
   49.0010   34.9110   43.7700 H   0  0  0  0  0  0  0  0  0  0  0  0
   49.6160   33.8550   41.9750 C   0  0  0  0  0  3  0  0  0  0  0  0
   49.2490   32.9440   41.0060 C   0  0  0  0  0  3  0  0  0  0  0  0
   48.0050   32.3470   41.0200 C   0  0  0  0  0  0  0  0  0  0  0  0
   45.8460   32.0810   42.0650 O   0  0  0  0  0  0  0  0  0  0  0  0
   45.0940   32.5850   41.5980 H   0  0  0  0  0  0  0  0  0  0  0  0
   47.5840   31.4120   40.0560 O   0  0  0  0  0  0  0  0  0  0  0  0
   48.2570   30.6620   39.8660 H   0  0  0  0  0  0  0  0  0  0  0  0
   45.5590   35.7150   42.6930 C   0  0  0  0  0  0  0  0  0  0  0  0
   46.0880   35.1940   41.8780 H   0  0  0  0  0  0  0  0  0  0  0  0
   44.5000   35.8350   42.3970 H   0  0  0  0  0  0  0  0  0  0  0  0
   46.0030   36.7270   42.8910 H   0  0  0  0  0  0  0  0  0  0  0  0
  1  2  2  0  0  0  0
  1  6  1  0  0  0  0
  2  3  1  0  0  0  0
  3  7  1  0  0  0  0
  3  4  2  0  0  0  0
  5  4  1  0  0  0  0
  5  8  1  0  0  0  0
  6  5  2  0  0  0  0
  9 16  1  0  0  0  0
  9 10  1  0  0  0  0
 10 11  2  0  0  0  0
 10  2  1  0  0  0  0
 11 12  1  0  0  0  0
 13 11  1  0  0  0  0
 14 15  1  0  0  0  0
 14 13  2  0  0  0  0
 15  9  2  0  0  0  0
 17 16  1  0  0  0  0
 18 15  1  0  0  0  0
 19 18  1  0  0  0  0
 20 23  1  0  0  0  0
 20  1  1  0  0  0  0
 21 20  1  0  0  0  0
 22 20  1  0  0  0  0
M  END
>  <minimizedAffinity>
-4.05618572

>  <minimizedRMSD>
1.46721828

$$$$
