
     RDKit          3D

 25 26  0  0  0  0  0  0  0  0999 V2000
   44.4923   36.0190   44.5054 C   0  0  0  0  0  0  0  0  0  0  0  0
   45.1395   35.9948   43.2674 C   0  0  0  0  0  0  0  0  0  0  0  0
   46.0645   34.9780   43.0438 C   0  0  0  0  0  0  0  0  0  0  0  0
   46.3080   34.0576   44.0110 N   0  0  0  0  0  0  0  0  0  0  0  0
   45.6484   34.1205   45.2123 C   0  0  0  0  0  0  0  0  0  0  0  0
   44.7601   35.0993   45.4239 N   0  0  0  0  0  0  0  0  0  0  0  0
   46.0002   33.0598   46.1893 C   0  0  0  0  0  0  0  0  0  0  0  0
   43.7481   36.7536   44.8188 H   0  0  0  0  0  0  0  0  0  0  0  0
   44.8764   36.7661   42.5687 H   0  0  0  0  0  0  0  0  0  0  0  0
   46.5680   34.9612   42.0794 H   0  0  0  0  0  0  0  0  0  0  0  0
   45.9308   33.4681   47.2269 H   0  0  0  0  0  0  0  0  0  0  0  0
   47.0753   32.7531   46.0618 H   0  0  0  0  0  0  0  0  0  0  0  0
   44.3639   32.5431   43.8853 O   0  0  0  0  0  0  0  0  0  0  0  0
   44.3514   31.6436   44.9260 C   0  0  0  0  0  0  0  0  0  0  0  0
   45.1314   31.8793   46.0371 C   0  0  0  0  0  0  0  0  0  0  0  0
   45.0797   30.9420   47.0537 C   0  0  0  0  0  0  0  0  0  0  0  0
   45.6922   31.1198   47.9345 H   0  0  0  0  0  0  0  0  0  0  0  0
   44.2968   29.7895   47.0214 C   0  0  0  0  0  0  0  0  0  0  0  0
   43.5222   29.5790   45.8898 C   0  0  0  0  0  0  0  0  0  0  0  0
   43.5646   30.5060   44.8693 C   0  0  0  0  0  0  0  0  0  0  0  0
   42.7837   30.2754   43.7514 O   0  0  0  0  0  0  0  0  0  0  0  0
   43.5171   32.5827   43.3014 H   0  0  0  0  0  0  0  0  0  0  0  0
   44.3422   29.1314   47.8819 H   0  0  0  0  0  0  0  0  0  0  0  0
   42.9258   28.6763   45.8945 H   0  0  0  0  0  0  0  0  0  0  0  0
   42.6467   29.3546   43.3409 H   0  0  0  0  0  0  0  0  0  0  0  0
  1  6  2  0
  2  1  1  0
  3  2  2  0
  3  4  1  0
  4  5  2  0
  5  6  1  0
  5  7  1  0
  1  8  1  0
  2  9  1  0
  3 10  1  0
  7 11  1  0
  7 12  1  0
 13 14  1  0
 14 15  2  0
 15 16  1  0
 16 17  1  0
 16 18  2  0
 18 19  1  0
 19 20  2  0
 20 21  1  0
 20 14  1  0
 13 22  1  0
 18 23  1  0
 19 24  1  0
 21 25  1  0
  7 15  1  0
M  ISO  6   8  14   9  14  10  14  11   8  12   8  17  16
M  END
>  <DihAtoms>  (1) 
4,6,14,13

>  <DihDeg>  (1) 
76.0857024834324

$$$$
