REMARK  Name = 
REMARK  5 active torsions:
REMARK  status: ('A' for Active; 'I' for Inactive)
REMARK    1  A    between atoms: C_3  and  C_7
REMARK    2  A    between atoms: C_5  and  C_10
REMARK    3  A    between atoms: C_14  and  C_28
REMARK    4  A    between atoms: O_26  and  C_27
REMARK    5  A    between atoms: C_33  and  O_34
REMARK                            x       y       z     vdW  Elec       q    Type
REMARK                         _______ _______ _______ _____ _____    ______ ____
ROOT
ATOM      1  C   UNL     1      46.046  33.002  46.488  0.00  0.00    +0.000 A 
ATOM      2  C   UNL     1      45.204  32.944  47.592  0.00  0.00    +0.000 A 
ATOM      3  C   UNL     1      45.464  32.014  48.578  0.00  0.00    +0.000 A 
ATOM      4  C   UNL     1      46.557  31.186  48.410  0.00  0.00    +0.000 A 
ATOM      5  C   UNL     1      47.365  31.286  47.289  0.00  0.00    +0.000 A 
ATOM      6  N   UNL     1      47.104  32.206  46.319  0.00  0.00    +0.000 NA
ATOM      7  H   UNL     1      44.370  33.628  47.648  0.00  0.00    +0.000 HD
ATOM      8  H   UNL     1      44.809  31.969  49.437  0.00  0.00    +0.000 HD
ATOM      9  H   UNL     1      46.730  30.481  49.189  0.00  0.00    +0.000 HD
ENDROOT
BRANCH   1  14
ATOM     10  C   UNL     1      44.518  35.830  44.662  0.00  0.00    +0.000 A 
ATOM     11  C   UNL     1      45.160  35.789  43.411  0.00  0.00    +0.000 A 
ATOM     12  C   UNL     1      46.103  34.795  43.243  0.00  0.00    +0.000 A 
ATOM     13  N   UNL     1      46.386  33.903  44.255  0.00  0.00    +0.000 NA
ATOM     14  C   UNL     1      45.735  33.983  45.452  0.00  0.00    +0.000 A 
ATOM     15  N   UNL     1      44.808  34.951  45.633  0.00  0.00    +0.000 NA
ATOM     16  H   UNL     1      43.770  36.593  44.842  0.00  0.00    +0.000 HD
ATOM     17  H   UNL     1      44.947  36.477  42.620  0.00  0.00    +0.000 HD
BRANCH  12  18
ATOM     18  C   UNL     1      46.821  34.638  41.940  0.00  0.00    +0.000 C 
ATOM     19  C   UNL     1      48.180  35.337  41.909  0.00  0.00    +0.000 C 
ATOM     20  C   UNL     1      47.975  33.785  41.865  0.00  0.00    +0.000 C 
ATOM     21  H   UNL     1      46.148  34.865  41.078  0.00  0.00    +0.000 HD
ATOM     22  H   UNL     1      48.409  35.817  40.960  0.00  0.00    +0.000 HD
ATOM     23  H   UNL     1      48.622  35.719  42.831  0.00  0.00    +0.000 HD
ATOM     24  H   UNL     1      48.321  33.219  42.742  0.00  0.00    +0.000 HD
ATOM     25  H   UNL     1      48.213  33.343  40.866  0.00  0.00    +0.000 HD
ENDBRANCH  12  18
ENDBRANCH   1  14
BRANCH   5  27
ATOM     26  C   UNL     1      48.493  29.369  46.211  0.00  0.00    +0.000 A 
ATOM     27  C   UNL     1      48.519  30.417  47.106  0.00  0.00    +0.000 A 
ATOM     28  C   UNL     1      49.711  30.547  47.784  0.00  0.00    +0.000 A 
ATOM     29  H   UNL     1      49.821  31.341  48.505  0.00  0.00    +0.000 HD
ATOM     30  C   UNL     1      50.793  29.712  47.595  0.00  0.00    +0.000 A 
ATOM     31  C   UNL     1      50.703  28.679  46.681  0.00  0.00    +0.000 A 
ATOM     32  C   UNL     1      49.547  28.509  45.988  0.00  0.00    +0.000 A 
BRANCH  26  33
ATOM     33  O   UNL     1      47.347  29.134  45.467  0.00  0.00    +0.000 OA
ATOM     34  H   UNL     1      46.646  28.488  45.810  0.00  0.00    +0.000 HD
ENDBRANCH  26  33
BRANCH  32  35
ATOM     35  O   UNL     1      49.442  27.467  45.060  0.00  0.00    +0.000 OA
ATOM     36  H   UNL     1      49.704  26.527  45.315  0.00  0.00    +0.000 HD
ENDBRANCH  32  35
ENDBRANCH   5  27
TORSDOF 5
