
 OpenBabel03242517333D

 49 52  0  0  1  0  0  0  0  0999 V2000
   38.2650   31.1790   41.1060 C   0  0  0  0  0  0  0  0  0  0  0  0
   37.3820   31.6490   41.5760 H   0  0  0  0  0  0  0  0  0  0  0  0
   39.1590   31.4120   41.7040 H   0  0  0  0  0  0  0  0  0  0  0  0
   41.8700   30.0040   37.6520 C   0  0  0  0  0  0  0  0  0  0  0  0
   43.0420   30.0790   38.4550 C   0  0  0  0  0  0  0  0  0  0  0  0
   43.0340   30.9110   39.5760 C   0  0  0  0  0  0  0  0  0  0  0  0
   41.8970   31.6090   39.8380 N   0  0  0  0  0  0  0  0  0  0  0  0
   40.8030   31.5380   39.0880 C   0  0  0  0  0  0  0  0  0  0  0  0
   40.8210   30.7310   38.0080 N   0  0  0  0  0  0  0  0  0  0  0  0
   39.6860   32.2850   39.4290 N   0  0  0  0  0  0  0  0  0  0  0  0
   39.7780   33.7250   39.5410 C   0  0  0  0  0  0  0  0  0  0  0  0
   38.6400   34.3380   40.2810 C   0  0  0  0  0  0  0  0  0  0  0  0
   37.3720   33.7030   40.1780 N   0  0  0  0  0  0  0  0  0  0  0  0
   37.3670   32.6040   39.2550 C   0  0  0  0  0  0  0  0  0  0  0  0
   38.4000   31.6010   39.6750 C   0  0  2  0  0  0  0  0  0  0  0  0
   41.8540   29.3610   36.7730 H   0  0  0  0  0  0  0  0  0  0  0  0
   43.9170   29.5080   38.2060 H   0  0  0  0  0  0  0  0  0  0  0  0
   43.8850   31.0150   40.2250 H   0  0  0  0  0  0  0  0  0  0  0  0
   39.7720   34.1110   38.4990 H   0  0  0  0  0  0  0  0  0  0  0  0
   40.7290   34.0070   40.0670 H   0  0  0  0  0  0  0  0  0  0  0  0
   38.9080   34.3890   41.3620 H   0  0  0  0  0  0  0  0  0  0  0  0
   38.5360   35.3950   39.9140 H   0  0  0  0  0  0  0  0  0  0  0  0
   36.5730   34.3400   39.9280 H   0  0  0  0  0  0  0  0  0  0  0  0
   36.3760   32.2180   39.0400 H   0  0  0  0  0  0  0  0  0  0  0  0
   37.7390   33.0210   38.2740 H   0  0  0  0  0  0  0  0  0  0  0  0
   38.3660   30.7100   38.9890 H   0  0  0  0  0  0  0  0  0  0  0  0
   37.9740   29.7070   41.1070 C   0  0  0  0  0  3  0  0  0  0  0  0
   36.9120   29.2140   41.7360 C   0  0  0  0  0  3  0  0  0  0  0  0
   36.5230   27.7850   41.8020 C   0  0  0  0  0  0  0  0  0  0  0  0
   35.8600   27.5040   40.9620 H   0  0  0  0  0  0  0  0  0  0  0  0
   36.0430   27.6070   42.7840 H   0  0  0  0  0  0  0  0  0  0  0  0
   37.7830   26.9270   41.7660 C   0  0  2  0  0  0  0  0  0  0  0  0
   37.6060   25.4540   42.0520 C   0  0  0  0  0  0  0  0  0  0  0  0
   38.3150   26.3640   43.0150 C   0  0  1  0  0  0  0  0  0  0  0  0
   38.4020   27.1120   40.8690 H   0  0  0  0  0  0  0  0  0  0  0  0
   36.6000   25.1090   42.3420 H   0  0  0  0  0  0  0  0  0  0  0  0
   38.1930   24.7110   41.5010 H   0  0  0  0  0  0  0  0  0  0  0  0
   37.7860   26.5800   43.9680 H   0  0  0  0  0  0  0  0  0  0  0  0
   40.7470   25.3940   43.2470 C   0  0  0  0  0  0  0  0  0  0  0  0
   39.7850   26.3760   43.1500 C   0  0  0  0  0  0  0  0  0  0  0  0
   40.2190   27.7080   43.1890 C   0  0  0  0  0  0  0  0  0  0  0  0
   39.6180   28.6310   43.1270 H   0  0  0  0  0  0  0  0  0  0  0  0
   41.5730   28.0410   43.3190 C   0  0  0  0  0  3  0  0  0  0  0  0
   42.5160   27.0110   43.4140 C   0  0  0  0  0  3  0  0  0  0  0  0
   42.0620   25.7110   43.3740 C   0  0  0  0  0  0  0  0  0  0  0  0
   40.1850   24.1290   43.1970 O   0  0  0  0  0  0  0  0  0  0  0  0
   39.6920   23.7680   42.3890 H   0  0  0  0  0  0  0  0  0  0  0  0
   42.9110   24.6040   43.4600 O   0  0  0  0  0  0  0  0  0  0  0  0
   43.1780   24.1990   44.3300 H   0  0  0  0  0  0  0  0  0  0  0  0
  1 27  1  0  0  0  0
  1  2  1  0  0  0  0
  1  3  1  0  0  0  0
  4  9  2  0  0  0  0
  4  5  1  0  0  0  0
  5  6  2  0  0  0  0
  6  7  1  0  0  0  0
  6 18  1  0  0  0  0
  8 10  1  0  0  0  0
  8  7  2  0  0  0  0
  9  8  1  0  0  0  0
 10 11  1  0  0  0  0
 10 15  1  0  0  0  0
 11 20  1  0  0  0  0
 11 12  1  0  0  0  0
 12 21  1  0  0  0  0
 13 12  1  0  0  0  0
 14 15  1  0  0  0  0
 14 13  1  0  0  0  0
 15 26  1  6  0  0  0
 15  1  1  0  0  0  0
 16  4  1  0  0  0  0
 17  5  1  0  0  0  0
 19 11  1  0  0  0  0
 22 12  1  0  0  0  0
 23 13  1  0  0  0  0
 24 14  1  0  0  0  0
 25 14  1  0  0  0  0
 27 28  2  0  0  0  0
 28 29  1  0  0  0  0
 29 31  1  0  0  0  0
 30 29  1  0  0  0  0
 32 35  1  6  0  0  0
 32 29  1  0  0  0  0
 32 33  1  0  0  0  0
 32 34  1  0  0  0  0
 33 36  1  0  0  0  0
 33 34  1  0  0  0  0
 34 40  1  0  0  0  0
 34 38  1  1  0  0  0
 37 33  1  0  0  0  0
 39 45  1  0  0  0  0
 40 41  1  0  0  0  0
 40 39  2  0  0  0  0
 41 43  2  0  0  0  0
 42 41  1  0  0  0  0
 43 44  1  0  0  0  0
 45 44  2  0  0  0  0
 45 48  1  0  0  0  0
 46 39  1  0  0  0  0
 47 46  1  0  0  0  0
 48 49  1  0  0  0  0
M  END
>  <minimizedAffinity>
-6.5560813

$$$$

 OpenBabel03242517333D

 49 52  0  0  1  0  0  0  0  0999 V2000
   39.1830   31.8350   37.9560 C   0  0  0  0  0  0  0  0  0  0  0  0
   39.0820   32.4970   37.0780 H   0  0  0  0  0  0  0  0  0  0  0  0
   38.8160   32.3610   38.8500 H   0  0  0  0  0  0  0  0  0  0  0  0
   41.2320   28.6770   41.4410 C   0  0  0  0  0  0  0  0  0  0  0  0
   40.5790   29.1260   42.6230 C   0  0  0  0  0  0  0  0  0  0  0  0
   40.1350   30.4470   42.6820 C   0  0  0  0  0  0  0  0  0  0  0  0
   40.3540   31.2380   41.5980 N   0  0  0  0  0  0  0  0  0  0  0  0
   40.9630   30.8190   40.4940 C   0  0  0  0  0  0  0  0  0  0  0  0
   41.3880   29.5400   40.4470 N   0  0  0  0  0  0  0  0  0  0  0  0
   41.1460   31.6930   39.4340 N   0  0  0  0  0  0  0  0  0  0  0  0
   41.8730   32.9300   39.6260 C   0  0  0  0  0  0  0  0  0  0  0  0
   41.6510   33.9240   38.5390 C   0  0  0  0  0  0  0  0  0  0  0  0
   41.4130   33.4240   37.2300 N   0  0  0  0  0  0  0  0  0  0  0  0
   41.5440   31.9970   37.1410 C   0  0  0  0  0  0  0  0  0  0  0  0
   40.5940   31.3530   38.1060 C   0  0  2  0  0  0  0  0  0  0  0  0
   41.5870   27.6490   41.3730 H   0  0  0  0  0  0  0  0  0  0  0  0
   40.4290   28.4630   43.4540 H   0  0  0  0  0  0  0  0  0  0  0  0
   39.6350   30.8520   43.5440 H   0  0  0  0  0  0  0  0  0  0  0  0
   42.9480   32.6500   39.6370 H   0  0  0  0  0  0  0  0  0  0  0  0
   41.5720   33.4030   40.5990 H   0  0  0  0  0  0  0  0  0  0  0  0
   40.7850   34.5680   38.8200 H   0  0  0  0  0  0  0  0  0  0  0  0
   42.5590   34.5850   38.5050 H   0  0  0  0  0  0  0  0  0  0  0  0
   42.0080   33.8510   36.4740 H   0  0  0  0  0  0  0  0  0  0  0  0
   41.5310   31.6200   36.1240 H   0  0  0  0  0  0  0  0  0  0  0  0
   42.5740   31.7550   37.5320 H   0  0  0  0  0  0  0  0  0  0  0  0
   40.6490   30.2340   38.0060 H   0  0  0  0  0  0  0  0  0  0  0  0
   38.3380   30.6350   37.6430 C   0  0  0  0  0  3  0  0  0  0  0  0
   37.1870   30.7530   36.9900 C   0  0  0  0  0  3  0  0  0  0  0  0
   36.2740   29.6450   36.6230 C   0  0  0  0  0  0  0  0  0  0  0  0
   36.5660   29.1760   35.6630 H   0  0  0  0  0  0  0  0  0  0  0  0
   35.2440   30.0480   36.5870 H   0  0  0  0  0  0  0  0  0  0  0  0
   36.2990   28.5960   37.7290 C   0  0  2  0  0  0  0  0  0  0  0  0
   35.0550   27.7520   37.8890 C   0  0  0  0  0  0  0  0  0  0  0  0
   35.4530   28.7740   38.9180 C   0  0  1  0  0  0  0  0  0  0  0  0
   37.2240   27.9910   37.7250 H   0  0  0  0  0  0  0  0  0  0  0  0
   34.1890   27.9960   37.2540 H   0  0  0  0  0  0  0  0  0  0  0  0
   35.1400   26.6900   38.1430 H   0  0  0  0  0  0  0  0  0  0  0  0
   34.8090   29.6770   38.9870 H   0  0  0  0  0  0  0  0  0  0  0  0
   36.2520   29.0470   41.4070 C   0  0  0  0  0  0  0  0  0  0  0  0
   36.0670   28.3960   40.2060 C   0  0  0  0  0  0  0  0  0  0  0  0
   36.5470   27.0840   40.1030 C   0  0  0  0  0  0  0  0  0  0  0  0
   36.5010   26.3980   39.2410 H   0  0  0  0  0  0  0  0  0  0  0  0
   37.1910   26.4480   41.1720 C   0  0  0  0  0  3  0  0  0  0  0  0
   37.3580   27.1450   42.3730 C   0  0  0  0  0  3  0  0  0  0  0  0
   36.8760   28.4340   42.4460 C   0  0  0  0  0  0  0  0  0  0  0  0
   35.7320   30.3300   41.3730 O   0  0  0  0  0  0  0  0  0  0  0  0
   34.7470   30.5320   41.2500 H   0  0  0  0  0  0  0  0  0  0  0  0
   36.9850   29.2250   43.5940 O   0  0  0  0  0  0  0  0  0  0  0  0
   37.7790   29.7990   43.7760 H   0  0  0  0  0  0  0  0  0  0  0  0
  1 15  1  0  0  0  0
  1  3  1  0  0  0  0
  2  1  1  0  0  0  0
  4  5  1  0  0  0  0
  5  6  2  0  0  0  0
  5 17  1  0  0  0  0
  6 18  1  0  0  0  0
  7  6  1  0  0  0  0
  8  7  2  0  0  0  0
  9  8  1  0  0  0  0
  9  4  2  0  0  0  0
 10 11  1  0  0  0  0
 10  8  1  0  0  0  0
 11 19  1  0  0  0  0
 11 20  1  0  0  0  0
 12 21  1  0  0  0  0
 12 11  1  0  0  0  0
 13 12  1  0  0  0  0
 14 13  1  0  0  0  0
 14 25  1  0  0  0  0
 14 15  1  0  0  0  0
 15 26  1  6  0  0  0
 15 10  1  0  0  0  0
 16  4  1  0  0  0  0
 22 12  1  0  0  0  0
 23 13  1  0  0  0  0
 24 14  1  0  0  0  0
 27  1  1  0  0  0  0
 28 27  2  0  0  0  0
 29 28  1  0  0  0  0
 29 32  1  0  0  0  0
 30 29  1  0  0  0  0
 31 29  1  0  0  0  0
 32 35  1  1  0  0  0
 32 33  1  0  0  0  0
 32 34  1  0  0  0  0
 33 37  1  0  0  0  0
 33 34  1  0  0  0  0
 34 38  1  1  0  0  0
 34 40  1  0  0  0  0
 36 33  1  0  0  0  0
 39 45  1  0  0  0  0
 40 39  2  0  0  0  0
 41 40  1  0  0  0  0
 41 43  2  0  0  0  0
 42 41  1  0  0  0  0
 43 44  1  0  0  0  0
 44 45  2  0  0  0  0
 45 48  1  0  0  0  0
 46 39  1  0  0  0  0
 47 46  1  0  0  0  0
 48 49  1  0  0  0  0
M  END
>  <minimizedAffinity>
-6.4954586

$$$$

 OpenBabel03242517333D

 49 52  0  0  1  0  0  0  0  0999 V2000
   38.3110   25.7730   40.2540 C   0  0  0  0  0  0  0  0  0  0  0  0
   38.1080   24.7090   40.0360 H   0  0  0  0  0  0  0  0  0  0  0  0
   39.3710   25.9880   40.0510 H   0  0  0  0  0  0  0  0  0  0  0  0
   39.0130   30.1090   42.9030 C   0  0  0  0  0  0  0  0  0  0  0  0
   40.3410   30.4450   42.5160 C   0  0  0  0  0  0  0  0  0  0  0  0
   41.2030   29.4200   42.1240 C   0  0  0  0  0  0  0  0  0  0  0  0
   40.7220   28.1490   42.1340 N   0  0  0  0  0  0  0  0  0  0  0  0
   39.4820   27.8360   42.4940 C   0  0  0  0  0  0  0  0  0  0  0  0
   38.6570   28.8330   42.8710 N   0  0  0  0  0  0  0  0  0  0  0  0
   39.0730   26.5120   42.4740 N   0  0  0  0  0  0  0  0  0  0  0  0
   39.7820   25.5180   43.2530 C   0  0  0  0  0  0  0  0  0  0  0  0
   39.4920   24.1180   42.8360 C   0  0  0  0  0  0  0  0  0  0  0  0
   38.1950   23.8410   42.3220 N   0  0  0  0  0  0  0  0  0  0  0  0
   37.3080   24.9670   42.4010 C   0  0  0  0  0  0  0  0  0  0  0  0
   37.9080   26.1210   41.6550 C   0  0  2  0  0  0  0  0  0  0  0  0
   38.3230   30.8930   43.2130 H   0  0  0  0  0  0  0  0  0  0  0  0
   40.6750   31.4650   42.5260 H   0  0  0  0  0  0  0  0  0  0  0  0
   42.2190   29.6030   41.8200 H   0  0  0  0  0  0  0  0  0  0  0  0
   39.4390   25.6540   44.3010 H   0  0  0  0  0  0  0  0  0  0  0  0
   40.8890   25.6850   43.1690 H   0  0  0  0  0  0  0  0  0  0  0  0
   40.2350   23.8190   42.0600 H   0  0  0  0  0  0  0  0  0  0  0  0
   39.6650   23.4620   43.7310 H   0  0  0  0  0  0  0  0  0  0  0  0
   37.7100   23.0150   42.7590 H   0  0  0  0  0  0  0  0  0  0  0  0
   36.2750   24.7250   42.1700 H   0  0  0  0  0  0  0  0  0  0  0  0
   37.3020   25.2830   43.4840 H   0  0  0  0  0  0  0  0  0  0  0  0
   37.1960   26.9910   41.6630 H   0  0  0  0  0  0  0  0  0  0  0  0
   37.4100   26.5410   39.3320 C   0  0  0  0  0  3  0  0  0  0  0  0
   36.3820   25.9560   38.7270 C   0  0  0  0  0  3  0  0  0  0  0  0
   35.4270   26.6110   37.8020 C   0  0  0  0  0  0  0  0  0  0  0  0
   34.4460   26.0970   37.7960 H   0  0  0  0  0  0  0  0  0  0  0  0
   35.8860   26.6340   36.7960 H   0  0  0  0  0  0  0  0  0  0  0  0
   35.2370   28.0620   38.2320 C   0  0  2  0  0  0  0  0  0  0  0  0
   34.4390   28.9450   37.3000 C   0  0  0  0  0  0  0  0  0  0  0  0
   35.9180   29.1340   37.4920 C   0  0  1  0  0  0  0  0  0  0  0  0
   34.9150   28.1580   39.2850 H   0  0  0  0  0  0  0  0  0  0  0  0
   34.1130   28.5100   36.3420 H   0  0  0  0  0  0  0  0  0  0  0  0
   33.7550   29.6980   37.7060 H   0  0  0  0  0  0  0  0  0  0  0  0
   36.5640   28.8630   36.6290 H   0  0  0  0  0  0  0  0  0  0  0  0
   37.3410   31.2690   38.0620 C   0  0  0  0  0  0  0  0  0  0  0  0
   36.4710   30.2290   38.3110 C   0  0  0  0  0  0  0  0  0  0  0  0
   35.9620   30.1150   39.6120 C   0  0  0  0  0  0  0  0  0  0  0  0
   35.2620   29.3640   40.0150 H   0  0  0  0  0  0  0  0  0  0  0  0
   36.3140   31.0150   40.6260 C   0  0  0  0  0  3  0  0  0  0  0  0
   37.2010   32.0550   40.3270 C   0  0  0  0  0  3  0  0  0  0  0  0
   37.6870   32.1450   39.0410 C   0  0  0  0  0  0  0  0  0  0  0  0
   37.7680   31.2660   36.7440 O   0  0  0  0  0  0  0  0  0  0  0  0
   37.1470   31.4050   35.9550 H   0  0  0  0  0  0  0  0  0  0  0  0
   38.5760   33.1410   38.6300 O   0  0  0  0  0  0  0  0  0  0  0  0
   39.5640   33.0440   38.7080 H   0  0  0  0  0  0  0  0  0  0  0  0
  1 15  1  0  0  0  0
  2  1  1  0  0  0  0
  3  1  1  0  0  0  0
  4 16  1  0  0  0  0
  5 17  1  0  0  0  0
  5  4  2  0  0  0  0
  6  7  2  0  0  0  0
  6  5  1  0  0  0  0
  7  8  1  0  0  0  0
  8  9  2  0  0  0  0
  9  4  1  0  0  0  0
 10  8  1  0  0  0  0
 10 11  1  0  0  0  0
 11 19  1  0  0  0  0
 12 11  1  0  0  0  0
 12 22  1  0  0  0  0
 13 14  1  0  0  0  0
 13 23  1  0  0  0  0
 13 12  1  0  0  0  0
 14 25  1  0  0  0  0
 15 26  1  6  0  0  0
 15 14  1  0  0  0  0
 15 10  1  0  0  0  0
 18  6  1  0  0  0  0
 20 11  1  0  0  0  0
 21 12  1  0  0  0  0
 24 14  1  0  0  0  0
 27  1  1  0  0  0  0
 28 27  2  0  0  0  0
 29 32  1  0  0  0  0
 29 28  1  0  0  0  0
 30 29  1  0  0  0  0
 31 29  1  0  0  0  0
 32 35  1  1  0  0  0
 33 34  1  0  0  0  0
 33 37  1  0  0  0  0
 33 32  1  0  0  0  0
 34 38  1  6  0  0  0
 34 32  1  0  0  0  0
 34 40  1  0  0  0  0
 36 33  1  0  0  0  0
 39 40  2  0  0  0  0
 39 45  1  0  0  0  0
 40 41  1  0  0  0  0
 41 42  1  0  0  0  0
 41 43  2  0  0  0  0
 44 43  1  0  0  0  0
 45 44  2  0  0  0  0
 46 39  1  0  0  0  0
 47 46  1  0  0  0  0
 48 49  1  0  0  0  0
 48 45  1  0  0  0  0
M  END
>  <minimizedAffinity>
-6.32008743

$$$$

 OpenBabel03242517333D

 49 52  0  0  1  0  0  0  0  0999 V2000
   36.9390   31.1040   38.8590 C   0  0  0  0  0  0  0  0  0  0  0  0
   36.8390   32.0660   38.3260 H   0  0  0  0  0  0  0  0  0  0  0  0
   36.3250   31.1310   39.7720 H   0  0  0  0  0  0  0  0  0  0  0  0
   39.0060   27.4320   41.7850 C   0  0  0  0  0  0  0  0  0  0  0  0
   38.1280   27.4580   42.9040 C   0  0  0  0  0  0  0  0  0  0  0  0
   37.4570   28.6450   43.2010 C   0  0  0  0  0  0  0  0  0  0  0  0
   37.6820   29.7190   42.3970 N   0  0  0  0  0  0  0  0  0  0  0  0
   38.5010   29.6930   41.3520 C   0  0  0  0  0  0  0  0  0  0  0  0
   39.1450   28.5420   41.0730 N   0  0  0  0  0  0  0  0  0  0  0  0
   38.6730   30.8350   40.5840 N   0  0  0  0  0  0  0  0  0  0  0  0
   39.1410   32.0610   41.1960 C   0  0  0  0  0  0  0  0  0  0  0  0
   38.9010   33.2710   40.3600 C   0  0  0  0  0  0  0  0  0  0  0  0
   38.9360   33.1110   38.9480 N   0  0  0  0  0  0  0  0  0  0  0  0
   39.3250   31.7900   38.5420 C   0  0  0  0  0  0  0  0  0  0  0  0
   38.3780   30.7920   39.1380 C   0  0  2  0  0  0  0  0  0  0  0  0
   39.5400   26.5160   41.5340 H   0  0  0  0  0  0  0  0  0  0  0  0
   37.9830   26.5840   43.5100 H   0  0  0  0  0  0  0  0  0  0  0  0
   36.7800   28.7350   44.0320 H   0  0  0  0  0  0  0  0  0  0  0  0
   40.2350   31.9340   41.3300 H   0  0  0  0  0  0  0  0  0  0  0  0
   38.6310   32.2140   42.1850 H   0  0  0  0  0  0  0  0  0  0  0  0
   37.9060   33.6950   40.6290 H   0  0  0  0  0  0  0  0  0  0  0  0
   39.6760   34.0320   40.6490 H   0  0  0  0  0  0  0  0  0  0  0  0
   39.5460   33.7990   38.4360 H   0  0  0  0  0  0  0  0  0  0  0  0
   39.5180   31.6990   37.4780 H   0  0  0  0  0  0  0  0  0  0  0  0
   40.3180   31.5910   39.0390 H   0  0  0  0  0  0  0  0  0  0  0  0
   38.6400   29.7570   38.7810 H   0  0  0  0  0  0  0  0  0  0  0  0
   36.4410   30.0680   37.8960 C   0  0  0  0  0  3  0  0  0  0  0  0
   35.4410   29.2520   38.2150 C   0  0  0  0  0  3  0  0  0  0  0  0
   34.8650   28.1970   37.3480 C   0  0  0  0  0  0  0  0  0  0  0  0
   35.0700   27.1850   37.7450 H   0  0  0  0  0  0  0  0  0  0  0  0
   35.2770   28.3300   36.3290 H   0  0  0  0  0  0  0  0  0  0  0  0
   33.3590   28.4080   37.2450 C   0  0  2  0  0  0  0  0  0  0  0  0
   32.6500   27.6890   36.1200 C   0  0  0  0  0  0  0  0  0  0  0  0
   32.8080   29.1840   36.1240 C   0  0  1  0  0  0  0  0  0  0  0  0
   32.8430   28.2890   38.2150 H   0  0  0  0  0  0  0  0  0  0  0  0
   33.2710   27.1250   35.4060 H   0  0  0  0  0  0  0  0  0  0  0  0
   31.6530   27.2660   36.2790 H   0  0  0  0  0  0  0  0  0  0  0  0
   33.5070   29.6060   35.3710 H   0  0  0  0  0  0  0  0  0  0  0  0
   31.0470   31.1050   35.7820 C   0  0  0  0  0  0  0  0  0  0  0  0
   31.6940   30.0930   36.4580 C   0  0  0  0  0  0  0  0  0  0  0  0
   31.2610   29.8080   37.7600 C   0  0  0  0  0  0  0  0  0  0  0  0
   31.6400   29.0470   38.4620 H   0  0  0  0  0  0  0  0  0  0  0  0
   30.2120   30.5160   38.3610 C   0  0  0  0  0  3  0  0  0  0  0  0
   29.5840   31.5360   37.6380 C   0  0  0  0  0  3  0  0  0  0  0  0
   30.0300   31.7950   36.3610 C   0  0  0  0  0  0  0  0  0  0  0  0
   31.5720   31.2820   34.5130 O   0  0  0  0  0  0  0  0  0  0  0  0
   31.5320   30.5760   33.7870 H   0  0  0  0  0  0  0  0  0  0  0  0
   29.4780   32.7880   35.5470 O   0  0  0  0  0  0  0  0  0  0  0  0
   29.7980   33.7320   35.5610 H   0  0  0  0  0  0  0  0  0  0  0  0
  1 15  1  0  0  0  0
  1  3  1  0  0  0  0
  2  1  1  0  0  0  0
  4  5  1  0  0  0  0
  5  6  2  0  0  0  0
  5 17  1  0  0  0  0
  6 18  1  0  0  0  0
  7  6  1  0  0  0  0
  8  7  2  0  0  0  0
  9  8  1  0  0  0  0
  9  4  2  0  0  0  0
 10 11  1  0  0  0  0
 10  8  1  0  0  0  0
 11 19  1  0  0  0  0
 11 20  1  0  0  0  0
 12 21  1  0  0  0  0
 12 22  1  0  0  0  0
 12 11  1  0  0  0  0
 13 12  1  0  0  0  0
 14 13  1  0  0  0  0
 14 25  1  0  0  0  0
 14 15  1  0  0  0  0
 15 26  1  6  0  0  0
 15 10  1  0  0  0  0
 16  4  1  0  0  0  0
 23 13  1  0  0  0  0
 24 14  1  0  0  0  0
 27 28  2  0  0  0  0
 27  1  1  0  0  0  0
 29 30  1  0  0  0  0
 29 28  1  0  0  0  0
 31 29  1  0  0  0  0
 32 29  1  0  0  0  0
 32 35  1  1  0  0  0
 33 34  1  0  0  0  0
 33 37  1  0  0  0  0
 33 32  1  0  0  0  0
 34 38  1  6  0  0  0
 34 40  1  0  0  0  0
 34 32  1  0  0  0  0
 36 33  1  0  0  0  0
 39 45  2  0  0  0  0
 39 40  1  0  0  0  0
 40 41  2  0  0  0  0
 41 43  1  0  0  0  0
 41 42  1  0  0  0  0
 44 43  2  0  0  0  0
 45 44  1  0  0  0  0
 46 39  1  0  0  0  0
 47 46  1  0  0  0  0
 48 49  1  0  0  0  0
 48 45  1  0  0  0  0
M  END
>  <minimizedAffinity>
-6.28422832

$$$$

 OpenBabel03242517333D

 49 52  0  0  1  0  0  0  0  0999 V2000
   37.2490   25.6080   38.9830 C   0  0  0  0  0  0  0  0  0  0  0  0
   37.3510   24.6950   38.3690 H   0  0  0  0  0  0  0  0  0  0  0  0
   38.2210   26.1220   39.0300 H   0  0  0  0  0  0  0  0  0  0  0  0
   37.1420   28.4440   43.2560 C   0  0  0  0  0  0  0  0  0  0  0  0
   38.4350   29.0360   43.2140 C   0  0  0  0  0  0  0  0  0  0  0  0
   39.4580   28.3640   42.5440 C   0  0  0  0  0  0  0  0  0  0  0  0
   39.1600   27.1710   41.9660 N   0  0  0  0  0  0  0  0  0  0  0  0
   37.9520   26.6180   42.0040 C   0  0  0  0  0  0  0  0  0  0  0  0
   36.9700   27.2760   42.6530 N   0  0  0  0  0  0  0  0  0  0  0  0
   37.7340   25.3970   41.3860 N   0  0  0  0  0  0  0  0  0  0  0  0
   38.5140   24.2380   41.7660 C   0  0  0  0  0  0  0  0  0  0  0  0
   38.4540   23.1290   40.7730 C   0  0  0  0  0  0  0  0  0  0  0  0
   37.2500   22.9760   40.0320 N   0  0  0  0  0  0  0  0  0  0  0  0
   36.2120   23.8710   40.4570 C   0  0  0  0  0  0  0  0  0  0  0  0
   36.6990   25.2850   40.3380 C   0  0  2  0  0  0  0  0  0  0  0  0
   36.3280   28.9510   43.7730 H   0  0  0  0  0  0  0  0  0  0  0  0
   38.6230   29.9820   43.6870 H   0  0  0  0  0  0  0  0  0  0  0  0
   40.4590   28.7550   42.4750 H   0  0  0  0  0  0  0  0  0  0  0  0
   38.0800   23.8800   42.7230 H   0  0  0  0  0  0  0  0  0  0  0  0
   39.5910   24.5290   41.8990 H   0  0  0  0  0  0  0  0  0  0  0  0
   39.2870   23.2620   40.0440 H   0  0  0  0  0  0  0  0  0  0  0  0
   38.6490   22.1740   41.3300 H   0  0  0  0  0  0  0  0  0  0  0  0
   36.8540   22.0010   40.0220 H   0  0  0  0  0  0  0  0  0  0  0  0
   35.2430   23.6550   40.0190 H   0  0  0  0  0  0  0  0  0  0  0  0
   36.0820   23.6930   41.5630 H   0  0  0  0  0  0  0  0  0  0  0  0
   35.8730   25.9970   40.6160 H   0  0  0  0  0  0  0  0  0  0  0  0
   36.2220   26.4430   38.2770 C   0  0  0  0  0  3  0  0  0  0  0  0
   36.4200   26.8780   37.0370 C   0  0  0  0  0  3  0  0  0  0  0  0
   35.4800   27.7020   36.2410 C   0  0  0  0  0  0  0  0  0  0  0  0
   34.4260   27.4390   36.4540 H   0  0  0  0  0  0  0  0  0  0  0  0
   35.7300   27.5690   35.1720 H   0  0  0  0  0  0  0  0  0  0  0  0
   35.7120   29.1730   36.5680 C   0  0  2  0  0  0  0  0  0  0  0  0
   36.3490   30.0140   35.4850 C   0  0  0  0  0  0  0  0  0  0  0  0
   37.0840   29.6690   36.7510 C   0  0  1  0  0  0  0  0  0  0  0  0
   34.8250   29.6580   37.0130 H   0  0  0  0  0  0  0  0  0  0  0  0
   36.6730   29.5000   34.5660 H   0  0  0  0  0  0  0  0  0  0  0  0
   36.0260   31.0490   35.3300 H   0  0  0  0  0  0  0  0  0  0  0  0
   37.9300   28.9560   36.6490 H   0  0  0  0  0  0  0  0  0  0  0  0
   38.0290   31.7900   37.9840 C   0  0  0  0  0  0  0  0  0  0  0  0
   37.2740   30.6450   37.8410 C   0  0  0  0  0  0  0  0  0  0  0  0
   36.4920   30.2500   38.9350 C   0  0  0  0  0  0  0  0  0  0  0  0
   35.8250   29.3760   39.0260 H   0  0  0  0  0  0  0  0  0  0  0  0
   36.4690   30.9810   40.1300 C   0  0  0  0  0  3  0  0  0  0  0  0
   37.2520   32.1360   40.2300 C   0  0  0  0  0  3  0  0  0  0  0  0
   38.0110   32.5020   39.1400 C   0  0  0  0  0  0  0  0  0  0  0  0
   38.7510   32.0650   36.8340 O   0  0  0  0  0  0  0  0  0  0  0  0
   38.3220   32.2850   35.9430 H   0  0  0  0  0  0  0  0  0  0  0  0
   38.8290   33.6350   39.1260 O   0  0  0  0  0  0  0  0  0  0  0  0
   39.7750   33.6180   39.4390 H   0  0  0  0  0  0  0  0  0  0  0  0
  1  3  1  0  0  0  0
  1 15  1  0  0  0  0
  2  1  1  0  0  0  0
  4 16  1  0  0  0  0
  5  4  1  0  0  0  0
  5 17  1  0  0  0  0
  6  5  2  0  0  0  0
  7  8  2  0  0  0  0
  7  6  1  0  0  0  0
  8  9  1  0  0  0  0
  9  4  2  0  0  0  0
 10 11  1  0  0  0  0
 10  8  1  0  0  0  0
 11 20  1  0  0  0  0
 11 19  1  0  0  0  0
 12 22  1  0  0  0  0
 12 11  1  0  0  0  0
 13 14  1  0  0  0  0
 13 12  1  0  0  0  0
 14 25  1  0  0  0  0
 15 14  1  0  0  0  0
 15 26  1  1  0  0  0
 15 10  1  0  0  0  0
 18  6  1  0  0  0  0
 21 12  1  0  0  0  0
 23 13  1  0  0  0  0
 24 14  1  0  0  0  0
 27  1  1  0  0  0  0
 28 27  2  0  0  0  0
 29 30  1  0  0  0  0
 29 32  1  0  0  0  0
 29 28  1  0  0  0  0
 31 29  1  0  0  0  0
 32 34  1  0  0  0  0
 32 35  1  1  0  0  0
 33 32  1  0  0  0  0
 33 34  1  0  0  0  0
 34 38  1  6  0  0  0
 34 40  1  0  0  0  0
 36 33  1  0  0  0  0
 37 33  1  0  0  0  0
 39 45  1  0  0  0  0
 40 39  2  0  0  0  0
 40 41  1  0  0  0  0
 41 42  1  0  0  0  0
 41 43  2  0  0  0  0
 43 44  1  0  0  0  0
 45 44  2  0  0  0  0
 46 39  1  0  0  0  0
 47 46  1  0  0  0  0
 48 45  1  0  0  0  0
 48 49  1  0  0  0  0
M  END
>  <minimizedAffinity>
-6.22996759

$$$$

 OpenBabel03242517333D

 49 52  0  0  1  0  0  0  0  0999 V2000
   37.0880   25.6060   39.0230 C   0  0  0  0  0  0  0  0  0  0  0  0
   36.3800   25.1570   38.3030 H   0  0  0  0  0  0  0  0  0  0  0  0
   38.1090   25.2770   38.7780 H   0  0  0  0  0  0  0  0  0  0  0  0
   37.3020   28.5060   43.2490 C   0  0  0  0  0  0  0  0  0  0  0  0
   38.5550   29.1540   43.0630 C   0  0  0  0  0  0  0  0  0  0  0  0
   39.5320   28.5150   42.2970 C   0  0  0  0  0  0  0  0  0  0  0  0
   39.2280   27.3010   41.7680 N   0  0  0  0  0  0  0  0  0  0  0  0
   38.0580   26.6970   41.9400 C   0  0  0  0  0  0  0  0  0  0  0  0
   37.1210   27.3220   42.6820 N   0  0  0  0  0  0  0  0  0  0  0  0
   37.8320   25.4570   41.3640 N   0  0  0  0  0  0  0  0  0  0  0  0
   38.6990   24.3390   41.6730 C   0  0  0  0  0  0  0  0  0  0  0  0
   38.5850   23.2130   40.7050 C   0  0  0  0  0  0  0  0  0  0  0  0
   37.3180   22.9950   40.0980 N   0  0  0  0  0  0  0  0  0  0  0  0
   36.2910   23.8510   40.6190 C   0  0  0  0  0  0  0  0  0  0  0  0
   36.6980   25.2820   40.4330 C   0  0  2  0  0  0  0  0  0  0  0  0
   36.5250   28.9860   43.8430 H   0  0  0  0  0  0  0  0  0  0  0  0
   38.7490   30.1140   43.5020 H   0  0  0  0  0  0  0  0  0  0  0  0
   40.5010   28.9480   42.1170 H   0  0  0  0  0  0  0  0  0  0  0  0
   38.3840   23.9800   42.6750 H   0  0  0  0  0  0  0  0  0  0  0  0
   39.7700   24.6800   41.6880 H   0  0  0  0  0  0  0  0  0  0  0  0
   39.3300   23.3690   39.8910 H   0  0  0  0  0  0  0  0  0  0  0  0
   38.8810   22.2760   41.2510 H   0  0  0  0  0  0  0  0  0  0  0  0
   36.9670   22.0040   40.1420 H   0  0  0  0  0  0  0  0  0  0  0  0
   35.2920   23.5850   40.2890 H   0  0  0  0  0  0  0  0  0  0  0  0
   36.2860   23.6860   41.7350 H   0  0  0  0  0  0  0  0  0  0  0  0
   35.8750   25.9620   40.7880 H   0  0  0  0  0  0  0  0  0  0  0  0
   36.9350   27.0880   38.8520 C   0  0  0  0  0  3  0  0  0  0  0  0
   35.7860   27.7000   39.1250 C   0  0  0  0  0  3  0  0  0  0  0  0
   35.5200   29.1520   38.9980 C   0  0  0  0  0  0  0  0  0  0  0  0
   34.5710   29.4370   39.4910 H   0  0  0  0  0  0  0  0  0  0  0  0
   35.5170   29.4060   37.9210 H   0  0  0  0  0  0  0  0  0  0  0  0
   36.6730   29.9240   39.6290 C   0  0  2  0  0  0  0  0  0  0  0  0
   36.3040   30.9910   40.6330 C   0  0  0  0  0  0  0  0  0  0  0  0
   36.8730   31.3390   39.2860 C   0  0  1  0  0  0  0  0  0  0  0  0
   37.4830   29.2640   39.9910 H   0  0  0  0  0  0  0  0  0  0  0  0
   35.2320   31.1950   40.7880 H   0  0  0  0  0  0  0  0  0  0  0  0
   36.9230   31.1480   41.5230 H   0  0  0  0  0  0  0  0  0  0  0  0
   36.1760   31.8210   38.5680 H   0  0  0  0  0  0  0  0  0  0  0  0
   39.0400   32.1260   38.0220 C   0  0  0  0  0  0  0  0  0  0  0  0
   38.2750   31.7660   39.1110 C   0  0  0  0  0  0  0  0  0  0  0  0
   38.8990   31.7760   40.3660 C   0  0  0  0  0  0  0  0  0  0  0  0
   38.4710   31.5250   41.3510 H   0  0  0  0  0  0  0  0  0  0  0  0
   40.2440   32.1350   40.5200 C   0  0  0  0  0  3  0  0  0  0  0  0
   40.9820   32.4920   39.3870 C   0  0  0  0  0  3  0  0  0  0  0  0
   40.3450   32.4740   38.1650 C   0  0  0  0  0  0  0  0  0  0  0  0
   38.3040   32.0730   36.8490 O   0  0  0  0  0  0  0  0  0  0  0  0
   37.5030   32.6650   36.6640 H   0  0  0  0  0  0  0  0  0  0  0  0
   40.9810   32.8120   36.9680 O   0  0  0  0  0  0  0  0  0  0  0  0
   41.4750   32.1460   36.4170 H   0  0  0  0  0  0  0  0  0  0  0  0
  1 15  1  0  0  0  0
  2  1  1  0  0  0  0
  3  1  1  0  0  0  0
  4 16  1  0  0  0  0
  5  4  1  0  0  0  0
  5 17  1  0  0  0  0
  6  5  2  0  0  0  0
  7  8  2  0  0  0  0
  7  6  1  0  0  0  0
  8  9  1  0  0  0  0
  9  4  2  0  0  0  0
 10 11  1  0  0  0  0
 10  8  1  0  0  0  0
 11 20  1  0  0  0  0
 11 19  1  0  0  0  0
 12 22  1  0  0  0  0
 12 11  1  0  0  0  0
 13 23  1  0  0  0  0
 13 14  1  0  0  0  0
 13 12  1  0  0  0  0
 14 25  1  0  0  0  0
 15 14  1  0  0  0  0
 15 26  1  1  0  0  0
 15 10  1  0  0  0  0
 18  6  1  0  0  0  0
 21 12  1  0  0  0  0
 24 14  1  0  0  0  0
 27  1  1  0  0  0  0
 27 28  2  0  0  0  0
 29 28  1  0  0  0  0
 29 30  1  0  0  0  0
 29 32  1  0  0  0  0
 31 29  1  0  0  0  0
 32 35  1  1  0  0  0
 32 33  1  0  0  0  0
 33 36  1  0  0  0  0
 33 37  1  0  0  0  0
 34 38  1  6  0  0  0
 34 32  1  0  0  0  0
 34 33  1  0  0  0  0
 39 45  2  0  0  0  0
 39 40  1  0  0  0  0
 40 34  1  0  0  0  0
 40 41  2  0  0  0  0
 41 43  1  0  0  0  0
 41 42  1  0  0  0  0
 44 43  2  0  0  0  0
 45 44  1  0  0  0  0
 46 39  1  0  0  0  0
 47 46  1  0  0  0  0
 48 45  1  0  0  0  0
 49 48  1  0  0  0  0
M  END
>  <minimizedAffinity>
-6.18328476

$$$$

 OpenBabel03242517333D

 49 52  0  0  1  0  0  0  0  0999 V2000
   37.1350   25.6970   38.9380 C   0  0  0  0  0  0  0  0  0  0  0  0
   36.4400   25.3280   38.1630 H   0  0  0  0  0  0  0  0  0  0  0  0
   38.1530   25.3460   38.7080 H   0  0  0  0  0  0  0  0  0  0  0  0
   37.2260   28.3090   43.3520 C   0  0  0  0  0  0  0  0  0  0  0  0
   38.4990   28.9380   43.2630 C   0  0  0  0  0  0  0  0  0  0  0  0
   39.4940   28.3280   42.4980 C   0  0  0  0  0  0  0  0  0  0  0  0
   39.1890   27.1580   41.8770 N   0  0  0  0  0  0  0  0  0  0  0  0
   38.0000   26.5720   41.9600 C   0  0  0  0  0  0  0  0  0  0  0  0
   37.0450   27.1690   42.7010 N   0  0  0  0  0  0  0  0  0  0  0  0
   37.7740   25.3780   41.2930 N   0  0  0  0  0  0  0  0  0  0  0  0
   38.6030   24.2220   41.5640 C   0  0  0  0  0  0  0  0  0  0  0  0
   38.5080   23.1650   40.5190 C   0  0  0  0  0  0  0  0  0  0  0  0
   37.2650   23.0170   39.8460 N   0  0  0  0  0  0  0  0  0  0  0  0
   36.2330   23.8610   40.3800 C   0  0  0  0  0  0  0  0  0  0  0  0
   36.6780   25.2910   40.3060 C   0  0  2  0  0  0  0  0  0  0  0  0
   36.4340   28.7670   43.9440 H   0  0  0  0  0  0  0  0  0  0  0  0
   38.6930   29.8630   43.7730 H   0  0  0  0  0  0  0  0  0  0  0  0
   40.4790   28.7490   42.3880 H   0  0  0  0  0  0  0  0  0  0  0  0
   38.2380   23.8050   42.5250 H   0  0  0  0  0  0  0  0  0  0  0  0
   39.6790   24.5360   41.6460 H   0  0  0  0  0  0  0  0  0  0  0  0
   39.2910   23.3570   39.7490 H   0  0  0  0  0  0  0  0  0  0  0  0
   38.7610   22.1880   41.0130 H   0  0  0  0  0  0  0  0  0  0  0  0
   36.8920   22.0330   39.8090 H   0  0  0  0  0  0  0  0  0  0  0  0
   35.2440   23.6400   39.9910 H   0  0  0  0  0  0  0  0  0  0  0  0
   36.1770   23.6230   41.4810 H   0  0  0  0  0  0  0  0  0  0  0  0
   35.8550   25.9650   40.6710 H   0  0  0  0  0  0  0  0  0  0  0  0
   37.0440   27.1930   38.8690 C   0  0  0  0  0  3  0  0  0  0  0  0
   35.9000   27.8260   39.1080 C   0  0  0  0  0  3  0  0  0  0  0  0
   35.6920   29.2930   39.0720 C   0  0  0  0  0  0  0  0  0  0  0  0
   34.6590   29.5660   39.3620 H   0  0  0  0  0  0  0  0  0  0  0  0
   35.9400   29.6490   38.0540 H   0  0  0  0  0  0  0  0  0  0  0  0
   36.6800   29.9580   40.0230 C   0  0  2  0  0  0  0  0  0  0  0  0
   36.1070   30.9460   41.0130 C   0  0  0  0  0  0  0  0  0  0  0  0
   36.9840   31.3880   39.8740 C   0  0  1  0  0  0  0  0  0  0  0  0
   37.3700   29.2350   40.4980 H   0  0  0  0  0  0  0  0  0  0  0  0
   35.0340   31.1800   40.9350 H   0  0  0  0  0  0  0  0  0  0  0  0
   36.5040   30.9970   42.0330 H   0  0  0  0  0  0  0  0  0  0  0  0
   36.4840   31.9600   39.0630 H   0  0  0  0  0  0  0  0  0  0  0  0
   39.0290   32.9100   40.5160 C   0  0  0  0  0  0  0  0  0  0  0  0
   38.3960   31.7690   40.0700 C   0  0  0  0  0  0  0  0  0  0  0  0
   39.2060   30.6900   39.6910 C   0  0  0  0  0  0  0  0  0  0  0  0
   38.9030   29.7000   39.3110 H   0  0  0  0  0  0  0  0  0  0  0  0
   40.6030   30.7550   39.7600 C   0  0  0  0  0  3  0  0  0  0  0  0
   41.2030   31.9330   40.2190 C   0  0  0  0  0  3  0  0  0  0  0  0
   40.3830   32.9790   40.5850 C   0  0  0  0  0  0  0  0  0  0  0  0
   38.1150   33.8940   40.8560 O   0  0  0  0  0  0  0  0  0  0  0  0
   37.4430   33.7990   41.6080 H   0  0  0  0  0  0  0  0  0  0  0  0
   40.8710   34.2000   41.0570 O   0  0  0  0  0  0  0  0  0  0  0  0
   41.1090   34.9540   40.4510 H   0  0  0  0  0  0  0  0  0  0  0  0
  1 15  1  0  0  0  0
  2  1  1  0  0  0  0
  3  1  1  0  0  0  0
  4 16  1  0  0  0  0
  5  4  1  0  0  0  0
  5 17  1  0  0  0  0
  6  5  2  0  0  0  0
  7  8  2  0  0  0  0
  7  6  1  0  0  0  0
  8  9  1  0  0  0  0
  9  4  2  0  0  0  0
 10 11  1  0  0  0  0
 10  8  1  0  0  0  0
 11 20  1  0  0  0  0
 11 19  1  0  0  0  0
 12 22  1  0  0  0  0
 12 11  1  0  0  0  0
 13 14  1  0  0  0  0
 13 12  1  0  0  0  0
 14 25  1  0  0  0  0
 15 14  1  0  0  0  0
 15 26  1  1  0  0  0
 15 10  1  0  0  0  0
 18  6  1  0  0  0  0
 21 12  1  0  0  0  0
 23 13  1  0  0  0  0
 24 14  1  0  0  0  0
 27  1  1  0  0  0  0
 27 28  2  0  0  0  0
 29 28  1  0  0  0  0
 29 30  1  0  0  0  0
 29 32  1  0  0  0  0
 31 29  1  0  0  0  0
 32 35  1  1  0  0  0
 32 33  1  0  0  0  0
 33 37  1  0  0  0  0
 34 38  1  6  0  0  0
 34 32  1  0  0  0  0
 34 40  1  0  0  0  0
 34 33  1  0  0  0  0
 36 33  1  0  0  0  0
 39 45  1  0  0  0  0
 39 46  1  0  0  0  0
 40 39  2  0  0  0  0
 41 43  2  0  0  0  0
 41 40  1  0  0  0  0
 42 41  1  0  0  0  0
 43 44  1  0  0  0  0
 44 45  2  0  0  0  0
 45 48  1  0  0  0  0
 46 47  1  0  0  0  0
 49 48  1  0  0  0  0
M  END
>  <minimizedAffinity>
-6.08282232

$$$$

 OpenBabel03242517333D

 49 52  0  0  1  0  0  0  0  0999 V2000
   40.9590   30.4010   40.4740 C   0  0  0  0  0  0  0  0  0  0  0  0
   41.8760   30.6820   41.0230 H   0  0  0  0  0  0  0  0  0  0  0  0
   41.2340   30.0270   39.4760 H   0  0  0  0  0  0  0  0  0  0  0  0
   35.8300   30.3970   40.5650 C   0  0  0  0  0  0  0  0  0  0  0  0
   35.5510   29.2830   39.7260 C   0  0  0  0  0  0  0  0  0  0  0  0
   36.4850   28.9260   38.7520 C   0  0  0  0  0  0  0  0  0  0  0  0
   37.6180   29.6710   38.6590 N   0  0  0  0  0  0  0  0  0  0  0  0
   37.8790   30.7110   39.4430 C   0  0  0  0  0  0  0  0  0  0  0  0
   36.9710   31.0470   40.3810 N   0  0  0  0  0  0  0  0  0  0  0  0
   39.0620   31.4160   39.2800 N   0  0  0  0  0  0  0  0  0  0  0  0
   39.3800   32.0220   38.0040 C   0  0  0  0  0  0  0  0  0  0  0  0
   40.8160   32.3900   37.8630 C   0  0  0  0  0  0  0  0  0  0  0  0
   41.5130   32.7800   39.0390 N   0  0  0  0  0  0  0  0  0  0  0  0
   40.6630   32.8700   40.1920 C   0  0  0  0  0  0  0  0  0  0  0  0
   39.9950   31.5470   40.4180 C   0  0  2  0  0  0  0  0  0  0  0  0
   35.1150   30.6930   41.3320 H   0  0  0  0  0  0  0  0  0  0  0  0
   34.6390   28.7250   39.8370 H   0  0  0  0  0  0  0  0  0  0  0  0
   36.3360   28.0960   38.0850 H   0  0  0  0  0  0  0  0  0  0  0  0
   38.7690   32.9480   37.9490 H   0  0  0  0  0  0  0  0  0  0  0  0
   39.1160   31.3170   37.1700 H   0  0  0  0  0  0  0  0  0  0  0  0
   41.3600   31.5260   37.4150 H   0  0  0  0  0  0  0  0  0  0  0  0
   40.8700   33.2350   37.1240 H   0  0  0  0  0  0  0  0  0  0  0  0
   42.0500   33.6810   38.9610 H   0  0  0  0  0  0  0  0  0  0  0  0
   41.1420   33.3240   41.0530 H   0  0  0  0  0  0  0  0  0  0  0  0
   39.8310   33.5780   39.9100 H   0  0  0  0  0  0  0  0  0  0  0  0
   39.3690   31.5900   41.3520 H   0  0  0  0  0  0  0  0  0  0  0  0
   40.3190   29.3260   41.3030 C   0  0  0  0  0  3  0  0  0  0  0  0
   39.5580   29.6240   42.3510 C   0  0  0  0  0  3  0  0  0  0  0  0
   38.8750   28.6520   43.2370 C   0  0  0  0  0  0  0  0  0  0  0  0
   38.2930   29.1600   44.0290 H   0  0  0  0  0  0  0  0  0  0  0  0
   39.6430   27.9760   43.6600 H   0  0  0  0  0  0  0  0  0  0  0  0
   37.9430   27.7860   42.3970 C   0  0  2  0  0  0  0  0  0  0  0  0
   36.5550   27.5540   42.9480 C   0  0  0  0  0  0  0  0  0  0  0  0
   37.5690   26.4460   42.8730 C   0  0  1  0  0  0  0  0  0  0  0  0
   37.9310   28.0780   41.3310 H   0  0  0  0  0  0  0  0  0  0  0  0
   36.3310   27.9560   43.9490 H   0  0  0  0  0  0  0  0  0  0  0  0
   35.6920   27.5240   42.2740 H   0  0  0  0  0  0  0  0  0  0  0  0
   37.9780   26.0890   43.8420 H   0  0  0  0  0  0  0  0  0  0  0  0
   37.9590   24.0910   41.7730 C   0  0  0  0  0  0  0  0  0  0  0  0
   37.5080   25.3920   41.8420 C   0  0  0  0  0  0  0  0  0  0  0  0
   36.8400   25.9020   40.7210 C   0  0  0  0  0  0  0  0  0  0  0  0
   36.4060   26.9050   40.5740 H   0  0  0  0  0  0  0  0  0  0  0  0
   36.6310   25.1300   39.5710 C   0  0  0  0  0  3  0  0  0  0  0  0
   37.1060   23.8140   39.5440 C   0  0  0  0  0  3  0  0  0  0  0  0
   37.7600   23.3380   40.6600 C   0  0  0  0  0  0  0  0  0  0  0  0
   38.5980   23.7150   42.9430 O   0  0  0  0  0  0  0  0  0  0  0  0
   38.1340   23.6580   43.8420 H   0  0  0  0  0  0  0  0  0  0  0  0
   38.2750   22.0420   40.7470 O   0  0  0  0  0  0  0  0  0  0  0  0
   39.1940   21.8090   40.4410 H   0  0  0  0  0  0  0  0  0  0  0  0
  1  2  1  0  0  0  0
  1 27  1  0  0  0  0
  3  1  1  0  0  0  0
  4 16  1  0  0  0  0
  5 17  1  0  0  0  0
  5  4  2  0  0  0  0
  6  5  1  0  0  0  0
  7  6  2  0  0  0  0
  7  8  1  0  0  0  0
  8  9  2  0  0  0  0
  9  4  1  0  0  0  0
 10  8  1  0  0  0  0
 10 15  1  0  0  0  0
 11 10  1  0  0  0  0
 12 11  1  0  0  0  0
 12 13  1  0  0  0  0
 13 14  1  0  0  0  0
 14 15  1  0  0  0  0
 14 24  1  0  0  0  0
 15  1  1  0  0  0  0
 15 26  1  1  0  0  0
 18  6  1  0  0  0  0
 19 11  1  0  0  0  0
 20 11  1  0  0  0  0
 21 12  1  0  0  0  0
 22 12  1  0  0  0  0
 23 13  1  0  0  0  0
 25 14  1  0  0  0  0
 27 28  2  0  0  0  0
 28 29  1  0  0  0  0
 29 31  1  0  0  0  0
 29 30  1  0  0  0  0
 32 35  1  6  0  0  0
 32 34  1  0  0  0  0
 32 33  1  0  0  0  0
 32 29  1  0  0  0  0
 33 36  1  0  0  0  0
 34 33  1  0  0  0  0
 34 38  1  1  0  0  0
 37 33  1  0  0  0  0
 39 40  1  0  0  0  0
 39 46  1  0  0  0  0
 40 34  1  0  0  0  0
 41 40  2  0  0  0  0
 42 41  1  0  0  0  0
 43 41  1  0  0  0  0
 44 43  2  0  0  0  0
 44 45  1  0  0  0  0
 45 48  1  0  0  0  0
 45 39  2  0  0  0  0
 46 47  1  0  0  0  0
 49 48  1  0  0  0  0
M  END
>  <minimizedAffinity>
-6.07544184

$$$$

 OpenBabel03242517333D

 49 52  0  0  1  0  0  0  0  0999 V2000
   36.7400   24.1860   38.5930 C   0  0  0  0  0  0  0  0  0  0  0  0
   37.2560   23.2390   38.3540 H   0  0  0  0  0  0  0  0  0  0  0  0
   35.7120   24.1460   38.2030 H   0  0  0  0  0  0  0  0  0  0  0  0
   35.3620   29.1120   38.2060 C   0  0  0  0  0  0  0  0  0  0  0  0
   34.0180   28.9780   37.7570 C   0  0  0  0  0  0  0  0  0  0  0  0
   33.6620   27.8320   37.0450 C   0  0  0  0  0  0  0  0  0  0  0  0
   34.6270   26.9020   36.8180 N   0  0  0  0  0  0  0  0  0  0  0  0
   35.8810   27.0270   37.2380 C   0  0  0  0  0  0  0  0  0  0  0  0
   36.2150   28.1380   37.9250 N   0  0  0  0  0  0  0  0  0  0  0  0
   36.8020   26.0290   36.9620 N   0  0  0  0  0  0  0  0  0  0  0  0
   37.0700   25.6410   35.5930 C   0  0  0  0  0  0  0  0  0  0  0  0
   37.7580   24.3260   35.4720 C   0  0  0  0  0  0  0  0  0  0  0  0
   38.6500   23.9520   36.5140 N   0  0  0  0  0  0  0  0  0  0  0  0
   38.8390   24.9880   37.4900 C   0  0  0  0  0  0  0  0  0  0  0  0
   37.5100   25.3630   38.0750 C   0  0  2  0  0  0  0  0  0  0  0  0
   35.6620   29.9990   38.7640 H   0  0  0  0  0  0  0  0  0  0  0  0
   33.2910   29.7420   37.9610 H   0  0  0  0  0  0  0  0  0  0  0  0
   32.6650   27.6670   36.6760 H   0  0  0  0  0  0  0  0  0  0  0  0
   37.7350   26.4290   35.1800 H   0  0  0  0  0  0  0  0  0  0  0  0
   36.1080   25.5860   35.0160 H   0  0  0  0  0  0  0  0  0  0  0  0
   36.9840   23.5280   35.3850 H   0  0  0  0  0  0  0  0  0  0  0  0
   38.3310   24.3390   34.5050 H   0  0  0  0  0  0  0  0  0  0  0  0
   39.6000   23.6320   36.1940 H   0  0  0  0  0  0  0  0  0  0  0  0
   39.6380   24.7840   38.1940 H   0  0  0  0  0  0  0  0  0  0  0  0
   39.1780   25.8980   36.9150 H   0  0  0  0  0  0  0  0  0  0  0  0
   37.6520   26.1350   38.8800 H   0  0  0  0  0  0  0  0  0  0  0  0
   36.7540   24.2740   40.0900 C   0  0  0  0  0  3  0  0  0  0  0  0
   37.0780   25.4030   40.7130 C   0  0  0  0  0  3  0  0  0  0  0  0
   37.1230   25.6090   42.1800 C   0  0  0  0  0  0  0  0  0  0  0  0
   37.8590   24.9390   42.6630 H   0  0  0  0  0  0  0  0  0  0  0  0
   36.1020   25.4530   42.5780 H   0  0  0  0  0  0  0  0  0  0  0  0
   37.4900   27.0600   42.4660 C   0  0  2  0  0  0  0  0  0  0  0  0
   36.6280   27.7910   43.4690 C   0  0  0  0  0  0  0  0  0  0  0  0
   36.6030   28.1390   42.0060 C   0  0  1  0  0  0  0  0  0  0  0  0
   38.5700   27.1990   42.6560 H   0  0  0  0  0  0  0  0  0  0  0  0
   35.7500   27.2600   43.8690 H   0  0  0  0  0  0  0  0  0  0  0  0
   37.0800   28.5010   44.1700 H   0  0  0  0  0  0  0  0  0  0  0  0
   35.6770   27.8720   41.4530 H   0  0  0  0  0  0  0  0  0  0  0  0
   36.8670   30.6280   41.2030 C   0  0  0  0  0  0  0  0  0  0  0  0
   37.2750   29.3390   41.4710 C   0  0  0  0  0  0  0  0  0  0  0  0
   38.6100   29.0160   41.1920 C   0  0  0  0  0  0  0  0  0  0  0  0
   39.1300   28.0530   41.3320 H   0  0  0  0  0  0  0  0  0  0  0  0
   39.5030   29.9570   40.6640 C   0  0  0  0  0  3  0  0  0  0  0  0
   39.0450   31.2540   40.4070 C   0  0  0  0  0  3  0  0  0  0  0  0
   37.7280   31.5440   40.6900 C   0  0  0  0  0  0  0  0  0  0  0  0
   35.5310   30.8120   41.5230 O   0  0  0  0  0  0  0  0  0  0  0  0
   35.1660   30.7380   42.4650 H   0  0  0  0  0  0  0  0  0  0  0  0
   37.1620   32.8040   40.4760 O   0  0  0  0  0  0  0  0  0  0  0  0
   36.7520   33.0670   39.6070 H   0  0  0  0  0  0  0  0  0  0  0  0
  1 27  1  0  0  0  0
  2  1  1  0  0  0  0
  3  1  1  0  0  0  0
  4 16  1  0  0  0  0
  5 17  1  0  0  0  0
  5  4  2  0  0  0  0
  6  5  1  0  0  0  0
  7  6  2  0  0  0  0
  7  8  1  0  0  0  0
  8  9  2  0  0  0  0
  9  4  1  0  0  0  0
 10  8  1  0  0  0  0
 10 15  1  0  0  0  0
 11 10  1  0  0  0  0
 12 11  1  0  0  0  0
 12 13  1  0  0  0  0
 13 14  1  0  0  0  0
 14 15  1  0  0  0  0
 14 24  1  0  0  0  0
 15  1  1  0  0  0  0
 15 26  1  1  0  0  0
 18  6  1  0  0  0  0
 19 11  1  0  0  0  0
 20 11  1  0  0  0  0
 21 12  1  0  0  0  0
 22 12  1  0  0  0  0
 23 13  1  0  0  0  0
 25 14  1  0  0  0  0
 27 28  2  0  0  0  0
 28 29  1  0  0  0  0
 29 32  1  0  0  0  0
 29 31  1  0  0  0  0
 29 30  1  0  0  0  0
 32 35  1  1  0  0  0
 32 33  1  0  0  0  0
 33 36  1  0  0  0  0
 33 37  1  0  0  0  0
 34 38  1  6  0  0  0
 34 32  1  0  0  0  0
 34 33  1  0  0  0  0
 39 40  1  0  0  0  0
 39 46  1  0  0  0  0
 40 34  1  0  0  0  0
 41 42  1  0  0  0  0
 41 40  2  0  0  0  0
 43 41  1  0  0  0  0
 44 43  2  0  0  0  0
 44 45  1  0  0  0  0
 45 39  2  0  0  0  0
 46 47  1  0  0  0  0
 48 45  1  0  0  0  0
 49 48  1  0  0  0  0
M  END
>  <minimizedAffinity>
-6.03131437

$$$$
