
     RDKit          3D

 48 51  0  0  0  0  0  0  0  0999 V2000
   45.0016   34.9025   44.9045 C   0  0  0  0  0  0  0  0  0  0  0  0
   45.9050   34.7338   43.8610 C   0  0  0  0  0  0  0  0  0  0  0  0
   46.7925   33.6663   43.9808 C   0  0  0  0  0  0  0  0  0  0  0  0
   46.7762   32.8357   45.0509 N   0  0  0  0  0  0  0  0  0  0  0  0
   45.8742   33.0430   46.0432 C   0  0  0  0  0  0  0  0  0  0  0  0
   44.9920   34.0700   45.9725 N   0  0  0  0  0  0  0  0  0  0  0  0
   47.3249   31.8351   47.6594 C   0  0  2  0  0  0  0  0  0  0  0  0
   45.8733   32.1319   47.1778 C   0  0  1  0  0  0  0  0  0  0  0  0
   45.3661   32.6158   48.3353 O   0  0  0  0  0  0  0  0  0  0  0  0
   45.7478   31.7815   49.3460 C   0  0  0  0  0  0  0  0  0  0  0  0
   46.9536   30.9898   48.8822 C   0  0  2  0  0  0  0  0  0  0  0  0
   47.9062   32.9640   48.1013 O   0  0  0  0  0  0  0  0  0  0  0  0
   47.9554   30.9142   49.8082 O   0  0  0  0  0  0  0  0  0  0  0  0
   45.9385   35.5937   42.6993 C   0  0  0  0  0  0  0  0  0  0  0  0
   44.9261   35.1669   41.7130 C   0  0  0  0  0  0  0  0  0  0  0  0
   43.6592   35.6778   41.5904 C   0  0  0  0  0  0  0  0  0  0  0  0
   42.7749   35.2342   40.6410 C   0  0  0  0  0  0  0  0  0  0  0  0
   43.1885   34.2272   39.7755 C   0  0  0  0  0  0  0  0  0  0  0  0
   44.4798   33.6969   39.8902 C   0  0  0  0  0  0  0  0  0  0  0  0
   45.3573   34.1720   40.8684 C   0  0  0  0  0  0  0  0  0  0  0  0
   44.3324   35.7410   44.7734 H   0  0  0  0  0  0  0  0  0  0  0  0
   47.5709   33.4176   43.2896 H   0  0  0  0  0  0  0  0  0  0  0  0
   47.8562   31.2460   46.8973 H   0  0  0  0  0  0  0  0  0  0  0  0
   45.4208   31.1513   46.9167 H   0  0  0  0  0  0  0  0  0  0  0  0
   44.9157   31.1551   49.6972 H   0  0  0  0  0  0  0  0  0  0  0  0
   46.0286   32.4398   50.2185 H   0  0  0  0  0  0  0  0  0  0  0  0
   46.6043   29.9930   48.6114 H   0  0  0  0  0  0  0  0  0  0  0  0
   48.8610   32.9626   47.8614 H   0  0  0  0  0  0  0  0  0  0  0  0
   48.7440   31.4348   49.5273 H   0  0  0  0  0  0  0  0  0  0  0  0
   45.8004   36.6399   42.9699 H   0  0  0  0  0  0  0  0  0  0  0  0
   46.9797   35.5180   42.2589 H   0  0  0  0  0  0  0  0  0  0  0  0
   43.4705   36.4561   42.3300 H   0  0  0  0  0  0  0  0  0  0  0  0
   41.8333   35.7306   40.6749 H   0  0  0  0  0  0  0  0  0  0  0  0
   42.3807   33.9800   39.0797 H   0  0  0  0  0  0  0  0  0  0  0  0
   44.5365   32.9425   39.1073 H   0  0  0  0  0  0  0  0  0  0  0  0
   47.6690   35.6067   40.5935 O   0  0  0  0  0  0  0  0  0  0  0  0
   47.6475   34.2032   40.4943 C   0  0  0  0  0  0  0  0  0  0  0  0
   46.5385   33.3594   40.6372 C   0  0  0  0  0  0  0  0  0  0  0  0
   46.7255   32.0047   40.5031 C   0  0  0  0  0  0  0  0  0  0  0  0
   45.7823   31.4818   40.6388 H   0  0  0  0  0  0  0  0  0  0  0  0
   47.9760   31.4948   40.2348 C   0  0  0  0  0  0  0  0  0  0  0  0
   49.0649   32.3289   40.0951 C   0  0  0  0  0  0  0  0  0  0  0  0
   48.9188   33.6937   40.2223 C   0  0  0  0  0  0  0  0  0  0  0  0
   50.0604   34.4650   40.0682 O   0  0  0  0  0  0  0  0  0  0  0  0
   47.6210   36.1985   39.7766 H   0  0  0  0  0  0  0  0  0  0  0  0
   48.0116   30.4191   40.1492 H   0  0  0  0  0  0  0  0  0  0  0  0
   50.0390   31.8781   39.8821 H   0  0  0  0  0  0  0  0  0  0  0  0
   50.0480   35.4480   40.3608 H   0  0  0  0  0  0  0  0  0  0  0  0
  1  6  2  0
  2  3  2  0
  2  1  1  0
  3  4  1  0
  4  5  2  0
  5  8  1  0
  6  5  1  0
  7 12  1  0
  7 11  1  0
  8  7  1  0
  8  9  1  0
  9 10  1  0
 11 10  1  0
 11 13  1  0
 14  2  1  0
 15 14  1  0
 16 15  2  0
 17 16  1  0
 18 19  1  0
 18 17  2  0
 19 20  2  0
 20 15  1  0
  1 21  1  0
  3 22  1  0
  7 23  1  6
  8 24  1  6
 10 25  1  0
 10 26  1  0
 11 27  1  6
 12 28  1  0
 13 29  1  0
 14 30  1  0
 14 31  1  0
 16 32  1  0
 17 33  1  0
 18 34  1  0
 19 35  1  0
 36 37  1  0
 37 38  2  0
 38 39  1  0
 39 40  1  0
 39 41  2  0
 41 42  1  0
 42 43  2  0
 43 44  1  0
 43 37  1  0
 36 45  1  0
 41 46  1  0
 42 47  1  0
 44 48  1  0
 20 38  1  0
M  ISO  8  21  14  22  14  23  13  24  13  25  13  26  13  27  13  28   3
M  ISO  8  29   3  30   8  31   8  32  14  33  14  34  14  35  14  40  16
M  END
>  <DihAtoms>  (1) 
18,19,37,36

>  <DihDeg>  (1) 
97.47194904595675

$$$$
