
     RDKit          3D

 25 26  0  0  0  0  0  0  0  0999 V2000
   45.4370   35.0671   43.9978 C   0  0  0  0  0  0  0  0  0  0  0  0
   46.4924   34.2944   43.5202 C   0  0  0  0  0  0  0  0  0  0  0  0
   47.0164   33.2893   44.3366 C   0  0  0  0  0  0  0  0  0  0  0  0
   46.4582   33.1291   45.5540 N   0  0  0  0  0  0  0  0  0  0  0  0
   45.4353   33.8933   45.9911 C   0  0  0  0  0  0  0  0  0  0  0  0
   44.9250   34.8663   45.2059 N   0  0  0  0  0  0  0  0  0  0  0  0
   44.9007   36.1335   43.0984 C   0  0  0  0  0  0  0  0  0  0  0  0
   46.8708   34.4895   42.5481 H   0  0  0  0  0  0  0  0  0  0  0  0
   45.0222   33.7195   46.9857 H   0  0  0  0  0  0  0  0  0  0  0  0
   45.3820   37.0872   43.4597 H   0  0  0  0  0  0  0  0  0  0  0  0
   45.1991   35.9550   42.0458 H   0  0  0  0  0  0  0  0  0  0  0  0
   43.8142   36.2676   43.1819 H   0  0  0  0  0  0  0  0  0  0  0  0
   47.2627   30.6252   45.2693 O   0  0  0  0  0  0  0  0  0  0  0  0
   48.2014   31.1653   44.3697 C   0  0  0  0  0  0  0  0  0  0  0  0
   48.1054   32.4587   43.8999 C   0  0  0  0  0  0  0  0  0  0  0  0
   49.1059   32.8285   43.0268 C   0  0  0  0  0  0  0  0  0  0  0  0
   49.0827   33.8314   42.6257 H   0  0  0  0  0  0  0  0  0  0  0  0
   50.1343   31.9767   42.6426 C   0  0  0  0  0  0  0  0  0  0  0  0
   50.2018   30.6898   43.1302 C   0  0  0  0  0  0  0  0  0  0  0  0
   49.2110   30.2961   44.0061 C   0  0  0  0  0  0  0  0  0  0  0  0
   49.2811   28.9854   44.5018 O   0  0  0  0  0  0  0  0  0  0  0  0
   46.3383   30.4688   44.8563 H   0  0  0  0  0  0  0  0  0  0  0  0
   50.8940   32.3224   41.9525 H   0  0  0  0  0  0  0  0  0  0  0  0
   50.9703   30.0089   42.8614 H   0  0  0  0  0  0  0  0  0  0  0  0
   48.7836   28.2360   44.0250 H   0  0  0  0  0  0  0  0  0  0  0  0
  1  6  2  0
  2  1  1  0
  2  3  2  0
  3  4  1  0
  4  5  2  0
  6  5  1  0
  7  1  1  0
  2  8  1  0
  5  9  1  0
  7 10  1  0
  7 11  1  0
  7 12  1  0
 13 14  1  0
 14 15  2  0
 15 16  1  0
 16 17  1  0
 16 18  2  0
 18 19  1  0
 19 20  2  0
 20 21  1  0
 20 14  1  0
 13 22  1  0
 18 23  1  0
 19 24  1  0
 21 25  1  0
  3 15  1  0
M  ISO  6   8  14   9  14  10   8  11   8  12   8  17  16
M  END
>  <DihAtoms>  (1) 
1,2,14,13

>  <DihDeg>  (1) 
-179.9993164007856

$$$$
