
 OpenBabel03242523003D

 33 35  0  0  0  0  0  0  0  0999 V2000
   45.2620   33.3850   47.0760 C   0  0  0  0  0  0  0  0  0  0  0  0
   45.4750   33.8290   45.7710 C   0  0  0  0  0  0  0  0  0  0  0  0
   46.3890   33.2470   44.9210 C   0  0  0  0  0  0  0  0  0  0  0  0
   47.0690   32.2030   45.4450 N   0  0  0  0  0  0  0  0  0  0  0  0
   46.8830   31.7550   46.7000 C   0  0  0  0  0  0  0  0  0  0  0  0
   45.9830   32.3440   47.5110 N   0  0  0  0  0  0  0  0  0  0  0  0
   44.5260   33.8980   47.6810 H   0  0  0  0  0  0  0  0  0  0  0  0
   44.9000   34.6750   45.3970 H   0  0  0  0  0  0  0  0  0  0  0  0
   44.3680   32.3450   42.9350 Cl  0  0  0  0  0  0  0  0  0  0  0  0
   45.7620   33.3350   42.5850 C   0  0  0  0  0  0  0  0  0  0  0  0
   46.6270   33.6960   43.5530 C   0  0  0  0  0  0  0  0  0  0  0  0
   47.7020   34.4820   43.1750 C   0  0  0  0  0  0  0  0  0  0  0  0
   47.8920   34.8810   41.8930 C   0  0  0  0  0  0  0  0  0  0  0  0
   47.0070   34.5090   40.9150 C   0  0  0  0  0  0  0  0  0  0  0  0
   45.9380   33.7300   41.2770 C   0  0  0  0  0  0  0  0  0  0  0  0
   48.4130   34.7870   43.9330 H   0  0  0  0  0  0  0  0  0  0  0  0
   47.1210   34.8080   39.8660 H   0  0  0  0  0  0  0  0  0  0  0  0
   45.2350   33.4330   40.5070 H   0  0  0  0  0  0  0  0  0  0  0  0
   49.0460   35.7260   41.4830 C   0  0  0  0  0  0  0  0  0  0  0  0
   50.1990   35.0880   41.8590 F   0  0  0  0  0  0  0  0  0  0  0  0
   48.9560   36.9980   42.0280 F   0  0  0  0  0  0  0  0  0  0  0  0
   49.0100   35.8620   40.1020 F   0  0  0  0  0  0  0  0  0  0  0  0
   48.2420   30.7060   48.4610 C   0  0  0  0  0  0  0  0  0  0  0  0
   47.6560   30.6180   47.2050 C   0  0  0  0  0  0  0  0  0  0  0  0
   47.8030   29.4740   46.4460 C   0  0  0  0  0  0  0  0  0  0  0  0
   47.3490   29.3920   45.4600 H   0  0  0  0  0  0  0  0  0  0  0  0
   48.5340   28.3690   46.8920 C   0  0  0  0  0  0  0  0  0  0  0  0
   49.0850   28.5310   48.1470 C   0  0  0  0  0  0  0  0  0  0  0  0
   48.9810   29.6370   48.9580 C   0  0  0  0  0  0  0  0  0  0  0  0
   48.0900   31.8580   49.2150 O   0  0  0  0  0  0  0  0  0  0  0  0
   48.7730   32.6100   49.2280 H   0  0  0  0  0  0  0  0  0  0  0  0
   49.5870   29.6760   50.2080 O   0  0  0  0  0  0  0  0  0  0  0  0
   49.1900   30.2620   50.9560 H   0  0  0  0  0  0  0  0  0  0  0  0
  1  6  1  0  0  0  0
  1  7  1  0  0  0  0
  2  1  2  0  0  0  0
  3  4  2  0  0  0  0
  3  2  1  0  0  0  0
  4  5  1  0  0  0  0
  5 24  1  0  0  0  0
  5  6  2  0  0  0  0
  8  2  1  0  0  0  0
 10  9  1  0  0  0  0
 10 11  1  0  0  0  0
 11  3  1  0  0  0  0
 12 11  2  0  0  0  0
 12 16  1  0  0  0  0
 13 12  1  0  0  0  0
 14 15  1  0  0  0  0
 14 13  2  0  0  0  0
 15 10  2  0  0  0  0
 17 14  1  0  0  0  0
 18 15  1  0  0  0  0
 19 20  1  0  0  0  0
 19 13  1  0  0  0  0
 19 21  1  0  0  0  0
 22 19  1  0  0  0  0
 23 29  1  0  0  0  0
 23 30  1  0  0  0  0
 24 23  2  0  0  0  0
 25 27  2  0  0  0  0
 25 24  1  0  0  0  0
 26 25  1  0  0  0  0
 27 28  1  0  0  0  0
 28 29  2  0  0  0  0
 29 32  1  0  0  0  0
 30 31  1  0  0  0  0
 32 33  1  0  0  0  0
M  END
>  <minimizedAffinity>
-6.56273603

>  <minimizedRMSD>
0.910636306

$$$$
