REMARK  Name = 
REMARK  8 active torsions:
REMARK  status: ('A' for Active; 'I' for Inactive)
REMARK    1  A    between atoms: C_1  and  C_7
REMARK    2  A    between atoms: C_2  and  C_15
REMARK    3  A    between atoms: C_5  and  C_9
REMARK    4  A    between atoms: C_15  and  C_16
REMARK    5  A    between atoms: C_18  and  C_19
REMARK    6  A    between atoms: C_21  and  C_43
REMARK    7  A    between atoms: O_41  and  C_42
REMARK    8  A    between atoms: C_48  and  O_49
REMARK                            x       y       z     vdW  Elec       q    Type
REMARK                         _______ _______ _______ _____ _____    ______ ____
ROOT
ATOM      1  C   UNL     1      45.895  31.491  48.252  0.00  0.00    +0.000 C 
ATOM      2  C   UNL     1      45.707  30.505  49.353  0.00  0.00    +0.000 C 
ATOM      3  C   UNL     1      46.917  31.320  49.300  0.00  0.00    +0.000 C 
ATOM      4  H   UNL     1      45.070  32.261  48.307  0.00  0.00    +0.000 HD
ATOM      5  H   UNL     1      44.988  30.668  50.182  0.00  0.00    +0.000 HD
ATOM      6  H   UNL     1      45.777  29.415  49.111  0.00  0.00    +0.000 HD
ATOM      7  H   UNL     1      46.987  32.142  50.043  0.00  0.00    +0.000 HD
ENDROOT
BRANCH   3   8
ATOM      8  C   UNL     1      48.245  30.758  48.904  0.00  0.00    +0.000 C 
ATOM      9  C   UNL     1      49.180  30.462  50.104  0.00  0.00    +0.000 C 
ATOM     10  C   UNL     1      49.485  31.591  49.213  0.00  0.00    +0.000 C 
ATOM     11  H   UNL     1      48.361  29.985  48.136  0.00  0.00    +0.000 HD
ATOM     12  H   UNL     1      48.787  30.717  51.129  0.00  0.00    +0.000 HD
ATOM     13  H   UNL     1      49.750  29.536  50.133  0.00  0.00    +0.000 HD
ATOM     14  H   UNL     1      49.267  32.611  49.593  0.00  0.00    +0.000 HD
BRANCH  10  16
ATOM     15  C   UNL     1      51.326  32.586  47.808  0.00  0.00    +0.000 A 
ATOM     16  C   UNL     1      50.640  31.476  48.262  0.00  0.00    +0.000 A 
ATOM     17  C   UNL     1      51.047  30.235  47.816  0.00  0.00    +0.000 A 
ATOM     18  H   UNL     1      50.572  29.320  48.117  0.00  0.00    +0.000 HD
ATOM     19  C   UNL     1      52.112  30.063  46.934  0.00  0.00    +0.000 A 
ATOM     20  C   UNL     1      52.785  31.193  46.491  0.00  0.00    +0.000 A 
ATOM     21  C   UNL     1      52.388  32.459  46.932  0.00  0.00    +0.000 A 
BRANCH  15  22
ATOM     22  O   UNL     1      50.905  33.842  48.267  0.00  0.00    +0.000 OA
ATOM     23  H   UNL     1      51.130  34.054  49.248  0.00  0.00    +0.000 HD
ENDBRANCH  15  22
BRANCH  21  24
ATOM     24  O   UNL     1      53.078  33.593  46.476  0.00  0.00    +0.000 OA
ATOM     25  H   UNL     1      53.954  33.770  46.990  0.00  0.00    +0.000 HD
ENDBRANCH  21  24
ENDBRANCH  10  16
ENDBRANCH   3   8
BRANCH   1  26
ATOM     26  C   UNL     1      46.091  30.900  46.906  0.00  0.00    +0.000 C 
ATOM     27  H   UNL     1      45.205  30.220  46.731  0.00  0.00    +0.000 HD
ATOM     28  H   UNL     1      46.962  30.309  46.710  0.00  0.00    +0.000 HD
BRANCH  26  30
ATOM     29  C   UNL     1      45.764  33.136  46.233  0.00  0.00    +0.000 C 
ATOM     30  C   UNL     1      45.929  31.948  45.829  0.00  0.00    +0.000 C 
BRANCH  29  35
ATOM     31  C   UNL     1      44.537  36.144  44.492  0.00  0.00    +0.000 A 
ATOM     32  C   UNL     1      45.212  36.097  43.276  0.00  0.00    +0.000 A 
ATOM     33  C   UNL     1      46.051  35.051  43.095  0.00  0.00    +0.000 A 
ATOM     34  N   UNL     1      46.204  34.112  44.072  0.00  0.00    +0.000 NA
ATOM     35  C   UNL     1      45.539  34.184  45.237  0.00  0.00    +0.000 A 
ATOM     36  N   UNL     1      44.716  35.207  45.417  0.00  0.00    +0.000 NA
ATOM     37  H   UNL     1      43.858  36.982  44.650  0.00  0.00    +0.000 HD
ATOM     38  H   UNL     1      45.083  36.844  42.512  0.00  0.00    +0.000 HD
BRANCH  33  39
ATOM     39  C   UNL     1      46.823  34.865  41.871  0.00  0.00    +0.000 A 
ATOM     40  C   UNL     1      48.050  35.410  41.628  0.00  0.00    +0.000 A 
ATOM     41  C   UNL     1      48.764  35.222  40.461  0.00  0.00    +0.000 A 
ATOM     42  C   UNL     1      48.237  34.438  39.455  0.00  0.00    +0.000 A 
ATOM     43  C   UNL     1      47.009  33.861  39.636  0.00  0.00    +0.000 A 
ATOM     44  C   UNL     1      46.342  34.087  40.825  0.00  0.00    +0.000 A 
ATOM     45  H   UNL     1      48.499  36.038  42.402  0.00  0.00    +0.000 HD
ATOM     46  H   UNL     1      49.732  35.675  40.316  0.00  0.00    +0.000 HD
ATOM     47  H   UNL     1      48.730  34.240  38.511  0.00  0.00    +0.000 HD
ATOM     48  H   UNL     1      46.573  33.247  38.873  0.00  0.00    +0.000 HD
ATOM     49  H   UNL     1      45.360  33.599  40.918  0.00  0.00    +0.000 HD
ENDBRANCH  33  39
ENDBRANCH  29  35
ENDBRANCH  26  30
ENDBRANCH   1  26
TORSDOF 8
