
     RDKit          3D

 48 51  0  0  0  0  0  0  0  0999 V2000
   44.5646   35.5834   44.6081 C   0  0  0  0  0  0  0  0  0  0  0  0
   45.2254   35.5913   43.3612 C   0  0  0  0  0  0  0  0  0  0  0  0
   46.3226   34.6801   43.1794 C   0  0  0  0  0  0  0  0  0  0  0  0
   46.6603   33.8716   44.2032 N   0  0  0  0  0  0  0  0  0  0  0  0
   46.0106   33.8932   45.3696 C   0  0  0  0  0  0  0  0  0  0  0  0
   44.9536   34.7483   45.5901 N   0  0  0  0  0  0  0  0  0  0  0  0
   46.4295   32.9826   46.4681 C   0  0  2  0  0  0  0  0  0  0  0  0
   46.9692   31.7538   45.7680 C   0  0  0  0  0  0  0  0  0  0  0  0
   46.1023   30.5658   45.7778 C   0  0  0  0  0  0  0  0  0  0  0  0
   45.8176   30.3002   47.2570 C   0  0  0  0  0  0  0  0  0  0  0  0
   45.0211   31.3581   47.8696 C   0  0  0  0  0  0  0  0  0  0  0  0
   45.3862   32.7296   47.4189 C   0  0  0  0  0  0  0  0  0  0  0  0
   44.6900   33.8655   47.9308 N   0  0  0  0  0  0  0  0  0  0  0  0
   47.0181   34.6648   41.9073 C   0  0  0  0  0  0  0  0  0  0  0  0
   48.1564   35.3772   41.7761 C   0  0  0  0  0  0  0  0  0  0  0  0
   48.7785   35.3358   40.5217 C   0  0  0  0  0  0  0  0  0  0  0  0
   48.1673   34.5718   39.5435 C   0  0  0  0  0  0  0  0  0  0  0  0
   47.0064   33.8465   39.6810 C   0  0  0  0  0  0  0  0  0  0  0  0
   46.4495   33.9255   40.9212 N   0  0  0  0  0  0  0  0  0  0  0  0
   46.4630   33.1190   38.6634 O   0  0  0  0  0  0  0  0  0  0  0  0
   43.7344   36.2521   44.7880 H   0  0  0  0  0  0  0  0  0  0  0  0
   44.9092   36.2553   42.5933 H   0  0  0  0  0  0  0  0  0  0  0  0
   47.2762   33.5199   46.9694 H   0  0  0  0  0  0  0  0  0  0  0  0
   47.9201   31.4834   46.2760 H   0  0  0  0  0  0  0  0  0  0  0  0
   47.2696   31.9524   44.7129 H   0  0  0  0  0  0  0  0  0  0  0  0
   45.1669   30.7233   45.2278 H   0  0  0  0  0  0  0  0  0  0  0  0
   46.6719   29.7069   45.4291 H   0  0  0  0  0  0  0  0  0  0  0  0
   46.7591   30.0766   47.7570 H   0  0  0  0  0  0  0  0  0  0  0  0
   45.1725   29.3979   47.2508 H   0  0  0  0  0  0  0  0  0  0  0  0
   44.2143   31.3384   48.5888 H   0  0  0  0  0  0  0  0  0  0  0  0
   45.3104   34.3178   48.6163 H   0  0  0  0  0  0  0  0  0  0  0  0
   43.7281   34.0431   47.5533 H   0  0  0  0  0  0  0  0  0  0  0  0
   48.5855   35.9562   42.5791 H   0  0  0  0  0  0  0  0  0  0  0  0
   49.6928   35.8899   40.3670 H   0  0  0  0  0  0  0  0  0  0  0  0
   48.7103   34.5964   38.6077 H   0  0  0  0  0  0  0  0  0  0  0  0
   45.8102   34.7538   36.4405 O   0  0  0  0  0  0  0  0  0  0  0  0
   46.6480   33.6565   36.2749 C   0  0  0  0  0  0  0  0  0  0  0  0
   46.8958   32.9418   37.4038 C   0  0  0  0  0  0  0  0  0  0  0  0
   47.7390   31.8317   37.2582 C   0  0  0  0  0  0  0  0  0  0  0  0
   48.0246   31.1647   38.0866 H   0  0  0  0  0  0  0  0  0  0  0  0
   48.2963   31.4675   36.0472 C   0  0  0  0  0  0  0  0  0  0  0  0
   48.0030   32.2388   34.9355 C   0  0  0  0  0  0  0  0  0  0  0  0
   47.1777   33.3382   35.0395 C   0  0  0  0  0  0  0  0  0  0  0  0
   46.8481   34.1469   33.9657 O   0  0  0  0  0  0  0  0  0  0  0  0
   45.2297   34.9976   35.6464 H   0  0  0  0  0  0  0  0  0  0  0  0
   48.9442   30.6133   35.9389 H   0  0  0  0  0  0  0  0  0  0  0  0
   48.3872   32.0413   33.9383 H   0  0  0  0  0  0  0  0  0  0  0  0
   45.8819   34.0990   33.6368 H   0  0  0  0  0  0  0  0  0  0  0  0
  1  6  2  0
  2  1  1  0
  3  2  2  0
  3  4  1  0
  4  5  2  0
  5  6  1  0
  5  7  1  0
  7 12  1  0
  8  9  1  0
  8  7  1  0
  9 10  1  0
 10 11  1  0
 12 11  2  0
 12 13  1  0
 14  3  1  0
 15 14  2  0
 16 15  1  0
 17 18  1  0
 17 16  2  0
 18 19  2  0
 19 14  1  0
 20 18  1  0
  1 21  1  0
  2 22  1  0
  7 23  1  1
  8 24  1  0
  8 25  1  0
  9 26  1  0
  9 27  1  0
 10 28  1  0
 10 29  1  0
 11 30  1  0
 13 31  1  0
 13 32  1  0
 15 33  1  0
 16 34  1  0
 17 35  1  0
 36 37  1  0
 37 38  2  0
 38 39  1  0
 39 40  1  0
 39 41  2  0
 41 42  1  0
 42 43  2  0
 43 44  1  0
 43 37  1  0
 36 45  1  0
 41 46  1  0
 42 47  1  0
 44 48  1  0
 20 38  1  0
M  ISO  8  21  14  22  14  23  13  24  13  25  13  26  13  27  13  28  13
M  ISO  6  29  13  30  13  33  14  34  14  35  14  40  16
M  END
>  <DihAtoms>  (1) 
17,19,37,36

>  <DihDeg>  (1) 
60.53637702115144

$$$$
