
 OpenBabel03242511583D

 43 46  0  0  1  0  0  0  0  0999 V2000
   47.1140   34.0630   42.4720 C   0  0  2  0  0  0  0  0  0  0  0  0
   48.5130   34.5360   42.6530 C   0  0  0  0  0  0  0  0  0  0  0  0
   48.9260   35.5610   41.6610 C   0  0  0  0  0  0  0  0  0  0  0  0
   48.7360   35.0810   40.2410 C   0  0  0  0  0  0  0  0  0  0  0  0
   47.4270   34.3760   40.0130 C   0  0  0  0  0  0  0  0  0  0  0  0
   46.4850   34.4800   41.1780 C   0  0  1  0  0  0  0  0  0  0  0  0
   47.1060   32.9310   42.4990 H   0  0  0  0  0  0  0  0  0  0  0  0
   48.6640   34.9380   43.6690 H   0  0  0  0  0  0  0  0  0  0  0  0
   49.2080   33.6790   42.5480 H   0  0  0  0  0  0  0  0  0  0  0  0
   49.9640   35.8530   41.8000 H   0  0  0  0  0  0  0  0  0  0  0  0
   48.3220   36.4990   41.7390 H   0  0  0  0  0  0  0  0  0  0  0  0
   48.9230   35.9240   39.5460 H   0  0  0  0  0  0  0  0  0  0  0  0
   49.5350   34.3250   40.0450 H   0  0  0  0  0  0  0  0  0  0  0  0
   47.5480   33.3320   39.6550 H   0  0  0  0  0  0  0  0  0  0  0  0
   46.9330   34.9080   39.1540 H   0  0  0  0  0  0  0  0  0  0  0  0
   46.0690   35.5000   41.1530 H   0  0  0  0  0  0  0  0  0  0  0  0
   46.2300   34.4670   43.5850 C   0  0  0  0  0  0  0  0  0  0  0  0
   45.5270   35.6540   43.3680 C   0  0  0  0  0  0  0  0  0  0  0  0
   44.6510   36.1430   44.3470 C   0  0  0  0  0  0  0  0  0  0  0  0
   44.5530   35.3760   45.5010 N   0  0  0  0  0  0  0  0  0  0  0  0
   45.2510   34.2340   45.6760 C   0  0  0  0  0  0  0  0  0  0  0  0
   46.0860   33.7890   44.7110 N   0  0  0  0  0  0  0  0  0  0  0  0
   45.4930   36.3630   42.5570 H   0  0  0  0  0  0  0  0  0  0  0  0
   44.0500   37.0130   44.3440 H   0  0  0  0  0  0  0  0  0  0  0  0
   45.1000   33.7200   46.6050 H   0  0  0  0  0  0  0  0  0  0  0  0
   45.3250   33.5530   40.9090 C   0  0  2  0  0  0  0  0  0  0  0  0
   45.0400   33.1730   39.4700 C   0  0  0  0  0  0  0  0  0  0  0  0
   44.0940   34.0040   40.2520 C   0  0  1  0  0  0  0  0  0  0  0  0
   45.2070   32.7410   41.6450 H   0  0  0  0  0  0  0  0  0  0  0  0
   44.8400   32.1090   39.2740 H   0  0  0  0  0  0  0  0  0  0  0  0
   45.7400   33.6190   38.7450 H   0  0  0  0  0  0  0  0  0  0  0  0
   44.0420   35.0700   39.8820 H   0  0  0  0  0  0  0  0  0  0  0  0
   41.7880   33.7800   41.3680 C   0  0  0  0  0  0  0  0  0  0  0  0
   42.7690   33.4310   40.4640 C   0  0  0  0  0  0  0  0  0  0  0  0
   42.3970   32.3800   39.6440 C   0  0  0  0  0  0  0  0  0  0  0  0
   43.0220   31.9730   38.8870 H   0  0  0  0  0  0  0  0  0  0  0  0
   41.1740   31.7480   39.7200 C   0  0  0  0  0  0  0  0  0  0  0  0
   40.2360   32.1530   40.6540 C   0  0  0  0  0  0  0  0  0  0  0  0
   40.5660   33.1870   41.4820 C   0  0  0  0  0  0  0  0  0  0  0  0
   42.0930   34.8260   42.2250 O   0  0  0  0  0  0  0  0  0  0  0  0
   42.9000   34.7800   42.8330 H   0  0  0  0  0  0  0  0  0  0  0  0
   39.6650   33.6510   42.4530 O   0  0  0  0  0  0  0  0  0  0  0  0
   40.0740   33.9710   43.3180 H   0  0  0  0  0  0  0  0  0  0  0  0
  1  7  1  1  0  0  0
  1  2  1  0  0  0  0
  1 17  1  0  0  0  0
  2  8  1  0  0  0  0
  3 11  1  0  0  0  0
  3 10  1  0  0  0  0
  3  2  1  0  0  0  0
  4  3  1  0  0  0  0
  5  4  1  0  0  0  0
  5  6  1  0  0  0  0
  6 16  1  1  0  0  0
  6  1  1  0  0  0  0
  9  2  1  0  0  0  0
 12  4  1  0  0  0  0
 13  4  1  0  0  0  0
 14  5  1  0  0  0  0
 15  5  1  0  0  0  0
 17 22  1  0  0  0  0
 18 17  2  0  0  0  0
 18 19  1  0  0  0  0
 19 20  2  0  0  0  0
 20 21  1  0  0  0  0
 21 25  1  0  0  0  0
 22 21  2  0  0  0  0
 23 18  1  0  0  0  0
 24 19  1  0  0  0  0
 26  6  1  0  0  0  0
 26 29  1  1  0  0  0
 27 28  1  0  0  0  0
 27 26  1  0  0  0  0
 28 32  1  6  0  0  0
 28 34  1  0  0  0  0
 28 26  1  0  0  0  0
 30 27  1  0  0  0  0
 31 27  1  0  0  0  0
 33 39  1  0  0  0  0
 33 40  1  0  0  0  0
 34 33  2  0  0  0  0
 35 37  2  0  0  0  0
 35 34  1  0  0  0  0
 36 35  1  0  0  0  0
 37 38  1  0  0  0  0
 38 39  2  0  0  0  0
 39 42  1  0  0  0  0
 40 41  1  0  0  0  0
 42 43  1  0  0  0  0
M  END
>  <minimizedAffinity>
-7.07997036

>  <minimizedRMSD>
2.1573348

$$$$
