
 OpenBabel03252501553D

 23 24  0  0  0  0  0  0  0  0999 V2000
   44.5820   35.5180   45.0460 C   0  0  0  0  0  0  0  0  0  0  0  0
   45.2290   35.4120   43.8060 C   0  0  0  0  0  0  0  0  0  0  0  0
   46.1330   34.3770   43.6390 C   0  0  0  0  0  0  0  0  0  0  0  0
   46.3380   33.5540   44.6580 N   0  0  0  0  0  0  0  0  0  0  0  0
   45.7230   33.6510   45.8440 C   0  0  0  0  0  0  0  0  0  0  0  0
   44.8270   34.6430   46.0640 N   0  0  0  0  0  0  0  0  0  0  0  0
   43.8630   36.2980   45.2330 H   0  0  0  0  0  0  0  0  0  0  0  0
   45.9710   32.9170   46.6150 H   0  0  0  0  0  0  0  0  0  0  0  0
   46.3930   33.7800   41.1690 C   0  0  0  0  0  0  0  0  0  0  0  0
   46.7540   34.3700   42.3410 C   0  0  0  0  0  0  0  0  0  0  0  0
   47.9200   35.1570   42.3170 C   0  0  0  0  0  0  0  0  0  0  0  0
   48.3510   35.6790   43.1660 H   0  0  0  0  0  0  0  0  0  0  0  0
   48.6680   35.3340   41.1830 C   0  0  0  0  0  3  0  0  0  0  0  0
   48.2380   34.7000   40.0140 C   0  0  0  0  0  3  0  0  0  0  0  0
   47.1100   33.9170   39.9700 C   0  0  0  0  0  0  0  0  0  0  0  0
   45.2210   33.0190   41.2900 O   0  0  0  0  0  0  0  0  0  0  0  0
   45.0820   32.3740   42.0750 H   0  0  0  0  0  0  0  0  0  0  0  0
   46.5770   33.2380   38.8900 O   0  0  0  0  0  0  0  0  0  0  0  0
   46.8330   32.2700   38.6560 H   0  0  0  0  0  0  0  0  0  0  0  0
   44.8680   36.4820   42.8230 C   0  0  0  0  0  0  0  0  0  0  0  0
   45.4400   37.4040   43.1670 H   0  0  0  0  0  0  0  0  0  0  0  0
   45.1000   36.2610   41.7900 H   0  0  0  0  0  0  0  0  0  0  0  0
   43.8050   36.7560   42.9940 H   0  0  0  0  0  0  0  0  0  0  0  0
  1  7  1  0  0  0  0
  1  6  1  0  0  0  0
  2  1  2  0  0  0  0
  3  2  1  0  0  0  0
  3  4  2  0  0  0  0
  4  5  1  0  0  0  0
  5  6  2  0  0  0  0
  5  8  1  0  0  0  0
  9 16  1  0  0  0  0
  9 10  1  0  0  0  0
 10  3  1  0  0  0  0
 11 10  2  0  0  0  0
 11 12  1  0  0  0  0
 13 11  1  0  0  0  0
 14 13  2  0  0  0  0
 15 14  1  0  0  0  0
 15  9  2  0  0  0  0
 16 17  1  0  0  0  0
 18 15  1  0  0  0  0
 19 18  1  0  0  0  0
 20 23  1  0  0  0  0
 20 21  1  0  0  0  0
 20  2  1  0  0  0  0
 22 20  1  0  0  0  0
M  END
>  <minimizedAffinity>
-5.19933224

>  <minimizedRMSD>
2.19965005

$$$$
