
 OpenBabel03252505133D

 46 49  0  0  1  0  0  0  0  0999 V2000
   36.4580   30.7780   40.6620 C   0  0  0  0  0  0  0  0  0  0  0  0
   37.1220   31.9850   40.3560 C   0  0  0  0  0  0  0  0  0  0  0  0
   38.4440   32.1760   40.8900 C   0  0  0  0  0  0  0  0  0  0  0  0
   38.9750   31.1980   41.6480 N   0  0  0  0  0  0  0  0  0  0  0  0
   38.3150   30.0680   41.9170 C   0  0  0  0  0  0  0  0  0  0  0  0
   37.0480   29.8410   41.4280 N   0  0  0  0  0  0  0  0  0  0  0  0
   35.4630   30.5930   40.2810 H   0  0  0  0  0  0  0  0  0  0  0  0
   36.6460   32.7180   39.7500 H   0  0  0  0  0  0  0  0  0  0  0  0
   38.9470   29.0230   42.7640 C   0  0  2  0  0  0  0  0  0  0  0  0
   39.8460   28.2510   41.8220 C   0  0  0  0  0  0  0  0  0  0  0  0
   39.3670   26.9250   41.4060 C   0  0  0  0  0  0  0  0  0  0  0  0
   39.1270   26.1670   42.7120 C   0  0  0  0  0  0  0  0  0  0  0  0
   38.0350   26.7380   43.4950 C   0  0  0  0  0  0  0  0  0  0  0  0
   37.9950   28.2270   43.4820 C   0  0  0  0  0  0  0  0  0  0  0  0
   39.5830   29.5970   43.4880 H   0  0  0  0  0  0  0  0  0  0  0  0
   40.8180   28.1110   42.3430 H   0  0  0  0  0  0  0  0  0  0  0  0
   40.1090   28.8260   40.9040 H   0  0  0  0  0  0  0  0  0  0  0  0
   38.4450   26.9770   40.8160 H   0  0  0  0  0  0  0  0  0  0  0  0
   40.1750   26.3960   40.9040 H   0  0  0  0  0  0  0  0  0  0  0  0
   40.0750   26.0700   43.2380 H   0  0  0  0  0  0  0  0  0  0  0  0
   38.7750   25.1670   42.3850 H   0  0  0  0  0  0  0  0  0  0  0  0
   37.2470   26.2880   44.0820 H   0  0  0  0  0  0  0  0  0  0  0  0
   36.9800   28.9260   44.2010 N   0  0  0  0  0  0  0  0  0  0  0  0
   37.4180   29.3070   45.0510 H   0  0  0  0  0  0  0  0  0  0  0  0
   36.0210   28.9390   43.7770 H   0  0  0  0  0  0  0  0  0  0  0  0
   39.1500   33.4060   40.5890 C   0  0  0  0  0  0  0  0  0  0  0  0
   38.4400   34.5040   40.2590 C   0  0  0  0  0  0  0  0  0  0  0  0
   39.1740   35.6600   39.9680 C   0  0  0  0  0  0  0  0  0  0  0  0
   40.5520   35.5630   40.0460 C   0  0  0  0  0  0  0  0  0  0  0  0
   41.2740   34.4410   40.3830 C   0  0  0  0  0  0  0  0  0  0  0  0
   40.5050   33.3520   40.6570 N   0  0  0  0  0  0  0  0  0  0  0  0
   37.3610   34.5180   40.2150 H   0  0  0  0  0  0  0  0  0  0  0  0
   38.6500   36.5650   39.6980 H   0  0  0  0  0  0  0  0  0  0  0  0
   41.0420   36.4970   39.8040 H   0  0  0  0  0  0  0  0  0  0  0  0
   42.6370   34.4260   40.4340 O   0  0  0  0  0  0  0  0  0  0  0  0
   43.9190   34.0410   38.3760 C   0  0  0  0  0  0  0  0  0  0  0  0
   43.5210   33.7860   39.6500 C   0  0  0  0  0  0  0  0  0  0  0  0
   44.1150   32.6800   40.2720 C   0  0  0  0  0  0  0  0  0  0  0  0
   43.8870   32.3580   41.3010 H   0  0  0  0  0  0  0  0  0  0  0  0
   45.0520   31.8810   39.6450 C   0  0  0  0  0  3  0  0  0  0  0  0
   45.4140   32.1950   38.3470 C   0  0  0  0  0  3  0  0  0  0  0  0
   44.8520   33.2750   37.7020 C   0  0  0  0  0  0  0  0  0  0  0  0
   43.3190   35.1430   37.7770 O   0  0  0  0  0  0  0  0  0  0  0  0
   43.1910   35.0910   36.7720 H   0  0  0  0  0  0  0  0  0  0  0  0
   45.1720   33.6400   36.4060 O   0  0  0  0  0  0  0  0  0  0  0  0
   44.4480   33.4990   35.6990 H   0  0  0  0  0  0  0  0  0  0  0  0
  1  6  1  0  0  0  0
  2  1  2  0  0  0  0
  2  3  1  0  0  0  0
  3  4  2  0  0  0  0
  4  5  1  0  0  0  0
  5  9  1  0  0  0  0
  6  5  2  0  0  0  0
  7  1  1  0  0  0  0
  8  2  1  0  0  0  0
  9 14  1  0  0  0  0
  9 15  1  1  0  0  0
 10 16  1  0  0  0  0
 10  9  1  0  0  0  0
 11 10  1  0  0  0  0
 11 12  1  0  0  0  0
 12 20  1  0  0  0  0
 12 13  1  0  0  0  0
 13 22  1  0  0  0  0
 14 13  2  0  0  0  0
 14 23  1  0  0  0  0
 17 10  1  0  0  0  0
 18 11  1  0  0  0  0
 19 11  1  0  0  0  0
 21 12  1  0  0  0  0
 23 24  1  0  0  0  0
 25 23  1  0  0  0  0
 26 31  1  0  0  0  0
 26  3  1  0  0  0  0
 27 26  2  0  0  0  0
 28 29  2  0  0  0  0
 28 27  1  0  0  0  0
 29 30  1  0  0  0  0
 30 35  1  0  0  0  0
 30 31  2  0  0  0  0
 32 27  1  0  0  0  0
 33 28  1  0  0  0  0
 34 29  1  0  0  0  0
 36 37  1  0  0  0  0
 37 38  2  0  0  0  0
 37 35  1  0  0  0  0
 38 39  1  0  0  0  0
 40 38  1  0  0  0  0
 41 40  2  0  0  0  0
 42 41  1  0  0  0  0
 42 36  2  0  0  0  0
 43 36  1  0  0  0  0
 44 43  1  0  0  0  0
 45 42  1  0  0  0  0
 46 45  1  0  0  0  0
M  END
>  <minimizedAffinity>
-7.82363796

$$$$

 OpenBabel03252505133D

 46 49  0  0  1  0  0  0  0  0999 V2000
   36.6160   30.8150   40.6730 C   0  0  0  0  0  0  0  0  0  0  0  0
   37.3140   32.0110   40.4000 C   0  0  0  0  0  0  0  0  0  0  0  0
   38.6260   32.1650   40.9700 C   0  0  0  0  0  0  0  0  0  0  0  0
   39.1150   31.1650   41.7280 N   0  0  0  0  0  0  0  0  0  0  0  0
   38.4250   30.0460   41.9630 C   0  0  0  0  0  0  0  0  0  0  0  0
   37.1660   29.8550   41.4400 N   0  0  0  0  0  0  0  0  0  0  0  0
   35.6270   30.6580   40.2650 H   0  0  0  0  0  0  0  0  0  0  0  0
   36.8700   32.7630   39.7940 H   0  0  0  0  0  0  0  0  0  0  0  0
   39.0120   28.9770   42.8120 C   0  0  2  0  0  0  0  0  0  0  0  0
   39.9470   28.2220   41.8910 C   0  0  0  0  0  0  0  0  0  0  0  0
   39.4780   26.9090   41.4210 C   0  0  0  0  0  0  0  0  0  0  0  0
   39.1750   26.1210   42.6970 C   0  0  0  0  0  0  0  0  0  0  0  0
   38.0530   26.6810   43.4440 C   0  0  0  0  0  0  0  0  0  0  0  0
   38.0240   28.1700   43.4670 C   0  0  0  0  0  0  0  0  0  0  0  0
   39.6180   29.5280   43.5770 H   0  0  0  0  0  0  0  0  0  0  0  0
   40.8940   28.0620   42.4510 H   0  0  0  0  0  0  0  0  0  0  0  0
   40.2540   28.8170   41.0000 H   0  0  0  0  0  0  0  0  0  0  0  0
   38.5830   26.9830   40.7920 H   0  0  0  0  0  0  0  0  0  0  0  0
   40.3040   26.3870   40.9420 H   0  0  0  0  0  0  0  0  0  0  0  0
   40.0990   26.0050   43.2610 H   0  0  0  0  0  0  0  0  0  0  0  0
   38.8310   25.1320   42.3290 H   0  0  0  0  0  0  0  0  0  0  0  0
   37.2370   26.2230   43.9850 H   0  0  0  0  0  0  0  0  0  0  0  0
   36.9830   28.8590   44.1580 N   0  0  0  0  0  0  0  0  0  0  0  0
   37.3840   29.2160   45.0350 H   0  0  0  0  0  0  0  0  0  0  0  0
   36.0430   28.8900   43.6930 H   0  0  0  0  0  0  0  0  0  0  0  0
   39.3660   33.3830   40.7040 C   0  0  0  0  0  0  0  0  0  0  0  0
   38.6860   34.5180   40.4440 C   0  0  0  0  0  0  0  0  0  0  0  0
   39.4520   35.6610   40.1830 C   0  0  0  0  0  0  0  0  0  0  0  0
   40.8270   35.5140   40.2170 C   0  0  0  0  0  0  0  0  0  0  0  0
   41.5190   34.3540   40.4840 C   0  0  0  0  0  0  0  0  0  0  0  0
   40.7190   33.2800   40.7300 N   0  0  0  0  0  0  0  0  0  0  0  0
   37.6080   34.5700   40.4320 H   0  0  0  0  0  0  0  0  0  0  0  0
   38.9530   36.5950   39.9690 H   0  0  0  0  0  0  0  0  0  0  0  0
   41.3430   36.4410   40.0040 H   0  0  0  0  0  0  0  0  0  0  0  0
   42.8810   34.2900   40.4950 O   0  0  0  0  0  0  0  0  0  0  0  0
   43.7550   33.5240   42.6570 C   0  0  0  0  0  0  0  0  0  0  0  0
   43.7360   34.2850   41.5310 C   0  0  0  0  0  0  0  0  0  0  0  0
   44.7650   35.2270   41.4060 C   0  0  0  0  0  0  0  0  0  0  0  0
   44.8730   35.9090   40.5470 H   0  0  0  0  0  0  0  0  0  0  0  0
   45.7520   35.3900   42.3590 C   0  0  0  0  0  3  0  0  0  0  0  0
   45.7140   34.5820   43.4830 C   0  0  0  0  0  3  0  0  0  0  0  0
   44.7170   33.6440   43.6420 C   0  0  0  0  0  0  0  0  0  0  0  0
   42.7250   32.5950   42.7620 O   0  0  0  0  0  0  0  0  0  0  0  0
   42.4110   32.3800   43.7010 H   0  0  0  0  0  0  0  0  0  0  0  0
   44.6250   32.8090   44.7410 O   0  0  0  0  0  0  0  0  0  0  0  0
   43.8510   32.9840   45.3840 H   0  0  0  0  0  0  0  0  0  0  0  0
  1  6  1  0  0  0  0
  2  1  2  0  0  0  0
  2  3  1  0  0  0  0
  3  4  2  0  0  0  0
  4  5  1  0  0  0  0
  5  9  1  0  0  0  0
  6  5  2  0  0  0  0
  7  1  1  0  0  0  0
  8  2  1  0  0  0  0
  9 14  1  0  0  0  0
  9 15  1  1  0  0  0
 10 16  1  0  0  0  0
 10  9  1  0  0  0  0
 11 10  1  0  0  0  0
 11 12  1  0  0  0  0
 12 20  1  0  0  0  0
 12 13  1  0  0  0  0
 13 14  2  0  0  0  0
 13 22  1  0  0  0  0
 14 23  1  0  0  0  0
 17 10  1  0  0  0  0
 18 11  1  0  0  0  0
 19 11  1  0  0  0  0
 21 12  1  0  0  0  0
 23 24  1  0  0  0  0
 25 23  1  0  0  0  0
 26 31  1  0  0  0  0
 26  3  1  0  0  0  0
 27 26  2  0  0  0  0
 28 29  2  0  0  0  0
 28 27  1  0  0  0  0
 29 30  1  0  0  0  0
 30 35  1  0  0  0  0
 30 31  2  0  0  0  0
 32 27  1  0  0  0  0
 33 28  1  0  0  0  0
 34 29  1  0  0  0  0
 35 37  1  0  0  0  0
 36 43  1  0  0  0  0
 36 42  1  0  0  0  0
 37 36  2  0  0  0  0
 38 37  1  0  0  0  0
 38 40  2  0  0  0  0
 39 38  1  0  0  0  0
 40 41  1  0  0  0  0
 41 42  2  0  0  0  0
 42 45  1  0  0  0  0
 43 44  1  0  0  0  0
 45 46  1  0  0  0  0
M  END
>  <minimizedAffinity>
-7.78349876

$$$$

 OpenBabel03252505133D

 46 49  0  0  1  0  0  0  0  0999 V2000
   37.8660   31.3720   39.5220 C   0  0  0  0  0  0  0  0  0  0  0  0
   37.0420   31.0220   38.4320 C   0  0  0  0  0  0  0  0  0  0  0  0
   36.6010   29.6560   38.3380 C   0  0  0  0  0  0  0  0  0  0  0  0
   36.9970   28.7890   39.2900 N   0  0  0  0  0  0  0  0  0  0  0  0
   37.7780   29.1580   40.3080 C   0  0  0  0  0  0  0  0  0  0  0  0
   38.2240   30.4540   40.4400 N   0  0  0  0  0  0  0  0  0  0  0  0
   38.2200   32.3890   39.6320 H   0  0  0  0  0  0  0  0  0  0  0  0
   36.7650   31.7550   37.7130 H   0  0  0  0  0  0  0  0  0  0  0  0
   38.1890   28.1590   41.3280 C   0  0  2  0  0  0  0  0  0  0  0  0
   38.2800   26.8490   40.5730 C   0  0  0  0  0  0  0  0  0  0  0  0
   37.1830   25.8940   40.7940 C   0  0  0  0  0  0  0  0  0  0  0  0
   37.1510   25.6770   42.3070 C   0  0  0  0  0  0  0  0  0  0  0  0
   36.7590   26.8810   43.0340 C   0  0  0  0  0  0  0  0  0  0  0  0
   37.3300   28.1380   42.4760 C   0  0  0  0  0  0  0  0  0  0  0  0
   39.2200   28.4770   41.6330 H   0  0  0  0  0  0  0  0  0  0  0  0
   39.2250   26.3580   40.8890 H   0  0  0  0  0  0  0  0  0  0  0  0
   38.3990   26.9900   39.4740 H   0  0  0  0  0  0  0  0  0  0  0  0
   36.2180   26.2720   40.4380 H   0  0  0  0  0  0  0  0  0  0  0  0
   37.4580   24.9320   40.3650 H   0  0  0  0  0  0  0  0  0  0  0  0
   38.0960   25.2350   42.6160 H   0  0  0  0  0  0  0  0  0  0  0  0
   36.3270   24.9490   42.4590 H   0  0  0  0  0  0  0  0  0  0  0  0
   36.1310   27.0360   43.9000 H   0  0  0  0  0  0  0  0  0  0  0  0
   37.0310   29.3950   43.0820 N   0  0  0  0  0  0  0  0  0  0  0  0
   37.8640   29.6810   43.6140 H   0  0  0  0  0  0  0  0  0  0  0  0
   36.0800   29.7970   42.8980 H   0  0  0  0  0  0  0  0  0  0  0  0
   35.7510   29.2680   37.2290 C   0  0  0  0  0  0  0  0  0  0  0  0
   36.3230   28.9170   36.0590 C   0  0  0  0  0  0  0  0  0  0  0  0
   35.4540   28.5640   35.0190 C   0  0  0  0  0  0  0  0  0  0  0  0
   34.0990   28.6100   35.2930 C   0  0  0  0  0  0  0  0  0  0  0  0
   33.5180   28.9680   36.4880 C   0  0  0  0  0  0  0  0  0  0  0  0
   34.4140   29.2990   37.4580 N   0  0  0  0  0  0  0  0  0  0  0  0
   37.3920   28.9010   35.9060 H   0  0  0  0  0  0  0  0  0  0  0  0
   35.8640   28.2750   34.0620 H   0  0  0  0  0  0  0  0  0  0  0  0
   33.5000   28.3250   34.4380 H   0  0  0  0  0  0  0  0  0  0  0  0
   32.1680   28.9920   36.6770 O   0  0  0  0  0  0  0  0  0  0  0  0
   30.6100   30.4440   37.8990 C   0  0  0  0  0  0  0  0  0  0  0  0
   31.3370   30.0370   36.8250 C   0  0  0  0  0  0  0  0  0  0  0  0
   31.2180   30.8190   35.6680 C   0  0  0  0  0  0  0  0  0  0  0  0
   31.7480   30.6060   34.7260 H   0  0  0  0  0  0  0  0  0  0  0  0
   30.4140   31.9410   35.6010 C   0  0  0  0  0  3  0  0  0  0  0  0
   29.7000   32.3010   36.7310 C   0  0  0  0  0  3  0  0  0  0  0  0
   29.7910   31.5570   37.8870 C   0  0  0  0  0  0  0  0  0  0  0  0
   30.7430   29.6560   39.0370 O   0  0  0  0  0  0  0  0  0  0  0  0
   29.9300   29.6010   39.6390 H   0  0  0  0  0  0  0  0  0  0  0  0
   29.1030   31.8660   39.0480 O   0  0  0  0  0  0  0  0  0  0  0  0
   28.3480   31.2320   39.3140 H   0  0  0  0  0  0  0  0  0  0  0  0
  1  7  1  0  0  0  0
  1  6  1  0  0  0  0
  2  1  2  0  0  0  0
  3  2  1  0  0  0  0
  3  4  2  0  0  0  0
  4  5  1  0  0  0  0
  5  6  2  0  0  0  0
  5  9  1  0  0  0  0
  8  2  1  0  0  0  0
  9 15  1  1  0  0  0
  9 14  1  0  0  0  0
 10 11  1  0  0  0  0
 10 16  1  0  0  0  0
 10  9  1  0  0  0  0
 11 12  1  0  0  0  0
 12 21  1  0  0  0  0
 12 20  1  0  0  0  0
 12 13  1  0  0  0  0
 13 22  1  0  0  0  0
 14 13  2  0  0  0  0
 14 23  1  0  0  0  0
 17 10  1  0  0  0  0
 18 11  1  0  0  0  0
 19 11  1  0  0  0  0
 23 24  1  0  0  0  0
 25 23  1  0  0  0  0
 26 31  1  0  0  0  0
 26  3  1  0  0  0  0
 27 26  2  0  0  0  0
 28 29  2  0  0  0  0
 28 27  1  0  0  0  0
 29 30  1  0  0  0  0
 30 35  1  0  0  0  0
 30 31  2  0  0  0  0
 32 27  1  0  0  0  0
 33 28  1  0  0  0  0
 34 29  1  0  0  0  0
 35 37  1  0  0  0  0
 36 43  1  0  0  0  0
 37 36  2  0  0  0  0
 38 37  1  0  0  0  0
 39 38  1  0  0  0  0
 40 38  2  0  0  0  0
 40 41  1  0  0  0  0
 41 42  2  0  0  0  0
 42 36  1  0  0  0  0
 42 45  1  0  0  0  0
 43 44  1  0  0  0  0
 45 46  1  0  0  0  0
M  END
>  <minimizedAffinity>
-7.26791048

$$$$

 OpenBabel03252505133D

 46 49  0  0  1  0  0  0  0  0999 V2000
   39.3150   28.8730   37.8220 C   0  0  0  0  0  0  0  0  0  0  0  0
   39.3460   30.2680   38.0300 C   0  0  0  0  0  0  0  0  0  0  0  0
   39.0980   30.7520   39.3610 C   0  0  0  0  0  0  0  0  0  0  0  0
   38.8510   29.8520   40.3330 N   0  0  0  0  0  0  0  0  0  0  0  0
   38.8310   28.5380   40.0980 C   0  0  0  0  0  0  0  0  0  0  0  0
   39.0630   28.0290   38.8390 N   0  0  0  0  0  0  0  0  0  0  0  0
   39.4970   28.4660   36.8360 H   0  0  0  0  0  0  0  0  0  0  0  0
   39.5460   30.9260   37.2180 H   0  0  0  0  0  0  0  0  0  0  0  0
   38.5480   27.5900   41.2070 C   0  0  2  0  0  0  0  0  0  0  0  0
   37.0790   27.2540   41.0650 C   0  0  0  0  0  0  0  0  0  0  0  0
   36.1700   27.8870   42.0320 C   0  0  0  0  0  0  0  0  0  0  0  0
   36.7160   27.4860   43.4030 C   0  0  0  0  0  0  0  0  0  0  0  0
   38.0260   28.0690   43.6740 C   0  0  0  0  0  0  0  0  0  0  0  0
   38.9330   28.0950   42.4930 C   0  0  0  0  0  0  0  0  0  0  0  0
   39.1570   26.6810   40.9600 H   0  0  0  0  0  0  0  0  0  0  0  0
   36.9850   26.1530   41.1830 H   0  0  0  0  0  0  0  0  0  0  0  0
   36.6850   27.4530   40.0410 H   0  0  0  0  0  0  0  0  0  0  0  0
   36.1440   28.9790   41.9320 H   0  0  0  0  0  0  0  0  0  0  0  0
   35.1900   27.4200   41.9570 H   0  0  0  0  0  0  0  0  0  0  0  0
   36.6600   26.4030   43.4960 H   0  0  0  0  0  0  0  0  0  0  0  0
   36.0170   27.9620   44.1230 H   0  0  0  0  0  0  0  0  0  0  0  0
   38.4660   28.4880   44.5680 H   0  0  0  0  0  0  0  0  0  0  0  0
   40.2470   28.6390   42.6060 N   0  0  0  0  0  0  0  0  0  0  0  0
   40.9020   27.8470   42.6350 H   0  0  0  0  0  0  0  0  0  0  0  0
   40.3270   29.6850   42.6370 H   0  0  0  0  0  0  0  0  0  0  0  0
   39.1250   32.1810   39.6040 C   0  0  0  0  0  0  0  0  0  0  0  0
   38.0000   32.7930   40.0280 C   0  0  0  0  0  0  0  0  0  0  0  0
   38.0810   34.1760   40.2350 C   0  0  0  0  0  0  0  0  0  0  0  0
   39.3020   34.7770   39.9850 C   0  0  0  0  0  0  0  0  0  0  0  0
   40.4480   34.1490   39.5530 C   0  0  0  0  0  0  0  0  0  0  0  0
   40.3060   32.8070   39.3710 N   0  0  0  0  0  0  0  0  0  0  0  0
   37.0740   32.2690   40.2070 H   0  0  0  0  0  0  0  0  0  0  0  0
   37.2070   34.7120   40.5750 H   0  0  0  0  0  0  0  0  0  0  0  0
   39.2780   35.8430   40.1670 H   0  0  0  0  0  0  0  0  0  0  0  0
   41.6150   34.8150   39.3240 O   0  0  0  0  0  0  0  0  0  0  0  0
   43.4610   34.1520   37.8470 C   0  0  0  0  0  0  0  0  0  0  0  0
   42.8390   34.3390   39.0410 C   0  0  0  0  0  0  0  0  0  0  0  0
   43.5730   33.9820   40.1800 C   0  0  0  0  0  0  0  0  0  0  0  0
   43.1940   34.0810   41.2100 H   0  0  0  0  0  0  0  0  0  0  0  0
   44.8540   33.4700   40.1170 C   0  0  0  0  0  3  0  0  0  0  0  0
   45.4300   33.3050   38.8690 C   0  0  0  0  0  3  0  0  0  0  0  0
   44.7400   33.6430   37.7250 C   0  0  0  0  0  0  0  0  0  0  0  0
   42.7160   34.5120   36.7290 O   0  0  0  0  0  0  0  0  0  0  0  0
   42.8900   33.9770   35.8850 H   0  0  0  0  0  0  0  0  0  0  0  0
   45.2610   33.5020   36.4510 O   0  0  0  0  0  0  0  0  0  0  0  0
   44.8460   32.7750   35.8650 H   0  0  0  0  0  0  0  0  0  0  0  0
  1  2  2  0  0  0  0
  1  6  1  0  0  0  0
  2  3  1  0  0  0  0
  3 26  1  0  0  0  0
  3  4  2  0  0  0  0
  5  4  1  0  0  0  0
  5  9  1  0  0  0  0
  6  5  2  0  0  0  0
  7  1  1  0  0  0  0
  8  2  1  0  0  0  0
  9 15  1  6  0  0  0
  9 14  1  0  0  0  0
 10 16  1  0  0  0  0
 10  9  1  0  0  0  0
 10 11  1  0  0  0  0
 11 12  1  0  0  0  0
 12 20  1  0  0  0  0
 12 13  1  0  0  0  0
 12 21  1  0  0  0  0
 13 22  1  0  0  0  0
 14 23  1  0  0  0  0
 14 13  2  0  0  0  0
 17 10  1  0  0  0  0
 18 11  1  0  0  0  0
 19 11  1  0  0  0  0
 23 24  1  0  0  0  0
 23 25  1  0  0  0  0
 26 27  1  0  0  0  0
 27 32  1  0  0  0  0
 27 28  2  0  0  0  0
 28 33  1  0  0  0  0
 29 34  1  0  0  0  0
 29 28  1  0  0  0  0
 30 29  2  0  0  0  0
 31 30  1  0  0  0  0
 31 26  2  0  0  0  0
 35 30  1  0  0  0  0
 36 37  1  0  0  0  0
 37 35  1  0  0  0  0
 37 38  2  0  0  0  0
 38 39  1  0  0  0  0
 40 38  1  0  0  0  0
 41 40  2  0  0  0  0
 42 36  2  0  0  0  0
 42 41  1  0  0  0  0
 43 36  1  0  0  0  0
 44 43  1  0  0  0  0
 45 42  1  0  0  0  0
 46 45  1  0  0  0  0
M  END
>  <minimizedAffinity>
-7.23075628

$$$$

 OpenBabel03252505133D

 46 49  0  0  1  0  0  0  0  0999 V2000
   35.9790   24.1350   39.2140 C   0  0  0  0  0  0  0  0  0  0  0  0
   36.0780   25.2280   38.3270 C   0  0  0  0  0  0  0  0  0  0  0  0
   36.6420   26.4510   38.8330 C   0  0  0  0  0  0  0  0  0  0  0  0
   37.0440   26.4860   40.1180 N   0  0  0  0  0  0  0  0  0  0  0  0
   36.9350   25.4300   40.9280 C   0  0  0  0  0  0  0  0  0  0  0  0
   36.4010   24.2390   40.4880 N   0  0  0  0  0  0  0  0  0  0  0  0
   35.5610   23.1960   38.8750 H   0  0  0  0  0  0  0  0  0  0  0  0
   35.7410   25.1350   37.3230 H   0  0  0  0  0  0  0  0  0  0  0  0
   37.3900   25.5270   42.3390 C   0  0  2  0  0  0  0  0  0  0  0  0
   37.4200   27.0110   42.6360 C   0  0  0  0  0  0  0  0  0  0  0  0
   38.7490   27.6390   42.6810 C   0  0  0  0  0  0  0  0  0  0  0  0
   39.5270   26.8340   43.7230 C   0  0  0  0  0  0  0  0  0  0  0  0
   39.7700   25.4600   43.2970 C   0  0  0  0  0  0  0  0  0  0  0  0
   38.6220   24.8350   42.5830 C   0  0  0  0  0  0  0  0  0  0  0  0
   36.5650   25.0520   42.9320 H   0  0  0  0  0  0  0  0  0  0  0  0
   36.9450   27.1520   43.6310 H   0  0  0  0  0  0  0  0  0  0  0  0
   36.7810   27.6060   41.9420 H   0  0  0  0  0  0  0  0  0  0  0  0
   39.2600   27.6110   41.7120 H   0  0  0  0  0  0  0  0  0  0  0  0
   38.6550   28.6410   43.0940 H   0  0  0  0  0  0  0  0  0  0  0  0
   39.0330   26.9430   44.6870 H   0  0  0  0  0  0  0  0  0  0  0  0
   40.5230   27.3230   43.7540 H   0  0  0  0  0  0  0  0  0  0  0  0
   40.6250   24.8060   43.4000 H   0  0  0  0  0  0  0  0  0  0  0  0
   38.7150   23.4940   42.1050 N   0  0  0  0  0  0  0  0  0  0  0  0
   38.1680   22.9040   42.7470 H   0  0  0  0  0  0  0  0  0  0  0  0
   39.2850   23.3370   41.2390 H   0  0  0  0  0  0  0  0  0  0  0  0
   36.7570   27.5900   37.9430 C   0  0  0  0  0  0  0  0  0  0  0  0
   36.7960   27.3780   36.6120 C   0  0  0  0  0  0  0  0  0  0  0  0
   36.9200   28.5130   35.8010 C   0  0  0  0  0  0  0  0  0  0  0  0
   36.9920   29.7370   36.4430 C   0  0  0  0  0  0  0  0  0  0  0  0
   36.9520   29.9500   37.8020 C   0  0  0  0  0  0  0  0  0  0  0  0
   36.8290   28.8090   38.5350 N   0  0  0  0  0  0  0  0  0  0  0  0
   36.7360   26.3960   36.1690 H   0  0  0  0  0  0  0  0  0  0  0  0
   36.9560   28.3950   34.7280 H   0  0  0  0  0  0  0  0  0  0  0  0
   37.0890   30.5590   35.7460 H   0  0  0  0  0  0  0  0  0  0  0  0
   37.0320   31.1920   38.3600 O   0  0  0  0  0  0  0  0  0  0  0  0
   37.8980   32.8120   39.9880 C   0  0  0  0  0  0  0  0  0  0  0  0
   37.9390   31.6960   39.2130 C   0  0  0  0  0  0  0  0  0  0  0  0
   39.1080   30.9280   39.2980 C   0  0  0  0  0  0  0  0  0  0  0  0
   39.2770   30.0010   38.7270 H   0  0  0  0  0  0  0  0  0  0  0  0
   40.1690   31.2670   40.1160 C   0  0  0  0  0  3  0  0  0  0  0  0
   40.0640   32.4160   40.8800 C   0  0  0  0  0  3  0  0  0  0  0  0
   38.9300   33.1970   40.8230 C   0  0  0  0  0  0  0  0  0  0  0  0
   36.7300   33.5590   39.8900 O   0  0  0  0  0  0  0  0  0  0  0  0
   36.8270   34.5590   40.0240 H   0  0  0  0  0  0  0  0  0  0  0  0
   38.7650   34.3550   41.5620 O   0  0  0  0  0  0  0  0  0  0  0  0
   38.7700   35.2350   41.0420 H   0  0  0  0  0  0  0  0  0  0  0  0
  1  6  1  0  0  0  0
  2  3  1  0  0  0  0
  2  1  2  0  0  0  0
  3  4  2  0  0  0  0
  4  5  1  0  0  0  0
  5  9  1  0  0  0  0
  6  5  2  0  0  0  0
  7  1  1  0  0  0  0
  8  2  1  0  0  0  0
  9 14  1  0  0  0  0
  9 10  1  0  0  0  0
  9 15  1  1  0  0  0
 10 11  1  0  0  0  0
 10 16  1  0  0  0  0
 11 19  1  0  0  0  0
 11 12  1  0  0  0  0
 12 21  1  0  0  0  0
 12 20  1  0  0  0  0
 13 22  1  0  0  0  0
 13 12  1  0  0  0  0
 14 13  2  0  0  0  0
 17 10  1  0  0  0  0
 18 11  1  0  0  0  0
 23 14  1  0  0  0  0
 23 24  1  0  0  0  0
 25 23  1  0  0  0  0
 26 31  1  0  0  0  0
 26  3  1  0  0  0  0
 27 26  2  0  0  0  0
 28 29  2  0  0  0  0
 28 27  1  0  0  0  0
 29 30  1  0  0  0  0
 30 35  1  0  0  0  0
 30 31  2  0  0  0  0
 32 27  1  0  0  0  0
 33 28  1  0  0  0  0
 34 29  1  0  0  0  0
 35 37  1  0  0  0  0
 36 42  1  0  0  0  0
 37 38  1  0  0  0  0
 37 36  2  0  0  0  0
 38 40  2  0  0  0  0
 39 38  1  0  0  0  0
 40 41  1  0  0  0  0
 42 41  2  0  0  0  0
 42 45  1  0  0  0  0
 43 36  1  0  0  0  0
 43 44  1  0  0  0  0
 46 45  1  0  0  0  0
M  END
>  <minimizedAffinity>
-7.20953655

$$$$

 OpenBabel03252505133D

 46 49  0  0  1  0  0  0  0  0999 V2000
   40.9720   26.2260   44.0720 C   0  0  0  0  0  0  0  0  0  0  0  0
   41.7190   27.3960   43.8220 C   0  0  0  0  0  0  0  0  0  0  0  0
   41.0740   28.4610   43.1020 C   0  0  0  0  0  0  0  0  0  0  0  0
   39.7980   28.2860   42.7080 N   0  0  0  0  0  0  0  0  0  0  0  0
   39.1220   27.1630   42.9630 C   0  0  0  0  0  0  0  0  0  0  0  0
   39.6980   26.1160   43.6490 N   0  0  0  0  0  0  0  0  0  0  0  0
   41.4170   25.4000   44.6100 H   0  0  0  0  0  0  0  0  0  0  0  0
   42.7240   27.4710   44.1610 H   0  0  0  0  0  0  0  0  0  0  0  0
   37.7180   27.0210   42.4990 C   0  0  2  0  0  0  0  0  0  0  0  0
   37.8230   26.3520   41.1450 C   0  0  0  0  0  0  0  0  0  0  0  0
   37.6020   27.2160   39.9740 C   0  0  0  0  0  0  0  0  0  0  0  0
   36.2220   27.8350   40.1980 C   0  0  0  0  0  0  0  0  0  0  0  0
   36.1950   28.7360   41.3460 C   0  0  0  0  0  0  0  0  0  0  0  0
   36.9920   28.2570   42.5100 C   0  0  0  0  0  0  0  0  0  0  0  0
   37.2540   26.3030   43.2250 H   0  0  0  0  0  0  0  0  0  0  0  0
   37.0570   25.5470   41.1200 H   0  0  0  0  0  0  0  0  0  0  0  0
   38.7880   25.8150   40.9990 H   0  0  0  0  0  0  0  0  0  0  0  0
   38.3650   27.9970   39.8790 H   0  0  0  0  0  0  0  0  0  0  0  0
   37.5050   26.5930   39.0870 H   0  0  0  0  0  0  0  0  0  0  0  0
   35.4820   27.0370   40.2150 H   0  0  0  0  0  0  0  0  0  0  0  0
   36.0640   28.4750   39.3060 H   0  0  0  0  0  0  0  0  0  0  0  0
   35.7090   29.6860   41.5150 H   0  0  0  0  0  0  0  0  0  0  0  0
   37.0610   29.0360   43.7040 N   0  0  0  0  0  0  0  0  0  0  0  0
   36.4510   28.5830   44.3980 H   0  0  0  0  0  0  0  0  0  0  0  0
   37.6790   29.8830   43.6830 H   0  0  0  0  0  0  0  0  0  0  0  0
   41.8180   29.6760   42.8340 C   0  0  0  0  0  0  0  0  0  0  0  0
   42.8620   29.9920   43.6280 C   0  0  0  0  0  0  0  0  0  0  0  0
   43.5360   31.1830   43.3300 C   0  0  0  0  0  0  0  0  0  0  0  0
   43.0670   31.9160   42.2540 C   0  0  0  0  0  0  0  0  0  0  0  0
   42.0020   31.5910   41.4450 C   0  0  0  0  0  0  0  0  0  0  0  0
   41.3890   30.4230   41.7850 N   0  0  0  0  0  0  0  0  0  0  0  0
   43.1810   29.3780   44.4550 H   0  0  0  0  0  0  0  0  0  0  0  0
   44.3790   31.4800   43.9370 H   0  0  0  0  0  0  0  0  0  0  0  0
   43.6410   32.8200   42.0940 H   0  0  0  0  0  0  0  0  0  0  0  0
   41.5980   32.3720   40.4030 O   0  0  0  0  0  0  0  0  0  0  0  0
   39.2210   32.9490   40.1990 C   0  0  0  0  0  0  0  0  0  0  0  0
   40.5510   33.2070   40.3080 C   0  0  0  0  0  0  0  0  0  0  0  0
   40.9170   34.5600   40.3270 C   0  0  0  0  0  0  0  0  0  0  0  0
   41.9570   34.9140   40.4120 H   0  0  0  0  0  0  0  0  0  0  0  0
   39.9960   35.5870   40.2400 C   0  0  0  0  0  3  0  0  0  0  0  0
   38.6560   35.2560   40.1300 C   0  0  0  0  0  3  0  0  0  0  0  0
   38.2580   33.9370   40.1090 C   0  0  0  0  0  0  0  0  0  0  0  0
   38.8780   31.6020   40.1820 O   0  0  0  0  0  0  0  0  0  0  0  0
   38.0560   31.3560   39.6420 H   0  0  0  0  0  0  0  0  0  0  0  0
   36.9360   33.5420   40.0010 O   0  0  0  0  0  0  0  0  0  0  0  0
   36.6600   33.1020   39.1210 H   0  0  0  0  0  0  0  0  0  0  0  0
  1  7  1  0  0  0  0
  2  1  1  0  0  0  0
  2  8  1  0  0  0  0
  3  2  2  0  0  0  0
  4  5  2  0  0  0  0
  4  3  1  0  0  0  0
  5  6  1  0  0  0  0
  6  1  2  0  0  0  0
  9 14  1  0  0  0  0
  9  5  1  0  0  0  0
  9 15  1  1  0  0  0
 10  9  1  0  0  0  0
 11 12  1  0  0  0  0
 11 10  1  0  0  0  0
 12 20  1  0  0  0  0
 12 13  1  0  0  0  0
 13 22  1  0  0  0  0
 13 14  2  0  0  0  0
 14 23  1  0  0  0  0
 16 10  1  0  0  0  0
 17 10  1  0  0  0  0
 18 11  1  0  0  0  0
 19 11  1  0  0  0  0
 21 12  1  0  0  0  0
 23 24  1  0  0  0  0
 25 23  1  0  0  0  0
 26  3  1  0  0  0  0
 26 27  1  0  0  0  0
 27 32  1  0  0  0  0
 28 27  2  0  0  0  0
 28 33  1  0  0  0  0
 29 28  1  0  0  0  0
 30 31  1  0  0  0  0
 30 29  2  0  0  0  0
 31 26  2  0  0  0  0
 34 29  1  0  0  0  0
 35 30  1  0  0  0  0
 36 37  1  0  0  0  0
 37 38  2  0  0  0  0
 37 35  1  0  0  0  0
 38 39  1  0  0  0  0
 40 38  1  0  0  0  0
 41 40  2  0  0  0  0
 42 41  1  0  0  0  0
 42 36  2  0  0  0  0
 43 36  1  0  0  0  0
 44 43  1  0  0  0  0
 45 42  1  0  0  0  0
 46 45  1  0  0  0  0
M  END
>  <minimizedAffinity>
-7.17141914

$$$$

 OpenBabel03252505133D

 46 49  0  0  1  0  0  0  0  0999 V2000
   39.8160   34.7800   40.0610 C   0  0  0  0  0  0  0  0  0  0  0  0
   38.8390   33.8350   40.4410 C   0  0  0  0  0  0  0  0  0  0  0  0
   39.1650   32.4410   40.2980 C   0  0  0  0  0  0  0  0  0  0  0  0
   40.3790   32.1150   39.8140 N   0  0  0  0  0  0  0  0  0  0  0  0
   41.2780   33.0380   39.4650 C   0  0  0  0  0  0  0  0  0  0  0  0
   41.0110   34.3840   39.5830 N   0  0  0  0  0  0  0  0  0  0  0  0
   39.6120   35.8390   40.1510 H   0  0  0  0  0  0  0  0  0  0  0  0
   37.8990   34.1590   40.8160 H   0  0  0  0  0  0  0  0  0  0  0  0
   42.6010   32.6220   38.9300 C   0  0  2  0  0  0  0  0  0  0  0  0
   43.4490   32.3600   40.1560 C   0  0  0  0  0  0  0  0  0  0  0  0
   44.4550   33.3830   40.4810 C   0  0  0  0  0  0  0  0  0  0  0  0
   45.3060   33.5120   39.2170 C   0  0  0  0  0  0  0  0  0  0  0  0
   44.5540   34.0620   38.0940 C   0  0  0  0  0  0  0  0  0  0  0  0
   43.1540   33.5610   37.9980 C   0  0  0  0  0  0  0  0  0  0  0  0
   42.3980   31.6490   38.4110 H   0  0  0  0  0  0  0  0  0  0  0  0
   43.9850   31.4020   39.9810 H   0  0  0  0  0  0  0  0  0  0  0  0
   42.8420   32.1700   41.0720 H   0  0  0  0  0  0  0  0  0  0  0  0
   44.0050   34.3470   40.7430 H   0  0  0  0  0  0  0  0  0  0  0  0
   45.1230   32.9930   41.2470 H   0  0  0  0  0  0  0  0  0  0  0  0
   45.7950   32.5580   39.0280 H   0  0  0  0  0  0  0  0  0  0  0  0
   46.0650   34.2790   39.4790 H   0  0  0  0  0  0  0  0  0  0  0  0
   44.8170   34.7650   37.3160 H   0  0  0  0  0  0  0  0  0  0  0  0
   42.2970   34.0130   36.9510 N   0  0  0  0  0  0  0  0  0  0  0  0
   42.2320   33.2510   36.2620 H   0  0  0  0  0  0  0  0  0  0  0  0
   41.9000   34.9790   37.0460 H   0  0  0  0  0  0  0  0  0  0  0  0
   38.1810   31.4490   40.6830 C   0  0  0  0  0  0  0  0  0  0  0  0
   36.9860   31.4380   40.0580 C   0  0  0  0  0  0  0  0  0  0  0  0
   36.0700   30.4650   40.4780 C   0  0  0  0  0  0  0  0  0  0  0  0
   36.4800   29.6140   41.4890 C   0  0  0  0  0  0  0  0  0  0  0  0
   37.7010   29.6270   42.1240 C   0  0  0  0  0  0  0  0  0  0  0  0
   38.5460   30.5930   41.6710 N   0  0  0  0  0  0  0  0  0  0  0  0
   36.7230   32.1300   39.2730 H   0  0  0  0  0  0  0  0  0  0  0  0
   35.0980   30.4150   40.0090 H   0  0  0  0  0  0  0  0  0  0  0  0
   35.7140   28.8960   41.7540 H   0  0  0  0  0  0  0  0  0  0  0  0
   38.0280   28.7530   43.1190 O   0  0  0  0  0  0  0  0  0  0  0  0
   38.2600   26.3300   42.8040 C   0  0  0  0  0  0  0  0  0  0  0  0
   38.6980   27.5910   43.0590 C   0  0  0  0  0  0  0  0  0  0  0  0
   40.0710   27.7290   43.3040 C   0  0  0  0  0  0  0  0  0  0  0  0
   40.5620   28.6910   43.5230 H   0  0  0  0  0  0  0  0  0  0  0  0
   40.9460   26.6600   43.2910 C   0  0  0  0  0  3  0  0  0  0  0  0
   40.4350   25.4010   43.0250 C   0  0  0  0  0  3  0  0  0  0  0  0
   39.0900   25.2250   42.7800 C   0  0  0  0  0  0  0  0  0  0  0  0
   36.8950   26.2140   42.5640 O   0  0  0  0  0  0  0  0  0  0  0  0
   36.4640   25.3420   42.8490 H   0  0  0  0  0  0  0  0  0  0  0  0
   38.5200   23.9940   42.5080 O   0  0  0  0  0  0  0  0  0  0  0  0
   37.9120   23.6020   43.2290 H   0  0  0  0  0  0  0  0  0  0  0  0
  1  7  1  0  0  0  0
  1  2  1  0  0  0  0
  2  8  1  0  0  0  0
  3  2  2  0  0  0  0
  3 26  1  0  0  0  0
  4  3  1  0  0  0  0
  5  6  1  0  0  0  0
  5  4  2  0  0  0  0
  6  1  2  0  0  0  0
  9 15  1  6  0  0  0
  9  5  1  0  0  0  0
  9 10  1  0  0  0  0
 10 11  1  0  0  0  0
 10 17  1  0  0  0  0
 11 18  1  0  0  0  0
 11 19  1  0  0  0  0
 12 21  1  0  0  0  0
 12 11  1  0  0  0  0
 13 12  1  0  0  0  0
 14 13  2  0  0  0  0
 14  9  1  0  0  0  0
 16 10  1  0  0  0  0
 20 12  1  0  0  0  0
 22 13  1  0  0  0  0
 23 25  1  0  0  0  0
 23 14  1  0  0  0  0
 24 23  1  0  0  0  0
 26 31  1  0  0  0  0
 27 28  1  0  0  0  0
 27 26  2  0  0  0  0
 28 29  2  0  0  0  0
 29 34  1  0  0  0  0
 29 30  1  0  0  0  0
 30 35  1  0  0  0  0
 31 30  2  0  0  0  0
 32 27  1  0  0  0  0
 33 28  1  0  0  0  0
 36 37  1  0  0  0  0
 37 35  1  0  0  0  0
 37 38  2  0  0  0  0
 38 39  1  0  0  0  0
 40 38  1  0  0  0  0
 41 40  2  0  0  0  0
 42 36  2  0  0  0  0
 42 41  1  0  0  0  0
 43 36  1  0  0  0  0
 43 44  1  0  0  0  0
 45 42  1  0  0  0  0
 45 46  1  0  0  0  0
M  END
>  <minimizedAffinity>
-7.09033012

$$$$

 OpenBabel03252505133D

 46 49  0  0  1  0  0  0  0  0999 V2000
   36.2490   25.4840   38.9810 C   0  0  0  0  0  0  0  0  0  0  0  0
   36.5630   26.7170   38.3710 C   0  0  0  0  0  0  0  0  0  0  0  0
   37.2700   27.6920   39.1570 C   0  0  0  0  0  0  0  0  0  0  0  0
   37.5930   27.3770   40.4260 N   0  0  0  0  0  0  0  0  0  0  0  0
   37.2790   26.1990   40.9700 C   0  0  0  0  0  0  0  0  0  0  0  0
   36.6030   25.2340   40.2560 N   0  0  0  0  0  0  0  0  0  0  0  0
   35.7180   24.7220   38.4260 H   0  0  0  0  0  0  0  0  0  0  0  0
   36.2780   26.9030   37.3640 H   0  0  0  0  0  0  0  0  0  0  0  0
   37.6560   25.9070   42.3770 C   0  0  2  0  0  0  0  0  0  0  0  0
   37.9210   27.2620   42.9970 C   0  0  0  0  0  0  0  0  0  0  0  0
   39.3320   27.6160   43.2100 C   0  0  0  0  0  0  0  0  0  0  0  0
   39.8960   26.4800   44.0650 C   0  0  0  0  0  0  0  0  0  0  0  0
   39.9260   25.2080   43.3500 C   0  0  0  0  0  0  0  0  0  0  0  0
   38.7340   24.9680   42.4900 C   0  0  0  0  0  0  0  0  0  0  0  0
   36.7280   25.4720   42.8310 H   0  0  0  0  0  0  0  0  0  0  0  0
   37.4160   27.2700   43.9880 H   0  0  0  0  0  0  0  0  0  0  0  0
   37.4370   28.0970   42.4380 H   0  0  0  0  0  0  0  0  0  0  0  0
   39.8900   27.7050   42.2710 H   0  0  0  0  0  0  0  0  0  0  0  0
   39.3850   28.5070   43.8340 H   0  0  0  0  0  0  0  0  0  0  0  0
   39.3690   26.4670   45.0170 H   0  0  0  0  0  0  0  0  0  0  0  0
   40.9570   26.7630   44.2260 H   0  0  0  0  0  0  0  0  0  0  0  0
   40.6490   24.4040   43.3240 H   0  0  0  0  0  0  0  0  0  0  0  0
   38.6260   23.7670   41.7280 N   0  0  0  0  0  0  0  0  0  0  0  0
   37.9480   23.1620   42.2100 H   0  0  0  0  0  0  0  0  0  0  0  0
   39.2130   23.6990   40.8610 H   0  0  0  0  0  0  0  0  0  0  0  0
   37.6070   28.9670   38.5550 C   0  0  0  0  0  0  0  0  0  0  0  0
   36.6830   29.5980   37.8020 C   0  0  0  0  0  0  0  0  0  0  0  0
   37.0670   30.8200   37.2350 C   0  0  0  0  0  0  0  0  0  0  0  0
   38.3530   31.2580   37.5020 C   0  0  0  0  0  0  0  0  0  0  0  0
   39.2930   30.6110   38.2720 C   0  0  0  0  0  0  0  0  0  0  0  0
   38.8590   29.4320   38.7950 N   0  0  0  0  0  0  0  0  0  0  0  0
   35.6930   29.2050   37.6290 H   0  0  0  0  0  0  0  0  0  0  0  0
   36.3630   31.3640   36.6230 H   0  0  0  0  0  0  0  0  0  0  0  0
   38.5680   32.2050   37.0260 H   0  0  0  0  0  0  0  0  0  0  0  0
   40.5440   31.1090   38.4840 O   0  0  0  0  0  0  0  0  0  0  0  0
   41.6220   33.2640   38.0160 C   0  0  0  0  0  0  0  0  0  0  0  0
   40.9370   32.3610   38.7670 C   0  0  0  0  0  0  0  0  0  0  0  0
   40.5700   32.7820   40.0520 C   0  0  0  0  0  0  0  0  0  0  0  0
   40.0130   32.1550   40.7670 H   0  0  0  0  0  0  0  0  0  0  0  0
   40.8750   34.0350   40.5470 C   0  0  0  0  0  3  0  0  0  0  0  0
   41.5740   34.9070   39.7300 C   0  0  0  0  0  3  0  0  0  0  0  0
   41.9530   34.5300   38.4600 C   0  0  0  0  0  0  0  0  0  0  0  0
   41.9770   32.8280   36.7440 O   0  0  0  0  0  0  0  0  0  0  0  0
   42.8370   33.2080   36.3650 H   0  0  0  0  0  0  0  0  0  0  0  0
   42.6530   35.3550   37.5970 O   0  0  0  0  0  0  0  0  0  0  0  0
   43.6220   35.0980   37.4040 H   0  0  0  0  0  0  0  0  0  0  0  0
  1  6  1  0  0  0  0
  2  1  2  0  0  0  0
  2  3  1  0  0  0  0
  3  4  2  0  0  0  0
  4  5  1  0  0  0  0
  5  9  1  0  0  0  0
  6  5  2  0  0  0  0
  7  1  1  0  0  0  0
  8  2  1  0  0  0  0
  9 14  1  0  0  0  0
  9 15  1  1  0  0  0
  9 10  1  0  0  0  0
 10 11  1  0  0  0  0
 10 16  1  0  0  0  0
 11 19  1  0  0  0  0
 11 12  1  0  0  0  0
 12 21  1  0  0  0  0
 12 20  1  0  0  0  0
 13 12  1  0  0  0  0
 14 13  2  0  0  0  0
 17 10  1  0  0  0  0
 18 11  1  0  0  0  0
 22 13  1  0  0  0  0
 23 24  1  0  0  0  0
 23 14  1  0  0  0  0
 25 23  1  0  0  0  0
 26 31  1  0  0  0  0
 26  3  1  0  0  0  0
 27 26  2  0  0  0  0
 28 29  2  0  0  0  0
 28 27  1  0  0  0  0
 29 30  1  0  0  0  0
 30 35  1  0  0  0  0
 30 31  2  0  0  0  0
 32 27  1  0  0  0  0
 33 28  1  0  0  0  0
 34 29  1  0  0  0  0
 35 37  1  0  0  0  0
 36 42  2  0  0  0  0
 36 37  1  0  0  0  0
 37 38  2  0  0  0  0
 38 40  1  0  0  0  0
 38 39  1  0  0  0  0
 41 40  2  0  0  0  0
 42 41  1  0  0  0  0
 43 36  1  0  0  0  0
 44 43  1  0  0  0  0
 45 42  1  0  0  0  0
 46 45  1  0  0  0  0
M  END
>  <minimizedAffinity>
-7.04983377

$$$$

 OpenBabel03252505133D

 46 49  0  0  1  0  0  0  0  0999 V2000
   38.0810   33.5090   40.0520 C   0  0  0  0  0  0  0  0  0  0  0  0
   37.4730   32.3390   40.5560 C   0  0  0  0  0  0  0  0  0  0  0  0
   38.2350   31.1200   40.5200 C   0  0  0  0  0  0  0  0  0  0  0  0
   39.4820   31.1600   40.0110 N   0  0  0  0  0  0  0  0  0  0  0  0
   40.0240   32.2870   39.5440 C   0  0  0  0  0  0  0  0  0  0  0  0
   39.3330   33.4780   39.5570 N   0  0  0  0  0  0  0  0  0  0  0  0
   37.5440   34.4480   40.0590 H   0  0  0  0  0  0  0  0  0  0  0  0
   36.4840   32.3760   40.9440 H   0  0  0  0  0  0  0  0  0  0  0  0
   41.4030   32.2720   38.9880 C   0  0  2  0  0  0  0  0  0  0  0  0
   42.2630   32.8880   40.0710 C   0  0  0  0  0  0  0  0  0  0  0  0
   42.7130   34.2680   39.8380 C   0  0  0  0  0  0  0  0  0  0  0  0
   43.4380   34.2220   38.4920 C   0  0  0  0  0  0  0  0  0  0  0  0
   42.5370   33.9240   37.3840 C   0  0  0  0  0  0  0  0  0  0  0  0
   41.5000   32.9030   37.7040 C   0  0  0  0  0  0  0  0  0  0  0  0
   41.6550   31.1840   38.8950 H   0  0  0  0  0  0  0  0  0  0  0  0
   43.1680   32.2490   40.1690 H   0  0  0  0  0  0  0  0  0  0  0  0
   41.7890   32.8460   41.0790 H   0  0  0  0  0  0  0  0  0  0  0  0
   41.8820   34.9820   39.8040 H   0  0  0  0  0  0  0  0  0  0  0  0
   43.4740   34.5230   40.5730 H   0  0  0  0  0  0  0  0  0  0  0  0
   44.2990   33.5620   38.5830 H   0  0  0  0  0  0  0  0  0  0  0  0
   43.7800   35.2660   38.3320 H   0  0  0  0  0  0  0  0  0  0  0  0
   42.4750   34.3030   36.3730 H   0  0  0  0  0  0  0  0  0  0  0  0
   40.5460   32.5120   36.7180 N   0  0  0  0  0  0  0  0  0  0  0  0
   40.8310   31.5860   36.3710 H   0  0  0  0  0  0  0  0  0  0  0  0
   39.7640   33.1820   36.5220 H   0  0  0  0  0  0  0  0  0  0  0  0
   37.6360   29.9040   41.0330 C   0  0  0  0  0  0  0  0  0  0  0  0
   36.3240   29.6790   40.8140 C   0  0  0  0  0  0  0  0  0  0  0  0
   35.7950   28.4940   41.3430 C   0  0  0  0  0  0  0  0  0  0  0  0
   36.6680   27.6740   42.0350 C   0  0  0  0  0  0  0  0  0  0  0  0
   38.0070   27.9060   42.2570 C   0  0  0  0  0  0  0  0  0  0  0  0
   38.4600   29.0710   41.7180 N   0  0  0  0  0  0  0  0  0  0  0  0
   35.6920   30.3590   40.2640 H   0  0  0  0  0  0  0  0  0  0  0  0
   34.7500   28.2690   41.1940 H   0  0  0  0  0  0  0  0  0  0  0  0
   36.1800   26.7840   42.4110 H   0  0  0  0  0  0  0  0  0  0  0  0
   38.8010   27.0460   42.9560 O   0  0  0  0  0  0  0  0  0  0  0  0
   40.9750   25.9570   43.2930 C   0  0  0  0  0  0  0  0  0  0  0  0
   39.9070   26.3890   42.5720 C   0  0  0  0  0  0  0  0  0  0  0  0
   39.9410   26.1150   41.1980 C   0  0  0  0  0  0  0  0  0  0  0  0
   39.1440   26.4060   40.4940 H   0  0  0  0  0  0  0  0  0  0  0  0
   40.9880   25.4480   40.5920 C   0  0  0  0  0  3  0  0  0  0  0  0
   42.0450   25.0350   41.3840 C   0  0  0  0  0  3  0  0  0  0  0  0
   42.0480   25.2860   42.7390 C   0  0  0  0  0  0  0  0  0  0  0  0
   40.9220   26.2380   44.6540 O   0  0  0  0  0  0  0  0  0  0  0  0
   41.8130   26.3930   45.1140 H   0  0  0  0  0  0  0  0  0  0  0  0
   43.0750   24.8990   43.5830 O   0  0  0  0  0  0  0  0  0  0  0  0
   43.6560   25.6460   43.9670 H   0  0  0  0  0  0  0  0  0  0  0  0
  1  7  1  0  0  0  0
  1  2  1  0  0  0  0
  2  8  1  0  0  0  0
  3  2  2  0  0  0  0
  3 26  1  0  0  0  0
  4  3  1  0  0  0  0
  5  6  1  0  0  0  0
  5  4  2  0  0  0  0
  6  1  2  0  0  0  0
  9 15  1  6  0  0  0
  9  5  1  0  0  0  0
  9 10  1  0  0  0  0
 10 16  1  0  0  0  0
 10 17  1  0  0  0  0
 11 10  1  0  0  0  0
 11 19  1  0  0  0  0
 12 20  1  0  0  0  0
 12 11  1  0  0  0  0
 13 14  2  0  0  0  0
 13 12  1  0  0  0  0
 14  9  1  0  0  0  0
 18 11  1  0  0  0  0
 21 12  1  0  0  0  0
 22 13  1  0  0  0  0
 23 14  1  0  0  0  0
 24 23  1  0  0  0  0
 25 23  1  0  0  0  0
 26 31  1  0  0  0  0
 27 26  2  0  0  0  0
 27 28  1  0  0  0  0
 28 29  2  0  0  0  0
 29 30  1  0  0  0  0
 29 34  1  0  0  0  0
 30 35  1  0  0  0  0
 31 30  2  0  0  0  0
 32 27  1  0  0  0  0
 33 28  1  0  0  0  0
 36 43  1  0  0  0  0
 37 35  1  0  0  0  0
 37 36  2  0  0  0  0
 38 37  1  0  0  0  0
 39 38  1  0  0  0  0
 40 38  2  0  0  0  0
 40 41  1  0  0  0  0
 41 42  2  0  0  0  0
 42 36  1  0  0  0  0
 42 45  1  0  0  0  0
 43 44  1  0  0  0  0
 45 46  1  0  0  0  0
M  END
>  <minimizedAffinity>
-6.98127127

$$$$
