
 OpenBabel03252500513D

 37 39  0  0  0  0  0  0  0  0999 V2000
   44.6070   34.9440   42.1130 C   0  0  0  0  0  0  0  0  0  0  0  0
   45.2210   34.6210   41.0760 O   0  0  0  0  0  0  0  0  0  0  0  0
   44.9050   35.0300   44.5340 C   0  0  0  0  0  0  0  0  0  0  0  0
   44.9850   34.3120   43.3670 C   0  0  0  0  0  0  0  0  0  0  0  0
   45.4270   32.9710   43.3630 C   0  0  0  0  0  0  0  0  0  0  0  0
   45.7660   32.4430   44.5850 N   0  0  0  0  0  0  0  0  0  0  0  0
   45.6850   33.1470   45.7090 C   0  0  0  0  0  0  0  0  0  0  0  0
   45.2580   34.4280   45.6810 N   0  0  0  0  0  0  0  0  0  0  0  0
   44.5800   36.0400   44.6110 H   0  0  0  0  0  0  0  0  0  0  0  0
   45.4980   32.3910   42.4610 H   0  0  0  0  0  0  0  0  0  0  0  0
   46.0550   32.5500   46.9830 C   0  0  0  0  0  0  0  0  0  0  0  0
   47.3380   32.2340   47.2990 C   0  0  0  0  0  0  0  0  0  0  0  0
   47.7020   31.6720   48.4930 C   0  0  0  0  0  0  0  0  0  0  0  0
   46.7130   31.4310   49.3820 N   0  0  0  0  0  0  0  0  0  0  0  0
   45.4570   31.7410   49.0670 C   0  0  0  0  0  0  0  0  0  0  0  0
   45.0740   32.2910   47.9080 N   0  0  0  0  0  0  0  0  0  0  0  0
   48.1330   32.4260   46.5910 H   0  0  0  0  0  0  0  0  0  0  0  0
   48.7180   31.4160   48.7590 H   0  0  0  0  0  0  0  0  0  0  0  0
   44.6460   31.5550   49.7690 H   0  0  0  0  0  0  0  0  0  0  0  0
   43.6680   35.8750   41.7780 O   0  0  0  0  0  0  0  0  0  0  0  0
   42.6600   35.6590   40.8750 C   0  0  0  0  0  0  0  0  0  0  0  0
   42.1070   36.6450   40.7900 H   0  0  0  0  0  0  0  0  0  0  0  0
   42.9390   35.4550   39.8230 H   0  0  0  0  0  0  0  0  0  0  0  0
   41.5740   34.7080   41.3630 C   0  0  0  0  0  0  0  0  0  0  0  0
   40.6850   35.2420   41.7090 H   0  0  0  0  0  0  0  0  0  0  0  0
   42.0340   34.0350   42.0960 H   0  0  0  0  0  0  0  0  0  0  0  0
   40.0060   34.1080   39.4770 C   0  0  0  0  0  0  0  0  0  0  0  0
   41.1790   33.8830   40.1780 C   0  0  0  0  0  0  0  0  0  0  0  0
   41.9920   32.8430   39.7350 C   0  0  0  0  0  0  0  0  0  0  0  0
   42.9040   32.6870   40.3000 H   0  0  0  0  0  0  0  0  0  0  0  0
   41.6900   32.0380   38.6450 C   0  0  0  0  0  3  0  0  0  0  0  0
   40.5070   32.2950   37.9700 C   0  0  0  0  0  3  0  0  0  0  0  0
   39.6870   33.3090   38.3820 C   0  0  0  0  0  0  0  0  0  0  0  0
   39.1590   35.1240   39.8690 O   0  0  0  0  0  0  0  0  0  0  0  0
   38.1820   35.1680   39.6010 H   0  0  0  0  0  0  0  0  0  0  0  0
   38.5230   33.4960   37.6480 O   0  0  0  0  0  0  0  0  0  0  0  0
   38.4850   33.3230   36.6410 H   0  0  0  0  0  0  0  0  0  0  0  0
  1  4  1  0  0  0  0
  2  1  2  0  0  0  0
  3  9  1  0  0  0  0
  3  8  1  0  0  0  0
  4  3  2  0  0  0  0
  5  4  1  0  0  0  0
  5  6  2  0  0  0  0
  6  7  1  0  0  0  0
  7 11  1  0  0  0  0
  8  7  2  0  0  0  0
 10  5  1  0  0  0  0
 11 12  2  0  0  0  0
 11 16  1  0  0  0  0
 12 13  1  0  0  0  0
 13 18  1  0  0  0  0
 13 14  2  0  0  0  0
 15 14  1  0  0  0  0
 15 19  1  0  0  0  0
 16 15  2  0  0  0  0
 17 12  1  0  0  0  0
 20  1  1  0  0  0  0
 21 24  1  0  0  0  0
 21 20  1  0  0  0  0
 22 21  1  0  0  0  0
 23 21  1  0  0  0  0
 24 25  1  0  0  0  0
 24 26  1  0  0  0  0
 27 34  1  0  0  0  0
 27 28  1  0  0  0  0
 28 24  1  0  0  0  0
 29 28  2  0  0  0  0
 29 30  1  0  0  0  0
 31 29  1  0  0  0  0
 32 33  1  0  0  0  0
 32 31  2  0  0  0  0
 33 27  2  0  0  0  0
 35 34  1  0  0  0  0
 36 33  1  0  0  0  0
 37 36  1  0  0  0  0
M  END
>  <minimizedAffinity>
-5.55851841

>  <minimizedRMSD>
1.38089406

$$$$
