
     RDKit          3D

 25 26  0  0  0  0  0  0  0  0999 V2000
   44.3845   35.7747   44.4255 C   0  0  0  0  0  0  0  0  0  0  0  0
   44.6682   35.0601   43.2589 C   0  0  0  0  0  0  0  0  0  0  0  0
   45.2924   33.8268   43.3955 C   0  0  0  0  0  0  0  0  0  0  0  0
   45.5912   33.3852   44.6456 N   0  0  0  0  0  0  0  0  0  0  0  0
   45.3073   34.0922   45.7489 C   0  0  0  0  0  0  0  0  0  0  0  0
   44.7022   35.2924   45.6535 N   0  0  0  0  0  0  0  0  0  0  0  0
   44.2532   35.7346   42.0091 C   0  0  0  0  0  0  0  0  0  0  0  0
   43.8981   36.7556   44.4784 H   0  0  0  0  0  0  0  0  0  0  0  0
   45.4806   33.3337   42.4693 H   0  0  0  0  0  0  0  0  0  0  0  0
   43.1505   35.6888   41.8631 H   0  0  0  0  0  0  0  0  0  0  0  0
   44.7755   35.2253   41.1753 H   0  0  0  0  0  0  0  0  0  0  0  0
   44.4927   36.8129   42.0936 H   0  0  0  0  0  0  0  0  0  0  0  0
   47.0632   31.9843   46.0391 O   0  0  0  0  0  0  0  0  0  0  0  0
   46.5188   32.5295   47.2172 C   0  0  0  0  0  0  0  0  0  0  0  0
   45.6484   33.5747   47.0698 C   0  0  0  0  0  0  0  0  0  0  0  0
   45.1117   34.1139   48.2117 C   0  0  0  0  0  0  0  0  0  0  0  0
   44.4226   34.9333   48.1897 H   0  0  0  0  0  0  0  0  0  0  0  0
   45.4536   33.6024   49.4540 C   0  0  0  0  0  0  0  0  0  0  0  0
   46.3364   32.5446   49.5756 C   0  0  0  0  0  0  0  0  0  0  0  0
   46.8858   31.9903   48.4321 C   0  0  0  0  0  0  0  0  0  0  0  0
   47.7894   30.9183   48.4332 O   0  0  0  0  0  0  0  0  0  0  0  0
   47.9380   32.2900   45.6532 H   0  0  0  0  0  0  0  0  0  0  0  0
   45.0803   33.9645   50.3993 H   0  0  0  0  0  0  0  0  0  0  0  0
   46.6612   32.0805   50.4970 H   0  0  0  0  0  0  0  0  0  0  0  0
   48.5452   30.8831   47.7523 H   0  0  0  0  0  0  0  0  0  0  0  0
  1  6  2  0
  2  3  2  0
  2  1  1  0
  3  4  1  0
  4  5  2  0
  6  5  1  0
  7  2  1  0
  1  8  1  0
  3  9  1  0
  7 10  1  0
  7 11  1  0
  7 12  1  0
 13 14  1  0
 14 15  2  0
 15 16  1  0
 16 17  1  0
 16 18  2  0
 18 19  1  0
 19 20  2  0
 20 21  1  0
 20 14  1  0
 13 22  1  0
 18 23  1  0
 19 24  1  0
 21 25  1  0
  5 15  1  0
M  ISO  6   8  14   9  14  10   8  11   8  12   8  17  16
M  END
>  <DihAtoms>  (1) 
3,4,14,13

>  <DihDeg>  (1) 
-179.99571611363953

$$$$
