
     RDKit          3D

 42 44  0  0  0  0  0  0  0  0999 V2000
   46.6839   32.8520   46.6422 C   0  0  2  0  0  0  0  0  0  0  0  0
   47.0546   32.7384   45.2174 C   0  0  1  0  0  0  0  0  0  0  0  0
   46.5201   31.4256   44.8291 O   0  0  0  0  0  0  0  0  0  0  0  0
   47.1781   30.6909   45.8419 C   0  0  0  0  0  0  0  0  0  0  0  0
   46.5868   31.3979   47.0892 C   0  0  2  0  0  0  0  0  0  0  0  0
   44.7099   35.2397   43.9607 C   0  0  0  0  0  0  0  0  0  0  0  0
   45.3388   35.7344   42.8207 C   0  0  0  0  0  0  0  0  0  0  0  0
   46.5973   35.2007   42.4602 C   0  0  0  0  0  0  0  0  0  0  0  0
   47.1418   34.2338   43.2324 N   0  0  0  0  0  0  0  0  0  0  0  0
   46.5057   33.7705   44.3384 C   0  0  0  0  0  0  0  0  0  0  0  0
   45.2961   34.2639   44.7091 N   0  0  0  0  0  0  0  0  0  0  0  0
   43.4655   35.7275   44.3684 O   0  0  0  0  0  0  0  0  0  0  0  0
   45.3699   33.4268   46.7511 O   0  0  0  0  0  0  0  0  0  0  0  0
   45.2991   30.9981   47.2224 O   0  0  0  0  0  0  0  0  0  0  0  0
   44.9609   30.1517   48.2383 C   0  0  0  0  0  0  0  0  0  0  0  0
   45.0946   28.6658   47.8936 C   0  0  0  0  0  0  0  0  0  0  0  0
   47.3882   33.4184   47.2704 H   0  0  0  0  0  0  0  0  0  0  0  0
   48.1505   32.6851   45.0385 H   0  0  0  0  0  0  0  0  0  0  0  0
   48.2672   30.9235   45.7784 H   0  0  0  0  0  0  0  0  0  0  0  0
   46.9601   29.6444   45.7947 H   0  0  0  0  0  0  0  0  0  0  0  0
   47.2583   31.1221   47.9312 H   0  0  0  0  0  0  0  0  0  0  0  0
   44.8765   36.4956   42.2397 H   0  0  0  0  0  0  0  0  0  0  0  0
   47.1203   35.5547   41.5833 H   0  0  0  0  0  0  0  0  0  0  0  0
   42.6507   35.3177   43.8932 H   0  0  0  0  0  0  0  0  0  0  0  0
   45.2508   33.6241   47.7273 H   0  0  0  0  0  0  0  0  0  0  0  0
   43.8119   30.1959   48.3836 H   0  0  0  0  0  0  0  0  0  0  0  0
   45.4327   30.3611   49.1619 H   0  0  0  0  0  0  0  0  0  0  0  0
   44.7956   28.1144   48.8068 H   0  0  0  0  0  0  0  0  0  0  0  0
   46.1461   28.3826   47.6994 H   0  0  0  0  0  0  0  0  0  0  0  0
   45.4544   26.2008   46.5158 O   0  0  0  0  0  0  0  0  0  0  0  0
   44.4357   27.0970   46.1968 C   0  0  0  0  0  0  0  0  0  0  0  0
   44.1706   28.3326   46.8121 C   0  0  0  0  0  0  0  0  0  0  0  0
   43.0946   28.9965   46.2743 C   0  0  0  0  0  0  0  0  0  0  0  0
   42.8766   29.9357   46.7083 H   0  0  0  0  0  0  0  0  0  0  0  0
   42.3226   28.5466   45.2445 C   0  0  0  0  0  0  0  0  0  0  0  0
   42.5964   27.3360   44.6561 C   0  0  0  0  0  0  0  0  0  0  0  0
   43.6744   26.5972   45.1421 C   0  0  0  0  0  0  0  0  0  0  0  0
   43.8824   25.4036   44.5032 O   0  0  0  0  0  0  0  0  0  0  0  0
   46.1222   25.9184   45.8025 H   0  0  0  0  0  0  0  0  0  0  0  0
   41.4947   29.1670   44.9082 H   0  0  0  0  0  0  0  0  0  0  0  0
   41.9521   27.0368   43.8494 H   0  0  0  0  0  0  0  0  0  0  0  0
   43.6449   25.2444   43.5400 H   0  0  0  0  0  0  0  0  0  0  0  0
  1 13  1  0
  1  5  1  0
  2  1  1  0
  3  2  1  0
  3  4  1  0
  4  5  1  0
  5 14  1  0
  6 12  1  0
  6 11  2  0
  7  6  1  0
  8  7  2  0
  8  9  1  0
  9 10  2  0
 10 11  1  0
 10  2  1  0
 14 15  1  0
 16 15  1  0
  1 17  1  1
  2 18  1  1
  4 19  1  0
  4 20  1  0
  5 21  1  1
  7 22  1  0
  8 23  1  0
 12 24  1  0
 13 25  1  0
 15 26  1  0
 15 27  1  0
 16 28  1  0
 16 29  1  0
 30 31  1  0
 31 32  2  0
 32 33  1  0
 33 34  1  0
 33 35  2  0
 35 36  1  0
 36 37  2  0
 37 38  1  0
 37 31  1  0
 30 39  1  0
 35 40  1  0
 36 41  1  0
 38 42  1  0
 16 32  1  0
M  ISO  8  17  13  18  13  19  13  20  13  21  13  22  14  23  14  24   3
M  ISO  6  25   3  26   8  27   8  28   8  29   8  34  16
M  END
>  <DihAtoms>  (1) 
14,15,31,30

>  <DihDeg>  (1) 
-74.86948394222169

$$$$
