
 OpenBabel03252503473D

 46 49  0  0  1  0  0  0  0  0999 V2000
   45.8750   35.5900   42.7690 C   0  0  0  0  0  0  0  0  0  0  0  0
   45.8050   36.6420   43.0440 H   0  0  0  0  0  0  0  0  0  0  0  0
   46.8890   35.4610   42.2780 H   0  0  0  0  0  0  0  0  0  0  0  0
   44.7950   35.2160   41.8360 C   0  0  0  0  0  0  0  0  0  0  0  0
   43.4930   35.6430   41.9020 C   0  0  0  0  0  0  0  0  0  0  0  0
   42.5450   35.2570   40.9900 C   0  0  0  0  0  0  0  0  0  0  0  0
   42.9270   34.4000   39.9650 C   0  0  0  0  0  0  0  0  0  0  0  0
   44.2540   33.9570   39.8850 C   0  0  0  0  0  0  0  0  0  0  0  0
   45.1960   34.3700   40.8300 C   0  0  0  0  0  0  0  0  0  0  0  0
   43.3350   36.3060   42.7520 H   0  0  0  0  0  0  0  0  0  0  0  0
   41.5820   35.6750   41.1790 H   0  0  0  0  0  0  0  0  0  0  0  0
   42.0690   34.1830   39.3220 H   0  0  0  0  0  0  0  0  0  0  0  0
   44.2750   33.3130   39.0080 H   0  0  0  0  0  0  0  0  0  0  0  0
   46.3520   32.3570   40.8330 C   0  0  0  0  0  0  0  0  0  0  0  0
   46.3950   33.6820   40.3830 C   0  0  0  0  0  0  0  0  0  0  0  0
   47.5000   34.0990   39.6790 C   0  0  0  0  0  0  0  0  0  0  0  0
   47.3930   35.1420   39.3970 H   0  0  0  0  0  0  0  0  0  0  0  0
   48.5370   33.2290   39.4280 C   0  0  0  0  0  0  0  0  0  0  0  0
   48.4900   31.9240   39.8740 C   0  0  0  0  0  0  0  0  0  0  0  0
   47.4000   31.4690   40.5820 C   0  0  0  0  0  0  0  0  0  0  0  0
   45.3200   31.7390   41.5650 O   0  0  0  0  0  0  0  0  0  0  0  0
   45.3570   31.6560   42.5700 H   0  0  0  0  0  0  0  0  0  0  0  0
   47.4270   30.1460   40.9960 O   0  0  0  0  0  0  0  0  0  0  0  0
   46.5640   29.7050   41.3330 H   0  0  0  0  0  0  0  0  0  0  0  0
   44.9680   34.9070   44.9890 C   0  0  0  0  0  0  0  0  0  0  0  0
   45.8560   34.7330   43.9330 C   0  0  0  0  0  0  0  0  0  0  0  0
   46.7420   33.6630   44.0430 C   0  0  0  0  0  0  0  0  0  0  0  0
   46.7380   32.8350   45.1150 N   0  0  0  0  0  0  0  0  0  0  0  0
   45.8510   33.0460   46.1190 C   0  0  0  0  0  0  0  0  0  0  0  0
   44.9710   34.0760   46.0580 N   0  0  0  0  0  0  0  0  0  0  0  0
   44.2990   35.7460   44.8650 H   0  0  0  0  0  0  0  0  0  0  0  0
   47.5100   33.4110   43.3420 H   0  0  0  0  0  0  0  0  0  0  0  0
   47.3220   31.8080   47.6930 C   0  0  2  0  0  0  0  0  0  0  0  0
   45.8630   32.1380   47.2560 C   0  0  1  0  0  0  0  0  0  0  0  0
   45.4030   32.6350   48.4260 O   0  0  0  0  0  0  0  0  0  0  0  0
   45.7960   31.7940   49.4270 C   0  0  0  0  0  0  0  0  0  0  0  0
   46.9690   30.9740   48.9290 C   0  0  2  0  0  0  0  0  0  0  0  0
   47.8160   31.2050   46.9170 H   0  0  0  0  0  0  0  0  0  0  0  0
   45.3810   31.1670   47.0110 H   0  0  0  0  0  0  0  0  0  0  0  0
   44.9600   31.1870   49.8050 H   0  0  0  0  0  0  0  0  0  0  0  0
   46.1180   32.4470   50.2890 H   0  0  0  0  0  0  0  0  0  0  0  0
   46.5880   29.9850   48.6710 H   0  0  0  0  0  0  0  0  0  0  0  0
   47.9420   32.9240   48.1150 O   0  0  0  0  0  0  0  0  0  0  0  0
   48.8890   32.9000   47.8460 H   0  0  0  0  0  0  0  0  0  0  0  0
   47.9950   30.8760   49.8250 O   0  0  0  0  0  0  0  0  0  0  0  0
   48.7870   31.3780   49.5190 H   0  0  0  0  0  0  0  0  0  0  0  0
  1  2  1  0  0  0  0
  1 26  1  0  0  0  0
  3  1  1  0  0  0  0
  4  5  1  0  0  0  0
  4  1  1  0  0  0  0
  5 10  1  0  0  0  0
  6 11  1  0  0  0  0
  6  5  2  0  0  0  0
  7  6  1  0  0  0  0
  8  7  2  0  0  0  0
  8  9  1  0  0  0  0
  9  4  2  0  0  0  0
 12  7  1  0  0  0  0
 13  8  1  0  0  0  0
 14 21  1  0  0  0  0
 15  9  1  0  0  0  0
 15 14  2  0  0  0  0
 16 15  1  0  0  0  0
 17 16  1  0  0  0  0
 18 16  2  0  0  0  0
 18 19  1  0  0  0  0
 19 20  2  0  0  0  0
 20 14  1  0  0  0  0
 20 23  1  0  0  0  0
 21 22  1  0  0  0  0
 23 24  1  0  0  0  0
 25 30  1  0  0  0  0
 26 27  1  0  0  0  0
 26 25  2  0  0  0  0
 27 28  2  0  0  0  0
 28 29  1  0  0  0  0
 29 34  1  0  0  0  0
 30 29  2  0  0  0  0
 31 25  1  0  0  0  0
 32 27  1  0  0  0  0
 33 38  1  6  0  0  0
 33 43  1  0  0  0  0
 33 37  1  0  0  0  0
 34 39  1  6  0  0  0
 34 33  1  0  0  0  0
 34 35  1  0  0  0  0
 35 36  1  0  0  0  0
 36 40  1  0  0  0  0
 36 41  1  0  0  0  0
 37 42  1  6  0  0  0
 37 36  1  0  0  0  0
 37 45  1  0  0  0  0
 44 43  1  0  0  0  0
 46 45  1  0  0  0  0
M  END
>  <minimizedAffinity>
-7.08832932

>  <minimizedRMSD>
0.596144915

$$$$
