
 OpenBabel03252502533D

 33 35  0  0  0  0  0  0  0  0999 V2000
   46.0710   29.9930   44.5440 Br  0  0  0  0  0  0  0  0  0  0  0  0
   45.8040   30.6550   46.3420 C   0  0  0  0  0  0  0  0  0  0  0  0
   46.3200   31.8910   46.6150 C   0  0  0  0  0  0  0  0  0  0  0  0
   46.1000   32.3180   47.9210 C   0  0  0  0  0  0  0  0  0  0  0  0
   45.4300   31.5890   48.8690 C   0  0  0  0  0  0  0  0  0  0  0  0
   44.9440   30.3640   48.5170 C   0  0  0  0  0  0  0  0  0  0  0  0
   45.1170   29.8620   47.2450 C   0  0  0  0  0  0  0  0  0  0  0  0
   46.4720   33.2950   48.2460 H   0  0  0  0  0  0  0  0  0  0  0  0
   45.2790   31.9580   49.8770 H   0  0  0  0  0  0  0  0  0  0  0  0
   44.4100   29.7340   49.2010 H   0  0  0  0  0  0  0  0  0  0  0  0
   45.4320   27.5140   47.2400 C   0  0  0  0  0  0  0  0  0  0  0  0
   44.6050   28.5420   46.8320 C   0  0  0  0  0  0  0  0  0  0  0  0
   43.4550   28.2590   46.1230 C   0  0  0  0  0  0  0  0  0  0  0  0
   42.8850   29.1330   45.8560 H   0  0  0  0  0  0  0  0  0  0  0  0
   43.1660   26.9400   45.8440 C   0  0  0  0  0  3  0  0  0  0  0  0
   43.9900   25.9110   46.2500 C   0  0  0  0  0  3  0  0  0  0  0  0
   45.1530   26.2090   46.9670 C   0  0  0  0  0  0  0  0  0  0  0  0
   46.6240   27.6850   47.9630 O   0  0  0  0  0  0  0  0  0  0  0  0
   47.0780   28.5950   48.0130 H   0  0  0  0  0  0  0  0  0  0  0  0
   45.9030   25.0950   47.3220 O   0  0  0  0  0  0  0  0  0  0  0  0
   46.6820   24.8650   46.6870 H   0  0  0  0  0  0  0  0  0  0  0  0
   47.0540   32.7650   45.6940 C   0  0  0  0  0  0  0  0  0  0  0  0
   47.8930   33.2410   46.2400 H   0  0  0  0  0  0  0  0  0  0  0  0
   47.5140   32.1290   44.8990 H   0  0  0  0  0  0  0  0  0  0  0  0
   44.5000   35.4190   45.1370 C   0  0  0  0  0  0  0  0  0  0  0  0
   44.7440   35.7710   43.8020 C   0  0  0  0  0  0  0  0  0  0  0  0
   45.7620   35.1030   43.1300 C   0  0  0  0  0  0  0  0  0  0  0  0
   46.4780   34.1440   43.7780 N   0  0  0  0  0  0  0  0  0  0  0  0
   46.2130   33.8260   45.0840 C   0  0  0  0  0  0  0  0  0  0  0  0
   45.2270   34.4740   45.7320 N   0  0  0  0  0  0  0  0  0  0  0  0
   43.6990   35.9660   45.6190 H   0  0  0  0  0  0  0  0  0  0  0  0
   44.1780   36.5340   43.2770 H   0  0  0  0  0  0  0  0  0  0  0  0
   46.0280   35.3010   42.1000 H   0  0  0  0  0  0  0  0  0  0  0  0
  1  2  1  0  0  0  0
  2  3  2  0  0  0  0
  2  7  1  0  0  0  0
  3  4  1  0  0  0  0
  4  8  1  0  0  0  0
  4  5  2  0  0  0  0
  5  9  1  0  0  0  0
  6  5  1  0  0  0  0
  6 10  1  0  0  0  0
  7  6  2  0  0  0  0
 11 18  1  0  0  0  0
 12 11  2  0  0  0  0
 12  7  1  0  0  0  0
 13 12  1  0  0  0  0
 14 13  1  0  0  0  0
 15 13  2  0  0  0  0
 15 16  1  0  0  0  0
 16 17  2  0  0  0  0
 17 11  1  0  0  0  0
 17 20  1  0  0  0  0
 18 19  1  0  0  0  0
 21 20  1  0  0  0  0
 22 23  1  0  0  0  0
 22  3  1  0  0  0  0
 24 22  1  0  0  0  0
 25 31  1  0  0  0  0
 25 30  1  0  0  0  0
 26 25  2  0  0  0  0
 27 28  2  0  0  0  0
 27 26  1  0  0  0  0
 28 29  1  0  0  0  0
 29 22  1  0  0  0  0
 29 30  2  0  0  0  0
 32 26  1  0  0  0  0
 33 27  1  0  0  0  0
M  END
>  <minimizedAffinity>
-5.55289602

>  <minimizedRMSD>
1.55868971

$$$$
