
 OpenBabel03242511133D

 46 50  0  0  1  0  0  0  0  0999 V2000
   50.0790   31.6800   42.3890 C   0  0  1  0  0  0  0  0  0  0  0  0
   49.6960   31.9290   40.9530 C   0  0  0  0  0  0  0  0  0  0  0  0
   48.6510   31.7860   42.0870 C   0  0  2  0  0  0  0  0  0  0  0  0
   50.5310   32.5300   42.8990 H   0  0  0  0  0  0  0  0  0  0  0  0
   49.8290   31.0360   40.2970 H   0  0  0  0  0  0  0  0  0  0  0  0
   49.8390   32.9370   40.5220 H   0  0  0  0  0  0  0  0  0  0  0  0
   48.0140   30.8770   42.0660 H   0  0  0  0  0  0  0  0  0  0  0  0
   50.3590   28.0750   43.1740 C   0  0  0  0  0  0  0  0  0  0  0  0
   51.7660   27.9470   43.4510 C   0  0  0  0  0  0  0  0  0  0  0  0
   52.5610   29.1010   43.3570 C   0  0  0  0  0  0  0  0  0  0  0  0
   51.9960   30.2570   43.0170 N   0  0  0  0  0  0  0  0  0  0  0  0
   50.6700   30.3460   42.7630 C   0  0  0  0  0  0  0  0  0  0  0  0
   49.8220   29.2560   42.8350 N   0  0  0  0  0  0  0  0  0  0  0  0
   49.7320   27.1860   43.2440 H   0  0  0  0  0  0  0  0  0  0  0  0
   52.1590   27.0000   43.7160 H   0  0  0  0  0  0  0  0  0  0  0  0
   54.5430   29.8470   44.5970 C   0  0  0  0  0  0  0  0  0  0  0  0
   53.9900   29.0450   43.6220 C   0  0  0  0  0  0  0  0  0  0  0  0
   54.8850   28.2330   42.9660 C   0  0  0  0  0  0  0  0  0  0  0  0
   54.5220   27.5790   42.1910 H   0  0  0  0  0  0  0  0  0  0  0  0
   56.2240   28.1700   43.2050 C   0  0  0  0  0  0  0  0  0  0  0  0
   56.7500   28.9890   44.1920 C   0  0  0  0  0  0  0  0  0  0  0  0
   55.9020   29.8270   44.8870 C   0  0  0  0  0  0  0  0  0  0  0  0
   53.6720   30.6930   45.2940 O   0  0  0  0  0  0  0  0  0  0  0  0
   53.1240   30.2470   46.0270 H   0  0  0  0  0  0  0  0  0  0  0  0
   56.3110   30.6970   45.9010 O   0  0  0  0  0  0  0  0  0  0  0  0
   56.5660   31.6600   45.6830 H   0  0  0  0  0  0  0  0  0  0  0  0
   47.9560   32.9800   42.4730 N   0  0  0  0  0  0  0  0  0  0  0  0
   48.1850   33.6660   41.7280 H   0  0  0  0  0  0  0  0  0  0  0  0
   47.1970   33.0500   43.6520 C   0  0  0  0  0  0  0  0  0  0  0  0
   47.3900   32.1120   44.6350 C   0  0  0  0  0  0  0  0  0  0  0  0
   46.7310   32.1550   45.8540 C   0  0  0  0  0  0  0  0  0  0  0  0
   45.8350   33.1620   46.1370 C   0  0  0  0  0  0  0  0  0  0  0  0
   45.6220   34.1200   45.1620 C   0  0  0  0  0  0  0  0  0  0  0  0
   44.7370   35.1420   45.4330 C   0  0  0  0  0  0  0  0  0  0  0  0
   44.4850   36.1200   44.5220 C   0  0  0  0  0  0  0  0  0  0  0  0
   45.1570   36.0440   43.3090 C   0  0  0  0  0  0  0  0  0  0  0  0
   46.0320   35.0250   43.0560 C   0  0  0  0  0  0  0  0  0  0  0  0
   46.2940   34.0450   43.9620 C   0  0  0  0  0  0  0  0  0  0  0  0
   48.0740   31.2780   44.5100 H   0  0  0  0  0  0  0  0  0  0  0  0
   46.8830   31.4180   46.6230 H   0  0  0  0  0  0  0  0  0  0  0  0
   45.3270   33.1880   47.0920 H   0  0  0  0  0  0  0  0  0  0  0  0
   44.2260   35.1750   46.3860 H   0  0  0  0  0  0  0  0  0  0  0  0
   43.7940   36.9430   44.7000 H   0  0  0  0  0  0  0  0  0  0  0  0
   44.9610   36.8250   42.5700 H   0  0  0  0  0  0  0  0  0  0  0  0
   46.6660   34.9910   41.8370 O   0  0  0  0  0  0  0  0  0  0  0  0
   46.2720   35.2310   40.9580 H   0  0  0  0  0  0  0  0  0  0  0  0
  1 12  1  0  0  0  0
  1  4  1  1  0  0  0
  2  3  1  0  0  0  0
  2  1  1  0  0  0  0
  3  7  1  1  0  0  0
  3  1  1  0  0  0  0
  3 27  1  0  0  0  0
  5  2  1  0  0  0  0
  6  2  1  0  0  0  0
  8 14  1  0  0  0  0
  8  9  1  0  0  0  0
  9 15  1  0  0  0  0
 10  9  2  0  0  0  0
 10 17  1  0  0  0  0
 11 10  1  0  0  0  0
 12 13  1  0  0  0  0
 12 11  2  0  0  0  0
 13  8  2  0  0  0  0
 16 22  1  0  0  0  0
 16 23  1  0  0  0  0
 17 16  2  0  0  0  0
 18 20  2  0  0  0  0
 18 17  1  0  0  0  0
 19 18  1  0  0  0  0
 20 21  1  0  0  0  0
 21 22  2  0  0  0  0
 22 25  1  0  0  0  0
 23 24  1  0  0  0  0
 26 25  1  0  0  0  0
 27 29  1  0  0  0  0
 28 27  1  0  0  0  0
 29 38  2  0  0  0  0
 29 30  1  0  0  0  0
 30 31  2  0  0  0  0
 31 32  1  0  0  0  0
 31 40  1  0  0  0  0
 32 41  1  0  0  0  0
 33 34  1  0  0  0  0
 33 32  2  0  0  0  0
 34 42  1  0  0  0  0
 35 43  1  0  0  0  0
 35 34  2  0  0  0  0
 36 35  1  0  0  0  0
 37 36  2  0  0  0  0
 37 38  1  0  0  0  0
 38 33  1  0  0  0  0
 39 30  1  0  0  0  0
 44 36  1  0  0  0  0
 45 37  1  0  0  0  0
 46 45  1  0  0  0  0
M  END
>  <minimizedAffinity>
-5.4575882

>  <minimizedRMSD>
1.16434205

$$$$
