
 OpenBabel03242518483D

 47 50  0  0  1  0  0  0  0  0999 V2000
   39.3080   30.8140   39.8620 C   0  0  2  0  0  0  0  0  0  0  0  0
   39.0270   32.0910   39.1520 C   0  0  1  0  0  0  0  0  0  0  0  0
   37.9250   32.9030   39.8380 C   0  0  0  0  0  0  0  0  0  0  0  0
   36.8520   32.0100   39.9250 O   0  0  0  0  0  0  0  0  0  0  0  0
   37.0680   31.0550   40.8940 C   0  0  0  0  0  0  0  0  0  0  0  0
   38.5110   30.7840   41.1810 C   0  0  1  0  0  0  0  0  0  0  0  0
   38.9490   29.9480   39.2770 H   0  0  0  0  0  0  0  0  0  0  0  0
   38.6990   31.8800   38.0930 H   0  0  0  0  0  0  0  0  0  0  0  0
   37.5860   33.7110   39.1490 H   0  0  0  0  0  0  0  0  0  0  0  0
   38.2480   33.2820   40.8080 H   0  0  0  0  0  0  0  0  0  0  0  0
   36.5960   30.0780   40.6300 H   0  0  0  0  0  0  0  0  0  0  0  0
   36.5710   31.4410   41.8320 H   0  0  0  0  0  0  0  0  0  0  0  0
   38.9950   31.5690   41.8020 H   0  0  0  0  0  0  0  0  0  0  0  0
   41.8920   33.8890   37.7550 C   0  0  0  0  0  0  0  0  0  0  0  0
   42.3280   34.7370   38.8170 C   0  0  0  0  0  0  0  0  0  0  0  0
   41.5750   34.6410   40.0170 C   0  0  0  0  0  0  0  0  0  0  0  0
   40.5310   33.7860   40.0810 N   0  0  0  0  0  0  0  0  0  0  0  0
   40.1720   33.0110   39.0360 C   0  0  0  0  0  0  0  0  0  0  0  0
   40.8570   33.0650   37.8720 N   0  0  0  0  0  0  0  0  0  0  0  0
   43.1530   35.3940   38.7210 H   0  0  0  0  0  0  0  0  0  0  0  0
   41.8930   35.2780   40.8290 H   0  0  0  0  0  0  0  0  0  0  0  0
   42.6030   33.9620   36.5910 O   0  0  0  0  0  0  0  0  0  0  0  0
   42.2980   33.6000   35.7070 H   0  0  0  0  0  0  0  0  0  0  0  0
   40.6560   30.6260   40.1670 O   0  0  0  0  0  0  0  0  0  0  0  0
   41.0330   31.3710   40.6630 H   0  0  0  0  0  0  0  0  0  0  0  0
   38.7390   29.5510   41.7500 O   0  0  0  0  0  0  0  0  0  0  0  0
   38.4640   27.4100   40.1250 F   0  0  0  0  0  0  0  0  0  0  0  0
   37.9100   27.5300   41.3490 C   0  0  0  0  0  0  0  0  0  0  0  0
   37.9980   28.5770   42.2440 C   0  0  0  0  0  0  0  0  0  0  0  0
   37.3140   28.3900   43.4350 C   0  0  0  0  0  0  0  0  0  0  0  0
   36.5800   27.2900   43.7910 C   0  0  0  0  0  0  0  0  0  0  0  0
   36.5290   26.2880   42.8700 C   0  0  0  0  0  0  0  0  0  0  0  0
   37.1730   26.3660   41.6470 C   0  0  0  0  0  0  0  0  0  0  0  0
   37.4330   29.2690   44.0940 H   0  0  0  0  0  0  0  0  0  0  0  0
   36.0970   27.2730   44.7490 H   0  0  0  0  0  0  0  0  0  0  0  0
   35.9410   25.3970   43.1440 H   0  0  0  0  0  0  0  0  0  0  0  0
   37.7040   24.1000   41.2350 C   0  0  0  0  0  0  0  0  0  0  0  0
   37.0160   25.2040   40.7750 C   0  0  0  0  0  0  0  0  0  0  0  0
   36.2980   25.1290   39.6280 C   0  0  0  0  0  0  0  0  0  0  0  0
   35.7830   26.0310   39.3240 H   0  0  0  0  0  0  0  0  0  0  0  0
   36.2690   23.9270   38.9300 C   0  0  0  0  0  3  0  0  0  0  0  0
   36.9480   22.8080   39.3690 C   0  0  0  0  0  3  0  0  0  0  0  0
   37.6860   22.9010   40.5550 C   0  0  0  0  0  0  0  0  0  0  0  0
   38.4780   24.0660   42.4090 O   0  0  0  0  0  0  0  0  0  0  0  0
   39.3900   24.5050   42.3510 H   0  0  0  0  0  0  0  0  0  0  0  0
   38.3420   21.7400   40.9380 O   0  0  0  0  0  0  0  0  0  0  0  0
   39.1110   21.7790   41.5870 H   0  0  0  0  0  0  0  0  0  0  0  0
  1  7  1  6  0  0  0
  1 24  1  0  0  0  0
  1  6  1  0  0  0  0
  2  8  1  6  0  0  0
  2  3  1  0  0  0  0
  2  1  1  0  0  0  0
  3  4  1  0  0  0  0
  3 10  1  0  0  0  0
  4  5  1  0  0  0  0
  5  6  1  0  0  0  0
  5 12  1  0  0  0  0
  6 26  1  0  0  0  0
  6 13  1  1  0  0  0
  9  3  1  0  0  0  0
 11  5  1  0  0  0  0
 14 19  2  0  0  0  0
 14 15  1  0  0  0  0
 15 16  2  0  0  0  0
 16 17  1  0  0  0  0
 16 21  1  0  0  0  0
 18  2  1  0  0  0  0
 18 17  2  0  0  0  0
 19 18  1  0  0  0  0
 20 15  1  0  0  0  0
 22 14  1  0  0  0  0
 23 22  1  0  0  0  0
 24 25  1  0  0  0  0
 26 29  1  0  0  0  0
 27 28  1  0  0  0  0
 28 33  2  0  0  0  0
 28 29  1  0  0  0  0
 29 30  2  0  0  0  0
 30 31  1  0  0  0  0
 30 34  1  0  0  0  0
 31 35  1  0  0  0  0
 32 36  1  0  0  0  0
 32 31  2  0  0  0  0
 33 32  1  0  0  0  0
 37 44  1  0  0  0  0
 38 37  1  0  0  0  0
 38 33  1  0  0  0  0
 39 38  2  0  0  0  0
 40 39  1  0  0  0  0
 41 42  2  0  0  0  0
 41 39  1  0  0  0  0
 42 43  1  0  0  0  0
 43 46  1  0  0  0  0
 43 37  2  0  0  0  0
 45 44  1  0  0  0  0
 46 47  1  0  0  0  0
M  END
>  <minimizedAffinity>
-7.62493086

$$$$

 OpenBabel03242518483D

 47 50  0  0  1  0  0  0  0  0999 V2000
   40.0400   32.7670   39.0920 C   0  0  2  0  0  0  0  0  0  0  0  0
   40.5890   34.1180   39.3910 C   0  0  1  0  0  0  0  0  0  0  0  0
   39.7370   34.8740   40.4140 C   0  0  0  0  0  0  0  0  0  0  0  0
   38.4500   34.8510   39.8640 O   0  0  0  0  0  0  0  0  0  0  0  0
   37.8780   33.6020   39.9710 C   0  0  0  0  0  0  0  0  0  0  0  0
   38.8640   32.4780   40.0440 C   0  0  1  0  0  0  0  0  0  0  0  0
   39.6150   32.7290   38.0720 H   0  0  0  0  0  0  0  0  0  0  0  0
   40.6330   34.7350   38.4460 H   0  0  0  0  0  0  0  0  0  0  0  0
   40.0400   35.9460   40.4180 H   0  0  0  0  0  0  0  0  0  0  0  0
   39.7900   34.4140   41.4010 H   0  0  0  0  0  0  0  0  0  0  0  0
   37.1920   33.3830   39.1170 H   0  0  0  0  0  0  0  0  0  0  0  0
   37.2640   33.6170   40.9180 H   0  0  0  0  0  0  0  0  0  0  0  0
   39.3470   32.3760   41.0410 H   0  0  0  0  0  0  0  0  0  0  0  0
   43.3580   34.2800   41.7770 C   0  0  0  0  0  0  0  0  0  0  0  0
   44.5280   34.1670   40.9680 C   0  0  0  0  0  0  0  0  0  0  0  0
   44.2910   34.0340   39.5750 C   0  0  0  0  0  0  0  0  0  0  0  0
   43.0210   34.0230   39.1140 N   0  0  0  0  0  0  0  0  0  0  0  0
   41.9570   34.1330   39.9380 C   0  0  0  0  0  0  0  0  0  0  0  0
   42.1300   34.2620   41.2720 N   0  0  0  0  0  0  0  0  0  0  0  0
   45.5070   34.1810   41.3730 H   0  0  0  0  0  0  0  0  0  0  0  0
   45.1670   33.9470   38.9500 H   0  0  0  0  0  0  0  0  0  0  0  0
   43.5620   34.4100   43.1220 O   0  0  0  0  0  0  0  0  0  0  0  0
   42.8590   34.2860   43.8250 H   0  0  0  0  0  0  0  0  0  0  0  0
   40.9720   31.7390   39.2310 O   0  0  0  0  0  0  0  0  0  0  0  0
   41.3980   31.7380   40.1040 H   0  0  0  0  0  0  0  0  0  0  0  0
   38.3420   31.2610   39.6680 O   0  0  0  0  0  0  0  0  0  0  0  0
   39.6920   29.3400   41.0080 F   0  0  0  0  0  0  0  0  0  0  0  0
   38.3510   29.4000   40.8800 C   0  0  0  0  0  0  0  0  0  0  0  0
   37.5800   30.3370   40.2220 C   0  0  0  0  0  0  0  0  0  0  0  0
   36.2120   30.1200   40.2820 C   0  0  0  0  0  0  0  0  0  0  0  0
   35.5770   29.0870   40.9190 C   0  0  0  0  0  0  0  0  0  0  0  0
   36.3870   28.1930   41.5510 C   0  0  0  0  0  0  0  0  0  0  0  0
   37.7660   28.3100   41.5570 C   0  0  0  0  0  0  0  0  0  0  0  0
   35.6680   30.9100   39.7330 H   0  0  0  0  0  0  0  0  0  0  0  0
   34.5060   29.0350   40.8880 H   0  0  0  0  0  0  0  0  0  0  0  0
   35.8880   27.3570   42.0670 H   0  0  0  0  0  0  0  0  0  0  0  0
   38.3810   26.0310   41.6750 C   0  0  0  0  0  0  0  0  0  0  0  0
   38.4860   27.2660   42.2820 C   0  0  0  0  0  0  0  0  0  0  0  0
   39.2000   27.4030   43.4260 C   0  0  0  0  0  0  0  0  0  0  0  0
   39.2410   28.3970   43.8500 H   0  0  0  0  0  0  0  0  0  0  0  0
   39.8190   26.2830   43.9710 C   0  0  0  0  0  3  0  0  0  0  0  0
   39.7300   25.0370   43.3820 C   0  0  0  0  0  3  0  0  0  0  0  0
   38.9890   24.9110   42.2010 C   0  0  0  0  0  0  0  0  0  0  0  0
   37.6680   25.7760   40.4890 O   0  0  0  0  0  0  0  0  0  0  0  0
   36.6600   25.7210   40.5810 H   0  0  0  0  0  0  0  0  0  0  0  0
   38.9420   23.6330   41.6640 O   0  0  0  0  0  0  0  0  0  0  0  0
   38.2200   23.3820   41.0080 H   0  0  0  0  0  0  0  0  0  0  0  0
  1  7  1  6  0  0  0
  1 24  1  0  0  0  0
  1  2  1  0  0  0  0
  1  6  1  0  0  0  0
  2  8  1  6  0  0  0
  2 18  1  0  0  0  0
  2  3  1  0  0  0  0
  3  9  1  0  0  0  0
  3 10  1  0  0  0  0
  4  5  1  0  0  0  0
  4  3  1  0  0  0  0
  5  6  1  0  0  0  0
  5 12  1  0  0  0  0
  6 13  1  1  0  0  0
 11  5  1  0  0  0  0
 14 22  1  0  0  0  0
 15 20  1  0  0  0  0
 15 14  2  0  0  0  0
 16 15  1  0  0  0  0
 17 16  2  0  0  0  0
 17 18  1  0  0  0  0
 18 19  2  0  0  0  0
 19 14  1  0  0  0  0
 21 16  1  0  0  0  0
 22 23  1  0  0  0  0
 24 25  1  0  0  0  0
 26  6  1  0  0  0  0
 26 29  1  0  0  0  0
 28 27  1  0  0  0  0
 28 33  1  0  0  0  0
 29 30  1  0  0  0  0
 29 28  2  0  0  0  0
 30 31  2  0  0  0  0
 31 32  1  0  0  0  0
 32 33  2  0  0  0  0
 32 36  1  0  0  0  0
 33 38  1  0  0  0  0
 34 30  1  0  0  0  0
 35 31  1  0  0  0  0
 37 43  2  0  0  0  0
 37 38  1  0  0  0  0
 38 39  2  0  0  0  0
 39 40  1  0  0  0  0
 39 41  1  0  0  0  0
 42 41  2  0  0  0  0
 43 42  1  0  0  0  0
 44 45  1  0  0  0  0
 44 37  1  0  0  0  0
 46 43  1  0  0  0  0
 47 46  1  0  0  0  0
M  END
>  <minimizedAffinity>
-7.34908915

$$$$

 OpenBabel03242518483D

 47 50  0  0  1  0  0  0  0  0999 V2000
   37.8890   29.2450   41.9460 C   0  0  2  0  0  0  0  0  0  0  0  0
   36.9020   28.1880   41.6010 C   0  0  1  0  0  0  0  0  0  0  0  0
   35.9900   28.6040   40.4430 C   0  0  0  0  0  0  0  0  0  0  0  0
   35.4490   29.8250   40.8620 O   0  0  0  0  0  0  0  0  0  0  0  0
   36.3790   30.8390   40.7960 C   0  0  0  0  0  0  0  0  0  0  0  0
   37.7990   30.3800   40.9070 C   0  0  1  0  0  0  0  0  0  0  0  0
   37.6470   29.7120   42.9180 H   0  0  0  0  0  0  0  0  0  0  0  0
   36.2510   27.9590   42.4950 H   0  0  0  0  0  0  0  0  0  0  0  0
   35.1290   27.9000   40.3870 H   0  0  0  0  0  0  0  0  0  0  0  0
   36.5390   28.6790   39.5050 H   0  0  0  0  0  0  0  0  0  0  0  0
   36.2190   31.6060   41.5910 H   0  0  0  0  0  0  0  0  0  0  0  0
   36.2300   31.3380   39.7940 H   0  0  0  0  0  0  0  0  0  0  0  0
   38.1900   29.9170   39.9740 H   0  0  0  0  0  0  0  0  0  0  0  0
   38.2030   24.7720   41.7730 C   0  0  0  0  0  0  0  0  0  0  0  0
   38.5730   24.4680   40.4280 C   0  0  0  0  0  0  0  0  0  0  0  0
   38.3430   25.5050   39.4870 C   0  0  0  0  0  0  0  0  0  0  0  0
   37.8090   26.6740   39.9020 N   0  0  0  0  0  0  0  0  0  0  0  0
   37.4810   26.8960   41.1930 C   0  0  0  0  0  0  0  0  0  0  0  0
   37.6800   25.9400   42.1280 N   0  0  0  0  0  0  0  0  0  0  0  0
   38.9890   23.5350   40.1480 H   0  0  0  0  0  0  0  0  0  0  0  0
   38.6180   25.2880   38.4650 H   0  0  0  0  0  0  0  0  0  0  0  0
   38.4170   23.7890   42.6970 O   0  0  0  0  0  0  0  0  0  0  0  0
   38.0220   23.7700   43.6180 H   0  0  0  0  0  0  0  0  0  0  0  0
   39.2080   28.7930   41.9790 O   0  0  0  0  0  0  0  0  0  0  0  0
   39.4710   28.3500   41.1560 H   0  0  0  0  0  0  0  0  0  0  0  0
   38.6670   31.3640   41.3220 O   0  0  0  0  0  0  0  0  0  0  0  0
   41.3060   31.6080   40.7890 F   0  0  0  0  0  0  0  0  0  0  0  0
   40.3930   32.5900   40.6470 C   0  0  0  0  0  0  0  0  0  0  0  0
   39.0340   32.5560   40.8910 C   0  0  0  0  0  0  0  0  0  0  0  0
   38.3620   33.7420   40.6370 C   0  0  0  0  0  0  0  0  0  0  0  0
   38.9120   34.9100   40.1780 C   0  0  0  0  0  0  0  0  0  0  0  0
   40.2550   34.8850   39.9560 C   0  0  0  0  0  0  0  0  0  0  0  0
   41.0270   33.7570   40.1750 C   0  0  0  0  0  0  0  0  0  0  0  0
   37.2840   33.6340   40.8550 H   0  0  0  0  0  0  0  0  0  0  0  0
   38.2760   35.7600   40.0230 H   0  0  0  0  0  0  0  0  0  0  0  0
   40.7100   35.8190   39.5870 H   0  0  0  0  0  0  0  0  0  0  0  0
   42.7320   33.8030   38.5380 C   0  0  0  0  0  0  0  0  0  0  0  0
   42.4520   33.9010   39.8860 C   0  0  0  0  0  0  0  0  0  0  0  0
   43.4540   34.1070   40.7760 C   0  0  0  0  0  0  0  0  0  0  0  0
   43.1660   34.1730   41.8170 H   0  0  0  0  0  0  0  0  0  0  0  0
   44.7580   34.2180   40.3060 C   0  0  0  0  0  3  0  0  0  0  0  0
   45.0630   34.1240   38.9630 C   0  0  0  0  0  3  0  0  0  0  0  0
   44.0190   33.9110   38.0560 C   0  0  0  0  0  0  0  0  0  0  0  0
   41.7720   33.5910   37.5310 O   0  0  0  0  0  0  0  0  0  0  0  0
   41.4270   32.6420   37.4420 H   0  0  0  0  0  0  0  0  0  0  0  0
   44.3970   33.8270   36.7240 O   0  0  0  0  0  0  0  0  0  0  0  0
   43.7890   33.3950   36.0470 H   0  0  0  0  0  0  0  0  0  0  0  0
  1 24  1  0  0  0  0
  1  7  1  1  0  0  0
  2  1  1  0  0  0  0
  2  8  1  1  0  0  0
  3  4  1  0  0  0  0
  3  2  1  0  0  0  0
  5  4  1  0  0  0  0
  5  6  1  0  0  0  0
  5 11  1  0  0  0  0
  6 13  1  6  0  0  0
  6 26  1  0  0  0  0
  6  1  1  0  0  0  0
  9  3  1  0  0  0  0
 10  3  1  0  0  0  0
 12  5  1  0  0  0  0
 14 19  1  0  0  0  0
 14 22  1  0  0  0  0
 15 14  2  0  0  0  0
 16 17  2  0  0  0  0
 16 15  1  0  0  0  0
 17 18  1  0  0  0  0
 18  2  1  0  0  0  0
 18 19  2  0  0  0  0
 20 15  1  0  0  0  0
 21 16  1  0  0  0  0
 22 23  1  0  0  0  0
 25 24  1  0  0  0  0
 28 27  1  0  0  0  0
 28 29  1  0  0  0  0
 29 26  1  0  0  0  0
 30 34  1  0  0  0  0
 30 29  2  0  0  0  0
 31 30  1  0  0  0  0
 32 33  1  0  0  0  0
 32 31  2  0  0  0  0
 33 28  2  0  0  0  0
 35 31  1  0  0  0  0
 36 32  1  0  0  0  0
 37 38  1  0  0  0  0
 38 33  1  0  0  0  0
 38 39  2  0  0  0  0
 39 40  1  0  0  0  0
 41 39  1  0  0  0  0
 42 41  2  0  0  0  0
 43 37  2  0  0  0  0
 43 42  1  0  0  0  0
 44 37  1  0  0  0  0
 45 44  1  0  0  0  0
 46 43  1  0  0  0  0
 47 46  1  0  0  0  0
M  END
>  <minimizedAffinity>
-7.21763611

$$$$

 OpenBabel03242518483D

 47 50  0  0  1  0  0  0  0  0999 V2000
   40.3100   32.8860   38.7080 C   0  0  2  0  0  0  0  0  0  0  0  0
   41.0480   34.1410   39.0130 C   0  0  1  0  0  0  0  0  0  0  0  0
   40.6420   34.7380   40.3630 C   0  0  0  0  0  0  0  0  0  0  0  0
   39.2510   34.8600   40.2720 O   0  0  0  0  0  0  0  0  0  0  0  0
   38.6290   33.6350   40.3680 C   0  0  0  0  0  0  0  0  0  0  0  0
   39.4770   32.4790   39.9390 C   0  0  1  0  0  0  0  0  0  0  0  0
   39.5800   33.0430   37.8930 H   0  0  0  0  0  0  0  0  0  0  0  0
   40.8470   34.9120   38.2130 H   0  0  0  0  0  0  0  0  0  0  0  0
   41.0300   35.7800   40.4310 H   0  0  0  0  0  0  0  0  0  0  0  0
   40.9640   34.1110   41.1940 H   0  0  0  0  0  0  0  0  0  0  0  0
   37.6900   33.5950   39.7660 H   0  0  0  0  0  0  0  0  0  0  0  0
   38.3530   33.5070   41.4560 H   0  0  0  0  0  0  0  0  0  0  0  0
   40.2410   32.1860   40.6930 H   0  0  0  0  0  0  0  0  0  0  0  0
   44.5420   33.8580   37.9610 C   0  0  0  0  0  0  0  0  0  0  0  0
   45.2710   33.7560   39.1840 C   0  0  0  0  0  0  0  0  0  0  0  0
   44.4840   33.7920   40.3640 C   0  0  0  0  0  0  0  0  0  0  0  0
   43.1420   33.9160   40.2650 N   0  0  0  0  0  0  0  0  0  0  0  0
   42.5150   34.0080   39.0730 C   0  0  0  0  0  0  0  0  0  0  0  0
   43.2200   33.9790   37.9200 N   0  0  0  0  0  0  0  0  0  0  0  0
   46.3260   33.6610   39.2130 H   0  0  0  0  0  0  0  0  0  0  0  0
   45.0220   33.7170   41.2970 H   0  0  0  0  0  0  0  0  0  0  0  0
   45.2800   33.8240   36.8110 O   0  0  0  0  0  0  0  0  0  0  0  0
   44.9460   34.0940   35.9060 H   0  0  0  0  0  0  0  0  0  0  0  0
   41.1370   31.8140   38.3730 O   0  0  0  0  0  0  0  0  0  0  0  0
   41.8180   31.6440   39.0450 H   0  0  0  0  0  0  0  0  0  0  0  0
   38.7520   31.3670   39.5740 O   0  0  0  0  0  0  0  0  0  0  0  0
   39.9530   29.3210   40.8690 F   0  0  0  0  0  0  0  0  0  0  0  0
   38.6210   29.5200   40.8020 C   0  0  0  0  0  0  0  0  0  0  0  0
   37.9230   30.5310   40.1710 C   0  0  0  0  0  0  0  0  0  0  0  0
   36.5440   30.4580   40.2940 C   0  0  0  0  0  0  0  0  0  0  0  0
   35.8350   29.5000   40.9690 C   0  0  0  0  0  0  0  0  0  0  0  0
   36.5740   28.5290   41.5710 C   0  0  0  0  0  0  0  0  0  0  0  0
   37.9570   28.5010   41.5130 C   0  0  0  0  0  0  0  0  0  0  0  0
   36.0610   31.2990   39.7640 H   0  0  0  0  0  0  0  0  0  0  0  0
   34.7630   29.5610   40.9870 H   0  0  0  0  0  0  0  0  0  0  0  0
   36.0150   27.7520   42.1170 H   0  0  0  0  0  0  0  0  0  0  0  0
   38.5660   26.2170   41.4870 C   0  0  0  0  0  0  0  0  0  0  0  0
   38.5960   27.3890   42.2140 C   0  0  0  0  0  0  0  0  0  0  0  0
   39.1770   27.4150   43.4390 C   0  0  0  0  0  0  0  0  0  0  0  0
   39.1660   28.3660   43.9550 H   0  0  0  0  0  0  0  0  0  0  0  0
   39.7370   26.2460   43.9420 C   0  0  0  0  0  3  0  0  0  0  0  0
   39.7200   25.0610   43.2340 C   0  0  0  0  0  3  0  0  0  0  0  0
   39.1160   25.0500   41.9710 C   0  0  0  0  0  0  0  0  0  0  0  0
   37.9910   26.0770   40.2100 O   0  0  0  0  0  0  0  0  0  0  0  0
   36.9790   26.0200   40.1840 H   0  0  0  0  0  0  0  0  0  0  0  0
   39.1350   23.8270   41.3160 O   0  0  0  0  0  0  0  0  0  0  0  0
   38.4930   23.6420   40.5630 H   0  0  0  0  0  0  0  0  0  0  0  0
  1  7  1  6  0  0  0
  1  2  1  0  0  0  0
  1  6  1  0  0  0  0
  2  8  1  6  0  0  0
  2 18  1  0  0  0  0
  2  3  1  0  0  0  0
  3  9  1  0  0  0  0
  3 10  1  0  0  0  0
  4  3  1  0  0  0  0
  4  5  1  0  0  0  0
  5 12  1  0  0  0  0
  6  5  1  0  0  0  0
  6 13  1  1  0  0  0
 11  5  1  0  0  0  0
 14 15  1  0  0  0  0
 15 20  1  0  0  0  0
 15 16  2  0  0  0  0
 16 21  1  0  0  0  0
 17 16  1  0  0  0  0
 18 17  2  0  0  0  0
 19 14  2  0  0  0  0
 19 18  1  0  0  0  0
 22 14  1  0  0  0  0
 23 22  1  0  0  0  0
 24  1  1  0  0  0  0
 24 25  1  0  0  0  0
 26  6  1  0  0  0  0
 26 29  1  0  0  0  0
 28 27  1  0  0  0  0
 28 33  1  0  0  0  0
 29 30  1  0  0  0  0
 29 28  2  0  0  0  0
 30 31  2  0  0  0  0
 31 35  1  0  0  0  0
 31 32  1  0  0  0  0
 32 36  1  0  0  0  0
 33 32  2  0  0  0  0
 33 38  1  0  0  0  0
 34 30  1  0  0  0  0
 37 43  2  0  0  0  0
 37 38  1  0  0  0  0
 38 39  2  0  0  0  0
 39 41  1  0  0  0  0
 39 40  1  0  0  0  0
 42 41  2  0  0  0  0
 43 42  1  0  0  0  0
 44 37  1  0  0  0  0
 45 44  1  0  0  0  0
 46 43  1  0  0  0  0
 47 46  1  0  0  0  0
M  END
>  <minimizedAffinity>
-6.98942852

$$$$

 OpenBabel03242518483D

 47 50  0  0  1  0  0  0  0  0999 V2000
   38.6330   26.6220   43.3130 C   0  0  2  0  0  0  0  0  0  0  0  0
   39.5430   25.4510   43.4270 C   0  0  1  0  0  0  0  0  0  0  0  0
   39.2640   24.3950   42.3540 C   0  0  0  0  0  0  0  0  0  0  0  0
   37.8990   24.1180   42.5000 O   0  0  0  0  0  0  0  0  0  0  0  0
   37.1210   25.1470   42.0160 C   0  0  0  0  0  0  0  0  0  0  0  0
   37.7910   26.4850   42.0290 C   0  0  1  0  0  0  0  0  0  0  0  0
   37.9050   26.6410   44.1450 H   0  0  0  0  0  0  0  0  0  0  0  0
   39.4220   24.9640   44.4380 H   0  0  0  0  0  0  0  0  0  0  0  0
   39.7900   23.4520   42.6260 H   0  0  0  0  0  0  0  0  0  0  0  0
   39.5240   24.7540   41.3580 H   0  0  0  0  0  0  0  0  0  0  0  0
   36.1660   25.2520   42.5850 H   0  0  0  0  0  0  0  0  0  0  0  0
   36.8650   24.8730   40.9510 H   0  0  0  0  0  0  0  0  0  0  0  0
   38.5330   26.6180   41.2100 H   0  0  0  0  0  0  0  0  0  0  0  0
   42.9640   25.5370   42.1290 C   0  0  0  0  0  0  0  0  0  0  0  0
   43.6800   26.3290   43.0760 C   0  0  0  0  0  0  0  0  0  0  0  0
   42.9100   26.8160   44.1650 C   0  0  0  0  0  0  0  0  0  0  0  0
   41.5960   26.5130   44.2380 N   0  0  0  0  0  0  0  0  0  0  0  0
   40.9790   25.7570   43.3050 C   0  0  0  0  0  0  0  0  0  0  0  0
   41.6680   25.2700   42.2490 N   0  0  0  0  0  0  0  0  0  0  0  0
   44.7130   26.5410   42.9780 H   0  0  0  0  0  0  0  0  0  0  0  0
   43.4400   27.4170   44.8890 H   0  0  0  0  0  0  0  0  0  0  0  0
   43.6840   25.0560   41.0730 O   0  0  0  0  0  0  0  0  0  0  0  0
   43.2900   24.6760   40.2330 H   0  0  0  0  0  0  0  0  0  0  0  0
   39.2960   27.8480   43.2660 O   0  0  0  0  0  0  0  0  0  0  0  0
   39.9680   27.8810   42.5650 H   0  0  0  0  0  0  0  0  0  0  0  0
   36.9110   27.5440   42.0190 O   0  0  0  0  0  0  0  0  0  0  0  0
   36.0170   27.1880   39.4940 F   0  0  0  0  0  0  0  0  0  0  0  0
   36.3100   28.3810   40.0510 C   0  0  0  0  0  0  0  0  0  0  0  0
   36.7660   28.6560   41.3250 C   0  0  0  0  0  0  0  0  0  0  0  0
   36.9670   30.0010   41.5980 C   0  0  0  0  0  0  0  0  0  0  0  0
   36.7580   31.0480   40.7410 C   0  0  0  0  0  0  0  0  0  0  0  0
   36.3080   30.7170   39.4990 C   0  0  0  0  0  0  0  0  0  0  0  0
   36.0730   29.4080   39.1160 C   0  0  0  0  0  0  0  0  0  0  0  0
   37.3310   30.1370   42.6330 H   0  0  0  0  0  0  0  0  0  0  0  0
   36.9540   32.0470   41.0810 H   0  0  0  0  0  0  0  0  0  0  0  0
   36.1360   31.5510   38.8000 H   0  0  0  0  0  0  0  0  0  0  0  0
   36.6200   29.1520   36.8310 C   0  0  0  0  0  0  0  0  0  0  0  0
   35.5920   29.2270   37.7480 C   0  0  0  0  0  0  0  0  0  0  0  0
   34.3040   29.1320   37.3360 C   0  0  0  0  0  0  0  0  0  0  0  0
   33.5470   29.1990   38.1060 H   0  0  0  0  0  0  0  0  0  0  0  0
   34.0430   28.9600   35.9800 C   0  0  0  0  0  3  0  0  0  0  0  0
   35.0540   28.8830   35.0430 C   0  0  0  0  0  3  0  0  0  0  0  0
   36.3780   28.9820   35.4840 C   0  0  0  0  0  0  0  0  0  0  0  0
   37.9880   29.2380   37.1480 O   0  0  0  0  0  0  0  0  0  0  0  0
   38.3410   30.1690   37.3400 H   0  0  0  0  0  0  0  0  0  0  0  0
   37.3420   28.8960   34.4900 O   0  0  0  0  0  0  0  0  0  0  0  0
   38.2740   29.2400   34.6520 H   0  0  0  0  0  0  0  0  0  0  0  0
  1  2  1  0  0  0  0
  1  7  1  1  0  0  0
  2  8  1  1  0  0  0
  3  4  1  0  0  0  0
  3  9  1  0  0  0  0
  3  2  1  0  0  0  0
  5  6  1  0  0  0  0
  5  4  1  0  0  0  0
  5 11  1  0  0  0  0
  6 13  1  6  0  0  0
  6  1  1  0  0  0  0
 10  3  1  0  0  0  0
 12  5  1  0  0  0  0
 14 19  2  0  0  0  0
 14 15  1  0  0  0  0
 15 16  2  0  0  0  0
 16 17  1  0  0  0  0
 16 21  1  0  0  0  0
 18  2  1  0  0  0  0
 18 17  2  0  0  0  0
 19 18  1  0  0  0  0
 20 15  1  0  0  0  0
 22 14  1  0  0  0  0
 23 22  1  0  0  0  0
 24  1  1  0  0  0  0
 25 24  1  0  0  0  0
 26  6  1  0  0  0  0
 27 28  1  0  0  0  0
 28 29  1  0  0  0  0
 29 30  2  0  0  0  0
 29 26  1  0  0  0  0
 30 34  1  0  0  0  0
 31 35  1  0  0  0  0
 31 30  1  0  0  0  0
 32 31  2  0  0  0  0
 33 32  1  0  0  0  0
 33 28  2  0  0  0  0
 36 32  1  0  0  0  0
 37 44  1  0  0  0  0
 37 38  1  0  0  0  0
 38 33  1  0  0  0  0
 39 38  2  0  0  0  0
 39 40  1  0  0  0  0
 41 39  1  0  0  0  0
 42 43  1  0  0  0  0
 42 41  2  0  0  0  0
 43 37  2  0  0  0  0
 44 45  1  0  0  0  0
 46 47  1  0  0  0  0
 46 43  1  0  0  0  0
M  END
>  <minimizedAffinity>
-6.95770359

$$$$

 OpenBabel03242518483D

 47 50  0  0  1  0  0  0  0  0999 V2000
   41.4050   32.2270   38.3830 C   0  0  2  0  0  0  0  0  0  0  0  0
   42.2850   32.7980   37.3290 C   0  0  1  0  0  0  0  0  0  0  0  0
   42.9750   34.0860   37.7870 C   0  0  0  0  0  0  0  0  0  0  0  0
   41.9190   34.9050   38.2030 O   0  0  0  0  0  0  0  0  0  0  0  0
   41.3990   34.4840   39.4070 C   0  0  0  0  0  0  0  0  0  0  0  0
   41.5940   33.0270   39.6870 C   0  0  1  0  0  0  0  0  0  0  0  0
   40.3390   32.3430   38.1150 H   0  0  0  0  0  0  0  0  0  0  0  0
   41.6800   33.0340   36.4060 H   0  0  0  0  0  0  0  0  0  0  0  0
   43.4180   34.5970   36.9010 H   0  0  0  0  0  0  0  0  0  0  0  0
   43.7050   33.8940   38.5740 H   0  0  0  0  0  0  0  0  0  0  0  0
   40.3040   34.6900   39.4840 H   0  0  0  0  0  0  0  0  0  0  0  0
   41.9250   35.0860   40.2050 H   0  0  0  0  0  0  0  0  0  0  0  0
   42.6280   32.7710   40.0080 H   0  0  0  0  0  0  0  0  0  0  0  0
   44.0360   29.9600   35.8220 C   0  0  0  0  0  0  0  0  0  0  0  0
   45.4190   30.2540   36.0200 C   0  0  0  0  0  0  0  0  0  0  0  0
   45.6890   31.4730   36.6940 C   0  0  0  0  0  0  0  0  0  0  0  0
   44.6620   32.2540   37.0940 N   0  0  0  0  0  0  0  0  0  0  0  0
   43.3740   31.9160   36.8740 C   0  0  0  0  0  0  0  0  0  0  0  0
   43.0640   30.7650   36.2360 N   0  0  0  0  0  0  0  0  0  0  0  0
   46.1920   29.6100   35.6880 H   0  0  0  0  0  0  0  0  0  0  0  0
   46.7320   31.7090   36.8500 H   0  0  0  0  0  0  0  0  0  0  0  0
   43.7520   28.7900   35.1770 O   0  0  0  0  0  0  0  0  0  0  0  0
   42.8620   28.5530   34.7820 H   0  0  0  0  0  0  0  0  0  0  0  0
   41.6580   30.8840   38.6600 O   0  0  0  0  0  0  0  0  0  0  0  0
   42.5890   30.7170   38.8800 H   0  0  0  0  0  0  0  0  0  0  0  0
   40.6970   32.5150   40.5970 O   0  0  0  0  0  0  0  0  0  0  0  0
   40.1110   30.1380   41.7440 F   0  0  0  0  0  0  0  0  0  0  0  0
   39.2080   30.9810   41.2020 C   0  0  0  0  0  0  0  0  0  0  0  0
   39.4140   32.2070   40.6020 C   0  0  0  0  0  0  0  0  0  0  0  0
   38.2660   32.8380   40.1470 C   0  0  0  0  0  0  0  0  0  0  0  0
   36.9840   32.3650   40.2390 C   0  0  0  0  0  0  0  0  0  0  0  0
   36.8410   31.1520   40.8400 C   0  0  0  0  0  0  0  0  0  0  0  0
   37.9160   30.4320   41.3320 C   0  0  0  0  0  0  0  0  0  0  0  0
   38.5140   33.8090   39.6810 H   0  0  0  0  0  0  0  0  0  0  0  0
   36.1800   32.9570   39.8450 H   0  0  0  0  0  0  0  0  0  0  0  0
   35.8140   30.7600   40.9210 H   0  0  0  0  0  0  0  0  0  0  0  0
   37.4940   28.1270   41.0240 C   0  0  0  0  0  0  0  0  0  0  0  0
   37.5890   29.1480   41.9470 C   0  0  0  0  0  0  0  0  0  0  0  0
   37.3850   28.8960   43.2630 C   0  0  0  0  0  0  0  0  0  0  0  0
   37.4740   29.7410   43.9340 H   0  0  0  0  0  0  0  0  0  0  0  0
   37.0800   27.5980   43.6610 C   0  0  0  0  0  3  0  0  0  0  0  0
   36.9790   26.5600   42.7560 C   0  0  0  0  0  3  0  0  0  0  0  0
   37.1930   26.8350   41.4010 C   0  0  0  0  0  0  0  0  0  0  0  0
   37.6860   28.2760   39.6380 O   0  0  0  0  0  0  0  0  0  0  0  0
   36.9170   28.6950   39.1270 H   0  0  0  0  0  0  0  0  0  0  0  0
   37.0760   25.7470   40.5490 O   0  0  0  0  0  0  0  0  0  0  0  0
   36.9210   25.8840   39.5630 H   0  0  0  0  0  0  0  0  0  0  0  0
  1  7  1  6  0  0  0
  1 24  1  0  0  0  0
  1  6  1  0  0  0  0
  2  8  1  6  0  0  0
  2  3  1  0  0  0  0
  2  1  1  0  0  0  0
  3  4  1  0  0  0  0
  3 10  1  0  0  0  0
  4  5  1  0  0  0  0
  5 11  1  0  0  0  0
  5  6  1  0  0  0  0
  5 12  1  0  0  0  0
  6 13  1  1  0  0  0
  6 26  1  0  0  0  0
  9  3  1  0  0  0  0
 14 15  2  0  0  0  0
 14 19  1  0  0  0  0
 15 16  1  0  0  0  0
 16 21  1  0  0  0  0
 16 17  2  0  0  0  0
 18 17  1  0  0  0  0
 18  2  1  0  0  0  0
 19 18  2  0  0  0  0
 20 15  1  0  0  0  0
 22 14  1  0  0  0  0
 23 22  1  0  0  0  0
 24 25  1  0  0  0  0
 26 29  1  0  0  0  0
 28 33  1  0  0  0  0
 28 27  1  0  0  0  0
 29 28  2  0  0  0  0
 30 31  2  0  0  0  0
 30 29  1  0  0  0  0
 31 32  1  0  0  0  0
 32 36  1  0  0  0  0
 32 33  2  0  0  0  0
 33 38  1  0  0  0  0
 34 30  1  0  0  0  0
 35 31  1  0  0  0  0
 37 43  2  0  0  0  0
 37 38  1  0  0  0  0
 38 39  2  0  0  0  0
 39 41  1  0  0  0  0
 39 40  1  0  0  0  0
 42 41  2  0  0  0  0
 43 42  1  0  0  0  0
 44 37  1  0  0  0  0
 45 44  1  0  0  0  0
 46 43  1  0  0  0  0
 47 46  1  0  0  0  0
M  END
>  <minimizedAffinity>
-6.85215139

$$$$

 OpenBabel03242518483D

 47 50  0  0  1  0  0  0  0  0999 V2000
   37.9900   29.3800   42.3050 C   0  0  2  0  0  0  0  0  0  0  0  0
   37.0440   28.2790   41.9770 C   0  0  1  0  0  0  0  0  0  0  0  0
   36.2160   28.5820   40.7250 C   0  0  0  0  0  0  0  0  0  0  0  0
   35.6290   29.8230   41.0010 O   0  0  0  0  0  0  0  0  0  0  0  0
   36.5490   30.8450   40.9190 C   0  0  0  0  0  0  0  0  0  0  0  0
   37.9630   30.4240   41.1720 C   0  0  1  0  0  0  0  0  0  0  0  0
   37.6690   29.9200   43.2150 H   0  0  0  0  0  0  0  0  0  0  0  0
   36.3320   28.1120   42.8370 H   0  0  0  0  0  0  0  0  0  0  0  0
   35.3710   27.8590   40.6650 H   0  0  0  0  0  0  0  0  0  0  0  0
   36.8320   28.5900   39.8260 H   0  0  0  0  0  0  0  0  0  0  0  0
   36.3200   31.6720   41.6350 H   0  0  0  0  0  0  0  0  0  0  0  0
   36.4680   31.2580   39.8720 H   0  0  0  0  0  0  0  0  0  0  0  0
   38.4280   29.8940   40.3110 H   0  0  0  0  0  0  0  0  0  0  0  0
   38.5100   25.4340   40.2030 C   0  0  0  0  0  0  0  0  0  0  0  0
   38.8400   24.5060   41.2360 C   0  0  0  0  0  0  0  0  0  0  0  0
   38.5260   24.9300   42.5540 C   0  0  0  0  0  0  0  0  0  0  0  0
   37.9550   26.1390   42.7460 N   0  0  0  0  0  0  0  0  0  0  0  0
   37.6690   26.9700   41.7210 C   0  0  0  0  0  0  0  0  0  0  0  0
   37.9480   26.6130   40.4470 N   0  0  0  0  0  0  0  0  0  0  0  0
   39.2880   23.5670   41.0390 H   0  0  0  0  0  0  0  0  0  0  0  0
   38.7710   24.2380   43.3460 H   0  0  0  0  0  0  0  0  0  0  0  0
   38.8020   25.0470   38.9250 O   0  0  0  0  0  0  0  0  0  0  0  0
   38.8290   25.6580   38.1310 H   0  0  0  0  0  0  0  0  0  0  0  0
   39.3080   28.9570   42.4720 O   0  0  0  0  0  0  0  0  0  0  0  0
   39.6370   28.4540   41.7090 H   0  0  0  0  0  0  0  0  0  0  0  0
   38.7840   31.4550   41.5660 O   0  0  0  0  0  0  0  0  0  0  0  0
   41.4360   31.6340   41.0710 F   0  0  0  0  0  0  0  0  0  0  0  0
   40.5370   32.6140   40.8440 C   0  0  0  0  0  0  0  0  0  0  0  0
   39.1730   32.6110   41.0620 C   0  0  0  0  0  0  0  0  0  0  0  0
   38.5210   33.7840   40.7140 C   0  0  0  0  0  0  0  0  0  0  0  0
   39.0940   34.9110   40.1880 C   0  0  0  0  0  0  0  0  0  0  0  0
   40.4410   34.8570   39.9950 C   0  0  0  0  0  0  0  0  0  0  0  0
   41.1940   33.7390   40.3060 C   0  0  0  0  0  0  0  0  0  0  0  0
   37.4380   33.7020   40.9170 H   0  0  0  0  0  0  0  0  0  0  0  0
   38.4710   35.7550   39.9610 H   0  0  0  0  0  0  0  0  0  0  0  0
   40.9140   35.7580   39.5720 H   0  0  0  0  0  0  0  0  0  0  0  0
   43.3400   34.2820   41.1360 C   0  0  0  0  0  0  0  0  0  0  0  0
   42.6260   33.8470   40.0370 C   0  0  0  0  0  0  0  0  0  0  0  0
   43.2670   33.5730   38.8750 C   0  0  0  0  0  0  0  0  0  0  0  0
   42.6480   33.2360   38.0530 H   0  0  0  0  0  0  0  0  0  0  0  0
   44.6470   33.7380   38.8120 C   0  0  0  0  0  3  0  0  0  0  0  0
   45.3830   34.1720   39.8970 C   0  0  0  0  0  3  0  0  0  0  0  0
   44.7070   34.4510   41.0900 C   0  0  0  0  0  0  0  0  0  0  0  0
   42.7780   34.5940   42.3870 O   0  0  0  0  0  0  0  0  0  0  0  0
   42.3020   35.4870   42.4490 H   0  0  0  0  0  0  0  0  0  0  0  0
   45.5080   34.8820   42.1380 O   0  0  0  0  0  0  0  0  0  0  0  0
   45.1060   35.3750   42.9180 H   0  0  0  0  0  0  0  0  0  0  0  0
  1 24  1  0  0  0  0
  1  7  1  1  0  0  0
  2  1  1  0  0  0  0
  2  8  1  1  0  0  0
  3  4  1  0  0  0  0
  3  2  1  0  0  0  0
  5  4  1  0  0  0  0
  5  6  1  0  0  0  0
  5 11  1  0  0  0  0
  6 13  1  6  0  0  0
  6 26  1  0  0  0  0
  6  1  1  0  0  0  0
  9  3  1  0  0  0  0
 10  3  1  0  0  0  0
 12  5  1  0  0  0  0
 14 19  2  0  0  0  0
 14 15  1  0  0  0  0
 15 16  2  0  0  0  0
 16 17  1  0  0  0  0
 16 21  1  0  0  0  0
 18  2  1  0  0  0  0
 18 17  2  0  0  0  0
 19 18  1  0  0  0  0
 20 15  1  0  0  0  0
 22 14  1  0  0  0  0
 23 22  1  0  0  0  0
 25 24  1  0  0  0  0
 28 29  1  0  0  0  0
 28 27  1  0  0  0  0
 29 26  1  0  0  0  0
 30 34  1  0  0  0  0
 30 29  2  0  0  0  0
 31 30  1  0  0  0  0
 32 31  2  0  0  0  0
 32 33  1  0  0  0  0
 33 28  2  0  0  0  0
 35 31  1  0  0  0  0
 36 32  1  0  0  0  0
 37 44  1  0  0  0  0
 38 33  1  0  0  0  0
 38 37  2  0  0  0  0
 39 38  1  0  0  0  0
 40 39  1  0  0  0  0
 41 39  2  0  0  0  0
 41 42  1  0  0  0  0
 42 43  2  0  0  0  0
 43 37  1  0  0  0  0
 43 46  1  0  0  0  0
 44 45  1  0  0  0  0
 46 47  1  0  0  0  0
M  END
>  <minimizedAffinity>
-6.81510448

$$$$

 OpenBabel03242518483D

 47 50  0  0  1  0  0  0  0  0999 V2000
   39.5980   30.7440   39.8800 C   0  0  2  0  0  0  0  0  0  0  0  0
   39.3840   31.9540   39.0410 C   0  0  1  0  0  0  0  0  0  0  0  0
   38.4150   32.9440   39.6930 C   0  0  0  0  0  0  0  0  0  0  0  0
   37.2730   32.1770   39.9520 O   0  0  0  0  0  0  0  0  0  0  0  0
   37.4710   31.3210   41.0130 C   0  0  0  0  0  0  0  0  0  0  0  0
   38.9010   30.9410   41.2400 C   0  0  1  0  0  0  0  0  0  0  0  0
   39.1190   29.8570   39.4260 H   0  0  0  0  0  0  0  0  0  0  0  0
   38.9620   31.6580   38.0370 H   0  0  0  0  0  0  0  0  0  0  0  0
   38.1010   33.6980   38.9350 H   0  0  0  0  0  0  0  0  0  0  0  0
   38.8410   33.3950   40.5890 H   0  0  0  0  0  0  0  0  0  0  0  0
   36.8940   30.3720   40.8980 H   0  0  0  0  0  0  0  0  0  0  0  0
   37.0820   31.8570   41.9270 H   0  0  0  0  0  0  0  0  0  0  0  0
   39.4990   31.7400   41.7320 H   0  0  0  0  0  0  0  0  0  0  0  0
   42.2630   34.1700   39.4790 C   0  0  0  0  0  0  0  0  0  0  0  0
   42.8750   34.2110   38.1910 C   0  0  0  0  0  0  0  0  0  0  0  0
   42.2340   33.4360   37.1900 C   0  0  0  0  0  0  0  0  0  0  0  0
   41.1240   32.7310   37.5030 N   0  0  0  0  0  0  0  0  0  0  0  0
   40.5970   32.7360   38.7460 C   0  0  0  0  0  0  0  0  0  0  0  0
   41.1700   33.4580   39.7340 N   0  0  0  0  0  0  0  0  0  0  0  0
   43.7470   34.7790   37.9910 H   0  0  0  0  0  0  0  0  0  0  0  0
   42.6860   33.4570   36.2090 H   0  0  0  0  0  0  0  0  0  0  0  0
   42.8630   34.9100   40.4590 O   0  0  0  0  0  0  0  0  0  0  0  0
   42.6840   34.8160   41.4410 H   0  0  0  0  0  0  0  0  0  0  0  0
   40.9420   30.4580   40.1210 O   0  0  0  0  0  0  0  0  0  0  0  0
   41.4210   31.2120   40.4990 H   0  0  0  0  0  0  0  0  0  0  0  0
   39.0560   29.7640   41.9370 O   0  0  0  0  0  0  0  0  0  0  0  0
   39.0900   27.4650   40.5170 F   0  0  0  0  0  0  0  0  0  0  0  0
   38.3410   27.6860   41.6150 C   0  0  0  0  0  0  0  0  0  0  0  0
   38.2610   28.8190   42.4010 C   0  0  0  0  0  0  0  0  0  0  0  0
   37.3930   28.7270   43.4780 C   0  0  0  0  0  0  0  0  0  0  0  0
   36.6310   27.6420   43.8210 C   0  0  0  0  0  0  0  0  0  0  0  0
   36.7490   26.5540   43.0110 C   0  0  0  0  0  0  0  0  0  0  0  0
   37.5850   26.5330   41.9080 C   0  0  0  0  0  0  0  0  0  0  0  0
   37.3860   29.6700   44.0540 H   0  0  0  0  0  0  0  0  0  0  0  0
   35.9970   27.7030   44.6850 H   0  0  0  0  0  0  0  0  0  0  0  0
   36.1400   25.6740   43.2760 H   0  0  0  0  0  0  0  0  0  0  0  0
   36.8760   25.3790   39.9710 C   0  0  0  0  0  0  0  0  0  0  0  0
   37.5940   25.2870   41.1460 C   0  0  0  0  0  0  0  0  0  0  0  0
   38.2090   24.1250   41.4770 C   0  0  0  0  0  0  0  0  0  0  0  0
   38.7540   24.1200   42.4120 H   0  0  0  0  0  0  0  0  0  0  0  0
   38.1020   23.0380   40.6160 C   0  0  0  0  0  3  0  0  0  0  0  0
   37.3900   23.1060   39.4350 C   0  0  0  0  0  3  0  0  0  0  0  0
   36.7610   24.3110   39.1060 C   0  0  0  0  0  0  0  0  0  0  0  0
   36.2010   26.5320   39.5300 O   0  0  0  0  0  0  0  0  0  0  0  0
   35.3170   26.7290   39.9860 H   0  0  0  0  0  0  0  0  0  0  0  0
   36.0640   24.3090   37.9070 O   0  0  0  0  0  0  0  0  0  0  0  0
   35.3560   25.0020   37.7270 H   0  0  0  0  0  0  0  0  0  0  0  0
  1  7  1  6  0  0  0
  1 24  1  0  0  0  0
  1  6  1  0  0  0  0
  2  8  1  6  0  0  0
  2  3  1  0  0  0  0
  2  1  1  0  0  0  0
  3  4  1  0  0  0  0
  3 10  1  0  0  0  0
  4  5  1  0  0  0  0
  5  6  1  0  0  0  0
  5 12  1  0  0  0  0
  6 13  1  1  0  0  0
  6 26  1  0  0  0  0
  9  3  1  0  0  0  0
 11  5  1  0  0  0  0
 14 19  1  0  0  0  0
 14 22  1  0  0  0  0
 15 14  2  0  0  0  0
 16 17  2  0  0  0  0
 16 15  1  0  0  0  0
 17 18  1  0  0  0  0
 18  2  1  0  0  0  0
 18 19  2  0  0  0  0
 20 15  1  0  0  0  0
 21 16  1  0  0  0  0
 22 23  1  0  0  0  0
 24 25  1  0  0  0  0
 26 29  1  0  0  0  0
 27 28  1  0  0  0  0
 28 33  2  0  0  0  0
 28 29  1  0  0  0  0
 29 30  2  0  0  0  0
 30 31  1  0  0  0  0
 30 34  1  0  0  0  0
 31 35  1  0  0  0  0
 32 36  1  0  0  0  0
 32 31  2  0  0  0  0
 33 32  1  0  0  0  0
 37 38  1  0  0  0  0
 38 39  2  0  0  0  0
 38 33  1  0  0  0  0
 39 40  1  0  0  0  0
 41 39  1  0  0  0  0
 42 41  2  0  0  0  0
 43 42  1  0  0  0  0
 43 37  2  0  0  0  0
 44 37  1  0  0  0  0
 44 45  1  0  0  0  0
 46 43  1  0  0  0  0
 47 46  1  0  0  0  0
M  END
>  <minimizedAffinity>
-6.75184774

$$$$

 OpenBabel03242518483D

 47 50  0  0  1  0  0  0  0  0999 V2000
   40.7980   31.5120   39.8760 C   0  0  2  0  0  0  0  0  0  0  0  0
   40.9990   32.9180   39.4360 C   0  0  1  0  0  0  0  0  0  0  0  0
   40.3640   33.9220   40.4030 C   0  0  0  0  0  0  0  0  0  0  0  0
   39.0330   33.5020   40.5000 O   0  0  0  0  0  0  0  0  0  0  0  0
   38.9190   32.3560   41.2550 C   0  0  0  0  0  0  0  0  0  0  0  0
   40.1520   31.5070   41.2750 C   0  0  1  0  0  0  0  0  0  0  0  0
   40.0820   30.9880   39.2160 H   0  0  0  0  0  0  0  0  0  0  0  0
   40.5390   33.0740   38.4170 H   0  0  0  0  0  0  0  0  0  0  0  0
   40.3270   34.9230   39.9150 H   0  0  0  0  0  0  0  0  0  0  0  0
   40.8800   33.9380   41.3630 H   0  0  0  0  0  0  0  0  0  0  0  0
   38.0800   31.7080   40.9070 H   0  0  0  0  0  0  0  0  0  0  0  0
   38.6870   32.6940   42.3070 H   0  0  0  0  0  0  0  0  0  0  0  0
   40.9520   31.9030   41.9390 H   0  0  0  0  0  0  0  0  0  0  0  0
   44.2450   33.7210   37.9500 C   0  0  0  0  0  0  0  0  0  0  0  0
   45.0470   34.1330   39.0560 C   0  0  0  0  0  0  0  0  0  0  0  0
   44.3970   34.1120   40.3180 C   0  0  0  0  0  0  0  0  0  0  0  0
   43.1060   33.7190   40.3940 N   0  0  0  0  0  0  0  0  0  0  0  0
   42.4040   33.3420   39.3050 C   0  0  0  0  0  0  0  0  0  0  0  0
   42.9780   33.3440   38.0810 N   0  0  0  0  0  0  0  0  0  0  0  0
   46.0570   34.4340   38.9490 H   0  0  0  0  0  0  0  0  0  0  0  0
   44.9920   34.4220   41.1640 H   0  0  0  0  0  0  0  0  0  0  0  0
   44.8510   33.7310   36.7250 O   0  0  0  0  0  0  0  0  0  0  0  0
   44.3720   33.6790   35.8460 H   0  0  0  0  0  0  0  0  0  0  0  0
   41.9770   30.7700   39.9420 O   0  0  0  0  0  0  0  0  0  0  0  0
   42.6550   31.1950   40.4920 H   0  0  0  0  0  0  0  0  0  0  0  0
   39.9100   30.1900   41.5930 O   0  0  0  0  0  0  0  0  0  0  0  0
   38.4720   29.3140   39.4790 F   0  0  0  0  0  0  0  0  0  0  0  0
   38.1810   29.0630   40.7710 C   0  0  0  0  0  0  0  0  0  0  0  0
   38.8550   29.4630   41.9080 C   0  0  0  0  0  0  0  0  0  0  0  0
   38.2990   29.0290   43.1030 C   0  0  0  0  0  0  0  0  0  0  0  0
   37.1760   28.2610   43.2490 C   0  0  0  0  0  0  0  0  0  0  0  0
   36.5530   27.8960   42.0940 C   0  0  0  0  0  0  0  0  0  0  0  0
   37.0170   28.2710   40.8460 C   0  0  0  0  0  0  0  0  0  0  0  0
   38.8940   29.3900   43.9620 H   0  0  0  0  0  0  0  0  0  0  0  0
   36.8510   27.9940   44.2360 H   0  0  0  0  0  0  0  0  0  0  0  0
   35.6460   27.2780   42.1980 H   0  0  0  0  0  0  0  0  0  0  0  0
   35.1290   28.5860   39.4590 C   0  0  0  0  0  0  0  0  0  0  0  0
   36.2320   27.7950   39.7100 C   0  0  0  0  0  0  0  0  0  0  0  0
   36.4810   26.7120   38.9340 C   0  0  0  0  0  0  0  0  0  0  0  0
   37.3620   26.1340   39.1850 H   0  0  0  0  0  0  0  0  0  0  0  0
   35.6110   26.4160   37.8900 C   0  0  0  0  0  3  0  0  0  0  0  0
   34.5020   27.1930   37.6200 C   0  0  0  0  0  3  0  0  0  0  0  0
   34.2560   28.3080   38.4290 C   0  0  0  0  0  0  0  0  0  0  0  0
   34.7760   29.7300   40.1980 O   0  0  0  0  0  0  0  0  0  0  0  0
   34.3430   29.5590   41.0990 H   0  0  0  0  0  0  0  0  0  0  0  0
   33.1260   29.0420   38.1000 O   0  0  0  0  0  0  0  0  0  0  0  0
   32.7090   29.6640   38.7730 H   0  0  0  0  0  0  0  0  0  0  0  0
  1  7  1  6  0  0  0
  1 24  1  0  0  0  0
  1  6  1  0  0  0  0
  2  8  1  6  0  0  0
  2  1  1  0  0  0  0
  2  3  1  0  0  0  0
  3  4  1  0  0  0  0
  3 10  1  0  0  0  0
  4  5  1  0  0  0  0
  5  6  1  0  0  0  0
  5 12  1  0  0  0  0
  6 26  1  0  0  0  0
  6 13  1  1  0  0  0
  9  3  1  0  0  0  0
 11  5  1  0  0  0  0
 14 19  2  0  0  0  0
 14 15  1  0  0  0  0
 15 16  2  0  0  0  0
 16 17  1  0  0  0  0
 16 21  1  0  0  0  0
 18  2  1  0  0  0  0
 18 17  2  0  0  0  0
 19 18  1  0  0  0  0
 20 15  1  0  0  0  0
 22 14  1  0  0  0  0
 23 22  1  0  0  0  0
 24 25  1  0  0  0  0
 26 29  1  0  0  0  0
 27 28  1  0  0  0  0
 28 33  2  0  0  0  0
 28 29  1  0  0  0  0
 29 30  2  0  0  0  0
 30 31  1  0  0  0  0
 30 34  1  0  0  0  0
 31 35  1  0  0  0  0
 32 36  1  0  0  0  0
 32 31  2  0  0  0  0
 33 32  1  0  0  0  0
 37 38  1  0  0  0  0
 37 44  1  0  0  0  0
 38 33  1  0  0  0  0
 39 40  1  0  0  0  0
 39 38  2  0  0  0  0
 41 39  1  0  0  0  0
 42 41  2  0  0  0  0
 42 43  1  0  0  0  0
 43 37  2  0  0  0  0
 44 45  1  0  0  0  0
 46 43  1  0  0  0  0
 46 47  1  0  0  0  0
M  END
>  <minimizedAffinity>
-6.62407351

$$$$
