
 OpenBabel03252502533D

 33 35  0  0  0  0  0  0  0  0999 V2000
   46.1220   29.8620   44.4600 Br  0  0  0  0  0  0  0  0  0  0  0  0
   45.8430   30.7390   46.1620 C   0  0  0  0  0  0  0  0  0  0  0  0
   46.3220   32.0150   46.2720 C   0  0  0  0  0  0  0  0  0  0  0  0
   46.0960   32.5980   47.5150 C   0  0  0  0  0  0  0  0  0  0  0  0
   45.4540   31.9750   48.5540 C   0  0  0  0  0  0  0  0  0  0  0  0
   45.0060   30.7000   48.3650 C   0  0  0  0  0  0  0  0  0  0  0  0
   45.1870   30.0470   47.1650 C   0  0  0  0  0  0  0  0  0  0  0  0
   46.4380   33.6190   47.7100 H   0  0  0  0  0  0  0  0  0  0  0  0
   45.2970   32.4640   49.5080 H   0  0  0  0  0  0  0  0  0  0  0  0
   44.4960   30.1460   49.1280 H   0  0  0  0  0  0  0  0  0  0  0  0
   45.5860   27.7280   47.4390 C   0  0  0  0  0  0  0  0  0  0  0  0
   44.7150   28.6690   46.9280 C   0  0  0  0  0  0  0  0  0  0  0  0
   43.5620   28.2640   46.2850 C   0  0  0  0  0  0  0  0  0  0  0  0
   42.9560   29.0790   45.9270 H   0  0  0  0  0  0  0  0  0  0  0  0
   43.3170   26.9120   46.1750 C   0  0  0  0  0  3  0  0  0  0  0  0
   44.1850   25.9680   46.6850 C   0  0  0  0  0  3  0  0  0  0  0  0
   45.3500   26.3900   47.3330 C   0  0  0  0  0  0  0  0  0  0  0  0
   46.7840   28.0250   48.1090 O   0  0  0  0  0  0  0  0  0  0  0  0
   47.2060   28.9500   48.0370 H   0  0  0  0  0  0  0  0  0  0  0  0
   46.1450   25.3530   47.8030 O   0  0  0  0  0  0  0  0  0  0  0  0
   46.9200   25.0740   47.1830 H   0  0  0  0  0  0  0  0  0  0  0  0
   47.0220   32.7870   45.2400 C   0  0  0  0  0  0  0  0  0  0  0  0
   47.9670   33.1830   45.6650 H   0  0  0  0  0  0  0  0  0  0  0  0
   47.3130   32.0900   44.4180 H   0  0  0  0  0  0  0  0  0  0  0  0
   44.5340   35.5300   44.8320 C   0  0  0  0  0  0  0  0  0  0  0  0
   44.8460   36.0060   43.5510 C   0  0  0  0  0  0  0  0  0  0  0  0
   45.8860   35.3890   42.8640 C   0  0  0  0  0  0  0  0  0  0  0  0
   46.5570   34.3580   43.4460 N   0  0  0  0  0  0  0  0  0  0  0  0
   46.2260   33.9180   44.7000 C   0  0  0  0  0  0  0  0  0  0  0  0
   45.2190   34.5170   45.3630 N   0  0  0  0  0  0  0  0  0  0  0  0
   43.7180   36.0400   45.3280 H   0  0  0  0  0  0  0  0  0  0  0  0
   44.3160   36.8280   43.0790 H   0  0  0  0  0  0  0  0  0  0  0  0
   46.2030   35.6830   41.8720 H   0  0  0  0  0  0  0  0  0  0  0  0
  1  2  1  0  0  0  0
  2  3  2  0  0  0  0
  2  7  1  0  0  0  0
  3  4  1  0  0  0  0
  4  8  1  0  0  0  0
  4  5  2  0  0  0  0
  5  9  1  0  0  0  0
  6  5  1  0  0  0  0
  6 10  1  0  0  0  0
  7  6  2  0  0  0  0
 11 18  1  0  0  0  0
 12  7  1  0  0  0  0
 12 11  2  0  0  0  0
 13 12  1  0  0  0  0
 14 13  1  0  0  0  0
 15 13  2  0  0  0  0
 15 16  1  0  0  0  0
 16 17  2  0  0  0  0
 17 11  1  0  0  0  0
 17 20  1  0  0  0  0
 19 18  1  0  0  0  0
 21 20  1  0  0  0  0
 22 23  1  0  0  0  0
 22  3  1  0  0  0  0
 24 22  1  0  0  0  0
 25 31  1  0  0  0  0
 25 30  1  0  0  0  0
 26 25  2  0  0  0  0
 27 28  2  0  0  0  0
 27 26  1  0  0  0  0
 28 29  1  0  0  0  0
 29 22  1  0  0  0  0
 29 30  2  0  0  0  0
 32 26  1  0  0  0  0
 33 27  1  0  0  0  0
M  END
>  <minimizedAffinity>
-5.66259384

>  <minimizedRMSD>
2.14118409

$$$$
