
 OpenBabel03252507143D

 44 46  0  0  1  0  0  0  0  0999 V2000
   36.7240   29.8840   38.1320 C   0  0  2  0  0  0  0  0  0  0  0  0
   36.5920   29.3150   36.7690 C   0  0  0  0  0  0  0  0  0  0  0  0
   36.2180   27.8630   36.8640 C   0  0  0  0  0  0  0  0  0  0  0  0
   34.9270   27.6760   37.3490 O   0  0  0  0  0  0  0  0  0  0  0  0
   34.5590   28.7070   38.1850 C   0  0  0  0  0  0  0  0  0  0  0  0
   35.7230   29.1820   39.0250 C   0  0  1  0  0  0  0  0  0  0  0  0
   37.7650   29.6400   38.4810 H   0  0  0  0  0  0  0  0  0  0  0  0
   35.8360   29.8270   36.1360 H   0  0  0  0  0  0  0  0  0  0  0  0
   37.5480   29.3780   36.1770 H   0  0  0  0  0  0  0  0  0  0  0  0
   36.9780   27.2120   37.2870 H   0  0  0  0  0  0  0  0  0  0  0  0
   36.1790   27.5270   35.7630 H   0  0  0  0  0  0  0  0  0  0  0  0
   33.7050   28.3750   38.7920 H   0  0  0  0  0  0  0  0  0  0  0  0
   34.2140   29.5680   37.5660 H   0  0  0  0  0  0  0  0  0  0  0  0
   35.2660   30.0470   39.6140 H   0  0  0  0  0  0  0  0  0  0  0  0
   36.2040   28.7160   41.3260 C   0  0  0  0  0  0  0  0  0  0  0  0
   36.1570   28.2400   40.0000 C   0  0  0  0  0  0  0  0  0  0  0  0
   36.5740   26.9280   39.9260 C   0  0  0  0  0  0  0  0  0  0  0  0
   36.5750   26.5090   38.9530 H   0  0  0  0  0  0  0  0  0  0  0  0
   36.9940   26.1250   40.9610 C   0  0  0  0  0  3  0  0  0  0  0  0
   37.0100   26.6700   42.2250 C   0  0  0  0  0  3  0  0  0  0  0  0
   36.6130   27.9600   42.3820 C   0  0  0  0  0  0  0  0  0  0  0  0
   35.8240   30.0350   41.6440 O   0  0  0  0  0  0  0  0  0  0  0  0
   36.2820   30.5770   42.3380 H   0  0  0  0  0  0  0  0  0  0  0  0
   36.6510   28.4550   43.6800 O   0  0  0  0  0  0  0  0  0  0  0  0
   35.8770   28.4930   44.3040 H   0  0  0  0  0  0  0  0  0  0  0  0
   36.6330   31.2210   38.2340 O   0  0  0  0  0  0  0  0  0  0  0  0
   37.5280   31.8670   40.6160 O   0  0  0  0  0  0  0  0  0  0  0  0
   37.7350   32.0280   39.1610 P   0  0  2  0  0  0  0  0  0  0  0  0
   37.6020   33.6920   38.8160 O   0  0  0  0  0  0  0  0  0  0  0  0
   38.4840   34.1240   38.7070 H   0  0  0  0  0  0  0  0  0  0  0  0
   39.3360   31.5570   38.7270 O   0  0  0  0  0  0  0  0  0  0  0  0
   40.8040   32.8270   40.0650 C   0  0  0  0  0  0  0  0  0  0  0  0
   40.3960   32.4360   38.8110 C   0  0  0  0  0  0  0  0  0  0  0  0
   41.0730   32.9470   37.6750 C   0  0  0  0  0  0  0  0  0  0  0  0
   42.0990   33.8030   37.9050 N   0  0  0  0  0  0  0  0  0  0  0  0
   42.4660   34.1590   39.1320 C   0  0  0  0  0  0  0  0  0  0  0  0
   41.8050   33.6590   40.2060 N   0  0  0  0  0  0  0  0  0  0  0  0
   40.7330   31.3060   42.0330 C   0  0  0  0  0  0  0  0  0  0  0  0
   41.2220   30.3140   41.3910 O   0  0  0  0  0  0  0  0  0  0  0  0
   40.4820   32.6220   41.4310 N   0  0  0  0  0  0  0  0  0  0  0  0
   40.7290   32.6210   36.6930 H   0  0  0  0  0  0  0  0  0  0  0  0
   43.2870   34.8440   39.3250 H   0  0  0  0  0  0  0  0  0  0  0  0
   40.5020   31.1250   43.0880 H   0  0  0  0  0  0  0  0  0  0  0  0
   40.0700   33.3040   42.0960 H   0  0  0  0  0  0  0  0  0  0  0  0
  1 26  1  0  0  0  0
  1  7  1  1  0  0  0
  1  6  1  0  0  0  0
  2  3  1  0  0  0  0
  2  1  1  0  0  0  0
  3 10  1  0  0  0  0
  3  4  1  0  0  0  0
  4  5  1  0  0  0  0
  5 12  1  0  0  0  0
  5  6  1  0  0  0  0
  6 14  1  1  0  0  0
  6 16  1  0  0  0  0
  8  2  1  0  0  0  0
  9  2  1  0  0  0  0
 11  3  1  0  0  0  0
 13  5  1  0  0  0  0
 15 22  1  0  0  0  0
 15 21  1  0  0  0  0
 16 15  2  0  0  0  0
 17 16  1  0  0  0  0
 17 19  2  0  0  0  0
 18 17  1  0  0  0  0
 19 20  1  0  0  0  0
 20 21  2  0  0  0  0
 21 24  1  0  0  0  0
 22 23  1  0  0  0  0
 24 25  1  0  0  0  0
 26 28  1  0  0  0  0
 28 27  2  1  0  0  0
 29 28  1  0  0  0  0
 30 29  1  0  0  0  0
 31 33  1  0  0  0  0
 31 28  1  0  0  0  0
 32 37  1  0  0  0  0
 32 40  1  0  0  0  0
 33 32  2  0  0  0  0
 34 35  2  0  0  0  0
 34 33  1  0  0  0  0
 35 36  1  0  0  0  0
 36 42  1  0  0  0  0
 36 37  2  0  0  0  0
 38 43  1  0  0  0  0
 39 38  2  0  0  0  0
 40 38  1  0  0  0  0
 40 44  1  0  0  0  0
 41 34  1  0  0  0  0
M  END
>  <minimizedAffinity>
-6.51035309

$$$$

 OpenBabel03252507143D

 44 46  0  0  1  0  0  0  0  0999 V2000
   37.4350   26.6600   40.8340 C   0  0  2  0  0  0  0  0  0  0  0  0
   36.6010   25.8710   39.8970 C   0  0  0  0  0  0  0  0  0  0  0  0
   37.3730   24.6730   39.4220 C   0  0  0  0  0  0  0  0  0  0  0  0
   37.5820   23.7400   40.4330 O   0  0  0  0  0  0  0  0  0  0  0  0
   37.6290   24.3490   41.6670 C   0  0  0  0  0  0  0  0  0  0  0  0
   38.3170   25.6940   41.5950 C   0  0  1  0  0  0  0  0  0  0  0  0
   38.0820   27.3290   40.2010 H   0  0  0  0  0  0  0  0  0  0  0  0
   35.6430   25.5150   40.3340 H   0  0  0  0  0  0  0  0  0  0  0  0
   36.2960   26.4580   38.9850 H   0  0  0  0  0  0  0  0  0  0  0  0
   38.2350   24.8910   38.7980 H   0  0  0  0  0  0  0  0  0  0  0  0
   36.6470   24.1650   38.6860 H   0  0  0  0  0  0  0  0  0  0  0  0
   38.1120   23.6610   42.3760 H   0  0  0  0  0  0  0  0  0  0  0  0
   36.5870   24.5200   42.0250 H   0  0  0  0  0  0  0  0  0  0  0  0
   38.2330   26.0720   42.6680 H   0  0  0  0  0  0  0  0  0  0  0  0
   40.5240   25.2490   42.4160 C   0  0  0  0  0  0  0  0  0  0  0  0
   39.7120   25.6160   41.3230 C   0  0  0  0  0  0  0  0  0  0  0  0
   40.4700   25.8500   40.1960 C   0  0  0  0  0  0  0  0  0  0  0  0
   39.9230   26.1430   39.3370 H   0  0  0  0  0  0  0  0  0  0  0  0
   41.8370   25.7570   40.0730 C   0  0  0  0  0  3  0  0  0  0  0  0
   42.5540   25.3920   41.1900 C   0  0  0  0  0  3  0  0  0  0  0  0
   41.8800   25.1440   42.3440 C   0  0  0  0  0  0  0  0  0  0  0  0
   39.9670   24.9620   43.6780 O   0  0  0  0  0  0  0  0  0  0  0  0
   40.4080   25.2100   44.5320 H   0  0  0  0  0  0  0  0  0  0  0  0
   42.6560   24.7800   43.4360 O   0  0  0  0  0  0  0  0  0  0  0  0
   42.8320   23.8470   43.7320 H   0  0  0  0  0  0  0  0  0  0  0  0
   36.7820   27.4960   41.6590 O   0  0  0  0  0  0  0  0  0  0  0  0
   38.8710   29.0860   41.6550 O   0  0  0  0  0  0  0  0  0  0  0  0
   37.4300   28.9840   41.9660 P   0  0  2  0  0  0  0  0  0  0  0  0
   37.2510   29.3080   43.6290 O   0  0  0  0  0  0  0  0  0  0  0  0
   36.9370   30.2300   43.8010 H   0  0  0  0  0  0  0  0  0  0  0  0
   36.5450   30.2020   41.1250 O   0  0  0  0  0  0  0  0  0  0  0  0
   37.1370   31.7900   39.4860 C   0  0  0  0  0  0  0  0  0  0  0  0
   36.7980   30.4950   39.8010 C   0  0  0  0  0  0  0  0  0  0  0  0
   36.7240   29.5300   38.7640 C   0  0  0  0  0  0  0  0  0  0  0  0
   37.0000   29.9580   37.5070 N   0  0  0  0  0  0  0  0  0  0  0  0
   37.3240   31.2190   37.2400 C   0  0  0  0  0  0  0  0  0  0  0  0
   37.3890   32.1270   38.2460 N   0  0  0  0  0  0  0  0  0  0  0  0
   38.4850   33.2310   41.0040 C   0  0  0  0  0  0  0  0  0  0  0  0
   39.3290   32.3080   41.2690 O   0  0  0  0  0  0  0  0  0  0  0  0
   37.3330   33.0500   40.1100 N   0  0  0  0  0  0  0  0  0  0  0  0
   36.4540   28.5120   39.0410 H   0  0  0  0  0  0  0  0  0  0  0  0
   37.5460   31.5690   36.2360 H   0  0  0  0  0  0  0  0  0  0  0  0
   38.6630   34.1960   41.4890 H   0  0  0  0  0  0  0  0  0  0  0  0
   36.7460   33.9010   40.0210 H   0  0  0  0  0  0  0  0  0  0  0  0
  1  7  1  6  0  0  0
  1  6  1  0  0  0  0
  1 26  1  0  0  0  0
  2  8  1  0  0  0  0
  2  1  1  0  0  0  0
  3  2  1  0  0  0  0
  3  4  1  0  0  0  0
  4  5  1  0  0  0  0
  5 13  1  0  0  0  0
  5 12  1  0  0  0  0
  6  5  1  0  0  0  0
  6 14  1  1  0  0  0
  9  2  1  0  0  0  0
 10  3  1  0  0  0  0
 11  3  1  0  0  0  0
 15 22  1  0  0  0  0
 16  6  1  0  0  0  0
 16 15  2  0  0  0  0
 17 16  1  0  0  0  0
 18 17  1  0  0  0  0
 19 17  2  0  0  0  0
 19 20  1  0  0  0  0
 20 21  2  0  0  0  0
 21 15  1  0  0  0  0
 21 24  1  0  0  0  0
 22 23  1  0  0  0  0
 24 25  1  0  0  0  0
 26 28  1  0  0  0  0
 28 27  2  6  0  0  0
 28 29  1  0  0  0  0
 29 30  1  0  0  0  0
 31 28  1  0  0  0  0
 32 33  1  0  0  0  0
 32 40  1  0  0  0  0
 33 31  1  0  0  0  0
 34 41  1  0  0  0  0
 34 33  2  0  0  0  0
 35 34  1  0  0  0  0
 36 35  2  0  0  0  0
 36 37  1  0  0  0  0
 37 32  2  0  0  0  0
 38 39  2  0  0  0  0
 38 43  1  0  0  0  0
 40 38  1  0  0  0  0
 42 36  1  0  0  0  0
 44 40  1  0  0  0  0
M  END
>  <minimizedAffinity>
-6.4673214

$$$$

 OpenBabel03252507143D

 44 46  0  0  1  0  0  0  0  0999 V2000
   36.5070   29.4400   37.4600 C   0  0  2  0  0  0  0  0  0  0  0  0
   35.8930   28.6140   36.3930 C   0  0  0  0  0  0  0  0  0  0  0  0
   35.3350   27.3530   36.9910 C   0  0  0  0  0  0  0  0  0  0  0  0
   34.2310   27.5920   37.8030 O   0  0  0  0  0  0  0  0  0  0  0  0
   34.2950   28.8470   38.3670 C   0  0  0  0  0  0  0  0  0  0  0  0
   35.7140   29.2210   38.7300 C   0  0  1  0  0  0  0  0  0  0  0  0
   37.5520   29.0480   37.6050 H   0  0  0  0  0  0  0  0  0  0  0  0
   35.0760   29.1250   35.8390 H   0  0  0  0  0  0  0  0  0  0  0  0
   36.6300   28.3110   35.5970 H   0  0  0  0  0  0  0  0  0  0  0  0
   36.0710   26.6610   37.3900 H   0  0  0  0  0  0  0  0  0  0  0  0
   34.9220   26.7870   36.0770 H   0  0  0  0  0  0  0  0  0  0  0  0
   33.6130   28.8750   39.2310 H   0  0  0  0  0  0  0  0  0  0  0  0
   33.9250   29.5950   37.6270 H   0  0  0  0  0  0  0  0  0  0  0  0
   35.5950   30.2810   39.1350 H   0  0  0  0  0  0  0  0  0  0  0  0
   36.2800   29.1040   41.0560 C   0  0  0  0  0  0  0  0  0  0  0  0
   36.2570   28.4580   39.8030 C   0  0  0  0  0  0  0  0  0  0  0  0
   36.8030   27.1950   39.8830 C   0  0  0  0  0  0  0  0  0  0  0  0
   36.8290   26.6560   38.9720 H   0  0  0  0  0  0  0  0  0  0  0  0
   37.3190   26.5770   40.9980 C   0  0  0  0  0  3  0  0  0  0  0  0
   37.3030   27.2790   42.1820 C   0  0  0  0  0  3  0  0  0  0  0  0
   36.7810   28.5340   42.1870 C   0  0  0  0  0  0  0  0  0  0  0  0
   35.7750   30.4100   41.2150 O   0  0  0  0  0  0  0  0  0  0  0  0
   36.1890   31.0780   41.8210 H   0  0  0  0  0  0  0  0  0  0  0  0
   36.7920   29.1930   43.4090 O   0  0  0  0  0  0  0  0  0  0  0  0
   36.0290   29.2370   44.0470 H   0  0  0  0  0  0  0  0  0  0  0  0
   36.6660   30.7460   37.1890 O   0  0  0  0  0  0  0  0  0  0  0  0
   37.6570   32.5850   38.7810 O   0  0  0  0  0  0  0  0  0  0  0  0
   37.9860   31.5330   37.7940 P   0  0  2  0  0  0  0  0  0  0  0  0
   38.7910   32.2930   36.4990 O   0  0  0  0  0  0  0  0  0  0  0  0
   39.7710   32.1690   36.5410 H   0  0  0  0  0  0  0  0  0  0  0  0
   39.0950   30.4000   38.4720 O   0  0  0  0  0  0  0  0  0  0  0  0
   41.2400   30.8120   39.3590 C   0  0  0  0  0  0  0  0  0  0  0  0
   39.8820   30.7200   39.5590 C   0  0  0  0  0  0  0  0  0  0  0  0
   39.3580   30.9550   40.8550 C   0  0  0  0  0  0  0  0  0  0  0  0
   40.2480   31.2620   41.8310 N   0  0  0  0  0  0  0  0  0  0  0  0
   41.5550   31.3420   41.6010 C   0  0  0  0  0  0  0  0  0  0  0  0
   42.0370   31.1130   40.3540 N   0  0  0  0  0  0  0  0  0  0  0  0
   42.2300   31.6690   37.2420 C   0  0  0  0  0  0  0  0  0  0  0  0
   41.4200   32.6550   37.1630 O   0  0  0  0  0  0  0  0  0  0  0  0
   42.2030   30.6770   38.3270 N   0  0  0  0  0  0  0  0  0  0  0  0
   38.2790   30.8760   40.9860 H   0  0  0  0  0  0  0  0  0  0  0  0
   42.2750   31.5880   42.3780 H   0  0  0  0  0  0  0  0  0  0  0  0
   42.9700   31.5920   36.4390 H   0  0  0  0  0  0  0  0  0  0  0  0
   42.9240   29.9380   38.2230 H   0  0  0  0  0  0  0  0  0  0  0  0
  1  7  1  1  0  0  0
  1  6  1  0  0  0  0
  2  3  1  0  0  0  0
  2  1  1  0  0  0  0
  3 10  1  0  0  0  0
  3  4  1  0  0  0  0
  4  5  1  0  0  0  0
  5  6  1  0  0  0  0
  5 12  1  0  0  0  0
  6 14  1  1  0  0  0
  6 16  1  0  0  0  0
  8  2  1  0  0  0  0
  9  2  1  0  0  0  0
 11  3  1  0  0  0  0
 13  5  1  0  0  0  0
 15 22  1  0  0  0  0
 15 21  1  0  0  0  0
 16 17  1  0  0  0  0
 16 15  2  0  0  0  0
 17 19  2  0  0  0  0
 18 17  1  0  0  0  0
 19 20  1  0  0  0  0
 20 21  2  0  0  0  0
 21 24  1  0  0  0  0
 22 23  1  0  0  0  0
 24 25  1  0  0  0  0
 26  1  1  0  0  0  0
 26 28  1  0  0  0  0
 28 31  1  0  0  0  0
 28 27  2  1  0  0  0
 29 30  1  0  0  0  0
 29 28  1  0  0  0  0
 31 33  1  0  0  0  0
 32 33  2  0  0  0  0
 32 37  1  0  0  0  0
 33 34  1  0  0  0  0
 34 41  1  0  0  0  0
 34 35  2  0  0  0  0
 36 35  1  0  0  0  0
 36 42  1  0  0  0  0
 37 36  2  0  0  0  0
 38 40  1  0  0  0  0
 39 38  2  0  0  0  0
 40 32  1  0  0  0  0
 43 38  1  0  0  0  0
 44 40  1  0  0  0  0
M  END
>  <minimizedAffinity>
-6.35554314

$$$$

 OpenBabel03252507143D

 44 46  0  0  1  0  0  0  0  0999 V2000
   36.4400   29.1930   37.1240 C   0  0  2  0  0  0  0  0  0  0  0  0
   35.7670   28.3270   36.1260 C   0  0  0  0  0  0  0  0  0  0  0  0
   35.1160   27.1670   36.8240 C   0  0  0  0  0  0  0  0  0  0  0  0
   34.0320   27.5550   37.6040 O   0  0  0  0  0  0  0  0  0  0  0  0
   34.1880   28.8460   38.0610 C   0  0  0  0  0  0  0  0  0  0  0  0
   35.6310   29.1420   38.4020 C   0  0  1  0  0  0  0  0  0  0  0  0
   37.4530   28.7390   37.3100 H   0  0  0  0  0  0  0  0  0  0  0  0
   34.9920   28.8490   35.5250 H   0  0  0  0  0  0  0  0  0  0  0  0
   36.4810   27.9050   35.3640 H   0  0  0  0  0  0  0  0  0  0  0  0
   35.7980   26.4580   37.2860 H   0  0  0  0  0  0  0  0  0  0  0  0
   34.6630   26.5580   35.9580 H   0  0  0  0  0  0  0  0  0  0  0  0
   33.5100   28.9970   38.9140 H   0  0  0  0  0  0  0  0  0  0  0  0
   33.8770   29.5530   37.2570 H   0  0  0  0  0  0  0  0  0  0  0  0
   35.5900   30.2390   38.7150 H   0  0  0  0  0  0  0  0  0  0  0  0
   36.2150   29.1910   40.7260 C   0  0  0  0  0  0  0  0  0  0  0  0
   36.1140   28.4350   39.5390 C   0  0  0  0  0  0  0  0  0  0  0  0
   36.5390   27.1390   39.7370 C   0  0  0  0  0  0  0  0  0  0  0  0
   36.5010   26.5170   38.8800 H   0  0  0  0  0  0  0  0  0  0  0  0
   37.0100   26.5820   40.9020 C   0  0  0  0  0  3  0  0  0  0  0  0
   37.0760   27.3910   42.0150 C   0  0  0  0  0  3  0  0  0  0  0  0
   36.6750   28.6850   41.9030 C   0  0  0  0  0  0  0  0  0  0  0  0
   35.8380   30.5480   40.7630 O   0  0  0  0  0  0  0  0  0  0  0  0
   36.3210   31.2280   41.3010 H   0  0  0  0  0  0  0  0  0  0  0  0
   36.7650   29.4510   43.0570 O   0  0  0  0  0  0  0  0  0  0  0  0
   36.0190   29.6270   43.6920 H   0  0  0  0  0  0  0  0  0  0  0  0
   36.6960   30.4570   36.7450 O   0  0  0  0  0  0  0  0  0  0  0  0
   37.2840   32.2280   38.5910 O   0  0  0  0  0  0  0  0  0  0  0  0
   37.8400   31.3210   37.5650 P   0  0  2  0  0  0  0  0  0  0  0  0
   38.6810   32.2880   36.4420 O   0  0  0  0  0  0  0  0  0  0  0  0
   39.6590   32.2680   36.5880 H   0  0  0  0  0  0  0  0  0  0  0  0
   38.9980   30.2560   38.2700 O   0  0  0  0  0  0  0  0  0  0  0  0
   40.6210   31.5670   39.3670 C   0  0  0  0  0  0  0  0  0  0  0  0
   40.3200   30.6200   38.4160 C   0  0  0  0  0  0  0  0  0  0  0  0
   41.3690   30.0680   37.6370 C   0  0  0  0  0  0  0  0  0  0  0  0
   42.6230   30.5180   37.8890 N   0  0  0  0  0  0  0  0  0  0  0  0
   42.8760   31.4360   38.8170 C   0  0  0  0  0  0  0  0  0  0  0  0
   41.8590   31.9520   39.5510 N   0  0  0  0  0  0  0  0  0  0  0  0
   39.3920   31.7370   41.5250 C   0  0  0  0  0  0  0  0  0  0  0  0
   39.4090   30.4750   41.7320 O   0  0  0  0  0  0  0  0  0  0  0  0
   39.9820   32.3770   40.3410 N   0  0  0  0  0  0  0  0  0  0  0  0
   41.1040   29.3200   36.8910 H   0  0  0  0  0  0  0  0  0  0  0  0
   43.8780   31.8020   39.0250 H   0  0  0  0  0  0  0  0  0  0  0  0
   38.9020   32.3410   42.2960 H   0  0  0  0  0  0  0  0  0  0  0  0
   39.8640   33.4080   40.3320 H   0  0  0  0  0  0  0  0  0  0  0  0
  1  7  1  1  0  0  0
  1  6  1  0  0  0  0
  2  3  1  0  0  0  0
  2  1  1  0  0  0  0
  3 10  1  0  0  0  0
  3  4  1  0  0  0  0
  4  5  1  0  0  0  0
  5  6  1  0  0  0  0
  5 12  1  0  0  0  0
  6 14  1  1  0  0  0
  6 16  1  0  0  0  0
  8  2  1  0  0  0  0
  9  2  1  0  0  0  0
 11  3  1  0  0  0  0
 13  5  1  0  0  0  0
 15 22  1  0  0  0  0
 15 21  1  0  0  0  0
 16 17  1  0  0  0  0
 16 15  2  0  0  0  0
 17 19  2  0  0  0  0
 18 17  1  0  0  0  0
 19 20  1  0  0  0  0
 21 20  2  0  0  0  0
 21 24  1  0  0  0  0
 22 23  1  0  0  0  0
 24 25  1  0  0  0  0
 26  1  1  0  0  0  0
 26 28  1  0  0  0  0
 28 31  1  0  0  0  0
 28 27  2  1  0  0  0
 29 30  1  0  0  0  0
 29 28  1  0  0  0  0
 31 33  1  0  0  0  0
 32 37  1  0  0  0  0
 32 40  1  0  0  0  0
 33 32  2  0  0  0  0
 34 35  2  0  0  0  0
 34 33  1  0  0  0  0
 35 36  1  0  0  0  0
 36 42  1  0  0  0  0
 36 37  2  0  0  0  0
 38 39  2  0  0  0  0
 38 43  1  0  0  0  0
 40 38  1  0  0  0  0
 41 34  1  0  0  0  0
 44 40  1  0  0  0  0
M  END
>  <minimizedAffinity>
-6.16384268

$$$$

 OpenBabel03252507143D

 44 46  0  0  1  0  0  0  0  0999 V2000
   38.0880   29.8300   39.3820 C   0  0  2  0  0  0  0  0  0  0  0  0
   36.9640   30.1470   40.2960 C   0  0  0  0  0  0  0  0  0  0  0  0
   37.0920   31.5650   40.7770 C   0  0  0  0  0  0  0  0  0  0  0  0
   36.8730   32.4930   39.7640 O   0  0  0  0  0  0  0  0  0  0  0  0
   37.2220   31.9760   38.5360 C   0  0  0  0  0  0  0  0  0  0  0  0
   38.4470   31.0950   38.6330 C   0  0  1  0  0  0  0  0  0  0  0  0
   38.9540   29.5290   40.0340 H   0  0  0  0  0  0  0  0  0  0  0  0
   35.9600   30.0270   39.8360 H   0  0  0  0  0  0  0  0  0  0  0  0
   36.9410   29.4830   41.2050 H   0  0  0  0  0  0  0  0  0  0  0  0
   37.9440   31.7630   41.4220 H   0  0  0  0  0  0  0  0  0  0  0  0
   36.1980   31.6820   41.4940 H   0  0  0  0  0  0  0  0  0  0  0  0
   37.3520   32.8110   37.8320 H   0  0  0  0  0  0  0  0  0  0  0  0
   36.3810   31.3490   38.1570 H   0  0  0  0  0  0  0  0  0  0  0  0
   38.5690   30.7230   37.5610 H   0  0  0  0  0  0  0  0  0  0  0  0
   40.3010   32.3840   37.8290 C   0  0  0  0  0  0  0  0  0  0  0  0
   39.6460   31.8010   38.9340 C   0  0  0  0  0  0  0  0  0  0  0  0
   40.3400   32.0310   40.1020 C   0  0  0  0  0  0  0  0  0  0  0  0
   39.9090   31.6090   40.9730 H   0  0  0  0  0  0  0  0  0  0  0  0
   41.5180   32.7240   40.2520 C   0  0  0  0  0  3  0  0  0  0  0  0
   42.0910   33.2600   39.1210 C   0  0  0  0  0  3  0  0  0  0  0  0
   41.4680   33.0780   37.9270 C   0  0  0  0  0  0  0  0  0  0  0  0
   39.7740   32.2770   36.5260 O   0  0  0  0  0  0  0  0  0  0  0  0
   40.3440   32.1690   35.7210 H   0  0  0  0  0  0  0  0  0  0  0  0
   42.0930   33.6410   36.8220 O   0  0  0  0  0  0  0  0  0  0  0  0
   41.8700   34.5250   36.4220 H   0  0  0  0  0  0  0  0  0  0  0  0
   37.9080   28.7910   38.5500 O   0  0  0  0  0  0  0  0  0  0  0  0
   36.3400   26.9270   37.5710 O   0  0  0  0  0  0  0  0  0  0  0  0
   36.5190   27.9060   38.6640 P   0  0  2  0  0  0  0  0  0  0  0  0
   35.1980   28.9800   38.5980 O   0  0  0  0  0  0  0  0  0  0  0  0
   34.5090   28.7700   39.2750 H   0  0  0  0  0  0  0  0  0  0  0  0
   36.4410   27.1160   40.1960 O   0  0  0  0  0  0  0  0  0  0  0  0
   38.2390   26.6930   41.6600 C   0  0  0  0  0  0  0  0  0  0  0  0
   37.4410   26.2680   40.6240 C   0  0  0  0  0  0  0  0  0  0  0  0
   37.6780   24.9950   40.0470 C   0  0  0  0  0  0  0  0  0  0  0  0
   38.6950   24.2650   40.5690 N   0  0  0  0  0  0  0  0  0  0  0  0
   39.4470   24.7080   41.5720 C   0  0  0  0  0  0  0  0  0  0  0  0
   39.2040   25.9290   42.1090 N   0  0  0  0  0  0  0  0  0  0  0  0
   37.3770   28.0900   43.5310 C   0  0  0  0  0  0  0  0  0  0  0  0
   36.3150   27.3930   43.6750 O   0  0  0  0  0  0  0  0  0  0  0  0
   38.4080   27.8070   42.5230 N   0  0  0  0  0  0  0  0  0  0  0  0
   37.0320   24.6830   39.2280 H   0  0  0  0  0  0  0  0  0  0  0  0
   40.2630   24.1290   41.9950 H   0  0  0  0  0  0  0  0  0  0  0  0
   37.4880   28.9380   44.2150 H   0  0  0  0  0  0  0  0  0  0  0  0
   39.1930   28.4840   42.5390 H   0  0  0  0  0  0  0  0  0  0  0  0
  1  7  1  1  0  0  0
  1  2  1  0  0  0  0
  2  3  1  0  0  0  0
  2  9  1  0  0  0  0
  3 10  1  0  0  0  0
  3 11  1  0  0  0  0
  4  3  1  0  0  0  0
  5  6  1  0  0  0  0
  5  4  1  0  0  0  0
  6 14  1  6  0  0  0
  6 16  1  0  0  0  0
  6  1  1  0  0  0  0
  8  2  1  0  0  0  0
 12  5  1  0  0  0  0
 13  5  1  0  0  0  0
 15 21  2  0  0  0  0
 15 16  1  0  0  0  0
 16 17  2  0  0  0  0
 17 19  1  0  0  0  0
 17 18  1  0  0  0  0
 20 19  2  0  0  0  0
 21 20  1  0  0  0  0
 22 15  1  0  0  0  0
 23 22  1  0  0  0  0
 24 21  1  0  0  0  0
 25 24  1  0  0  0  0
 26 28  1  0  0  0  0
 26  1  1  0  0  0  0
 28 27  2  6  0  0  0
 28 31  1  0  0  0  0
 29 28  1  0  0  0  0
 29 30  1  0  0  0  0
 31 33  1  0  0  0  0
 32 37  1  0  0  0  0
 32 40  1  0  0  0  0
 33 32  2  0  0  0  0
 34 35  2  0  0  0  0
 34 33  1  0  0  0  0
 35 36  1  0  0  0  0
 36 42  1  0  0  0  0
 36 37  2  0  0  0  0
 38 39  2  0  0  0  0
 38 43  1  0  0  0  0
 40 44  1  0  0  0  0
 40 38  1  0  0  0  0
 41 34  1  0  0  0  0
M  END
>  <minimizedAffinity>
-6.12818384

$$$$

 OpenBabel03252507143D

 44 46  0  0  1  0  0  0  0  0999 V2000
   37.8340   26.4880   40.7850 C   0  0  2  0  0  0  0  0  0  0  0  0
   37.0280   25.8390   39.7220 C   0  0  0  0  0  0  0  0  0  0  0  0
   37.7980   24.6880   39.1390 C   0  0  0  0  0  0  0  0  0  0  0  0
   37.9410   23.6340   40.0360 O   0  0  0  0  0  0  0  0  0  0  0  0
   37.9430   24.0890   41.3360 C   0  0  0  0  0  0  0  0  0  0  0  0
   38.6600   25.4140   41.4590 C   0  0  1  0  0  0  0  0  0  0  0  0
   38.5220   27.2120   40.2670 H   0  0  0  0  0  0  0  0  0  0  0  0
   36.0440   25.4570   40.0700 H   0  0  0  0  0  0  0  0  0  0  0  0
   36.7780   26.5400   38.8760 H   0  0  0  0  0  0  0  0  0  0  0  0
   38.6920   24.9590   38.5840 H   0  0  0  0  0  0  0  0  0  0  0  0
   37.0970   24.2920   38.3150 H   0  0  0  0  0  0  0  0  0  0  0  0
   38.3790   23.3080   41.9770 H   0  0  0  0  0  0  0  0  0  0  0  0
   36.8890   24.2410   41.6670 H   0  0  0  0  0  0  0  0  0  0  0  0
   38.5340   25.6620   42.5660 H   0  0  0  0  0  0  0  0  0  0  0  0
   40.8510   25.1770   42.4010 C   0  0  0  0  0  0  0  0  0  0  0  0
   40.0650   25.3350   41.2410 C   0  0  0  0  0  0  0  0  0  0  0  0
   40.8510   25.4030   40.1110 C   0  0  0  0  0  0  0  0  0  0  0  0
   40.3240   25.5350   39.2020 H   0  0  0  0  0  0  0  0  0  0  0  0
   42.2230   25.3330   40.0420 C   0  0  0  0  0  3  0  0  0  0  0  0
   42.9140   25.1780   41.2220 C   0  0  0  0  0  3  0  0  0  0  0  0
   42.2110   25.1030   42.3830 C   0  0  0  0  0  0  0  0  0  0  0  0
   40.2620   25.0860   43.6770 O   0  0  0  0  0  0  0  0  0  0  0  0
   40.6710   25.4830   44.4900 H   0  0  0  0  0  0  0  0  0  0  0  0
   42.9620   24.9470   43.5410 O   0  0  0  0  0  0  0  0  0  0  0  0
   43.1520   24.0810   43.9920 H   0  0  0  0  0  0  0  0  0  0  0  0
   37.1600   27.2340   41.6760 O   0  0  0  0  0  0  0  0  0  0  0  0
   38.8320   27.8770   43.5950 O   0  0  0  0  0  0  0  0  0  0  0  0
   37.9700   28.4030   42.5150 P   0  0  2  0  0  0  0  0  0  0  0  0
   36.8190   29.4270   43.2440 O   0  0  0  0  0  0  0  0  0  0  0  0
   37.0510   30.3830   43.1430 H   0  0  0  0  0  0  0  0  0  0  0  0
   38.8910   29.3810   41.4330 O   0  0  0  0  0  0  0  0  0  0  0  0
   39.0150   31.7230   41.2010 C   0  0  0  0  0  0  0  0  0  0  0  0
   38.3790   30.5420   40.8950 C   0  0  0  0  0  0  0  0  0  0  0  0
   37.2390   30.5710   40.0520 C   0  0  0  0  0  0  0  0  0  0  0  0
   36.8460   31.7850   39.5920 N   0  0  0  0  0  0  0  0  0  0  0  0
   37.4860   32.9070   39.9090 C   0  0  0  0  0  0  0  0  0  0  0  0
   38.5740   32.8580   40.7180 N   0  0  0  0  0  0  0  0  0  0  0  0
   41.4800   31.8780   41.5070 C   0  0  0  0  0  0  0  0  0  0  0  0
   41.7380   31.1640   40.4780 O   0  0  0  0  0  0  0  0  0  0  0  0
   40.1180   32.2060   41.9510 N   0  0  0  0  0  0  0  0  0  0  0  0
   36.7540   29.6220   39.8250 H   0  0  0  0  0  0  0  0  0  0  0  0
   37.1770   33.8830   39.5460 H   0  0  0  0  0  0  0  0  0  0  0  0
   42.3480   32.2470   42.0620 H   0  0  0  0  0  0  0  0  0  0  0  0
   40.0970   32.7840   42.8120 H   0  0  0  0  0  0  0  0  0  0  0  0
  1  7  1  6  0  0  0
  1  6  1  0  0  0  0
  1 26  1  0  0  0  0
  2  8  1  0  0  0  0
  2  1  1  0  0  0  0
  3  2  1  0  0  0  0
  3  4  1  0  0  0  0
  4  5  1  0  0  0  0
  5  6  1  0  0  0  0
  5 13  1  0  0  0  0
  5 12  1  0  0  0  0
  6 14  1  1  0  0  0
  9  2  1  0  0  0  0
 10  3  1  0  0  0  0
 11  3  1  0  0  0  0
 15 22  1  0  0  0  0
 16  6  1  0  0  0  0
 16 15  2  0  0  0  0
 17 16  1  0  0  0  0
 18 17  1  0  0  0  0
 19 17  2  0  0  0  0
 19 20  1  0  0  0  0
 20 21  2  0  0  0  0
 21 15  1  0  0  0  0
 21 24  1  0  0  0  0
 22 23  1  0  0  0  0
 24 25  1  0  0  0  0
 26 28  1  0  0  0  0
 28 29  1  0  0  0  0
 28 27  2  1  0  0  0
 30 29  1  0  0  0  0
 31 28  1  0  0  0  0
 32 40  1  0  0  0  0
 33 32  1  0  0  0  0
 33 31  1  0  0  0  0
 34 33  2  0  0  0  0
 35 36  2  0  0  0  0
 35 34  1  0  0  0  0
 36 37  1  0  0  0  0
 37 32  2  0  0  0  0
 38 40  1  0  0  0  0
 38 43  1  0  0  0  0
 39 38  2  0  0  0  0
 40 44  1  0  0  0  0
 41 34  1  0  0  0  0
 42 36  1  0  0  0  0
M  END
>  <minimizedAffinity>
-5.97329092

$$$$

 OpenBabel03252507143D

 44 46  0  0  1  0  0  0  0  0999 V2000
   37.4560   26.1260   40.6060 C   0  0  2  0  0  0  0  0  0  0  0  0
   36.8010   25.3410   39.5320 C   0  0  0  0  0  0  0  0  0  0  0  0
   37.7590   24.3080   39.0090 C   0  0  0  0  0  0  0  0  0  0  0  0
   38.0220   23.3070   39.9380 O   0  0  0  0  0  0  0  0  0  0  0  0
   37.9010   23.7830   41.2250 C   0  0  0  0  0  0  0  0  0  0  0  0
   38.4050   25.2030   41.3400 C   0  0  1  0  0  0  0  0  0  0  0  0
   38.0480   26.9350   40.0960 H   0  0  0  0  0  0  0  0  0  0  0  0
   35.8730   24.8220   39.8530 H   0  0  0  0  0  0  0  0  0  0  0  0
   36.4840   25.9790   38.6590 H   0  0  0  0  0  0  0  0  0  0  0  0
   38.6240   24.6990   38.4810 H   0  0  0  0  0  0  0  0  0  0  0  0
   37.1600   23.7940   38.1700 H   0  0  0  0  0  0  0  0  0  0  0  0
   38.4230   23.0900   41.9020 H   0  0  0  0  0  0  0  0  0  0  0  0
   36.8240   23.7800   41.5120 H   0  0  0  0  0  0  0  0  0  0  0  0
   38.1970   25.4510   42.4350 H   0  0  0  0  0  0  0  0  0  0  0  0
   40.5880   25.0180   42.3130 C   0  0  0  0  0  0  0  0  0  0  0  0
   39.8140   25.3330   41.1770 C   0  0  0  0  0  0  0  0  0  0  0  0
   40.6110   25.7330   40.1260 C   0  0  0  0  0  0  0  0  0  0  0  0
   40.0920   25.9970   39.2420 H   0  0  0  0  0  0  0  0  0  0  0  0
   41.9820   25.8350   40.1090 C   0  0  0  0  0  3  0  0  0  0  0  0
   42.6610   25.5070   41.2610 C   0  0  0  0  0  3  0  0  0  0  0  0
   41.9460   25.1040   42.3450 C   0  0  0  0  0  0  0  0  0  0  0  0
   39.9860   24.5860   43.5110 O   0  0  0  0  0  0  0  0  0  0  0  0
   40.3250   24.8420   44.4090 H   0  0  0  0  0  0  0  0  0  0  0  0
   42.6850   24.7870   43.4770 O   0  0  0  0  0  0  0  0  0  0  0  0
   42.9680   23.8710   43.7430 H   0  0  0  0  0  0  0  0  0  0  0  0
   36.6410   26.7790   41.4520 O   0  0  0  0  0  0  0  0  0  0  0  0
   38.4650   28.6520   41.6940 O   0  0  0  0  0  0  0  0  0  0  0  0
   37.0490   28.3040   41.9370 P   0  0  2  0  0  0  0  0  0  0  0  0
   36.7860   28.4150   43.6170 O   0  0  0  0  0  0  0  0  0  0  0  0
   36.3330   29.2560   43.8720 H   0  0  0  0  0  0  0  0  0  0  0  0
   36.0100   29.4620   41.1940 O   0  0  0  0  0  0  0  0  0  0  0  0
   36.4760   29.8420   38.9150 C   0  0  0  0  0  0  0  0  0  0  0  0
   36.4630   30.3120   40.2080 C   0  0  0  0  0  0  0  0  0  0  0  0
   36.9120   31.6330   40.4660 C   0  0  0  0  0  0  0  0  0  0  0  0
   37.3300   32.3590   39.3990 N   0  0  0  0  0  0  0  0  0  0  0  0
   37.3280   31.8710   38.1630 C   0  0  0  0  0  0  0  0  0  0  0  0
   36.8960   30.6050   37.9370 N   0  0  0  0  0  0  0  0  0  0  0  0
   34.7470   28.2810   38.0390 C   0  0  0  0  0  0  0  0  0  0  0  0
   33.7760   28.9280   38.5630 O   0  0  0  0  0  0  0  0  0  0  0  0
   36.1560   28.6750   38.1750 N   0  0  0  0  0  0  0  0  0  0  0  0
   36.8910   31.9800   41.4980 H   0  0  0  0  0  0  0  0  0  0  0  0
   37.6610   32.4460   37.3030 H   0  0  0  0  0  0  0  0  0  0  0  0
   34.4730   27.3900   37.4640 H   0  0  0  0  0  0  0  0  0  0  0  0
   36.8100   28.0270   37.6960 H   0  0  0  0  0  0  0  0  0  0  0  0
  1  7  1  6  0  0  0
  1  6  1  0  0  0  0
  1 26  1  0  0  0  0
  2  8  1  0  0  0  0
  2  1  1  0  0  0  0
  3  2  1  0  0  0  0
  3  4  1  0  0  0  0
  4  5  1  0  0  0  0
  5  6  1  0  0  0  0
  5 13  1  0  0  0  0
  5 12  1  0  0  0  0
  6 14  1  1  0  0  0
  9  2  1  0  0  0  0
 10  3  1  0  0  0  0
 11  3  1  0  0  0  0
 15 21  1  0  0  0  0
 15 22  1  0  0  0  0
 16  6  1  0  0  0  0
 16 15  2  0  0  0  0
 17 16  1  0  0  0  0
 18 17  1  0  0  0  0
 19 17  2  0  0  0  0
 19 20  1  0  0  0  0
 20 21  2  0  0  0  0
 21 24  1  0  0  0  0
 22 23  1  0  0  0  0
 24 25  1  0  0  0  0
 26 28  1  0  0  0  0
 28 27  2  6  0  0  0
 28 29  1  0  0  0  0
 29 30  1  0  0  0  0
 31 28  1  0  0  0  0
 32 33  1  0  0  0  0
 33 34  2  0  0  0  0
 33 31  1  0  0  0  0
 34 41  1  0  0  0  0
 35 34  1  0  0  0  0
 36 35  2  0  0  0  0
 37 36  1  0  0  0  0
 37 32  2  0  0  0  0
 38 40  1  0  0  0  0
 38 39  2  0  0  0  0
 40 32  1  0  0  0  0
 42 36  1  0  0  0  0
 43 38  1  0  0  0  0
 44 40  1  0  0  0  0
M  END
>  <minimizedAffinity>
-5.90169191

$$$$

 OpenBabel03252507143D

 44 46  0  0  1  0  0  0  0  0999 V2000
   38.8600   30.9770   41.1070 C   0  0  2  0  0  0  0  0  0  0  0  0
   39.2120   30.4540   42.4480 C   0  0  0  0  0  0  0  0  0  0  0  0
   38.3990   29.2250   42.7390 C   0  0  0  0  0  0  0  0  0  0  0  0
   38.7590   28.1460   41.9370 O   0  0  0  0  0  0  0  0  0  0  0  0
   39.2520   28.5750   40.7240 C   0  0  0  0  0  0  0  0  0  0  0  0
   38.5140   29.7960   40.2260 C   0  0  1  0  0  0  0  0  0  0  0  0
   37.9450   31.6170   41.2430 H   0  0  0  0  0  0  0  0  0  0  0  0
   40.2870   30.1940   42.5650 H   0  0  0  0  0  0  0  0  0  0  0  0
   39.0090   31.1950   43.2720 H   0  0  0  0  0  0  0  0  0  0  0  0
   37.3310   29.3890   42.8550 H   0  0  0  0  0  0  0  0  0  0  0  0
   38.7290   28.9340   43.8040 H   0  0  0  0  0  0  0  0  0  0  0  0
   39.2110   27.7340   40.0160 H   0  0  0  0  0  0  0  0  0  0  0  0
   40.3250   28.8540   40.8490 H   0  0  0  0  0  0  0  0  0  0  0  0
   39.0640   30.0390   39.2560 H   0  0  0  0  0  0  0  0  0  0  0  0
   36.9350   29.4120   38.4640 C   0  0  0  0  0  0  0  0  0  0  0  0
   37.1640   29.5430   39.8490 C   0  0  0  0  0  0  0  0  0  0  0  0
   35.9920   29.4160   40.5620 C   0  0  0  0  0  0  0  0  0  0  0  0
   36.0890   29.5160   41.6120 H   0  0  0  0  0  0  0  0  0  0  0  0
   34.7300   29.1890   40.0640 C   0  0  0  0  0  3  0  0  0  0  0  0
   34.5950   29.0740   38.6980 C   0  0  0  0  0  3  0  0  0  0  0  0
   35.7060   29.1880   37.9230 C   0  0  0  0  0  0  0  0  0  0  0  0
   37.9910   29.5090   37.5350 O   0  0  0  0  0  0  0  0  0  0  0  0
   37.8890   29.9360   36.6450 H   0  0  0  0  0  0  0  0  0  0  0  0
   35.5080   29.0630   36.5540 O   0  0  0  0  0  0  0  0  0  0  0  0
   35.6360   28.2290   36.0280 H   0  0  0  0  0  0  0  0  0  0  0  0
   39.7610   31.7870   40.5240 O   0  0  0  0  0  0  0  0  0  0  0  0
   38.7390   34.1560   41.0100 O   0  0  0  0  0  0  0  0  0  0  0  0
   39.2650   33.2580   39.9600 P   0  0  2  0  0  0  0  0  0  0  0  0
   38.0070   33.0010   38.8410 O   0  0  0  0  0  0  0  0  0  0  0  0
   38.1090   33.5530   38.0270 H   0  0  0  0  0  0  0  0  0  0  0  0
   40.5470   34.0270   39.0990 O   0  0  0  0  0  0  0  0  0  0  0  0
   42.8200   33.4470   38.8690 C   0  0  0  0  0  0  0  0  0  0  0  0
   41.5190   33.2980   38.4470 C   0  0  0  0  0  0  0  0  0  0  0  0
   41.2390   32.4140   37.3740 C   0  0  0  0  0  0  0  0  0  0  0  0
   42.2930   31.7590   36.8270 N   0  0  0  0  0  0  0  0  0  0  0  0
   43.5380   31.9290   37.2600 C   0  0  0  0  0  0  0  0  0  0  0  0
   43.7850   32.7800   38.2870 N   0  0  0  0  0  0  0  0  0  0  0  0
   43.4220   33.8270   41.2540 C   0  0  0  0  0  0  0  0  0  0  0  0
   42.6200   32.9300   41.6870 O   0  0  0  0  0  0  0  0  0  0  0  0
   43.5810   34.1600   39.8310 N   0  0  0  0  0  0  0  0  0  0  0  0
   40.2000   32.3140   37.0610 H   0  0  0  0  0  0  0  0  0  0  0  0
   44.3880   31.4090   36.8270 H   0  0  0  0  0  0  0  0  0  0  0  0
   44.0040   34.3560   42.0150 H   0  0  0  0  0  0  0  0  0  0  0  0
   44.2640   34.9230   39.6630 H   0  0  0  0  0  0  0  0  0  0  0  0
  1  7  1  1  0  0  0
  1  2  1  0  0  0  0
  2  8  1  0  0  0  0
  2  3  1  0  0  0  0
  2  9  1  0  0  0  0
  3 10  1  0  0  0  0
  3 11  1  0  0  0  0
  4  3  1  0  0  0  0
  5 13  1  0  0  0  0
  5  4  1  0  0  0  0
  6 14  1  6  0  0  0
  6  5  1  0  0  0  0
  6  1  1  0  0  0  0
 12  5  1  0  0  0  0
 15 16  1  0  0  0  0
 16  6  1  0  0  0  0
 16 17  2  0  0  0  0
 17 18  1  0  0  0  0
 19 17  1  0  0  0  0
 20 19  2  0  0  0  0
 21 15  2  0  0  0  0
 21 20  1  0  0  0  0
 22 15  1  0  0  0  0
 23 22  1  0  0  0  0
 24 21  1  0  0  0  0
 25 24  1  0  0  0  0
 26  1  1  0  0  0  0
 28 26  1  0  0  0  0
 28 27  2  1  0  0  0
 29 28  1  0  0  0  0
 30 29  1  0  0  0  0
 31 28  1  0  0  0  0
 32 40  1  0  0  0  0
 33 32  1  0  0  0  0
 33 31  1  0  0  0  0
 34 33  2  0  0  0  0
 35 36  2  0  0  0  0
 35 34  1  0  0  0  0
 36 37  1  0  0  0  0
 37 32  2  0  0  0  0
 38 39  2  0  0  0  0
 38 43  1  0  0  0  0
 40 38  1  0  0  0  0
 41 34  1  0  0  0  0
 42 36  1  0  0  0  0
 44 40  1  0  0  0  0
M  END
>  <minimizedAffinity>
-5.82585478

$$$$

 OpenBabel03252507143D

 44 46  0  0  1  0  0  0  0  0999 V2000
   37.1450   27.6280   38.2350 C   0  0  2  0  0  0  0  0  0  0  0  0
   37.6010   26.5310   37.3480 C   0  0  0  0  0  0  0  0  0  0  0  0
   38.0310   25.3560   38.1810 C   0  0  0  0  0  0  0  0  0  0  0  0
   36.9620   24.7420   38.8260 O   0  0  0  0  0  0  0  0  0  0  0  0
   35.9540   25.6450   39.0830 C   0  0  0  0  0  0  0  0  0  0  0  0
   36.5070   27.0010   39.4560 C   0  0  1  0  0  0  0  0  0  0  0  0
   38.0680   28.1900   38.5490 H   0  0  0  0  0  0  0  0  0  0  0  0
   36.8300   26.1810   36.6280 H   0  0  0  0  0  0  0  0  0  0  0  0
   38.4770   26.8260   36.7050 H   0  0  0  0  0  0  0  0  0  0  0  0
   38.9190   25.5140   38.7870 H   0  0  0  0  0  0  0  0  0  0  0  0
   38.3900   24.5930   37.3960 H   0  0  0  0  0  0  0  0  0  0  0  0
   35.3000   25.2230   39.8600 H   0  0  0  0  0  0  0  0  0  0  0  0
   35.3390   25.7710   38.1610 H   0  0  0  0  0  0  0  0  0  0  0  0
   35.5610   27.6250   39.5900 H   0  0  0  0  0  0  0  0  0  0  0  0
   36.7550   28.0530   41.5950 C   0  0  0  0  0  0  0  0  0  0  0  0
   37.1680   27.0310   40.7160 C   0  0  0  0  0  0  0  0  0  0  0  0
   38.1710   26.2680   41.2760 C   0  0  0  0  0  0  0  0  0  0  0  0
   38.5390   25.4870   40.6620 H   0  0  0  0  0  0  0  0  0  0  0  0
   38.7430   26.4200   42.5170 C   0  0  0  0  0  3  0  0  0  0  0  0
   38.2800   27.4440   43.3120 C   0  0  0  0  0  3  0  0  0  0  0  0
   37.2910   28.2430   42.8330 C   0  0  0  0  0  0  0  0  0  0  0  0
   35.7390   28.9610   41.2360 O   0  0  0  0  0  0  0  0  0  0  0  0
   35.7550   29.9190   41.4950 H   0  0  0  0  0  0  0  0  0  0  0  0
   36.8650   29.2590   43.6790 O   0  0  0  0  0  0  0  0  0  0  0  0
   36.0750   29.2130   44.2820 H   0  0  0  0  0  0  0  0  0  0  0  0
   36.3510   28.5580   37.6780 O   0  0  0  0  0  0  0  0  0  0  0  0
   36.1360   29.7940   35.3720 O   0  0  0  0  0  0  0  0  0  0  0  0
   36.9920   29.5900   36.5600 P   0  0  2  0  0  0  0  0  0  0  0  0
   38.4640   28.9320   36.0110 O   0  0  0  0  0  0  0  0  0  0  0  0
   39.1820   29.6100   35.9570 H   0  0  0  0  0  0  0  0  0  0  0  0
   37.3680   31.1040   37.2960 O   0  0  0  0  0  0  0  0  0  0  0  0
   39.0070   30.7690   38.9570 C   0  0  0  0  0  0  0  0  0  0  0  0
   37.7420   31.1920   38.6200 C   0  0  0  0  0  0  0  0  0  0  0  0
   36.8880   31.6910   39.6360 C   0  0  0  0  0  0  0  0  0  0  0  0
   37.3870   31.7220   40.8970 N   0  0  0  0  0  0  0  0  0  0  0  0
   38.6160   31.3040   41.1860 C   0  0  0  0  0  0  0  0  0  0  0  0
   39.4160   30.8290   40.1990 N   0  0  0  0  0  0  0  0  0  0  0  0
   40.9630   31.0560   37.4450 C   0  0  0  0  0  0  0  0  0  0  0  0
   40.6610   32.2600   37.1430 O   0  0  0  0  0  0  0  0  0  0  0  0
   40.1700   30.2200   38.3580 N   0  0  0  0  0  0  0  0  0  0  0  0
   35.8920   32.0200   39.3430 H   0  0  0  0  0  0  0  0  0  0  0  0
   39.0220   31.3250   42.1930 H   0  0  0  0  0  0  0  0  0  0  0  0
   41.8700   30.6590   36.9780 H   0  0  0  0  0  0  0  0  0  0  0  0
   40.5550   29.2640   38.4770 H   0  0  0  0  0  0  0  0  0  0  0  0
  1  7  1  1  0  0  0
  1  6  1  0  0  0  0
  2  3  1  0  0  0  0
  2  1  1  0  0  0  0
  3 10  1  0  0  0  0
  3  4  1  0  0  0  0
  4  5  1  0  0  0  0
  5  6  1  0  0  0  0
  5 12  1  0  0  0  0
  6 14  1  1  0  0  0
  6 16  1  0  0  0  0
  8  2  1  0  0  0  0
  9  2  1  0  0  0  0
 11  3  1  0  0  0  0
 13  5  1  0  0  0  0
 15 21  1  0  0  0  0
 16 17  1  0  0  0  0
 16 15  2  0  0  0  0
 17 19  2  0  0  0  0
 18 17  1  0  0  0  0
 19 20  1  0  0  0  0
 21 20  2  0  0  0  0
 21 24  1  0  0  0  0
 22 23  1  0  0  0  0
 22 15  1  0  0  0  0
 24 25  1  0  0  0  0
 26  1  1  0  0  0  0
 28 27  2  6  0  0  0
 28 31  1  0  0  0  0
 28 26  1  0  0  0  0
 29 28  1  0  0  0  0
 30 29  1  0  0  0  0
 31 33  1  0  0  0  0
 32 37  1  0  0  0  0
 33 32  2  0  0  0  0
 33 34  1  0  0  0  0
 34 35  2  0  0  0  0
 35 36  1  0  0  0  0
 36 42  1  0  0  0  0
 37 36  2  0  0  0  0
 38 40  1  0  0  0  0
 39 38  2  0  0  0  0
 40 44  1  0  0  0  0
 40 32  1  0  0  0  0
 41 34  1  0  0  0  0
 43 38  1  0  0  0  0
M  END
>  <minimizedAffinity>
-5.80039072

$$$$
