
 OpenBabel03252500513D

 37 39  0  0  0  0  0  0  0  0999 V2000
   44.8280   34.9520   42.0870 C   0  0  0  0  0  0  0  0  0  0  0  0
   45.5990   34.7770   41.1210 O   0  0  0  0  0  0  0  0  0  0  0  0
   44.9470   35.0050   44.5240 C   0  0  0  0  0  0  0  0  0  0  0  0
   45.1520   34.3170   43.3540 C   0  0  0  0  0  0  0  0  0  0  0  0
   45.6710   33.0030   43.3610 C   0  0  0  0  0  0  0  0  0  0  0  0
   45.9520   32.4710   44.5950 N   0  0  0  0  0  0  0  0  0  0  0  0
   45.7490   33.1460   45.7210 C   0  0  0  0  0  0  0  0  0  0  0  0
   45.2520   34.4010   45.6840 N   0  0  0  0  0  0  0  0  0  0  0  0
   44.5600   35.9940   44.5930 H   0  0  0  0  0  0  0  0  0  0  0  0
   45.8390   32.4470   42.4570 H   0  0  0  0  0  0  0  0  0  0  0  0
   46.0610   32.5460   47.0090 C   0  0  0  0  0  0  0  0  0  0  0  0
   47.3310   32.2410   47.3880 C   0  0  0  0  0  0  0  0  0  0  0  0
   47.6400   31.6770   48.5960 C   0  0  0  0  0  0  0  0  0  0  0  0
   46.6110   31.4190   49.4320 N   0  0  0  0  0  0  0  0  0  0  0  0
   45.3680   31.7170   49.0570 C   0  0  0  0  0  0  0  0  0  0  0  0
   45.0380   32.2710   47.8820 N   0  0  0  0  0  0  0  0  0  0  0  0
   48.1580   32.4460   46.7220 H   0  0  0  0  0  0  0  0  0  0  0  0
   48.6440   31.4300   48.9120 H   0  0  0  0  0  0  0  0  0  0  0  0
   44.5250   31.5180   49.7150 H   0  0  0  0  0  0  0  0  0  0  0  0
   43.8040   35.7520   41.6730 O   0  0  0  0  0  0  0  0  0  0  0  0
   42.7380   35.3140   40.9310 C   0  0  0  0  0  0  0  0  0  0  0  0
   42.7890   35.8860   39.9530 H   0  0  0  0  0  0  0  0  0  0  0  0
   42.7410   34.2610   40.5880 H   0  0  0  0  0  0  0  0  0  0  0  0
   41.3780   35.7210   41.4860 C   0  0  0  0  0  0  0  0  0  0  0  0
   41.1700   36.7830   41.3280 H   0  0  0  0  0  0  0  0  0  0  0  0
   41.3350   35.3820   42.5280 H   0  0  0  0  0  0  0  0  0  0  0  0
   39.5890   33.9490   41.3050 C   0  0  0  0  0  0  0  0  0  0  0  0
   40.3620   34.9360   40.7160 C   0  0  0  0  0  0  0  0  0  0  0  0
   40.1570   35.1780   39.3600 C   0  0  0  0  0  0  0  0  0  0  0  0
   40.7740   35.9540   38.9230 H   0  0  0  0  0  0  0  0  0  0  0  0
   39.2340   34.4900   38.5850 C   0  0  0  0  0  3  0  0  0  0  0  0
   38.4780   33.5100   39.2100 C   0  0  0  0  0  3  0  0  0  0  0  0
   38.6570   33.2500   40.5410 C   0  0  0  0  0  0  0  0  0  0  0  0
   39.7470   33.6650   42.6450 O   0  0  0  0  0  0  0  0  0  0  0  0
   39.4390   32.7960   43.0690 H   0  0  0  0  0  0  0  0  0  0  0  0
   37.8580   32.2530   41.0850 O   0  0  0  0  0  0  0  0  0  0  0  0
   36.9030   32.0880   40.7610 H   0  0  0  0  0  0  0  0  0  0  0  0
  1  4  1  0  0  0  0
  2  1  2  0  0  0  0
  3  9  1  0  0  0  0
  3  8  1  0  0  0  0
  4  5  1  0  0  0  0
  4  3  2  0  0  0  0
  5  6  2  0  0  0  0
  6  7  1  0  0  0  0
  7 11  1  0  0  0  0
  8  7  2  0  0  0  0
 10  5  1  0  0  0  0
 11 12  2  0  0  0  0
 11 16  1  0  0  0  0
 12 13  1  0  0  0  0
 13 18  1  0  0  0  0
 13 14  2  0  0  0  0
 15 14  1  0  0  0  0
 15 19  1  0  0  0  0
 16 15  2  0  0  0  0
 17 12  1  0  0  0  0
 20  1  1  0  0  0  0
 21 24  1  0  0  0  0
 21 20  1  0  0  0  0
 22 21  1  0  0  0  0
 23 21  1  0  0  0  0
 24 26  1  0  0  0  0
 25 24  1  0  0  0  0
 27 34  1  0  0  0  0
 28 27  1  0  0  0  0
 28 24  1  0  0  0  0
 29 28  2  0  0  0  0
 30 29  1  0  0  0  0
 31 32  2  0  0  0  0
 31 29  1  0  0  0  0
 32 33  1  0  0  0  0
 33 36  1  0  0  0  0
 33 27  2  0  0  0  0
 34 35  1  0  0  0  0
 37 36  1  0  0  0  0
M  END
>  <minimizedAffinity>
-7.33071566

>  <minimizedRMSD>
0.777246535

$$$$
