
     RDKit          3D

 25 26  0  0  0  0  0  0  0  0999 V2000
   44.4923   36.0190   44.5054 C   0  0  0  0  0  0  0  0  0  0  0  0
   45.1395   35.9948   43.2674 C   0  0  0  0  0  0  0  0  0  0  0  0
   46.0645   34.9780   43.0438 C   0  0  0  0  0  0  0  0  0  0  0  0
   46.3080   34.0576   44.0110 N   0  0  0  0  0  0  0  0  0  0  0  0
   45.6484   34.1205   45.2123 C   0  0  0  0  0  0  0  0  0  0  0  0
   44.7601   35.0993   45.4239 N   0  0  0  0  0  0  0  0  0  0  0  0
   46.0002   33.0598   46.1893 C   0  0  0  0  0  0  0  0  0  0  0  0
   43.7481   36.7536   44.8188 H   0  0  0  0  0  0  0  0  0  0  0  0
   44.8764   36.7661   42.5687 H   0  0  0  0  0  0  0  0  0  0  0  0
   46.5680   34.9612   42.0794 H   0  0  0  0  0  0  0  0  0  0  0  0
   45.9308   33.4681   47.2269 H   0  0  0  0  0  0  0  0  0  0  0  0
   47.0753   32.7531   46.0618 H   0  0  0  0  0  0  0  0  0  0  0  0
   44.8511   32.2087   43.6977 O   0  0  0  0  0  0  0  0  0  0  0  0
   44.5868   31.4821   44.8354 C   0  0  0  0  0  0  0  0  0  0  0  0
   45.1314   31.8793   46.0371 C   0  0  0  0  0  0  0  0  0  0  0  0
   44.8320   31.1120   47.1490 C   0  0  0  0  0  0  0  0  0  0  0  0
   45.2577   31.4180   48.1017 H   0  0  0  0  0  0  0  0  0  0  0  0
   44.0238   29.9769   47.1265 C   0  0  0  0  0  0  0  0  0  0  0  0
   43.4897   29.6013   45.9023 C   0  0  0  0  0  0  0  0  0  0  0  0
   43.7803   30.3579   44.7862 C   0  0  0  0  0  0  0  0  0  0  0  0
   43.2363   29.9647   43.5771 O   0  0  0  0  0  0  0  0  0  0  0  0
   44.1446   32.1661   42.9502 H   0  0  0  0  0  0  0  0  0  0  0  0
   43.8634   29.4601   48.0660 H   0  0  0  0  0  0  0  0  0  0  0  0
   42.8669   28.7167   45.9172 H   0  0  0  0  0  0  0  0  0  0  0  0
   43.1473   28.9928   43.2896 H   0  0  0  0  0  0  0  0  0  0  0  0
  1  6  2  0
  2  1  1  0
  3  2  2  0
  3  4  1  0
  4  5  2  0
  5  6  1  0
  5  7  1  0
  1  8  1  0
  2  9  1  0
  3 10  1  0
  7 11  1  0
  7 12  1  0
 13 14  1  0
 14 15  2  0
 15 16  1  0
 16 17  1  0
 16 18  2  0
 18 19  1  0
 19 20  2  0
 20 21  1  0
 20 14  1  0
 13 22  1  0
 18 23  1  0
 19 24  1  0
 21 25  1  0
  7 15  1  0
M  ISO  6   8  14   9  14  10  14  11   8  12   8  17  16
M  END
>  <DihAtoms>  (1) 
4,6,14,13

>  <DihDeg>  (1) 
76.0857024834324

$$$$
