
 OpenBabel03252508513D

 31 34  0  0  0  0  0  0  0  0999 V2000
   45.7330   34.2350   41.0970 C   0  0  0  0  0  0  0  0  0  0  0  0
   46.3860   34.7670   42.2040 C   0  0  0  0  0  0  0  0  0  0  0  0
   47.7640   34.9940   42.0530 C   0  0  0  0  0  0  0  0  0  0  0  0
   48.3610   34.6890   40.8670 N   0  0  0  0  0  0  0  0  0  0  0  0
   47.6830   34.1820   39.8430 C   0  0  0  0  0  0  0  0  0  0  0  0
   46.3640   33.9500   39.9460 N   0  0  0  0  0  0  0  0  0  0  0  0
   48.3080   35.4070   42.8930 H   0  0  0  0  0  0  0  0  0  0  0  0
   48.1190   33.9290   38.8880 H   0  0  0  0  0  0  0  0  0  0  0  0
   45.6540   35.0540   43.4150 C   0  0  0  0  0  0  0  0  0  0  0  0
   45.0900   36.2970   43.6810 C   0  0  0  0  0  0  0  0  0  0  0  0
   44.5030   36.1220   44.9160 C   0  0  0  0  0  0  0  0  0  0  0  0
   44.6950   34.8560   45.3730 N   0  0  0  0  0  0  0  0  0  0  0  0
   45.3930   34.2390   44.4450 N   0  0  0  0  0  0  0  0  0  0  0  0
   45.0690   37.2280   43.1140 H   0  0  0  0  0  0  0  0  0  0  0  0
   43.9470   36.8650   45.4920 H   0  0  0  0  0  0  0  0  0  0  0  0
   44.3490   34.4630   46.2900 H   0  0  0  0  0  0  0  0  0  0  0  0
   44.3740   33.9940   41.1970 O   0  0  0  0  0  0  0  0  0  0  0  0
   43.3560   34.8240   40.8300 C   0  0  0  0  0  0  0  0  0  0  0  0
   43.3450   36.1040   40.8710 O   0  0  0  0  0  0  0  0  0  0  0  0
   42.0410   34.3550   40.3070 C   0  0  0  0  0  0  0  0  0  0  0  0
   40.9110   35.1340   40.3520 C   0  0  0  0  0  0  0  0  0  0  0  0
   40.9250   36.1310   40.7690 H   0  0  0  0  0  0  0  0  0  0  0  0
   39.6810   34.6780   39.8590 C   0  0  0  0  0  3  0  0  0  0  0  0
   39.5860   33.4190   39.3120 C   0  0  0  0  0  0  0  0  0  0  0  0
   38.4220   32.9510   38.8300 N   0  0  0  0  0  0  0  0  0  0  0  0
   38.3570   31.7060   38.2970 C   0  0  0  0  0  0  0  0  0  0  0  0
   37.3790   31.4080   37.9320 H   0  0  0  0  0  0  0  0  0  0  0  0
   39.4440   30.8350   38.2030 C   0  0  0  0  0  3  0  0  0  0  0  0
   40.6320   31.3290   38.7020 C   0  0  0  0  0  3  0  0  0  0  0  0
   40.6880   32.5970   39.2430 C   0  0  0  0  0  0  0  0  0  0  0  0
   41.8540   33.1230   39.7490 C   0  0  0  0  0  3  0  0  0  0  0  0
  1 17  1  0  0  0  0
  1  2  1  0  0  0  0
  2  9  1  0  0  0  0
  3  2  2  0  0  0  0
  3  7  1  0  0  0  0
  4  3  1  0  0  0  0
  5  6  1  0  0  0  0
  5  4  2  0  0  0  0
  6  1  2  0  0  0  0
  8  5  1  0  0  0  0
  9 10  1  0  0  0  0
  9 13  2  0  0  0  0
 10 11  2  0  0  0  0
 11 12  1  0  0  0  0
 11 15  1  0  0  0  0
 12 16  1  0  0  0  0
 13 12  1  0  0  0  0
 14 10  1  0  0  0  0
 18 19  2  0  0  0  0
 18 17  1  0  0  0  0
 20 21  1  0  0  0  0
 20 18  1  0  0  0  0
 21 22  1  0  0  0  0
 23 21  2  0  0  0  0
 24 23  1  0  0  0  0
 25 24  2  0  0  0  0
 26 25  1  0  0  0  0
 27 26  1  0  0  0  0
 28 26  2  0  0  0  0
 28 29  1  0  0  0  0
 29 30  2  0  0  0  0
 30 24  1  0  0  0  0
 30 31  1  0  0  0  0
 31 20  2  0  0  0  0
M  END
>  <minimizedAffinity>
-5.93389416

>  <minimizedRMSD>
1.73102474

$$$$
