
 OpenBabel03242523163D

 30 33  0  0  0  0  0  0  0  0999 V2000
   46.2630   34.4530   43.6160 C   0  0  0  0  0  0  0  0  0  0  0  0
   47.4040   33.8800   43.1670 C   0  0  0  0  0  0  0  0  0  0  0  0
   47.8140   32.7590   43.8530 C   0  0  0  0  0  0  0  0  0  0  0  0
   47.0390   32.3200   44.9260 N   0  0  0  0  0  0  0  0  0  0  0  0
   45.9180   32.9350   45.3180 C   0  0  0  0  0  0  0  0  0  0  0  0
   45.4930   34.0490   44.6510 N   0  0  0  0  0  0  0  0  0  0  0  0
   48.7270   32.2400   43.5530 H   0  0  0  0  0  0  0  0  0  0  0  0
   45.5650   32.3520   46.1550 H   0  0  0  0  0  0  0  0  0  0  0  0
   48.2150   34.3710   42.1160 C   0  0  0  0  0  0  0  0  0  0  0  0
   48.4980   35.6440   41.7230 C   0  0  0  0  0  0  0  0  0  0  0  0
   49.6470   34.9620   42.4700 C   0  0  0  0  0  0  0  0  0  0  0  0
   48.5860   33.4510   41.4870 H   0  0  0  0  0  0  0  0  0  0  0  0
   48.0450   36.5540   42.2420 H   0  0  0  0  0  0  0  0  0  0  0  0
   48.8110   35.9500   40.6880 H   0  0  0  0  0  0  0  0  0  0  0  0
   49.7560   35.2860   43.5300 H   0  0  0  0  0  0  0  0  0  0  0  0
   50.5180   34.6650   41.9210 H   0  0  0  0  0  0  0  0  0  0  0  0
   45.5160   35.5840   43.0580 C   0  0  0  0  0  0  0  0  0  0  0  0
   45.2780   36.7810   42.9230 O   0  0  0  0  0  0  0  0  0  0  0  0
   44.4050   35.2590   42.1240 C   0  0  0  0  0  0  0  0  0  0  0  0
   44.7160   34.4810   41.0090 C   0  0  0  0  0  0  0  0  0  0  0  0
   45.7380   34.0810   40.8960 H   0  0  0  0  0  0  0  0  0  0  0  0
   43.8750   34.1100   39.9670 C   0  0  0  0  0  3  0  0  0  0  0  0
   42.5840   34.5860   40.0750 C   0  0  0  0  0  0  0  0  0  0  0  0
   41.7120   34.2820   39.0980 N   0  0  0  0  0  0  0  0  0  0  0  0
   40.4210   34.7280   39.1230 C   0  0  0  0  0  0  0  0  0  0  0  0
   39.7080   34.4910   38.3430 H   0  0  0  0  0  0  0  0  0  0  0  0
   40.0270   35.5120   40.1950 C   0  0  0  0  0  3  0  0  0  0  0  0
   40.9130   35.8450   41.2290 C   0  0  0  0  0  3  0  0  0  0  0  0
   42.2120   35.3620   41.1490 C   0  0  0  0  0  0  0  0  0  0  0  0
   43.0790   35.7050   42.1630 C   0  0  0  0  0  3  0  0  0  0  0  0
  1  6  1  0  0  0  0
  2  1  2  0  0  0  0
  2  3  1  0  0  0  0
  3  4  2  0  0  0  0
  4  5  1  0  0  0  0
  5  8  1  0  0  0  0
  6  5  2  0  0  0  0
  7  3  1  0  0  0  0
  9 11  1  0  0  0  0
  9  2  1  0  0  0  0
 10  9  1  0  0  0  0
 10 13  1  0  0  0  0
 10 11  1  0  0  0  0
 11 15  1  0  0  0  0
 12  9  1  0  0  0  0
 14 10  1  0  0  0  0
 16 11  1  0  0  0  0
 17  1  1  0  0  0  0
 18 17  2  0  0  0  0
 19 30  1  0  0  0  0
 19 17  1  0  0  0  0
 20 19  2  0  0  0  0
 21 20  1  0  0  0  0
 22 23  2  0  0  0  0
 22 20  1  0  0  0  0
 23 29  1  0  0  0  0
 24 25  2  0  0  0  0
 24 23  1  0  0  0  0
 25 27  1  0  0  0  0
 26 25  1  0  0  0  0
 27 28  2  0  0  0  0
 29 28  1  0  0  0  0
 29 30  2  0  0  0  0
M  END
>  <minimizedAffinity>
-6.3341918

>  <minimizedRMSD>
0.643064439

$$$$
