
 OpenBabel03242510223D

 41 45  0  0  1  0  0  0  0  0999 V2000
   49.0920   33.8700   40.9580 C   0  0  2  0  0  0  0  0  0  0  0  0
   48.5540   35.3490   40.9040 C   0  0  0  0  0  0  0  0  0  0  0  0
   47.8060   34.1890   40.3310 C   0  0  1  0  0  0  0  0  0  0  0  0
   49.9910   33.7910   40.3140 H   0  0  0  0  0  0  0  0  0  0  0  0
   48.1760   35.7340   41.8740 H   0  0  0  0  0  0  0  0  0  0  0  0
   49.0010   36.0270   40.1840 H   0  0  0  0  0  0  0  0  0  0  0  0
   46.9530   33.7230   40.8760 H   0  0  0  0  0  0  0  0  0  0  0  0
   48.0200   33.2030   43.1290 N   0  0  0  0  0  0  0  0  0  0  0  0
   49.1640   33.2360   42.3370 C   0  0  0  0  0  0  0  0  0  0  0  0
   50.3270   32.8100   42.5560 O   0  0  0  0  0  0  0  0  0  0  0  0
   47.4990   34.1290   43.0740 H   0  0  0  0  0  0  0  0  0  0  0  0
   46.2790   32.0840   44.4760 C   0  0  1  0  0  0  0  0  0  0  0  0
   46.3980   31.3340   43.2990 C   0  0  0  0  0  0  0  0  0  0  0  0
   47.6410   32.0670   43.8920 C   0  0  1  0  0  0  0  0  0  0  0  0
   46.1090   31.6210   45.4780 H   0  0  0  0  0  0  0  0  0  0  0  0
   46.4840   30.2070   43.3870 H   0  0  0  0  0  0  0  0  0  0  0  0
   46.1260   31.5950   42.2580 H   0  0  0  0  0  0  0  0  0  0  0  0
   48.4550   31.3780   44.1660 H   0  0  0  0  0  0  0  0  0  0  0  0
   45.0480   33.9690   43.1630 C   0  0  0  0  0  0  0  0  0  0  0  0
   45.5380   33.4280   44.3980 C   0  0  0  0  0  0  0  0  0  0  0  0
   45.3470   34.1750   45.5440 C   0  0  0  0  0  0  0  0  0  0  0  0
   44.7170   35.3670   45.4560 N   0  0  0  0  0  0  0  0  0  0  0  0
   44.2570   35.8670   44.2700 C   0  0  0  0  0  0  0  0  0  0  0  0
   44.4340   35.1360   43.0960 N   0  0  0  0  0  0  0  0  0  0  0  0
   45.1860   33.3650   42.2880 H   0  0  0  0  0  0  0  0  0  0  0  0
   45.6940   33.8190   46.5030 H   0  0  0  0  0  0  0  0  0  0  0  0
   43.7710   36.8350   44.3420 H   0  0  0  0  0  0  0  0  0  0  0  0
   47.7240   34.0840   38.8260 C   0  0  0  0  0  0  0  0  0  0  0  0
   48.5430   34.6710   38.1260 O   0  0  0  0  0  0  0  0  0  0  0  0
   46.6810   33.2910   38.1780 C   0  0  0  0  0  0  0  0  0  0  0  0
   46.8120   32.5580   37.0190 C   0  0  0  0  0  0  0  0  0  0  0  0
   47.7720   32.5570   36.5240 H   0  0  0  0  0  0  0  0  0  0  0  0
   45.7900   31.8280   36.4580 C   0  0  0  0  0  3  0  0  0  0  0  0
   44.5490   31.8010   37.0550 C   0  0  0  0  0  0  0  0  0  0  0  0
   43.5560   31.0940   36.5120 N   0  0  0  0  0  0  0  0  0  0  0  0
   42.3260   31.0680   37.1040 C   0  0  0  0  0  0  0  0  0  0  0  0
   41.5470   30.4680   36.6110 H   0  0  0  0  0  0  0  0  0  0  0  0
   42.1110   31.7810   38.2770 C   0  0  0  0  0  3  0  0  0  0  0  0
   43.1410   32.5110   38.8350 C   0  0  0  0  0  3  0  0  0  0  0  0
   44.3650   32.5170   38.2150 C   0  0  0  0  0  0  0  0  0  0  0  0
   45.4200   33.2290   38.7330 C   0  0  0  0  0  3  0  0  0  0  0  0
  1  4  1  6  0  0  0
  1  9  1  0  0  0  0
  2  1  1  0  0  0  0
  2  5  1  0  0  0  0
  3  7  1  1  0  0  0
  3  2  1  0  0  0  0
  3  1  1  0  0  0  0
  6  2  1  0  0  0  0
  8 14  1  0  0  0  0
  9 10  2  0  0  0  0
  9  8  1  0  0  0  0
 11  8  1  0  0  0  0
 12 15  1  1  0  0  0
 13 16  1  0  0  0  0
 13 14  1  0  0  0  0
 13 12  1  0  0  0  0
 14 18  1  1  0  0  0
 14 12  1  0  0  0  0
 17 13  1  0  0  0  0
 19 20  1  0  0  0  0
 20 12  1  0  0  0  0
 20 21  2  0  0  0  0
 21 26  1  0  0  0  0
 22 21  1  0  0  0  0
 23 27  1  0  0  0  0
 23 22  2  0  0  0  0
 24 19  2  0  0  0  0
 24 23  1  0  0  0  0
 25 19  1  0  0  0  0
 28  3  1  0  0  0  0
 29 28  2  0  0  0  0
 30 41  1  0  0  0  0
 30 28  1  0  0  0  0
 31 30  2  0  0  0  0
 32 31  1  0  0  0  0
 33 31  1  0  0  0  0
 33 34  2  0  0  0  0
 34 40  1  0  0  0  0
 35 34  1  0  0  0  0
 35 36  2  0  0  0  0
 36 38  1  0  0  0  0
 37 36  1  0  0  0  0
 38 39  2  0  0  0  0
 40 41  2  0  0  0  0
 40 39  1  0  0  0  0
M  END
>  <minimizedAffinity>
-5.34238958

>  <minimizedRMSD>
0.304089487

$$$$
