
     RDKit          3D

 56 61  0  0  0  0  0  0  0  0999 V2000
   47.0600   29.6217   47.1731 N   0  0  0  0  0  0  0  0  0  0  0  0
   47.3861   29.3772   45.8244 C   0  0  1  0  0  0  0  0  0  0  0  0
   46.4352   28.3545   45.2729 C   0  0  0  0  0  0  0  0  0  0  0  0
   45.1470   28.9912   45.2880 N   0  0  0  0  0  0  0  0  0  0  0  0
   44.6735   29.2202   46.6331 C   0  0  0  0  0  0  0  0  0  0  0  0
   45.7158   29.7044   47.5944 C   0  0  2  0  0  0  0  0  0  0  0  0
   46.6331   32.5143   44.3840 C   0  0  0  0  0  0  0  0  0  0  0  0
   47.5201   32.0309   43.4381 C   0  0  0  0  0  0  0  0  0  0  0  0
   47.9258   30.7966   43.8392 C   0  0  0  0  0  0  0  0  0  0  0  0
   47.2884   30.5454   45.0113 N   0  0  0  0  0  0  0  0  0  0  0  0
   46.5226   31.5834   45.3174 N   0  0  0  0  0  0  0  0  0  0  0  0
   44.6337   35.4423   45.3261 C   0  0  0  0  0  0  0  0  0  0  0  0
   44.7020   36.2639   44.1992 C   0  0  0  0  0  0  0  0  0  0  0  0
   45.4397   35.7935   43.1272 C   0  0  0  0  0  0  0  0  0  0  0  0
   46.0423   34.5772   43.2399 N   0  0  0  0  0  0  0  0  0  0  0  0
   45.9491   33.8182   44.3473 C   0  0  0  0  0  0  0  0  0  0  0  0
   45.2415   34.2446   45.4051 N   0  0  0  0  0  0  0  0  0  0  0  0
   45.3045   31.0907   48.0340 C   0  0  1  0  0  0  0  0  0  0  0  0
   45.1524   31.2874   49.5367 C   0  0  0  0  0  0  0  0  0  0  0  0
   46.2165   31.9818   48.7725 C   0  0  1  0  0  0  0  0  0  0  0  0
   47.6865   31.5927   48.9562 C   0  0  0  0  0  0  0  0  0  0  0  0
   47.7020   29.0758   47.7963 H   0  0  0  0  0  0  0  0  0  0  0  0
   48.3921   28.9694   45.7409 H   0  0  0  0  0  0  0  0  0  0  0  0
   46.6442   28.0782   44.2182 H   0  0  0  0  0  0  0  0  0  0  0  0
   46.3938   27.4587   45.9100 H   0  0  0  0  0  0  0  0  0  0  0  0
   45.0526   29.7958   44.6583 H   0  0  0  0  0  0  0  0  0  0  0  0
   43.8206   29.9481   46.5015 H   0  0  0  0  0  0  0  0  0  0  0  0
   44.1626   28.2821   46.9347 H   0  0  0  0  0  0  0  0  0  0  0  0
   45.6419   29.0014   48.4763 H   0  0  0  0  0  0  0  0  0  0  0  0
   47.8360   32.5272   42.5514 H   0  0  0  0  0  0  0  0  0  0  0  0
   48.6161   30.1330   43.3394 H   0  0  0  0  0  0  0  0  0  0  0  0
   44.0690   35.7418   46.2186 H   0  0  0  0  0  0  0  0  0  0  0  0
   44.1835   37.2167   44.2138 H   0  0  0  0  0  0  0  0  0  0  0  0
   45.5162   36.3995   42.2383 H   0  0  0  0  0  0  0  0  0  0  0  0
   44.4666   31.6080   47.4798 H   0  0  0  0  0  0  0  0  0  0  0  0
   44.3012   31.8283   49.9509 H   0  0  0  0  0  0  0  0  0  0  0  0
   45.5309   30.4671   50.1956 H   0  0  0  0  0  0  0  0  0  0  0  0
   46.0974   33.0845   48.6379 H   0  0  0  0  0  0  0  0  0  0  0  0
   47.7993   30.6842   49.5749 H   0  0  0  0  0  0  0  0  0  0  0  0
   48.2242   31.5310   47.9875 H   0  0  0  0  0  0  0  0  0  0  0  0
   48.3398   32.6833   49.7348 C   0  0  0  0  0  0  0  0  0  0  0  0
   48.9214   32.4033   50.9544 C   0  0  0  0  0  0  0  0  0  0  0  0
   48.9292   31.4044   51.3893 H   0  0  0  0  0  0  0  0  0  0  0  0
   49.5336   33.3976   51.6956 C   0  0  0  0  0  0  0  0  0  0  0  0
   49.5496   34.6736   51.1888 C   0  0  0  0  0  0  0  0  0  0  0  0
   50.1216   35.6952   51.8423 N   0  0  0  0  0  0  0  0  0  0  0  0
   50.1669   36.9610   51.3956 C   0  0  0  0  0  0  0  0  0  0  0  0
   50.6214   37.7804   51.9115 H   0  0  0  0  0  0  0  0  0  0  0  0
   49.6012   37.3038   50.1797 C   0  0  0  0  0  0  0  0  0  0  0  0
   48.9888   36.2875   49.4475 C   0  0  0  0  0  0  0  0  0  0  0  0
   48.9764   35.0079   49.9625 C   0  0  0  0  0  0  0  0  0  0  0  0
   48.3768   33.9783   49.2601 C   0  0  0  0  0  0  0  0  0  0  0  0
   49.9888   33.1929   52.6439 H   0  0  0  0  0  0  0  0  0  0  0  0
   49.6093   38.3078   49.7728 H   0  0  0  0  0  0  0  0  0  0  0  0
   48.5232   36.4540   48.4956 H   0  0  0  0  0  0  0  0  0  0  0  0
   47.9125   34.2006   48.2869 H   0  0  0  0  0  0  0  0  0  0  0  0
  1  6  1  0
  2  1  1  0
  3  4  1  0
  3  2  1  0
  4  5  1  0
  5  6  1  0
  6 18  1  0
  7 11  2  0
  8  9  2  0
  8  7  1  0
  9 10  1  0
 10 11  1  0
 10  2  1  0
 12 17  2  0
 13 12  1  0
 14 15  1  0
 14 13  2  0
 15 16  2  0
 16  7  1  0
 16 17  1  0
 18 20  1  0
 18 19  1  0
 20 21  1  0
 20 19  1  0
  1 22  1  0
  2 23  1  1
  3 24  1  0
  3 25  1  0
  4 26  1  0
  5 27  1  0
  5 28  1  0
  6 29  1  1
  8 30  1  0
  9 31  1  0
 12 32  1  0
 13 33  1  0
 14 34  1  0
 18 35  1  6
 19 36  1  0
 19 37  1  0
 20 38  1  6
 21 39  1  0
 21 40  1  0
 41 42  2  0
 42 43  1  0
 42 44  1  0
 44 45  2  0
 45 46  1  0
 46 47  2  0
 47 48  1  0
 47 49  1  0
 49 50  2  0
 50 51  1  0
 51 52  2  0
 52 41  1  0
 51 45  1  0
 44 53  1  0
 49 54  1  0
 50 55  1  0
 52 56  1  0
 21 41  1  0
M  ISO  8  22   5  23  13  24  13  25  13  26   5  27  13  28  13  29  13
M  ISO  8  30  14  31  14  32  14  33  14  34  14  35  13  36  13  37  13
M  ISO  5  38  13  39   8  40   8  43  16  48  16
M  END
>  <DihAtoms>  (1) 
19,20,40,41

>  <DihDeg>  (1) 
-90.00112340614166

$$$$
