
     RDKit          3D

 34 37  0  0  0  0  0  0  0  0999 V2000
   46.2716   34.4864   43.6208 C   0  0  0  0  0  0  0  0  0  0  0  0
   47.3837   33.8812   43.1440 C   0  0  0  0  0  0  0  0  0  0  0  0
   47.7759   32.7460   43.8174 C   0  0  0  0  0  0  0  0  0  0  0  0
   47.0129   32.3261   44.9063 N   0  0  0  0  0  0  0  0  0  0  0  0
   45.9199   32.9734   45.3258 C   0  0  0  0  0  0  0  0  0  0  0  0
   45.5145   34.1019   44.6731 N   0  0  0  0  0  0  0  0  0  0  0  0
   48.1854   34.3508   42.0759 C   0  0  0  0  0  0  0  0  0  0  0  0
   48.5390   35.6152   41.7105 C   0  0  0  0  0  0  0  0  0  0  0  0
   49.6667   34.8317   42.3883 C   0  0  0  0  0  0  0  0  0  0  0  0
   45.5458   35.6407   43.0837 C   0  0  0  0  0  0  0  0  0  0  0  0
   45.2366   36.8297   43.0650 O   0  0  0  0  0  0  0  0  0  0  0  0
   48.6654   32.2001   43.4937 H   0  0  0  0  0  0  0  0  0  0  0  0
   45.5701   32.3984   46.1696 H   0  0  0  0  0  0  0  0  0  0  0  0
   48.4666   33.4297   41.4038 H   0  0  0  0  0  0  0  0  0  0  0  0
   48.1704   36.5346   42.2763 H   0  0  0  0  0  0  0  0  0  0  0  0
   48.8314   35.9331   40.6740 H   0  0  0  0  0  0  0  0  0  0  0  0
   49.8392   35.1126   43.4519 H   0  0  0  0  0  0  0  0  0  0  0  0
   50.4931   34.4957   41.7954 H   0  0  0  0  0  0  0  0  0  0  0  0
   44.6549   35.3916   41.9197 C   0  0  0  0  0  0  0  0  0  0  0  0
   43.4697   36.1238   41.8557 C   0  0  0  0  0  0  0  0  0  0  0  0
   43.2695   36.8975   42.6158 H   0  0  0  0  0  0  0  0  0  0  0  0
   42.4526   36.0174   40.9148 C   0  0  0  0  0  0  0  0  0  0  0  0
   42.6694   35.0622   39.9414 C   0  0  0  0  0  0  0  0  0  0  0  0
   41.7231   34.8898   39.0016 N   0  0  0  0  0  0  0  0  0  0  0  0
   41.8550   33.9549   38.0142 C   0  0  0  0  0  0  0  0  0  0  0  0
   41.1012   33.8043   37.2505 H   0  0  0  0  0  0  0  0  0  0  0  0
   43.0037   33.1784   38.0047 C   0  0  0  0  0  0  0  0  0  0  0  0
   44.0065   33.3371   38.9697 C   0  0  0  0  0  0  0  0  0  0  0  0
   43.8178   34.3034   39.9488 C   0  0  0  0  0  0  0  0  0  0  0  0
   44.8029   34.4430   40.9007 C   0  0  0  0  0  0  0  0  0  0  0  0
   41.5705   36.6402   40.9427 H   0  0  0  0  0  0  0  0  0  0  0  0
   43.0991   32.4175   37.2126 H   0  0  0  0  0  0  0  0  0  0  0  0
   44.8866   32.7245   38.9605 H   0  0  0  0  0  0  0  0  0  0  0  0
   45.7217   33.8792   40.9777 H   0  0  0  0  0  0  0  0  0  0  0  0
  1  6  2  0
  2  1  1  0
  2  3  2  0
  3  4  1  0
  4  5  2  0
  6  5  1  0
  7  9  1  0
  7  2  1  0
  8  7  1  0
  8  9  1  0
 10  1  1  0
 11 10  2  0
  3 12  1  0
  5 13  1  0
  7 14  1  0
  8 15  1  0
  8 16  1  0
  9 17  1  0
  9 18  1  0
 19 20  2  0
 20 21  1  0
 20 22  1  0
 22 23  2  0
 23 24  1  0
 24 25  2  0
 25 26  1  0
 25 27  1  0
 27 28  2  0
 28 29  1  0
 29 30  2  0
 30 19  1  0
 29 23  1  0
 22 31  1  0
 27 32  1  0
 28 33  1  0
 30 34  1  0
 10 19  1  0
M  ISO  8  12  14  13  14  14  13  15  13  16  13  17  13  18  13  21  16
M  ISO  1  26  16
M  END
>  <DihAtoms>  (1) 
0,9,18,19

>  <DihDeg>  (1) 
84.34602765439419

$$$$
