
 OpenBabel03242510243D

 41 45  0  0  1  0  0  0  0  0999 V2000
   37.3050   28.6070   42.0190 C   0  0  2  0  0  0  0  0  0  0  0  0
   38.1080   29.1180   43.2740 C   0  0  0  0  0  0  0  0  0  0  0  0
   38.6880   28.1860   42.2580 C   0  0  1  0  0  0  0  0  0  0  0  0
   36.4830   27.9470   42.3630 H   0  0  0  0  0  0  0  0  0  0  0  0
   38.4410   30.1740   43.2050 H   0  0  0  0  0  0  0  0  0  0  0  0
   37.8750   28.6800   44.2400 H   0  0  0  0  0  0  0  0  0  0  0  0
   39.3760   28.5530   41.4620 H   0  0  0  0  0  0  0  0  0  0  0  0
   37.6170   29.6200   39.7430 N   0  0  0  0  0  0  0  0  0  0  0  0
   36.9650   29.6540   40.9720 C   0  0  0  0  0  0  0  0  0  0  0  0
   36.0860   30.4380   41.4140 O   0  0  0  0  0  0  0  0  0  0  0  0
   38.6540   29.4180   39.8740 H   0  0  0  0  0  0  0  0  0  0  0  0
   37.2500   31.1050   37.8040 C   0  0  1  0  0  0  0  0  0  0  0  0
   37.9390   29.9900   37.3120 C   0  0  0  0  0  0  0  0  0  0  0  0
   36.9500   29.8360   38.5080 C   0  0  1  0  0  0  0  0  0  0  0  0
   36.4380   31.6190   37.2360 H   0  0  0  0  0  0  0  0  0  0  0  0
   37.5510   29.4930   36.3700 H   0  0  0  0  0  0  0  0  0  0  0  0
   38.9810   29.6600   37.4920 H   0  0  0  0  0  0  0  0  0  0  0  0
   36.1130   29.1540   38.2890 H   0  0  0  0  0  0  0  0  0  0  0  0
   39.4810   32.1740   38.6230 C   0  0  0  0  0  0  0  0  0  0  0  0
   38.0470   32.1410   38.6110 C   0  0  0  0  0  0  0  0  0  0  0  0
   37.3800   33.0720   39.3840 C   0  0  0  0  0  0  0  0  0  0  0  0
   38.0940   33.9610   40.1090 N   0  0  0  0  0  0  0  0  0  0  0  0
   39.4610   33.9770   40.1080 C   0  0  0  0  0  0  0  0  0  0  0  0
   40.1630   33.0510   39.3380 N   0  0  0  0  0  0  0  0  0  0  0  0
   39.9810   31.4580   38.0010 H   0  0  0  0  0  0  0  0  0  0  0  0
   36.3000   33.0970   39.4150 H   0  0  0  0  0  0  0  0  0  0  0  0
   39.9070   34.7420   40.7360 H   0  0  0  0  0  0  0  0  0  0  0  0
   38.9150   26.7520   42.6740 C   0  0  0  0  0  0  0  0  0  0  0  0
   39.5840   26.5020   43.6720 O   0  0  0  0  0  0  0  0  0  0  0  0
   38.3500   25.6440   41.9070 C   0  0  0  0  0  0  0  0  0  0  0  0
   37.1120   25.0690   42.0930 C   0  0  0  0  0  0  0  0  0  0  0  0
   36.4830   25.4600   42.8780 H   0  0  0  0  0  0  0  0  0  0  0  0
   36.6340   24.0250   41.3350 C   0  0  0  0  0  3  0  0  0  0  0  0
   37.4030   23.4940   40.3230 C   0  0  0  0  0  0  0  0  0  0  0  0
   36.9420   22.4810   39.5870 N   0  0  0  0  0  0  0  0  0  0  0  0
   37.7050   21.9560   38.5850 C   0  0  0  0  0  0  0  0  0  0  0  0
   37.2720   21.1220   38.0120 H   0  0  0  0  0  0  0  0  0  0  0  0
   38.9670   22.4780   38.3320 C   0  0  0  0  0  3  0  0  0  0  0  0
   39.4410   23.5260   39.0970 C   0  0  0  0  0  3  0  0  0  0  0  0
   38.6480   24.0320   40.0960 C   0  0  0  0  0  0  0  0  0  0  0  0
   39.0770   25.0740   40.8820 C   0  0  0  0  0  3  0  0  0  0  0  0
  1  3  1  0  0  0  0
  1  4  1  1  0  0  0
  1  2  1  0  0  0  0
  2  6  1  0  0  0  0
  3  7  1  6  0  0  0
  3 28  1  0  0  0  0
  3  2  1  0  0  0  0
  5  2  1  0  0  0  0
  8 11  1  0  0  0  0
  8  9  1  0  0  0  0
  9 10  2  0  0  0  0
  9  1  1  0  0  0  0
 12 15  1  6  0  0  0
 12 14  1  0  0  0  0
 12 20  1  0  0  0  0
 13 17  1  0  0  0  0
 13 12  1  0  0  0  0
 13 14  1  0  0  0  0
 14 18  1  6  0  0  0
 14  8  1  0  0  0  0
 16 13  1  0  0  0  0
 19 24  1  0  0  0  0
 20 19  2  0  0  0  0
 20 21  1  0  0  0  0
 21 26  1  0  0  0  0
 21 22  2  0  0  0  0
 23 22  1  0  0  0  0
 23 27  1  0  0  0  0
 24 23  2  0  0  0  0
 25 19  1  0  0  0  0
 28 29  2  0  0  0  0
 30 31  1  0  0  0  0
 30 28  1  0  0  0  0
 31 32  1  0  0  0  0
 33 31  2  0  0  0  0
 34 33  1  0  0  0  0
 35 34  2  0  0  0  0
 36 35  1  0  0  0  0
 37 36  1  0  0  0  0
 38 36  2  0  0  0  0
 38 39  1  0  0  0  0
 39 40  2  0  0  0  0
 40 34  1  0  0  0  0
 40 41  1  0  0  0  0
 41 30  2  0  0  0  0
M  END
>  <minimizedAffinity>
-6.00576782

$$$$

 OpenBabel03242510243D

 41 45  0  0  1  0  0  0  0  0999 V2000
   39.1140   29.3780   41.8270 C   0  0  2  0  0  0  0  0  0  0  0  0
   39.7570   30.5970   42.5900 C   0  0  0  0  0  0  0  0  0  0  0  0
   38.3870   30.6400   41.9940 C   0  0  1  0  0  0  0  0  0  0  0  0
   39.6730   29.2090   40.8850 H   0  0  0  0  0  0  0  0  0  0  0  0
   39.8000   30.4760   43.6920 H   0  0  0  0  0  0  0  0  0  0  0  0
   40.5160   31.1770   42.0740 H   0  0  0  0  0  0  0  0  0  0  0  0
   37.4770   30.5120   42.6240 H   0  0  0  0  0  0  0  0  0  0  0  0
   39.3650   26.9350   42.3490 N   0  0  0  0  0  0  0  0  0  0  0  0
   38.7880   28.1590   42.6730 C   0  0  0  0  0  0  0  0  0  0  0  0
   37.9960   28.4740   43.5980 O   0  0  0  0  0  0  0  0  0  0  0  0
   39.3540   26.7820   41.2950 H   0  0  0  0  0  0  0  0  0  0  0  0
   39.6620   24.5960   43.0840 C   0  0  1  0  0  0  0  0  0  0  0  0
   40.9370   25.0550   42.7330 C   0  0  0  0  0  0  0  0  0  0  0  0
   39.8830   26.0420   43.3230 C   0  0  1  0  0  0  0  0  0  0  0  0
   39.4760   23.9210   43.9540 H   0  0  0  0  0  0  0  0  0  0  0  0
   41.7930   24.8630   43.4510 H   0  0  0  0  0  0  0  0  0  0  0  0
   41.3510   25.3170   41.7400 H   0  0  0  0  0  0  0  0  0  0  0  0
   40.2080   26.5000   44.2710 H   0  0  0  0  0  0  0  0  0  0  0  0
   39.1280   23.9020   40.6290 C   0  0  0  0  0  0  0  0  0  0  0  0
   38.6860   24.2520   41.9490 C   0  0  0  0  0  0  0  0  0  0  0  0
   37.3230   24.2980   42.1750 C   0  0  0  0  0  0  0  0  0  0  0  0
   36.4770   24.0180   41.1600 N   0  0  0  0  0  0  0  0  0  0  0  0
   36.9170   23.6870   39.9090 C   0  0  0  0  0  0  0  0  0  0  0  0
   38.2850   23.6320   39.6490 N   0  0  0  0  0  0  0  0  0  0  0  0
   40.1890   23.8500   40.4790 H   0  0  0  0  0  0  0  0  0  0  0  0
   36.9310   24.5540   43.1480 H   0  0  0  0  0  0  0  0  0  0  0  0
   36.1300   23.4880   39.1880 H   0  0  0  0  0  0  0  0  0  0  0  0
   38.1850   31.4920   40.7630 C   0  0  0  0  0  0  0  0  0  0  0  0
   38.5380   32.6670   40.7680 O   0  0  0  0  0  0  0  0  0  0  0  0
   37.5740   30.9430   39.5550 C   0  0  0  0  0  0  0  0  0  0  0  0
   38.0610   31.0540   38.2700 C   0  0  0  0  0  0  0  0  0  0  0  0
   38.9810   31.5980   38.1200 H   0  0  0  0  0  0  0  0  0  0  0  0
   37.4380   30.5130   37.1690 C   0  0  0  0  0  3  0  0  0  0  0  0
   36.2620   29.8120   37.3130 C   0  0  0  0  0  0  0  0  0  0  0  0
   35.6560   29.2860   36.2470 N   0  0  0  0  0  0  0  0  0  0  0  0
   34.4900   28.5920   36.3900 C   0  0  0  0  0  0  0  0  0  0  0  0
   34.0380   28.1810   35.4750 H   0  0  0  0  0  0  0  0  0  0  0  0
   33.9320   28.4330   37.6520 C   0  0  0  0  0  3  0  0  0  0  0  0
   34.5620   28.9790   38.7540 C   0  0  0  0  0  3  0  0  0  0  0  0
   35.7340   29.6720   38.5740 C   0  0  0  0  0  0  0  0  0  0  0  0
   36.3950   30.2320   39.6410 C   0  0  0  0  0  3  0  0  0  0  0  0
  1  4  1  6  0  0  0
  1  3  1  0  0  0  0
  1  2  1  0  0  0  0
  1  9  1  0  0  0  0
  2  5  1  0  0  0  0
  3  2  1  0  0  0  0
  3  7  1  1  0  0  0
  6  2  1  0  0  0  0
  8  9  1  0  0  0  0
  8 14  1  0  0  0  0
  9 10  2  0  0  0  0
 11  8  1  0  0  0  0
 12 14  1  0  0  0  0
 12 15  1  1  0  0  0
 13 12  1  0  0  0  0
 13 14  1  0  0  0  0
 13 16  1  0  0  0  0
 14 18  1  1  0  0  0
 17 13  1  0  0  0  0
 19 20  1  0  0  0  0
 20 21  2  0  0  0  0
 20 12  1  0  0  0  0
 21 26  1  0  0  0  0
 22 21  1  0  0  0  0
 23 22  2  0  0  0  0
 24 23  1  0  0  0  0
 24 19  2  0  0  0  0
 25 19  1  0  0  0  0
 27 23  1  0  0  0  0
 28 29  2  0  0  0  0
 28  3  1  0  0  0  0
 30 41  1  0  0  0  0
 30 28  1  0  0  0  0
 31 30  2  0  0  0  0
 32 31  1  0  0  0  0
 33 34  2  0  0  0  0
 33 31  1  0  0  0  0
 34 40  1  0  0  0  0
 35 36  2  0  0  0  0
 35 34  1  0  0  0  0
 36 38  1  0  0  0  0
 37 36  1  0  0  0  0
 38 39  2  0  0  0  0
 40 39  1  0  0  0  0
 40 41  2  0  0  0  0
M  END
>  <minimizedAffinity>
-5.96272612

$$$$

 OpenBabel03242510243D

 41 45  0  0  1  0  0  0  0  0999 V2000
   39.7230   29.8390   42.4860 C   0  0  2  0  0  0  0  0  0  0  0  0
   40.4620   28.4500   42.4060 C   0  0  0  0  0  0  0  0  0  0  0  0
   39.1640   28.7230   41.7170 C   0  0  1  0  0  0  0  0  0  0  0  0
   39.3690   29.9980   43.5240 H   0  0  0  0  0  0  0  0  0  0  0  0
   41.3610   28.4470   41.7560 H   0  0  0  0  0  0  0  0  0  0  0  0
   40.4110   27.7960   43.2720 H   0  0  0  0  0  0  0  0  0  0  0  0
   39.1230   28.9520   40.6270 H   0  0  0  0  0  0  0  0  0  0  0  0
   40.0510   31.3410   40.5010 N   0  0  0  0  0  0  0  0  0  0  0  0
   40.4160   31.0040   41.8000 C   0  0  0  0  0  0  0  0  0  0  0  0
   41.2680   31.5150   42.5720 O   0  0  0  0  0  0  0  0  0  0  0  0
   39.9240   30.4660   39.9080 H   0  0  0  0  0  0  0  0  0  0  0  0
   38.5210   33.0780   39.6400 C   0  0  1  0  0  0  0  0  0  0  0  0
   38.8600   33.4720   40.9400 C   0  0  0  0  0  0  0  0  0  0  0  0
   39.8840   32.6830   40.0680 C   0  0  1  0  0  0  0  0  0  0  0  0
   38.4010   33.8000   38.7970 H   0  0  0  0  0  0  0  0  0  0  0  0
   39.1790   34.5450   41.1100 H   0  0  0  0  0  0  0  0  0  0  0  0
   38.5920   33.0170   41.9140 H   0  0  0  0  0  0  0  0  0  0  0  0
   40.8110   33.2460   39.8800 H   0  0  0  0  0  0  0  0  0  0  0  0
   36.7410   31.4180   40.5730 C   0  0  0  0  0  0  0  0  0  0  0  0
   37.5150   31.9280   39.4780 C   0  0  0  0  0  0  0  0  0  0  0  0
   37.3500   31.3270   38.2440 C   0  0  0  0  0  0  0  0  0  0  0  0
   36.4810   30.3000   38.1220 N   0  0  0  0  0  0  0  0  0  0  0  0
   35.7520   29.8270   39.1770 C   0  0  0  0  0  0  0  0  0  0  0  0
   35.8960   30.4130   40.4350 N   0  0  0  0  0  0  0  0  0  0  0  0
   36.8670   31.9110   41.5170 H   0  0  0  0  0  0  0  0  0  0  0  0
   37.9040   31.6680   37.3820 H   0  0  0  0  0  0  0  0  0  0  0  0
   35.0940   28.9980   38.9400 H   0  0  0  0  0  0  0  0  0  0  0  0
   37.9260   28.0550   42.2670 C   0  0  0  0  0  0  0  0  0  0  0  0
   37.3100   28.5730   43.1930 O   0  0  0  0  0  0  0  0  0  0  0  0
   37.4390   26.7930   41.7150 C   0  0  0  0  0  0  0  0  0  0  0  0
   37.3470   25.5900   42.3810 C   0  0  0  0  0  0  0  0  0  0  0  0
   37.6620   25.5560   43.4130 H   0  0  0  0  0  0  0  0  0  0  0  0
   36.8770   24.4330   41.8050 C   0  0  0  0  0  3  0  0  0  0  0  0
   36.4660   24.4310   40.4910 C   0  0  0  0  0  0  0  0  0  0  0  0
   36.0100   23.3090   39.9290 N   0  0  0  0  0  0  0  0  0  0  0  0
   35.6030   23.3070   38.6280 C   0  0  0  0  0  0  0  0  0  0  0  0
   35.2370   22.3530   38.2200 H   0  0  0  0  0  0  0  0  0  0  0  0
   35.6630   24.4790   37.8830 C   0  0  0  0  0  3  0  0  0  0  0  0
   36.1360   25.6380   38.4680 C   0  0  0  0  0  3  0  0  0  0  0  0
   36.5370   25.6050   39.7800 C   0  0  0  0  0  0  0  0  0  0  0  0
   37.0140   26.7330   40.4030 C   0  0  0  0  0  3  0  0  0  0  0  0
  1  4  1  1  0  0  0
  2  1  1  0  0  0  0
  2  6  1  0  0  0  0
  3  7  1  6  0  0  0
  3 28  1  0  0  0  0
  3  2  1  0  0  0  0
  3  1  1  0  0  0  0
  5  2  1  0  0  0  0
  8  9  1  0  0  0  0
  9  1  1  0  0  0  0
  9 10  2  0  0  0  0
 11  8  1  0  0  0  0
 12 15  1  6  0  0  0
 12 14  1  0  0  0  0
 12 13  1  0  0  0  0
 13 16  1  0  0  0  0
 13 17  1  0  0  0  0
 14 18  1  6  0  0  0
 14  8  1  0  0  0  0
 14 13  1  0  0  0  0
 19 25  1  0  0  0  0
 20 12  1  0  0  0  0
 20 19  2  0  0  0  0
 21 20  1  0  0  0  0
 22 21  2  0  0  0  0
 22 23  1  0  0  0  0
 23 24  2  0  0  0  0
 24 19  1  0  0  0  0
 26 21  1  0  0  0  0
 27 23  1  0  0  0  0
 28 29  2  0  0  0  0
 30 28  1  0  0  0  0
 30 31  1  0  0  0  0
 31 32  1  0  0  0  0
 33 31  2  0  0  0  0
 34 33  1  0  0  0  0
 35 34  1  0  0  0  0
 36 35  2  0  0  0  0
 37 36  1  0  0  0  0
 38 39  2  0  0  0  0
 38 36  1  0  0  0  0
 39 40  1  0  0  0  0
 40 41  1  0  0  0  0
 40 34  2  0  0  0  0
 41 30  2  0  0  0  0
M  END
>  <minimizedAffinity>
-5.90756941

$$$$

 OpenBabel03242510243D

 41 45  0  0  1  0  0  0  0  0999 V2000
   35.9650   27.9600   37.6490 C   0  0  2  0  0  0  0  0  0  0  0  0
   35.4760   29.4120   38.0150 C   0  0  0  0  0  0  0  0  0  0  0  0
   34.5790   28.2170   38.0530 C   0  0  1  0  0  0  0  0  0  0  0  0
   36.2030   27.9230   36.5680 H   0  0  0  0  0  0  0  0  0  0  0  0
   35.8310   29.7800   38.9990 H   0  0  0  0  0  0  0  0  0  0  0  0
   35.3010   30.1100   37.2010 H   0  0  0  0  0  0  0  0  0  0  0  0
   34.3280   27.7120   39.0140 H   0  0  0  0  0  0  0  0  0  0  0  0
   36.5110   26.4340   39.5670 N   0  0  0  0  0  0  0  0  0  0  0  0
   36.9650   27.3320   38.6060 C   0  0  0  0  0  0  0  0  0  0  0  0
   38.1230   27.7520   38.3560 O   0  0  0  0  0  0  0  0  0  0  0  0
   35.6060   26.7810   40.0080 H   0  0  0  0  0  0  0  0  0  0  0  0
   37.8430   25.1690   41.2180 C   0  0  1  0  0  0  0  0  0  0  0  0
   36.6050   24.5180   41.1400 C   0  0  0  0  0  0  0  0  0  0  0  0
   37.1970   25.2320   39.8860 C   0  0  1  0  0  0  0  0  0  0  0  0
   38.8110   24.6240   41.3300 H   0  0  0  0  0  0  0  0  0  0  0  0
   36.5970   23.3910   41.0270 H   0  0  0  0  0  0  0  0  0  0  0  0
   35.6020   24.8550   41.4680 H   0  0  0  0  0  0  0  0  0  0  0  0
   37.3760   24.5430   39.0450 H   0  0  0  0  0  0  0  0  0  0  0  0
   36.8860   26.9060   42.9090 C   0  0  0  0  0  0  0  0  0  0  0  0
   37.9080   26.4960   41.9890 C   0  0  0  0  0  0  0  0  0  0  0  0
   38.9690   27.3580   41.7860 C   0  0  0  0  0  0  0  0  0  0  0  0
   39.0000   28.5330   42.4520 N   0  0  0  0  0  0  0  0  0  0  0  0
   38.0170   28.9070   43.3250 C   0  0  0  0  0  0  0  0  0  0  0  0
   36.9340   28.0600   43.5510 N   0  0  0  0  0  0  0  0  0  0  0  0
   36.0820   26.2150   43.0700 H   0  0  0  0  0  0  0  0  0  0  0  0
   39.7690   27.1030   41.1060 H   0  0  0  0  0  0  0  0  0  0  0  0
   38.1660   29.8770   43.7890 H   0  0  0  0  0  0  0  0  0  0  0  0
   33.5150   28.1060   36.9870 C   0  0  0  0  0  0  0  0  0  0  0  0
   33.5090   27.1440   36.2260 O   0  0  0  0  0  0  0  0  0  0  0  0
   32.4810   29.1280   36.8410 C   0  0  0  0  0  0  0  0  0  0  0  0
   31.6190   29.5650   37.8240 C   0  0  0  0  0  0  0  0  0  0  0  0
   31.6990   29.1200   38.8040 H   0  0  0  0  0  0  0  0  0  0  0  0
   30.6640   30.5350   37.6250 C   0  0  0  0  0  3  0  0  0  0  0  0
   30.5260   31.1280   36.3900 C   0  0  0  0  0  0  0  0  0  0  0  0
   29.6000   32.0690   36.1930 N   0  0  0  0  0  0  0  0  0  0  0  0
   29.4640   32.6560   34.9700 C   0  0  0  0  0  0  0  0  0  0  0  0
   28.6830   33.4250   34.8690 H   0  0  0  0  0  0  0  0  0  0  0  0
   30.2940   32.2720   33.9240 C   0  0  0  0  0  3  0  0  0  0  0  0
   31.2510   31.2980   34.1310 C   0  0  0  0  0  3  0  0  0  0  0  0
   31.3610   30.7270   35.3740 C   0  0  0  0  0  0  0  0  0  0  0  0
   32.2990   29.7550   35.6260 C   0  0  0  0  0  3  0  0  0  0  0  0
  1  4  1  6  0  0  0
  1  2  1  0  0  0  0
  1  3  1  0  0  0  0
  1  9  1  0  0  0  0
  2  3  1  0  0  0  0
  2  5  1  0  0  0  0
  3  7  1  1  0  0  0
  6  2  1  0  0  0  0
  8 14  1  0  0  0  0
  8 11  1  0  0  0  0
  9  8  1  0  0  0  0
 10  9  2  0  0  0  0
 12 15  1  1  0  0  0
 12 20  1  0  0  0  0
 13 12  1  0  0  0  0
 13 17  1  0  0  0  0
 14 18  1  6  0  0  0
 14 13  1  0  0  0  0
 14 12  1  0  0  0  0
 16 13  1  0  0  0  0
 19 25  1  0  0  0  0
 19 24  1  0  0  0  0
 20 19  2  0  0  0  0
 21 20  1  0  0  0  0
 21 22  2  0  0  0  0
 22 23  1  0  0  0  0
 23 24  2  0  0  0  0
 23 27  1  0  0  0  0
 26 21  1  0  0  0  0
 28  3  1  0  0  0  0
 29 28  2  0  0  0  0
 30 28  1  0  0  0  0
 30 31  1  0  0  0  0
 31 32  1  0  0  0  0
 33 31  2  0  0  0  0
 34 33  1  0  0  0  0
 35 34  1  0  0  0  0
 36 35  2  0  0  0  0
 37 36  1  0  0  0  0
 38 39  2  0  0  0  0
 38 36  1  0  0  0  0
 39 40  1  0  0  0  0
 40 41  1  0  0  0  0
 40 34  2  0  0  0  0
 41 30  2  0  0  0  0
M  END
>  <minimizedAffinity>
-5.81539202

$$$$

 OpenBabel03242510243D

 41 45  0  0  1  0  0  0  0  0999 V2000
   38.1990   31.0860   39.9720 C   0  0  2  0  0  0  0  0  0  0  0  0
   36.9620   31.2780   39.0160 C   0  0  0  0  0  0  0  0  0  0  0  0
   36.8260   31.0500   40.4870 C   0  0  1  0  0  0  0  0  0  0  0  0
   38.6980   30.1270   39.7260 H   0  0  0  0  0  0  0  0  0  0  0  0
   36.8070   32.3220   38.6730 H   0  0  0  0  0  0  0  0  0  0  0  0
   36.6770   30.4460   38.3790 H   0  0  0  0  0  0  0  0  0  0  0  0
   36.6260   31.8930   41.1870 H   0  0  0  0  0  0  0  0  0  0  0  0
   40.2390   32.4330   39.4000 N   0  0  0  0  0  0  0  0  0  0  0  0
   39.0860   32.3030   40.1680 C   0  0  0  0  0  0  0  0  0  0  0  0
   38.6010   33.0530   41.0540 O   0  0  0  0  0  0  0  0  0  0  0  0
   40.7460   31.4990   39.3240 H   0  0  0  0  0  0  0  0  0  0  0  0
   42.0430   34.0880   39.0740 C   0  0  1  0  0  0  0  0  0  0  0  0
   41.8360   33.4910   37.8250 C   0  0  0  0  0  0  0  0  0  0  0  0
   40.6460   33.6620   38.8180 C   0  0  1  0  0  0  0  0  0  0  0  0
   42.2680   35.1740   39.2000 H   0  0  0  0  0  0  0  0  0  0  0  0
   41.7370   34.1640   36.9190 H   0  0  0  0  0  0  0  0  0  0  0  0
   42.0460   32.4580   37.4860 H   0  0  0  0  0  0  0  0  0  0  0  0
   39.8390   34.2950   38.4170 H   0  0  0  0  0  0  0  0  0  0  0  0
   43.6260   32.1530   39.8110 C   0  0  0  0  0  0  0  0  0  0  0  0
   42.8000   33.2790   40.1390 C   0  0  0  0  0  0  0  0  0  0  0  0
   42.6760   33.6140   41.4740 C   0  0  0  0  0  0  0  0  0  0  0  0
   43.3270   32.8780   42.4020 N   0  0  0  0  0  0  0  0  0  0  0  0
   44.1100   31.8080   42.0700 C   0  0  0  0  0  0  0  0  0  0  0  0
   44.2550   31.4450   40.7320 N   0  0  0  0  0  0  0  0  0  0  0  0
   43.7270   31.9220   38.7690 H   0  0  0  0  0  0  0  0  0  0  0  0
   42.0680   34.4520   41.7820 H   0  0  0  0  0  0  0  0  0  0  0  0
   44.5730   31.3050   42.9130 H   0  0  0  0  0  0  0  0  0  0  0  0
   36.2910   29.7130   40.9420 C   0  0  0  0  0  0  0  0  0  0  0  0
   35.1370   29.3930   40.6740 O   0  0  0  0  0  0  0  0  0  0  0  0
   37.1240   28.7820   41.7000 C   0  0  0  0  0  0  0  0  0  0  0  0
   37.6720   29.0040   42.9450 C   0  0  0  0  0  0  0  0  0  0  0  0
   37.4800   29.9520   43.4230 H   0  0  0  0  0  0  0  0  0  0  0  0
   38.4500   28.0840   43.6100 C   0  0  0  0  0  3  0  0  0  0  0  0
   38.7210   26.8620   43.0360 C   0  0  0  0  0  0  0  0  0  0  0  0
   39.4760   25.9680   43.6800 N   0  0  0  0  0  0  0  0  0  0  0  0
   39.7440   24.7580   43.1110 C   0  0  0  0  0  0  0  0  0  0  0  0
   40.3710   24.0630   43.6890 H   0  0  0  0  0  0  0  0  0  0  0  0
   39.2300   24.4550   41.8570 C   0  0  0  0  0  3  0  0  0  0  0  0
   38.4490   25.3820   41.1940 C   0  0  0  0  0  3  0  0  0  0  0  0
   38.1980   26.5910   41.7950 C   0  0  0  0  0  0  0  0  0  0  0  0
   37.4270   27.5440   41.1730 C   0  0  0  0  0  3  0  0  0  0  0  0
  1  4  1  6  0  0  0
  1  9  1  0  0  0  0
  1  3  1  0  0  0  0
  2  1  1  0  0  0  0
  2  3  1  0  0  0  0
  3 28  1  0  0  0  0
  3  7  1  1  0  0  0
  5  2  1  0  0  0  0
  6  2  1  0  0  0  0
  8  9  1  0  0  0  0
  9 10  2  0  0  0  0
 11  8  1  0  0  0  0
 12 15  1  6  0  0  0
 12 20  1  0  0  0  0
 13 14  1  0  0  0  0
 13 12  1  0  0  0  0
 14 18  1  6  0  0  0
 14 12  1  0  0  0  0
 14  8  1  0  0  0  0
 16 13  1  0  0  0  0
 17 13  1  0  0  0  0
 19 20  2  0  0  0  0
 19 24  1  0  0  0  0
 20 21  1  0  0  0  0
 21 26  1  0  0  0  0
 21 22  2  0  0  0  0
 23 22  1  0  0  0  0
 23 27  1  0  0  0  0
 24 23  2  0  0  0  0
 25 19  1  0  0  0  0
 28 30  1  0  0  0  0
 29 28  2  0  0  0  0
 30 31  1  0  0  0  0
 31 32  1  0  0  0  0
 31 33  2  0  0  0  0
 34 33  1  0  0  0  0
 34 35  1  0  0  0  0
 36 35  2  0  0  0  0
 36 37  1  0  0  0  0
 38 36  1  0  0  0  0
 39 40  1  0  0  0  0
 39 38  2  0  0  0  0
 40 34  2  0  0  0  0
 41 30  2  0  0  0  0
 41 40  1  0  0  0  0
M  END
>  <minimizedAffinity>
-5.71480227

$$$$

 OpenBabel03242510243D

 41 45  0  0  1  0  0  0  0  0999 V2000
   36.4150   27.3470   38.9480 C   0  0  2  0  0  0  0  0  0  0  0  0
   37.0630   27.2140   37.5190 C   0  0  0  0  0  0  0  0  0  0  0  0
   37.4070   28.3140   38.4710 C   0  0  1  0  0  0  0  0  0  0  0  0
   35.3390   27.5900   38.8340 H   0  0  0  0  0  0  0  0  0  0  0  0
   37.8120   26.4010   37.4300 H   0  0  0  0  0  0  0  0  0  0  0  0
   36.4630   27.5020   36.6600 H   0  0  0  0  0  0  0  0  0  0  0  0
   38.3410   28.2820   39.0780 H   0  0  0  0  0  0  0  0  0  0  0  0
   37.6560   26.5710   40.9880 N   0  0  0  0  0  0  0  0  0  0  0  0
   36.7820   26.2650   39.9500 C   0  0  0  0  0  0  0  0  0  0  0  0
   36.1940   25.1910   39.6610 O   0  0  0  0  0  0  0  0  0  0  0  0
   38.4650   27.1670   40.6350 H   0  0  0  0  0  0  0  0  0  0  0  0
   37.9130   27.0350   43.4010 C   0  0  1  0  0  0  0  0  0  0  0  0
   36.5380   27.0810   43.1430 C   0  0  0  0  0  0  0  0  0  0  0  0
   37.4570   26.1260   42.3220 C   0  0  1  0  0  0  0  0  0  0  0  0
   38.3430   26.6000   44.3350 H   0  0  0  0  0  0  0  0  0  0  0  0
   35.8430   26.5150   43.8360 H   0  0  0  0  0  0  0  0  0  0  0  0
   35.9470   27.8140   42.5590 H   0  0  0  0  0  0  0  0  0  0  0  0
   37.1880   25.0640   42.4400 H   0  0  0  0  0  0  0  0  0  0  0  0
   40.2020   28.1840   42.9180 C   0  0  0  0  0  0  0  0  0  0  0  0
   38.7690   28.2280   42.9470 C   0  0  0  0  0  0  0  0  0  0  0  0
   38.1570   29.4090   42.5730 C   0  0  0  0  0  0  0  0  0  0  0  0
   38.9230   30.4590   42.2010 N   0  0  0  0  0  0  0  0  0  0  0  0
   40.2880   30.3980   42.1800 C   0  0  0  0  0  0  0  0  0  0  0  0
   40.9340   29.2200   42.5520 N   0  0  0  0  0  0  0  0  0  0  0  0
   40.6580   27.2530   43.1910 H   0  0  0  0  0  0  0  0  0  0  0  0
   37.0810   29.5020   42.5740 H   0  0  0  0  0  0  0  0  0  0  0  0
   40.7790   31.3130   41.8630 H   0  0  0  0  0  0  0  0  0  0  0  0
   36.9170   29.7040   38.1410 C   0  0  0  0  0  0  0  0  0  0  0  0
   35.9040   29.8520   37.4640 O   0  0  0  0  0  0  0  0  0  0  0  0
   37.6280   30.8890   38.6140 C   0  0  0  0  0  0  0  0  0  0  0  0
   37.0600   32.0210   39.1590 C   0  0  0  0  0  0  0  0  0  0  0  0
   35.9850   32.0540   39.2520 H   0  0  0  0  0  0  0  0  0  0  0  0
   37.7850   33.1070   39.5890 C   0  0  0  0  0  3  0  0  0  0  0  0
   39.1580   33.1070   39.4880 C   0  0  0  0  0  0  0  0  0  0  0  0
   39.8650   34.1610   39.9050 N   0  0  0  0  0  0  0  0  0  0  0  0
   41.2250   34.1610   39.8040 C   0  0  0  0  0  0  0  0  0  0  0  0
   41.7520   35.0570   40.1640 H   0  0  0  0  0  0  0  0  0  0  0  0
   41.8780   33.0580   39.2660 C   0  0  0  0  0  3  0  0  0  0  0  0
   41.1430   31.9700   38.8360 C   0  0  0  0  0  3  0  0  0  0  0  0
   39.7760   32.0030   38.9520 C   0  0  0  0  0  0  0  0  0  0  0  0
   39.0050   30.9440   38.5370 C   0  0  0  0  0  3  0  0  0  0  0  0
  1  4  1  1  0  0  0
  1  9  1  0  0  0  0
  2  3  1  0  0  0  0
  2  1  1  0  0  0  0
  3  1  1  0  0  0  0
  3  7  1  1  0  0  0
  5  2  1  0  0  0  0
  6  2  1  0  0  0  0
  8 14  1  0  0  0  0
  9  8  1  0  0  0  0
 10  9  2  0  0  0  0
 11  8  1  0  0  0  0
 12 15  1  1  0  0  0
 13 12  1  0  0  0  0
 13 16  1  0  0  0  0
 14 18  1  1  0  0  0
 14 13  1  0  0  0  0
 14 12  1  0  0  0  0
 17 13  1  0  0  0  0
 19 20  1  0  0  0  0
 19 25  1  0  0  0  0
 20 12  1  0  0  0  0
 21 26  1  0  0  0  0
 21 20  2  0  0  0  0
 22 21  1  0  0  0  0
 23 22  2  0  0  0  0
 23 24  1  0  0  0  0
 24 19  2  0  0  0  0
 27 23  1  0  0  0  0
 28  3  1  0  0  0  0
 28 30  1  0  0  0  0
 29 28  2  0  0  0  0
 30 31  1  0  0  0  0
 31 32  1  0  0  0  0
 31 33  2  0  0  0  0
 34 33  1  0  0  0  0
 34 35  1  0  0  0  0
 36 35  2  0  0  0  0
 36 37  1  0  0  0  0
 38 36  1  0  0  0  0
 39 40  1  0  0  0  0
 39 38  2  0  0  0  0
 40 34  2  0  0  0  0
 41 30  2  0  0  0  0
 41 40  1  0  0  0  0
M  END
>  <minimizedAffinity>
-5.68910599

$$$$

 OpenBabel03242510243D

 41 45  0  0  1  0  0  0  0  0999 V2000
   38.2030   25.9140   41.2570 C   0  0  2  0  0  0  0  0  0  0  0  0
   37.0690   25.2260   42.1070 C   0  0  0  0  0  0  0  0  0  0  0  0
   36.9550   26.6170   41.5700 C   0  0  1  0  0  0  0  0  0  0  0  0
   39.0850   26.0860   41.9060 H   0  0  0  0  0  0  0  0  0  0  0  0
   36.4950   24.4500   41.5610 H   0  0  0  0  0  0  0  0  0  0  0  0
   37.2170   25.1430   43.1800 H   0  0  0  0  0  0  0  0  0  0  0  0
   36.3630   26.8360   40.6520 H   0  0  0  0  0  0  0  0  0  0  0  0
   37.7750   25.8450   38.7840 N   0  0  0  0  0  0  0  0  0  0  0  0
   38.4550   25.3240   39.8800 C   0  0  0  0  0  0  0  0  0  0  0  0
   39.3010   24.3960   39.9560 O   0  0  0  0  0  0  0  0  0  0  0  0
   36.7540   26.0270   39.0280 H   0  0  0  0  0  0  0  0  0  0  0  0
   37.7720   27.1110   36.6630 C   0  0  1  0  0  0  0  0  0  0  0  0
   38.8940   27.5520   37.3750 C   0  0  0  0  0  0  0  0  0  0  0  0
   38.3960   26.0830   37.5290 C   0  0  1  0  0  0  0  0  0  0  0  0
   37.7720   26.9650   35.5560 H   0  0  0  0  0  0  0  0  0  0  0  0
   39.8860   27.6130   36.8300 H   0  0  0  0  0  0  0  0  0  0  0  0
   38.9570   28.1480   38.3060 H   0  0  0  0  0  0  0  0  0  0  0  0
   39.1460   25.3400   37.2160 H   0  0  0  0  0  0  0  0  0  0  0  0
   35.1800   26.8970   36.8390 C   0  0  0  0  0  0  0  0  0  0  0  0
   36.3930   27.6140   37.1160 C   0  0  0  0  0  0  0  0  0  0  0  0
   36.2860   28.8130   37.7940 C   0  0  0  0  0  0  0  0  0  0  0  0
   35.0640   29.2550   38.1640 N   0  0  0  0  0  0  0  0  0  0  0  0
   33.9200   28.5590   37.8910 C   0  0  0  0  0  0  0  0  0  0  0  0
   33.9940   27.3460   37.2080 N   0  0  0  0  0  0  0  0  0  0  0  0
   35.2850   25.9590   36.3310 H   0  0  0  0  0  0  0  0  0  0  0  0
   37.1640   29.3960   38.0320 H   0  0  0  0  0  0  0  0  0  0  0  0
   33.0070   29.0290   38.2430 H   0  0  0  0  0  0  0  0  0  0  0  0
   37.0300   27.7570   42.5580 C   0  0  0  0  0  0  0  0  0  0  0  0
   36.5500   27.6270   43.6800 O   0  0  0  0  0  0  0  0  0  0  0  0
   37.6690   29.0230   42.2050 C   0  0  0  0  0  0  0  0  0  0  0  0
   38.8630   29.5010   42.6990 C   0  0  0  0  0  0  0  0  0  0  0  0
   39.3940   28.8960   43.4190 H   0  0  0  0  0  0  0  0  0  0  0  0
   39.4160   30.7040   42.3260 C   0  0  0  0  0  3  0  0  0  0  0  0
   38.7720   31.5080   41.4110 C   0  0  0  0  0  0  0  0  0  0  0  0
   39.3060   32.6770   41.0480 N   0  0  0  0  0  0  0  0  0  0  0  0
   38.6680   33.4720   40.1420 C   0  0  0  0  0  0  0  0  0  0  0  0
   39.1560   34.4230   39.8820 H   0  0  0  0  0  0  0  0  0  0  0  0
   37.4570   33.0640   39.5960 C   0  0  0  0  0  3  0  0  0  0  0  0
   36.9080   31.8540   39.9750 C   0  0  0  0  0  3  0  0  0  0  0  0
   37.5760   31.0770   40.8880 C   0  0  0  0  0  0  0  0  0  0  0  0
   37.0680   29.8670   41.2940 C   0  0  0  0  0  3  0  0  0  0  0  0
  1  3  1  0  0  0  0
  1  4  1  1  0  0  0
  1  2  1  0  0  0  0
  2  6  1  0  0  0  0
  3  7  1  6  0  0  0
  3  2  1  0  0  0  0
  3 28  1  0  0  0  0
  5  2  1  0  0  0  0
  8 11  1  0  0  0  0
  8  9  1  0  0  0  0
  9 10  2  0  0  0  0
  9  1  1  0  0  0  0
 12 15  1  6  0  0  0
 12 20  1  0  0  0  0
 12 13  1  0  0  0  0
 12 14  1  0  0  0  0
 13 14  1  0  0  0  0
 13 17  1  0  0  0  0
 14 18  1  6  0  0  0
 14  8  1  0  0  0  0
 16 13  1  0  0  0  0
 19 20  2  0  0  0  0
 19 24  1  0  0  0  0
 20 21  1  0  0  0  0
 21 26  1  0  0  0  0
 21 22  2  0  0  0  0
 23 22  1  0  0  0  0
 23 27  1  0  0  0  0
 24 23  2  0  0  0  0
 25 19  1  0  0  0  0
 28 29  2  0  0  0  0
 30 28  1  0  0  0  0
 30 31  1  0  0  0  0
 31 32  1  0  0  0  0
 33 31  2  0  0  0  0
 34 33  1  0  0  0  0
 35 34  1  0  0  0  0
 36 35  2  0  0  0  0
 37 36  1  0  0  0  0
 38 39  2  0  0  0  0
 38 36  1  0  0  0  0
 39 40  1  0  0  0  0
 40 41  1  0  0  0  0
 40 34  2  0  0  0  0
 41 30  2  0  0  0  0
M  END
>  <minimizedAffinity>
-5.59562063

$$$$

 OpenBabel03242510243D

 41 45  0  0  1  0  0  0  0  0999 V2000
   35.9960   29.3640   38.3320 C   0  0  2  0  0  0  0  0  0  0  0  0
   36.8960   28.2780   37.6300 C   0  0  0  0  0  0  0  0  0  0  0  0
   35.8800   29.0930   36.8960 C   0  0  1  0  0  0  0  0  0  0  0  0
   35.2960   28.8560   39.0260 H   0  0  0  0  0  0  0  0  0  0  0  0
   37.9530   28.5840   37.4870 H   0  0  0  0  0  0  0  0  0  0  0  0
   36.6450   27.2330   37.7830 H   0  0  0  0  0  0  0  0  0  0  0  0
   36.1770   29.9750   36.2830 H   0  0  0  0  0  0  0  0  0  0  0  0
   37.0420   30.6760   40.1990 N   0  0  0  0  0  0  0  0  0  0  0  0
   36.7180   30.5970   38.8490 C   0  0  0  0  0  0  0  0  0  0  0  0
   36.9230   31.4040   37.9060 O   0  0  0  0  0  0  0  0  0  0  0  0
   36.2340   30.3290   40.8000 H   0  0  0  0  0  0  0  0  0  0  0  0
   39.0790   30.2530   41.5300 C   0  0  1  0  0  0  0  0  0  0  0  0
   39.4920   30.2900   40.1920 C   0  0  0  0  0  0  0  0  0  0  0  0
   38.2910   31.1640   40.6670 C   0  0  1  0  0  0  0  0  0  0  0  0
   39.6830   30.6790   42.3660 H   0  0  0  0  0  0  0  0  0  0  0  0
   40.3990   30.9160   39.9290 H   0  0  0  0  0  0  0  0  0  0  0  0
   39.2870   29.5840   39.3650 H   0  0  0  0  0  0  0  0  0  0  0  0
   38.4660   32.2430   40.5340 H   0  0  0  0  0  0  0  0  0  0  0  0
   38.2410   27.8030   41.2270 C   0  0  0  0  0  0  0  0  0  0  0  0
   38.3420   28.9960   42.0180 C   0  0  0  0  0  0  0  0  0  0  0  0
   37.7210   28.9990   43.2530 C   0  0  0  0  0  0  0  0  0  0  0  0
   37.0540   27.8950   43.6580 N   0  0  0  0  0  0  0  0  0  0  0  0
   36.9690   26.7680   42.8900 C   0  0  0  0  0  0  0  0  0  0  0  0
   37.5850   26.7340   41.6400 N   0  0  0  0  0  0  0  0  0  0  0  0
   38.7480   27.8120   40.2820 H   0  0  0  0  0  0  0  0  0  0  0  0
   37.7620   29.8670   43.8930 H   0  0  0  0  0  0  0  0  0  0  0  0
   36.4030   25.9560   43.3350 H   0  0  0  0  0  0  0  0  0  0  0  0
   34.6290   28.3890   36.4220 C   0  0  0  0  0  0  0  0  0  0  0  0
   34.6560   27.1850   36.1880 O   0  0  0  0  0  0  0  0  0  0  0  0
   33.3760   29.1170   36.2350 C   0  0  0  0  0  0  0  0  0  0  0  0
   32.9120   29.6560   35.0550 C   0  0  0  0  0  0  0  0  0  0  0  0
   33.5200   29.5420   34.1710 H   0  0  0  0  0  0  0  0  0  0  0  0
   31.7190   30.3320   34.9420 C   0  0  0  0  0  3  0  0  0  0  0  0
   30.9130   30.5020   36.0450 C   0  0  0  0  0  0  0  0  0  0  0  0
   29.7550   31.1580   35.9390 N   0  0  0  0  0  0  0  0  0  0  0  0
   28.9560   31.3270   37.0310 C   0  0  0  0  0  0  0  0  0  0  0  0
   28.0140   31.8750   36.8820 H   0  0  0  0  0  0  0  0  0  0  0  0
   29.3510   30.8140   38.2610 C   0  0  0  0  0  3  0  0  0  0  0  0
   30.5500   30.1360   38.3670 C   0  0  0  0  0  3  0  0  0  0  0  0
   31.3300   29.9840   37.2480 C   0  0  0  0  0  0  0  0  0  0  0  0
   32.5300   29.3170   37.3060 C   0  0  0  0  0  3  0  0  0  0  0  0
  1  9  1  0  0  0  0
  1  4  1  1  0  0  0
  2  6  1  0  0  0  0
  2  1  1  0  0  0  0
  3  7  1  6  0  0  0
  3  2  1  0  0  0  0
  3  1  1  0  0  0  0
  5  2  1  0  0  0  0
  8 14  1  0  0  0  0
  8 11  1  0  0  0  0
  9  8  1  0  0  0  0
 10  9  2  0  0  0  0
 12 20  1  0  0  0  0
 12 15  1  1  0  0  0
 13 14  1  0  0  0  0
 13 12  1  0  0  0  0
 14 18  1  1  0  0  0
 14 12  1  0  0  0  0
 16 13  1  0  0  0  0
 17 13  1  0  0  0  0
 19 24  2  0  0  0  0
 19 20  1  0  0  0  0
 20 21  2  0  0  0  0
 21 22  1  0  0  0  0
 21 26  1  0  0  0  0
 23 27  1  0  0  0  0
 23 22  2  0  0  0  0
 24 23  1  0  0  0  0
 25 19  1  0  0  0  0
 28  3  1  0  0  0  0
 29 28  2  0  0  0  0
 30 28  1  0  0  0  0
 30 41  1  0  0  0  0
 31 30  2  0  0  0  0
 32 31  1  0  0  0  0
 33 31  1  0  0  0  0
 33 34  2  0  0  0  0
 34 40  1  0  0  0  0
 35 34  1  0  0  0  0
 35 36  2  0  0  0  0
 36 38  1  0  0  0  0
 37 36  1  0  0  0  0
 38 39  2  0  0  0  0
 40 41  2  0  0  0  0
 40 39  1  0  0  0  0
M  END
>  <minimizedAffinity>
-5.57491016

$$$$

 OpenBabel03242510243D

 41 45  0  0  1  0  0  0  0  0999 V2000
   35.1670   28.2000   38.6080 C   0  0  2  0  0  0  0  0  0  0  0  0
   35.6780   29.2090   37.5120 C   0  0  0  0  0  0  0  0  0  0  0  0
   34.2860   29.2330   38.0560 C   0  0  1  0  0  0  0  0  0  0  0  0
   35.1310   27.1820   38.1710 H   0  0  0  0  0  0  0  0  0  0  0  0
   36.3590   29.9960   37.8970 H   0  0  0  0  0  0  0  0  0  0  0  0
   35.7830   28.8450   36.4950 H   0  0  0  0  0  0  0  0  0  0  0  0
   33.9790   29.9720   38.8310 H   0  0  0  0  0  0  0  0  0  0  0  0
   36.9260   27.6080   40.3000 N   0  0  0  0  0  0  0  0  0  0  0  0
   35.7870   28.3440   39.9880 C   0  0  0  0  0  0  0  0  0  0  0  0
   35.1270   29.1650   40.6750 O   0  0  0  0  0  0  0  0  0  0  0  0
   36.8400   26.6110   39.9340 H   0  0  0  0  0  0  0  0  0  0  0  0
   39.1370   27.2220   41.3300 C   0  0  1  0  0  0  0  0  0  0  0  0
   39.3660   28.0460   40.2210 C   0  0  0  0  0  0  0  0  0  0  0  0
   38.0270   28.1510   41.0130 C   0  0  1  0  0  0  0  0  0  0  0  0
   39.6850   27.3360   42.2960 H   0  0  0  0  0  0  0  0  0  0  0  0
   40.0180   28.9620   40.3590 H   0  0  0  0  0  0  0  0  0  0  0  0
   39.2790   27.8240   39.1400 H   0  0  0  0  0  0  0  0  0  0  0  0
   37.8680   29.1470   41.4570 H   0  0  0  0  0  0  0  0  0  0  0  0
   39.3080   25.0540   39.8940 C   0  0  0  0  0  0  0  0  0  0  0  0
   38.8530   25.7340   41.0720 C   0  0  0  0  0  0  0  0  0  0  0  0
   38.1110   25.0070   41.9830 C   0  0  0  0  0  0  0  0  0  0  0  0
   37.8470   23.7060   41.7310 N   0  0  0  0  0  0  0  0  0  0  0  0
   38.2890   23.0750   40.6020 C   0  0  0  0  0  0  0  0  0  0  0  0
   39.0410   23.7810   39.6640 N   0  0  0  0  0  0  0  0  0  0  0  0
   39.9010   25.6280   39.2090 H   0  0  0  0  0  0  0  0  0  0  0  0
   37.7420   25.4650   42.8890 H   0  0  0  0  0  0  0  0  0  0  0  0
   38.0050   22.0310   40.5240 H   0  0  0  0  0  0  0  0  0  0  0  0
   33.1700   28.7770   37.1450 C   0  0  0  0  0  0  0  0  0  0  0  0
   33.2050   27.6550   36.6480 O   0  0  0  0  0  0  0  0  0  0  0  0
   32.0400   29.6490   36.8380 C   0  0  0  0  0  0  0  0  0  0  0  0
   31.0110   29.9850   37.6920 C   0  0  0  0  0  0  0  0  0  0  0  0
   31.0230   29.5720   38.6890 H   0  0  0  0  0  0  0  0  0  0  0  0
   29.9710   30.8160   37.3430 C   0  0  0  0  0  3  0  0  0  0  0  0
   29.9150   31.3640   36.0810 C   0  0  0  0  0  0  0  0  0  0  0  0
   28.9070   32.1700   35.7410 N   0  0  0  0  0  0  0  0  0  0  0  0
   28.8520   32.7130   34.4910 C   0  0  0  0  0  0  0  0  0  0  0  0
   27.9970   33.3690   34.2690 H   0  0  0  0  0  0  0  0  0  0  0  0
   29.8500   32.4250   33.5680 C   0  0  0  0  0  3  0  0  0  0  0  0
   30.8920   31.5900   33.9250 C   0  0  0  0  0  3  0  0  0  0  0  0
   30.9170   31.0610   35.1910 C   0  0  0  0  0  0  0  0  0  0  0  0
   31.9330   30.2260   35.5890 C   0  0  0  0  0  3  0  0  0  0  0  0
  1  4  1  6  0  0  0
  1  9  1  0  0  0  0
  2  5  1  0  0  0  0
  2  3  1  0  0  0  0
  2  1  1  0  0  0  0
  3  1  1  0  0  0  0
  3  7  1  1  0  0  0
  6  2  1  0  0  0  0
  8 14  1  0  0  0  0
  9  8  1  0  0  0  0
  9 10  2  0  0  0  0
 11  8  1  0  0  0  0
 12 15  1  1  0  0  0
 13 16  1  0  0  0  0
 13 14  1  0  0  0  0
 13 12  1  0  0  0  0
 14 12  1  0  0  0  0
 14 18  1  1  0  0  0
 17 13  1  0  0  0  0
 19 20  1  0  0  0  0
 20 12  1  0  0  0  0
 20 21  2  0  0  0  0
 21 26  1  0  0  0  0
 22 21  1  0  0  0  0
 23 22  2  0  0  0  0
 24 19  2  0  0  0  0
 24 23  1  0  0  0  0
 25 19  1  0  0  0  0
 27 23  1  0  0  0  0
 28  3  1  0  0  0  0
 29 28  2  0  0  0  0
 30 28  1  0  0  0  0
 30 31  1  0  0  0  0
 31 32  1  0  0  0  0
 33 31  2  0  0  0  0
 34 33  1  0  0  0  0
 35 34  1  0  0  0  0
 36 35  2  0  0  0  0
 37 36  1  0  0  0  0
 38 39  2  0  0  0  0
 38 36  1  0  0  0  0
 39 40  1  0  0  0  0
 40 41  1  0  0  0  0
 40 34  2  0  0  0  0
 41 30  2  0  0  0  0
M  END
>  <minimizedAffinity>
-5.56146669

$$$$
