REMARK  Name = 
REMARK  3 active torsions:
REMARK  status: ('A' for Active; 'I' for Inactive)
REMARK    1  A    between atoms: C_2  and  C_13
REMARK    2  A    between atoms: C_3  and  C_7
REMARK    3  A    between atoms: C_13  and  C_21
REMARK                            x       y       z     vdW  Elec       q    Type
REMARK                         _______ _______ _______ _____ _____    ______ ____
ROOT
ATOM      1  C   UNL     1      45.265  36.156  43.185  0.00  0.00    +0.000 A 
ATOM      2  C   UNL     1      45.870  34.919  42.892  0.00  0.00    +0.000 A 
ATOM      3  C   UNL     1      45.825  33.954  43.897  0.00  0.00    +0.000 A 
ATOM      4  N   UNL     1      45.227  34.232  45.061  0.00  0.00    +0.000 NA
ATOM      5  C   UNL     1      44.648  35.439  45.321  0.00  0.00    +0.000 A 
ATOM      6  N   UNL     1      44.684  36.368  44.371  0.00  0.00    +0.000 NA
ATOM      7  H   UNL     1      45.261  36.959  42.448  0.00  0.00    +0.000 HD
ATOM      8  H   UNL     1      44.219  35.471  46.315  0.00  0.00    +0.000 HD
ENDROOT
BRANCH   3   9
ATOM      9  C   UNL     1      46.445  32.650  43.629  0.00  0.00    +0.000 A 
ATOM     10  C   UNL     1      45.651  31.579  43.294  0.00  0.00    +0.000 A 
ATOM     11  C   UNL     1      46.288  30.376  43.053  0.00  0.00    +0.000 A 
ATOM     12  C   UNL     1      47.656  30.177  43.123  0.00  0.00    +0.000 A 
ATOM     13  C   UNL     1      48.384  31.313  43.467  0.00  0.00    +0.000 A 
ATOM     14  N   UNL     1      47.767  32.484  43.703  0.00  0.00    +0.000 NA
ATOM     15  H   UNL     1      44.572  31.647  43.217  0.00  0.00    +0.000 HD
ATOM     16  H   UNL     1      45.696  29.499  42.785  0.00  0.00    +0.000 HD
ATOM     17  H   UNL     1      48.123  29.239  42.932  0.00  0.00    +0.000 HD
ATOM     18  H   UNL     1      49.461  31.248  43.545  0.00  0.00    +0.000 HD
ENDBRANCH   3   9
BRANCH   2  19
ATOM     19  C   UNL     1      46.491  34.678  41.635  0.00  0.00    +0.000 C 
ATOM     20  O   UNL     1      47.669  35.130  41.478  0.00  0.00    +0.000 OA
BRANCH  19  21
ATOM     21  C   UNL     1      45.838  33.949  40.553  0.00  0.00    +0.000 A 
ATOM     22  C   UNL     1      44.499  34.081  40.215  0.00  0.00    +0.000 A 
ATOM     23  H   UNL     1      43.931  34.780  40.813  0.00  0.00    +0.000 HD
ATOM     24  C   UNL     1      44.005  33.320  39.156  0.00  0.00    +0.000 A 
ATOM     25  C   UNL     1      44.828  32.458  38.462  0.00  0.00    +0.000 A 
ATOM     26  N   UNL     1      44.301  31.749  37.451  0.00  0.00    +0.000 NA
ATOM     27  C   UNL     1      45.057  30.878  36.723  0.00  0.00    +0.000 A 
ATOM     28  H   UNL     1      44.547  30.351  35.928  0.00  0.00    +0.000 HD
ATOM     29  C   UNL     1      46.411  30.712  37.029  0.00  0.00    +0.000 A 
ATOM     30  C   UNL     1      46.953  31.455  38.084  0.00  0.00    +0.000 A 
ATOM     31  C   UNL     1      46.156  32.321  38.792  0.00  0.00    +0.000 A 
ATOM     32  C   UNL     1      46.656  33.069  39.839  0.00  0.00    +0.000 A 
ENDBRANCH  19  21
ENDBRANCH   2  19
TORSDOF 3
