
 OpenBabel03252509203D

 46 50  0  0  1  0  0  0  0  0999 V2000
   37.6250   26.3800   42.1000 C   0  0  1  0  0  0  0  0  0  0  0  0
   37.7720   24.9510   41.7060 C   0  0  0  0  0  0  0  0  0  0  0  0
   39.1230   24.3650   42.0040 C   0  0  0  0  0  0  0  0  0  0  0  0
   39.6370   24.7460   43.3710 C   0  0  0  0  0  0  0  0  0  0  0  0
   39.4450   26.1990   43.6650 C   0  0  0  0  0  0  0  0  0  0  0  0
   39.0300   26.9650   42.3850 C   0  0  2  0  0  0  0  0  0  0  0  0
   37.0840   26.4660   43.0520 H   0  0  0  0  0  0  0  0  0  0  0  0
   37.5640   24.7670   40.6360 H   0  0  0  0  0  0  0  0  0  0  0  0
   37.0180   24.3360   42.2670 H   0  0  0  0  0  0  0  0  0  0  0  0
   39.0580   23.2790   41.9370 H   0  0  0  0  0  0  0  0  0  0  0  0
   39.8730   24.7190   41.2630 H   0  0  0  0  0  0  0  0  0  0  0  0
   40.7100   24.4990   43.4150 H   0  0  0  0  0  0  0  0  0  0  0  0
   39.1100   24.1010   44.1150 H   0  0  0  0  0  0  0  0  0  0  0  0
   38.5720   26.3120   44.3500 H   0  0  0  0  0  0  0  0  0  0  0  0
   40.3570   26.6510   44.1090 H   0  0  0  0  0  0  0  0  0  0  0  0
   39.7130   26.7120   41.5480 H   0  0  0  0  0  0  0  0  0  0  0  0
   36.0050   28.1710   38.7860 C   0  0  0  0  0  0  0  0  0  0  0  0
   35.5390   28.7150   39.9800 C   0  0  0  0  0  0  0  0  0  0  0  0
   35.9900   28.2120   41.1220 C   0  0  0  0  0  0  0  0  0  0  0  0
   36.9240   27.1500   41.1190 C   0  0  0  0  0  0  0  0  0  0  0  0
   37.1630   26.8510   39.3420 S   0  0  0  0  0  0  0  0  0  0  0  0
   34.8270   29.5290   39.9750 H   0  0  0  0  0  0  0  0  0  0  0  0
   35.7410   28.5030   42.1290 H   0  0  0  0  0  0  0  0  0  0  0  0
   34.2060   28.9870   35.6350 C   0  0  0  0  0  0  0  0  0  0  0  0
   35.2290   29.5660   34.8870 C   0  0  0  0  0  0  0  0  0  0  0  0
   36.4870   29.6510   35.4950 C   0  0  0  0  0  0  0  0  0  0  0  0
   36.6340   29.1690   36.7650 N   0  0  0  0  0  0  0  0  0  0  0  0
   35.6090   28.6220   37.4340 C   0  0  0  0  0  0  0  0  0  0  0  0
   34.3870   28.5310   36.8630 N   0  0  0  0  0  0  0  0  0  0  0  0
   33.2240   28.9120   35.1830 H   0  0  0  0  0  0  0  0  0  0  0  0
   35.1140   29.9480   33.8810 H   0  0  0  0  0  0  0  0  0  0  0  0
   37.3180   30.0820   34.9830 H   0  0  0  0  0  0  0  0  0  0  0  0
   38.9480   28.3810   42.6790 C   0  0  0  0  0  0  0  0  0  0  0  0
   38.2940   28.8060   43.6310 O   0  0  0  0  0  0  0  0  0  0  0  0
   39.3760   29.6780   42.2640 C   0  0  0  0  0  0  0  0  0  0  0  0
   40.6400   30.2180   42.1860 C   0  0  0  0  0  0  0  0  0  0  0  0
   41.3920   29.6050   42.7180 H   0  0  0  0  0  0  0  0  0  0  0  0
   41.1720   31.3660   41.6660 C   0  0  0  0  0  3  0  0  0  0  0  0
   40.2030   32.1410   41.1000 C   0  0  0  0  0  0  0  0  0  0  0  0
   40.5640   33.3110   40.5370 N   0  0  0  0  0  0  0  0  0  0  0  0
   39.7030   34.1610   39.9480 C   0  0  0  0  0  0  0  0  0  0  0  0
   40.1180   35.0700   39.5330 H   0  0  0  0  0  0  0  0  0  0  0  0
   38.3680   33.8190   39.9120 C   0  0  0  0  0  3  0  0  0  0  0  0
   37.9110   32.6380   40.4630 C   0  0  0  0  0  3  0  0  0  0  0  0
   38.8670   31.8350   41.0450 C   0  0  0  0  0  0  0  0  0  0  0  0
   38.5280   30.6300   41.6260 C   0  0  0  0  0  3  0  0  0  0  0  0
  1  6  1  0  0  0  0
  1  7  1  1  0  0  0
  2  3  1  0  0  0  0
  2  1  1  0  0  0  0
  2  9  1  0  0  0  0
  3  4  1  0  0  0  0
  4 12  1  0  0  0  0
  4  5  1  0  0  0  0
  4 13  1  0  0  0  0
  5 15  1  0  0  0  0
  5 14  1  0  0  0  0
  6 16  1  6  0  0  0
  6 33  1  0  0  0  0
  6  5  1  0  0  0  0
  8  2  1  0  0  0  0
 10  3  1  0  0  0  0
 11  3  1  0  0  0  0
 17 21  1  0  0  0  0
 17 18  2  0  0  0  0
 18 19  1  0  0  0  0
 19 23  1  0  0  0  0
 20 19  2  0  0  0  0
 20  1  1  0  0  0  0
 21 20  1  0  0  0  0
 22 18  1  0  0  0  0
 24 29  1  0  0  0  0
 25 26  1  0  0  0  0
 25 24  2  0  0  0  0
 26 27  2  0  0  0  0
 27 28  1  0  0  0  0
 28 17  1  0  0  0  0
 29 28  2  0  0  0  0
 30 24  1  0  0  0  0
 31 25  1  0  0  0  0
 32 26  1  0  0  0  0
 33 34  2  0  0  0  0
 35 33  1  0  0  0  0
 36 35  1  0  0  0  0
 36 37  1  0  0  0  0
 38 36  2  0  0  0  0
 39 38  1  0  0  0  0
 40 39  2  0  0  0  0
 41 40  1  0  0  0  0
 42 41  1  0  0  0  0
 43 41  2  0  0  0  0
 43 44  1  0  0  0  0
 44 45  2  0  0  0  0
 45 39  1  0  0  0  0
 45 46  1  0  0  0  0
 46 35  2  0  0  0  0
M  END
>  <minimizedAffinity>
-6.62578106

$$$$

 OpenBabel03252509203D

 46 50  0  0  1  0  0  0  0  0999 V2000
   38.1250   31.3470   39.7300 C   0  0  1  0  0  0  0  0  0  0  0  0
   37.2790   32.3340   39.0020 C   0  0  0  0  0  0  0  0  0  0  0  0
   37.3440   33.7290   39.5560 C   0  0  0  0  0  0  0  0  0  0  0  0
   38.7510   34.1610   39.8890 C   0  0  0  0  0  0  0  0  0  0  0  0
   39.5120   33.1030   40.6200 C   0  0  0  0  0  0  0  0  0  0  0  0
   38.5640   31.9680   41.0790 C   0  0  2  0  0  0  0  0  0  0  0  0
   39.0620   31.1630   39.1850 H   0  0  0  0  0  0  0  0  0  0  0  0
   36.2120   32.0480   38.9570 H   0  0  0  0  0  0  0  0  0  0  0  0
   37.6180   32.3900   37.9330 H   0  0  0  0  0  0  0  0  0  0  0  0
   36.9220   34.4180   38.8230 H   0  0  0  0  0  0  0  0  0  0  0  0
   36.7490   33.8040   40.4920 H   0  0  0  0  0  0  0  0  0  0  0  0
   38.6930   35.0700   40.5100 H   0  0  0  0  0  0  0  0  0  0  0  0
   39.2490   34.4390   38.9280 H   0  0  0  0  0  0  0  0  0  0  0  0
   40.2100   32.6070   39.9050 H   0  0  0  0  0  0  0  0  0  0  0  0
   40.0650   33.5220   41.4870 H   0  0  0  0  0  0  0  0  0  0  0  0
   37.6790   32.3920   41.5960 H   0  0  0  0  0  0  0  0  0  0  0  0
   36.8030   27.4680   39.8550 C   0  0  0  0  0  0  0  0  0  0  0  0
   35.9550   28.3530   40.5160 C   0  0  0  0  0  0  0  0  0  0  0  0
   36.2830   29.6390   40.5460 C   0  0  0  0  0  0  0  0  0  0  0  0
   37.4660   30.0920   39.9180 C   0  0  0  0  0  0  0  0  0  0  0  0
   38.1580   28.5540   39.2420 S   0  0  0  0  0  0  0  0  0  0  0  0
   35.0500   27.9990   40.9910 H   0  0  0  0  0  0  0  0  0  0  0  0
   35.7540   30.4560   41.0080 H   0  0  0  0  0  0  0  0  0  0  0  0
   35.8810   24.0440   38.7350 C   0  0  0  0  0  0  0  0  0  0  0  0
   36.3150   23.2830   39.8190 C   0  0  0  0  0  0  0  0  0  0  0  0
   36.9050   23.9770   40.8820 C   0  0  0  0  0  0  0  0  0  0  0  0
   37.0170   25.3360   40.7950 N   0  0  0  0  0  0  0  0  0  0  0  0
   36.5780   26.0120   39.7240 C   0  0  0  0  0  0  0  0  0  0  0  0
   36.0050   25.3590   38.6880 N   0  0  0  0  0  0  0  0  0  0  0  0
   35.4210   23.5260   37.9010 H   0  0  0  0  0  0  0  0  0  0  0  0
   36.2270   22.2070   39.8900 H   0  0  0  0  0  0  0  0  0  0  0  0
   37.2620   23.4620   41.7450 H   0  0  0  0  0  0  0  0  0  0  0  0
   39.3110   31.0090   41.8680 C   0  0  0  0  0  0  0  0  0  0  0  0
   40.4380   31.2620   42.2930 O   0  0  0  0  0  0  0  0  0  0  0  0
   39.2760   29.7040   42.4450 C   0  0  0  0  0  0  0  0  0  0  0  0
   38.3110   29.0950   43.2160 C   0  0  0  0  0  0  0  0  0  0  0  0
   37.5600   29.8130   43.5930 H   0  0  0  0  0  0  0  0  0  0  0  0
   38.1030   27.8250   43.6800 C   0  0  0  0  0  3  0  0  0  0  0  0
   39.0980   26.9850   43.2710 C   0  0  0  0  0  0  0  0  0  0  0  0
   39.0380   25.6920   43.6440 N   0  0  0  0  0  0  0  0  0  0  0  0
   39.9560   24.7680   43.3050 C   0  0  0  0  0  0  0  0  0  0  0  0
   39.7950   23.7610   43.6670 H   0  0  0  0  0  0  0  0  0  0  0  0
   41.0250   25.1620   42.5270 C   0  0  0  0  0  3  0  0  0  0  0  0
   41.1620   26.4680   42.1010 C   0  0  0  0  0  3  0  0  0  0  0  0
   40.1740   27.3400   42.4990 C   0  0  0  0  0  0  0  0  0  0  0  0
   40.2050   28.6700   42.1310 C   0  0  0  0  0  3  0  0  0  0  0  0
  1  7  1  6  0  0  0
  1 20  1  0  0  0  0
  1  6  1  0  0  0  0
  2  3  1  0  0  0  0
  2  1  1  0  0  0  0
  3  4  1  0  0  0  0
  3 11  1  0  0  0  0
  4 12  1  0  0  0  0
  4  5  1  0  0  0  0
  5  6  1  0  0  0  0
  5 15  1  0  0  0  0
  6 16  1  1  0  0  0
  6 33  1  0  0  0  0
  8  2  1  0  0  0  0
  9  2  1  0  0  0  0
 10  3  1  0  0  0  0
 13  4  1  0  0  0  0
 14  5  1  0  0  0  0
 17 18  2  0  0  0  0
 18 19  1  0  0  0  0
 18 22  1  0  0  0  0
 19 23  1  0  0  0  0
 20 19  2  0  0  0  0
 21 17  1  0  0  0  0
 21 20  1  0  0  0  0
 24 25  1  0  0  0  0
 25 31  1  0  0  0  0
 25 26  2  0  0  0  0
 26 32  1  0  0  0  0
 27 26  1  0  0  0  0
 28 17  1  0  0  0  0
 28 27  2  0  0  0  0
 29 24  2  0  0  0  0
 29 28  1  0  0  0  0
 30 24  1  0  0  0  0
 33 34  2  0  0  0  0
 33 35  1  0  0  0  0
 35 36  1  0  0  0  0
 36 37  1  0  0  0  0
 36 38  2  0  0  0  0
 39 40  1  0  0  0  0
 39 38  1  0  0  0  0
 41 40  2  0  0  0  0
 41 42  1  0  0  0  0
 43 41  1  0  0  0  0
 44 45  1  0  0  0  0
 44 43  2  0  0  0  0
 45 39  2  0  0  0  0
 46 35  2  0  0  0  0
 46 45  1  0  0  0  0
M  END
>  <minimizedAffinity>
-6.61905956

$$$$

 OpenBabel03252509203D

 46 50  0  0  1  0  0  0  0  0999 V2000
   37.3770   27.1590   42.1710 C   0  0  1  0  0  0  0  0  0  0  0  0
   37.2850   25.6730   42.0990 C   0  0  0  0  0  0  0  0  0  0  0  0
   38.5970   24.9650   42.2780 C   0  0  0  0  0  0  0  0  0  0  0  0
   39.4220   25.5370   43.4050 C   0  0  0  0  0  0  0  0  0  0  0  0
   39.4520   27.0320   43.3840 C   0  0  0  0  0  0  0  0  0  0  0  0
   38.8650   27.5710   42.0580 C   0  0  2  0  0  0  0  0  0  0  0  0
   37.0580   27.5190   43.1590 H   0  0  0  0  0  0  0  0  0  0  0  0
   36.8400   25.3060   41.1550 H   0  0  0  0  0  0  0  0  0  0  0  0
   36.6020   25.3080   42.9120 H   0  0  0  0  0  0  0  0  0  0  0  0
   38.4040   23.9100   42.4760 H   0  0  0  0  0  0  0  0  0  0  0  0
   39.2110   25.0420   41.3530 H   0  0  0  0  0  0  0  0  0  0  0  0
   40.4480   25.1450   43.3120 H   0  0  0  0  0  0  0  0  0  0  0  0
   38.9950   25.1450   44.3600 H   0  0  0  0  0  0  0  0  0  0  0  0
   38.7580   27.4130   44.1690 H   0  0  0  0  0  0  0  0  0  0  0  0
   40.4800   27.4220   43.5410 H   0  0  0  0  0  0  0  0  0  0  0  0
   39.3280   27.0510   41.1930 H   0  0  0  0  0  0  0  0  0  0  0  0
   35.3790   28.5080   38.8550 C   0  0  0  0  0  0  0  0  0  0  0  0
   35.0990   29.2520   39.9990 C   0  0  0  0  0  0  0  0  0  0  0  0
   35.6850   28.9050   41.1370 C   0  0  0  0  0  0  0  0  0  0  0  0
   36.5740   27.8060   41.1800 C   0  0  0  0  0  0  0  0  0  0  0  0
   36.5580   27.2280   39.4570 S   0  0  0  0  0  0  0  0  0  0  0  0
   34.4200   30.0930   39.9570 H   0  0  0  0  0  0  0  0  0  0  0  0
   35.5860   29.3590   42.1090 H   0  0  0  0  0  0  0  0  0  0  0  0
   34.8250   29.1090   35.2270 C   0  0  0  0  0  0  0  0  0  0  0  0
   33.4410   29.2680   35.1910 C   0  0  0  0  0  0  0  0  0  0  0  0
   32.7610   29.1600   36.4110 C   0  0  0  0  0  0  0  0  0  0  0  0
   33.4830   28.9110   37.5430 N   0  0  0  0  0  0  0  0  0  0  0  0
   34.8160   28.7690   37.5120 C   0  0  0  0  0  0  0  0  0  0  0  0
   35.4900   28.8700   36.3440 N   0  0  0  0  0  0  0  0  0  0  0  0
   35.3700   29.1880   34.2930 H   0  0  0  0  0  0  0  0  0  0  0  0
   32.8670   29.4650   34.2950 H   0  0  0  0  0  0  0  0  0  0  0  0
   31.7010   29.2690   36.4610 H   0  0  0  0  0  0  0  0  0  0  0  0
   38.9990   29.0130   42.0250 C   0  0  0  0  0  0  0  0  0  0  0  0
   38.7910   29.7020   43.0230 O   0  0  0  0  0  0  0  0  0  0  0  0
   39.3200   30.1300   41.1960 C   0  0  0  0  0  0  0  0  0  0  0  0
   39.2970   31.4790   41.4680 C   0  0  0  0  0  0  0  0  0  0  0  0
   38.7560   31.7080   42.4050 H   0  0  0  0  0  0  0  0  0  0  0  0
   39.7260   32.6040   40.8200 C   0  0  0  0  0  3  0  0  0  0  0  0
   40.3060   32.2900   39.6260 C   0  0  0  0  0  0  0  0  0  0  0  0
   40.7850   33.2920   38.8620 N   0  0  0  0  0  0  0  0  0  0  0  0
   41.3790   33.1100   37.6680 C   0  0  0  0  0  0  0  0  0  0  0  0
   41.7220   33.9970   37.1520 H   0  0  0  0  0  0  0  0  0  0  0  0
   41.5090   31.8230   37.1910 C   0  0  0  0  0  3  0  0  0  0  0  0
   41.0460   30.7380   37.9090 C   0  0  0  0  0  3  0  0  0  0  0  0
   40.4530   31.0250   39.1190 C   0  0  0  0  0  0  0  0  0  0  0  0
   39.9550   30.0200   39.9240 C   0  0  0  0  0  3  0  0  0  0  0  0
  1  7  1  1  0  0  0
  2  1  1  0  0  0  0
  2  3  1  0  0  0  0
  2  9  1  0  0  0  0
  3 10  1  0  0  0  0
  3  4  1  0  0  0  0
  4 13  1  0  0  0  0
  5  4  1  0  0  0  0
  5 15  1  0  0  0  0
  5 14  1  0  0  0  0
  6 16  1  6  0  0  0
  6  1  1  0  0  0  0
  6  5  1  0  0  0  0
  8  2  1  0  0  0  0
 11  3  1  0  0  0  0
 12  4  1  0  0  0  0
 17 21  1  0  0  0  0
 17 18  2  0  0  0  0
 18 19  1  0  0  0  0
 19 20  2  0  0  0  0
 19 23  1  0  0  0  0
 20  1  1  0  0  0  0
 21 20  1  0  0  0  0
 22 18  1  0  0  0  0
 24 29  1  0  0  0  0
 25 24  2  0  0  0  0
 25 26  1  0  0  0  0
 26 32  1  0  0  0  0
 26 27  2  0  0  0  0
 28 27  1  0  0  0  0
 28 17  1  0  0  0  0
 29 28  2  0  0  0  0
 30 24  1  0  0  0  0
 31 25  1  0  0  0  0
 33  6  1  0  0  0  0
 33 34  2  0  0  0  0
 35 36  1  0  0  0  0
 35 33  1  0  0  0  0
 36 37  1  0  0  0  0
 38 36  2  0  0  0  0
 39 38  1  0  0  0  0
 40 39  2  0  0  0  0
 41 40  1  0  0  0  0
 42 41  1  0  0  0  0
 43 41  2  0  0  0  0
 43 44  1  0  0  0  0
 44 45  2  0  0  0  0
 45 39  1  0  0  0  0
 45 46  1  0  0  0  0
 46 35  2  0  0  0  0
M  END
>  <minimizedAffinity>
-6.4476862

$$$$

 OpenBabel03252509203D

 46 50  0  0  1  0  0  0  0  0999 V2000
   37.7450   26.1540   40.0960 C   0  0  1  0  0  0  0  0  0  0  0  0
   38.2580   24.7720   39.8770 C   0  0  0  0  0  0  0  0  0  0  0  0
   38.5150   24.0010   41.1400 C   0  0  0  0  0  0  0  0  0  0  0  0
   37.4090   24.1580   42.1550 C   0  0  0  0  0  0  0  0  0  0  0  0
   36.9700   25.5800   42.3020 C   0  0  0  0  0  0  0  0  0  0  0  0
   37.9560   26.5320   41.5830 C   0  0  2  0  0  0  0  0  0  0  0  0
   36.6580   26.1910   39.9460 H   0  0  0  0  0  0  0  0  0  0  0  0
   39.1880   24.7390   39.2780 H   0  0  0  0  0  0  0  0  0  0  0  0
   37.5030   24.1890   39.2850 H   0  0  0  0  0  0  0  0  0  0  0  0
   38.6250   22.9450   40.8920 H   0  0  0  0  0  0  0  0  0  0  0  0
   39.4530   24.3480   41.6250 H   0  0  0  0  0  0  0  0  0  0  0  0
   37.7760   23.7830   43.1240 H   0  0  0  0  0  0  0  0  0  0  0  0
   36.5670   23.4970   41.8340 H   0  0  0  0  0  0  0  0  0  0  0  0
   36.0070   25.7140   41.7550 H   0  0  0  0  0  0  0  0  0  0  0  0
   36.8620   25.8660   43.3690 H   0  0  0  0  0  0  0  0  0  0  0  0
   39.0000   26.2990   41.8790 H   0  0  0  0  0  0  0  0  0  0  0  0
   40.1250   28.6840   37.9180 C   0  0  0  0  0  0  0  0  0  0  0  0
   38.7740   28.7990   37.5990 C   0  0  0  0  0  0  0  0  0  0  0  0
   37.9060   28.0250   38.2370 C   0  0  0  0  0  0  0  0  0  0  0  0
   38.3490   27.1090   39.2190 C   0  0  0  0  0  0  0  0  0  0  0  0
   40.1470   27.3780   39.2160 S   0  0  0  0  0  0  0  0  0  0  0  0
   38.4420   29.5050   36.8490 H   0  0  0  0  0  0  0  0  0  0  0  0
   36.8360   27.9760   38.1200 H   0  0  0  0  0  0  0  0  0  0  0  0
   42.5030   31.3430   36.8650 C   0  0  0  0  0  0  0  0  0  0  0  0
   43.3280   30.6330   35.9950 C   0  0  0  0  0  0  0  0  0  0  0  0
   43.0330   29.2770   35.8100 C   0  0  0  0  0  0  0  0  0  0  0  0
   41.9710   28.7400   36.4810 N   0  0  0  0  0  0  0  0  0  0  0  0
   41.2130   29.4780   37.3060 C   0  0  0  0  0  0  0  0  0  0  0  0
   41.4830   30.7880   37.4980 N   0  0  0  0  0  0  0  0  0  0  0  0
   42.7140   32.3940   37.0230 H   0  0  0  0  0  0  0  0  0  0  0  0
   44.1680   31.0570   35.4620 H   0  0  0  0  0  0  0  0  0  0  0  0
   43.6200   28.6700   35.1580 H   0  0  0  0  0  0  0  0  0  0  0  0
   37.5610   27.9040   41.8250 C   0  0  0  0  0  0  0  0  0  0  0  0
   36.4540   28.1850   42.2850 O   0  0  0  0  0  0  0  0  0  0  0  0
   37.9850   29.2650   41.7440 C   0  0  0  0  0  0  0  0  0  0  0  0
   39.1290   29.8720   42.2100 C   0  0  0  0  0  0  0  0  0  0  0  0
   39.6860   29.2310   42.9180 H   0  0  0  0  0  0  0  0  0  0  0  0
   39.7020   31.1040   42.0550 C   0  0  0  0  0  3  0  0  0  0  0  0
   38.9410   31.9000   41.2490 C   0  0  0  0  0  0  0  0  0  0  0  0
   39.3710   33.1520   40.9940 N   0  0  0  0  0  0  0  0  0  0  0  0
   38.7120   34.0290   40.2150 C   0  0  0  0  0  0  0  0  0  0  0  0
   39.1610   35.0050   40.0870 H   0  0  0  0  0  0  0  0  0  0  0  0
   37.5240   33.6300   39.6390 C   0  0  0  0  0  3  0  0  0  0  0  0
   37.0120   32.3640   39.8480 C   0  0  0  0  0  3  0  0  0  0  0  0
   37.7580   31.5390   40.6600 C   0  0  0  0  0  0  0  0  0  0  0  0
   37.3450   30.2510   40.9370 C   0  0  0  0  0  3  0  0  0  0  0  0
  1  7  1  6  0  0  0
  1  6  1  0  0  0  0
  2  1  1  0  0  0  0
  2  3  1  0  0  0  0
  3 11  1  0  0  0  0
  3  4  1  0  0  0  0
  4  5  1  0  0  0  0
  4 12  1  0  0  0  0
  5 15  1  0  0  0  0
  6 33  1  0  0  0  0
  6 16  1  1  0  0  0
  6  5  1  0  0  0  0
  8  2  1  0  0  0  0
  9  2  1  0  0  0  0
 10  3  1  0  0  0  0
 13  4  1  0  0  0  0
 14  5  1  0  0  0  0
 17 21  1  0  0  0  0
 18 17  2  0  0  0  0
 18 19  1  0  0  0  0
 19 20  2  0  0  0  0
 20  1  1  0  0  0  0
 21 20  1  0  0  0  0
 22 18  1  0  0  0  0
 23 19  1  0  0  0  0
 24 30  1  0  0  0  0
 24 29  1  0  0  0  0
 25 24  2  0  0  0  0
 26 25  1  0  0  0  0
 26 27  2  0  0  0  0
 27 28  1  0  0  0  0
 28 29  2  0  0  0  0
 28 17  1  0  0  0  0
 31 25  1  0  0  0  0
 32 26  1  0  0  0  0
 33 34  2  0  0  0  0
 35 33  1  0  0  0  0
 35 36  1  0  0  0  0
 36 37  1  0  0  0  0
 38 36  2  0  0  0  0
 39 38  1  0  0  0  0
 40 39  1  0  0  0  0
 41 40  2  0  0  0  0
 42 41  1  0  0  0  0
 43 44  2  0  0  0  0
 43 41  1  0  0  0  0
 44 45  1  0  0  0  0
 45 46  1  0  0  0  0
 45 39  2  0  0  0  0
 46 35  2  0  0  0  0
M  END
>  <minimizedAffinity>
-6.432899

$$$$

 OpenBabel03252509203D

 46 50  0  0  1  0  0  0  0  0999 V2000
   37.9630   31.4340   39.5950 C   0  0  1  0  0  0  0  0  0  0  0  0
   37.4290   32.7170   39.0580 C   0  0  0  0  0  0  0  0  0  0  0  0
   37.6990   33.9110   39.9300 C   0  0  0  0  0  0  0  0  0  0  0  0
   39.1110   33.9370   40.4640 C   0  0  0  0  0  0  0  0  0  0  0  0
   39.5470   32.6040   40.9810 C   0  0  0  0  0  0  0  0  0  0  0  0
   38.3420   31.6370   41.0830 C   0  0  2  0  0  0  0  0  0  0  0  0
   38.9050   31.1680   39.0970 H   0  0  0  0  0  0  0  0  0  0  0  0
   36.3410   32.6930   38.8640 H   0  0  0  0  0  0  0  0  0  0  0  0
   37.9050   32.9250   38.0630 H   0  0  0  0  0  0  0  0  0  0  0  0
   37.5200   34.8170   39.3510 H   0  0  0  0  0  0  0  0  0  0  0  0
   37.0180   33.9140   40.8080 H   0  0  0  0  0  0  0  0  0  0  0  0
   39.1560   34.6810   41.2760 H   0  0  0  0  0  0  0  0  0  0  0  0
   39.7720   34.2970   39.6380 H   0  0  0  0  0  0  0  0  0  0  0  0
   40.2180   32.1300   40.2260 H   0  0  0  0  0  0  0  0  0  0  0  0
   40.0580   32.6930   41.9630 H   0  0  0  0  0  0  0  0  0  0  0  0
   37.5010   32.1270   41.6150 H   0  0  0  0  0  0  0  0  0  0  0  0
   35.8800   28.0250   38.6740 C   0  0  0  0  0  0  0  0  0  0  0  0
   35.1660   28.8930   39.4970 C   0  0  0  0  0  0  0  0  0  0  0  0
   35.7420   30.0290   39.8670 C   0  0  0  0  0  0  0  0  0  0  0  0
   37.0490   30.3470   39.4290 C   0  0  0  0  0  0  0  0  0  0  0  0
   37.4810   28.8990   38.4180 S   0  0  0  0  0  0  0  0  0  0  0  0
   34.1660   28.6440   39.8250 H   0  0  0  0  0  0  0  0  0  0  0  0
   35.3450   30.8100   40.4950 H   0  0  0  0  0  0  0  0  0  0  0  0
   34.0660   25.2870   36.9300 C   0  0  0  0  0  0  0  0  0  0  0  0
   34.7060   24.1660   37.4560 C   0  0  0  0  0  0  0  0  0  0  0  0
   35.7300   24.4000   38.3810 C   0  0  0  0  0  0  0  0  0  0  0  0
   36.0340   25.6900   38.7090 N   0  0  0  0  0  0  0  0  0  0  0  0
   35.3800   26.7280   38.1680 C   0  0  0  0  0  0  0  0  0  0  0  0
   34.3880   26.5220   37.2720 N   0  0  0  0  0  0  0  0  0  0  0  0
   33.2700   25.1280   36.2110 H   0  0  0  0  0  0  0  0  0  0  0  0
   34.4650   23.1430   37.1980 H   0  0  0  0  0  0  0  0  0  0  0  0
   36.2640   23.5910   38.8260 H   0  0  0  0  0  0  0  0  0  0  0  0
   38.7770   30.3900   41.6780 C   0  0  0  0  0  0  0  0  0  0  0  0
   39.9200   30.2450   42.1100 O   0  0  0  0  0  0  0  0  0  0  0  0
   38.3690   29.0670   42.0260 C   0  0  0  0  0  0  0  0  0  0  0  0
   37.3240   28.6320   42.8100 C   0  0  0  0  0  0  0  0  0  0  0  0
   36.8760   29.4510   43.4030 H   0  0  0  0  0  0  0  0  0  0  0  0
   36.7560   27.4180   43.0780 C   0  0  0  0  0  3  0  0  0  0  0  0
   37.3920   26.4190   42.4000 C   0  0  0  0  0  0  0  0  0  0  0  0
   36.9490   25.1560   42.5550 N   0  0  0  0  0  0  0  0  0  0  0  0
   37.4910   24.0880   41.9400 C   0  0  0  0  0  0  0  0  0  0  0  0
   37.0450   23.1250   42.1470 H   0  0  0  0  0  0  0  0  0  0  0  0
   38.5650   24.2920   41.0990 C   0  0  0  0  0  3  0  0  0  0  0  0
   39.0820   25.5550   40.8840 C   0  0  0  0  0  3  0  0  0  0  0  0
   38.4610   26.5830   41.5570 C   0  0  0  0  0  0  0  0  0  0  0  0
   38.8890   27.8880   41.4170 C   0  0  0  0  0  3  0  0  0  0  0  0
  1  7  1  6  0  0  0
  1  6  1  0  0  0  0
  2  1  1  0  0  0  0
  2  3  1  0  0  0  0
  3  4  1  0  0  0  0
  3 11  1  0  0  0  0
  4  5  1  0  0  0  0
  4 12  1  0  0  0  0
  5  6  1  0  0  0  0
  5 15  1  0  0  0  0
  6 16  1  1  0  0  0
  6 33  1  0  0  0  0
  8  2  1  0  0  0  0
  9  2  1  0  0  0  0
 10  3  1  0  0  0  0
 13  4  1  0  0  0  0
 14  5  1  0  0  0  0
 17 18  2  0  0  0  0
 18 22  1  0  0  0  0
 18 19  1  0  0  0  0
 19 23  1  0  0  0  0
 20  1  1  0  0  0  0
 20 19  2  0  0  0  0
 21 17  1  0  0  0  0
 21 20  1  0  0  0  0
 24 29  2  0  0  0  0
 24 25  1  0  0  0  0
 25 26  2  0  0  0  0
 26 27  1  0  0  0  0
 26 32  1  0  0  0  0
 28 17  1  0  0  0  0
 28 27  2  0  0  0  0
 29 28  1  0  0  0  0
 30 24  1  0  0  0  0
 31 25  1  0  0  0  0
 33 35  1  0  0  0  0
 33 34  2  0  0  0  0
 35 36  1  0  0  0  0
 36 38  2  0  0  0  0
 36 37  1  0  0  0  0
 39 40  1  0  0  0  0
 39 38  1  0  0  0  0
 41 42  1  0  0  0  0
 41 40  2  0  0  0  0
 43 41  1  0  0  0  0
 44 43  2  0  0  0  0
 44 45  1  0  0  0  0
 45 39  2  0  0  0  0
 46 45  1  0  0  0  0
 46 35  2  0  0  0  0
M  END
>  <minimizedAffinity>
-6.3728323

$$$$

 OpenBabel03252509203D

 46 50  0  0  1  0  0  0  0  0999 V2000
   40.5820   32.0640   38.4640 C   0  0  1  0  0  0  0  0  0  0  0  0
   41.5400   32.4760   37.3990 C   0  0  0  0  0  0  0  0  0  0  0  0
   42.1200   33.8480   37.5890 C   0  0  0  0  0  0  0  0  0  0  0  0
   42.5390   34.1140   39.0140 C   0  0  0  0  0  0  0  0  0  0  0  0
   41.5090   33.6690   40.0020 C   0  0  0  0  0  0  0  0  0  0  0  0
   40.1830   33.3160   39.2850 C   0  0  2  0  0  0  0  0  0  0  0  0
   41.0700   31.3960   39.1870 H   0  0  0  0  0  0  0  0  0  0  0  0
   41.1070   32.4400   36.3820 H   0  0  0  0  0  0  0  0  0  0  0  0
   42.4010   31.7560   37.3820 H   0  0  0  0  0  0  0  0  0  0  0  0
   42.9870   33.9570   36.9350 H   0  0  0  0  0  0  0  0  0  0  0  0
   41.3750   34.6270   37.3170 H   0  0  0  0  0  0  0  0  0  0  0  0
   42.7120   35.1970   39.1240 H   0  0  0  0  0  0  0  0  0  0  0  0
   43.5170   33.5970   39.1750 H   0  0  0  0  0  0  0  0  0  0  0  0
   41.8420   32.7060   40.4550 H   0  0  0  0  0  0  0  0  0  0  0  0
   41.3340   34.4360   40.7850 H   0  0  0  0  0  0  0  0  0  0  0  0
   39.8910   34.1330   38.5930 H   0  0  0  0  0  0  0  0  0  0  0  0
   37.6430   29.5050   37.1910 C   0  0  0  0  0  0  0  0  0  0  0  0
   37.3680   30.8380   36.8960 C   0  0  0  0  0  0  0  0  0  0  0  0
   38.2480   31.7600   37.2650 C   0  0  0  0  0  0  0  0  0  0  0  0
   39.4350   31.3910   37.9390 C   0  0  0  0  0  0  0  0  0  0  0  0
   39.2670   29.5850   38.0560 S   0  0  0  0  0  0  0  0  0  0  0  0
   36.4600   31.1120   36.3780 H   0  0  0  0  0  0  0  0  0  0  0  0
   38.2000   32.8280   37.1240 H   0  0  0  0  0  0  0  0  0  0  0  0
   36.0230   26.5470   35.6230 C   0  0  0  0  0  0  0  0  0  0  0  0
   34.9630   26.3280   36.5000 C   0  0  0  0  0  0  0  0  0  0  0  0
   34.8530   27.2010   37.5890 C   0  0  0  0  0  0  0  0  0  0  0  0
   35.7750   28.2000   37.7230 N   0  0  0  0  0  0  0  0  0  0  0  0
   36.7730   28.3600   36.8430 C   0  0  0  0  0  0  0  0  0  0  0  0
   36.8960   27.5270   35.7860 N   0  0  0  0  0  0  0  0  0  0  0  0
   36.1270   25.8820   34.7730 H   0  0  0  0  0  0  0  0  0  0  0  0
   34.2310   25.5370   36.3950 H   0  0  0  0  0  0  0  0  0  0  0  0
   34.0670   27.0940   38.3020 H   0  0  0  0  0  0  0  0  0  0  0  0
   39.1770   32.9840   40.2720 C   0  0  0  0  0  0  0  0  0  0  0  0
   38.6270   33.8520   40.9490 O   0  0  0  0  0  0  0  0  0  0  0  0
   38.4500   31.9120   40.8730 C   0  0  0  0  0  0  0  0  0  0  0  0
   37.1470   31.5070   40.6920 C   0  0  0  0  0  0  0  0  0  0  0  0
   36.5440   32.2600   40.1510 H   0  0  0  0  0  0  0  0  0  0  0  0
   36.4070   30.4250   41.0830 C   0  0  0  0  0  3  0  0  0  0  0  0
   37.1570   29.5610   41.8260 C   0  0  0  0  0  0  0  0  0  0  0  0
   36.5730   28.4380   42.2880 N   0  0  0  0  0  0  0  0  0  0  0  0
   37.2070   27.5100   43.0290 C   0  0  0  0  0  0  0  0  0  0  0  0
   36.6270   26.6520   43.3390 H   0  0  0  0  0  0  0  0  0  0  0  0
   38.5360   27.7150   43.3370 C   0  0  0  0  0  3  0  0  0  0  0  0
   39.2110   28.8380   42.9030 C   0  0  0  0  0  3  0  0  0  0  0  0
   38.4780   29.7300   42.1520 C   0  0  0  0  0  0  0  0  0  0  0  0
   39.0490   30.8880   41.6630 C   0  0  0  0  0  3  0  0  0  0  0  0
  1  7  1  1  0  0  0
  1  6  1  0  0  0  0
  2  3  1  0  0  0  0
  2  1  1  0  0  0  0
  3  4  1  0  0  0  0
  4 12  1  0  0  0  0
  4 13  1  0  0  0  0
  4  5  1  0  0  0  0
  5 14  1  0  0  0  0
  5 15  1  0  0  0  0
  6 16  1  6  0  0  0
  6  5  1  0  0  0  0
  6 33  1  0  0  0  0
  8  2  1  0  0  0  0
  9  2  1  0  0  0  0
 10  3  1  0  0  0  0
 11  3  1  0  0  0  0
 17 21  1  0  0  0  0
 18 17  2  0  0  0  0
 18 19  1  0  0  0  0
 19 20  2  0  0  0  0
 20 21  1  0  0  0  0
 20  1  1  0  0  0  0
 22 18  1  0  0  0  0
 23 19  1  0  0  0  0
 24 29  2  0  0  0  0
 24 25  1  0  0  0  0
 25 26  2  0  0  0  0
 26 27  1  0  0  0  0
 26 32  1  0  0  0  0
 28 17  1  0  0  0  0
 28 27  2  0  0  0  0
 29 28  1  0  0  0  0
 30 24  1  0  0  0  0
 31 25  1  0  0  0  0
 33 35  1  0  0  0  0
 33 34  2  0  0  0  0
 35 46  1  0  0  0  0
 36 35  2  0  0  0  0
 36 38  1  0  0  0  0
 37 36  1  0  0  0  0
 38 39  2  0  0  0  0
 39 45  1  0  0  0  0
 39 40  1  0  0  0  0
 40 41  2  0  0  0  0
 41 43  1  0  0  0  0
 41 42  1  0  0  0  0
 44 43  2  0  0  0  0
 45 44  1  0  0  0  0
 46 45  2  0  0  0  0
M  END
>  <minimizedAffinity>
-6.33872604

$$$$

 OpenBabel03252509203D

 46 50  0  0  1  0  0  0  0  0999 V2000
   35.9350   29.7910   37.5030 C   0  0  1  0  0  0  0  0  0  0  0  0
   35.6070   29.4030   36.1020 C   0  0  0  0  0  0  0  0  0  0  0  0
   34.7160   28.1990   35.9880 C   0  0  0  0  0  0  0  0  0  0  0  0
   33.5670   28.2270   36.9670 C   0  0  0  0  0  0  0  0  0  0  0  0
   34.0020   28.6240   38.3410 C   0  0  0  0  0  0  0  0  0  0  0  0
   35.5470   28.6250   38.4460 C   0  0  2  0  0  0  0  0  0  0  0  0
   35.3110   30.6360   37.8260 H   0  0  0  0  0  0  0  0  0  0  0  0
   36.5010   29.2090   35.4800 H   0  0  0  0  0  0  0  0  0  0  0  0
   35.0740   30.2540   35.6000 H   0  0  0  0  0  0  0  0  0  0  0  0
   34.3190   28.1500   34.9740 H   0  0  0  0  0  0  0  0  0  0  0  0
   35.2900   27.2680   36.1860 H   0  0  0  0  0  0  0  0  0  0  0  0
   33.1180   27.2210   36.9990 H   0  0  0  0  0  0  0  0  0  0  0  0
   32.7990   28.9280   36.5580 H   0  0  0  0  0  0  0  0  0  0  0  0
   33.7140   29.6880   38.5140 H   0  0  0  0  0  0  0  0  0  0  0  0
   33.5610   27.9630   39.1170 H   0  0  0  0  0  0  0  0  0  0  0  0
   35.9600   27.6750   38.0470 H   0  0  0  0  0  0  0  0  0  0  0  0
   39.5880   31.5380   38.1430 C   0  0  0  0  0  0  0  0  0  0  0  0
   39.6840   30.2110   37.7310 C   0  0  0  0  0  0  0  0  0  0  0  0
   38.5640   29.5390   37.4980 C   0  0  0  0  0  0  0  0  0  0  0  0
   37.3060   30.1630   37.6620 C   0  0  0  0  0  0  0  0  0  0  0  0
   37.7710   31.8360   38.2000 S   0  0  0  0  0  0  0  0  0  0  0  0
   40.6510   29.7420   37.6040 H   0  0  0  0  0  0  0  0  0  0  0  0
   38.4490   28.5170   37.1790 H   0  0  0  0  0  0  0  0  0  0  0  0
   42.2090   33.6480   39.7280 C   0  0  0  0  0  0  0  0  0  0  0  0
   42.9200   34.0750   38.6080 C   0  0  0  0  0  0  0  0  0  0  0  0
   42.4700   33.6200   37.3630 C   0  0  0  0  0  0  0  0  0  0  0  0
   41.3790   32.7990   37.3200 N   0  0  0  0  0  0  0  0  0  0  0  0
   40.7360   32.4240   38.4360 C   0  0  0  0  0  0  0  0  0  0  0  0
   41.1560   32.8520   39.6470 N   0  0  0  0  0  0  0  0  0  0  0  0
   42.5410   33.9880   40.7020 H   0  0  0  0  0  0  0  0  0  0  0  0
   43.7840   34.7250   38.6400 H   0  0  0  0  0  0  0  0  0  0  0  0
   42.9640   33.9060   36.4620 H   0  0  0  0  0  0  0  0  0  0  0  0
   35.9360   28.9160   39.8100 C   0  0  0  0  0  0  0  0  0  0  0  0
   35.4230   29.8390   40.4440 O   0  0  0  0  0  0  0  0  0  0  0  0
   36.7890   28.5180   40.8840 C   0  0  0  0  0  0  0  0  0  0  0  0
   36.5670   27.6380   41.9190 C   0  0  0  0  0  0  0  0  0  0  0  0
   35.4990   27.3710   42.0220 H   0  0  0  0  0  0  0  0  0  0  0  0
   37.3460   27.0720   42.8910 C   0  0  0  0  0  3  0  0  0  0  0  0
   38.6390   27.4950   42.7900 C   0  0  0  0  0  0  0  0  0  0  0  0
   39.5390   27.0250   43.6760 N   0  0  0  0  0  0  0  0  0  0  0  0
   40.8410   27.3650   43.6800 C   0  0  0  0  0  0  0  0  0  0  0  0
   41.4620   26.9190   44.4450 H   0  0  0  0  0  0  0  0  0  0  0  0
   41.2890   28.2480   42.7190 C   0  0  0  0  0  3  0  0  0  0  0  0
   40.4340   28.7780   41.7730 C   0  0  0  0  0  3  0  0  0  0  0  0
   39.1210   28.3700   41.8510 C   0  0  0  0  0  0  0  0  0  0  0  0
   38.1770   28.8320   40.9550 C   0  0  0  0  0  3  0  0  0  0  0  0
  1 20  1  0  0  0  0
  1  7  1  1  0  0  0
  1  6  1  0  0  0  0
  2  1  1  0  0  0  0
  3  2  1  0  0  0  0
  3 11  1  0  0  0  0
  3  4  1  0  0  0  0
  4 12  1  0  0  0  0
  4  5  1  0  0  0  0
  5  6  1  0  0  0  0
  5 14  1  0  0  0  0
  5 15  1  0  0  0  0
  6 16  1  6  0  0  0
  6 33  1  0  0  0  0
  8  2  1  0  0  0  0
  9  2  1  0  0  0  0
 10  3  1  0  0  0  0
 13  4  1  0  0  0  0
 17 21  1  0  0  0  0
 17 28  1  0  0  0  0
 18 17  2  0  0  0  0
 19 20  2  0  0  0  0
 19 18  1  0  0  0  0
 20 21  1  0  0  0  0
 22 18  1  0  0  0  0
 23 19  1  0  0  0  0
 24 30  1  0  0  0  0
 25 31  1  0  0  0  0
 25 24  2  0  0  0  0
 26 25  1  0  0  0  0
 27 26  2  0  0  0  0
 27 28  1  0  0  0  0
 28 29  2  0  0  0  0
 29 24  1  0  0  0  0
 32 26  1  0  0  0  0
 33 34  2  0  0  0  0
 33 35  1  0  0  0  0
 35 46  2  0  0  0  0
 35 36  1  0  0  0  0
 36 37  1  0  0  0  0
 36 38  2  0  0  0  0
 39 38  1  0  0  0  0
 39 40  1  0  0  0  0
 40 41  2  0  0  0  0
 41 42  1  0  0  0  0
 43 41  1  0  0  0  0
 44 45  1  0  0  0  0
 44 43  2  0  0  0  0
 45 39  2  0  0  0  0
 46 45  1  0  0  0  0
M  END
>  <minimizedAffinity>
-6.30320787

$$$$

 OpenBabel03252509203D

 46 50  0  0  1  0  0  0  0  0999 V2000
   40.6310   31.4920   42.0020 C   0  0  1  0  0  0  0  0  0  0  0  0
   42.0720   31.3470   42.3570 C   0  0  0  0  0  0  0  0  0  0  0  0
   43.0110   32.0530   41.4220 C   0  0  0  0  0  0  0  0  0  0  0  0
   42.5410   33.4410   41.0590 C   0  0  0  0  0  0  0  0  0  0  0  0
   41.0860   33.4770   40.7170 C   0  0  0  0  0  0  0  0  0  0  0  0
   40.5280   32.0410   40.5580 C   0  0  2  0  0  0  0  0  0  0  0  0
   40.1530   32.2550   42.6310 H   0  0  0  0  0  0  0  0  0  0  0  0
   42.4030   30.2930   42.4210 H   0  0  0  0  0  0  0  0  0  0  0  0
   42.2430   31.7760   43.3800 H   0  0  0  0  0  0  0  0  0  0  0  0
   43.9920   32.1200   41.8940 H   0  0  0  0  0  0  0  0  0  0  0  0
   43.1160   31.4860   40.4720 H   0  0  0  0  0  0  0  0  0  0  0  0
   43.1320   33.7890   40.1960 H   0  0  0  0  0  0  0  0  0  0  0  0
   42.7790   34.1080   41.9230 H   0  0  0  0  0  0  0  0  0  0  0  0
   40.5260   33.8960   41.5860 H   0  0  0  0  0  0  0  0  0  0  0  0
   40.8960   34.0710   39.7990 H   0  0  0  0  0  0  0  0  0  0  0  0
   41.1830   31.4460   39.8880 H   0  0  0  0  0  0  0  0  0  0  0  0
   39.0410   27.7130   41.9330 C   0  0  0  0  0  0  0  0  0  0  0  0
   38.3420   28.5830   42.7670 C   0  0  0  0  0  0  0  0  0  0  0  0
   38.7680   29.8340   42.8740 C   0  0  0  0  0  0  0  0  0  0  0  0
   39.9040   30.2700   42.1530 C   0  0  0  0  0  0  0  0  0  0  0  0
   40.3970   28.7640   41.2640 S   0  0  0  0  0  0  0  0  0  0  0  0
   37.4720   28.2430   43.3130 H   0  0  0  0  0  0  0  0  0  0  0  0
   38.3570   30.6350   43.4670 H   0  0  0  0  0  0  0  0  0  0  0  0
   38.9700   24.1280   40.9490 C   0  0  0  0  0  0  0  0  0  0  0  0
   37.7240   23.7420   41.4380 C   0  0  0  0  0  0  0  0  0  0  0  0
   36.9660   24.7260   42.0840 C   0  0  0  0  0  0  0  0  0  0  0  0
   37.4840   25.9850   42.1920 N   0  0  0  0  0  0  0  0  0  0  0  0
   38.6920   26.2950   41.6990 C   0  0  0  0  0  0  0  0  0  0  0  0
   39.4380   25.3580   41.0730 N   0  0  0  0  0  0  0  0  0  0  0  0
   39.5730   23.3810   40.4460 H   0  0  0  0  0  0  0  0  0  0  0  0
   37.3110   22.7450   41.3520 H   0  0  0  0  0  0  0  0  0  0  0  0
   36.0020   24.5040   42.4840 H   0  0  0  0  0  0  0  0  0  0  0  0
   39.1460   32.1090   40.1310 C   0  0  0  0  0  0  0  0  0  0  0  0
   38.3730   32.9570   40.5780 O   0  0  0  0  0  0  0  0  0  0  0  0
   38.1640   31.5160   39.2810 C   0  0  0  0  0  0  0  0  0  0  0  0
   38.1730   31.3040   37.9210 C   0  0  0  0  0  0  0  0  0  0  0  0
   38.9810   31.8640   37.4140 H   0  0  0  0  0  0  0  0  0  0  0  0
   37.3780   30.6200   37.0430 C   0  0  0  0  0  3  0  0  0  0  0  0
   36.3390   30.0170   37.6900 C   0  0  0  0  0  0  0  0  0  0  0  0
   35.4610   29.2980   36.9640 N   0  0  0  0  0  0  0  0  0  0  0  0
   34.3990   28.6570   37.4860 C   0  0  0  0  0  0  0  0  0  0  0  0
   33.7680   28.1130   36.7970 H   0  0  0  0  0  0  0  0  0  0  0  0
   34.1910   28.7370   38.8470 C   0  0  0  0  0  3  0  0  0  0  0  0
   35.0430   29.4520   39.6660 C   0  0  0  0  0  3  0  0  0  0  0  0
   36.1000   30.0740   39.0390 C   0  0  0  0  0  0  0  0  0  0  0  0
   37.0180   30.8150   39.7560 C   0  0  0  0  0  3  0  0  0  0  0  0
  1 20  1  0  0  0  0
  1  2  1  0  0  0  0
  1  7  1  1  0  0  0
  2  8  1  0  0  0  0
  2  9  1  0  0  0  0
  3 10  1  0  0  0  0
  3  2  1  0  0  0  0
  4  3  1  0  0  0  0
  4 13  1  0  0  0  0
  5  4  1  0  0  0  0
  5 14  1  0  0  0  0
  6 16  1  6  0  0  0
  6  5  1  0  0  0  0
  6  1  1  0  0  0  0
 11  3  1  0  0  0  0
 12  4  1  0  0  0  0
 15  5  1  0  0  0  0
 17 18  2  0  0  0  0
 18 19  1  0  0  0  0
 18 22  1  0  0  0  0
 19 23  1  0  0  0  0
 20 19  2  0  0  0  0
 21 17  1  0  0  0  0
 21 20  1  0  0  0  0
 24 29  2  0  0  0  0
 24 25  1  0  0  0  0
 25 26  2  0  0  0  0
 26 27  1  0  0  0  0
 26 32  1  0  0  0  0
 28 17  1  0  0  0  0
 28 27  2  0  0  0  0
 29 28  1  0  0  0  0
 30 24  1  0  0  0  0
 31 25  1  0  0  0  0
 33  6  1  0  0  0  0
 33 34  2  0  0  0  0
 35 46  1  0  0  0  0
 35 33  1  0  0  0  0
 36 35  2  0  0  0  0
 37 36  1  0  0  0  0
 38 39  2  0  0  0  0
 38 36  1  0  0  0  0
 39 45  1  0  0  0  0
 40 41  2  0  0  0  0
 40 39  1  0  0  0  0
 41 43  1  0  0  0  0
 42 41  1  0  0  0  0
 43 44  2  0  0  0  0
 45 44  1  0  0  0  0
 45 46  2  0  0  0  0
M  END
>  <minimizedAffinity>
-6.29875612

$$$$

 OpenBabel03252509203D

 46 50  0  0  1  0  0  0  0  0999 V2000
   37.1770   30.4650   38.5660 C   0  0  1  0  0  0  0  0  0  0  0  0
   37.4280   31.8290   38.0200 C   0  0  0  0  0  0  0  0  0  0  0  0
   37.1610   32.9420   38.9930 C   0  0  0  0  0  0  0  0  0  0  0  0
   37.7040   32.6550   40.3720 C   0  0  0  0  0  0  0  0  0  0  0  0
   37.3950   31.2650   40.8260 C   0  0  0  0  0  0  0  0  0  0  0  0
   36.3680   30.5970   39.8800 C   0  0  2  0  0  0  0  0  0  0  0  0
   38.1200   29.9870   38.8610 H   0  0  0  0  0  0  0  0  0  0  0  0
   36.8480   32.0490   37.1040 H   0  0  0  0  0  0  0  0  0  0  0  0
   38.5060   31.9110   37.7170 H   0  0  0  0  0  0  0  0  0  0  0  0
   37.6150   33.8570   38.6140 H   0  0  0  0  0  0  0  0  0  0  0  0
   36.0670   33.1100   39.1020 H   0  0  0  0  0  0  0  0  0  0  0  0
   37.2590   33.3800   41.0730 H   0  0  0  0  0  0  0  0  0  0  0  0
   38.8040   32.8450   40.3410 H   0  0  0  0  0  0  0  0  0  0  0  0
   38.3140   30.6420   40.7190 H   0  0  0  0  0  0  0  0  0  0  0  0
   37.0260   31.2490   41.8730 H   0  0  0  0  0  0  0  0  0  0  0  0
   35.5020   31.2710   39.7150 H   0  0  0  0  0  0  0  0  0  0  0  0
   35.9860   27.7540   35.7300 C   0  0  0  0  0  0  0  0  0  0  0  0
   34.9310   28.5070   36.2390 C   0  0  0  0  0  0  0  0  0  0  0  0
   35.1950   29.4160   37.1690 C   0  0  0  0  0  0  0  0  0  0  0  0
   36.5190   29.6120   37.6260 C   0  0  0  0  0  0  0  0  0  0  0  0
   37.4480   28.3920   36.6500 S   0  0  0  0  0  0  0  0  0  0  0  0
   33.9210   28.3540   35.8820 H   0  0  0  0  0  0  0  0  0  0  0  0
   34.5110   30.0800   37.6720 H   0  0  0  0  0  0  0  0  0  0  0  0
   36.1150   24.6330   33.7120 C   0  0  0  0  0  0  0  0  0  0  0  0
   35.4550   25.0380   32.5530 C   0  0  0  0  0  0  0  0  0  0  0  0
   34.9950   26.3600   32.5170 C   0  0  0  0  0  0  0  0  0  0  0  0
   35.2180   27.1600   33.6010 N   0  0  0  0  0  0  0  0  0  0  0  0
   35.8620   26.7110   34.6880 C   0  0  0  0  0  0  0  0  0  0  0  0
   36.3130   25.4380   34.7420 N   0  0  0  0  0  0  0  0  0  0  0  0
   36.4790   23.6130   33.7610 H   0  0  0  0  0  0  0  0  0  0  0  0
   35.2780   24.4050   31.6930 H   0  0  0  0  0  0  0  0  0  0  0  0
   34.4820   26.7400   31.6630 H   0  0  0  0  0  0  0  0  0  0  0  0
   36.0150   29.2920   40.3990 C   0  0  0  0  0  0  0  0  0  0  0  0
   34.8510   29.0010   40.6740 O   0  0  0  0  0  0  0  0  0  0  0  0
   36.5300   28.0150   40.7760 C   0  0  0  0  0  0  0  0  0  0  0  0
   36.8660   27.5200   42.0160 C   0  0  0  0  0  0  0  0  0  0  0  0
   36.9240   28.3140   42.7840 H   0  0  0  0  0  0  0  0  0  0  0  0
   37.2100   26.2900   42.5060 C   0  0  0  0  0  3  0  0  0  0  0  0
   37.2170   25.3530   41.5140 C   0  0  0  0  0  0  0  0  0  0  0  0
   37.5350   24.0830   41.8340 N   0  0  0  0  0  0  0  0  0  0  0  0
   37.5750   23.0710   40.9480 C   0  0  0  0  0  0  0  0  0  0  0  0
   37.8450   22.0950   41.3300 H   0  0  0  0  0  0  0  0  0  0  0  0
   37.2730   23.3430   39.6300 C   0  0  0  0  0  3  0  0  0  0  0  0
   36.9360   24.6160   39.2160 C   0  0  0  0  0  3  0  0  0  0  0  0
   36.9230   25.5850   40.1960 C   0  0  0  0  0  0  0  0  0  0  0  0
   36.5980   26.8930   39.8990 C   0  0  0  0  0  3  0  0  0  0  0  0
  1  7  1  1  0  0  0
  1  6  1  0  0  0  0
  2  1  1  0  0  0  0
  2  3  1  0  0  0  0
  3 11  1  0  0  0  0
  3  4  1  0  0  0  0
  4  5  1  0  0  0  0
  4 12  1  0  0  0  0
  5 15  1  0  0  0  0
  6 16  1  6  0  0  0
  6 33  1  0  0  0  0
  6  5  1  0  0  0  0
  8  2  1  0  0  0  0
  9  2  1  0  0  0  0
 10  3  1  0  0  0  0
 13  4  1  0  0  0  0
 14  5  1  0  0  0  0
 17 18  2  0  0  0  0
 17 21  1  0  0  0  0
 18 19  1  0  0  0  0
 19 20  2  0  0  0  0
 19 23  1  0  0  0  0
 20  1  1  0  0  0  0
 21 20  1  0  0  0  0
 22 18  1  0  0  0  0
 24 30  1  0  0  0  0
 24 29  1  0  0  0  0
 25 24  2  0  0  0  0
 26 25  1  0  0  0  0
 26 27  2  0  0  0  0
 27 28  1  0  0  0  0
 28 29  2  0  0  0  0
 28 17  1  0  0  0  0
 31 25  1  0  0  0  0
 32 26  1  0  0  0  0
 33 34  2  0  0  0  0
 33 35  1  0  0  0  0
 35 36  1  0  0  0  0
 36 38  2  0  0  0  0
 36 37  1  0  0  0  0
 39 40  1  0  0  0  0
 39 38  1  0  0  0  0
 41 42  1  0  0  0  0
 41 40  2  0  0  0  0
 43 41  1  0  0  0  0
 44 43  2  0  0  0  0
 44 45  1  0  0  0  0
 45 39  2  0  0  0  0
 46 45  1  0  0  0  0
 46 35  2  0  0  0  0
M  END
>  <minimizedAffinity>
-6.25482273

$$$$
