
 OpenBabel03252508503D

 31 34  0  0  0  0  0  0  0  0999 V2000
   45.7680   34.2070   40.9860 C   0  0  0  0  0  0  0  0  0  0  0  0
   46.4160   34.6050   42.1500 C   0  0  0  0  0  0  0  0  0  0  0  0
   47.8080   34.7690   42.0530 C   0  0  0  0  0  0  0  0  0  0  0  0
   48.4220   34.5360   40.8600 N   0  0  0  0  0  0  0  0  0  0  0  0
   47.7480   34.1570   39.7790 C   0  0  0  0  0  0  0  0  0  0  0  0
   46.4170   33.9890   39.8300 N   0  0  0  0  0  0  0  0  0  0  0  0
   48.3480   35.0780   42.9400 H   0  0  0  0  0  0  0  0  0  0  0  0
   48.1990   33.9640   38.8170 H   0  0  0  0  0  0  0  0  0  0  0  0
   45.6650   34.8240   43.3640 C   0  0  0  0  0  0  0  0  0  0  0  0
   45.1640   36.0700   43.7280 C   0  0  0  0  0  0  0  0  0  0  0  0
   44.5310   35.8200   44.9270 C   0  0  0  0  0  0  0  0  0  0  0  0
   44.6380   34.5080   45.2720 N   0  0  0  0  0  0  0  0  0  0  0  0
   45.3280   33.9370   44.3080 N   0  0  0  0  0  0  0  0  0  0  0  0
   45.2130   37.0480   43.2480 H   0  0  0  0  0  0  0  0  0  0  0  0
   44.0010   36.5400   45.5540 H   0  0  0  0  0  0  0  0  0  0  0  0
   44.2430   34.0570   46.1400 H   0  0  0  0  0  0  0  0  0  0  0  0
   44.3960   34.0310   41.0310 O   0  0  0  0  0  0  0  0  0  0  0  0
   43.4330   34.9450   40.7180 C   0  0  0  0  0  0  0  0  0  0  0  0
   43.3600   36.1610   41.1140 O   0  0  0  0  0  0  0  0  0  0  0  0
   42.2660   34.6610   39.8360 C   0  0  0  0  0  0  0  0  0  0  0  0
   41.9360   35.4640   38.7710 C   0  0  0  0  0  0  0  0  0  0  0  0
   42.5130   36.3430   38.5230 H   0  0  0  0  0  0  0  0  0  0  0  0
   40.8340   35.1870   37.9530 C   0  0  0  0  0  3  0  0  0  0  0  0
   40.0510   34.0840   38.2080 C   0  0  0  0  0  0  0  0  0  0  0  0
   38.9860   33.7880   37.4430 N   0  0  0  0  0  0  0  0  0  0  0  0
   38.2330   32.6960   37.7170 C   0  0  0  0  0  0  0  0  0  0  0  0
   37.3910   32.5310   37.0490 H   0  0  0  0  0  0  0  0  0  0  0  0
   38.4810   31.8160   38.7730 C   0  0  0  0  0  3  0  0  0  0  0  0
   39.5760   32.1320   39.5500 C   0  0  0  0  0  3  0  0  0  0  0  0
   40.3360   33.2460   39.2620 C   0  0  0  0  0  0  0  0  0  0  0  0
   41.4350   33.5920   40.0140 C   0  0  0  0  0  3  0  0  0  0  0  0
  1 17  1  0  0  0  0
  1  2  1  0  0  0  0
  2  9  1  0  0  0  0
  3  2  2  0  0  0  0
  3  7  1  0  0  0  0
  4  3  1  0  0  0  0
  5  6  1  0  0  0  0
  5  4  2  0  0  0  0
  6  1  2  0  0  0  0
  8  5  1  0  0  0  0
  9 10  1  0  0  0  0
  9 13  2  0  0  0  0
 10 11  2  0  0  0  0
 11 12  1  0  0  0  0
 11 15  1  0  0  0  0
 12 16  1  0  0  0  0
 13 12  1  0  0  0  0
 14 10  1  0  0  0  0
 18 17  1  0  0  0  0
 18 19  2  0  0  0  0
 20 31  1  0  0  0  0
 20 18  1  0  0  0  0
 21 20  2  0  0  0  0
 22 21  1  0  0  0  0
 23 24  2  0  0  0  0
 23 21  1  0  0  0  0
 24 30  1  0  0  0  0
 25 26  2  0  0  0  0
 25 24  1  0  0  0  0
 26 28  1  0  0  0  0
 27 26  1  0  0  0  0
 28 29  2  0  0  0  0
 30 29  1  0  0  0  0
 30 31  2  0  0  0  0
M  END
>  <minimizedAffinity>
-6.33204746

>  <minimizedRMSD>
1.78186667

$$$$
