
 OpenBabel03242516163D

 46 50  0  0  1  0  0  0  0  0999 V2000
   45.5820   34.9240   41.4240 C   0  0  0  0  0  0  0  0  0  0  0  0
   46.3150   33.8510   41.9360 C   0  0  0  0  0  0  0  0  0  0  0  0
   46.0320   33.4580   43.2420 C   0  0  0  0  0  0  0  0  0  0  0  0
   45.0710   34.1200   43.9570 N   0  0  0  0  0  0  0  0  0  0  0  0
   44.4070   35.1400   43.4060 C   0  0  0  0  0  0  0  0  0  0  0  0
   44.6440   35.5450   42.1720 N   0  0  0  0  0  0  0  0  0  0  0  0
   43.3960   35.8610   44.1030 N   0  0  0  0  0  0  0  0  0  0  0  0
   45.8100   35.2160   40.4130 H   0  0  0  0  0  0  0  0  0  0  0  0
   43.8960   36.6060   44.6330 H   0  0  0  0  0  0  0  0  0  0  0  0
   42.3840   35.5900   44.0110 H   0  0  0  0  0  0  0  0  0  0  0  0
   47.3540   33.1820   41.1120 C   0  0  0  0  0  0  0  0  0  0  0  0
   47.9530   34.0050   39.9850 C   0  0  0  0  0  0  0  0  0  0  0  0
   48.7190   33.6140   41.1690 C   0  0  0  0  0  0  0  0  0  0  0  0
   48.2030   33.5280   39.0160 H   0  0  0  0  0  0  0  0  0  0  0  0
   47.4870   35.0010   39.8350 H   0  0  0  0  0  0  0  0  0  0  0  0
   49.1810   34.5260   41.5660 H   0  0  0  0  0  0  0  0  0  0  0  0
   49.5110   32.8230   41.0030 H   0  0  0  0  0  0  0  0  0  0  0  0
   47.0620   31.7710   40.6950 C   0  0  0  0  0  0  0  0  0  0  0  0
   47.8750   31.2610   39.5200 C   0  0  0  0  0  0  0  0  0  0  0  0
   47.4950   29.7950   39.3600 C   0  0  0  0  0  0  0  0  0  0  0  0
   46.2270   29.7740   38.7720 O   0  0  0  0  0  0  0  0  0  0  0  0
   45.3810   30.1660   39.8370 C   0  0  0  0  0  0  0  0  0  0  0  0
   45.6190   31.6250   40.1790 C   0  0  0  0  0  0  0  0  0  0  0  0
   47.1550   31.1200   41.5790 H   0  0  0  0  0  0  0  0  0  0  0  0
   48.9740   31.2550   39.7520 H   0  0  0  0  0  0  0  0  0  0  0  0
   47.6370   31.8520   38.6290 H   0  0  0  0  0  0  0  0  0  0  0  0
   48.2450   29.2180   38.7930 H   0  0  0  0  0  0  0  0  0  0  0  0
   47.4180   29.3720   40.3810 H   0  0  0  0  0  0  0  0  0  0  0  0
   44.3350   30.1050   39.4340 H   0  0  0  0  0  0  0  0  0  0  0  0
   45.4400   29.5020   40.6970 H   0  0  0  0  0  0  0  0  0  0  0  0
   44.9670   31.8730   41.0300 H   0  0  0  0  0  0  0  0  0  0  0  0
   45.4660   32.2180   39.2670 H   0  0  0  0  0  0  0  0  0  0  0  0
   46.7460   32.4130   43.9150 C   0  0  2  0  0  3  0  0  0  0  0  0
   47.9440   32.4740   44.4130 O   0  0  0  0  0  1  0  0  0  0  0  0
   46.6730   31.0360   44.3510 C   0  0  0  0  0  0  0  0  0  0  0  0
   45.8340   30.0500   43.9150 C   0  0  0  0  0  0  0  0  0  0  0  0
   45.1790   30.3120   43.0740 H   0  0  0  0  0  0  0  0  0  0  0  0
   45.8370   28.7800   44.5270 C   0  0  0  0  0  3  0  0  0  0  0  0
   46.6680   28.5060   45.5620 C   0  0  0  0  0  0  0  0  0  0  0  0
   46.6360   27.2840   46.1150 N   0  0  0  0  0  0  0  0  0  0  0  0
   47.4480   26.9530   47.1590 C   0  0  0  0  0  0  0  0  0  0  0  0
   47.4510   25.9710   47.6330 H   0  0  0  0  0  0  0  0  0  0  0  0
   48.3310   27.9170   47.6570 C   0  0  0  0  0  3  0  0  0  0  0  0
   48.3950   29.2000   47.1090 C   0  0  0  0  0  3  0  0  0  0  0  0
   47.5360   29.4300   46.0630 C   0  0  0  0  0  0  0  0  0  0  0  0
   47.4770   30.6400   45.4180 C   0  0  0  0  0  3  0  0  0  0  0  0
  1  2  2  0  0  0  0
  1  6  1  0  0  0  0
  2  3  1  0  0  0  0
  3 33  1  0  0  0  0
  3  4  2  0  0  0  0
  5  4  1  0  0  0  0
  5  7  1  0  0  0  0
  6  5  2  0  0  0  0
  7  9  1  0  0  0  0
  8  1  1  0  0  0  0
 10  7  1  0  0  0  0
 11 13  1  0  0  0  0
 11  2  1  0  0  0  0
 12 11  1  0  0  0  0
 12 13  1  0  0  0  0
 13 16  1  0  0  0  0
 14 12  1  0  0  0  0
 15 12  1  0  0  0  0
 17 13  1  0  0  0  0
 18 11  1  0  0  0  0
 18 24  1  0  0  0  0
 19 25  1  0  0  0  0
 19 18  1  0  0  0  0
 20 19  1  0  0  0  0
 20 28  1  0  0  0  0
 21 20  1  0  0  0  0
 21 22  1  0  0  0  0
 22 23  1  0  0  0  0
 22 30  1  0  0  0  0
 23 18  1  0  0  0  0
 23 31  1  0  0  0  0
 26 19  1  0  0  0  0
 27 20  1  0  0  0  0
 29 22  1  0  0  0  0
 32 23  1  0  0  0  0
 33 35  1  0  0  0  0
 33 34  1  6  0  0  0
 35 46  1  0  0  0  0
 36 35  2  0  0  0  0
 36 38  1  0  0  0  0
 37 36  1  0  0  0  0
 38 39  2  0  0  0  0
 39 45  1  0  0  0  0
 39 40  1  0  0  0  0
 40 41  2  0  0  0  0
 41 42  1  0  0  0  0
 41 43  1  0  0  0  0
 44 43  2  0  0  0  0
 45 44  1  0  0  0  0
 46 45  2  0  0  0  0
M  END
>  <minimizedAffinity>
-4.13241434

>  <minimizedRMSD>
3.92963719

$$$$
