
 OpenBabel03252508513D

 31 34  0  0  0  0  0  0  0  0999 V2000
   46.0620   34.1700   41.0170 C   0  0  0  0  0  0  0  0  0  0  0  0
   46.5990   34.8390   42.1120 C   0  0  0  0  0  0  0  0  0  0  0  0
   47.9270   35.2740   41.9760 C   0  0  0  0  0  0  0  0  0  0  0  0
   48.5920   35.0240   40.8140 N   0  0  0  0  0  0  0  0  0  0  0  0
   48.0250   34.3800   39.7990 C   0  0  0  0  0  0  0  0  0  0  0  0
   46.7570   33.9460   39.8890 N   0  0  0  0  0  0  0  0  0  0  0  0
   48.3790   35.7980   42.8090 H   0  0  0  0  0  0  0  0  0  0  0  0
   48.5180   34.1630   38.8630 H   0  0  0  0  0  0  0  0  0  0  0  0
   45.8030   35.0500   43.2990 C   0  0  0  0  0  0  0  0  0  0  0  0
   45.0430   36.1970   43.5050 C   0  0  0  0  0  0  0  0  0  0  0  0
   44.4630   35.9760   44.7360 C   0  0  0  0  0  0  0  0  0  0  0  0
   44.8430   34.7750   45.2470 N   0  0  0  0  0  0  0  0  0  0  0  0
   45.6500   34.2420   44.3560 N   0  0  0  0  0  0  0  0  0  0  0  0
   44.8880   37.0910   42.9000 H   0  0  0  0  0  0  0  0  0  0  0  0
   43.7840   36.6430   45.2720 H   0  0  0  0  0  0  0  0  0  0  0  0
   44.5420   34.3670   46.1730 H   0  0  0  0  0  0  0  0  0  0  0  0
   44.7560   33.7210   41.1030 O   0  0  0  0  0  0  0  0  0  0  0  0
   43.6590   34.2380   40.4780 C   0  0  0  0  0  0  0  0  0  0  0  0
   43.3030   35.4670   40.4250 O   0  0  0  0  0  0  0  0  0  0  0  0
   42.6590   33.4220   39.7330 C   0  0  0  0  0  0  0  0  0  0  0  0
   41.3090   33.5140   39.9720 C   0  0  0  0  0  0  0  0  0  0  0  0
   40.9090   34.1900   40.7130 H   0  0  0  0  0  0  0  0  0  0  0  0
   40.3820   32.7380   39.2660 C   0  0  0  0  0  3  0  0  0  0  0  0
   40.8160   31.8540   38.3050 C   0  0  0  0  0  0  0  0  0  0  0  0
   39.9530   31.0940   37.6090 N   0  0  0  0  0  0  0  0  0  0  0  0
   40.4100   30.2320   36.6690 C   0  0  0  0  0  0  0  0  0  0  0  0
   39.6450   29.6570   36.1530 H   0  0  0  0  0  0  0  0  0  0  0  0
   41.7590   30.0620   36.3500 C   0  0  0  0  0  3  0  0  0  0  0  0
   42.6330   30.8470   37.0710 C   0  0  0  0  0  3  0  0  0  0  0  0
   42.1580   31.7220   38.0270 C   0  0  0  0  0  0  0  0  0  0  0  0
   42.9990   32.5210   38.7650 C   0  0  0  0  0  3  0  0  0  0  0  0
  1 17  1  0  0  0  0
  1  2  1  0  0  0  0
  2  9  1  0  0  0  0
  3  2  2  0  0  0  0
  3  7  1  0  0  0  0
  4  3  1  0  0  0  0
  5  6  1  0  0  0  0
  5  4  2  0  0  0  0
  6  1  2  0  0  0  0
  8  5  1  0  0  0  0
  9 10  1  0  0  0  0
  9 13  2  0  0  0  0
 10 11  2  0  0  0  0
 11 12  1  0  0  0  0
 11 15  1  0  0  0  0
 12 16  1  0  0  0  0
 13 12  1  0  0  0  0
 14 10  1  0  0  0  0
 18 17  1  0  0  0  0
 19 18  2  0  0  0  0
 20 21  1  0  0  0  0
 20 18  1  0  0  0  0
 21 22  1  0  0  0  0
 23 21  2  0  0  0  0
 24 23  1  0  0  0  0
 25 24  2  0  0  0  0
 26 25  1  0  0  0  0
 27 26  1  0  0  0  0
 28 26  2  0  0  0  0
 28 29  1  0  0  0  0
 29 30  2  0  0  0  0
 30 24  1  0  0  0  0
 30 31  1  0  0  0  0
 31 20  2  0  0  0  0
M  END
>  <minimizedAffinity>
-5.61883593

>  <minimizedRMSD>
0.551970243

$$$$
