
 OpenBabel03252507163D

 32 35  0  0  0  0  0  0  0  0999 V2000
   45.1650   36.1620   43.5990 C   0  0  0  0  0  0  0  0  0  0  0  0
   45.8020   34.9760   43.1870 C   0  0  0  0  0  0  0  0  0  0  0  0
   45.8000   33.9220   44.0990 C   0  0  0  0  0  0  0  0  0  0  0  0
   45.2110   34.0740   45.2910 N   0  0  0  0  0  0  0  0  0  0  0  0
   44.6000   35.2340   45.6670 C   0  0  0  0  0  0  0  0  0  0  0  0
   44.5950   36.2460   44.8060 N   0  0  0  0  0  0  0  0  0  0  0  0
   45.1270   37.0280   42.9390 H   0  0  0  0  0  0  0  0  0  0  0  0
   44.1850   35.1610   46.6650 H   0  0  0  0  0  0  0  0  0  0  0  0
   46.4540   32.6680   43.7050 C   0  0  0  0  0  0  0  0  0  0  0  0
   45.6870   31.6040   43.2930 C   0  0  0  0  0  0  0  0  0  0  0  0
   46.3550   30.4490   42.9350 C   0  0  0  0  0  0  0  0  0  0  0  0
   47.7300   30.2900   42.9600 C   0  0  0  0  0  0  0  0  0  0  0  0
   48.4300   31.4150   43.3880 C   0  0  0  0  0  0  0  0  0  0  0  0
   47.7820   32.5400   43.7380 N   0  0  0  0  0  0  0  0  0  0  0  0
   44.6050   31.6430   43.2440 H   0  0  0  0  0  0  0  0  0  0  0  0
   45.7850   29.5790   42.6020 H   0  0  0  0  0  0  0  0  0  0  0  0
   48.2220   29.3880   42.6780 H   0  0  0  0  0  0  0  0  0  0  0  0
   49.5100   31.3790   43.4380 H   0  0  0  0  0  0  0  0  0  0  0  0
   46.4110   34.8700   41.9060 C   0  0  0  0  0  0  0  0  0  0  0  0
   47.5740   35.3680   41.7780 O   0  0  0  0  0  0  0  0  0  0  0  0
   45.7630   34.2260   40.7680 C   0  0  0  0  0  0  0  0  0  0  0  0
   44.3920   34.1840   40.5680 C   0  0  0  0  0  0  0  0  0  0  0  0
   43.7930   34.6710   41.3230 H   0  0  0  0  0  0  0  0  0  0  0  0
   43.9070   33.5320   39.4330 C   0  0  0  0  0  3  0  0  0  0  0  0
   44.7730   32.9430   38.5340 C   0  0  0  0  0  0  0  0  0  0  0  0
   44.2540   32.3290   37.4600 N   0  0  0  0  0  0  0  0  0  0  0  0
   45.0500   31.7260   36.5310 C   0  0  0  0  0  0  0  0  0  0  0  0
   44.5430   31.2570   35.7000 H   0  0  0  0  0  0  0  0  0  0  0  0
   46.4380   31.7440   36.6920 C   0  0  0  0  0  3  0  0  0  0  0  0
   46.9720   32.3870   37.8160 C   0  0  0  0  0  3  0  0  0  0  0  0
   46.1340   32.9810   38.7260 C   0  0  0  0  0  0  0  0  0  0  0  0
   46.6240   33.6240   39.8460 C   0  0  0  0  0  3  0  0  0  0  0  0
  1  6  1  0  0  0  0
  2  1  2  0  0  0  0
  2  3  1  0  0  0  0
  3  4  2  0  0  0  0
  4  5  1  0  0  0  0
  5  8  1  0  0  0  0
  6  5  2  0  0  0  0
  7  1  1  0  0  0  0
  9 14  1  0  0  0  0
  9  3  1  0  0  0  0
 10  9  2  0  0  0  0
 11 12  2  0  0  0  0
 11 10  1  0  0  0  0
 12 13  1  0  0  0  0
 13 18  1  0  0  0  0
 13 14  2  0  0  0  0
 15 10  1  0  0  0  0
 16 11  1  0  0  0  0
 17 12  1  0  0  0  0
 19  2  1  0  0  0  0
 20 19  2  0  0  0  0
 21 19  1  0  0  0  0
 22 21  1  0  0  0  0
 22 23  1  0  0  0  0
 24 22  2  0  0  0  0
 25 31  1  0  0  0  0
 25 24  1  0  0  0  0
 26 25  2  0  0  0  0
 27 29  2  0  0  0  0
 27 26  1  0  0  0  0
 28 27  1  0  0  0  0
 29 30  1  0  0  0  0
 30 31  2  0  0  0  0
 31 32  1  0  0  0  0
 32 21  2  0  0  0  0
M  END
>  <minimizedAffinity>
-5.08508492

>  <minimizedRMSD>
1.27473414

$$$$
