
     RDKit          3D

 48 51  0  0  0  0  0  0  0  0999 V2000
   46.7117   34.3742   43.6432 C   0  0  2  0  0  0  0  0  0  0  0  0
   46.4142   33.1624   44.4727 C   0  0  0  0  0  0  0  0  0  0  0  0
   45.7322   33.8253   45.6524 C   0  0  0  0  0  0  0  0  0  0  0  0
   44.9300   34.8911   45.0648 C   0  0  0  0  0  0  0  0  0  0  0  0
   45.3407   34.9883   43.5129 C   0  0  2  0  0  0  0  0  0  0  0  0
   48.3087   34.6372   40.2586 C   0  0  0  0  0  0  0  0  0  0  0  0
   47.7535   35.0707   41.4807 C   0  0  0  0  0  0  0  0  0  0  0  0
   47.2999   34.1051   42.3144 C   0  0  0  0  0  0  0  0  0  0  0  0
   47.4068   32.7673   41.9228 N   0  0  0  0  0  0  0  0  0  0  0  0
   47.9375   32.3886   40.7594 C   0  0  0  0  0  0  0  0  0  0  0  0
   48.3891   33.3258   39.9263 N   0  0  0  0  0  0  0  0  0  0  0  0
   44.4419   34.1991   42.8203 O   0  0  0  0  0  0  0  0  0  0  0  0
   43.5568   34.6205   41.8644 C   0  0  0  0  0  0  0  0  0  0  0  0
   44.2543   35.1188   40.8953 O   0  0  0  0  0  0  0  0  0  0  0  0
   42.1651   34.7762   41.4126 C   0  0  0  0  0  0  0  0  0  0  0  0
   41.5089   35.8948   41.0515 C   0  0  0  0  0  0  0  0  0  0  0  0
   40.1195   36.1266   40.5928 C   0  0  0  0  0  0  0  0  0  0  0  0
   47.3179   35.1151   44.2176 H   0  0  0  0  0  0  0  0  0  0  0  0
   45.7757   32.4486   43.9557 H   0  0  0  0  0  0  0  0  0  0  0  0
   47.3904   32.7415   44.7915 H   0  0  0  0  0  0  0  0  0  0  0  0
   45.1643   33.0296   46.1829 H   0  0  0  0  0  0  0  0  0  0  0  0
   46.5396   34.1816   46.3322 H   0  0  0  0  0  0  0  0  0  0  0  0
   43.8351   34.6409   45.0732 H   0  0  0  0  0  0  0  0  0  0  0  0
   45.1027   35.8931   45.4956 H   0  0  0  0  0  0  0  0  0  0  0  0
   45.3352   36.0569   43.2599 H   0  0  0  0  0  0  0  0  0  0  0  0
   48.6709   35.4137   39.5935 H   0  0  0  0  0  0  0  0  0  0  0  0
   47.6872   36.1103   41.7500 H   0  0  0  0  0  0  0  0  0  0  0  0
   47.9730   31.3322   40.5534 H   0  0  0  0  0  0  0  0  0  0  0  0
   41.4832   33.9265   41.3224 H   0  0  0  0  0  0  0  0  0  0  0  0
   42.0556   36.8537   41.0842 H   0  0  0  0  0  0  0  0  0  0  0  0
   40.1881   36.5892   39.5809 H   0  0  0  0  0  0  0  0  0  0  0  0
   39.6347   36.8003   41.3310 H   0  0  0  0  0  0  0  0  0  0  0  0
   39.3418   34.8453   40.5380 C   0  0  0  0  0  0  0  0  0  0  0  0
   39.1038   34.3040   39.2722 C   0  0  0  0  0  0  0  0  0  0  0  0
   39.4857   34.8244   38.3867 H   0  0  0  0  0  0  0  0  0  0  0  0
   38.4086   33.1363   39.0363 C   0  0  0  0  0  0  0  0  0  0  0  0
   37.9263   32.4783   40.1425 C   0  0  0  0  0  0  0  0  0  0  0  0
   37.2441   31.3352   39.9358 N   0  0  0  0  0  0  0  0  0  0  0  0
   36.7438   30.6410   40.9892 C   0  0  0  0  0  0  0  0  0  0  0  0
   36.2073   29.7325   40.7445 H   0  0  0  0  0  0  0  0  0  0  0  0
   36.9527   31.1354   42.2617 C   0  0  0  0  0  0  0  0  0  0  0  0
   37.6446   32.2987   42.5064 C   0  0  0  0  0  0  0  0  0  0  0  0
   38.1440   32.9866   41.4123 C   0  0  0  0  0  0  0  0  0  0  0  0
   38.8432   34.1571   41.6172 C   0  0  0  0  0  0  0  0  0  0  0  0
   38.2659   32.7826   38.0325 H   0  0  0  0  0  0  0  0  0  0  0  0
   36.5383   30.5502   43.0475 H   0  0  0  0  0  0  0  0  0  0  0  0
   37.8016   32.6746   43.4996 H   0  0  0  0  0  0  0  0  0  0  0  0
   39.0364   34.5898   42.5895 H   0  0  0  0  0  0  0  0  0  0  0  0
  1  2  1  0
  2  3  1  0
  4  3  1  0
  5  1  1  0
  5  4  1  0
  6  7  2  0
  7  8  1  0
  8  1  1  0
  9  8  2  0
 10  9  1  0
 11  6  1  0
 11 10  2  0
 12  5  1  0
 13 12  1  0
 14 13  2  0
 15 13  1  0
 16 15  2  0
 17 16  1  0
  1 18  1  1
  2 19  1  0
  2 20  1  0
  3 21  1  0
  3 22  1  0
  4 23  1  0
  4 24  1  0
  5 25  1  6
  6 26  1  0
  7 27  1  0
 10 28  1  0
 15 29  1  0
 16 30  1  0
 17 31  1  0
 17 32  1  0
 33 34  2  0
 34 35  1  0
 34 36  1  0
 36 37  2  0
 37 38  1  0
 38 39  2  0
 39 40  1  0
 39 41  1  0
 41 42  2  0
 42 43  1  0
 43 44  2  0
 44 33  1  0
 43 37  1  0
 36 45  1  0
 41 46  1  0
 42 47  1  0
 44 48  1  0
 17 33  1  0
M  ISO  8  18  13  19  13  20  13  21  13  22  13  23  13  24  13  25  13
M  ISO  7  26  14  27  14  28  14  31   8  32   8  35  16  40  16
M  END
>  <DihAtoms>  (1) 
15,16,32,33

>  <DihDeg>  (1) 
89.99714715724744

$$$$
