
 OpenBabel03242523163D

 30 33  0  0  0  0  0  0  0  0999 V2000
   46.0310   34.3410   43.9900 C   0  0  0  0  0  0  0  0  0  0  0  0
   47.1290   33.6510   43.6030 C   0  0  0  0  0  0  0  0  0  0  0  0
   47.5830   32.7100   44.4990 C   0  0  0  0  0  0  0  0  0  0  0  0
   46.8910   32.5500   45.6990 N   0  0  0  0  0  0  0  0  0  0  0  0
   45.8070   33.2670   46.0190 C   0  0  0  0  0  0  0  0  0  0  0  0
   45.3410   34.2070   45.1450 N   0  0  0  0  0  0  0  0  0  0  0  0
   48.4660   32.1120   44.2620 H   0  0  0  0  0  0  0  0  0  0  0  0
   45.5170   32.9030   46.9930 H   0  0  0  0  0  0  0  0  0  0  0  0
   47.8600   33.8650   42.4100 C   0  0  0  0  0  0  0  0  0  0  0  0
   47.9850   34.9690   41.6220 C   0  0  0  0  0  0  0  0  0  0  0  0
   49.2180   34.6870   42.4840 C   0  0  0  0  0  0  0  0  0  0  0  0
   48.3260   32.8380   42.0840 H   0  0  0  0  0  0  0  0  0  0  0  0
   47.4360   35.9430   41.8520 H   0  0  0  0  0  0  0  0  0  0  0  0
   48.2420   34.9610   40.5290 H   0  0  0  0  0  0  0  0  0  0  0  0
   49.3040   35.3420   43.3810 H   0  0  0  0  0  0  0  0  0  0  0  0
   50.1080   34.3250   42.0120 H   0  0  0  0  0  0  0  0  0  0  0  0
   45.2510   35.3300   43.2410 C   0  0  0  0  0  0  0  0  0  0  0  0
   44.9340   36.4790   42.9420 O   0  0  0  0  0  0  0  0  0  0  0  0
   44.2540   34.8040   42.2700 C   0  0  0  0  0  0  0  0  0  0  0  0
   43.5710   35.7360   41.4890 C   0  0  0  0  0  0  0  0  0  0  0  0
   43.8350   36.8040   41.5670 H   0  0  0  0  0  0  0  0  0  0  0  0
   42.5530   35.4980   40.5740 C   0  0  0  0  0  3  0  0  0  0  0  0
   42.1960   34.1690   40.4450 C   0  0  0  0  0  0  0  0  0  0  0  0
   41.2090   33.8600   39.5880 N   0  0  0  0  0  0  0  0  0  0  0  0
   40.7870   32.5720   39.4150 C   0  0  0  0  0  0  0  0  0  0  0  0
   39.9920   32.3070   38.7270 H   0  0  0  0  0  0  0  0  0  0  0  0
   41.4120   31.5800   40.1550 C   0  0  0  0  0  3  0  0  0  0  0  0
   42.4440   31.8730   41.0540 C   0  0  0  0  0  3  0  0  0  0  0  0
   42.8310   33.2000   41.1880 C   0  0  0  0  0  0  0  0  0  0  0  0
   43.8370   33.4810   42.0850 C   0  0  0  0  0  3  0  0  0  0  0  0
  1  6  1  0  0  0  0
  2  1  2  0  0  0  0
  2  3  1  0  0  0  0
  3  4  2  0  0  0  0
  4  5  1  0  0  0  0
  5  8  1  0  0  0  0
  6  5  2  0  0  0  0
  7  3  1  0  0  0  0
  9 11  1  0  0  0  0
  9  2  1  0  0  0  0
 10 13  1  0  0  0  0
 10  9  1  0  0  0  0
 10 11  1  0  0  0  0
 11 15  1  0  0  0  0
 12  9  1  0  0  0  0
 14 10  1  0  0  0  0
 16 11  1  0  0  0  0
 17  1  1  0  0  0  0
 18 17  2  0  0  0  0
 19 17  1  0  0  0  0
 20 21  1  0  0  0  0
 20 19  2  0  0  0  0
 22 20  1  0  0  0  0
 23 22  2  0  0  0  0
 23 29  1  0  0  0  0
 24 23  1  0  0  0  0
 25 24  2  0  0  0  0
 25 27  1  0  0  0  0
 26 25  1  0  0  0  0
 27 28  2  0  0  0  0
 28 29  1  0  0  0  0
 29 30  2  0  0  0  0
 30 19  1  0  0  0  0
M  END
>  <minimizedAffinity>
-5.3418107

>  <minimizedRMSD>
1.27930307

$$$$
