
 OpenBabel03252508523D

 31 34  0  0  0  0  0  0  0  0999 V2000
   40.9910   32.7320   39.3250 C   0  0  0  0  0  0  0  0  0  0  0  0
   42.3410   32.6090   39.6380 C   0  0  0  0  0  0  0  0  0  0  0  0
   43.1690   32.1280   38.6110 C   0  0  0  0  0  0  0  0  0  0  0  0
   42.6170   31.8190   37.4040 N   0  0  0  0  0  0  0  0  0  0  0  0
   41.3180   31.9580   37.1640 C   0  0  0  0  0  0  0  0  0  0  0  0
   40.4920   32.4140   38.1200 N   0  0  0  0  0  0  0  0  0  0  0  0
   44.2260   32.0190   38.8170 H   0  0  0  0  0  0  0  0  0  0  0  0
   40.8440   31.7240   36.2220 H   0  0  0  0  0  0  0  0  0  0  0  0
   42.8200   32.9660   40.9530 C   0  0  0  0  0  0  0  0  0  0  0  0
   43.4850   34.1600   41.2170 C   0  0  0  0  0  0  0  0  0  0  0  0
   43.7520   34.0820   42.5680 C   0  0  0  0  0  0  0  0  0  0  0  0
   43.2810   32.9200   43.0930 N   0  0  0  0  0  0  0  0  0  0  0  0
   42.7250   32.2710   42.0930 N   0  0  0  0  0  0  0  0  0  0  0  0
   43.7650   34.9980   40.5790 H   0  0  0  0  0  0  0  0  0  0  0  0
   44.2670   34.8260   43.1800 H   0  0  0  0  0  0  0  0  0  0  0  0
   43.3540   32.6150   44.1010 H   0  0  0  0  0  0  0  0  0  0  0  0
   40.1350   33.2010   40.3060 O   0  0  0  0  0  0  0  0  0  0  0  0
   38.7860   33.0150   40.3860 C   0  0  0  0  0  0  0  0  0  0  0  0
   37.8670   33.8570   40.0900 O   0  0  0  0  0  0  0  0  0  0  0  0
   38.1420   31.7550   40.8540 C   0  0  0  0  0  0  0  0  0  0  0  0
   36.8540   31.4170   40.5100 C   0  0  0  0  0  0  0  0  0  0  0  0
   36.2490   32.0520   39.8820 H   0  0  0  0  0  0  0  0  0  0  0  0
   36.2610   30.2300   40.9610 C   0  0  0  0  0  3  0  0  0  0  0  0
   36.9720   29.3700   41.7660 C   0  0  0  0  0  0  0  0  0  0  0  0
   36.4310   28.2240   42.2160 N   0  0  0  0  0  0  0  0  0  0  0  0
   37.1550   27.3960   43.0080 C   0  0  0  0  0  0  0  0  0  0  0  0
   36.6430   26.4920   43.3250 H   0  0  0  0  0  0  0  0  0  0  0  0
   38.4670   27.6450   43.4130 C   0  0  0  0  0  3  0  0  0  0  0  0
   39.0090   28.8250   42.9460 C   0  0  0  0  0  3  0  0  0  0  0  0
   38.2640   29.6610   42.1390 C   0  0  0  0  0  0  0  0  0  0  0  0
   38.7700   30.8450   41.6530 C   0  0  0  0  0  3  0  0  0  0  0  0
  1  2  1  0  0  0  0
  1 17  1  0  0  0  0
  2  9  1  0  0  0  0
  3  7  1  0  0  0  0
  3  2  2  0  0  0  0
  4  3  1  0  0  0  0
  5  4  2  0  0  0  0
  5  6  1  0  0  0  0
  6  1  2  0  0  0  0
  8  5  1  0  0  0  0
  9 10  1  0  0  0  0
  9 13  2  0  0  0  0
 10 11  2  0  0  0  0
 11 12  1  0  0  0  0
 11 15  1  0  0  0  0
 12 16  1  0  0  0  0
 13 12  1  0  0  0  0
 14 10  1  0  0  0  0
 17 18  1  0  0  0  0
 18 20  1  0  0  0  0
 19 18  2  0  0  0  0
 20 31  1  0  0  0  0
 21 20  2  0  0  0  0
 21 23  1  0  0  0  0
 22 21  1  0  0  0  0
 23 24  2  0  0  0  0
 24 30  1  0  0  0  0
 24 25  1  0  0  0  0
 25 26  2  0  0  0  0
 26 27  1  0  0  0  0
 26 28  1  0  0  0  0
 29 28  2  0  0  0  0
 30 29  1  0  0  0  0
 31 30  2  0  0  0  0
M  END
>  <minimizedAffinity>
-5.89289808

$$$$

 OpenBabel03252508523D

 31 34  0  0  0  0  0  0  0  0999 V2000
   41.2730   32.2640   39.7980 C   0  0  0  0  0  0  0  0  0  0  0  0
   40.1940   32.2610   38.9200 C   0  0  0  0  0  0  0  0  0  0  0  0
   40.5140   32.1960   37.5540 C   0  0  0  0  0  0  0  0  0  0  0  0
   41.8230   32.1410   37.1810 N   0  0  0  0  0  0  0  0  0  0  0  0
   42.8130   32.1470   38.0680 C   0  0  0  0  0  0  0  0  0  0  0  0
   42.5490   32.2080   39.3840 N   0  0  0  0  0  0  0  0  0  0  0  0
   39.7010   32.1920   36.8390 H   0  0  0  0  0  0  0  0  0  0  0  0
   43.8610   32.1040   37.8120 H   0  0  0  0  0  0  0  0  0  0  0  0
   38.8420   32.3230   39.4250 C   0  0  0  0  0  0  0  0  0  0  0  0
   38.0170   31.2060   39.5120 C   0  0  0  0  0  0  0  0  0  0  0  0
   36.8480   31.7170   40.0370 C   0  0  0  0  0  0  0  0  0  0  0  0
   36.9540   33.0550   40.2560 N   0  0  0  0  0  0  0  0  0  0  0  0
   38.1680   33.3880   39.8760 N   0  0  0  0  0  0  0  0  0  0  0  0
   38.1720   30.1580   39.2550 H   0  0  0  0  0  0  0  0  0  0  0  0
   35.9340   31.1650   40.2650 H   0  0  0  0  0  0  0  0  0  0  0  0
   36.2040   33.6840   40.6510 H   0  0  0  0  0  0  0  0  0  0  0  0
   41.0090   32.3270   41.1550 O   0  0  0  0  0  0  0  0  0  0  0  0
   41.1550   31.3300   42.0750 C   0  0  0  0  0  0  0  0  0  0  0  0
   41.9230   31.3260   43.1000 O   0  0  0  0  0  0  0  0  0  0  0  0
   40.4190   30.0350   42.0280 C   0  0  0  0  0  0  0  0  0  0  0  0
   40.8700   28.9610   41.2970 C   0  0  0  0  0  0  0  0  0  0  0  0
   41.7830   29.0070   40.7240 H   0  0  0  0  0  0  0  0  0  0  0  0
   40.1660   27.7500   41.2600 C   0  0  0  0  0  3  0  0  0  0  0  0
   38.9930   27.6150   41.9670 C   0  0  0  0  0  0  0  0  0  0  0  0
   38.2930   26.4680   41.9510 N   0  0  0  0  0  0  0  0  0  0  0  0
   37.1410   26.3640   42.6580 C   0  0  0  0  0  0  0  0  0  0  0  0
   36.6400   25.4030   42.5910 H   0  0  0  0  0  0  0  0  0  0  0  0
   36.5980   27.3930   43.4300 C   0  0  0  0  0  3  0  0  0  0  0  0
   37.3260   28.5650   43.4360 C   0  0  0  0  0  3  0  0  0  0  0  0
   38.4980   28.6610   42.7140 C   0  0  0  0  0  0  0  0  0  0  0  0
   39.2510   29.8120   42.6960 C   0  0  0  0  0  3  0  0  0  0  0  0
  1 17  1  0  0  0  0
  2  9  1  0  0  0  0
  2  1  2  0  0  0  0
  3  2  1  0  0  0  0
  4  3  2  0  0  0  0
  4  5  1  0  0  0  0
  5  6  2  0  0  0  0
  6  1  1  0  0  0  0
  7  3  1  0  0  0  0
  8  5  1  0  0  0  0
  9 10  1  0  0  0  0
  9 13  2  0  0  0  0
 10 11  2  0  0  0  0
 11 12  1  0  0  0  0
 11 15  1  0  0  0  0
 12 16  1  0  0  0  0
 13 12  1  0  0  0  0
 14 10  1  0  0  0  0
 17 18  1  0  0  0  0
 18 19  2  0  0  0  0
 20 18  1  0  0  0  0
 20 31  1  0  0  0  0
 21 20  2  0  0  0  0
 22 21  1  0  0  0  0
 23 21  1  0  0  0  0
 23 24  2  0  0  0  0
 24 30  1  0  0  0  0
 25 24  1  0  0  0  0
 25 26  2  0  0  0  0
 26 28  1  0  0  0  0
 27 26  1  0  0  0  0
 28 29  2  0  0  0  0
 30 29  1  0  0  0  0
 31 30  2  0  0  0  0
M  END
>  <minimizedAffinity>
-5.86698771

$$$$

 OpenBabel03252508523D

 31 34  0  0  0  0  0  0  0  0999 V2000
   39.7920   31.5580   40.3110 C   0  0  0  0  0  0  0  0  0  0  0  0
   38.6820   31.4010   39.4870 C   0  0  0  0  0  0  0  0  0  0  0  0
   38.8710   31.7250   38.1340 C   0  0  0  0  0  0  0  0  0  0  0  0
   40.0940   32.1600   37.7200 N   0  0  0  0  0  0  0  0  0  0  0  0
   41.1190   32.2890   38.5550 C   0  0  0  0  0  0  0  0  0  0  0  0
   40.9790   31.9900   39.8580 N   0  0  0  0  0  0  0  0  0  0  0  0
   38.0290   31.6160   37.4610 H   0  0  0  0  0  0  0  0  0  0  0  0
   42.1020   32.6290   38.2660 H   0  0  0  0  0  0  0  0  0  0  0  0
   37.4290   30.9320   40.0320 C   0  0  0  0  0  0  0  0  0  0  0  0
   36.8520   29.7200   39.6650 C   0  0  0  0  0  0  0  0  0  0  0  0
   35.6950   29.6810   40.4140 C   0  0  0  0  0  0  0  0  0  0  0  0
   35.5740   30.7940   41.1860 N   0  0  0  0  0  0  0  0  0  0  0  0
   36.6360   31.5270   40.9320 N   0  0  0  0  0  0  0  0  0  0  0  0
   37.1660   28.9400   38.9710 H   0  0  0  0  0  0  0  0  0  0  0  0
   34.9440   28.8870   40.4230 H   0  0  0  0  0  0  0  0  0  0  0  0
   34.7820   31.0100   41.8500 H   0  0  0  0  0  0  0  0  0  0  0  0
   39.6550   31.2520   41.6540 O   0  0  0  0  0  0  0  0  0  0  0  0
   40.0150   30.0950   42.2810 C   0  0  0  0  0  0  0  0  0  0  0  0
   41.1250   29.8450   42.8700 O   0  0  0  0  0  0  0  0  0  0  0  0
   39.1430   28.8910   42.3790 C   0  0  0  0  0  0  0  0  0  0  0  0
   38.0410   28.8460   43.2000 C   0  0  0  0  0  0  0  0  0  0  0  0
   37.7560   29.6880   43.8130 H   0  0  0  0  0  0  0  0  0  0  0  0
   37.2330   27.7060   43.2850 C   0  0  0  0  0  3  0  0  0  0  0  0
   37.5340   26.5930   42.5320 C   0  0  0  0  0  0  0  0  0  0  0  0
   36.7790   25.4820   42.5910 N   0  0  0  0  0  0  0  0  0  0  0  0
   37.0990   24.4020   41.8380 C   0  0  0  0  0  0  0  0  0  0  0  0
   36.4360   23.5480   41.9450 H   0  0  0  0  0  0  0  0  0  0  0  0
   38.1930   24.3440   40.9740 C   0  0  0  0  0  3  0  0  0  0  0  0
   38.9600   25.4900   40.9240 C   0  0  0  0  0  3  0  0  0  0  0  0
   38.6250   26.5850   41.6940 C   0  0  0  0  0  0  0  0  0  0  0  0
   39.3640   27.7450   41.6710 C   0  0  0  0  0  3  0  0  0  0  0  0
  1 17  1  0  0  0  0
  2  9  1  0  0  0  0
  2  1  2  0  0  0  0
  3  2  1  0  0  0  0
  4  3  2  0  0  0  0
  4  5  1  0  0  0  0
  5  6  2  0  0  0  0
  6  1  1  0  0  0  0
  7  3  1  0  0  0  0
  8  5  1  0  0  0  0
  9 13  2  0  0  0  0
 10  9  1  0  0  0  0
 10 11  2  0  0  0  0
 11 15  1  0  0  0  0
 11 12  1  0  0  0  0
 12 16  1  0  0  0  0
 13 12  1  0  0  0  0
 14 10  1  0  0  0  0
 17 18  1  0  0  0  0
 18 20  1  0  0  0  0
 18 19  2  0  0  0  0
 20 21  1  0  0  0  0
 21 23  2  0  0  0  0
 21 22  1  0  0  0  0
 24 25  1  0  0  0  0
 24 23  1  0  0  0  0
 26 27  1  0  0  0  0
 26 25  2  0  0  0  0
 28 26  1  0  0  0  0
 29 28  2  0  0  0  0
 29 30  1  0  0  0  0
 30 24  2  0  0  0  0
 31 30  1  0  0  0  0
 31 20  2  0  0  0  0
M  END
>  <minimizedAffinity>
-5.85674667

$$$$

 OpenBabel03252508523D

 31 34  0  0  0  0  0  0  0  0999 V2000
   36.7800   25.8710   40.4080 C   0  0  0  0  0  0  0  0  0  0  0  0
   37.3670   25.9110   41.6690 C   0  0  0  0  0  0  0  0  0  0  0  0
   37.8730   24.6920   42.1490 C   0  0  0  0  0  0  0  0  0  0  0  0
   37.7630   23.5770   41.3750 N   0  0  0  0  0  0  0  0  0  0  0  0
   37.1910   23.6010   40.1760 C   0  0  0  0  0  0  0  0  0  0  0  0
   36.6940   24.7460   39.6800 N   0  0  0  0  0  0  0  0  0  0  0  0
   38.3370   24.6830   43.1280 H   0  0  0  0  0  0  0  0  0  0  0  0
   37.0860   22.7390   39.5330 H   0  0  0  0  0  0  0  0  0  0  0  0
   37.4300   27.1520   42.4060 C   0  0  0  0  0  0  0  0  0  0  0  0
   38.5570   27.9670   42.4170 C   0  0  0  0  0  0  0  0  0  0  0  0
   38.1810   29.0170   43.2270 C   0  0  0  0  0  0  0  0  0  0  0  0
   36.9080   28.8550   43.6790 N   0  0  0  0  0  0  0  0  0  0  0  0
   36.4850   27.7200   43.1650 N   0  0  0  0  0  0  0  0  0  0  0  0
   39.5320   27.8760   41.9370 H   0  0  0  0  0  0  0  0  0  0  0  0
   38.7830   29.8870   43.5000 H   0  0  0  0  0  0  0  0  0  0  0  0
   36.3820   29.5140   44.3130 H   0  0  0  0  0  0  0  0  0  0  0  0
   36.2660   27.0480   39.8920 O   0  0  0  0  0  0  0  0  0  0  0  0
   36.7600   27.7820   38.8530 C   0  0  0  0  0  0  0  0  0  0  0  0
   36.5800   27.5750   37.6020 O   0  0  0  0  0  0  0  0  0  0  0  0
   37.6250   28.9850   39.0160 C   0  0  0  0  0  0  0  0  0  0  0  0
   38.9930   28.9290   38.8870 C   0  0  0  0  0  0  0  0  0  0  0  0
   39.5040   28.0060   38.6590 H   0  0  0  0  0  0  0  0  0  0  0  0
   39.7930   30.0670   39.0470 C   0  0  0  0  0  3  0  0  0  0  0  0
   39.2120   31.2800   39.3390 C   0  0  0  0  0  0  0  0  0  0  0  0
   39.9520   32.3910   39.5000 N   0  0  0  0  0  0  0  0  0  0  0  0
   39.3520   33.5720   39.7870 C   0  0  0  0  0  0  0  0  0  0  0  0
   40.0230   34.4190   39.8990 H   0  0  0  0  0  0  0  0  0  0  0  0
   37.9740   33.7360   39.9380 C   0  0  0  0  0  3  0  0  0  0  0  0
   37.2270   32.5880   39.7720 C   0  0  0  0  0  3  0  0  0  0  0  0
   37.8470   31.3910   39.4790 C   0  0  0  0  0  0  0  0  0  0  0  0
   37.1360   30.2260   39.3060 C   0  0  0  0  0  3  0  0  0  0  0  0
  1  2  1  0  0  0  0
  2  3  2  0  0  0  0
  2  9  1  0  0  0  0
  3  7  1  0  0  0  0
  4  3  1  0  0  0  0
  5  4  2  0  0  0  0
  6  5  1  0  0  0  0
  6  1  2  0  0  0  0
  8  5  1  0  0  0  0
  9 10  1  0  0  0  0
  9 13  2  0  0  0  0
 10 11  2  0  0  0  0
 11 15  1  0  0  0  0
 11 12  1  0  0  0  0
 12 16  1  0  0  0  0
 13 12  1  0  0  0  0
 14 10  1  0  0  0  0
 17  1  1  0  0  0  0
 18 20  1  0  0  0  0
 18 17  1  0  0  0  0
 19 18  2  0  0  0  0
 20 31  1  0  0  0  0
 21 20  2  0  0  0  0
 21 23  1  0  0  0  0
 22 21  1  0  0  0  0
 23 24  2  0  0  0  0
 24 30  1  0  0  0  0
 24 25  1  0  0  0  0
 25 26  2  0  0  0  0
 26 27  1  0  0  0  0
 26 28  1  0  0  0  0
 29 28  2  0  0  0  0
 30 29  1  0  0  0  0
 31 30  2  0  0  0  0
M  END
>  <minimizedAffinity>
-5.71938944

$$$$

 OpenBabel03252508523D

 31 34  0  0  0  0  0  0  0  0999 V2000
   36.8620   25.9180   40.4410 C   0  0  0  0  0  0  0  0  0  0  0  0
   37.5190   25.9850   41.6650 C   0  0  0  0  0  0  0  0  0  0  0  0
   38.1160   24.7930   42.1070 C   0  0  0  0  0  0  0  0  0  0  0  0
   38.0190   23.6750   41.3340 N   0  0  0  0  0  0  0  0  0  0  0  0
   37.3770   23.6740   40.1710 C   0  0  0  0  0  0  0  0  0  0  0  0
   36.7920   24.7930   39.7120 N   0  0  0  0  0  0  0  0  0  0  0  0
   38.6370   24.8050   43.0560 H   0  0  0  0  0  0  0  0  0  0  0  0
   37.2790   22.8100   39.5300 H   0  0  0  0  0  0  0  0  0  0  0  0
   37.5610   27.2250   42.4040 C   0  0  0  0  0  0  0  0  0  0  0  0
   38.6750   28.0580   42.4210 C   0  0  0  0  0  0  0  0  0  0  0  0
   38.2800   29.1000   43.2320 C   0  0  0  0  0  0  0  0  0  0  0  0
   37.0090   28.9170   43.6800 N   0  0  0  0  0  0  0  0  0  0  0  0
   36.6050   27.7770   43.1620 N   0  0  0  0  0  0  0  0  0  0  0  0
   39.6530   27.9830   41.9440 H   0  0  0  0  0  0  0  0  0  0  0  0
   38.8680   29.9780   43.5080 H   0  0  0  0  0  0  0  0  0  0  0  0
   36.4700   29.5670   44.3140 H   0  0  0  0  0  0  0  0  0  0  0  0
   36.2570   27.0680   39.9630 O   0  0  0  0  0  0  0  0  0  0  0  0
   36.7800   27.9780   39.0920 C   0  0  0  0  0  0  0  0  0  0  0  0
   37.0560   27.7980   37.8540 O   0  0  0  0  0  0  0  0  0  0  0  0
   37.1320   29.3790   39.4580 C   0  0  0  0  0  0  0  0  0  0  0  0
   36.3010   30.1710   40.2150 C   0  0  0  0  0  0  0  0  0  0  0  0
   35.3520   29.8110   40.5820 H   0  0  0  0  0  0  0  0  0  0  0  0
   36.6440   31.4880   40.5490 C   0  0  0  0  0  3  0  0  0  0  0  0
   37.8390   32.0170   40.1170 C   0  0  0  0  0  0  0  0  0  0  0  0
   38.1980   33.2770   40.4190 N   0  0  0  0  0  0  0  0  0  0  0  0
   39.3800   33.7710   39.9800 C   0  0  0  0  0  0  0  0  0  0  0  0
   39.5920   34.7970   40.2690 H   0  0  0  0  0  0  0  0  0  0  0  0
   40.2940   33.0520   39.2080 C   0  0  0  0  0  3  0  0  0  0  0  0
   39.9130   31.7610   38.9040 C   0  0  0  0  0  3  0  0  0  0  0  0
   38.7070   31.2670   39.3560 C   0  0  0  0  0  0  0  0  0  0  0  0
   38.2930   29.9850   39.0750 C   0  0  0  0  0  3  0  0  0  0  0  0
  1  2  1  0  0  0  0
  2  3  2  0  0  0  0
  2  9  1  0  0  0  0
  3  7  1  0  0  0  0
  4  3  1  0  0  0  0
  5  4  2  0  0  0  0
  6  5  1  0  0  0  0
  6  1  2  0  0  0  0
  8  5  1  0  0  0  0
  9 10  1  0  0  0  0
  9 13  2  0  0  0  0
 10 11  2  0  0  0  0
 11 15  1  0  0  0  0
 11 12  1  0  0  0  0
 12 16  1  0  0  0  0
 13 12  1  0  0  0  0
 14 10  1  0  0  0  0
 17  1  1  0  0  0  0
 18 20  1  0  0  0  0
 18 17  1  0  0  0  0
 19 18  2  0  0  0  0
 20 21  1  0  0  0  0
 21 23  2  0  0  0  0
 21 22  1  0  0  0  0
 24 25  1  0  0  0  0
 24 23  1  0  0  0  0
 26 27  1  0  0  0  0
 26 25  2  0  0  0  0
 28 26  1  0  0  0  0
 29 28  2  0  0  0  0
 29 30  1  0  0  0  0
 30 24  2  0  0  0  0
 31 30  1  0  0  0  0
 31 20  2  0  0  0  0
M  END
>  <minimizedAffinity>
-5.71370077

$$$$

 OpenBabel03252508523D

 31 34  0  0  0  0  0  0  0  0999 V2000
   37.8740   25.0780   41.9310 C   0  0  0  0  0  0  0  0  0  0  0  0
   39.0690   24.6910   41.3320 C   0  0  0  0  0  0  0  0  0  0  0  0
   38.9540   23.8050   40.2490 C   0  0  0  0  0  0  0  0  0  0  0  0
   37.7170   23.3890   39.8600 N   0  0  0  0  0  0  0  0  0  0  0  0
   36.6090   23.7940   40.4720 C   0  0  0  0  0  0  0  0  0  0  0  0
   36.6760   24.6410   41.5120 N   0  0  0  0  0  0  0  0  0  0  0  0
   39.8630   23.4810   39.7570 H   0  0  0  0  0  0  0  0  0  0  0  0
   35.6120   23.4870   40.1930 H   0  0  0  0  0  0  0  0  0  0  0  0
   40.3290   25.1950   41.8270 C   0  0  0  0  0  0  0  0  0  0  0  0
   41.0420   26.2050   41.1890 C   0  0  0  0  0  0  0  0  0  0  0  0
   42.1540   26.3620   41.9900 C   0  0  0  0  0  0  0  0  0  0  0  0
   42.1210   25.5060   43.0460 N   0  0  0  0  0  0  0  0  0  0  0  0
   41.0080   24.8170   42.9170 N   0  0  0  0  0  0  0  0  0  0  0  0
   40.8460   26.7800   40.2840 H   0  0  0  0  0  0  0  0  0  0  0  0
   42.9770   27.0640   41.8410 H   0  0  0  0  0  0  0  0  0  0  0  0
   42.8490   25.4230   43.8050 H   0  0  0  0  0  0  0  0  0  0  0  0
   37.9350   25.9500   43.0040 O   0  0  0  0  0  0  0  0  0  0  0  0
   37.3040   27.1530   43.1300 C   0  0  0  0  0  0  0  0  0  0  0  0
   36.1690   27.3800   43.6800 O   0  0  0  0  0  0  0  0  0  0  0  0
   37.8530   28.4430   42.6240 C   0  0  0  0  0  0  0  0  0  0  0  0
   39.1190   28.8760   42.9380 C   0  0  0  0  0  0  0  0  0  0  0  0
   39.7770   28.2970   43.5680 H   0  0  0  0  0  0  0  0  0  0  0  0
   39.6210   30.0930   42.4580 C   0  0  0  0  0  3  0  0  0  0  0  0
   38.8390   30.8860   41.6490 C   0  0  0  0  0  0  0  0  0  0  0  0
   39.2900   32.0590   41.1720 N   0  0  0  0  0  0  0  0  0  0  0  0
   38.4980   32.8190   40.3770 C   0  0  0  0  0  0  0  0  0  0  0  0
   38.9410   33.7510   40.0350 H   0  0  0  0  0  0  0  0  0  0  0  0
   37.2010   32.4720   39.9990 C   0  0  0  0  0  3  0  0  0  0  0  0
   36.7500   31.2660   40.4960 C   0  0  0  0  0  3  0  0  0  0  0  0
   37.5640   30.4990   41.3040 C   0  0  0  0  0  0  0  0  0  0  0  0
   37.1510   29.2910   41.8170 C   0  0  0  0  0  3  0  0  0  0  0  0
  1 17  1  0  0  0  0
  2  9  1  0  0  0  0
  2  1  2  0  0  0  0
  3  2  1  0  0  0  0
  4  3  2  0  0  0  0
  4  5  1  0  0  0  0
  5  6  2  0  0  0  0
  6  1  1  0  0  0  0
  7  3  1  0  0  0  0
  8  5  1  0  0  0  0
  9 13  2  0  0  0  0
 10  9  1  0  0  0  0
 10 11  2  0  0  0  0
 11 12  1  0  0  0  0
 12 16  1  0  0  0  0
 13 12  1  0  0  0  0
 14 10  1  0  0  0  0
 15 11  1  0  0  0  0
 17 18  1  0  0  0  0
 18 19  2  0  0  0  0
 20 21  1  0  0  0  0
 20 18  1  0  0  0  0
 21 22  1  0  0  0  0
 23 21  2  0  0  0  0
 24 23  1  0  0  0  0
 25 24  2  0  0  0  0
 26 25  1  0  0  0  0
 27 26  1  0  0  0  0
 28 26  2  0  0  0  0
 28 29  1  0  0  0  0
 29 30  2  0  0  0  0
 30 24  1  0  0  0  0
 30 31  1  0  0  0  0
 31 20  2  0  0  0  0
M  END
>  <minimizedAffinity>
-5.52680874

$$$$

 OpenBabel03252508523D

 31 34  0  0  0  0  0  0  0  0999 V2000
   36.9410   26.2340   40.8810 C   0  0  0  0  0  0  0  0  0  0  0  0
   37.0200   26.3030   39.4940 C   0  0  0  0  0  0  0  0  0  0  0  0
   37.3810   25.1150   38.8390 C   0  0  0  0  0  0  0  0  0  0  0  0
   37.6240   23.9970   39.5780 N   0  0  0  0  0  0  0  0  0  0  0  0
   37.5320   23.9910   40.9040 C   0  0  0  0  0  0  0  0  0  0  0  0
   37.1910   25.1070   41.5690 N   0  0  0  0  0  0  0  0  0  0  0  0
   37.4530   25.1300   37.7590 H   0  0  0  0  0  0  0  0  0  0  0  0
   37.7170   23.1270   41.5240 H   0  0  0  0  0  0  0  0  0  0  0  0
   36.7410   27.5440   38.8090 C   0  0  0  0  0  0  0  0  0  0  0  0
   35.4510   28.0300   38.6230 C   0  0  0  0  0  0  0  0  0  0  0  0
   35.6520   29.2100   37.9390 C   0  0  0  0  0  0  0  0  0  0  0  0
   36.9770   29.4300   37.7230 N   0  0  0  0  0  0  0  0  0  0  0  0
   37.6050   28.4070   38.2600 N   0  0  0  0  0  0  0  0  0  0  0  0
   34.4730   27.6420   38.9100 H   0  0  0  0  0  0  0  0  0  0  0  0
   34.8870   29.9100   37.5950 H   0  0  0  0  0  0  0  0  0  0  0  0
   37.3990   30.2590   37.2240 H   0  0  0  0  0  0  0  0  0  0  0  0
   36.5900   27.3800   41.5720 O   0  0  0  0  0  0  0  0  0  0  0  0
   37.3850   28.1330   42.3860 C   0  0  0  0  0  0  0  0  0  0  0  0
   37.7870   27.8400   43.5660 O   0  0  0  0  0  0  0  0  0  0  0  0
   37.9290   29.4710   42.0180 C   0  0  0  0  0  0  0  0  0  0  0  0
   39.1290   29.9350   42.5020 C   0  0  0  0  0  0  0  0  0  0  0  0
   39.7360   29.3460   43.1730 H   0  0  0  0  0  0  0  0  0  0  0  0
   39.6260   31.1960   42.1500 C   0  0  0  0  0  3  0  0  0  0  0  0
   38.9080   32.0040   41.2980 C   0  0  0  0  0  0  0  0  0  0  0  0
   39.3560   33.2200   40.9410 N   0  0  0  0  0  0  0  0  0  0  0  0
   38.6280   33.9940   40.1000 C   0  0  0  0  0  0  0  0  0  0  0  0
   39.0630   34.9600   39.8630 H   0  0  0  0  0  0  0  0  0  0  0  0
   37.3990   33.6180   39.5530 C   0  0  0  0  0  3  0  0  0  0  0  0
   36.9510   32.3690   39.9290 C   0  0  0  0  0  3  0  0  0  0  0  0
   37.7000   31.5880   40.7850 C   0  0  0  0  0  0  0  0  0  0  0  0
   37.2870   30.3370   41.1810 C   0  0  0  0  0  3  0  0  0  0  0  0
  1  6  1  0  0  0  0
  1 17  1  0  0  0  0
  2  1  2  0  0  0  0
  3  2  1  0  0  0  0
  3  4  2  0  0  0  0
  4  5  1  0  0  0  0
  5  8  1  0  0  0  0
  5  6  2  0  0  0  0
  7  3  1  0  0  0  0
  9  2  1  0  0  0  0
 10  9  1  0  0  0  0
 10 14  1  0  0  0  0
 11 10  2  0  0  0  0
 12 11  1  0  0  0  0
 12 13  1  0  0  0  0
 13  9  2  0  0  0  0
 15 11  1  0  0  0  0
 16 12  1  0  0  0  0
 17 18  1  0  0  0  0
 18 19  2  0  0  0  0
 20 18  1  0  0  0  0
 20 21  1  0  0  0  0
 21 22  1  0  0  0  0
 23 21  2  0  0  0  0
 24 23  1  0  0  0  0
 25 24  1  0  0  0  0
 26 25  2  0  0  0  0
 27 26  1  0  0  0  0
 28 29  2  0  0  0  0
 28 26  1  0  0  0  0
 29 30  1  0  0  0  0
 30 31  1  0  0  0  0
 30 24  2  0  0  0  0
 31 20  2  0  0  0  0
M  END
>  <minimizedAffinity>
-5.47060204

$$$$

 OpenBabel03252508523D

 31 34  0  0  0  0  0  0  0  0999 V2000
   37.7190   31.3460   40.8240 C   0  0  0  0  0  0  0  0  0  0  0  0
   39.0760   31.0480   40.7510 C   0  0  0  0  0  0  0  0  0  0  0  0
   39.8700   31.9680   40.0480 C   0  0  0  0  0  0  0  0  0  0  0  0
   39.2830   33.0660   39.4960 N   0  0  0  0  0  0  0  0  0  0  0  0
   37.9790   33.2990   39.6000 C   0  0  0  0  0  0  0  0  0  0  0  0
   37.1840   32.4430   40.2640 N   0  0  0  0  0  0  0  0  0  0  0  0
   40.9320   31.7690   39.9700 H   0  0  0  0  0  0  0  0  0  0  0  0
   37.4770   34.1570   39.1780 H   0  0  0  0  0  0  0  0  0  0  0  0
   39.5940   29.8520   41.3740 C   0  0  0  0  0  0  0  0  0  0  0  0
   39.9780   28.7280   40.6500 C   0  0  0  0  0  0  0  0  0  0  0  0
   40.3990   27.8500   41.6260 C   0  0  0  0  0  0  0  0  0  0  0  0
   40.2810   28.4020   42.8630 N   0  0  0  0  0  0  0  0  0  0  0  0
   39.7930   29.6080   42.6760 N   0  0  0  0  0  0  0  0  0  0  0  0
   39.9790   28.5110   39.5810 H   0  0  0  0  0  0  0  0  0  0  0  0
   40.7850   26.8390   41.4790 H   0  0  0  0  0  0  0  0  0  0  0  0
   40.5340   27.9410   43.7790 H   0  0  0  0  0  0  0  0  0  0  0  0
   36.8940   30.4690   41.5060 O   0  0  0  0  0  0  0  0  0  0  0  0
   36.1660   29.4410   40.9840 C   0  0  0  0  0  0  0  0  0  0  0  0
   35.1080   29.5250   40.2660 O   0  0  0  0  0  0  0  0  0  0  0  0
   36.4950   28.0000   41.1770 C   0  0  0  0  0  0  0  0  0  0  0  0
   36.7700   27.4690   42.4150 C   0  0  0  0  0  0  0  0  0  0  0  0
   36.7580   28.0750   43.3080 H   0  0  0  0  0  0  0  0  0  0  0  0
   37.0810   26.1130   42.5810 C   0  0  0  0  0  3  0  0  0  0  0  0
   37.1150   25.2770   41.4870 C   0  0  0  0  0  0  0  0  0  0  0  0
   37.4110   23.9720   41.6120 N   0  0  0  0  0  0  0  0  0  0  0  0
   37.4370   23.1730   40.5180 C   0  0  0  0  0  0  0  0  0  0  0  0
   37.6840   22.1330   40.7080 H   0  0  0  0  0  0  0  0  0  0  0  0
   37.1730   23.6120   39.2190 C   0  0  0  0  0  3  0  0  0  0  0  0
   36.8730   24.9530   39.1060 C   0  0  0  0  0  3  0  0  0  0  0  0
   36.8480   25.7590   40.2260 C   0  0  0  0  0  0  0  0  0  0  0  0
   36.5510   27.1000   40.1520 C   0  0  0  0  0  3  0  0  0  0  0  0
  1 17  1  0  0  0  0
  2  1  1  0  0  0  0
  2  9  1  0  0  0  0
  3  2  2  0  0  0  0
  4  5  2  0  0  0  0
  4  3  1  0  0  0  0
  5  6  1  0  0  0  0
  6  1  2  0  0  0  0
  7  3  1  0  0  0  0
  8  5  1  0  0  0  0
  9 13  2  0  0  0  0
 10  9  1  0  0  0  0
 10 11  2  0  0  0  0
 11 12  1  0  0  0  0
 12 16  1  0  0  0  0
 13 12  1  0  0  0  0
 14 10  1  0  0  0  0
 15 11  1  0  0  0  0
 18 20  1  0  0  0  0
 18 17  1  0  0  0  0
 19 18  2  0  0  0  0
 20 21  1  0  0  0  0
 21 23  2  0  0  0  0
 21 22  1  0  0  0  0
 24 25  1  0  0  0  0
 24 23  1  0  0  0  0
 26 27  1  0  0  0  0
 26 25  2  0  0  0  0
 28 26  1  0  0  0  0
 29 28  2  0  0  0  0
 29 30  1  0  0  0  0
 30 24  2  0  0  0  0
 31 30  1  0  0  0  0
 31 20  2  0  0  0  0
M  END
>  <minimizedAffinity>
-5.44316053

$$$$

 OpenBabel03252508523D

 31 34  0  0  0  0  0  0  0  0999 V2000
   36.7840   30.8030   38.7140 C   0  0  0  0  0  0  0  0  0  0  0  0
   37.7280   30.6300   37.7070 C   0  0  0  0  0  0  0  0  0  0  0  0
   38.8780   31.4310   37.7990 C   0  0  0  0  0  0  0  0  0  0  0  0
   38.9980   32.3040   38.8380 N   0  0  0  0  0  0  0  0  0  0  0  0
   38.0600   32.4250   39.7720 C   0  0  0  0  0  0  0  0  0  0  0  0
   36.9450   31.6770   39.7200 N   0  0  0  0  0  0  0  0  0  0  0  0
   39.6360   31.3250   37.0330 H   0  0  0  0  0  0  0  0  0  0  0  0
   38.1180   33.1040   40.6100 H   0  0  0  0  0  0  0  0  0  0  0  0
   37.4990   29.6730   36.6490 C   0  0  0  0  0  0  0  0  0  0  0  0
   36.6430   29.9190   35.5810 C   0  0  0  0  0  0  0  0  0  0  0  0
   36.7290   28.7640   34.8330 C   0  0  0  0  0  0  0  0  0  0  0  0
   37.5810   27.8730   35.4070 N   0  0  0  0  0  0  0  0  0  0  0  0
   38.0280   28.4520   36.4990 N   0  0  0  0  0  0  0  0  0  0  0  0
   36.0230   30.7780   35.3210 H   0  0  0  0  0  0  0  0  0  0  0  0
   36.2060   28.5440   33.9000 H   0  0  0  0  0  0  0  0  0  0  0  0
   37.8240   26.9140   35.0370 H   0  0  0  0  0  0  0  0  0  0  0  0
   35.6330   30.0360   38.6660 O   0  0  0  0  0  0  0  0  0  0  0  0
   35.1440   29.2160   39.6400 C   0  0  0  0  0  0  0  0  0  0  0  0
   33.9400   29.1590   40.0750 O   0  0  0  0  0  0  0  0  0  0  0  0
   35.9650   28.2200   40.3850 C   0  0  0  0  0  0  0  0  0  0  0  0
   36.2790   28.3750   41.7150 C   0  0  0  0  0  0  0  0  0  0  0  0
   35.9400   29.2280   42.2820 H   0  0  0  0  0  0  0  0  0  0  0  0
   37.0550   27.4320   42.4020 C   0  0  0  0  0  3  0  0  0  0  0  0
   37.5230   26.3170   41.7440 C   0  0  0  0  0  0  0  0  0  0  0  0
   38.2710   25.3940   42.3730 N   0  0  0  0  0  0  0  0  0  0  0  0
   38.7170   24.3070   41.7000 C   0  0  0  0  0  0  0  0  0  0  0  0
   39.3140   23.6110   42.2840 H   0  0  0  0  0  0  0  0  0  0  0  0
   38.4560   24.0550   40.3520 C   0  0  0  0  0  3  0  0  0  0  0  0
   37.6880   25.0110   39.7180 C   0  0  0  0  0  3  0  0  0  0  0  0
   37.2380   26.1150   40.4120 C   0  0  0  0  0  0  0  0  0  0  0  0
   36.4700   27.0870   39.8150 C   0  0  0  0  0  3  0  0  0  0  0  0
  1  6  1  0  0  0  0
  2  3  1  0  0  0  0
  2  1  2  0  0  0  0
  3  4  2  0  0  0  0
  4  5  1  0  0  0  0
  5  8  1  0  0  0  0
  6  5  2  0  0  0  0
  7  3  1  0  0  0  0
  9  2  1  0  0  0  0
 10  9  1  0  0  0  0
 11 12  1  0  0  0  0
 11 10  2  0  0  0  0
 12 13  1  0  0  0  0
 13  9  2  0  0  0  0
 14 10  1  0  0  0  0
 15 11  1  0  0  0  0
 16 12  1  0  0  0  0
 17  1  1  0  0  0  0
 17 18  1  0  0  0  0
 18 19  2  0  0  0  0
 18 20  1  0  0  0  0
 20 21  1  0  0  0  0
 21 22  1  0  0  0  0
 21 23  2  0  0  0  0
 24 25  1  0  0  0  0
 24 23  1  0  0  0  0
 26 27  1  0  0  0  0
 26 25  2  0  0  0  0
 28 26  1  0  0  0  0
 29 28  2  0  0  0  0
 29 30  1  0  0  0  0
 30 24  2  0  0  0  0
 31 20  2  0  0  0  0
 31 30  1  0  0  0  0
M  END
>  <minimizedAffinity>
-5.40336466

$$$$
