
 OpenBabel03242519103D

 50 54  0  0  1  0  0  0  0  0999 V2000
   49.2780   32.0800   36.9860 C   0  0  0  0  0  0  0  0  0  0  0  0
   48.4030   32.8990   37.7220 C   0  0  0  0  0  0  0  0  0  0  0  0
   47.1850   33.0570   37.1300 C   0  0  0  0  0  0  0  0  0  0  0  0
   46.7690   32.5120   35.9450 C   0  0  0  0  0  0  0  0  0  0  0  0
   47.6570   31.7160   35.2560 C   0  0  0  0  0  0  0  0  0  0  0  0
   48.9050   31.5110   35.7920 C   0  0  0  0  0  0  0  0  0  0  0  0
   46.4600   33.6840   37.6550 H   0  0  0  0  0  0  0  0  0  0  0  0
   45.7800   32.6900   35.5460 H   0  0  0  0  0  0  0  0  0  0  0  0
   47.3960   31.2550   34.3170 H   0  0  0  0  0  0  0  0  0  0  0  0
   50.2860   31.1350   33.8080 C   0  0  0  0  0  0  0  0  0  0  0  0
   49.9810   32.2860   33.3760 O   0  0  0  0  0  0  0  0  0  0  0  0
   49.8120   30.6790   35.0580 N   0  0  0  0  0  0  0  0  0  0  0  0
   50.1100   29.7650   35.4350 H   0  0  0  0  0  0  0  0  0  0  0  0
   51.1450   30.3290   32.9430 C   0  0  0  0  0  0  0  0  0  0  0  0
   52.4990   30.5770   32.9430 C   0  0  0  0  0  0  0  0  0  0  0  0
   52.9700   31.3350   33.5470 H   0  0  0  0  0  0  0  0  0  0  0  0
   53.3710   29.8390   32.1380 C   0  0  0  0  0  3  0  0  0  0  0  0
   52.8750   28.8390   31.3210 C   0  0  0  0  0  0  0  0  0  0  0  0
   53.7460   28.1500   30.5590 N   0  0  0  0  0  0  0  0  0  0  0  0
   53.3250   27.1510   29.7310 C   0  0  0  0  0  0  0  0  0  0  0  0
   54.0590   26.6270   29.1400 H   0  0  0  0  0  0  0  0  0  0  0  0
   51.9730   26.8720   29.7020 C   0  0  0  0  0  3  0  0  0  0  0  0
   51.0590   27.5820   30.4900 C   0  0  0  0  0  3  0  0  0  0  0  0
   51.5130   28.5970   31.3270 C   0  0  0  0  0  0  0  0  0  0  0  0
   50.6540   29.3310   32.1270 C   0  0  0  0  0  3  0  0  0  0  0  0
   48.7400   33.5010   38.9470 N   0  0  0  0  0  0  0  0  0  0  0  0
   49.5690   34.1300   38.7850 H   0  0  0  0  0  0  0  0  0  0  0  0
   47.6430   34.3360   42.2270 N   0  0  0  0  0  0  0  0  0  0  0  0
   47.7580   34.7280   40.8370 C   0  0  0  0  0  0  0  0  0  0  0  0
   48.1900   33.4080   40.2580 C   0  0  2  0  0  0  0  0  0  0  0  0
   49.3050   33.0040   41.2010 C   0  0  0  0  0  0  0  0  0  0  0  0
   48.8060   33.5510   42.5200 C   0  0  0  0  0  0  0  0  0  0  0  0
   46.7880   35.0730   40.4320 H   0  0  0  0  0  0  0  0  0  0  0  0
   48.5580   35.4710   40.6870 H   0  0  0  0  0  0  0  0  0  0  0  0
   47.3630   32.6760   40.3710 H   0  0  0  0  0  0  0  0  0  0  0  0
   50.2690   33.5070   40.9340 H   0  0  0  0  0  0  0  0  0  0  0  0
   49.4240   31.9110   41.2160 H   0  0  0  0  0  0  0  0  0  0  0  0
   49.5810   34.1270   43.0730 H   0  0  0  0  0  0  0  0  0  0  0  0
   48.4870   32.6850   43.1350 H   0  0  0  0  0  0  0  0  0  0  0  0
   44.7590   35.8180   44.0640 C   0  0  0  0  0  0  0  0  0  0  0  0
   45.7010   35.6290   43.0650 C   0  0  0  0  0  0  0  0  0  0  0  0
   46.6500   34.6080   43.1810 C   0  0  0  0  0  0  0  0  0  0  0  0
   46.5860   33.8400   44.3010 N   0  0  0  0  0  0  0  0  0  0  0  0
   45.6750   34.0220   45.2680 C   0  0  0  0  0  0  0  0  0  0  0  0
   44.7570   35.0220   45.1400 N   0  0  0  0  0  0  0  0  0  0  0  0
   44.0790   36.6370   43.8640 H   0  0  0  0  0  0  0  0  0  0  0  0
   45.8080   36.1950   42.1590 H   0  0  0  0  0  0  0  0  0  0  0  0
   45.6100   33.4270   46.1580 H   0  0  0  0  0  0  0  0  0  0  0  0
   51.6560   31.6700   37.9800 N   0  0  0  0  0  0  0  0  0  0  0  0
   50.6080   31.8530   37.5440 C   0  0  0  0  0  0  0  0  0  0  0  0
  1 50  1  0  0  0  0
  1  2  1  0  0  0  0
  2 26  1  0  0  0  0
  3  7  1  0  0  0  0
  3  2  2  0  0  0  0
  4  3  1  0  0  0  0
  5  6  1  0  0  0  0
  5  4  2  0  0  0  0
  6  1  2  0  0  0  0
  8  4  1  0  0  0  0
  9  5  1  0  0  0  0
 10 12  1  0  0  0  0
 11 10  2  0  0  0  0
 12 13  1  0  0  0  0
 12  6  1  0  0  0  0
 14 15  1  0  0  0  0
 14 10  1  0  0  0  0
 15 16  1  0  0  0  0
 17 15  2  0  0  0  0
 18 24  1  0  0  0  0
 18 17  1  0  0  0  0
 19 18  2  0  0  0  0
 20 19  1  0  0  0  0
 21 20  1  0  0  0  0
 22 20  2  0  0  0  0
 22 23  1  0  0  0  0
 23 24  2  0  0  0  0
 24 25  1  0  0  0  0
 25 14  2  0  0  0  0
 26 30  1  0  0  0  0
 27 26  1  0  0  0  0
 28 32  1  0  0  0  0
 28 42  1  0  0  0  0
 29 28  1  0  0  0  0
 30 35  1  1  0  0  0
 30 29  1  0  0  0  0
 30 31  1  0  0  0  0
 31 37  1  0  0  0  0
 31 32  1  0  0  0  0
 32 38  1  0  0  0  0
 32 39  1  0  0  0  0
 33 29  1  0  0  0  0
 34 29  1  0  0  0  0
 36 31  1  0  0  0  0
 40 45  1  0  0  0  0
 41 42  1  0  0  0  0
 41 40  2  0  0  0  0
 42 43  2  0  0  0  0
 43 44  1  0  0  0  0
 44 48  1  0  0  0  0
 45 44  2  0  0  0  0
 46 40  1  0  0  0  0
 47 41  1  0  0  0  0
 50 49  3  0  0  0  0
M  END
>  <minimizedAffinity>
-5.9956007

>  <minimizedRMSD>
1.00165427

$$$$
