
 OpenBabel03242520083D

 52 57  0  0  1  0  0  0  0  0999 V2000
   38.5440   30.4030   39.1890 N   0  0  0  0  0  0  0  0  0  0  0  0
   38.3140   31.7220   38.7490 C   0  0  1  0  0  0  0  0  0  0  0  0
   36.9320   32.1380   39.1630 C   0  0  0  0  0  0  0  0  0  0  0  0
   36.9620   32.1700   40.5990 N   0  0  0  0  0  0  0  0  0  0  0  0
   37.1150   30.8500   41.1660 C   0  0  0  0  0  0  0  0  0  0  0  0
   38.0960   29.9690   40.4540 C   0  0  2  0  0  0  0  0  0  0  0  0
   38.3920   29.7350   38.3960 H   0  0  0  0  0  0  0  0  0  0  0  0
   38.3630   31.7780   37.6630 H   0  0  0  0  0  0  0  0  0  0  0  0
   36.6560   33.1590   38.8250 H   0  0  0  0  0  0  0  0  0  0  0  0
   36.1780   31.4040   38.8420 H   0  0  0  0  0  0  0  0  0  0  0  0
   37.5780   32.8840   41.0050 H   0  0  0  0  0  0  0  0  0  0  0  0
   37.3950   31.0460   42.2410 H   0  0  0  0  0  0  0  0  0  0  0  0
   36.0880   30.4360   41.2420 H   0  0  0  0  0  0  0  0  0  0  0  0
   37.5290   29.0130   40.2520 H   0  0  0  0  0  0  0  0  0  0  0  0
   41.1460   33.5530   39.8030 C   0  0  0  0  0  0  0  0  0  0  0  0
   40.1450   34.3480   40.3340 C   0  0  0  0  0  0  0  0  0  0  0  0
   38.9500   33.7810   40.0170 C   0  0  0  0  0  0  0  0  0  0  0  0
   39.2350   32.6590   39.3060 N   0  0  0  0  0  0  0  0  0  0  0  0
   40.5500   32.5440   39.1910 N   0  0  0  0  0  0  0  0  0  0  0  0
   40.2730   35.2450   40.8920 H   0  0  0  0  0  0  0  0  0  0  0  0
   37.9620   34.1340   40.2720 H   0  0  0  0  0  0  0  0  0  0  0  0
   44.6960   33.9390   38.9660 C   0  0  0  0  0  0  0  0  0  0  0  0
   45.2890   34.2650   40.1880 C   0  0  0  0  0  0  0  0  0  0  0  0
   44.4520   34.3480   41.2860 C   0  0  0  0  0  0  0  0  0  0  0  0
   43.1230   34.1080   41.1060 N   0  0  0  0  0  0  0  0  0  0  0  0
   42.5950   33.7960   39.9080 C   0  0  0  0  0  0  0  0  0  0  0  0
   43.3790   33.7090   38.8230 N   0  0  0  0  0  0  0  0  0  0  0  0
   45.2910   33.8540   38.0470 H   0  0  0  0  0  0  0  0  0  0  0  0
   46.3600   34.4370   40.2210 H   0  0  0  0  0  0  0  0  0  0  0  0
   44.8720   34.5970   42.2480 H   0  0  0  0  0  0  0  0  0  0  0  0
   39.2180   29.6790   41.4260 C   0  0  1  0  0  0  0  0  0  0  0  0
   39.0800   30.3210   42.8010 C   0  0  0  0  0  0  0  0  0  0  0  0
   39.0190   28.8480   42.6280 C   0  0  1  0  0  0  0  0  0  0  0  0
   40.2830   29.7520   41.0600 H   0  0  0  0  0  0  0  0  0  0  0  0
   39.9290   30.8030   43.2850 H   0  0  0  0  0  0  0  0  0  0  0  0
   38.0940   30.7880   43.0460 H   0  0  0  0  0  0  0  0  0  0  0  0
   39.8890   28.2640   43.0110 H   0  0  0  0  0  0  0  0  0  0  0  0
   37.7010   28.0950   42.8290 C   0  0  0  0  0  0  0  0  0  0  0  0
   37.4550   27.9720   43.9000 H   0  0  0  0  0  0  0  0  0  0  0  0
   36.8730   28.5400   42.2390 H   0  0  0  0  0  0  0  0  0  0  0  0
   37.8970   26.7120   42.3090 C   0  0  0  0  0  0  0  0  0  0  0  0
   38.9670   25.9600   42.7470 C   0  0  0  0  0  0  0  0  0  0  0  0
   39.6950   26.3300   43.4700 H   0  0  0  0  0  0  0  0  0  0  0  0
   39.1720   24.6740   42.2790 C   0  0  0  0  0  3  0  0  0  0  0  0
   38.2830   24.1620   41.3670 C   0  0  0  0  0  0  0  0  0  0  0  0
   38.4080   22.9260   40.8640 N   0  0  0  0  0  0  0  0  0  0  0  0
   37.5700   22.3740   39.9710 C   0  0  0  0  0  0  0  0  0  0  0  0
   37.6640   21.3890   39.5650 H   0  0  0  0  0  0  0  0  0  0  0  0
   36.4780   23.0790   39.4940 C   0  0  0  0  0  3  0  0  0  0  0  0
   36.2890   24.3730   39.9760 C   0  0  0  0  0  3  0  0  0  0  0  0
   37.1860   24.8810   40.8940 C   0  0  0  0  0  0  0  0  0  0  0  0
   37.0260   26.1620   41.3920 C   0  0  0  0  0  3  0  0  0  0  0  0
  1  6  1  0  0  0  0
  2  8  1  6  0  0  0
  2  3  1  0  0  0  0
  2  1  1  0  0  0  0
  2 18  1  0  0  0  0
  3  4  1  0  0  0  0
  4 11  1  0  0  0  0
  4  5  1  0  0  0  0
  5 13  1  0  0  0  0
  5 12  1  0  0  0  0
  6 14  1  6  0  0  0
  6  5  1  0  0  0  0
  6 31  1  0  0  0  0
  7  1  1  0  0  0  0
  9  3  1  0  0  0  0
 10  3  1  0  0  0  0
 15 26  1  0  0  0  0
 15 16  1  0  0  0  0
 16 20  1  0  0  0  0
 17 21  1  0  0  0  0
 17 16  2  0  0  0  0
 18 17  1  0  0  0  0
 19 18  1  0  0  0  0
 19 15  2  0  0  0  0
 22 23  1  0  0  0  0
 23 29  1  0  0  0  0
 23 24  2  0  0  0  0
 24 30  1  0  0  0  0
 25 24  1  0  0  0  0
 26 25  2  0  0  0  0
 27 22  2  0  0  0  0
 27 26  1  0  0  0  0
 28 22  1  0  0  0  0
 31 34  1  6  0  0  0
 31 33  1  0  0  0  0
 31 32  1  0  0  0  0
 32 36  1  0  0  0  0
 32 35  1  0  0  0  0
 33 32  1  0  0  0  0
 33 38  1  0  0  0  0
 33 37  1  1  0  0  0
 38 39  1  0  0  0  0
 40 38  1  0  0  0  0
 41 42  1  0  0  0  0
 41 38  1  0  0  0  0
 42 43  1  0  0  0  0
 44 42  2  0  0  0  0
 45 44  1  0  0  0  0
 46 45  2  0  0  0  0
 47 46  1  0  0  0  0
 48 47  1  0  0  0  0
 49 47  2  0  0  0  0
 49 50  1  0  0  0  0
 50 51  2  0  0  0  0
 51 45  1  0  0  0  0
 51 52  1  0  0  0  0
 52 41  2  0  0  0  0
M  END
>  <minimizedAffinity>
-6.91910267

$$$$

 OpenBabel03242520083D

 52 57  0  0  1  0  0  0  0  0999 V2000
   35.2210   29.8510   40.3320 N   0  0  0  0  0  0  0  0  0  0  0  0
   36.1990   30.3290   41.2280 C   0  0  1  0  0  0  0  0  0  0  0  0
   36.9670   29.1610   41.7750 C   0  0  0  0  0  0  0  0  0  0  0  0
   37.6620   28.6050   40.6470 N   0  0  0  0  0  0  0  0  0  0  0  0
   36.7550   28.0110   39.6930 C   0  0  0  0  0  0  0  0  0  0  0  0
   35.5040   28.7960   39.4410 C   0  0  2  0  0  0  0  0  0  0  0  0
   34.2920   29.8060   40.8160 H   0  0  0  0  0  0  0  0  0  0  0  0
   35.7320   30.8390   42.0690 H   0  0  0  0  0  0  0  0  0  0  0  0
   37.7400   29.4480   42.5190 H   0  0  0  0  0  0  0  0  0  0  0  0
   36.2950   28.3950   42.1880 H   0  0  0  0  0  0  0  0  0  0  0  0
   38.3780   29.2140   40.2350 H   0  0  0  0  0  0  0  0  0  0  0  0
   37.3850   27.8730   38.7670 H   0  0  0  0  0  0  0  0  0  0  0  0
   36.5880   26.9720   40.0450 H   0  0  0  0  0  0  0  0  0  0  0  0
   34.6650   28.0540   39.5900 H   0  0  0  0  0  0  0  0  0  0  0  0
   38.9950   32.2740   40.2890 C   0  0  0  0  0  0  0  0  0  0  0  0
   38.1100   32.6420   39.2910 C   0  0  0  0  0  0  0  0  0  0  0  0
   36.9460   31.9710   39.4980 C   0  0  0  0  0  0  0  0  0  0  0  0
   37.1320   31.2110   40.6080 N   0  0  0  0  0  0  0  0  0  0  0  0
   38.3620   31.4070   41.0620 N   0  0  0  0  0  0  0  0  0  0  0  0
   38.2960   33.3270   38.4980 H   0  0  0  0  0  0  0  0  0  0  0  0
   36.0410   32.0200   38.9100 H   0  0  0  0  0  0  0  0  0  0  0  0
   42.4750   32.6190   41.3960 C   0  0  0  0  0  0  0  0  0  0  0  0
   42.9370   33.7320   40.6890 C   0  0  0  0  0  0  0  0  0  0  0  0
   42.0370   34.3490   39.8380 C   0  0  0  0  0  0  0  0  0  0  0  0
   40.7770   33.8370   39.7480 N   0  0  0  0  0  0  0  0  0  0  0  0
   40.3760   32.7610   40.4480 C   0  0  0  0  0  0  0  0  0  0  0  0
   41.2240   32.1390   41.2820 N   0  0  0  0  0  0  0  0  0  0  0  0
   43.1270   32.0730   42.0910 H   0  0  0  0  0  0  0  0  0  0  0  0
   43.9610   34.0570   40.8360 H   0  0  0  0  0  0  0  0  0  0  0  0
   42.3560   35.2120   39.2750 H   0  0  0  0  0  0  0  0  0  0  0  0
   35.5330   29.2210   37.9900 C   0  0  1  0  0  0  0  0  0  0  0  0
   35.4250   28.0940   36.9710 C   0  0  0  0  0  0  0  0  0  0  0  0
   34.3510   29.1080   37.1160 C   0  0  1  0  0  0  0  0  0  0  0  0
   36.3050   29.9780   37.6630 H   0  0  0  0  0  0  0  0  0  0  0  0
   36.0680   28.0670   36.0910 H   0  0  0  0  0  0  0  0  0  0  0  0
   35.1470   27.0840   37.3600 H   0  0  0  0  0  0  0  0  0  0  0  0
   34.2420   29.8440   36.2830 H   0  0  0  0  0  0  0  0  0  0  0  0
   32.9930   28.7240   37.7100 C   0  0  0  0  0  0  0  0  0  0  0  0
   32.6500   27.7360   37.3500 H   0  0  0  0  0  0  0  0  0  0  0  0
   32.9820   28.8140   38.8160 H   0  0  0  0  0  0  0  0  0  0  0  0
   31.9920   29.7000   37.1940 C   0  0  0  0  0  0  0  0  0  0  0  0
   31.0290   30.2090   38.0420 C   0  0  0  0  0  0  0  0  0  0  0  0
   30.9590   29.9290   39.0930 H   0  0  0  0  0  0  0  0  0  0  0  0
   30.0890   31.1150   37.5880 C   0  0  0  0  0  3  0  0  0  0  0  0
   30.1350   31.5000   36.2700 C   0  0  0  0  0  0  0  0  0  0  0  0
   29.2620   32.3730   35.7490 N   0  0  0  0  0  0  0  0  0  0  0  0
   29.2600   32.7840   34.4710 C   0  0  0  0  0  0  0  0  0  0  0  0
   28.5660   33.4810   34.0480 H   0  0  0  0  0  0  0  0  0  0  0  0
   30.2000   32.3090   33.5720 C   0  0  0  0  0  3  0  0  0  0  0  0
   31.1390   31.3960   34.0490 C   0  0  0  0  0  3  0  0  0  0  0  0
   31.0870   31.0150   35.3740 C   0  0  0  0  0  0  0  0  0  0  0  0
   32.0050   30.1100   35.8770 C   0  0  0  0  0  3  0  0  0  0  0  0
  1  7  1  0  0  0  0
  1  2  1  0  0  0  0
  2  3  1  0  0  0  0
  2  8  1  1  0  0  0
  3 10  1  0  0  0  0
  3  9  1  0  0  0  0
  4  3  1  0  0  0  0
  5 13  1  0  0  0  0
  5  4  1  0  0  0  0
  6 14  1  1  0  0  0
  6  5  1  0  0  0  0
  6  1  1  0  0  0  0
 11  4  1  0  0  0  0
 12  5  1  0  0  0  0
 15 26  1  0  0  0  0
 15 19  2  0  0  0  0
 16 17  2  0  0  0  0
 16 15  1  0  0  0  0
 17 18  1  0  0  0  0
 18 19  1  0  0  0  0
 18  2  1  0  0  0  0
 20 16  1  0  0  0  0
 21 17  1  0  0  0  0
 22 28  1  0  0  0  0
 23 29  1  0  0  0  0
 23 22  2  0  0  0  0
 24 23  1  0  0  0  0
 25 24  2  0  0  0  0
 25 26  1  0  0  0  0
 26 27  2  0  0  0  0
 27 22  1  0  0  0  0
 30 24  1  0  0  0  0
 31 34  1  6  0  0  0
 31  6  1  0  0  0  0
 32 33  1  0  0  0  0
 32 36  1  0  0  0  0
 32 31  1  0  0  0  0
 33 37  1  6  0  0  0
 33 38  1  0  0  0  0
 33 31  1  0  0  0  0
 35 32  1  0  0  0  0
 38 40  1  0  0  0  0
 39 38  1  0  0  0  0
 41 38  1  0  0  0  0
 41 42  1  0  0  0  0
 42 43  1  0  0  0  0
 44 42  2  0  0  0  0
 45 44  1  0  0  0  0
 46 45  1  0  0  0  0
 47 46  2  0  0  0  0
 48 47  1  0  0  0  0
 49 50  2  0  0  0  0
 49 47  1  0  0  0  0
 50 51  1  0  0  0  0
 51 52  1  0  0  0  0
 51 45  2  0  0  0  0
 52 41  2  0  0  0  0
M  END
>  <minimizedAffinity>
-6.84721565

$$$$

 OpenBabel03242520083D

 52 57  0  0  1  0  0  0  0  0999 V2000
   38.2440   31.9170   41.2240 N   0  0  0  0  0  0  0  0  0  0  0  0
   37.2090   31.9030   40.2680 C   0  0  1  0  0  0  0  0  0  0  0  0
   37.3220   33.1310   39.4120 C   0  0  0  0  0  0  0  0  0  0  0  0
   38.5590   32.9800   38.6980 N   0  0  0  0  0  0  0  0  0  0  0  0
   39.7030   33.0600   39.5760 C   0  0  0  0  0  0  0  0  0  0  0  0
   39.5450   32.3430   40.8830 C   0  0  2  0  0  0  0  0  0  0  0  0
   37.8740   32.2670   42.1400 H   0  0  0  0  0  0  0  0  0  0  0  0
   36.2360   31.9300   40.7560 H   0  0  0  0  0  0  0  0  0  0  0  0
   36.5190   33.2150   38.6500 H   0  0  0  0  0  0  0  0  0  0  0  0
   37.3760   34.0430   40.0240 H   0  0  0  0  0  0  0  0  0  0  0  0
   38.5840   32.1990   38.0320 H   0  0  0  0  0  0  0  0  0  0  0  0
   40.5540   32.6600   38.9530 H   0  0  0  0  0  0  0  0  0  0  0  0
   39.9380   34.1400   39.6650 H   0  0  0  0  0  0  0  0  0  0  0  0
   39.8170   33.1110   41.6660 H   0  0  0  0  0  0  0  0  0  0  0  0
   36.9590   29.5710   37.6260 C   0  0  0  0  0  0  0  0  0  0  0  0
   37.6360   28.7990   38.5540 C   0  0  0  0  0  0  0  0  0  0  0  0
   37.8260   29.5560   39.6670 C   0  0  0  0  0  0  0  0  0  0  0  0
   37.2670   30.7660   39.4080 N   0  0  0  0  0  0  0  0  0  0  0  0
   36.7570   30.7520   38.1850 N   0  0  0  0  0  0  0  0  0  0  0  0
   37.9570   27.7920   38.4300 H   0  0  0  0  0  0  0  0  0  0  0  0
   38.3180   29.2710   40.5850 H   0  0  0  0  0  0  0  0  0  0  0  0
   36.1270   29.5950   34.0530 C   0  0  0  0  0  0  0  0  0  0  0  0
   35.7690   28.2710   33.7890 C   0  0  0  0  0  0  0  0  0  0  0  0
   35.8200   27.3870   34.8520 C   0  0  0  0  0  0  0  0  0  0  0  0
   36.2110   27.8590   36.0690 N   0  0  0  0  0  0  0  0  0  0  0  0
   36.5470   29.1450   36.2770 C   0  0  0  0  0  0  0  0  0  0  0  0
   36.5090   30.0290   35.2680 N   0  0  0  0  0  0  0  0  0  0  0  0
   36.1140   30.3590   33.2640 H   0  0  0  0  0  0  0  0  0  0  0  0
   35.4730   28.0000   32.7810 H   0  0  0  0  0  0  0  0  0  0  0  0
   35.5510   26.3550   34.6880 H   0  0  0  0  0  0  0  0  0  0  0  0
   40.5700   31.2310   40.9050 C   0  0  1  0  0  0  0  0  0  0  0  0
   41.6220   31.3280   42.0030 C   0  0  0  0  0  0  0  0  0  0  0  0
   40.6200   30.2340   41.9900 C   0  0  1  0  0  0  0  0  0  0  0  0
   41.0420   30.9110   39.9310 H   0  0  0  0  0  0  0  0  0  0  0  0
   42.6750   31.1410   41.7930 H   0  0  0  0  0  0  0  0  0  0  0  0
   41.4490   32.0880   42.8050 H   0  0  0  0  0  0  0  0  0  0  0  0
   40.9990   29.2120   41.7450 H   0  0  0  0  0  0  0  0  0  0  0  0
   39.5060   30.1850   43.0390 C   0  0  0  0  0  0  0  0  0  0  0  0
   39.9080   30.1820   44.0690 H   0  0  0  0  0  0  0  0  0  0  0  0
   38.7420   30.9720   42.8700 H   0  0  0  0  0  0  0  0  0  0  0  0
   38.8090   28.8760   42.8850 C   0  0  0  0  0  0  0  0  0  0  0  0
   37.4720   28.7690   43.2080 C   0  0  0  0  0  0  0  0  0  0  0  0
   36.8830   29.6080   43.5780 H   0  0  0  0  0  0  0  0  0  0  0  0
   36.8030   27.5650   43.0740 C   0  0  0  0  0  3  0  0  0  0  0  0
   37.5020   26.4780   42.6110 C   0  0  0  0  0  0  0  0  0  0  0  0
   36.9290   25.2760   42.4530 N   0  0  0  0  0  0  0  0  0  0  0  0
   37.5630   24.1790   42.0050 C   0  0  0  0  0  0  0  0  0  0  0  0
   37.1130   23.2170   41.8760 H   0  0  0  0  0  0  0  0  0  0  0  0
   38.9040   24.2250   41.6650 C   0  0  0  0  0  3  0  0  0  0  0  0
   39.5610   25.4460   41.8070 C   0  0  0  0  0  3  0  0  0  0  0  0
   38.8530   26.5350   42.2720 C   0  0  0  0  0  0  0  0  0  0  0  0
   39.4760   27.7600   42.4240 C   0  0  0  0  0  3  0  0  0  0  0  0
  1  7  1  0  0  0  0
  2  8  1  1  0  0  0
  2  1  1  0  0  0  0
  3 10  1  0  0  0  0
  3  2  1  0  0  0  0
  4  3  1  0  0  0  0
  4  5  1  0  0  0  0
  5 13  1  0  0  0  0
  5  6  1  0  0  0  0
  6 31  1  0  0  0  0
  6  1  1  0  0  0  0
  6 14  1  1  0  0  0
  9  3  1  0  0  0  0
 11  4  1  0  0  0  0
 12  5  1  0  0  0  0
 15 19  2  0  0  0  0
 15 16  1  0  0  0  0
 16 17  2  0  0  0  0
 17 21  1  0  0  0  0
 18 17  1  0  0  0  0
 18  2  1  0  0  0  0
 19 18  1  0  0  0  0
 20 16  1  0  0  0  0
 22 27  1  0  0  0  0
 23 22  2  0  0  0  0
 23 24  1  0  0  0  0
 24 25  2  0  0  0  0
 25 26  1  0  0  0  0
 26 15  1  0  0  0  0
 27 26  2  0  0  0  0
 28 22  1  0  0  0  0
 29 23  1  0  0  0  0
 30 24  1  0  0  0  0
 31 34  1  6  0  0  0
 31 33  1  0  0  0  0
 31 32  1  0  0  0  0
 32 36  1  0  0  0  0
 33 37  1  6  0  0  0
 33 32  1  0  0  0  0
 33 38  1  0  0  0  0
 35 32  1  0  0  0  0
 38 39  1  0  0  0  0
 40 38  1  0  0  0  0
 41 38  1  0  0  0  0
 41 42  1  0  0  0  0
 42 43  1  0  0  0  0
 44 42  2  0  0  0  0
 45 44  1  0  0  0  0
 46 45  1  0  0  0  0
 47 46  2  0  0  0  0
 48 47  1  0  0  0  0
 49 50  2  0  0  0  0
 49 47  1  0  0  0  0
 50 51  1  0  0  0  0
 51 52  1  0  0  0  0
 51 45  2  0  0  0  0
 52 41  2  0  0  0  0
M  END
>  <minimizedAffinity>
-6.50737476

$$$$

 OpenBabel03242520083D

 52 57  0  0  1  0  0  0  0  0999 V2000
   35.8130   29.6970   41.2640 N   0  0  0  0  0  0  0  0  0  0  0  0
   36.7880   29.5210   42.2670 C   0  0  1  0  0  0  0  0  0  0  0  0
   36.8750   28.0630   42.6100 C   0  0  0  0  0  0  0  0  0  0  0  0
   37.3700   27.4240   41.4230 N   0  0  0  0  0  0  0  0  0  0  0  0
   36.4120   27.4730   40.3430 C   0  0  0  0  0  0  0  0  0  0  0  0
   35.6910   28.7790   40.2000 C   0  0  2  0  0  0  0  0  0  0  0  0
   34.9150   30.0170   41.6980 H   0  0  0  0  0  0  0  0  0  0  0  0
   36.5070   30.0570   43.1730 H   0  0  0  0  0  0  0  0  0  0  0  0
   37.6000   27.8400   43.4210 H   0  0  0  0  0  0  0  0  0  0  0  0
   35.8850   27.6460   42.8480 H   0  0  0  0  0  0  0  0  0  0  0  0
   38.3270   27.6840   41.1580 H   0  0  0  0  0  0  0  0  0  0  0  0
   37.0150   27.1990   39.4300 H   0  0  0  0  0  0  0  0  0  0  0  0
   35.7530   26.5920   40.4870 H   0  0  0  0  0  0  0  0  0  0  0  0
   34.5960   28.5010   40.1770 H   0  0  0  0  0  0  0  0  0  0  0  0
   39.6060   30.8550   40.6050 C   0  0  0  0  0  0  0  0  0  0  0  0
   40.2200   30.3600   41.7430 C   0  0  0  0  0  0  0  0  0  0  0  0
   39.2600   29.7950   42.5220 C   0  0  0  0  0  0  0  0  0  0  0  0
   38.0860   29.9490   41.8570 N   0  0  0  0  0  0  0  0  0  0  0  0
   38.3160   30.5850   40.7170 N   0  0  0  0  0  0  0  0  0  0  0  0
   41.2570   30.4080   41.9780 H   0  0  0  0  0  0  0  0  0  0  0  0
   39.3850   29.3130   43.4810 H   0  0  0  0  0  0  0  0  0  0  0  0
   41.0800   33.4660   38.4920 C   0  0  0  0  0  0  0  0  0  0  0  0
   41.5290   32.7670   37.3690 C   0  0  0  0  0  0  0  0  0  0  0  0
   41.3150   31.4000   37.3580 C   0  0  0  0  0  0  0  0  0  0  0  0
   40.6900   30.8350   38.4280 N   0  0  0  0  0  0  0  0  0  0  0  0
   40.2740   31.5480   39.4900 C   0  0  0  0  0  0  0  0  0  0  0  0
   40.4670   32.8760   39.5330 N   0  0  0  0  0  0  0  0  0  0  0  0
   41.2120   34.5530   38.5790 H   0  0  0  0  0  0  0  0  0  0  0  0
   42.0160   33.3170   36.5710 H   0  0  0  0  0  0  0  0  0  0  0  0
   41.6470   30.8260   36.5080 H   0  0  0  0  0  0  0  0  0  0  0  0
   36.0800   29.3560   38.8570 C   0  0  1  0  0  0  0  0  0  0  0  0
   36.5440   28.3450   37.8160 C   0  0  0  0  0  0  0  0  0  0  0  0
   35.2860   29.1110   37.6390 C   0  0  1  0  0  0  0  0  0  0  0  0
   36.7320   30.2780   38.8330 H   0  0  0  0  0  0  0  0  0  0  0  0
   37.4210   28.5370   37.1970 H   0  0  0  0  0  0  0  0  0  0  0  0
   36.3850   27.2640   38.0530 H   0  0  0  0  0  0  0  0  0  0  0  0
   35.2870   29.8970   36.8460 H   0  0  0  0  0  0  0  0  0  0  0  0
   33.9280   28.4110   37.7370 C   0  0  0  0  0  0  0  0  0  0  0  0
   33.9520   27.4000   37.2900 H   0  0  0  0  0  0  0  0  0  0  0  0
   33.5290   28.4210   38.7730 H   0  0  0  0  0  0  0  0  0  0  0  0
   32.9680   29.1880   36.9030 C   0  0  0  0  0  0  0  0  0  0  0  0
   33.1780   29.3060   35.5450 C   0  0  0  0  0  0  0  0  0  0  0  0
   34.0290   28.8520   35.0360 H   0  0  0  0  0  0  0  0  0  0  0  0
   32.3030   30.0220   34.7490 C   0  0  0  0  0  3  0  0  0  0  0  0
   31.2150   30.6130   35.3430 C   0  0  0  0  0  0  0  0  0  0  0  0
   30.3180   31.3240   34.6450 N   0  0  0  0  0  0  0  0  0  0  0  0
   29.2380   31.9230   35.1720 C   0  0  0  0  0  0  0  0  0  0  0  0
   28.5180   32.4920   34.6220 H   0  0  0  0  0  0  0  0  0  0  0  0
   28.9720   31.8400   36.5290 C   0  0  0  0  0  3  0  0  0  0  0  0
   29.8670   31.1140   37.3140 C   0  0  0  0  0  3  0  0  0  0  0  0
   30.9580   30.5220   36.7100 C   0  0  0  0  0  0  0  0  0  0  0  0
   31.8630   29.7960   37.4630 C   0  0  0  0  0  3  0  0  0  0  0  0
  1  7  1  0  0  0  0
  1  2  1  0  0  0  0
  2  3  1  0  0  0  0
  2  8  1  1  0  0  0
  3 10  1  0  0  0  0
  3  9  1  0  0  0  0
  4  3  1  0  0  0  0
  5 13  1  0  0  0  0
  5  4  1  0  0  0  0
  6 14  1  6  0  0  0
  6  5  1  0  0  0  0
  6  1  1  0  0  0  0
 11  4  1  0  0  0  0
 12  5  1  0  0  0  0
 15 19  2  0  0  0  0
 15 16  1  0  0  0  0
 16 20  1  0  0  0  0
 16 17  2  0  0  0  0
 17 21  1  0  0  0  0
 18  2  1  0  0  0  0
 18 17  1  0  0  0  0
 19 18  1  0  0  0  0
 22 28  1  0  0  0  0
 22 27  1  0  0  0  0
 23 22  2  0  0  0  0
 24 23  1  0  0  0  0
 24 25  2  0  0  0  0
 25 26  1  0  0  0  0
 26 27  2  0  0  0  0
 26 15  1  0  0  0  0
 29 23  1  0  0  0  0
 30 24  1  0  0  0  0
 31 34  1  1  0  0  0
 31  6  1  0  0  0  0
 32 36  1  0  0  0  0
 32 31  1  0  0  0  0
 33 37  1  6  0  0  0
 33 38  1  0  0  0  0
 33 32  1  0  0  0  0
 33 31  1  0  0  0  0
 35 32  1  0  0  0  0
 38 40  1  0  0  0  0
 39 38  1  0  0  0  0
 41 52  1  0  0  0  0
 41 38  1  0  0  0  0
 42 41  2  0  0  0  0
 43 42  1  0  0  0  0
 44 45  2  0  0  0  0
 44 42  1  0  0  0  0
 45 51  1  0  0  0  0
 46 47  2  0  0  0  0
 46 45  1  0  0  0  0
 47 49  1  0  0  0  0
 48 47  1  0  0  0  0
 49 50  2  0  0  0  0
 51 50  1  0  0  0  0
 51 52  2  0  0  0  0
M  END
>  <minimizedAffinity>
-6.37775946

$$$$

 OpenBabel03242520083D

 52 57  0  0  1  0  0  0  0  0999 V2000
   36.2160   27.2680   40.0260 N   0  0  0  0  0  0  0  0  0  0  0  0
   37.0560   27.1000   41.1450 C   0  0  1  0  0  0  0  0  0  0  0  0
   38.1210   26.0980   40.8050 C   0  0  0  0  0  0  0  0  0  0  0  0
   38.9070   26.7170   39.7750 N   0  0  0  0  0  0  0  0  0  0  0  0
   38.1650   26.8670   38.5450 C   0  0  0  0  0  0  0  0  0  0  0  0
   36.7440   27.3110   38.7180 C   0  0  2  0  0  0  0  0  0  0  0  0
   35.3460   26.6970   40.1490 H   0  0  0  0  0  0  0  0  0  0  0  0
   36.4940   26.7090   41.9910 H   0  0  0  0  0  0  0  0  0  0  0  0
   38.8100   25.8800   41.6490 H   0  0  0  0  0  0  0  0  0  0  0  0
   37.6860   25.1680   40.4080 H   0  0  0  0  0  0  0  0  0  0  0  0
   39.4250   27.5530   40.0680 H   0  0  0  0  0  0  0  0  0  0  0  0
   38.7830   27.5910   37.9400 H   0  0  0  0  0  0  0  0  0  0  0  0
   38.2880   25.9080   38.0010 H   0  0  0  0  0  0  0  0  0  0  0  0
   36.1350   26.5610   38.1320 H   0  0  0  0  0  0  0  0  0  0  0  0
   38.3560   30.3730   41.4210 C   0  0  0  0  0  0  0  0  0  0  0  0
   38.8520   29.8270   42.5910 C   0  0  0  0  0  0  0  0  0  0  0  0
   38.4390   28.5330   42.6550 C   0  0  0  0  0  0  0  0  0  0  0  0
   37.7050   28.3080   41.5350 N   0  0  0  0  0  0  0  0  0  0  0  0
   37.6680   29.4200   40.8140 N   0  0  0  0  0  0  0  0  0  0  0  0
   39.4510   30.3200   43.3200 H   0  0  0  0  0  0  0  0  0  0  0  0
   38.6440   27.8110   43.4320 H   0  0  0  0  0  0  0  0  0  0  0  0
   39.9020   33.6060   40.6380 C   0  0  0  0  0  0  0  0  0  0  0  0
   38.8640   34.3350   40.0520 C   0  0  0  0  0  0  0  0  0  0  0  0
   37.6420   33.6960   39.9350 C   0  0  0  0  0  0  0  0  0  0  0  0
   37.5330   32.4180   40.3940 N   0  0  0  0  0  0  0  0  0  0  0  0
   38.5620   31.7540   40.9520 C   0  0  0  0  0  0  0  0  0  0  0  0
   39.7600   32.3440   41.0800 N   0  0  0  0  0  0  0  0  0  0  0  0
   40.9020   34.0410   40.7680 H   0  0  0  0  0  0  0  0  0  0  0  0
   39.0590   35.3490   39.7200 H   0  0  0  0  0  0  0  0  0  0  0  0
   36.8160   34.2260   39.4880 H   0  0  0  0  0  0  0  0  0  0  0  0
   36.6200   28.6680   38.0610 C   0  0  1  0  0  0  0  0  0  0  0  0
   36.5110   28.6560   36.5420 C   0  0  0  0  0  0  0  0  0  0  0  0
   35.3810   29.1040   37.3920 C   0  0  1  0  0  0  0  0  0  0  0  0
   37.3030   29.4990   38.4030 H   0  0  0  0  0  0  0  0  0  0  0  0
   37.0790   29.3580   35.9310 H   0  0  0  0  0  0  0  0  0  0  0  0
   36.3430   27.6640   36.0530 H   0  0  0  0  0  0  0  0  0  0  0  0
   35.1490   30.1960   37.3790 H   0  0  0  0  0  0  0  0  0  0  0  0
   34.1090   28.2580   37.5060 C   0  0  0  0  0  0  0  0  0  0  0  0
   34.1510   27.3610   36.8610 H   0  0  0  0  0  0  0  0  0  0  0  0
   33.8580   28.0260   38.5610 H   0  0  0  0  0  0  0  0  0  0  0  0
   32.9840   29.0760   36.9710 C   0  0  0  0  0  0  0  0  0  0  0  0
   32.9200   29.3550   35.6210 C   0  0  0  0  0  0  0  0  0  0  0  0
   33.6650   29.0020   34.9080 H   0  0  0  0  0  0  0  0  0  0  0  0
   31.8860   30.1120   35.0990 C   0  0  0  0  0  3  0  0  0  0  0  0
   30.9220   30.5790   35.9580 C   0  0  0  0  0  0  0  0  0  0  0  0
   29.8870   31.3200   35.5350 N   0  0  0  0  0  0  0  0  0  0  0  0
   28.9170   31.8030   36.3280 C   0  0  0  0  0  0  0  0  0  0  0  0
   28.0890   32.3940   35.9980 H   0  0  0  0  0  0  0  0  0  0  0  0
   28.9270   31.5570   37.6910 C   0  0  0  0  0  3  0  0  0  0  0  0
   29.9770   30.7930   38.1970 C   0  0  0  0  0  3  0  0  0  0  0  0
   30.9420   30.3250   37.3280 C   0  0  0  0  0  0  0  0  0  0  0  0
   31.9960   29.5640   37.8000 C   0  0  0  0  0  3  0  0  0  0  0  0
  1  7  1  0  0  0  0
  1  2  1  0  0  0  0
  2 18  1  0  0  0  0
  2  8  1  1  0  0  0
  3  2  1  0  0  0  0
  3  9  1  0  0  0  0
  4 11  1  0  0  0  0
  4  3  1  0  0  0  0
  5  6  1  0  0  0  0
  5  4  1  0  0  0  0
  6 14  1  6  0  0  0
  6  1  1  0  0  0  0
 10  3  1  0  0  0  0
 12  5  1  0  0  0  0
 13  5  1  0  0  0  0
 15 16  1  0  0  0  0
 16 17  2  0  0  0  0
 16 20  1  0  0  0  0
 17 21  1  0  0  0  0
 18 17  1  0  0  0  0
 19 15  2  0  0  0  0
 19 18  1  0  0  0  0
 22 28  1  0  0  0  0
 22 27  1  0  0  0  0
 23 22  2  0  0  0  0
 24 23  1  0  0  0  0
 24 25  2  0  0  0  0
 25 26  1  0  0  0  0
 26 27  2  0  0  0  0
 26 15  1  0  0  0  0
 29 23  1  0  0  0  0
 30 24  1  0  0  0  0
 31 34  1  1  0  0  0
 31  6  1  0  0  0  0
 32 33  1  0  0  0  0
 32 31  1  0  0  0  0
 33 37  1  1  0  0  0
 33 38  1  0  0  0  0
 33 31  1  0  0  0  0
 35 32  1  0  0  0  0
 36 32  1  0  0  0  0
 38 40  1  0  0  0  0
 39 38  1  0  0  0  0
 41 38  1  0  0  0  0
 41 52  1  0  0  0  0
 42 41  2  0  0  0  0
 43 42  1  0  0  0  0
 44 42  1  0  0  0  0
 44 45  2  0  0  0  0
 45 51  1  0  0  0  0
 46 45  1  0  0  0  0
 46 47  2  0  0  0  0
 47 49  1  0  0  0  0
 48 47  1  0  0  0  0
 49 50  2  0  0  0  0
 51 52  2  0  0  0  0
 51 50  1  0  0  0  0
M  END
>  <minimizedAffinity>
-6.37674475

$$$$

 OpenBabel03242520083D

 52 57  0  0  1  0  0  0  0  0999 V2000
   39.8800   32.4760   41.5210 N   0  0  0  0  0  0  0  0  0  0  0  0
   38.7300   32.9970   40.8950 C   0  0  1  0  0  0  0  0  0  0  0  0
   39.0810   34.3040   40.2460 C   0  0  0  0  0  0  0  0  0  0  0  0
   40.0130   33.9700   39.2060 N   0  0  0  0  0  0  0  0  0  0  0  0
   41.2700   33.4960   39.7380 C   0  0  0  0  0  0  0  0  0  0  0  0
   41.1470   32.5670   40.9070 C   0  0  2  0  0  0  0  0  0  0  0  0
   39.8520   32.6900   42.5460 H   0  0  0  0  0  0  0  0  0  0  0  0
   37.9500   33.1930   41.6290 H   0  0  0  0  0  0  0  0  0  0  0  0
   38.2170   34.8020   39.7560 H   0  0  0  0  0  0  0  0  0  0  0  0
   39.5720   34.9860   40.9550 H   0  0  0  0  0  0  0  0  0  0  0  0
   39.6280   33.4000   38.4440 H   0  0  0  0  0  0  0  0  0  0  0  0
   41.7810   33.0240   38.8500 H   0  0  0  0  0  0  0  0  0  0  0  0
   41.8770   34.4050   39.9280 H   0  0  0  0  0  0  0  0  0  0  0  0
   41.8240   33.0100   41.6970 H   0  0  0  0  0  0  0  0  0  0  0  0
   37.9470   30.3230   38.7230 C   0  0  0  0  0  0  0  0  0  0  0  0
   37.1110   31.2960   38.2050 C   0  0  0  0  0  0  0  0  0  0  0  0
   37.2830   32.4280   38.9380 C   0  0  0  0  0  0  0  0  0  0  0  0
   38.2120   32.1340   39.8840 N   0  0  0  0  0  0  0  0  0  0  0  0
   38.5930   30.8740   39.7370 N   0  0  0  0  0  0  0  0  0  0  0  0
   36.4470   31.1900   37.3790 H   0  0  0  0  0  0  0  0  0  0  0  0
   36.7900   33.3800   38.8100 H   0  0  0  0  0  0  0  0  0  0  0  0
   37.9200   26.6600   38.5330 C   0  0  0  0  0  0  0  0  0  0  0  0
   38.3600   26.3940   37.2350 C   0  0  0  0  0  0  0  0  0  0  0  0
   38.6600   27.4870   36.4410 C   0  0  0  0  0  0  0  0  0  0  0  0
   38.5100   28.7320   36.9720 N   0  0  0  0  0  0  0  0  0  0  0  0
   38.0820   28.9420   38.2300 C   0  0  0  0  0  0  0  0  0  0  0  0
   37.7810   27.9040   39.0260 N   0  0  0  0  0  0  0  0  0  0  0  0
   37.6610   25.8480   39.2270 H   0  0  0  0  0  0  0  0  0  0  0  0
   38.4450   25.3620   36.9120 H   0  0  0  0  0  0  0  0  0  0  0  0
   39.0040   27.3220   35.4320 H   0  0  0  0  0  0  0  0  0  0  0  0
   41.7060   31.2310   40.4730 C   0  0  1  0  0  0  0  0  0  0  0  0
   42.9850   30.7930   41.1750 C   0  0  0  0  0  0  0  0  0  0  0  0
   41.7110   30.0570   41.3640 C   0  0  1  0  0  0  0  0  0  0  0  0
   41.7610   31.0000   39.3690 H   0  0  0  0  0  0  0  0  0  0  0  0
   43.8150   30.3620   40.6150 H   0  0  0  0  0  0  0  0  0  0  0  0
   43.3020   31.3850   42.0690 H   0  0  0  0  0  0  0  0  0  0  0  0
   41.6450   29.0440   40.8970 H   0  0  0  0  0  0  0  0  0  0  0  0
   40.9740   30.1090   42.7050 C   0  0  0  0  0  0  0  0  0  0  0  0
   41.6270   29.8140   43.5470 H   0  0  0  0  0  0  0  0  0  0  0  0
   40.4690   31.0840   42.8640 H   0  0  0  0  0  0  0  0  0  0  0  0
   39.8990   29.0760   42.6610 C   0  0  0  0  0  0  0  0  0  0  0  0
   38.6160   29.4050   43.0450 C   0  0  0  0  0  0  0  0  0  0  0  0
   38.3380   30.4020   43.3880 H   0  0  0  0  0  0  0  0  0  0  0  0
   37.6010   28.4660   43.0130 C   0  0  0  0  0  3  0  0  0  0  0  0
   37.9010   27.1950   42.5880 C   0  0  0  0  0  0  0  0  0  0  0  0
   36.9780   26.2250   42.5270 N   0  0  0  0  0  0  0  0  0  0  0  0
   37.2140   24.9670   42.1200 C   0  0  0  0  0  0  0  0  0  0  0  0
   36.4820   24.1880   42.0690 H   0  0  0  0  0  0  0  0  0  0  0  0
   38.4810   24.5770   41.7220 C   0  0  0  0  0  3  0  0  0  0  0  0
   39.4910   25.5380   41.7620 C   0  0  0  0  0  3  0  0  0  0  0  0
   39.1810   26.8130   42.1890 C   0  0  0  0  0  0  0  0  0  0  0  0
   40.1610   27.7890   42.2400 C   0  0  0  0  0  3  0  0  0  0  0  0
  1  7  1  0  0  0  0
  2  1  1  0  0  0  0
  2  8  1  1  0  0  0
  3  2  1  0  0  0  0
  3 10  1  0  0  0  0
  4  5  1  0  0  0  0
  4  3  1  0  0  0  0
  5 13  1  0  0  0  0
  5  6  1  0  0  0  0
  6  1  1  0  0  0  0
  6 14  1  1  0  0  0
  9  3  1  0  0  0  0
 11  4  1  0  0  0  0
 12  5  1  0  0  0  0
 15 19  2  0  0  0  0
 16 15  1  0  0  0  0
 16 17  2  0  0  0  0
 17 18  1  0  0  0  0
 18  2  1  0  0  0  0
 19 18  1  0  0  0  0
 20 16  1  0  0  0  0
 21 17  1  0  0  0  0
 22 27  1  0  0  0  0
 22 28  1  0  0  0  0
 23 22  2  0  0  0  0
 24 25  2  0  0  0  0
 24 23  1  0  0  0  0
 25 26  1  0  0  0  0
 26 15  1  0  0  0  0
 26 27  2  0  0  0  0
 29 23  1  0  0  0  0
 30 24  1  0  0  0  0
 31 34  1  6  0  0  0
 31  6  1  0  0  0  0
 31 32  1  0  0  0  0
 31 33  1  0  0  0  0
 32 33  1  0  0  0  0
 32 36  1  0  0  0  0
 33 37  1  6  0  0  0
 33 38  1  0  0  0  0
 35 32  1  0  0  0  0
 38 40  1  0  0  0  0
 38 39  1  0  0  0  0
 41 38  1  0  0  0  0
 41 42  1  0  0  0  0
 42 43  1  0  0  0  0
 44 42  2  0  0  0  0
 45 44  1  0  0  0  0
 46 45  1  0  0  0  0
 47 46  2  0  0  0  0
 48 47  1  0  0  0  0
 49 50  2  0  0  0  0
 49 47  1  0  0  0  0
 50 51  1  0  0  0  0
 51 52  1  0  0  0  0
 51 45  2  0  0  0  0
 52 41  2  0  0  0  0
M  END
>  <minimizedAffinity>
-6.33314419

$$$$

 OpenBabel03242520083D

 52 57  0  0  1  0  0  0  0  0999 V2000
   38.9370   25.7330   40.9530 N   0  0  0  0  0  0  0  0  0  0  0  0
   38.9500   24.7670   39.9270 C   0  0  1  0  0  0  0  0  0  0  0  0
   38.7740   23.4080   40.5390 C   0  0  0  0  0  0  0  0  0  0  0  0
   37.4510   23.4130   41.0980 N   0  0  0  0  0  0  0  0  0  0  0  0
   37.3410   24.3180   42.2180 C   0  0  0  0  0  0  0  0  0  0  0  0
   38.0430   25.6300   42.0390 C   0  0  2  0  0  0  0  0  0  0  0  0
   39.9200   26.0060   41.1930 H   0  0  0  0  0  0  0  0  0  0  0  0
   39.9070   24.7730   39.4070 H   0  0  0  0  0  0  0  0  0  0  0  0
   38.8070   22.5800   39.7980 H   0  0  0  0  0  0  0  0  0  0  0  0
   39.4990   23.2340   41.3480 H   0  0  0  0  0  0  0  0  0  0  0  0
   36.6900   23.4870   40.4120 H   0  0  0  0  0  0  0  0  0  0  0  0
   36.2290   24.4290   42.3720 H   0  0  0  0  0  0  0  0  0  0  0  0
   37.6650   23.7360   43.1060 H   0  0  0  0  0  0  0  0  0  0  0  0
   38.6890   25.7380   42.9610 H   0  0  0  0  0  0  0  0  0  0  0  0
   36.3310   25.9750   37.8870 C   0  0  0  0  0  0  0  0  0  0  0  0
   36.4290   24.6840   37.3980 C   0  0  0  0  0  0  0  0  0  0  0  0
   37.4170   24.0520   38.0870 C   0  0  0  0  0  0  0  0  0  0  0  0
   37.9020   24.9550   38.9770 N   0  0  0  0  0  0  0  0  0  0  0  0
   37.2400   26.0950   38.8400 N   0  0  0  0  0  0  0  0  0  0  0  0
   35.8430   24.2510   36.6220 H   0  0  0  0  0  0  0  0  0  0  0  0
   37.7610   23.0350   37.9660 H   0  0  0  0  0  0  0  0  0  0  0  0
   33.2870   27.6700   36.7370 C   0  0  0  0  0  0  0  0  0  0  0  0
   33.6920   28.9960   36.5680 C   0  0  0  0  0  0  0  0  0  0  0  0
   35.0140   29.2860   36.8550 C   0  0  0  0  0  0  0  0  0  0  0  0
   35.8220   28.2730   37.2760 N   0  0  0  0  0  0  0  0  0  0  0  0
   35.3890   27.0090   37.4250 C   0  0  0  0  0  0  0  0  0  0  0  0
   34.1120   26.6930   37.1560 N   0  0  0  0  0  0  0  0  0  0  0  0
   32.2550   27.3570   36.5310 H   0  0  0  0  0  0  0  0  0  0  0  0
   32.9660   29.7250   36.2270 H   0  0  0  0  0  0  0  0  0  0  0  0
   35.3650   30.2990   36.7360 H   0  0  0  0  0  0  0  0  0  0  0  0
   36.9810   26.7060   42.0520 C   0  0  1  0  0  0  0  0  0  0  0  0
   36.4540   27.0950   43.4280 C   0  0  0  0  0  0  0  0  0  0  0  0
   37.2340   28.0500   42.6040 C   0  0  1  0  0  0  0  0  0  0  0  0
   36.1350   26.6410   41.3080 H   0  0  0  0  0  0  0  0  0  0  0  0
   35.3870   27.2320   43.6040 H   0  0  0  0  0  0  0  0  0  0  0  0
   37.0130   26.7020   44.3140 H   0  0  0  0  0  0  0  0  0  0  0  0
   36.6700   28.9100   42.1680 H   0  0  0  0  0  0  0  0  0  0  0  0
   38.6530   28.4560   43.0140 C   0  0  0  0  0  0  0  0  0  0  0  0
   38.7290   28.6440   44.1010 H   0  0  0  0  0  0  0  0  0  0  0  0
   39.4140   27.7410   42.6390 H   0  0  0  0  0  0  0  0  0  0  0  0
   38.9440   29.7660   42.3660 C   0  0  0  0  0  0  0  0  0  0  0  0
   40.1890   30.3430   42.5130 C   0  0  0  0  0  0  0  0  0  0  0  0
   40.9900   29.8820   43.0910 H   0  0  0  0  0  0  0  0  0  0  0  0
   40.4840   31.5580   41.9220 C   0  0  0  0  0  3  0  0  0  0  0  0
   39.5070   32.1790   41.1830 C   0  0  0  0  0  0  0  0  0  0  0  0
   39.7100   33.3570   40.5770 N   0  0  0  0  0  0  0  0  0  0  0  0
   38.7940   34.0090   39.8430 C   0  0  0  0  0  0  0  0  0  0  0  0
   38.9480   34.9500   39.3570 H   0  0  0  0  0  0  0  0  0  0  0  0
   37.5270   33.4810   39.6590 C   0  0  0  0  0  3  0  0  0  0  0  0
   37.2490   32.2560   40.2630 C   0  0  0  0  0  3  0  0  0  0  0  0
   38.2350   31.6370   41.0040 C   0  0  0  0  0  0  0  0  0  0  0  0
   37.9900   30.4210   41.6160 C   0  0  0  0  0  3  0  0  0  0  0  0
  1  7  1  0  0  0  0
  1  6  1  0  0  0  0
  2  8  1  6  0  0  0
  2  3  1  0  0  0  0
  2  1  1  0  0  0  0
  3  4  1  0  0  0  0
  3 10  1  0  0  0  0
  4  5  1  0  0  0  0
  5 12  1  0  0  0  0
  5 13  1  0  0  0  0
  6 31  1  0  0  0  0
  6  5  1  0  0  0  0
  6 14  1  1  0  0  0
  9  3  1  0  0  0  0
 11  4  1  0  0  0  0
 15 19  2  0  0  0  0
 16 15  1  0  0  0  0
 16 17  2  0  0  0  0
 17 18  1  0  0  0  0
 18  2  1  0  0  0  0
 19 18  1  0  0  0  0
 20 16  1  0  0  0  0
 21 17  1  0  0  0  0
 22 27  1  0  0  0  0
 23 22  2  0  0  0  0
 23 24  1  0  0  0  0
 24 25  2  0  0  0  0
 25 26  1  0  0  0  0
 26 15  1  0  0  0  0
 27 26  2  0  0  0  0
 28 22  1  0  0  0  0
 29 23  1  0  0  0  0
 30 24  1  0  0  0  0
 31 34  1  6  0  0  0
 31 33  1  0  0  0  0
 31 32  1  0  0  0  0
 32 35  1  0  0  0  0
 32 36  1  0  0  0  0
 33 37  1  6  0  0  0
 33 38  1  0  0  0  0
 33 32  1  0  0  0  0
 38 39  1  0  0  0  0
 40 38  1  0  0  0  0
 41 42  1  0  0  0  0
 41 38  1  0  0  0  0
 42 43  1  0  0  0  0
 44 42  2  0  0  0  0
 45 44  1  0  0  0  0
 46 45  2  0  0  0  0
 47 46  1  0  0  0  0
 48 47  1  0  0  0  0
 49 47  2  0  0  0  0
 49 50  1  0  0  0  0
 50 51  2  0  0  0  0
 51 45  1  0  0  0  0
 51 52  1  0  0  0  0
 52 41  2  0  0  0  0
M  END
>  <minimizedAffinity>
-6.29597282

$$$$

 OpenBabel03242520083D

 52 57  0  0  1  0  0  0  0  0999 V2000
   38.9570   28.1530   41.4870 N   0  0  0  0  0  0  0  0  0  0  0  0
   39.2170   27.0130   42.2740 C   0  0  1  0  0  0  0  0  0  0  0  0
   38.7630   27.2790   43.6790 C   0  0  0  0  0  0  0  0  0  0  0  0
   37.3360   27.4180   43.5950 N   0  0  0  0  0  0  0  0  0  0  0  0
   36.9510   28.6080   42.8720 C   0  0  0  0  0  0  0  0  0  0  0  0
   37.7660   28.8920   41.6480 C   0  0  2  0  0  0  0  0  0  0  0  0
   39.8340   28.7170   41.3820 H   0  0  0  0  0  0  0  0  0  0  0  0
   40.2850   26.8050   42.3060 H   0  0  0  0  0  0  0  0  0  0  0  0
   38.9630   26.4380   44.3760 H   0  0  0  0  0  0  0  0  0  0  0  0
   39.1870   28.2170   44.0680 H   0  0  0  0  0  0  0  0  0  0  0  0
   36.8320   26.5680   43.3180 H   0  0  0  0  0  0  0  0  0  0  0  0
   35.8560   28.4490   42.6470 H   0  0  0  0  0  0  0  0  0  0  0  0
   36.9410   29.4250   43.6230 H   0  0  0  0  0  0  0  0  0  0  0  0
   38.1010   29.9650   41.7680 H   0  0  0  0  0  0  0  0  0  0  0  0
   37.1870   24.6570   40.5980 C   0  0  0  0  0  0  0  0  0  0  0  0
   37.7950   23.8240   41.5210 C   0  0  0  0  0  0  0  0  0  0  0  0
   38.6350   24.5820   42.2750 C   0  0  0  0  0  0  0  0  0  0  0  0
   38.5310   25.8530   41.8070 N   0  0  0  0  0  0  0  0  0  0  0  0
   37.6620   25.8730   40.8070 N   0  0  0  0  0  0  0  0  0  0  0  0
   37.6400   22.7770   41.6320 H   0  0  0  0  0  0  0  0  0  0  0  0
   39.2680   24.2570   43.0880 H   0  0  0  0  0  0  0  0  0  0  0  0
   35.3110   24.3920   37.4570 C   0  0  0  0  0  0  0  0  0  0  0  0
   34.3250   23.4430   37.7400 C   0  0  0  0  0  0  0  0  0  0  0  0
   34.3240   22.9070   39.0150 C   0  0  0  0  0  0  0  0  0  0  0  0
   35.2690   23.3340   39.8980 N   0  0  0  0  0  0  0  0  0  0  0  0
   36.2010   24.2520   39.5810 C   0  0  0  0  0  0  0  0  0  0  0  0
   36.2310   24.7910   38.3520 N   0  0  0  0  0  0  0  0  0  0  0  0
   35.3810   24.8650   36.4680 H   0  0  0  0  0  0  0  0  0  0  0  0
   33.6190   23.1730   36.9620 H   0  0  0  0  0  0  0  0  0  0  0  0
   33.5780   22.1710   39.2730 H   0  0  0  0  0  0  0  0  0  0  0  0
   36.8320   28.7980   40.4620 C   0  0  1  0  0  0  0  0  0  0  0  0
   35.3700   29.1150   40.7480 C   0  0  0  0  0  0  0  0  0  0  0  0
   36.1910   29.9880   39.8730 C   0  0  1  0  0  0  0  0  0  0  0  0
   36.9180   27.9060   39.7750 H   0  0  0  0  0  0  0  0  0  0  0  0
   34.5700   28.4940   40.3450 H   0  0  0  0  0  0  0  0  0  0  0  0
   35.1350   29.5660   41.7440 H   0  0  0  0  0  0  0  0  0  0  0  0
   35.9510   29.9690   38.7830 H   0  0  0  0  0  0  0  0  0  0  0  0
   36.6010   31.3890   40.3370 C   0  0  0  0  0  0  0  0  0  0  0  0
   35.8380   32.1480   40.0830 H   0  0  0  0  0  0  0  0  0  0  0  0
   36.8930   31.4040   41.4070 H   0  0  0  0  0  0  0  0  0  0  0  0
   37.8140   31.7750   39.5600 C   0  0  0  0  0  0  0  0  0  0  0  0
   38.0450   31.2090   38.3230 C   0  0  0  0  0  0  0  0  0  0  0  0
   37.3740   30.4780   37.8720 H   0  0  0  0  0  0  0  0  0  0  0  0
   39.1620   31.5490   37.5830 C   0  0  0  0  0  3  0  0  0  0  0  0
   40.0390   32.4670   38.1080 C   0  0  0  0  0  0  0  0  0  0  0  0
   41.1450   32.8520   37.4570 N   0  0  0  0  0  0  0  0  0  0  0  0
   42.0360   33.7430   37.9210 C   0  0  0  0  0  0  0  0  0  0  0  0
   42.9210   34.0560   37.4080 H   0  0  0  0  0  0  0  0  0  0  0  0
   41.8590   34.3450   39.1550 C   0  0  0  0  0  3  0  0  0  0  0  0
   40.7270   33.9890   39.8870 C   0  0  0  0  0  3  0  0  0  0  0  0
   39.8500   33.0670   39.3520 C   0  0  0  0  0  0  0  0  0  0  0  0
   38.7180   32.6920   40.0530 C   0  0  0  0  0  3  0  0  0  0  0  0
  1  6  1  0  0  0  0
  1  2  1  0  0  0  0
  2  8  1  1  0  0  0
  2  3  1  0  0  0  0
  3 10  1  0  0  0  0
  3  9  1  0  0  0  0
  4  3  1  0  0  0  0
  5  4  1  0  0  0  0
  5 13  1  0  0  0  0
  6 14  1  1  0  0  0
  6  5  1  0  0  0  0
  7  1  1  0  0  0  0
 11  4  1  0  0  0  0
 12  5  1  0  0  0  0
 15 19  2  0  0  0  0
 15 16  1  0  0  0  0
 16 20  1  0  0  0  0
 16 17  2  0  0  0  0
 17 21  1  0  0  0  0
 18  2  1  0  0  0  0
 18 17  1  0  0  0  0
 19 18  1  0  0  0  0
 22 23  2  0  0  0  0
 22 27  1  0  0  0  0
 23 24  1  0  0  0  0
 24 30  1  0  0  0  0
 24 25  2  0  0  0  0
 26 25  1  0  0  0  0
 26 15  1  0  0  0  0
 27 26  2  0  0  0  0
 28 22  1  0  0  0  0
 29 23  1  0  0  0  0
 31 34  1  6  0  0  0
 31 32  1  0  0  0  0
 31  6  1  0  0  0  0
 32 36  1  0  0  0  0
 33 37  1  6  0  0  0
 33 38  1  0  0  0  0
 33 31  1  0  0  0  0
 33 32  1  0  0  0  0
 35 32  1  0  0  0  0
 38 40  1  0  0  0  0
 39 38  1  0  0  0  0
 41 52  1  0  0  0  0
 41 38  1  0  0  0  0
 42 41  2  0  0  0  0
 43 42  1  0  0  0  0
 44 45  2  0  0  0  0
 44 42  1  0  0  0  0
 45 51  1  0  0  0  0
 46 47  2  0  0  0  0
 46 45  1  0  0  0  0
 47 49  1  0  0  0  0
 48 47  1  0  0  0  0
 49 50  2  0  0  0  0
 51 50  1  0  0  0  0
 51 52  2  0  0  0  0
M  END
>  <minimizedAffinity>
-6.27799988

$$$$

 OpenBabel03242520083D

 52 57  0  0  1  0  0  0  0  0999 V2000
   38.2290   31.9410   40.2680 N   0  0  0  0  0  0  0  0  0  0  0  0
   39.2000   32.6760   39.5590 C   0  0  1  0  0  0  0  0  0  0  0  0
   40.0960   33.3700   40.5430 C   0  0  0  0  0  0  0  0  0  0  0  0
   40.7860   32.3160   41.2340 N   0  0  0  0  0  0  0  0  0  0  0  0
   39.8930   31.5390   42.0620 C   0  0  0  0  0  0  0  0  0  0  0  0
   38.5650   31.2320   41.4400 C   0  0  2  0  0  0  0  0  0  0  0  0
   37.3320   32.4820   40.3020 H   0  0  0  0  0  0  0  0  0  0  0  0
   38.7280   33.4430   38.9460 H   0  0  0  0  0  0  0  0  0  0  0  0
   40.8740   34.0030   40.0640 H   0  0  0  0  0  0  0  0  0  0  0  0
   39.5170   33.9520   41.2740 H   0  0  0  0  0  0  0  0  0  0  0  0
   41.4230   31.7600   40.6520 H   0  0  0  0  0  0  0  0  0  0  0  0
   40.4890   30.6140   42.3120 H   0  0  0  0  0  0  0  0  0  0  0  0
   39.8390   32.0770   43.0310 H   0  0  0  0  0  0  0  0  0  0  0  0
   37.8050   31.5600   42.2090 H   0  0  0  0  0  0  0  0  0  0  0  0
   41.7560   31.2430   37.5870 C   0  0  0  0  0  0  0  0  0  0  0  0
   40.8010   30.2470   37.4880 C   0  0  0  0  0  0  0  0  0  0  0  0
   39.7150   30.6380   38.2070 C   0  0  0  0  0  0  0  0  0  0  0  0
   40.0180   31.8550   38.7290 N   0  0  0  0  0  0  0  0  0  0  0  0
   41.2410   32.1950   38.3460 N   0  0  0  0  0  0  0  0  0  0  0  0
   40.8880   29.3330   36.9490 H   0  0  0  0  0  0  0  0  0  0  0  0
   38.7870   30.1030   38.3470 H   0  0  0  0  0  0  0  0  0  0  0  0
   45.2700   31.9750   36.8300 C   0  0  0  0  0  0  0  0  0  0  0  0
   45.5500   31.1540   35.7350 C   0  0  0  0  0  0  0  0  0  0  0  0
   44.5180   30.3560   35.2740 C   0  0  0  0  0  0  0  0  0  0  0  0
   43.3140   30.4250   35.9080 N   0  0  0  0  0  0  0  0  0  0  0  0
   43.0890   31.2320   36.9600 C   0  0  0  0  0  0  0  0  0  0  0  0
   44.0690   32.0180   37.4330 N   0  0  0  0  0  0  0  0  0  0  0  0
   46.0350   32.6380   37.2570 H   0  0  0  0  0  0  0  0  0  0  0  0
   46.5450   31.1760   35.3040 H   0  0  0  0  0  0  0  0  0  0  0  0
   44.6940   29.7080   34.4300 H   0  0  0  0  0  0  0  0  0  0  0  0
   38.4870   29.7300   41.2810 C   0  0  1  0  0  0  0  0  0  0  0  0
   37.8260   28.9790   42.4300 C   0  0  0  0  0  0  0  0  0  0  0  0
   37.2060   29.0280   41.0830 C   0  0  1  0  0  0  0  0  0  0  0  0
   39.4020   29.1760   40.9200 H   0  0  0  0  0  0  0  0  0  0  0  0
   38.2590   28.0610   42.8260 H   0  0  0  0  0  0  0  0  0  0  0  0
   37.2910   29.5940   43.1960 H   0  0  0  0  0  0  0  0  0  0  0  0
   37.2130   28.0790   40.4950 H   0  0  0  0  0  0  0  0  0  0  0  0
   35.9220   29.8290   40.8450 C   0  0  0  0  0  0  0  0  0  0  0  0
   35.1020   29.5000   41.5100 H   0  0  0  0  0  0  0  0  0  0  0  0
   36.1020   30.9230   40.8810 H   0  0  0  0  0  0  0  0  0  0  0  0
   35.4560   29.5190   39.4630 C   0  0  0  0  0  0  0  0  0  0  0  0
   34.1760   29.0470   39.2610 C   0  0  0  0  0  0  0  0  0  0  0  0
   33.4690   28.8840   40.0750 H   0  0  0  0  0  0  0  0  0  0  0  0
   33.7200   28.7520   37.9890 C   0  0  0  0  0  3  0  0  0  0  0  0
   34.5730   28.9410   36.9290 C   0  0  0  0  0  0  0  0  0  0  0  0
   34.2110   28.6800   35.6650 N   0  0  0  0  0  0  0  0  0  0  0  0
   35.0010   28.8460   34.5920 C   0  0  0  0  0  0  0  0  0  0  0  0
   34.7200   28.6400   33.5810 H   0  0  0  0  0  0  0  0  0  0  0  0
   36.2960   29.3160   34.7320 C   0  0  0  0  0  3  0  0  0  0  0  0
   36.7370   29.6070   36.0220 C   0  0  0  0  0  3  0  0  0  0  0  0
   35.8740   29.4160   37.0820 C   0  0  0  0  0  0  0  0  0  0  0  0
   36.2830   29.6960   38.3730 C   0  0  0  0  0  3  0  0  0  0  0  0
  1  7  1  0  0  0  0
  1  6  1  0  0  0  0
  2  8  1  6  0  0  0
  2  1  1  0  0  0  0
  2  3  1  0  0  0  0
  3  4  1  0  0  0  0
  3 10  1  0  0  0  0
  4  5  1  0  0  0  0
  5 12  1  0  0  0  0
  5 13  1  0  0  0  0
  6  5  1  0  0  0  0
  6 14  1  1  0  0  0
  9  3  1  0  0  0  0
 11  4  1  0  0  0  0
 15 19  2  0  0  0  0
 16 15  1  0  0  0  0
 16 17  2  0  0  0  0
 17 21  1  0  0  0  0
 17 18  1  0  0  0  0
 18  2  1  0  0  0  0
 19 18  1  0  0  0  0
 20 16  1  0  0  0  0
 22 28  1  0  0  0  0
 22 27  1  0  0  0  0
 23 22  2  0  0  0  0
 24 23  1  0  0  0  0
 24 25  2  0  0  0  0
 25 26  1  0  0  0  0
 26 27  2  0  0  0  0
 26 15  1  0  0  0  0
 29 23  1  0  0  0  0
 30 24  1  0  0  0  0
 31 34  1  6  0  0  0
 31  6  1  0  0  0  0
 31 32  1  0  0  0  0
 32 35  1  0  0  0  0
 32 36  1  0  0  0  0
 33 37  1  6  0  0  0
 33 31  1  0  0  0  0
 33 32  1  0  0  0  0
 38 40  1  0  0  0  0
 38 33  1  0  0  0  0
 38 39  1  0  0  0  0
 41 38  1  0  0  0  0
 42 41  1  0  0  0  0
 42 43  1  0  0  0  0
 44 42  2  0  0  0  0
 45 51  1  0  0  0  0
 45 44  1  0  0  0  0
 46 45  2  0  0  0  0
 47 49  2  0  0  0  0
 47 46  1  0  0  0  0
 48 47  1  0  0  0  0
 49 50  1  0  0  0  0
 50 51  2  0  0  0  0
 51 52  1  0  0  0  0
 52 41  2  0  0  0  0
M  END
>  <minimizedAffinity>
-6.22930861

$$$$
