
 OpenBabel03252507163D

 32 35  0  0  0  0  0  0  0  0999 V2000
   44.8440   36.0760   43.4690 C   0  0  0  0  0  0  0  0  0  0  0  0
   45.3040   34.8370   42.9830 C   0  0  0  0  0  0  0  0  0  0  0  0
   45.4640   33.8230   43.9260 C   0  0  0  0  0  0  0  0  0  0  0  0
   45.1830   34.0590   45.2120 N   0  0  0  0  0  0  0  0  0  0  0  0
   44.7390   35.2690   45.6590 C   0  0  0  0  0  0  0  0  0  0  0  0
   44.5820   36.2440   44.7700 N   0  0  0  0  0  0  0  0  0  0  0  0
   44.6950   36.9160   42.7910 H   0  0  0  0  0  0  0  0  0  0  0  0
   44.5690   35.2620   46.7280 H   0  0  0  0  0  0  0  0  0  0  0  0
   45.9410   32.5150   43.4570 C   0  0  0  0  0  0  0  0  0  0  0  0
   45.0300   31.5520   43.0960 C   0  0  0  0  0  0  0  0  0  0  0  0
   45.5350   30.3400   42.6630 C   0  0  0  0  0  0  0  0  0  0  0  0
   46.8810   30.0330   42.5670 C   0  0  0  0  0  0  0  0  0  0  0  0
   47.7340   31.0640   42.9520 C   0  0  0  0  0  0  0  0  0  0  0  0
   47.2450   32.2440   43.3740 N   0  0  0  0  0  0  0  0  0  0  0  0
   43.9580   31.7090   43.1400 H   0  0  0  0  0  0  0  0  0  0  0  0
   44.8470   29.5460   42.3670 H   0  0  0  0  0  0  0  0  0  0  0  0
   47.2450   29.0900   42.2300 H   0  0  0  0  0  0  0  0  0  0  0  0
   48.8040   30.9110   42.9090 H   0  0  0  0  0  0  0  0  0  0  0  0
   45.5860   34.6420   41.6020 C   0  0  0  0  0  0  0  0  0  0  0  0
   46.7820   34.8510   41.2240 O   0  0  0  0  0  0  0  0  0  0  0  0
   44.5770   34.2220   40.6360 C   0  0  0  0  0  0  0  0  0  0  0  0
   44.7570   33.2150   39.7010 C   0  0  0  0  0  0  0  0  0  0  0  0
   45.7220   32.7290   39.7160 H   0  0  0  0  0  0  0  0  0  0  0  0
   43.7040   32.9170   38.8360 C   0  0  0  0  0  3  0  0  0  0  0  0
   42.5120   33.6090   38.9110 C   0  0  0  0  0  0  0  0  0  0  0  0
   41.5310   33.2820   38.0540 N   0  0  0  0  0  0  0  0  0  0  0  0
   40.3280   33.9240   38.0730 C   0  0  0  0  0  0  0  0  0  0  0  0
   39.5990   33.5930   37.3460 H   0  0  0  0  0  0  0  0  0  0  0  0
   40.1010   34.9470   38.9990 C   0  0  0  0  0  3  0  0  0  0  0  0
   41.1300   35.2810   39.8880 C   0  0  0  0  0  3  0  0  0  0  0  0
   42.3260   34.6080   39.8360 C   0  0  0  0  0  0  0  0  0  0  0  0
   43.3620   34.9120   40.6970 C   0  0  0  0  0  3  0  0  0  0  0  0
  1  6  1  0  0  0  0
  2  1  2  0  0  0  0
  2  3  1  0  0  0  0
  3  4  2  0  0  0  0
  4  5  1  0  0  0  0
  5  8  1  0  0  0  0
  6  5  2  0  0  0  0
  7  1  1  0  0  0  0
  9  3  1  0  0  0  0
 10 15  1  0  0  0  0
 10  9  2  0  0  0  0
 11 10  1  0  0  0  0
 12 11  2  0  0  0  0
 12 13  1  0  0  0  0
 13 14  2  0  0  0  0
 14  9  1  0  0  0  0
 16 11  1  0  0  0  0
 17 12  1  0  0  0  0
 18 13  1  0  0  0  0
 19  2  1  0  0  0  0
 20 19  2  0  0  0  0
 21 32  1  0  0  0  0
 21 19  1  0  0  0  0
 22 23  1  0  0  0  0
 22 21  2  0  0  0  0
 24 25  2  0  0  0  0
 24 22  1  0  0  0  0
 25 31  1  0  0  0  0
 26 27  2  0  0  0  0
 26 25  1  0  0  0  0
 27 29  1  0  0  0  0
 28 27  1  0  0  0  0
 29 30  2  0  0  0  0
 31 30  1  0  0  0  0
 31 32  2  0  0  0  0
M  END
>  <minimizedAffinity>
-5.58773804

>  <minimizedRMSD>
2.18295717

$$$$
