REMARK  Name = 
REMARK  5 active torsions:
REMARK  status: ('A' for Active; 'I' for Inactive)
REMARK    1  A    between atoms: C_2  and  N_10
REMARK    2  A    between atoms: C_6  and  C_18
REMARK    3  A    between atoms: C_7  and  C_16
REMARK    4  A    between atoms: C_20  and  C_21
REMARK    5  A    between atoms: C_21  and  C_41
REMARK                            x       y       z     vdW  Elec       q    Type
REMARK                         _______ _______ _______ _____ _____    ______ ____
ROOT
ATOM      1  N   UNL     1      47.060  29.622  47.173  0.00  0.00    +0.000 NA
ATOM      2  C   UNL     1      47.386  29.377  45.824  0.00  0.00    +0.000 C 
ATOM      3  C   UNL     1      46.435  28.355  45.273  0.00  0.00    +0.000 C 
ATOM      4  N   UNL     1      45.147  28.991  45.288  0.00  0.00    +0.000 NA
ATOM      5  C   UNL     1      44.673  29.220  46.633  0.00  0.00    +0.000 C 
ATOM      6  C   UNL     1      45.716  29.704  47.594  0.00  0.00    +0.000 C 
ATOM      7  H   UNL     1      47.702  29.076  47.796  0.00  0.00    +0.000 HD
ATOM      8  H   UNL     1      48.392  28.969  45.741  0.00  0.00    +0.000 HD
ATOM      9  H   UNL     1      46.644  28.078  44.218  0.00  0.00    +0.000 HD
ATOM     10  H   UNL     1      46.394  27.459  45.910  0.00  0.00    +0.000 HD
ATOM     11  H   UNL     1      45.053  29.796  44.658  0.00  0.00    +0.000 HD
ATOM     12  H   UNL     1      43.821  29.948  46.502  0.00  0.00    +0.000 HD
ATOM     13  H   UNL     1      44.163  28.282  46.935  0.00  0.00    +0.000 HD
ATOM     14  H   UNL     1      45.642  29.001  48.476  0.00  0.00    +0.000 HD
ENDROOT
BRANCH   2  18
ATOM     15  C   UNL     1      46.633  32.514  44.384  0.00  0.00    +0.000 A 
ATOM     16  C   UNL     1      47.520  32.031  43.438  0.00  0.00    +0.000 A 
ATOM     17  C   UNL     1      47.926  30.797  43.839  0.00  0.00    +0.000 A 
ATOM     18  N   UNL     1      47.288  30.545  45.011  0.00  0.00    +0.000 N 
ATOM     19  N   UNL     1      46.523  31.583  45.317  0.00  0.00    +0.000 NA
ATOM     20  H   UNL     1      47.836  32.527  42.551  0.00  0.00    +0.000 HD
ATOM     21  H   UNL     1      48.616  30.133  43.339  0.00  0.00    +0.000 HD
BRANCH  15  26
ATOM     22  C   UNL     1      44.634  35.442  45.326  0.00  0.00    +0.000 A 
ATOM     23  C   UNL     1      44.702  36.264  44.199  0.00  0.00    +0.000 A 
ATOM     24  C   UNL     1      45.440  35.794  43.127  0.00  0.00    +0.000 A 
ATOM     25  N   UNL     1      46.042  34.577  43.240  0.00  0.00    +0.000 NA
ATOM     26  C   UNL     1      45.949  33.818  44.347  0.00  0.00    +0.000 A 
ATOM     27  N   UNL     1      45.242  34.245  45.405  0.00  0.00    +0.000 NA
ATOM     28  H   UNL     1      44.069  35.742  46.219  0.00  0.00    +0.000 HD
ATOM     29  H   UNL     1      44.184  37.217  44.214  0.00  0.00    +0.000 HD
ATOM     30  H   UNL     1      45.516  36.400  42.238  0.00  0.00    +0.000 HD
ENDBRANCH  15  26
ENDBRANCH   2  18
BRANCH   6  31
ATOM     31  C   UNL     1      45.304  31.091  48.034  0.00  0.00    +0.000 C 
ATOM     32  C   UNL     1      45.152  31.287  49.537  0.00  0.00    +0.000 C 
ATOM     33  C   UNL     1      46.217  31.982  48.773  0.00  0.00    +0.000 C 
ATOM     34  H   UNL     1      44.467  31.608  47.480  0.00  0.00    +0.000 HD
ATOM     35  H   UNL     1      44.301  31.828  49.951  0.00  0.00    +0.000 HD
ATOM     36  H   UNL     1      45.531  30.467  50.196  0.00  0.00    +0.000 HD
ATOM     37  H   UNL     1      46.097  33.084  48.638  0.00  0.00    +0.000 HD
BRANCH  33  38
ATOM     38  C   UNL     1      47.687  31.593  48.956  0.00  0.00    +0.000 C 
ATOM     39  H   UNL     1      47.799  30.684  49.575  0.00  0.00    +0.000 HD
ATOM     40  H   UNL     1      48.224  31.531  47.987  0.00  0.00    +0.000 HD
BRANCH  38  41
ATOM     41  C   UNL     1      48.340  32.683  49.735  0.00  0.00    +0.000 A 
ATOM     42  C   UNL     1      48.921  32.403  50.954  0.00  0.00    +0.000 A 
ATOM     43  H   UNL     1      48.929  31.404  51.389  0.00  0.00    +0.000 HD
ATOM     44  C   UNL     1      49.534  33.398  51.696  0.00  0.00    +0.000 A 
ATOM     45  C   UNL     1      49.550  34.674  51.189  0.00  0.00    +0.000 A 
ATOM     46  N   UNL     1      50.122  35.695  51.842  0.00  0.00    +0.000 NA
ATOM     47  C   UNL     1      50.167  36.961  51.396  0.00  0.00    +0.000 A 
ATOM     48  H   UNL     1      50.621  37.780  51.911  0.00  0.00    +0.000 HD
ATOM     49  C   UNL     1      49.601  37.304  50.180  0.00  0.00    +0.000 A 
ATOM     50  C   UNL     1      48.989  36.288  49.447  0.00  0.00    +0.000 A 
ATOM     51  C   UNL     1      48.976  35.008  49.962  0.00  0.00    +0.000 A 
ATOM     52  C   UNL     1      48.377  33.978  49.260  0.00  0.00    +0.000 A 
ENDBRANCH  38  41
ENDBRANCH  33  38
ENDBRANCH   6  31
TORSDOF 5
