
 OpenBabel03252508513D

 31 34  0  0  0  0  0  0  0  0999 V2000
   45.6730   34.2220   41.0500 C   0  0  0  0  0  0  0  0  0  0  0  0
   46.3420   34.7350   42.1570 C   0  0  0  0  0  0  0  0  0  0  0  0
   47.7260   34.9210   42.0060 C   0  0  0  0  0  0  0  0  0  0  0  0
   48.3140   34.5990   40.8200 N   0  0  0  0  0  0  0  0  0  0  0  0
   47.6210   34.1130   39.7960 C   0  0  0  0  0  0  0  0  0  0  0  0
   46.2960   33.9190   39.8990 N   0  0  0  0  0  0  0  0  0  0  0  0
   48.2810   35.3180   42.8470 H   0  0  0  0  0  0  0  0  0  0  0  0
   48.0500   33.8470   38.8410 H   0  0  0  0  0  0  0  0  0  0  0  0
   45.6180   35.0420   43.3680 C   0  0  0  0  0  0  0  0  0  0  0  0
   45.0900   36.3010   43.6340 C   0  0  0  0  0  0  0  0  0  0  0  0
   44.4980   36.1420   44.8690 C   0  0  0  0  0  0  0  0  0  0  0  0
   44.6550   34.8710   45.3270 N   0  0  0  0  0  0  0  0  0  0  0  0
   45.3340   34.2350   44.3980 N   0  0  0  0  0  0  0  0  0  0  0  0
   45.0950   37.2320   43.0670 H   0  0  0  0  0  0  0  0  0  0  0  0
   43.9640   36.9010   45.4450 H   0  0  0  0  0  0  0  0  0  0  0  0
   44.2970   34.4890   46.2440 H   0  0  0  0  0  0  0  0  0  0  0  0
   44.3080   34.0200   41.1490 O   0  0  0  0  0  0  0  0  0  0  0  0
   43.3140   34.8560   40.7320 C   0  0  0  0  0  0  0  0  0  0  0  0
   43.2560   36.1270   40.8790 O   0  0  0  0  0  0  0  0  0  0  0  0
   42.0880   34.4050   40.0140 C   0  0  0  0  0  0  0  0  0  0  0  0
   40.9730   35.1980   39.8910 C   0  0  0  0  0  0  0  0  0  0  0  0
   40.9370   36.1930   40.3080 H   0  0  0  0  0  0  0  0  0  0  0  0
   39.8280   34.7590   39.2160 C   0  0  0  0  0  3  0  0  0  0  0  0
   39.8000   33.5020   38.6570 C   0  0  0  0  0  0  0  0  0  0  0  0
   38.7170   33.0490   38.0040 N   0  0  0  0  0  0  0  0  0  0  0  0
   38.7170   31.8060   37.4630 C   0  0  0  0  0  0  0  0  0  0  0  0
   37.8030   31.5200   36.9520 H   0  0  0  0  0  0  0  0  0  0  0  0
   39.7960   30.9210   37.5320 C   0  0  0  0  0  3  0  0  0  0  0  0
   40.9000   31.3990   38.2050 C   0  0  0  0  0  3  0  0  0  0  0  0
   40.8890   32.6660   38.7530 C   0  0  0  0  0  0  0  0  0  0  0  0
   41.9720   33.1750   39.4310 C   0  0  0  0  0  3  0  0  0  0  0  0
  1 17  1  0  0  0  0
  1  2  1  0  0  0  0
  2  9  1  0  0  0  0
  3  2  2  0  0  0  0
  3  7  1  0  0  0  0
  4  3  1  0  0  0  0
  5  6  1  0  0  0  0
  5  4  2  0  0  0  0
  6  1  2  0  0  0  0
  8  5  1  0  0  0  0
  9 10  1  0  0  0  0
  9 13  2  0  0  0  0
 10 11  2  0  0  0  0
 11 12  1  0  0  0  0
 11 15  1  0  0  0  0
 12 16  1  0  0  0  0
 13 12  1  0  0  0  0
 14 10  1  0  0  0  0
 18 19  2  0  0  0  0
 18 17  1  0  0  0  0
 20 18  1  0  0  0  0
 21 20  1  0  0  0  0
 21 22  1  0  0  0  0
 23 21  2  0  0  0  0
 24 30  1  0  0  0  0
 24 23  1  0  0  0  0
 25 24  2  0  0  0  0
 26 28  2  0  0  0  0
 26 25  1  0  0  0  0
 27 26  1  0  0  0  0
 28 29  1  0  0  0  0
 29 30  2  0  0  0  0
 30 31  1  0  0  0  0
 31 20  2  0  0  0  0
M  END
>  <minimizedAffinity>
-6.02815866

>  <minimizedRMSD>
1.56499052

$$$$
