
 OpenBabel03242523163D

 30 33  0  0  0  0  0  0  0  0999 V2000
   45.9040   34.5410   43.8270 C   0  0  0  0  0  0  0  0  0  0  0  0
   47.0210   33.8550   43.4920 C   0  0  0  0  0  0  0  0  0  0  0  0
   47.4730   32.9610   44.4350 C   0  0  0  0  0  0  0  0  0  0  0  0
   46.7600   32.8400   45.6270 N   0  0  0  0  0  0  0  0  0  0  0  0
   45.6580   33.5500   45.8950 C   0  0  0  0  0  0  0  0  0  0  0  0
   45.1930   34.4440   44.9730 N   0  0  0  0  0  0  0  0  0  0  0  0
   48.3700   32.3700   44.2410 H   0  0  0  0  0  0  0  0  0  0  0  0
   45.3550   33.2220   46.8780 H   0  0  0  0  0  0  0  0  0  0  0  0
   47.7710   34.0320   42.3050 C   0  0  0  0  0  0  0  0  0  0  0  0
   48.0290   35.1460   41.5650 C   0  0  0  0  0  0  0  0  0  0  0  0
   49.2190   34.6780   42.4060 C   0  0  0  0  0  0  0  0  0  0  0  0
   48.1090   32.9710   41.9310 H   0  0  0  0  0  0  0  0  0  0  0  0
   47.6030   36.1680   41.8410 H   0  0  0  0  0  0  0  0  0  0  0  0
   48.2830   35.1550   40.4710 H   0  0  0  0  0  0  0  0  0  0  0  0
   49.3860   35.2770   43.3300 H   0  0  0  0  0  0  0  0  0  0  0  0
   50.0590   34.2320   41.9130 H   0  0  0  0  0  0  0  0  0  0  0  0
   45.1210   35.4830   43.0220 C   0  0  0  0  0  0  0  0  0  0  0  0
   44.7920   36.6120   42.6670 O   0  0  0  0  0  0  0  0  0  0  0  0
   44.1520   34.8990   42.0570 C   0  0  0  0  0  0  0  0  0  0  0  0
   44.0040   33.5120   42.0620 C   0  0  0  0  0  0  0  0  0  0  0  0
   44.5460   32.9130   42.8140 H   0  0  0  0  0  0  0  0  0  0  0  0
   43.2220   32.7350   41.2160 C   0  0  0  0  0  3  0  0  0  0  0  0
   42.5230   33.4500   40.2640 C   0  0  0  0  0  0  0  0  0  0  0  0
   41.7540   32.7670   39.3980 N   0  0  0  0  0  0  0  0  0  0  0  0
   41.0440   33.4000   38.4160 C   0  0  0  0  0  0  0  0  0  0  0  0
   40.4210   32.8630   37.7120 H   0  0  0  0  0  0  0  0  0  0  0  0
   41.1370   34.7810   38.3350 C   0  0  0  0  0  3  0  0  0  0  0  0
   41.9290   35.5180   39.2250 C   0  0  0  0  0  3  0  0  0  0  0  0
   42.6280   34.8210   40.2020 C   0  0  0  0  0  0  0  0  0  0  0  0
   43.4140   35.5530   41.0640 C   0  0  0  0  0  3  0  0  0  0  0  0
  1  6  1  0  0  0  0
  2  1  2  0  0  0  0
  2  3  1  0  0  0  0
  3  4  2  0  0  0  0
  4  5  1  0  0  0  0
  5  8  1  0  0  0  0
  6  5  2  0  0  0  0
  7  3  1  0  0  0  0
  9 11  1  0  0  0  0
  9  2  1  0  0  0  0
 10 13  1  0  0  0  0
 10  9  1  0  0  0  0
 10 11  1  0  0  0  0
 11 15  1  0  0  0  0
 12  9  1  0  0  0  0
 14 10  1  0  0  0  0
 16 11  1  0  0  0  0
 17  1  1  0  0  0  0
 18 17  2  0  0  0  0
 19 20  1  0  0  0  0
 19 17  1  0  0  0  0
 20 21  1  0  0  0  0
 22 20  2  0  0  0  0
 23 22  1  0  0  0  0
 24 23  2  0  0  0  0
 25 24  1  0  0  0  0
 26 25  1  0  0  0  0
 27 25  2  0  0  0  0
 27 28  1  0  0  0  0
 28 29  2  0  0  0  0
 29 23  1  0  0  0  0
 29 30  1  0  0  0  0
 30 19  2  0  0  0  0
M  END
>  <minimizedAffinity>
-5.76870632

>  <minimizedRMSD>
1.14024186

$$$$
