REMARK  Name = 
REMARK  4 active torsions:
REMARK  status: ('A' for Active; 'I' for Inactive)
REMARK    1  A    between atoms: C_1  and  O_12
REMARK    2  A    between atoms: C_2  and  C_7
REMARK    3  A    between atoms: O_12  and  C_13
REMARK    4  A    between atoms: C_13  and  C_20
REMARK                            x       y       z     vdW  Elec       q    Type
REMARK                         _______ _______ _______ _____ _____    ______ ____
ROOT
ATOM      1  C   UNL     1      46.083  34.161  41.014  0.00  0.00    +0.000 A 
ATOM      2  C   UNL     1      46.612  34.833  42.111  0.00  0.00    +0.000 A 
ATOM      3  C   UNL     1      47.939  35.273  41.980  0.00  0.00    +0.000 A 
ATOM      4  N   UNL     1      48.610  35.024  40.821  0.00  0.00    +0.000 NA
ATOM      5  C   UNL     1      48.050  34.376  39.805  0.00  0.00    +0.000 A 
ATOM      6  N   UNL     1      46.783  33.938  39.890  0.00  0.00    +0.000 NA
ATOM      7  H   UNL     1      48.386  35.800  42.814  0.00  0.00    +0.000 HD
ATOM      8  H   UNL     1      48.548  34.160  38.871  0.00  0.00    +0.000 HD
ENDROOT
BRANCH   2   9
ATOM      9  C   UNL     1      45.810  35.043  43.294  0.00  0.00    +0.000 A 
ATOM     10  C   UNL     1      45.046  36.188  43.495  0.00  0.00    +0.000 A 
ATOM     11  C   UNL     1      44.461  35.967  44.724  0.00  0.00    +0.000 A 
ATOM     12  N   UNL     1      44.842  34.767  45.238  0.00  0.00    +0.000 N 
ATOM     13  N   UNL     1      45.655  34.236  44.351  0.00  0.00    +0.000 NA
ATOM     14  H   UNL     1      44.891  37.081  42.889  0.00  0.00    +0.000 HD
ATOM     15  H   UNL     1      43.777  36.632  45.256  0.00  0.00    +0.000 HD
ATOM     16  H   UNL     1      44.538  34.359  46.163  0.00  0.00    +0.000 HD
ENDBRANCH   2   9
BRANCH   1  17
ATOM     17  O   UNL     1      44.778  33.707  41.095  0.00  0.00    +0.000 OA
BRANCH  17  18
ATOM     18  C   UNL     1      43.691  34.187  40.425  0.00  0.00    +0.000 C 
ATOM     19  O   UNL     1      43.251  35.390  40.420  0.00  0.00    +0.000 OA
BRANCH  18  20
ATOM     20  C   UNL     1      42.805  33.354  39.563  0.00  0.00    +0.000 A 
ATOM     21  C   UNL     1      41.721  33.876  38.901  0.00  0.00    +0.000 A 
ATOM     22  H   UNL     1      41.461  34.922  38.974  0.00  0.00    +0.000 HD
ATOM     23  C   UNL     1      40.896  33.080  38.097  0.00  0.00    +0.000 A 
ATOM     24  C   UNL     1      41.164  31.738  37.955  0.00  0.00    +0.000 A 
ATOM     25  N   UNL     1      40.393  30.945  37.191  0.00  0.00    +0.000 NA
ATOM     26  C   UNL     1      40.681  29.627  37.069  0.00  0.00    +0.000 A 
ATOM     27  H   UNL     1      40.007  29.060  36.433  0.00  0.00    +0.000 HD
ATOM     28  C   UNL     1      41.757  28.998  37.698  0.00  0.00    +0.000 A 
ATOM     29  C   UNL     1      42.540  29.823  38.479  0.00  0.00    +0.000 A 
ATOM     30  C   UNL     1      42.238  31.164  38.596  0.00  0.00    +0.000 A 
ATOM     31  C   UNL     1      42.995  32.016  39.365  0.00  0.00    +0.000 A 
ENDBRANCH  18  20
ENDBRANCH  17  18
ENDBRANCH   1  17
TORSDOF 4
