
     RDKit          3D

 35 38  0  0  0  0  0  0  0  0999 V2000
   46.0828   34.1610   41.0144 C   0  0  0  0  0  0  0  0  0  0  0  0
   46.6120   34.8327   42.1111 C   0  0  0  0  0  0  0  0  0  0  0  0
   47.9392   35.2732   41.9801 C   0  0  0  0  0  0  0  0  0  0  0  0
   48.6102   35.0240   40.8205 N   0  0  0  0  0  0  0  0  0  0  0  0
   48.0497   34.3758   39.8048 C   0  0  0  0  0  0  0  0  0  0  0  0
   46.7826   33.9379   39.8902 N   0  0  0  0  0  0  0  0  0  0  0  0
   45.8096   35.0429   43.2940 C   0  0  0  0  0  0  0  0  0  0  0  0
   45.0460   36.1875   43.4949 C   0  0  0  0  0  0  0  0  0  0  0  0
   44.4608   35.9669   44.7236 C   0  0  0  0  0  0  0  0  0  0  0  0
   44.8420   34.7675   45.2379 N   0  0  0  0  0  0  0  0  0  0  0  0
   45.6552   34.2359   44.3509 N   0  0  0  0  0  0  0  0  0  0  0  0
   44.7781   33.7069   41.0947 O   0  0  0  0  0  0  0  0  0  0  0  0
   43.6906   34.1869   40.4255 C   0  0  0  0  0  0  0  0  0  0  0  0
   43.2513   35.3898   40.4203 O   0  0  0  0  0  0  0  0  0  0  0  0
   48.3862   35.8005   42.8141 H   0  0  0  0  0  0  0  0  0  0  0  0
   48.5479   34.1598   38.8715 H   0  0  0  0  0  0  0  0  0  0  0  0
   44.8909   37.0806   42.8893 H   0  0  0  0  0  0  0  0  0  0  0  0
   43.7767   36.6321   45.2563 H   0  0  0  0  0  0  0  0  0  0  0  0
   44.5382   34.3592   46.1633 H   0  0  0  0  0  0  0  0  0  0  0  0
   42.8054   33.3538   39.5634 C   0  0  0  0  0  0  0  0  0  0  0  0
   42.1436   33.8684   38.4744 C   0  0  0  0  0  0  0  0  0  0  0  0
   42.2380   34.9062   38.1912 H   0  0  0  0  0  0  0  0  0  0  0  0
   41.3124   33.0736   37.6751 C   0  0  0  0  0  0  0  0  0  0  0  0
   41.1426   31.7408   37.9738 C   0  0  0  0  0  0  0  0  0  0  0  0
   40.3522   30.9502   37.2276 N   0  0  0  0  0  0  0  0  0  0  0  0
   40.2036   29.6415   37.5450 C   0  0  0  0  0  0  0  0  0  0  0  0
   39.5475   29.0749   36.8902 H   0  0  0  0  0  0  0  0  0  0  0  0
   40.8297   29.0210   38.6282 C   0  0  0  0  0  0  0  0  0  0  0  0
   41.6376   29.8437   39.3852 C   0  0  0  0  0  0  0  0  0  0  0  0
   41.7823   31.1754   39.0532 C   0  0  0  0  0  0  0  0  0  0  0  0
   42.5788   32.0257   39.7842 C   0  0  0  0  0  0  0  0  0  0  0  0
   40.8054   33.5159   36.8217 H   0  0  0  0  0  0  0  0  0  0  0  0
   40.6757   27.9765   38.8342 H   0  0  0  0  0  0  0  0  0  0  0  0
   42.1395   29.4211   40.2238 H   0  0  0  0  0  0  0  0  0  0  0  0
   43.0831   31.5588   40.6435 H   0  0  0  0  0  0  0  0  0  0  0  0
  1 12  1  0
  1  2  1  0
  2  7  1  0
  3  2  2  0
  4  3  1  0
  5  6  1  0
  5  4  2  0
  6  1  2  0
  7  8  1  0
  7 11  2  0
  8  9  2  0
  9 10  1  0
 11 10  1  0
 13 14  2  0
 13 12  1  0
  3 15  1  0
  5 16  1  0
  8 17  1  0
  9 18  1  0
 10 19  1  0
 20 21  2  0
 21 22  1  0
 21 23  1  0
 23 24  2  0
 24 25  1  0
 25 26  2  0
 26 27  1  0
 26 28  1  0
 28 29  2  0
 29 30  1  0
 30 31  2  0
 31 20  1  0
 30 24  1  0
 23 32  1  0
 28 33  1  0
 29 34  1  0
 31 35  1  0
 13 20  1  0
M  ISO  7  15  14  16  14  17  14  18  14  19   9  22  16  27  16
M  END
>  <DihAtoms>  (1) 
13,12,19,20

>  <DihDeg>  (1) 
0.3655992770106738

$$$$
