
 OpenBabel03252507163D

 32 35  0  0  0  0  0  0  0  0999 V2000
   45.1390   36.1710   43.5120 C   0  0  0  0  0  0  0  0  0  0  0  0
   45.7590   34.9650   43.1320 C   0  0  0  0  0  0  0  0  0  0  0  0
   45.7850   33.9530   44.0900 C   0  0  0  0  0  0  0  0  0  0  0  0
   45.2370   34.1600   45.2930 N   0  0  0  0  0  0  0  0  0  0  0  0
   44.6420   35.3380   45.6370 C   0  0  0  0  0  0  0  0  0  0  0  0
   44.6100   36.3110   44.7330 N   0  0  0  0  0  0  0  0  0  0  0  0
   45.0810   37.0070   42.8160 H   0  0  0  0  0  0  0  0  0  0  0  0
   44.2600   35.3120   46.6500 H   0  0  0  0  0  0  0  0  0  0  0  0
   46.4230   32.6800   43.7310 C   0  0  0  0  0  0  0  0  0  0  0  0
   45.6400   31.6020   43.3940 C   0  0  0  0  0  0  0  0  0  0  0  0
   46.2930   30.4290   43.0650 C   0  0  0  0  0  0  0  0  0  0  0  0
   47.6680   30.2660   43.0510 C   0  0  0  0  0  0  0  0  0  0  0  0
   48.3840   31.4070   43.4040 C   0  0  0  0  0  0  0  0  0  0  0  0
   47.7510   32.5490   43.7250 N   0  0  0  0  0  0  0  0  0  0  0  0
   44.5570   31.6420   43.3800 H   0  0  0  0  0  0  0  0  0  0  0  0
   45.7100   29.5480   42.7920 H   0  0  0  0  0  0  0  0  0  0  0  0
   48.1480   29.3510   42.7930 H   0  0  0  0  0  0  0  0  0  0  0  0
   49.4650   31.3700   43.4190 H   0  0  0  0  0  0  0  0  0  0  0  0
   46.3260   34.8000   41.8380 C   0  0  0  0  0  0  0  0  0  0  0  0
   47.4820   35.2930   41.6470 O   0  0  0  0  0  0  0  0  0  0  0  0
   45.6410   34.1030   40.7540 C   0  0  0  0  0  0  0  0  0  0  0  0
   46.2820   33.4180   39.7340 C   0  0  0  0  0  0  0  0  0  0  0  0
   47.3620   33.4190   39.7740 H   0  0  0  0  0  0  0  0  0  0  0  0
   45.5010   32.7950   38.7590 C   0  0  0  0  0  3  0  0  0  0  0  0
   44.1240   32.8610   38.8130 C   0  0  0  0  0  0  0  0  0  0  0  0
   43.4190   32.2450   37.8490 N   0  0  0  0  0  0  0  0  0  0  0  0
   42.0560   32.2690   37.8390 C   0  0  0  0  0  0  0  0  0  0  0  0
   41.5740   31.7450   37.0250 H   0  0  0  0  0  0  0  0  0  0  0  0
   41.3660   32.9490   38.8490 C   0  0  0  0  0  3  0  0  0  0  0  0
   42.1090   33.5890   39.8480 C   0  0  0  0  0  3  0  0  0  0  0  0
   43.4810   33.5390   39.8210 C   0  0  0  0  0  0  0  0  0  0  0  0
   44.2440   34.1590   40.7900 C   0  0  0  0  0  3  0  0  0  0  0  0
  1  6  1  0  0  0  0
  2  1  2  0  0  0  0
  2  3  1  0  0  0  0
  3  4  2  0  0  0  0
  4  5  1  0  0  0  0
  5  8  1  0  0  0  0
  6  5  2  0  0  0  0
  7  1  1  0  0  0  0
  9  3  1  0  0  0  0
 10  9  2  0  0  0  0
 11 10  1  0  0  0  0
 12 11  2  0  0  0  0
 12 13  1  0  0  0  0
 13 18  1  0  0  0  0
 13 14  2  0  0  0  0
 14  9  1  0  0  0  0
 15 10  1  0  0  0  0
 16 11  1  0  0  0  0
 17 12  1  0  0  0  0
 19  2  1  0  0  0  0
 20 19  2  0  0  0  0
 21 32  1  0  0  0  0
 21 19  1  0  0  0  0
 22 23  1  0  0  0  0
 22 21  2  0  0  0  0
 24 25  2  0  0  0  0
 24 22  1  0  0  0  0
 25 31  1  0  0  0  0
 26 25  1  0  0  0  0
 27 26  2  0  0  0  0
 27 29  1  0  0  0  0
 28 27  1  0  0  0  0
 29 30  2  0  0  0  0
 31 30  1  0  0  0  0
 31 32  2  0  0  0  0
M  END
>  <minimizedAffinity>
-5.1934371

>  <minimizedRMSD>
0.880426466

$$$$
