REMARK  Name = 
REMARK  4 active torsions:
REMARK  status: ('A' for Active; 'I' for Inactive)
REMARK    1  A    between atoms: C_1  and  C_4
REMARK    2  A    between atoms: C_1  and  C_11
REMARK    3  A    between atoms: C_12  and  C_17
REMARK    4  A    between atoms: C_17  and  C_35
REMARK                            x       y       z     vdW  Elec       q    Type
REMARK                         _______ _______ _______ _____ _____    ______ ____
ROOT
ATOM      1  C   UNL     1      46.139  35.790  42.795  0.00  0.00    +0.000 A 
ATOM      2  C   UNL     1      47.023  34.709  42.798  0.00  0.00    +0.000 A 
ATOM      3  C   UNL     1      46.893  33.788  43.835  0.00  0.00    +0.000 A 
ATOM      4  N   UNL     1      45.928  33.972  44.788  0.00  0.00    +0.000 NA
ATOM      5  C   UNL     1      45.115  35.030  44.726  0.00  0.00    +0.000 A 
ATOM      6  N   UNL     1      45.204  35.927  43.761  0.00  0.00    +0.000 NA
ATOM      7  N   UNL     1      44.093  35.268  45.689  0.00  0.00    +0.000 N 
ATOM      8  H   UNL     1      46.250  36.493  41.987  0.00  0.00    +0.000 HD
ATOM      9  H   UNL     1      44.552  35.794  46.463  0.00  0.00    +0.000 HD
ATOM     10  H   UNL     1      43.112  34.926  45.526  0.00  0.00    +0.000 HD
ENDROOT
BRANCH   2  11
ATOM     11  C   UNL     1      48.056  34.573  41.740  0.00  0.00    +0.000 C 
ATOM     12  C   UNL     1      48.809  35.839  41.367  0.00  0.00    +0.000 C 
ATOM     13  C   UNL     1      49.447  34.716  42.056  0.00  0.00    +0.000 C 
ATOM     14  H   UNL     1      49.087  36.034  40.312  0.00  0.00    +0.000 HD
ATOM     15  H   UNL     1      48.447  36.762  41.865  0.00  0.00    +0.000 HD
ATOM     16  H   UNL     1      49.957  35.129  42.935  0.00  0.00    +0.000 HD
ATOM     17  H   UNL     1      50.175  34.109  41.439  0.00  0.00    +0.000 HD
BRANCH  11  18
ATOM     18  C   UNL     1      47.671  33.764  40.537  0.00  0.00    +0.000 C 
ATOM     19  C   UNL     1      48.143  34.317  39.206  0.00  0.00    +0.000 C 
ATOM     20  C   UNL     1      47.743  33.282  38.163  0.00  0.00    +0.000 C 
ATOM     21  O   UNL     1      46.363  33.416  37.977  0.00  0.00    +0.000 OA
ATOM     22  C   UNL     1      45.831  32.843  39.157  0.00  0.00    +0.000 C 
ATOM     23  C   UNL     1      46.144  33.727  40.350  0.00  0.00    +0.000 C 
ATOM     24  H   UNL     1      48.001  32.725  40.696  0.00  0.00    +0.000 HD
ATOM     25  H   UNL     1      49.264  34.365  39.154  0.00  0.00    +0.000 HD
ATOM     26  H   UNL     1      47.672  35.289  39.028  0.00  0.00    +0.000 HD
ATOM     27  H   UNL     1      48.317  33.374  37.225  0.00  0.00    +0.000 HD
ATOM     28  H   UNL     1      47.944  32.287  38.607  0.00  0.00    +0.000 HD
ATOM     29  H   UNL     1      44.716  32.868  39.032  0.00  0.00    +0.000 HD
ATOM     30  H   UNL     1      46.122  31.804  39.297  0.00  0.00    +0.000 HD
ATOM     31  H   UNL     1      45.742  33.226  41.244  0.00  0.00    +0.000 HD
ATOM     32  H   UNL     1      45.749  34.731  40.143  0.00  0.00    +0.000 HD
ENDBRANCH  11  18
ENDBRANCH   2  11
BRANCH   3  33
ATOM     33  C   UNL     1      47.768  32.665  43.996  0.00  0.00    +0.000 C 
ATOM     34  O   UNL     1      47.441  31.457  44.343  0.00  0.00    +0.000 OA
BRANCH  33  35
ATOM     35  C   UNL     1      49.147  32.233  43.924  0.00  0.00    +0.000 A 
ATOM     36  C   UNL     1      50.279  32.959  44.165  0.00  0.00    +0.000 A 
ATOM     37  H   UNL     1      50.124  33.983  44.530  0.00  0.00    +0.000 HD
ATOM     38  C   UNL     1      51.554  32.398  43.950  0.00  0.00    +0.000 A 
ATOM     39  C   UNL     1      51.688  31.126  43.499  0.00  0.00    +0.000 A 
ATOM     40  N   UNL     1      52.922  30.634  43.308  0.00  0.00    +0.000 NA
ATOM     41  C   UNL     1      53.118  29.361  42.855  0.00  0.00    +0.000 A 
ATOM     42  H   UNL     1      54.103  28.926  42.688  0.00  0.00    +0.000 HD
ATOM     43  C   UNL     1      52.000  28.563  42.587  0.00  0.00    +0.000 A 
ATOM     44  C   UNL     1      50.701  29.040  42.773  0.00  0.00    +0.000 A 
ATOM     45  C   UNL     1      50.615  30.331  43.231  0.00  0.00    +0.000 A 
ATOM     46  C   UNL     1      49.409  30.944  43.464  0.00  0.00    +0.000 A 
ENDBRANCH  33  35
ENDBRANCH   3  33
TORSDOF 4
