REMARK  Name = 
REMARK  6 active torsions:
REMARK  status: ('A' for Active; 'I' for Inactive)
REMARK    1  A    between atoms: N_1  and  C_8
REMARK    2  A    between atoms: C_3  and  N_12
REMARK    3  A    between atoms: N_12  and  C_14
REMARK    4  A    between atoms: C_13  and  C_23
REMARK    5  A    between atoms: C_18  and  N_21
REMARK    6  A    between atoms: C_19  and  C_39
REMARK                            x       y       z     vdW  Elec       q    Type
REMARK                         _______ _______ _______ _____ _____    ______ ____
ROOT
ATOM      1  C   UNL     1      48.816  32.269  37.045  0.00  0.00    +0.000 A 
ATOM      2  C   UNL     1      48.083  33.006  37.992  0.00  0.00    +0.000 A 
ATOM      3  C   UNL     1      46.794  33.240  37.615  0.00  0.00    +0.000 A 
ATOM      4  C   UNL     1      46.191  32.836  36.454  0.00  0.00    +0.000 A 
ATOM      5  C   UNL     1      46.944  32.116  35.553  0.00  0.00    +0.000 A 
ATOM      6  C   UNL     1      48.253  31.842  35.866  0.00  0.00    +0.000 A 
ATOM      7  H   UNL     1      46.173  33.809  38.310  0.00  0.00    +0.000 HD
ATOM      8  H   UNL     1      45.157  33.066  36.233  0.00  0.00    +0.000 HD
ATOM      9  H   UNL     1      46.533  31.767  34.620  0.00  0.00    +0.000 HD
ENDROOT
BRANCH   6  12
ATOM     10  C   UNL     1      49.472  31.744  33.747  0.00  0.00    +0.000 C 
ATOM     11  O   UNL     1      49.277  32.984  33.577  0.00  0.00    +0.000 OA
ATOM     12  N   UNL     1      49.018  31.091  34.914  0.00  0.00    +0.000 N 
ATOM     13  H   UNL     1      49.230  30.094  35.079  0.00  0.00    +0.000 HD
BRANCH  10  14
ATOM     14  C   UNL     1      50.185  31.051  32.676  0.00  0.00    +0.000 A 
ATOM     15  C   UNL     1      50.052  31.515  31.388  0.00  0.00    +0.000 A 
ATOM     16  H   UNL     1      49.449  32.367  31.117  0.00  0.00    +0.000 HD
ATOM     17  C   UNL     1      50.708  30.894  30.322  0.00  0.00    +0.000 A 
ATOM     18  C   UNL     1      51.510  29.790  30.554  0.00  0.00    +0.000 A 
ATOM     19  N   UNL     1      52.126  29.219  29.503  0.00  0.00    +0.000 NA
ATOM     20  C   UNL     1      52.930  28.129  29.661  0.00  0.00    +0.000 A 
ATOM     21  H   UNL     1      53.403  27.706  28.789  0.00  0.00    +0.000 HD
ATOM     22  C   UNL     1      53.089  27.633  30.939  0.00  0.00    +0.000 A 
ATOM     23  C   UNL     1      52.454  28.219  32.040  0.00  0.00    +0.000 A 
ATOM     24  C   UNL     1      51.638  29.331  31.854  0.00  0.00    +0.000 A 
ATOM     25  C   UNL     1      50.985  29.950  32.905  0.00  0.00    +0.000 A 
ENDBRANCH  10  14
ENDBRANCH   6  12
BRANCH   2  26
ATOM     26  N   UNL     1      48.616  33.463  39.210  0.00  0.00    +0.000 N 
ATOM     27  H   UNL     1      49.556  33.895  39.014  0.00  0.00    +0.000 HD
BRANCH  26  30
ATOM     28  N   UNL     1      47.507  34.493  42.430  0.00  0.00    +0.000 N 
ATOM     29  C   UNL     1      47.509  34.731  41.001  0.00  0.00    +0.000 C 
ATOM     30  C   UNL     1      48.134  33.438  40.551  0.00  0.00    +0.000 C 
ATOM     31  C   UNL     1      49.331  33.332  41.473  0.00  0.00    +0.000 C 
ATOM     32  C   UNL     1      48.793  33.944  42.747  0.00  0.00    +0.000 C 
ATOM     33  H   UNL     1      46.483  34.866  40.612  0.00  0.00    +0.000 HD
ATOM     34  H   UNL     1      48.170  35.570  40.728  0.00  0.00    +0.000 HD
ATOM     35  H   UNL     1      47.443  32.602  40.787  0.00  0.00    +0.000 HD
ATOM     36  H   UNL     1      50.189  33.948  41.102  0.00  0.00    +0.000 HD
ATOM     37  H   UNL     1      49.629  32.282  41.603  0.00  0.00    +0.000 HD
ATOM     38  H   UNL     1      49.481  34.698  43.192  0.00  0.00    +0.000 HD
ATOM     39  H   UNL     1      48.643  33.117  43.471  0.00  0.00    +0.000 HD
BRANCH  28  42
ATOM     40  C   UNL     1      44.603  35.851  44.330  0.00  0.00    +0.000 A 
ATOM     41  C   UNL     1      45.542  35.714  43.319  0.00  0.00    +0.000 A 
ATOM     42  C   UNL     1      46.516  34.713  43.399  0.00  0.00    +0.000 A 
ATOM     43  N   UNL     1      46.479  33.912  44.497  0.00  0.00    +0.000 NA
ATOM     44  C   UNL     1      45.572  34.044  45.475  0.00  0.00    +0.000 A 
ATOM     45  N   UNL     1      44.629  35.024  45.383  0.00  0.00    +0.000 NA
ATOM     46  H   UNL     1      43.902  36.659  44.159  0.00  0.00    +0.000 HD
ATOM     47  H   UNL     1      45.628  36.308  42.429  0.00  0.00    +0.000 HD
ATOM     48  H   UNL     1      45.528  33.422  46.348  0.00  0.00    +0.000 HD
ENDBRANCH  28  42
ENDBRANCH  26  30
ENDBRANCH   2  26
BRANCH   1  50
ATOM     49  N   UNL     1      51.306  31.730  37.612  0.00  0.00    +0.000 NA
ATOM     50  C   UNL     1      50.209  31.970  37.364  0.00  0.00    +0.000 C 
ENDBRANCH   1  50
TORSDOF 6
