
 OpenBabel03252508503D

 31 34  0  0  0  0  0  0  0  0999 V2000
   46.0730   34.1630   41.0080 C   0  0  0  0  0  0  0  0  0  0  0  0
   46.6050   34.8390   42.1010 C   0  0  0  0  0  0  0  0  0  0  0  0
   47.9300   35.2820   41.9640 C   0  0  0  0  0  0  0  0  0  0  0  0
   48.5970   35.0330   40.8030 N   0  0  0  0  0  0  0  0  0  0  0  0
   48.0350   34.3820   39.7900 C   0  0  0  0  0  0  0  0  0  0  0  0
   46.7690   33.9400   39.8810 N   0  0  0  0  0  0  0  0  0  0  0  0
   48.3790   35.8120   42.7950 H   0  0  0  0  0  0  0  0  0  0  0  0
   48.5300   34.1650   38.8550 H   0  0  0  0  0  0  0  0  0  0  0  0
   45.8070   35.0480   43.2870 C   0  0  0  0  0  0  0  0  0  0  0  0
   45.0450   36.1940   43.4920 C   0  0  0  0  0  0  0  0  0  0  0  0
   44.4640   35.9730   44.7220 C   0  0  0  0  0  0  0  0  0  0  0  0
   44.8450   34.7720   45.2340 N   0  0  0  0  0  0  0  0  0  0  0  0
   45.6550   34.2410   44.3440 N   0  0  0  0  0  0  0  0  0  0  0  0
   44.8890   37.0880   42.8870 H   0  0  0  0  0  0  0  0  0  0  0  0
   43.7820   36.6380   45.2570 H   0  0  0  0  0  0  0  0  0  0  0  0
   44.5440   34.3630   46.1600 H   0  0  0  0  0  0  0  0  0  0  0  0
   44.7700   33.7050   41.0950 O   0  0  0  0  0  0  0  0  0  0  0  0
   43.6890   34.1430   40.3860 C   0  0  0  0  0  0  0  0  0  0  0  0
   43.2590   35.3460   40.2900 O   0  0  0  0  0  0  0  0  0  0  0  0
   42.8000   33.2550   39.5840 C   0  0  0  0  0  0  0  0  0  0  0  0
   41.4490   33.1620   39.8190 C   0  0  0  0  0  0  0  0  0  0  0  0
   40.9670   33.7340   40.5980 H   0  0  0  0  0  0  0  0  0  0  0  0
   40.6270   32.3210   39.0590 C   0  0  0  0  0  3  0  0  0  0  0  0
   41.1700   31.5610   38.0480 C   0  0  0  0  0  0  0  0  0  0  0  0
   40.4100   30.7430   37.2990 N   0  0  0  0  0  0  0  0  0  0  0  0
   40.9700   30.0060   36.3110 C   0  0  0  0  0  0  0  0  0  0  0  0
   40.2840   29.3720   35.7550 H   0  0  0  0  0  0  0  0  0  0  0  0
   42.3300   30.0270   35.9910 C   0  0  0  0  0  3  0  0  0  0  0  0
   43.0980   30.8700   36.7670 C   0  0  0  0  0  3  0  0  0  0  0  0
   42.5170   31.6170   37.7720 C   0  0  0  0  0  0  0  0  0  0  0  0
   43.2510   32.4670   38.5650 C   0  0  0  0  0  3  0  0  0  0  0  0
  1 17  1  0  0  0  0
  1  2  1  0  0  0  0
  2  9  1  0  0  0  0
  3  2  2  0  0  0  0
  3  7  1  0  0  0  0
  4  3  1  0  0  0  0
  5  6  1  0  0  0  0
  5  4  2  0  0  0  0
  6  1  2  0  0  0  0
  8  5  1  0  0  0  0
  9 10  1  0  0  0  0
  9 13  2  0  0  0  0
 10 11  2  0  0  0  0
 11 12  1  0  0  0  0
 11 15  1  0  0  0  0
 12 16  1  0  0  0  0
 13 12  1  0  0  0  0
 14 10  1  0  0  0  0
 18 17  1  0  0  0  0
 19 18  2  0  0  0  0
 20 21  1  0  0  0  0
 20 18  1  0  0  0  0
 21 22  1  0  0  0  0
 23 21  2  0  0  0  0
 24 23  1  0  0  0  0
 25 24  2  0  0  0  0
 26 25  1  0  0  0  0
 27 26  1  0  0  0  0
 28 26  2  0  0  0  0
 28 29  1  0  0  0  0
 29 30  2  0  0  0  0
 30 24  1  0  0  0  0
 30 31  1  0  0  0  0
 31 20  2  0  0  0  0
M  END
>  <minimizedAffinity>
-5.52213669

>  <minimizedRMSD>
0.206665367

$$$$
