
     RDKit          3D

 45 49  0  0  0  0  0  0  0  0999 V2000
   46.3195   32.1340   44.5521 C   0  0  1  0  0  0  0  0  0  0  0  0
   46.4483   31.3571   43.3943 C   0  0  0  0  0  0  0  0  0  0  0  0
   47.6788   32.1268   43.9627 C   0  0  1  0  0  0  0  0  0  0  0  0
   45.0599   33.9694   43.1954 C   0  0  0  0  0  0  0  0  0  0  0  0
   45.5545   33.4616   44.4429 C   0  0  0  0  0  0  0  0  0  0  0  0
   45.3427   34.2294   45.5733 C   0  0  0  0  0  0  0  0  0  0  0  0
   44.6910   35.4066   45.4579 N   0  0  0  0  0  0  0  0  0  0  0  0
   44.2284   35.8745   44.2601 C   0  0  0  0  0  0  0  0  0  0  0  0
   44.4254   35.1232   43.1020 N   0  0  0  0  0  0  0  0  0  0  0  0
   48.0352   33.2502   43.1698 N   0  0  0  0  0  0  0  0  0  0  0  0
   49.1850   33.2913   42.3875 C   0  0  0  0  0  0  0  0  0  0  0  0
   50.3567   32.9035   42.6301 O   0  0  0  0  0  0  0  0  0  0  0  0
   49.1087   33.8820   40.9899 C   0  0  2  0  0  0  0  0  0  0  0  0
   48.6132   35.3744   40.8961 C   0  0  0  0  0  0  0  0  0  0  0  0
   47.8227   34.2179   40.3721 C   0  0  1  0  0  0  0  0  0  0  0  0
   47.7142   34.0670   38.8727 C   0  0  0  0  0  0  0  0  0  0  0  0
   48.4688   34.6962   38.1384 O   0  0  0  0  0  0  0  0  0  0  0  0
   46.1611   31.6941   45.5661 H   0  0  0  0  0  0  0  0  0  0  0  0
   46.5544   30.2348   43.5101 H   0  0  0  0  0  0  0  0  0  0  0  0
   46.1673   31.5866   42.3477 H   0  0  0  0  0  0  0  0  0  0  0  0
   48.5071   31.4596   44.2514 H   0  0  0  0  0  0  0  0  0  0  0  0
   45.2136   33.3496   42.3329 H   0  0  0  0  0  0  0  0  0  0  0  0
   45.6914   33.8986   46.5413 H   0  0  0  0  0  0  0  0  0  0  0  0
   43.7236   36.8339   44.3097 H   0  0  0  0  0  0  0  0  0  0  0  0
   47.4885   34.1601   43.0832 H   0  0  0  0  0  0  0  0  0  0  0  0
   49.9948   33.7562   40.3360 H   0  0  0  0  0  0  0  0  0  0  0  0
   48.2621   35.8011   41.8579 H   0  0  0  0  0  0  0  0  0  0  0  0
   49.0680   36.0148   40.1471 H   0  0  0  0  0  0  0  0  0  0  0  0
   46.9659   33.7948   40.9449 H   0  0  0  0  0  0  0  0  0  0  0  0
   46.7214   33.1801   38.2723 C   0  0  0  0  0  0  0  0  0  0  0  0
   46.9349   32.2912   37.2406 C   0  0  0  0  0  0  0  0  0  0  0  0
   47.9279   32.2313   36.8204 H   0  0  0  0  0  0  0  0  0  0  0  0
   45.9561   31.4794   36.7174 C   0  0  0  0  0  0  0  0  0  0  0  0
   44.6756   31.5241   37.2225 C   0  0  0  0  0  0  0  0  0  0  0  0
   43.7240   30.7369   36.7163 N   0  0  0  0  0  0  0  0  0  0  0  0
   42.4555   30.7820   37.2175 C   0  0  0  0  0  0  0  0  0  0  0  0
   41.7142   30.1102   36.7600 H   0  0  0  0  0  0  0  0  0  0  0  0
   42.1552   31.6508   38.2586 C   0  0  0  0  0  0  0  0  0  0  0  0
   43.1427   32.4635   38.7794 C   0  0  0  0  0  0  0  0  0  0  0  0
   44.4084   32.3941   38.2530 C   0  0  0  0  0  0  0  0  0  0  0  0
   45.4227   33.1832   38.7391 C   0  0  0  0  0  0  0  0  0  0  0  0
   46.1943   30.8007   35.9029 H   0  0  0  0  0  0  0  0  0  0  0  0
   41.1182   31.6400   38.6169 H   0  0  0  0  0  0  0  0  0  0  0  0
   42.8996   33.1314   39.5840 H   0  0  0  0  0  0  0  0  0  0  0  0
   45.1479   33.8564   39.5607 H   0  0  0  0  0  0  0  0  0  0  0  0
  2  3  1  0
  2  1  1  0
  3  1  1  0
  4  5  2  0
  5  1  1  0
  5  6  1  0
  7  6  2  0
  8  7  1  0
  9  4  1  0
  9  8  2  0
 10  3  1  0
 11 12  2  0
 11 10  1  0
 13 11  1  0
 14 13  1  0
 15 14  1  0
 15 13  1  0
 16 15  1  0
 17 16  2  0
  1 18  1  1
  2 19  1  0
  2 20  1  0
  3 21  1  1
  4 22  1  0
  6 23  1  0
  8 24  1  0
 10 25  1  0
 13 26  1  6
 14 27  1  0
 14 28  1  0
 15 29  1  1
 30 31  2  0
 31 32  1  0
 31 33  1  0
 33 34  2  0
 34 35  1  0
 35 36  2  0
 36 37  1  0
 36 38  1  0
 38 39  2  0
 39 40  1  0
 40 41  2  0
 41 30  1  0
 40 34  1  0
 33 42  1  0
 38 43  1  0
 39 44  1  0
 41 45  1  0
 16 30  1  0
M  ISO  8  18  13  19  13  20  13  21  13  22  14  23  14  24  14  26  13
M  ISO  5  27  13  28  13  29  13  32  16  37  16
M  END
>  <DihAtoms>  (1) 
14,15,29,30

>  <DihDeg>  (1) 
-0.22425068665949133

$$$$
