REMARK  Name = 
REMARK  3 active torsions:
REMARK  status: ('A' for Active; 'I' for Inactive)
REMARK    1  A    between atoms: C_1  and  C_10
REMARK    2  A    between atoms: C_2  and  C_7
REMARK    3  A    between atoms: C_10  and  C_19
REMARK                            x       y       z     vdW  Elec       q    Type
REMARK                         _______ _______ _______ _____ _____    ______ ____
ROOT
ATOM      1  C   UNL     1      46.272  34.486  43.621  0.00  0.00    +0.000 A 
ATOM      2  C   UNL     1      47.384  33.881  43.144  0.00  0.00    +0.000 A 
ATOM      3  C   UNL     1      47.776  32.746  43.817  0.00  0.00    +0.000 A 
ATOM      4  N   UNL     1      47.013  32.326  44.906  0.00  0.00    +0.000 NA
ATOM      5  C   UNL     1      45.920  32.973  45.326  0.00  0.00    +0.000 A 
ATOM      6  N   UNL     1      45.514  34.102  44.673  0.00  0.00    +0.000 NA
ATOM      7  H   UNL     1      48.665  32.200  43.494  0.00  0.00    +0.000 HD
ATOM      8  H   UNL     1      45.570  32.398  46.170  0.00  0.00    +0.000 HD
ENDROOT
BRANCH   2   9
ATOM      9  C   UNL     1      48.185  34.351  42.076  0.00  0.00    +0.000 C 
ATOM     10  C   UNL     1      48.539  35.615  41.711  0.00  0.00    +0.000 C 
ATOM     11  C   UNL     1      49.667  34.832  42.388  0.00  0.00    +0.000 C 
ATOM     12  H   UNL     1      48.467  33.430  41.404  0.00  0.00    +0.000 HD
ATOM     13  H   UNL     1      48.170  36.535  42.276  0.00  0.00    +0.000 HD
ATOM     14  H   UNL     1      48.831  35.933  40.674  0.00  0.00    +0.000 HD
ATOM     15  H   UNL     1      49.839  35.113  43.452  0.00  0.00    +0.000 HD
ATOM     16  H   UNL     1      50.493  34.496  41.795  0.00  0.00    +0.000 HD
ENDBRANCH   2   9
BRANCH   1  17
ATOM     17  C   UNL     1      45.546  35.641  43.084  0.00  0.00    +0.000 C 
ATOM     18  O   UNL     1      45.237  36.830  43.065  0.00  0.00    +0.000 OA
BRANCH  17  19
ATOM     19  C   UNL     1      44.655  35.392  41.920  0.00  0.00    +0.000 A 
ATOM     20  C   UNL     1      43.917  34.208  41.923  0.00  0.00    +0.000 A 
ATOM     21  H   UNL     1      43.963  33.544  42.803  0.00  0.00    +0.000 HD
ATOM     22  C   UNL     1      43.079  33.724  40.926  0.00  0.00    +0.000 A 
ATOM     23  C   UNL     1      42.990  34.531  39.809  0.00  0.00    +0.000 A 
ATOM     24  N   UNL     1      42.209  34.123  38.794  0.00  0.00    +0.000 NA
ATOM     25  C   UNL     1      42.081  34.857  37.648  0.00  0.00    +0.000 A 
ATOM     26  H   UNL     1      41.456  34.541  36.822  0.00  0.00    +0.000 HD
ATOM     27  C   UNL     1      42.785  36.048  37.558  0.00  0.00    +0.000 A 
ATOM     28  C   UNL     1      43.604  36.499  38.601  0.00  0.00    +0.000 A 
ATOM     29  C   UNL     1      43.696  35.711  39.741  0.00  0.00    +0.000 A 
ATOM     30  C   UNL     1      44.514  36.156  40.755  0.00  0.00    +0.000 A 
ENDBRANCH  17  19
ENDBRANCH   1  17
TORSDOF 3
