
 OpenBabel03242510233D

 41 45  0  0  1  0  0  0  0  0999 V2000
   49.0910   33.8680   40.9600 C   0  0  2  0  0  0  0  0  0  0  0  0
   48.5480   35.3450   40.9100 C   0  0  0  0  0  0  0  0  0  0  0  0
   47.8040   34.1830   40.3340 C   0  0  1  0  0  0  0  0  0  0  0  0
   49.9900   33.7930   40.3160 H   0  0  0  0  0  0  0  0  0  0  0  0
   48.1690   35.7270   41.8800 H   0  0  0  0  0  0  0  0  0  0  0  0
   48.9920   36.0260   40.1900 H   0  0  0  0  0  0  0  0  0  0  0  0
   46.9530   33.7130   40.8790 H   0  0  0  0  0  0  0  0  0  0  0  0
   48.0260   33.2020   43.1340 N   0  0  0  0  0  0  0  0  0  0  0  0
   49.1660   33.2310   42.3380 C   0  0  0  0  0  0  0  0  0  0  0  0
   50.3280   32.8000   42.5520 O   0  0  0  0  0  0  0  0  0  0  0  0
   47.5080   34.1310   43.0830 H   0  0  0  0  0  0  0  0  0  0  0  0
   46.2810   32.0840   44.4780 C   0  0  1  0  0  0  0  0  0  0  0  0
   46.4030   31.3330   43.3020 C   0  0  0  0  0  0  0  0  0  0  0  0
   47.6440   32.0670   43.8970 C   0  0  1  0  0  0  0  0  0  0  0  0
   46.1080   31.6220   45.4800 H   0  0  0  0  0  0  0  0  0  0  0  0
   46.4880   30.2070   43.3910 H   0  0  0  0  0  0  0  0  0  0  0  0
   46.1330   31.5940   42.2600 H   0  0  0  0  0  0  0  0  0  0  0  0
   48.4580   31.3780   44.1740 H   0  0  0  0  0  0  0  0  0  0  0  0
   45.0540   33.9690   43.1600 C   0  0  0  0  0  0  0  0  0  0  0  0
   45.5410   33.4280   44.3970 C   0  0  0  0  0  0  0  0  0  0  0  0
   45.3460   34.1760   45.5420 C   0  0  0  0  0  0  0  0  0  0  0  0
   44.7160   35.3680   45.4520 N   0  0  0  0  0  0  0  0  0  0  0  0
   44.2600   35.8680   44.2650 C   0  0  0  0  0  0  0  0  0  0  0  0
   44.4410   35.1360   43.0920 N   0  0  0  0  0  0  0  0  0  0  0  0
   45.1950   33.3650   42.2860 H   0  0  0  0  0  0  0  0  0  0  0  0
   45.6890   33.8200   46.5030 H   0  0  0  0  0  0  0  0  0  0  0  0
   43.7740   36.8360   44.3350 H   0  0  0  0  0  0  0  0  0  0  0  0
   47.7220   34.0810   38.8290 C   0  0  0  0  0  0  0  0  0  0  0  0
   48.5410   34.6700   38.1300 O   0  0  0  0  0  0  0  0  0  0  0  0
   46.6790   33.2900   38.1800 C   0  0  0  0  0  0  0  0  0  0  0  0
   46.8100   32.5580   37.0200 C   0  0  0  0  0  0  0  0  0  0  0  0
   47.7700   32.5590   36.5250 H   0  0  0  0  0  0  0  0  0  0  0  0
   45.7880   31.8290   36.4570 C   0  0  0  0  0  3  0  0  0  0  0  0
   44.5480   31.8020   37.0540 C   0  0  0  0  0  0  0  0  0  0  0  0
   43.5540   31.0950   36.5100 N   0  0  0  0  0  0  0  0  0  0  0  0
   42.3250   31.0680   37.1030 C   0  0  0  0  0  0  0  0  0  0  0  0
   41.5460   30.4690   36.6080 H   0  0  0  0  0  0  0  0  0  0  0  0
   42.1080   31.7790   38.2770 C   0  0  0  0  0  3  0  0  0  0  0  0
   43.1390   32.5090   38.8350 C   0  0  0  0  0  3  0  0  0  0  0  0
   44.3630   32.5150   38.2150 C   0  0  0  0  0  0  0  0  0  0  0  0
   45.4180   33.2260   38.7350 C   0  0  0  0  0  3  0  0  0  0  0  0
  1  4  1  6  0  0  0
  1  9  1  0  0  0  0
  2  1  1  0  0  0  0
  2  5  1  0  0  0  0
  3  7  1  1  0  0  0
  3  2  1  0  0  0  0
  3  1  1  0  0  0  0
  6  2  1  0  0  0  0
  8 14  1  0  0  0  0
  9 10  2  0  0  0  0
  9  8  1  0  0  0  0
 11  8  1  0  0  0  0
 12 15  1  1  0  0  0
 13 16  1  0  0  0  0
 13 14  1  0  0  0  0
 13 12  1  0  0  0  0
 14 18  1  1  0  0  0
 14 12  1  0  0  0  0
 17 13  1  0  0  0  0
 19 20  1  0  0  0  0
 20 12  1  0  0  0  0
 20 21  2  0  0  0  0
 21 26  1  0  0  0  0
 22 21  1  0  0  0  0
 23 27  1  0  0  0  0
 23 22  2  0  0  0  0
 24 19  2  0  0  0  0
 24 23  1  0  0  0  0
 25 19  1  0  0  0  0
 28  3  1  0  0  0  0
 29 28  2  0  0  0  0
 30 41  1  0  0  0  0
 30 28  1  0  0  0  0
 31 30  2  0  0  0  0
 32 31  1  0  0  0  0
 33 31  1  0  0  0  0
 33 34  2  0  0  0  0
 34 40  1  0  0  0  0
 35 34  1  0  0  0  0
 35 36  2  0  0  0  0
 36 38  1  0  0  0  0
 37 36  1  0  0  0  0
 38 39  2  0  0  0  0
 40 41  2  0  0  0  0
 40 39  1  0  0  0  0
M  END
>  <minimizedAffinity>
-5.34537172

>  <minimizedRMSD>
0.186652988

$$$$
