
 OpenBabel03252507383D

 41 46  0  0  0  0  0  0  0  0999 V2000
   45.9360   34.6230   43.6990 C   0  0  0  0  0  0  0  0  0  0  0  0
   46.6580   33.5860   44.3460 C   0  0  0  0  0  0  0  0  0  0  0  0
   46.3290   33.3120   45.6590 C   0  0  0  0  0  0  0  0  0  0  0  0
   45.3560   34.0270   46.2560 N   0  0  0  0  0  0  0  0  0  0  0  0
   44.6800   35.0140   45.6180 C   0  0  0  0  0  0  0  0  0  0  0  0
   44.9770   35.2990   44.3530 N   0  0  0  0  0  0  0  0  0  0  0  0
   47.4380   33.0090   43.8750 H   0  0  0  0  0  0  0  0  0  0  0  0
   43.9110   35.5550   46.1440 H   0  0  0  0  0  0  0  0  0  0  0  0
   47.2620   32.5810   47.7870 C   0  0  0  0  0  0  0  0  0  0  0  0
   46.9820   32.2740   46.4580 C   0  0  0  0  0  0  0  0  0  0  0  0
   47.3260   31.0460   45.9930 C   0  0  0  0  0  0  0  0  0  0  0  0
   47.9410   30.0820   46.7650 C   0  0  0  0  0  0  0  0  0  0  0  0
   48.3600   28.8260   46.5140 N   0  0  0  0  0  0  0  0  0  0  0  0
   48.9110   28.3350   47.6900 C   0  0  0  0  0  0  0  0  0  0  0  0
   48.8110   29.3070   48.6310 N   0  0  0  0  0  0  0  0  0  0  0  0
   48.2230   30.3740   48.0790 C   0  0  0  0  0  0  0  0  0  0  0  0
   47.8870   31.6100   48.5830 C   0  0  0  0  0  0  0  0  0  0  0  0
   47.0240   33.5310   48.2420 H   0  0  0  0  0  0  0  0  0  0  0  0
   47.0910   30.8410   44.9500 H   0  0  0  0  0  0  0  0  0  0  0  0
   48.2740   28.3390   45.5940 H   0  0  0  0  0  0  0  0  0  0  0  0
   49.3380   27.3430   47.8080 H   0  0  0  0  0  0  0  0  0  0  0  0
   48.0940   31.8660   49.6000 H   0  0  0  0  0  0  0  0  0  0  0  0
   46.2730   34.8980   42.3710 O   0  0  0  0  0  0  0  0  0  0  0  0
   45.4060   34.5310   41.3480 C   0  0  0  0  0  0  0  0  0  0  0  0
   46.1620   33.6350   40.6840 C   0  0  0  0  0  0  0  0  0  0  0  0
   44.9830   33.1130   39.2710 S   0  0  0  0  0  0  0  0  0  0  0  0
   43.6820   34.2970   39.9550 C   0  0  0  0  0  0  0  0  0  0  0  0
   44.2190   34.7090   40.8210 N   0  0  0  0  0  0  0  0  0  0  0  0
   47.1210   32.9400   40.4050 H   0  0  0  0  0  0  0  0  0  0  0  0
   42.4000   34.3690   39.2340 C   0  0  0  0  0  0  0  0  0  0  0  0
   41.9850   35.4730   38.5410 C   0  0  0  0  0  0  0  0  0  0  0  0
   42.6150   36.3510   38.5050 H   0  0  0  0  0  0  0  0  0  0  0  0
   40.7410   35.3970   37.9030 C   0  0  0  0  0  0  0  0  0  0  0  0
   39.9700   34.2340   37.9830 C   0  0  0  0  0  0  0  0  0  0  0  0
   38.7810   34.2100   37.3530 N   0  0  0  0  0  0  0  0  0  0  0  0
   37.9790   33.1240   37.3840 C   0  0  0  0  0  0  0  0  0  0  0  0
   37.0300   33.1470   36.8630 H   0  0  0  0  0  0  0  0  0  0  0  0
   38.4250   32.0050   38.1000 C   0  0  0  0  0  0  0  0  0  0  0  0
   39.6490   32.0210   38.7530 C   0  0  0  0  0  0  0  0  0  0  0  0
   40.4390   33.1510   38.6970 C   0  0  0  0  0  0  0  0  0  0  0  0
   41.6790   33.2020   39.3430 C   0  0  0  0  0  0  0  0  0  0  0  0
  1  2  2  0  0  0  0
  1  6  1  0  0  0  0
  2  3  1  0  0  0  0
  3  4  2  0  0  0  0
  3 10  1  0  0  0  0
  5  8  1  0  0  0  0
  5  4  1  0  0  0  0
  6  5  2  0  0  0  0
  7  2  1  0  0  0  0
  9 18  1  0  0  0  0
  9 17  1  0  0  0  0
 10  9  2  0  0  0  0
 11 10  1  0  0  0  0
 11 12  2  0  0  0  0
 12 16  1  0  0  0  0
 13 12  1  0  0  0  0
 13 14  1  0  0  0  0
 14 21  1  0  0  0  0
 14 15  2  0  0  0  0
 16 17  2  0  0  0  0
 16 15  1  0  0  0  0
 17 22  1  0  0  0  0
 19 11  1  0  0  0  0
 20 13  1  0  0  0  0
 23  1  1  0  0  0  0
 24 23  1  0  0  0  0
 25 24  2  0  0  0  0
 26 27  1  0  0  0  0
 26 25  1  0  0  0  0
 27 28  2  0  0  0  0
 28 24  1  0  0  0  0
 29 25  1  0  0  0  0
 30 41  1  0  0  0  0
 30 27  1  0  0  0  0
 31 30  2  0  0  0  0
 32 31  1  0  0  0  0
 33 34  2  0  0  0  0
 33 31  1  0  0  0  0
 34 40  1  0  0  0  0
 35 36  2  0  0  0  0
 35 34  1  0  0  0  0
 36 38  1  0  0  0  0
 37 36  1  0  0  0  0
 38 39  2  0  0  0  0
 40 39  1  0  0  0  0
 40 41  2  0  0  0  0
M  END
>  <minimizedAffinity>
-7.60180569

>  <minimizedRMSD>
1.30477273

$$$$
