
 OpenBabel03252509243D

 30 33  0  0  1  0  0  0  0  0999 V2000
   46.5350   34.7500   42.0070 C   0  0  1  0  0  0  0  0  0  0  0  0
   47.9990   35.2660   42.0030 C   0  0  0  0  0  0  0  0  0  0  0  0
   47.5420   33.8130   41.6640 C   0  0  2  0  0  0  0  0  0  0  0  0
   45.8900   35.2980   41.2900 H   0  0  0  0  0  0  0  0  0  0  0  0
   48.3470   35.8200   41.1240 H   0  0  0  0  0  0  0  0  0  0  0  0
   48.5180   35.4210   42.9430 H   0  0  0  0  0  0  0  0  0  0  0  0
   47.8620   33.0760   42.4400 H   0  0  0  0  0  0  0  0  0  0  0  0
   47.7550   33.3630   40.2500 C   0  0  0  0  0  0  0  0  0  0  0  0
   46.6960   33.6160   39.3800 C   0  0  0  0  0  0  0  0  0  0  0  0
   45.7870   34.1020   39.7050 H   0  0  0  0  0  0  0  0  0  0  0  0
   46.8060   33.2330   38.0520 C   0  0  0  0  0  3  0  0  0  0  0  0
   47.9570   32.6110   37.6120 C   0  0  0  0  0  0  0  0  0  0  0  0
   48.1090   32.2180   36.3170 N   0  0  0  0  0  0  0  0  0  0  0  0
   49.2390   31.6130   35.9110 C   0  0  0  0  0  0  0  0  0  0  0  0
   49.3350   31.3100   34.8720 H   0  0  0  0  0  0  0  0  0  0  0  0
   50.3040   31.3480   36.7470 C   0  0  0  0  0  3  0  0  0  0  0  0
   50.1150   31.7630   38.0610 C   0  0  0  0  0  3  0  0  0  0  0  0
   48.9690   32.3910   38.5300 C   0  0  0  0  0  0  0  0  0  0  0  0
   48.9200   32.7470   39.8620 C   0  0  0  0  0  3  0  0  0  0  0  0
   44.5340   35.6040   45.0670 C   0  0  0  0  0  0  0  0  0  0  0  0
   45.0600   35.7120   43.7370 C   0  0  0  0  0  0  0  0  0  0  0  0
   45.9840   34.7510   43.4150 C   0  0  0  0  0  0  0  0  0  0  0  0
   46.3720   33.7630   44.3130 N   0  0  0  0  0  0  0  0  0  0  0  0
   45.8420   33.7220   45.5380 C   0  0  0  0  0  0  0  0  0  0  0  0
   44.9210   34.6440   45.9190 N   0  0  0  0  0  0  0  0  0  0  0  0
   43.8010   36.3400   45.3660 H   0  0  0  0  0  0  0  0  0  0  0  0
   46.2430   32.9000   46.1140 H   0  0  0  0  0  0  0  0  0  0  0  0
   44.6750   36.7460   42.8340 N   0  0  0  0  0  0  0  0  0  0  0  0
   44.2930   36.5820   41.8650 H   0  0  0  0  0  0  0  0  0  0  0  0
   44.8440   37.6680   43.3170 H   0  0  0  0  0  0  0  0  0  0  0  0
  1  4  1  6  0  0  0
  1 22  1  0  0  0  0
  2  1  1  0  0  0  0
  2  6  1  0  0  0  0
  3  2  1  0  0  0  0
  3  1  1  0  0  0  0
  3  7  1  1  0  0  0
  5  2  1  0  0  0  0
  8  3  1  0  0  0  0
  9 10  1  0  0  0  0
  9  8  2  0  0  0  0
 11  9  1  0  0  0  0
 12 11  2  0  0  0  0
 12 18  1  0  0  0  0
 13 12  1  0  0  0  0
 14 13  2  0  0  0  0
 14 16  1  0  0  0  0
 15 14  1  0  0  0  0
 16 17  2  0  0  0  0
 17 18  1  0  0  0  0
 18 19  2  0  0  0  0
 19  8  1  0  0  0  0
 20 26  1  0  0  0  0
 20 25  1  0  0  0  0
 21 20  2  0  0  0  0
 22 21  1  0  0  0  0
 22 23  2  0  0  0  0
 23 24  1  0  0  0  0
 24 25  2  0  0  0  0
 24 27  1  0  0  0  0
 28 30  1  0  0  0  0
 28 21  1  0  0  0  0
 29 28  1  0  0  0  0
M  END
>  <minimizedAffinity>
-5.39847422

>  <minimizedRMSD>
0.718403876

$$$$
