
 OpenBabel03252507243D

 50 54  0  0  1  0  0  0  0  0999 V2000
   38.8130   28.8320   40.2090 C   0  0  0  0  0  0  0  0  0  0  0  0
   39.1680   28.1790   39.1850 O   0  0  0  0  0  0  0  0  0  0  0  0
   38.4070   28.2530   41.4660 N   0  0  0  0  0  0  0  0  0  0  0  0
   38.7390   28.6050   42.8270 C   0  0  0  0  0  0  0  0  0  0  0  0
   37.4340   28.7460   43.6240 C   0  0  0  0  0  0  0  0  0  0  0  0
   36.7100   27.4400   43.6800 C   0  0  0  0  0  0  0  0  0  0  0  0
   37.2860   26.4910   42.6600 C   0  0  0  0  0  0  0  0  0  0  0  0
   37.4950   27.1390   41.3060 C   0  0  2  0  0  0  0  0  0  0  0  0
   39.3910   27.8950   43.3410 H   0  0  0  0  0  0  0  0  0  0  0  0
   39.1980   29.6320   42.8670 H   0  0  0  0  0  0  0  0  0  0  0  0
   37.7280   29.0260   44.6380 H   0  0  0  0  0  0  0  0  0  0  0  0
   36.8310   29.5340   43.1140 H   0  0  0  0  0  0  0  0  0  0  0  0
   36.8310   26.9570   44.6750 H   0  0  0  0  0  0  0  0  0  0  0  0
   35.6350   27.6210   43.4300 H   0  0  0  0  0  0  0  0  0  0  0  0
   36.5500   25.6590   42.4810 H   0  0  0  0  0  0  0  0  0  0  0  0
   38.2120   26.0210   43.0310 H   0  0  0  0  0  0  0  0  0  0  0  0
   36.5210   27.5490   40.9920 H   0  0  0  0  0  0  0  0  0  0  0  0
   39.9980   30.9730   40.4630 C   0  0  0  0  0  0  0  0  0  0  0  0
   38.8190   30.2810   40.0930 C   0  0  0  0  0  0  0  0  0  0  0  0
   37.7310   30.9930   39.6410 C   0  0  0  0  0  0  0  0  0  0  0  0
   37.8350   32.3360   39.5680 N   0  0  0  0  0  0  0  0  0  0  0  0
   38.9640   33.0140   39.9210 C   0  0  0  0  0  0  0  0  0  0  0  0
   40.0180   32.3150   40.3590 N   0  0  0  0  0  0  0  0  0  0  0  0
   40.8420   30.4060   40.8140 H   0  0  0  0  0  0  0  0  0  0  0  0
   38.9870   34.0830   39.8410 H   0  0  0  0  0  0  0  0  0  0  0  0
   36.5370   30.2630   39.2700 C   0  0  0  0  0  0  0  0  0  0  0  0
   35.6390   29.8990   40.2230 C   0  0  0  0  0  0  0  0  0  0  0  0
   34.5100   29.2060   39.8390 C   0  0  0  0  0  0  0  0  0  0  0  0
   34.2490   28.8590   38.5200 C   0  0  0  0  0  0  0  0  0  0  0  0
   35.2040   29.2580   37.5910 C   0  0  0  0  0  0  0  0  0  0  0  0
   36.2850   29.9290   37.9970 N   0  0  0  0  0  0  0  0  0  0  0  0
   35.7270   30.1070   41.2690 H   0  0  0  0  0  0  0  0  0  0  0  0
   33.7330   28.8710   40.5350 H   0  0  0  0  0  0  0  0  0  0  0  0
   33.3860   28.3210   38.1850 H   0  0  0  0  0  0  0  0  0  0  0  0
   35.0440   29.0100   36.5530 H   0  0  0  0  0  0  0  0  0  0  0  0
   37.9100   26.0880   40.3550 C   0  0  0  0  0  0  0  0  0  0  0  0
   38.8670   25.5720   40.6110 H   0  0  0  0  0  0  0  0  0  0  0  0
   38.2860   26.7060   39.4960 H   0  0  0  0  0  0  0  0  0  0  0  0
   36.8950   25.2020   39.8020 C   0  0  0  0  0  0  0  0  0  0  0  0
   36.3820   23.9690   40.1130 C   0  0  0  0  0  0  0  0  0  0  0  0
   36.7960   23.4800   40.9520 H   0  0  0  0  0  0  0  0  0  0  0  0
   35.3940   23.2830   39.4550 C   0  0  0  0  0  3  0  0  0  0  0  0
   34.8030   23.8220   38.3570 C   0  0  0  0  0  0  0  0  0  0  0  0
   33.8420   23.1620   37.7120 N   0  0  0  0  0  0  0  0  0  0  0  0
   33.2120   23.6290   36.6200 C   0  0  0  0  0  0  0  0  0  0  0  0
   32.4290   23.1190   36.0740 H   0  0  0  0  0  0  0  0  0  0  0  0
   33.6420   24.8720   36.2020 C   0  0  0  0  0  3  0  0  0  0  0  0
   34.6310   25.6090   36.8230 C   0  0  0  0  0  3  0  0  0  0  0  0
   35.2140   25.0420   37.9330 C   0  0  0  0  0  0  0  0  0  0  0  0
   36.2210   25.6780   38.6500 C   0  0  0  0  0  3  0  0  0  0  0  0
  1  3  1  0  0  0  0
  2  1  2  0  0  0  0
  3  4  1  0  0  0  0
  4 10  1  0  0  0  0
  4  9  1  0  0  0  0
  4  5  1  0  0  0  0
  5  6  1  0  0  0  0
  5 11  1  0  0  0  0
  6 13  1  0  0  0  0
  7 16  1  0  0  0  0
  7  6  1  0  0  0  0
  8 17  1  6  0  0  0
  8  3  1  0  0  0  0
  8  7  1  0  0  0  0
 12  5  1  0  0  0  0
 14  6  1  0  0  0  0
 15  7  1  0  0  0  0
 18 24  1  0  0  0  0
 19  1  1  0  0  0  0
 19 18  2  0  0  0  0
 20 19  1  0  0  0  0
 21 20  2  0  0  0  0
 21 22  1  0  0  0  0
 22 23  2  0  0  0  0
 23 18  1  0  0  0  0
 25 22  1  0  0  0  0
 26 20  1  0  0  0  0
 26 27  1  0  0  0  0
 27 32  1  0  0  0  0
 28 27  2  0  0  0  0
 28 33  1  0  0  0  0
 29 28  1  0  0  0  0
 30 31  1  0  0  0  0
 30 29  2  0  0  0  0
 31 26  2  0  0  0  0
 34 29  1  0  0  0  0
 35 30  1  0  0  0  0
 36 37  1  0  0  0  0
 36  8  1  0  0  0  0
 38 36  1  0  0  0  0
 39 40  1  0  0  0  0
 39 36  1  0  0  0  0
 40 41  1  0  0  0  0
 42 40  2  0  0  0  0
 43 42  1  0  0  0  0
 44 43  2  0  0  0  0
 45 44  1  0  0  0  0
 46 45  1  0  0  0  0
 47 45  2  0  0  0  0
 47 48  1  0  0  0  0
 48 49  2  0  0  0  0
 49 43  1  0  0  0  0
 49 50  1  0  0  0  0
 50 39  2  0  0  0  0
M  END
>  <minimizedAffinity>
-6.70195532

$$$$

 OpenBabel03252507243D

 50 54  0  0  1  0  0  0  0  0999 V2000
   38.3850   29.9100   40.8180 C   0  0  0  0  0  0  0  0  0  0  0  0
   37.1340   29.7780   40.6750 O   0  0  0  0  0  0  0  0  0  0  0  0
   39.2570   28.9510   41.4500 N   0  0  0  0  0  0  0  0  0  0  0  0
   40.5570   28.4500   41.0680 C   0  0  0  0  0  0  0  0  0  0  0  0
   41.5020   28.5900   42.2700 C   0  0  0  0  0  0  0  0  0  0  0  0
   41.0310   27.7450   43.4090 C   0  0  0  0  0  0  0  0  0  0  0  0
   39.6110   27.3010   43.1640 C   0  0  0  0  0  0  0  0  0  0  0  0
   38.7170   28.4280   42.6890 C   0  0  2  0  0  0  0  0  0  0  0  0
   40.5700   27.4120   40.7280 H   0  0  0  0  0  0  0  0  0  0  0  0
   41.0160   29.1090   40.2790 H   0  0  0  0  0  0  0  0  0  0  0  0
   42.4730   28.2160   41.9360 H   0  0  0  0  0  0  0  0  0  0  0  0
   41.5230   29.6730   42.5360 H   0  0  0  0  0  0  0  0  0  0  0  0
   41.6460   26.8230   43.5040 H   0  0  0  0  0  0  0  0  0  0  0  0
   41.0550   28.3630   44.3410 H   0  0  0  0  0  0  0  0  0  0  0  0
   39.1650   26.9580   44.1380 H   0  0  0  0  0  0  0  0  0  0  0  0
   39.5760   26.4390   42.4780 H   0  0  0  0  0  0  0  0  0  0  0  0
   38.7800   29.2290   43.4430 H   0  0  0  0  0  0  0  0  0  0  0  0
   39.3240   32.1480   41.2220 C   0  0  0  0  0  0  0  0  0  0  0  0
   38.9760   31.1330   40.2980 C   0  0  0  0  0  0  0  0  0  0  0  0
   39.2050   31.3310   38.9550 C   0  0  0  0  0  0  0  0  0  0  0  0
   39.7590   32.5000   38.5710 N   0  0  0  0  0  0  0  0  0  0  0  0
   40.0990   33.4850   39.4500 C   0  0  0  0  0  0  0  0  0  0  0  0
   39.8730   33.2840   40.7540 N   0  0  0  0  0  0  0  0  0  0  0  0
   39.1400   31.9800   42.2680 H   0  0  0  0  0  0  0  0  0  0  0  0
   40.5380   34.3930   39.0850 H   0  0  0  0  0  0  0  0  0  0  0  0
   38.8400   30.2800   38.0310 C   0  0  0  0  0  0  0  0  0  0  0  0
   37.6350   30.3140   37.4030 C   0  0  0  0  0  0  0  0  0  0  0  0
   37.3150   29.2980   36.5280 C   0  0  0  0  0  0  0  0  0  0  0  0
   38.1690   28.2370   36.2570 C   0  0  0  0  0  0  0  0  0  0  0  0
   39.3860   28.2550   36.9300 C   0  0  0  0  0  0  0  0  0  0  0  0
   39.6640   29.2550   37.7710 N   0  0  0  0  0  0  0  0  0  0  0  0
   36.8930   31.0750   37.5270 H   0  0  0  0  0  0  0  0  0  0  0  0
   36.3700   29.2410   35.9770 H   0  0  0  0  0  0  0  0  0  0  0  0
   37.9550   27.4310   35.5860 H   0  0  0  0  0  0  0  0  0  0  0  0
   40.0820   27.4510   36.7520 H   0  0  0  0  0  0  0  0  0  0  0  0
   37.3310   27.9200   42.6330 C   0  0  0  0  0  0  0  0  0  0  0  0
   36.5550   28.6900   42.4060 H   0  0  0  0  0  0  0  0  0  0  0  0
   37.1050   27.7820   43.7250 H   0  0  0  0  0  0  0  0  0  0  0  0
   37.0820   26.6310   42.0030 C   0  0  0  0  0  0  0  0  0  0  0  0
   37.0140   25.3240   42.4160 C   0  0  0  0  0  0  0  0  0  0  0  0
   37.1890   25.1410   43.4400 H   0  0  0  0  0  0  0  0  0  0  0  0
   36.7530   24.2180   41.6510 C   0  0  0  0  0  3  0  0  0  0  0  0
   36.5240   24.3470   40.3190 C   0  0  0  0  0  0  0  0  0  0  0  0
   36.2690   23.2760   39.5670 N   0  0  0  0  0  0  0  0  0  0  0  0
   36.0330   23.3240   38.2450 C   0  0  0  0  0  0  0  0  0  0  0  0
   35.8230   22.4740   37.6080 H   0  0  0  0  0  0  0  0  0  0  0  0
   36.0740   24.5930   37.7040 C   0  0  0  0  0  3  0  0  0  0  0  0
   36.3320   25.7430   38.4240 C   0  0  0  0  0  3  0  0  0  0  0  0
   36.5610   25.5870   39.7720 C   0  0  0  0  0  0  0  0  0  0  0  0
   36.8320   26.6620   40.6090 C   0  0  0  0  0  3  0  0  0  0  0  0
  1  3  1  0  0  0  0
  2  1  2  0  0  0  0
  3  8  1  0  0  0  0
  4  3  1  0  0  0  0
  4  5  1  0  0  0  0
  5 12  1  0  0  0  0
  5  6  1  0  0  0  0
  6 13  1  0  0  0  0
  6 14  1  0  0  0  0
  7  6  1  0  0  0  0
  7 15  1  0  0  0  0
  8  7  1  0  0  0  0
  8 17  1  1  0  0  0
  9  4  1  0  0  0  0
 10  4  1  0  0  0  0
 11  5  1  0  0  0  0
 16  7  1  0  0  0  0
 18 24  1  0  0  0  0
 19  1  1  0  0  0  0
 19 18  2  0  0  0  0
 20 19  1  0  0  0  0
 21 20  2  0  0  0  0
 21 22  1  0  0  0  0
 22 23  2  0  0  0  0
 23 18  1  0  0  0  0
 25 22  1  0  0  0  0
 26 20  1  0  0  0  0
 27 32  1  0  0  0  0
 27 26  2  0  0  0  0
 28 27  1  0  0  0  0
 29 28  2  0  0  0  0
 29 30  1  0  0  0  0
 30 31  2  0  0  0  0
 31 26  1  0  0  0  0
 33 28  1  0  0  0  0
 34 29  1  0  0  0  0
 35 30  1  0  0  0  0
 36  8  1  0  0  0  0
 36 38  1  0  0  0  0
 37 36  1  0  0  0  0
 39 40  1  0  0  0  0
 39 36  1  0  0  0  0
 40 41  1  0  0  0  0
 42 40  2  0  0  0  0
 43 42  1  0  0  0  0
 44 43  2  0  0  0  0
 45 44  1  0  0  0  0
 46 45  1  0  0  0  0
 47 45  2  0  0  0  0
 47 48  1  0  0  0  0
 48 49  2  0  0  0  0
 49 43  1  0  0  0  0
 49 50  1  0  0  0  0
 50 39  2  0  0  0  0
M  END
>  <minimizedAffinity>
-6.49636745

$$$$

 OpenBabel03252507243D

 50 54  0  0  1  0  0  0  0  0999 V2000
   40.7890   31.8320   41.4900 C   0  0  0  0  0  0  0  0  0  0  0  0
   41.1840   31.1750   42.4970 O   0  0  0  0  0  0  0  0  0  0  0  0
   39.4100   32.0290   41.1150 N   0  0  0  0  0  0  0  0  0  0  0  0
   38.7060   33.2080   40.6650 C   0  0  0  0  0  0  0  0  0  0  0  0
   37.9580   32.8600   39.3690 C   0  0  0  0  0  0  0  0  0  0  0  0
   36.9250   31.8110   39.6260 C   0  0  0  0  0  0  0  0  0  0  0  0
   37.1680   31.1710   40.9690 C   0  0  0  0  0  0  0  0  0  0  0  0
   38.6240   30.8150   41.1950 C   0  0  2  0  0  0  0  0  0  0  0  0
   37.9950   33.6220   41.3820 H   0  0  0  0  0  0  0  0  0  0  0  0
   39.4360   34.0070   40.3540 H   0  0  0  0  0  0  0  0  0  0  0  0
   37.4540   33.7770   39.0570 H   0  0  0  0  0  0  0  0  0  0  0  0
   38.7270   32.5160   38.6380 H   0  0  0  0  0  0  0  0  0  0  0  0
   35.9050   32.2540   39.6590 H   0  0  0  0  0  0  0  0  0  0  0  0
   37.0150   31.0250   38.8350 H   0  0  0  0  0  0  0  0  0  0  0  0
   36.6140   30.1920   41.0100 H   0  0  0  0  0  0  0  0  0  0  0  0
   36.7720   31.7950   41.7860 H   0  0  0  0  0  0  0  0  0  0  0  0
   38.9300   30.1640   40.3600 H   0  0  0  0  0  0  0  0  0  0  0  0
   42.4020   33.6450   41.0860 C   0  0  0  0  0  0  0  0  0  0  0  0
   41.8180   32.4280   40.6550 C   0  0  0  0  0  0  0  0  0  0  0  0
   42.2390   31.8560   39.4760 C   0  0  0  0  0  0  0  0  0  0  0  0
   43.2010   32.4870   38.7710 N   0  0  0  0  0  0  0  0  0  0  0  0
   43.7710   33.6580   39.1750 C   0  0  0  0  0  0  0  0  0  0  0  0
   43.3570   34.2070   40.3230 N   0  0  0  0  0  0  0  0  0  0  0  0
   42.0650   34.0810   42.0090 H   0  0  0  0  0  0  0  0  0  0  0  0
   44.5330   34.1110   38.5720 H   0  0  0  0  0  0  0  0  0  0  0  0
   41.6260   30.6140   39.0570 C   0  0  0  0  0  0  0  0  0  0  0  0
   40.6460   30.6230   38.1150 C   0  0  0  0  0  0  0  0  0  0  0  0
   40.0810   29.4230   37.7350 C   0  0  0  0  0  0  0  0  0  0  0  0
   40.4690   28.2030   38.2720 C   0  0  0  0  0  0  0  0  0  0  0  0
   41.4750   28.2570   39.2310 C   0  0  0  0  0  0  0  0  0  0  0  0
   42.0000   29.4360   39.5750 N   0  0  0  0  0  0  0  0  0  0  0  0
   40.2620   31.4950   37.6280 H   0  0  0  0  0  0  0  0  0  0  0  0
   39.2880   29.3320   36.9860 H   0  0  0  0  0  0  0  0  0  0  0  0
   40.0540   27.2530   38.0040 H   0  0  0  0  0  0  0  0  0  0  0  0
   41.8080   27.3340   39.6770 H   0  0  0  0  0  0  0  0  0  0  0  0
   38.7180   30.0600   42.4610 C   0  0  0  0  0  0  0  0  0  0  0  0
   38.5510   30.6660   43.3850 H   0  0  0  0  0  0  0  0  0  0  0  0
   39.8300   29.9290   42.5550 H   0  0  0  0  0  0  0  0  0  0  0  0
   38.1460   28.7230   42.5240 C   0  0  0  0  0  0  0  0  0  0  0  0
   37.1410   28.1080   43.2270 C   0  0  0  0  0  0  0  0  0  0  0  0
   36.6190   28.7020   43.9250 H   0  0  0  0  0  0  0  0  0  0  0  0
   36.7350   26.8020   43.1390 C   0  0  0  0  0  3  0  0  0  0  0  0
   37.3510   25.9530   42.2760 C   0  0  0  0  0  0  0  0  0  0  0  0
   36.9630   24.6810   42.1840 N   0  0  0  0  0  0  0  0  0  0  0  0
   37.5220   23.7820   41.3550 C   0  0  0  0  0  0  0  0  0  0  0  0
   37.2300   22.7450   41.2570 H   0  0  0  0  0  0  0  0  0  0  0  0
   38.5550   24.2810   40.5870 C   0  0  0  0  0  3  0  0  0  0  0  0
   39.0060   25.5850   40.6330 C   0  0  0  0  0  3  0  0  0  0  0  0
   38.3670   26.4260   41.5140 C   0  0  0  0  0  0  0  0  0  0  0  0
   38.7240   27.7620   41.6580 C   0  0  0  0  0  3  0  0  0  0  0  0
  1  2  2  0  0  0  0
  3  8  1  0  0  0  0
  3  1  1  0  0  0  0
  4  3  1  0  0  0  0
  4  9  1  0  0  0  0
  5  6  1  0  0  0  0
  5  4  1  0  0  0  0
  6 13  1  0  0  0  0
  6  7  1  0  0  0  0
  7 15  1  0  0  0  0
  7  8  1  0  0  0  0
  7 16  1  0  0  0  0
  8 17  1  6  0  0  0
  8 36  1  0  0  0  0
 10  4  1  0  0  0  0
 11  5  1  0  0  0  0
 12  5  1  0  0  0  0
 14  6  1  0  0  0  0
 18 24  1  0  0  0  0
 19 18  1  0  0  0  0
 19  1  1  0  0  0  0
 20 19  2  0  0  0  0
 21 22  2  0  0  0  0
 21 20  1  0  0  0  0
 22 23  1  0  0  0  0
 23 18  2  0  0  0  0
 25 22  1  0  0  0  0
 26 20  1  0  0  0  0
 26 31  1  0  0  0  0
 27 26  2  0  0  0  0
 28 27  1  0  0  0  0
 28 29  2  0  0  0  0
 29 30  1  0  0  0  0
 30 31  2  0  0  0  0
 30 35  1  0  0  0  0
 32 27  1  0  0  0  0
 33 28  1  0  0  0  0
 34 29  1  0  0  0  0
 36 39  1  0  0  0  0
 36 38  1  0  0  0  0
 36 37  1  0  0  0  0
 39 40  1  0  0  0  0
 40 41  1  0  0  0  0
 42 40  2  0  0  0  0
 43 42  1  0  0  0  0
 44 43  1  0  0  0  0
 45 44  2  0  0  0  0
 46 45  1  0  0  0  0
 47 48  2  0  0  0  0
 47 45  1  0  0  0  0
 48 49  1  0  0  0  0
 49 50  1  0  0  0  0
 49 43  2  0  0  0  0
 50 39  2  0  0  0  0
M  END
>  <minimizedAffinity>
-6.46976709

$$$$

 OpenBabel03252507243D

 50 54  0  0  1  0  0  0  0  0999 V2000
   37.7790   27.9770   42.1210 C   0  0  0  0  0  0  0  0  0  0  0  0
   36.5510   27.6760   42.0830 O   0  0  0  0  0  0  0  0  0  0  0  0
   38.3120   29.3120   42.0020 N   0  0  0  0  0  0  0  0  0  0  0  0
   39.3480   29.9930   42.7450 C   0  0  0  0  0  0  0  0  0  0  0  0
   40.3490   30.5900   41.7450 C   0  0  0  0  0  0  0  0  0  0  0  0
   39.6840   31.6190   40.8880 C   0  0  0  0  0  0  0  0  0  0  0  0
   38.1870   31.5050   41.0200 C   0  0  0  0  0  0  0  0  0  0  0  0
   37.6970   30.0730   40.9340 C   0  0  2  0  0  0  0  0  0  0  0  0
   38.9940   30.7880   43.4070 H   0  0  0  0  0  0  0  0  0  0  0  0
   39.9580   29.2550   43.3370 H   0  0  0  0  0  0  0  0  0  0  0  0
   41.1180   31.0810   42.3450 H   0  0  0  0  0  0  0  0  0  0  0  0
   40.7440   29.7390   41.1420 H   0  0  0  0  0  0  0  0  0  0  0  0
   39.9600   32.6470   41.2110 H   0  0  0  0  0  0  0  0  0  0  0  0
   39.9640   31.4250   39.8230 H   0  0  0  0  0  0  0  0  0  0  0  0
   37.7040   32.0360   40.1530 H   0  0  0  0  0  0  0  0  0  0  0  0
   37.8280   32.0010   41.9360 H   0  0  0  0  0  0  0  0  0  0  0  0
   38.0650   29.6640   39.9790 H   0  0  0  0  0  0  0  0  0  0  0  0
   39.4640   26.8320   43.5010 C   0  0  0  0  0  0  0  0  0  0  0  0
   38.7160   26.8800   42.2990 C   0  0  0  0  0  0  0  0  0  0  0  0
   38.8950   25.8980   41.3510 C   0  0  0  0  0  0  0  0  0  0  0  0
   39.7870   24.9200   41.6100 N   0  0  0  0  0  0  0  0  0  0  0  0
   40.5140   24.8630   42.7620 C   0  0  0  0  0  0  0  0  0  0  0  0
   40.3330   25.8210   43.6790 N   0  0  0  0  0  0  0  0  0  0  0  0
   39.3140   27.6050   44.2340 H   0  0  0  0  0  0  0  0  0  0  0  0
   41.2080   24.0600   42.9110 H   0  0  0  0  0  0  0  0  0  0  0  0
   38.1200   25.9690   40.1320 C   0  0  0  0  0  0  0  0  0  0  0  0
   38.5790   26.6900   39.0740 C   0  0  0  0  0  0  0  0  0  0  0  0
   37.8180   26.7380   37.9250 C   0  0  0  0  0  0  0  0  0  0  0  0
   36.6000   26.0840   37.7980 C   0  0  0  0  0  0  0  0  0  0  0  0
   36.1820   25.3650   38.9120 C   0  0  0  0  0  0  0  0  0  0  0  0
   36.9440   25.3380   40.0090 N   0  0  0  0  0  0  0  0  0  0  0  0
   39.4990   27.2360   39.0490 H   0  0  0  0  0  0  0  0  0  0  0  0
   38.1060   27.2920   37.0250 H   0  0  0  0  0  0  0  0  0  0  0  0
   35.9820   26.0990   36.9240 H   0  0  0  0  0  0  0  0  0  0  0  0
   35.2410   24.8400   38.8600 H   0  0  0  0  0  0  0  0  0  0  0  0
   36.2200   30.0960   40.9170 C   0  0  0  0  0  0  0  0  0  0  0  0
   35.7560   30.9780   41.4210 H   0  0  0  0  0  0  0  0  0  0  0  0
   35.9810   29.3220   41.6950 H   0  0  0  0  0  0  0  0  0  0  0  0
   35.5260   29.6790   39.7060 C   0  0  0  0  0  0  0  0  0  0  0  0
   34.3130   29.1140   39.4060 C   0  0  0  0  0  0  0  0  0  0  0  0
   33.6790   28.8900   40.2190 H   0  0  0  0  0  0  0  0  0  0  0  0
   33.8230   28.7930   38.1670 C   0  0  0  0  0  3  0  0  0  0  0  0
   34.5660   29.0330   37.0550 C   0  0  0  0  0  0  0  0  0  0  0  0
   34.0980   28.7240   35.8470 N   0  0  0  0  0  0  0  0  0  0  0  0
   34.7730   28.9310   34.7020 C   0  0  0  0  0  0  0  0  0  0  0  0
   34.4200   28.6920   33.7080 H   0  0  0  0  0  0  0  0  0  0  0  0
   36.0190   29.4990   34.8710 C   0  0  0  0  0  3  0  0  0  0  0  0
   36.5640   29.8430   36.0930 C   0  0  0  0  0  3  0  0  0  0  0  0
   35.7930   29.5900   37.2040 C   0  0  0  0  0  0  0  0  0  0  0  0
   36.2240   29.8890   38.4910 C   0  0  0  0  0  3  0  0  0  0  0  0
  1 19  1  0  0  0  0
  2  1  2  0  0  0  0
  3  1  1  0  0  0  0
  3  4  1  0  0  0  0
  4 10  1  0  0  0  0
  4  9  1  0  0  0  0
  5 11  1  0  0  0  0
  5  4  1  0  0  0  0
  6  7  1  0  0  0  0
  6 13  1  0  0  0  0
  6  5  1  0  0  0  0
  7 16  1  0  0  0  0
  8 17  1  6  0  0  0
  8  7  1  0  0  0  0
  8  3  1  0  0  0  0
 12  5  1  0  0  0  0
 14  6  1  0  0  0  0
 15  7  1  0  0  0  0
 18 23  1  0  0  0  0
 18 24  1  0  0  0  0
 19 18  2  0  0  0  0
 20 21  2  0  0  0  0
 20 19  1  0  0  0  0
 21 22  1  0  0  0  0
 22 25  1  0  0  0  0
 22 23  2  0  0  0  0
 26 20  1  0  0  0  0
 27 26  2  0  0  0  0
 28 27  1  0  0  0  0
 29 28  2  0  0  0  0
 29 30  1  0  0  0  0
 30 31  2  0  0  0  0
 31 26  1  0  0  0  0
 32 27  1  0  0  0  0
 33 28  1  0  0  0  0
 34 29  1  0  0  0  0
 35 30  1  0  0  0  0
 36  8  1  0  0  0  0
 36 37  1  0  0  0  0
 36 38  1  0  0  0  0
 39 36  1  0  0  0  0
 40 39  1  0  0  0  0
 40 41  1  0  0  0  0
 42 40  2  0  0  0  0
 43 49  1  0  0  0  0
 43 42  1  0  0  0  0
 44 43  2  0  0  0  0
 45 47  2  0  0  0  0
 45 44  1  0  0  0  0
 46 45  1  0  0  0  0
 47 48  1  0  0  0  0
 48 49  2  0  0  0  0
 49 50  1  0  0  0  0
 50 39  2  0  0  0  0
M  END
>  <minimizedAffinity>
-6.43907309

$$$$

 OpenBabel03252507243D

 50 54  0  0  1  0  0  0  0  0999 V2000
   36.6570   29.9090   40.8320 C   0  0  0  0  0  0  0  0  0  0  0  0
   36.7800   31.1360   41.1150 O   0  0  0  0  0  0  0  0  0  0  0  0
   37.2330   28.8200   41.5820 N   0  0  0  0  0  0  0  0  0  0  0  0
   36.6770   27.5530   41.9990 C   0  0  0  0  0  0  0  0  0  0  0  0
   37.6410   26.4370   41.5720 C   0  0  0  0  0  0  0  0  0  0  0  0
   38.9550   26.5830   42.2700 C   0  0  0  0  0  0  0  0  0  0  0  0
   39.0540   27.9520   42.8930 C   0  0  0  0  0  0  0  0  0  0  0  0
   38.6120   29.0580   41.9550 C   0  0  2  0  0  0  0  0  0  0  0  0
   36.4860   27.4630   43.0710 H   0  0  0  0  0  0  0  0  0  0  0  0
   35.7310   27.3320   41.4300 H   0  0  0  0  0  0  0  0  0  0  0  0
   37.1790   25.5000   41.8910 H   0  0  0  0  0  0  0  0  0  0  0  0
   37.7480   26.5130   40.4640 H   0  0  0  0  0  0  0  0  0  0  0  0
   39.0540   25.8440   43.0960 H   0  0  0  0  0  0  0  0  0  0  0  0
   39.7710   26.4760   41.5120 H   0  0  0  0  0  0  0  0  0  0  0  0
   40.1340   28.1710   43.1200 H   0  0  0  0  0  0  0  0  0  0  0  0
   38.5120   27.9950   43.8510 H   0  0  0  0  0  0  0  0  0  0  0  0
   39.2240   28.9690   41.0410 H   0  0  0  0  0  0  0  0  0  0  0  0
   34.5090   29.2370   39.8360 C   0  0  0  0  0  0  0  0  0  0  0  0
   35.8700   29.5860   39.6530 C   0  0  0  0  0  0  0  0  0  0  0  0
   36.3970   29.6110   38.3810 C   0  0  0  0  0  0  0  0  0  0  0  0
   35.5840   29.2970   37.3510 N   0  0  0  0  0  0  0  0  0  0  0  0
   34.2740   28.9590   37.5140 C   0  0  0  0  0  0  0  0  0  0  0  0
   33.7690   28.9380   38.7540 N   0  0  0  0  0  0  0  0  0  0  0  0
   34.1100   29.2220   40.8350 H   0  0  0  0  0  0  0  0  0  0  0  0
   33.6780   28.7190   36.6550 H   0  0  0  0  0  0  0  0  0  0  0  0
   37.7890   29.9700   38.2200 C   0  0  0  0  0  0  0  0  0  0  0  0
   38.1290   31.2430   37.8840 C   0  0  0  0  0  0  0  0  0  0  0  0
   39.4640   31.5550   37.7380 C   0  0  0  0  0  0  0  0  0  0  0  0
   40.4810   30.6270   37.9170 C   0  0  0  0  0  0  0  0  0  0  0  0
   40.0720   29.3420   38.2580 C   0  0  0  0  0  0  0  0  0  0  0  0
   38.7700   29.0740   38.3930 N   0  0  0  0  0  0  0  0  0  0  0  0
   37.4400   32.0450   37.7200 H   0  0  0  0  0  0  0  0  0  0  0  0
   39.8320   32.5520   37.4700 H   0  0  0  0  0  0  0  0  0  0  0  0
   41.5260   30.8320   37.8120 H   0  0  0  0  0  0  0  0  0  0  0  0
   40.8270   28.5870   38.4070 H   0  0  0  0  0  0  0  0  0  0  0  0
   38.8980   30.3520   42.6070 C   0  0  0  0  0  0  0  0  0  0  0  0
   38.5270   30.4420   43.6570 H   0  0  0  0  0  0  0  0  0  0  0  0
   38.1400   31.0180   42.1120 H   0  0  0  0  0  0  0  0  0  0  0  0
   40.1930   30.9780   42.3850 C   0  0  0  0  0  0  0  0  0  0  0  0
   41.4570   30.8500   42.9050 C   0  0  0  0  0  0  0  0  0  0  0  0
   41.5830   30.1400   43.6750 H   0  0  0  0  0  0  0  0  0  0  0  0
   42.5820   31.5470   42.5500 C   0  0  0  0  0  3  0  0  0  0  0  0
   42.5220   32.4900   41.5740 C   0  0  0  0  0  0  0  0  0  0  0  0
   43.6120   33.1720   41.2230 N   0  0  0  0  0  0  0  0  0  0  0  0
   43.6320   34.1190   40.2690 C   0  0  0  0  0  0  0  0  0  0  0  0
   44.4990   34.6890   39.9600 H   0  0  0  0  0  0  0  0  0  0  0  0
   42.4120   34.3440   39.6640 C   0  0  0  0  0  3  0  0  0  0  0  0
   41.2460   33.6750   39.9800 C   0  0  0  0  0  3  0  0  0  0  0  0
   41.3310   32.7240   40.9710 C   0  0  0  0  0  0  0  0  0  0  0  0
   40.2320   31.9800   41.3830 C   0  0  0  0  0  3  0  0  0  0  0  0
  1  2  2  0  0  0  0
  1  3  1  0  0  0  0
  3  8  1  0  0  0  0
  3  4  1  0  0  0  0
  4  9  1  0  0  0  0
  5 11  1  0  0  0  0
  5  4  1  0  0  0  0
  5  6  1  0  0  0  0
  6  7  1  0  0  0  0
  6 13  1  0  0  0  0
  7 15  1  0  0  0  0
  7 16  1  0  0  0  0
  8 17  1  6  0  0  0
  8 36  1  0  0  0  0
  8  7  1  0  0  0  0
 10  4  1  0  0  0  0
 12  5  1  0  0  0  0
 14  6  1  0  0  0  0
 18 24  1  0  0  0  0
 19 18  1  0  0  0  0
 19  1  1  0  0  0  0
 20 19  2  0  0  0  0
 21 22  2  0  0  0  0
 21 20  1  0  0  0  0
 22 23  1  0  0  0  0
 23 18  2  0  0  0  0
 25 22  1  0  0  0  0
 26 20  1  0  0  0  0
 26 31  1  0  0  0  0
 27 26  2  0  0  0  0
 28 27  1  0  0  0  0
 28 29  2  0  0  0  0
 29 30  1  0  0  0  0
 30 31  2  0  0  0  0
 30 35  1  0  0  0  0
 32 27  1  0  0  0  0
 33 28  1  0  0  0  0
 34 29  1  0  0  0  0
 36 37  1  0  0  0  0
 38 36  1  0  0  0  0
 39 36  1  0  0  0  0
 39 40  1  0  0  0  0
 40 41  1  0  0  0  0
 42 40  2  0  0  0  0
 43 42  1  0  0  0  0
 44 43  1  0  0  0  0
 45 44  2  0  0  0  0
 46 45  1  0  0  0  0
 47 48  2  0  0  0  0
 47 45  1  0  0  0  0
 48 49  1  0  0  0  0
 49 50  1  0  0  0  0
 49 43  2  0  0  0  0
 50 39  2  0  0  0  0
M  END
>  <minimizedAffinity>
-6.33701229

$$$$

 OpenBabel03252507243D

 50 54  0  0  1  0  0  0  0  0999 V2000
   37.0670   26.2060   40.5840 C   0  0  0  0  0  0  0  0  0  0  0  0
   36.3370   27.2370   40.5090 O   0  0  0  0  0  0  0  0  0  0  0  0
   37.8360   25.8130   41.7390 N   0  0  0  0  0  0  0  0  0  0  0  0
   38.0150   24.5260   42.3700 C   0  0  0  0  0  0  0  0  0  0  0  0
   39.5210   24.2730   42.5370 C   0  0  0  0  0  0  0  0  0  0  0  0
   40.1260   25.2900   43.4500 C   0  0  0  0  0  0  0  0  0  0  0  0
   39.1690   26.4400   43.6420 C   0  0  0  0  0  0  0  0  0  0  0  0
   38.5570   26.9170   42.3400 C   0  0  2  0  0  0  0  0  0  0  0  0
   37.5300   24.4170   43.3430 H   0  0  0  0  0  0  0  0  0  0  0  0
   37.6730   23.7010   41.6860 H   0  0  0  0  0  0  0  0  0  0  0  0
   39.6130   23.2890   43.0020 H   0  0  0  0  0  0  0  0  0  0  0  0
   39.9670   24.3140   41.5150 H   0  0  0  0  0  0  0  0  0  0  0  0
   40.3190   24.8590   44.4580 H   0  0  0  0  0  0  0  0  0  0  0  0
   41.0600   25.6800   42.9750 H   0  0  0  0  0  0  0  0  0  0  0  0
   39.7380   27.3230   44.0430 H   0  0  0  0  0  0  0  0  0  0  0  0
   38.3950   26.1950   44.3870 H   0  0  0  0  0  0  0  0  0  0  0  0
   39.3910   27.1750   41.6670 H   0  0  0  0  0  0  0  0  0  0  0  0
   36.0290   24.4990   39.1470 C   0  0  0  0  0  0  0  0  0  0  0  0
   37.1250   25.3600   39.4040 C   0  0  0  0  0  0  0  0  0  0  0  0
   38.1950   25.3690   38.5380 C   0  0  0  0  0  0  0  0  0  0  0  0
   38.1550   24.5470   37.4680 N   0  0  0  0  0  0  0  0  0  0  0  0
   37.1070   23.7140   37.2110 C   0  0  0  0  0  0  0  0  0  0  0  0
   36.0690   23.7120   38.0570 N   0  0  0  0  0  0  0  0  0  0  0  0
   35.1990   24.5020   39.8310 H   0  0  0  0  0  0  0  0  0  0  0  0
   37.1310   23.0840   36.3440 H   0  0  0  0  0  0  0  0  0  0  0  0
   39.3020   26.2560   38.8210 C   0  0  0  0  0  0  0  0  0  0  0  0
   39.1980   27.5830   38.5480 C   0  0  0  0  0  0  0  0  0  0  0  0
   40.2700   28.4040   38.8300 C   0  0  0  0  0  0  0  0  0  0  0  0
   41.4550   27.9350   39.3810 C   0  0  0  0  0  0  0  0  0  0  0  0
   41.5030   26.5690   39.6370 C   0  0  0  0  0  0  0  0  0  0  0  0
   40.4470   25.8030   39.3530 N   0  0  0  0  0  0  0  0  0  0  0  0
   38.3400   28.0630   38.1250 H   0  0  0  0  0  0  0  0  0  0  0  0
   40.2780   29.4830   38.6450 H   0  0  0  0  0  0  0  0  0  0  0  0
   42.3080   28.5410   39.6120 H   0  0  0  0  0  0  0  0  0  0  0  0
   42.4050   26.1600   40.0650 H   0  0  0  0  0  0  0  0  0  0  0  0
   37.7680   28.1330   42.6250 C   0  0  0  0  0  0  0  0  0  0  0  0
   37.2260   28.1250   43.6030 H   0  0  0  0  0  0  0  0  0  0  0  0
   36.8820   27.9810   41.9510 H   0  0  0  0  0  0  0  0  0  0  0  0
   38.3270   29.4300   42.2730 C   0  0  0  0  0  0  0  0  0  0  0  0
   39.4630   30.1350   42.5820 C   0  0  0  0  0  0  0  0  0  0  0  0
   40.1390   29.6760   43.2500 H   0  0  0  0  0  0  0  0  0  0  0  0
   39.8250   31.3770   42.1310 C   0  0  0  0  0  3  0  0  0  0  0  0
   39.0180   32.0550   41.2740 C   0  0  0  0  0  0  0  0  0  0  0  0
   39.3630   33.2640   40.8310 N   0  0  0  0  0  0  0  0  0  0  0  0
   38.6180   33.9950   39.9840 C   0  0  0  0  0  0  0  0  0  0  0  0
   38.8700   34.9770   39.6060 H   0  0  0  0  0  0  0  0  0  0  0  0
   37.4400   33.3920   39.5950 C   0  0  0  0  0  3  0  0  0  0  0  0
   37.0230   32.1440   40.0160 C   0  0  0  0  0  3  0  0  0  0  0  0
   37.8570   31.4770   40.8830 C   0  0  0  0  0  0  0  0  0  0  0  0
   37.5540   30.2150   41.3810 C   0  0  0  0  0  3  0  0  0  0  0  0
  1  3  1  0  0  0  0
  2  1  2  0  0  0  0
  3  8  1  0  0  0  0
  3  4  1  0  0  0  0
  4  5  1  0  0  0  0
  4  9  1  0  0  0  0
  5 11  1  0  0  0  0
  5  6  1  0  0  0  0
  6  7  1  0  0  0  0
  6 13  1  0  0  0  0
  7 15  1  0  0  0  0
  7 16  1  0  0  0  0
  8 17  1  6  0  0  0
  8 36  1  0  0  0  0
  8  7  1  0  0  0  0
 10  4  1  0  0  0  0
 12  5  1  0  0  0  0
 14  6  1  0  0  0  0
 18 19  1  0  0  0  0
 18 24  1  0  0  0  0
 19  1  1  0  0  0  0
 20 26  1  0  0  0  0
 20 19  2  0  0  0  0
 21 20  1  0  0  0  0
 22 21  2  0  0  0  0
 22 23  1  0  0  0  0
 23 18  2  0  0  0  0
 25 22  1  0  0  0  0
 26 31  1  0  0  0  0
 27 26  2  0  0  0  0
 27 28  1  0  0  0  0
 28 29  2  0  0  0  0
 29 34  1  0  0  0  0
 29 30  1  0  0  0  0
 30 35  1  0  0  0  0
 31 30  2  0  0  0  0
 32 27  1  0  0  0  0
 33 28  1  0  0  0  0
 36 37  1  0  0  0  0
 38 36  1  0  0  0  0
 39 40  1  0  0  0  0
 39 36  1  0  0  0  0
 40 41  1  0  0  0  0
 42 40  2  0  0  0  0
 43 42  1  0  0  0  0
 44 43  2  0  0  0  0
 45 44  1  0  0  0  0
 46 45  1  0  0  0  0
 47 45  2  0  0  0  0
 47 48  1  0  0  0  0
 48 49  2  0  0  0  0
 49 43  1  0  0  0  0
 49 50  1  0  0  0  0
 50 39  2  0  0  0  0
M  END
>  <minimizedAffinity>
-6.23845243

$$$$

 OpenBabel03252507243D

 50 54  0  0  1  0  0  0  0  0999 V2000
   38.2600   31.3540   40.6080 C   0  0  0  0  0  0  0  0  0  0  0  0
   37.8520   30.9600   41.7400 O   0  0  0  0  0  0  0  0  0  0  0  0
   37.5430   31.2040   39.3660 N   0  0  0  0  0  0  0  0  0  0  0  0
   37.3220   32.1290   38.2780 C   0  0  0  0  0  0  0  0  0  0  0  0
   37.7170   31.4350   36.9660 C   0  0  0  0  0  0  0  0  0  0  0  0
   36.8400   30.2520   36.7130 C   0  0  0  0  0  0  0  0  0  0  0  0
   36.0860   29.8950   37.9690 C   0  0  0  0  0  0  0  0  0  0  0  0
   36.9700   29.8840   39.2010 C   0  0  2  0  0  0  0  0  0  0  0  0
   36.2970   32.4980   38.1870 H   0  0  0  0  0  0  0  0  0  0  0  0
   38.0300   33.0010   38.3520 H   0  0  0  0  0  0  0  0  0  0  0  0
   37.5500   32.1690   36.1740 H   0  0  0  0  0  0  0  0  0  0  0  0
   38.7890   31.1440   37.0680 H   0  0  0  0  0  0  0  0  0  0  0  0
   36.0790   30.4770   35.9330 H   0  0  0  0  0  0  0  0  0  0  0  0
   37.4890   29.3860   36.4290 H   0  0  0  0  0  0  0  0  0  0  0  0
   35.6980   28.8440   37.8730 H   0  0  0  0  0  0  0  0  0  0  0  0
   35.2090   30.5470   38.1060 H   0  0  0  0  0  0  0  0  0  0  0  0
   37.7980   29.1850   38.9970 H   0  0  0  0  0  0  0  0  0  0  0  0
   39.5910   33.4240   40.6140 C   0  0  0  0  0  0  0  0  0  0  0  0
   39.5580   32.0080   40.5740 C   0  0  0  0  0  0  0  0  0  0  0  0
   40.7400   31.3060   40.5080 C   0  0  0  0  0  0  0  0  0  0  0  0
   41.8940   32.0040   40.4820 N   0  0  0  0  0  0  0  0  0  0  0  0
   41.9390   33.3660   40.5190 C   0  0  0  0  0  0  0  0  0  0  0  0
   40.7850   34.0420   40.5840 N   0  0  0  0  0  0  0  0  0  0  0  0
   38.6600   33.9610   40.6660 H   0  0  0  0  0  0  0  0  0  0  0  0
   42.8870   33.8660   40.4960 H   0  0  0  0  0  0  0  0  0  0  0  0
   40.6800   29.8610   40.4680 C   0  0  0  0  0  0  0  0  0  0  0  0
   40.5510   29.2180   39.2770 C   0  0  0  0  0  0  0  0  0  0  0  0
   40.4980   27.8400   39.2710 C   0  0  0  0  0  0  0  0  0  0  0  0
   40.5690   27.0760   40.4280 C   0  0  0  0  0  0  0  0  0  0  0  0
   40.6990   27.7890   41.6150 C   0  0  0  0  0  0  0  0  0  0  0  0
   40.7490   29.1240   41.5850 N   0  0  0  0  0  0  0  0  0  0  0  0
   40.4870   29.6930   38.3200 H   0  0  0  0  0  0  0  0  0  0  0  0
   40.3950   27.2370   38.3620 H   0  0  0  0  0  0  0  0  0  0  0  0
   40.5300   26.0060   40.4630 H   0  0  0  0  0  0  0  0  0  0  0  0
   40.7580   27.2380   42.5400 H   0  0  0  0  0  0  0  0  0  0  0  0
   36.1690   29.3740   40.3320 C   0  0  0  0  0  0  0  0  0  0  0  0
   35.0670   29.5330   40.2400 H   0  0  0  0  0  0  0  0  0  0  0  0
   36.3780   30.1520   41.1160 H   0  0  0  0  0  0  0  0  0  0  0  0
   36.5310   28.0950   40.9260 C   0  0  0  0  0  0  0  0  0  0  0  0
   36.7150   27.6110   42.1970 C   0  0  0  0  0  0  0  0  0  0  0  0
   36.5880   28.2960   42.9890 H   0  0  0  0  0  0  0  0  0  0  0  0
   37.0570   26.3360   42.5650 C   0  0  0  0  0  3  0  0  0  0  0  0
   37.2540   25.3810   41.6190 C   0  0  0  0  0  0  0  0  0  0  0  0
   37.5870   24.1390   41.9680 N   0  0  0  0  0  0  0  0  0  0  0  0
   37.7970   23.1420   41.0910 C   0  0  0  0  0  0  0  0  0  0  0  0
   38.0680   22.1250   41.3420 H   0  0  0  0  0  0  0  0  0  0  0  0
   37.6420   23.5040   39.7680 C   0  0  0  0  0  3  0  0  0  0  0  0
   37.2990   24.7710   39.3390 C   0  0  0  0  0  3  0  0  0  0  0  0
   37.1050   25.7210   40.3150 C   0  0  0  0  0  0  0  0  0  0  0  0
   36.7570   27.0330   40.0170 C   0  0  0  0  0  3  0  0  0  0  0  0
  1  2  2  0  0  0  0
  3  1  1  0  0  0  0
  4 10  1  0  0  0  0
  4  3  1  0  0  0  0
  5 12  1  0  0  0  0
  5  4  1  0  0  0  0
  6  5  1  0  0  0  0
  6  7  1  0  0  0  0
  7 16  1  0  0  0  0
  7  8  1  0  0  0  0
  8 17  1  6  0  0  0
  8  3  1  0  0  0  0
  8 36  1  0  0  0  0
  9  4  1  0  0  0  0
 11  5  1  0  0  0  0
 13  6  1  0  0  0  0
 14  6  1  0  0  0  0
 15  7  1  0  0  0  0
 18 24  1  0  0  0  0
 19  1  1  0  0  0  0
 19 18  2  0  0  0  0
 20 19  1  0  0  0  0
 21 20  2  0  0  0  0
 21 22  1  0  0  0  0
 22 23  2  0  0  0  0
 23 18  1  0  0  0  0
 25 22  1  0  0  0  0
 26 20  1  0  0  0  0
 26 31  1  0  0  0  0
 27 26  2  0  0  0  0
 28 27  1  0  0  0  0
 28 29  2  0  0  0  0
 29 34  1  0  0  0  0
 29 30  1  0  0  0  0
 30 35  1  0  0  0  0
 31 30  2  0  0  0  0
 32 27  1  0  0  0  0
 33 28  1  0  0  0  0
 36 39  1  0  0  0  0
 36 38  1  0  0  0  0
 37 36  1  0  0  0  0
 39 40  1  0  0  0  0
 40 42  2  0  0  0  0
 40 41  1  0  0  0  0
 43 44  1  0  0  0  0
 43 42  1  0  0  0  0
 45 46  1  0  0  0  0
 45 44  2  0  0  0  0
 47 45  1  0  0  0  0
 48 47  2  0  0  0  0
 48 49  1  0  0  0  0
 49 43  2  0  0  0  0
 50 49  1  0  0  0  0
 50 39  2  0  0  0  0
M  END
>  <minimizedAffinity>
-6.23583078

$$$$

 OpenBabel03252507243D

 50 54  0  0  1  0  0  0  0  0999 V2000
   39.5600   29.3840   40.0430 C   0  0  0  0  0  0  0  0  0  0  0  0
   39.4280   28.3580   39.3140 O   0  0  0  0  0  0  0  0  0  0  0  0
   38.7310   30.5630   39.9770 N   0  0  0  0  0  0  0  0  0  0  0  0
   38.1360   31.3670   41.0200 C   0  0  0  0  0  0  0  0  0  0  0  0
   38.4980   32.8370   40.7650 C   0  0  0  0  0  0  0  0  0  0  0  0
   37.9140   33.3050   39.4720 C   0  0  0  0  0  0  0  0  0  0  0  0
   37.4600   32.1210   38.6570 C   0  0  0  0  0  0  0  0  0  0  0  0
   38.4850   31.0060   38.6190 C   0  0  2  0  0  0  0  0  0  0  0  0
   37.0500   31.2810   41.1040 H   0  0  0  0  0  0  0  0  0  0  0  0
   38.6100   31.1350   42.0140 H   0  0  0  0  0  0  0  0  0  0  0  0
   38.0430   33.4050   41.5790 H   0  0  0  0  0  0  0  0  0  0  0  0
   39.6120   32.8960   40.7640 H   0  0  0  0  0  0  0  0  0  0  0  0
   37.0180   33.9420   39.6440 H   0  0  0  0  0  0  0  0  0  0  0  0
   38.7090   33.8470   38.9010 H   0  0  0  0  0  0  0  0  0  0  0  0
   37.3340   32.4440   37.5860 H   0  0  0  0  0  0  0  0  0  0  0  0
   36.4770   31.7560   38.9970 H   0  0  0  0  0  0  0  0  0  0  0  0
   39.4220   31.4420   38.2360 H   0  0  0  0  0  0  0  0  0  0  0  0
   41.8730   29.9510   40.6600 C   0  0  0  0  0  0  0  0  0  0  0  0
   40.6370   29.3590   41.0180 C   0  0  0  0  0  0  0  0  0  0  0  0
   40.4960   28.7870   42.2620 C   0  0  0  0  0  0  0  0  0  0  0  0
   41.5550   28.8140   43.0980 N   0  0  0  0  0  0  0  0  0  0  0  0
   42.7500   29.3800   42.7650 C   0  0  0  0  0  0  0  0  0  0  0  0
   42.8790   29.9350   41.5540 N   0  0  0  0  0  0  0  0  0  0  0  0
   41.9710   30.3940   39.6850 H   0  0  0  0  0  0  0  0  0  0  0  0
   43.5550   29.3720   43.4730 H   0  0  0  0  0  0  0  0  0  0  0  0
   39.2240   28.1880   42.6040 C   0  0  0  0  0  0  0  0  0  0  0  0
   38.9640   26.8990   42.2590 C   0  0  0  0  0  0  0  0  0  0  0  0
   37.7440   26.3550   42.6000 C   0  0  0  0  0  0  0  0  0  0  0  0
   36.7640   27.0660   43.2790 C   0  0  0  0  0  0  0  0  0  0  0  0
   37.0860   28.3790   43.6040 C   0  0  0  0  0  0  0  0  0  0  0  0
   38.2780   28.8740   43.2600 N   0  0  0  0  0  0  0  0  0  0  0  0
   39.6360   26.2500   41.7360 H   0  0  0  0  0  0  0  0  0  0  0  0
   37.4460   25.3280   42.3640 H   0  0  0  0  0  0  0  0  0  0  0  0
   35.8050   26.6790   43.5590 H   0  0  0  0  0  0  0  0  0  0  0  0
   36.3550   28.9710   44.1330 H   0  0  0  0  0  0  0  0  0  0  0  0
   38.0050   29.9760   37.6750 C   0  0  0  0  0  0  0  0  0  0  0  0
   38.7100   29.1250   37.5080 H   0  0  0  0  0  0  0  0  0  0  0  0
   38.1490   30.4980   36.6910 H   0  0  0  0  0  0  0  0  0  0  0  0
   36.6050   29.5800   37.7220 C   0  0  0  0  0  0  0  0  0  0  0  0
   35.7080   29.2280   38.6990 C   0  0  0  0  0  0  0  0  0  0  0  0
   36.0690   29.2110   39.6900 H   0  0  0  0  0  0  0  0  0  0  0  0
   34.3910   28.8840   38.5410 C   0  0  0  0  0  3  0  0  0  0  0  0
   33.8330   28.8670   37.3030 C   0  0  0  0  0  0  0  0  0  0  0  0
   32.5530   28.5330   37.1400 N   0  0  0  0  0  0  0  0  0  0  0  0
   31.9320   28.4930   35.9490 C   0  0  0  0  0  0  0  0  0  0  0  0
   30.8960   28.2270   35.7840 H   0  0  0  0  0  0  0  0  0  0  0  0
   32.7330   28.8280   34.8770 C   0  0  0  0  0  3  0  0  0  0  0  0
   34.0650   29.1820   34.9740 C   0  0  0  0  0  3  0  0  0  0  0  0
   34.6070   29.1930   36.2390 C   0  0  0  0  0  0  0  0  0  0  0  0
   35.9340   29.5310   36.4750 C   0  0  0  0  0  3  0  0  0  0  0  0
  1 19  1  0  0  0  0
  2  1  2  0  0  0  0
  3  1  1  0  0  0  0
  3  4  1  0  0  0  0
  4  9  1  0  0  0  0
  4 10  1  0  0  0  0
  5  4  1  0  0  0  0
  5 11  1  0  0  0  0
  6 13  1  0  0  0  0
  6  5  1  0  0  0  0
  7 16  1  0  0  0  0
  7  6  1  0  0  0  0
  8 17  1  6  0  0  0
  8  7  1  0  0  0  0
  8  3  1  0  0  0  0
 12  5  1  0  0  0  0
 14  6  1  0  0  0  0
 15  7  1  0  0  0  0
 18 19  2  0  0  0  0
 18 23  1  0  0  0  0
 19 20  1  0  0  0  0
 20 26  1  0  0  0  0
 20 21  2  0  0  0  0
 22 21  1  0  0  0  0
 22 25  1  0  0  0  0
 23 22  2  0  0  0  0
 24 18  1  0  0  0  0
 26 31  1  0  0  0  0
 27 28  1  0  0  0  0
 27 26  2  0  0  0  0
 28 29  2  0  0  0  0
 29 34  1  0  0  0  0
 29 30  1  0  0  0  0
 30 35  1  0  0  0  0
 31 30  2  0  0  0  0
 32 27  1  0  0  0  0
 33 28  1  0  0  0  0
 36 39  1  0  0  0  0
 36  8  1  0  0  0  0
 37 36  1  0  0  0  0
 38 36  1  0  0  0  0
 39 40  1  0  0  0  0
 40 41  1  0  0  0  0
 42 40  2  0  0  0  0
 43 42  1  0  0  0  0
 44 43  1  0  0  0  0
 45 44  2  0  0  0  0
 46 45  1  0  0  0  0
 47 48  2  0  0  0  0
 47 45  1  0  0  0  0
 48 49  1  0  0  0  0
 49 50  1  0  0  0  0
 49 43  2  0  0  0  0
 50 39  2  0  0  0  0
M  END
>  <minimizedAffinity>
-6.19370556

$$$$

 OpenBabel03252507243D

 50 54  0  0  1  0  0  0  0  0999 V2000
   38.5700   29.3590   40.1030 C   0  0  0  0  0  0  0  0  0  0  0  0
   38.7540   28.9140   38.9320 O   0  0  0  0  0  0  0  0  0  0  0  0
   38.2130   28.5600   41.2500 N   0  0  0  0  0  0  0  0  0  0  0  0
   38.7060   28.5730   42.6080 C   0  0  0  0  0  0  0  0  0  0  0  0
   37.5030   28.6610   43.5590 C   0  0  0  0  0  0  0  0  0  0  0  0
   36.6380   27.4490   43.4230 C   0  0  0  0  0  0  0  0  0  0  0  0
   37.0050   26.6950   42.1710 C   0  0  0  0  0  0  0  0  0  0  0  0
   37.1660   27.6010   40.9660 C   0  0  2  0  0  0  0  0  0  0  0  0
   39.3130   27.7080   42.8870 H   0  0  0  0  0  0  0  0  0  0  0  0
   39.2840   29.5180   42.8090 H   0  0  0  0  0  0  0  0  0  0  0  0
   37.9170   28.6820   44.5690 H   0  0  0  0  0  0  0  0  0  0  0  0
   36.9540   29.5950   43.2940 H   0  0  0  0  0  0  0  0  0  0  0  0
   36.7900   26.7520   44.2770 H   0  0  0  0  0  0  0  0  0  0  0  0
   35.5730   27.7830   43.3390 H   0  0  0  0  0  0  0  0  0  0  0  0
   36.1630   25.9970   41.9070 H   0  0  0  0  0  0  0  0  0  0  0  0
   37.8980   26.0700   42.3290 H   0  0  0  0  0  0  0  0  0  0  0  0
   36.2230   28.1600   40.8560 H   0  0  0  0  0  0  0  0  0  0  0  0
   37.5710   31.5940   40.3460 C   0  0  0  0  0  0  0  0  0  0  0  0
   38.7370   30.7900   40.2910 C   0  0  0  0  0  0  0  0  0  0  0  0
   39.9730   31.3820   40.4160 C   0  0  0  0  0  0  0  0  0  0  0  0
   40.0230   32.7200   40.5880 N   0  0  0  0  0  0  0  0  0  0  0  0
   38.9090   33.5040   40.6430 C   0  0  0  0  0  0  0  0  0  0  0  0
   37.7100   32.9200   40.5210 N   0  0  0  0  0  0  0  0  0  0  0  0
   36.6110   31.1190   40.2470 H   0  0  0  0  0  0  0  0  0  0  0  0
   39.0120   34.5620   40.7830 H   0  0  0  0  0  0  0  0  0  0  0  0
   41.1480   30.5410   40.3550 C   0  0  0  0  0  0  0  0  0  0  0  0
   41.7170   30.0830   41.5010 C   0  0  0  0  0  0  0  0  0  0  0  0
   42.8360   29.2820   41.4120 C   0  0  0  0  0  0  0  0  0  0  0  0
   43.4120   28.9220   40.2000 C   0  0  0  0  0  0  0  0  0  0  0  0
   42.7870   29.4210   39.0630 C   0  0  0  0  0  0  0  0  0  0  0  0
   41.7040   30.1930   39.1860 N   0  0  0  0  0  0  0  0  0  0  0  0
   41.3690   30.2900   42.4920 H   0  0  0  0  0  0  0  0  0  0  0  0
   43.3610   28.8680   42.2790 H   0  0  0  0  0  0  0  0  0  0  0  0
   44.2790   28.3040   40.0910 H   0  0  0  0  0  0  0  0  0  0  0  0
   43.1990   29.1680   38.0990 H   0  0  0  0  0  0  0  0  0  0  0  0
   37.3680   26.7480   39.7770 C   0  0  0  0  0  0  0  0  0  0  0  0
   37.9620   25.8190   39.9590 H   0  0  0  0  0  0  0  0  0  0  0  0
   38.1490   27.3310   39.2200 H   0  0  0  0  0  0  0  0  0  0  0  0
   36.2610   26.5660   38.8490 C   0  0  0  0  0  0  0  0  0  0  0  0
   35.7160   25.5170   38.1510 C   0  0  0  0  0  0  0  0  0  0  0  0
   36.1830   24.5780   38.2670 H   0  0  0  0  0  0  0  0  0  0  0  0
   34.6370   25.5440   37.3080 C   0  0  0  0  0  3  0  0  0  0  0  0
   33.9730   26.7080   37.0840 C   0  0  0  0  0  0  0  0  0  0  0  0
   32.9230   26.7430   36.2650 N   0  0  0  0  0  0  0  0  0  0  0  0
   32.2160   27.8540   35.9950 C   0  0  0  0  0  0  0  0  0  0  0  0
   31.3600   27.9150   35.3360 H   0  0  0  0  0  0  0  0  0  0  0  0
   32.6680   28.9870   36.6400 C   0  0  0  0  0  3  0  0  0  0  0  0
   33.7480   29.0210   37.5000 C   0  0  0  0  0  3  0  0  0  0  0  0
   34.4040   27.8300   37.7100 C   0  0  0  0  0  0  0  0  0  0  0  0
   35.5060   27.7270   38.5520 C   0  0  0  0  0  3  0  0  0  0  0  0
  1 19  1  0  0  0  0
  1  3  1  0  0  0  0
  2  1  2  0  0  0  0
  3  4  1  0  0  0  0
  4 10  1  0  0  0  0
  4  9  1  0  0  0  0
  4  5  1  0  0  0  0
  5 11  1  0  0  0  0
  6  5  1  0  0  0  0
  6 13  1  0  0  0  0
  7 16  1  0  0  0  0
  7  6  1  0  0  0  0
  8 17  1  6  0  0  0
  8  3  1  0  0  0  0
  8  7  1  0  0  0  0
 12  5  1  0  0  0  0
 14  6  1  0  0  0  0
 15  7  1  0  0  0  0
 18 23  1  0  0  0  0
 19 18  2  0  0  0  0
 19 20  1  0  0  0  0
 20 21  2  0  0  0  0
 21 22  1  0  0  0  0
 22 25  1  0  0  0  0
 23 22  2  0  0  0  0
 24 18  1  0  0  0  0
 26 20  1  0  0  0  0
 26 27  1  0  0  0  0
 27 32  1  0  0  0  0
 28 27  2  0  0  0  0
 28 33  1  0  0  0  0
 29 28  1  0  0  0  0
 30 31  1  0  0  0  0
 30 29  2  0  0  0  0
 31 26  2  0  0  0  0
 34 29  1  0  0  0  0
 35 30  1  0  0  0  0
 36 37  1  0  0  0  0
 36  8  1  0  0  0  0
 38 36  1  0  0  0  0
 39 36  1  0  0  0  0
 40 41  1  0  0  0  0
 40 39  2  0  0  0  0
 42 40  1  0  0  0  0
 43 42  2  0  0  0  0
 43 49  1  0  0  0  0
 44 43  1  0  0  0  0
 45 44  2  0  0  0  0
 45 47  1  0  0  0  0
 46 45  1  0  0  0  0
 47 48  2  0  0  0  0
 48 49  1  0  0  0  0
 49 50  2  0  0  0  0
 50 39  1  0  0  0  0
M  END
>  <minimizedAffinity>
-6.15605783

$$$$
