
 OpenBabel03252509163D

 28 31  0  0  0  0  0  0  0  0999 V2000
   46.9290   32.9900   43.7250 C   0  0  0  0  0  0  0  0  0  0  0  0
   46.4890   33.5910   44.9320 C   0  0  0  0  0  0  0  0  0  0  0  0
   46.0330   32.7830   45.9160 C   0  0  0  0  0  0  0  0  0  0  0  0
   46.0090   31.3800   45.7130 C   0  0  0  0  0  0  0  0  0  0  0  0
   46.6760   31.2080   44.0220 S   0  0  0  0  0  0  0  0  0  0  0  0
   46.5210   34.6640   45.0580 H   0  0  0  0  0  0  0  0  0  0  0  0
   45.6740   33.0750   46.8620 H   0  0  0  0  0  0  0  0  0  0  0  0
   45.6110   30.2800   46.4980 C   0  0  0  0  0  0  0  0  0  0  0  0
   45.5570   30.4390   47.8660 C   0  0  0  0  0  0  0  0  0  0  0  0
   45.8040   31.3600   48.3760 H   0  0  0  0  0  0  0  0  0  0  0  0
   45.1570   29.3220   48.6100 C   0  0  0  0  0  3  0  0  0  0  0  0
   44.8350   28.1240   47.9710 C   0  0  0  0  0  0  0  0  0  0  0  0
   44.4530   27.0780   48.7550 N   0  0  0  0  0  0  0  0  0  0  0  0
   44.1270   25.8890   48.2140 C   0  0  0  0  0  0  0  0  0  0  0  0
   43.8330   25.0940   48.8580 H   0  0  0  0  0  0  0  0  0  0  0  0
   44.1920   25.7600   46.8280 C   0  0  0  0  0  3  0  0  0  0  0  0
   44.5730   26.8020   46.0150 C   0  0  0  0  0  3  0  0  0  0  0  0
   44.9030   28.0110   46.5890 C   0  0  0  0  0  0  0  0  0  0  0  0
   45.3020   29.1160   45.8300 C   0  0  0  0  0  3  0  0  0  0  0  0
   47.5830   34.4250   40.3620 C   0  0  0  0  0  0  0  0  0  0  0  0
   48.6740   35.2750   40.6700 C   0  0  0  0  0  0  0  0  0  0  0  0
   49.1280   35.3150   42.0040 C   0  0  0  0  0  0  0  0  0  0  0  0
   48.4830   34.5250   42.9280 N   0  0  0  0  0  0  0  0  0  0  0  0
   47.4460   33.7320   42.5760 C   0  0  0  0  0  0  0  0  0  0  0  0
   46.9940   33.6790   41.2980 N   0  0  0  0  0  0  0  0  0  0  0  0
   47.2340   34.3930   39.3410 H   0  0  0  0  0  0  0  0  0  0  0  0
   49.1710   35.8870   39.9480 H   0  0  0  0  0  0  0  0  0  0  0  0
   49.9530   35.9360   42.3240 H   0  0  0  0  0  0  0  0  0  0  0  0
  1  5  1  0  0  0  0
  1  2  2  0  0  0  0
  2  6  1  0  0  0  0
  2  3  1  0  0  0  0
  3  7  1  0  0  0  0
  4  3  2  0  0  0  0
  4  8  1  0  0  0  0
  5  4  1  0  0  0  0
  8  9  1  0  0  0  0
  9 10  1  0  0  0  0
  9 11  2  0  0  0  0
 12 11  1  0  0  0  0
 12 13  1  0  0  0  0
 14 13  2  0  0  0  0
 14 15  1  0  0  0  0
 16 14  1  0  0  0  0
 17 18  1  0  0  0  0
 17 16  2  0  0  0  0
 18 12  2  0  0  0  0
 19  8  2  0  0  0  0
 19 18  1  0  0  0  0
 20 21  2  0  0  0  0
 20 25  1  0  0  0  0
 21 22  1  0  0  0  0
 22 28  1  0  0  0  0
 22 23  2  0  0  0  0
 24 23  1  0  0  0  0
 24  1  1  0  0  0  0
 25 24  2  0  0  0  0
 26 20  1  0  0  0  0
 27 21  1  0  0  0  0
M  END
>  <minimizedAffinity>
-4.87007427

>  <minimizedRMSD>
4.02433157

$$$$
