
 OpenBabel03252509043D

 51 54  0  0  1  0  0  0  0  0999 V2000
   47.0800   34.3060   43.1390 N   0  0  0  0  0  0  0  0  0  0  0  0
   46.4950   35.1810   42.1910 C   0  0  0  0  0  0  0  0  0  0  0  0
   44.9790   35.2320   42.2270 C   0  0  0  0  0  0  0  0  0  0  0  0
   44.3860   35.0690   43.6050 C   0  0  0  0  0  0  0  0  0  0  0  0
   45.4620   34.9710   44.6710 C   0  0  0  0  0  0  0  0  0  0  0  0
   46.3450   33.7700   44.1710 C   0  0  2  0  0  0  0  0  0  0  0  0
   46.8300   36.2270   42.4360 H   0  0  0  0  0  0  0  0  0  0  0  0
   46.7670   35.0320   41.1440 H   0  0  0  0  0  0  0  0  0  0  0  0
   44.6200   36.1360   41.7140 H   0  0  0  0  0  0  0  0  0  0  0  0
   44.6220   34.3540   41.6370 H   0  0  0  0  0  0  0  0  0  0  0  0
   43.8040   35.9860   43.8360 H   0  0  0  0  0  0  0  0  0  0  0  0
   43.7220   34.1930   43.7060 H   0  0  0  0  0  0  0  0  0  0  0  0
   44.9940   34.6650   45.6170 H   0  0  0  0  0  0  0  0  0  0  0  0
   46.0920   35.8620   44.7090 H   0  0  0  0  0  0  0  0  0  0  0  0
   45.6190   32.9650   43.9410 H   0  0  0  0  0  0  0  0  0  0  0  0
   48.2250   33.5770   42.6460 C   0  0  0  0  0  0  0  0  0  0  0  0
   48.7380   34.2530   41.9160 H   0  0  0  0  0  0  0  0  0  0  0  0
   48.9190   33.3440   43.4730 H   0  0  0  0  0  0  0  0  0  0  0  0
   47.7380   32.3540   41.9520 C   0  0  0  0  0  0  0  0  0  0  0  0
   46.6340   32.2390   42.0340 H   0  0  0  0  0  0  0  0  0  0  0  0
   48.1730   31.4220   42.3640 H   0  0  0  0  0  0  0  0  0  0  0  0
   49.3510   31.7780   38.6090 C   0  0  0  0  0  0  0  0  0  0  0  0
   49.0530   31.6910   39.9800 C   0  0  0  0  0  0  0  0  0  0  0  0
   48.0440   32.4550   40.4990 C   0  0  0  0  0  0  0  0  0  0  0  0
   47.3860   33.2550   39.6620 N   0  0  0  0  0  0  0  0  0  0  0  0
   47.6570   33.3490   38.3580 C   0  0  0  0  0  0  0  0  0  0  0  0
   48.6480   32.6080   37.8090 N   0  0  0  0  0  0  0  0  0  0  0  0
   50.1330   31.1930   38.1700 H   0  0  0  0  0  0  0  0  0  0  0  0
   49.6510   31.0120   40.5470 H   0  0  0  0  0  0  0  0  0  0  0  0
   47.0040   34.0560   37.8670 H   0  0  0  0  0  0  0  0  0  0  0  0
   47.1100   33.5040   45.2950 O   0  0  0  0  0  0  0  0  0  0  0  0
   46.7000   30.8950   44.9490 O   0  0  0  0  0  0  0  0  0  0  0  0
   46.7630   32.0280   45.9940 P   0  0  2  0  0  0  0  0  0  0  0  0
   45.1480   32.1250   46.5790 O   0  0  0  0  0  0  0  0  0  0  0  0
   45.2050   32.4360   47.5220 H   0  0  0  0  0  0  0  0  0  0  0  0
   47.7380   31.6330   47.2700 O   0  0  0  0  0  0  0  0  0  0  0  0
   47.9830   30.2560   47.2620 C   0  0  0  0  0  0  0  0  0  0  0  0
   47.0810   29.6380   47.2750 H   0  0  0  0  0  0  0  0  0  0  0  0
   48.5870   29.9890   46.3510 H   0  0  0  0  0  0  0  0  0  0  0  0
   48.8290   30.0010   48.4630 C   0  0  0  0  0  0  0  0  0  0  0  0
   49.1210   30.9040   49.4650 C   0  0  0  0  0  0  0  0  0  0  0  0
   48.6850   31.8880   49.3540 H   0  0  0  0  0  0  0  0  0  0  0  0
   49.9230   30.5310   50.5240 C   0  0  0  0  0  3  0  0  0  0  0  0
   50.4220   29.2440   50.5540 C   0  0  0  0  0  0  0  0  0  0  0  0
   51.2010   28.8280   51.5490 N   0  0  0  0  0  0  0  0  0  0  0  0
   51.7150   27.5880   51.6320 C   0  0  0  0  0  0  0  0  0  0  0  0
   52.3490   27.2310   52.4330 H   0  0  0  0  0  0  0  0  0  0  0  0
   51.4500   26.6490   50.6500 C   0  0  0  0  0  3  0  0  0  0  0  0
   50.6510   27.0180   49.5950 C   0  0  0  0  0  3  0  0  0  0  0  0
   50.1600   28.3070   49.5780 C   0  0  0  0  0  0  0  0  0  0  0  0
   49.3480   28.7010   48.5160 C   0  0  0  0  0  3  0  0  0  0  0  0
  1  6  1  0  0  0  0
  2  3  1  0  0  0  0
  2  7  1  0  0  0  0
  2  1  1  0  0  0  0
  3  4  1  0  0  0  0
  4 12  1  0  0  0  0
  4 11  1  0  0  0  0
  4  5  1  0  0  0  0
  5 14  1  0  0  0  0
  5 13  1  0  0  0  0
  6 15  1  6  0  0  0
  6  5  1  0  0  0  0
  6 31  1  0  0  0  0
  8  2  1  0  0  0  0
  9  3  1  0  0  0  0
 10  3  1  0  0  0  0
 16  1  1  0  0  0  0
 16 18  1  0  0  0  0
 17 16  1  0  0  0  0
 19 20  1  0  0  0  0
 19 21  1  0  0  0  0
 19 16  1  0  0  0  0
 22 23  1  0  0  0  0
 23 24  2  0  0  0  0
 23 29  1  0  0  0  0
 24 19  1  0  0  0  0
 25 24  1  0  0  0  0
 26 25  2  0  0  0  0
 27 26  1  0  0  0  0
 27 22  2  0  0  0  0
 28 22  1  0  0  0  0
 30 26  1  0  0  0  0
 31 33  1  0  0  0  0
 33 32  2  6  0  0  0
 33 34  1  0  0  0  0
 33 36  1  0  0  0  0
 34 35  1  0  0  0  0
 37 36  1  0  0  0  0
 37 38  1  0  0  0  0
 37 40  1  0  0  0  0
 39 37  1  0  0  0  0
 40 51  2  0  0  0  0
 40 41  1  0  0  0  0
 41 43  2  0  0  0  0
 42 41  1  0  0  0  0
 43 44  1  0  0  0  0
 44 45  1  0  0  0  0
 45 46  2  0  0  0  0
 46 47  1  0  0  0  0
 48 46  1  0  0  0  0
 49 48  2  0  0  0  0
 50 49  1  0  0  0  0
 50 44  2  0  0  0  0
 51 50  1  0  0  0  0
M  END
>  <minimizedAffinity>
-4.8758688

>  <minimizedRMSD>
2.86772203

$$$$
