
 OpenBabel03252507273D

 30 33  0  0  0  0  0  0  0  0999 V2000
   45.4820   33.9340   45.1390 C   0  0  0  0  0  0  0  0  0  0  0  0
   44.7320   35.0630   45.4690 C   0  0  0  0  0  0  0  0  0  0  0  0
   44.7350   36.1460   44.5610 C   0  0  0  0  0  0  0  0  0  0  0  0
   45.4730   36.0370   43.4000 N   0  0  0  0  0  0  0  0  0  0  0  0
   46.1800   34.9110   43.1420 C   0  0  0  0  0  0  0  0  0  0  0  0
   46.1800   33.8930   43.9910 N   0  0  0  0  0  0  0  0  0  0  0  0
   44.1610   35.1580   46.3570 H   0  0  0  0  0  0  0  0  0  0  0  0
   44.1780   37.0320   44.7640 H   0  0  0  0  0  0  0  0  0  0  0  0
   45.5150   32.7900   46.0410 C   0  0  0  0  0  0  0  0  0  0  0  0
   45.3080   32.8340   47.3890 C   0  0  0  0  0  0  0  0  0  0  0  0
   45.1000   33.7870   47.8520 H   0  0  0  0  0  0  0  0  0  0  0  0
   45.3550   31.6970   48.1800 C   0  0  0  0  0  3  0  0  0  0  0  0
   45.6160   30.4590   47.6310 C   0  0  0  0  0  0  0  0  0  0  0  0
   45.6710   29.3280   48.3620 N   0  0  0  0  0  0  0  0  0  0  0  0
   45.9320   28.1260   47.7820 C   0  0  0  0  0  0  0  0  0  0  0  0
   45.9830   27.2020   48.3430 H   0  0  0  0  0  0  0  0  0  0  0  0
   46.1520   28.0190   46.4070 C   0  0  0  0  0  3  0  0  0  0  0  0
   46.1020   29.1590   45.6330 C   0  0  0  0  0  3  0  0  0  0  0  0
   45.8300   30.3680   46.2810 C   0  0  0  0  0  0  0  0  0  0  0  0
   45.7720   31.5270   45.5430 C   0  0  0  0  0  3  0  0  0  0  0  0
   46.9400   34.8300   41.9090 C   0  0  0  0  0  0  0  0  0  0  0  0
   48.1200   35.5080   41.7590 C   0  0  0  0  0  0  0  0  0  0  0  0
   48.9130   35.5020   40.6320 C   0  0  0  0  0  0  0  0  0  0  0  0
   48.4140   34.7210   39.5980 C   0  0  0  0  0  0  0  0  0  0  0  0
   47.2250   34.0200   39.7110 C   0  0  0  0  0  0  0  0  0  0  0  0
   46.4900   34.0780   40.8720 N   0  0  0  0  0  0  0  0  0  0  0  0
   48.4510   36.1000   42.6090 H   0  0  0  0  0  0  0  0  0  0  0  0
   49.8280   36.0640   40.5960 H   0  0  0  0  0  0  0  0  0  0  0  0
   48.9830   34.6660   38.6770 H   0  0  0  0  0  0  0  0  0  0  0  0
   46.8700   33.4220   38.8800 H   0  0  0  0  0  0  0  0  0  0  0  0
  1  2  1  0  0  0  0
  1  9  1  0  0  0  0
  2  7  1  0  0  0  0
  3  8  1  0  0  0  0
  3  2  2  0  0  0  0
  4  3  1  0  0  0  0
  5  4  2  0  0  0  0
  5  6  1  0  0  0  0
  6  1  2  0  0  0  0
  9 10  1  0  0  0  0
 10 11  1  0  0  0  0
 10 12  2  0  0  0  0
 13 12  1  0  0  0  0
 13 14  1  0  0  0  0
 15 16  1  0  0  0  0
 15 14  2  0  0  0  0
 17 15  1  0  0  0  0
 18 19  1  0  0  0  0
 18 17  2  0  0  0  0
 19 13  2  0  0  0  0
 20  9  2  0  0  0  0
 20 19  1  0  0  0  0
 21  5  1  0  0  0  0
 22 21  1  0  0  0  0
 22 27  1  0  0  0  0
 23 22  2  0  0  0  0
 24 25  2  0  0  0  0
 24 23  1  0  0  0  0
 25 26  1  0  0  0  0
 26 21  2  0  0  0  0
 28 23  1  0  0  0  0
 29 24  1  0  0  0  0
 30 25  1  0  0  0  0
M  END
>  <minimizedAffinity>
-5.84464121

>  <minimizedRMSD>
0.699872375

$$$$
