REMARK  Name = 
REMARK  4 active torsions:
REMARK  status: ('A' for Active; 'I' for Inactive)
REMARK    1  A    between atoms: C_3  and  C_10
REMARK    2  A    between atoms: C_4  and  C_15
REMARK    3  A    between atoms: C_14  and  S_20
REMARK    4  A    between atoms: S_20  and  C_33
REMARK                            x       y       z     vdW  Elec       q    Type
REMARK                         _______ _______ _______ _____ _____    ______ ____
ROOT
ATOM      1  C   UNL     1      47.789  31.870  38.988  0.00  0.00    +0.000 A 
ATOM      2  C   UNL     1      47.234  33.112  38.876  0.00  0.00    +0.000 A 
ATOM      3  C   UNL     1      47.772  34.029  37.988  0.00  0.00    +0.000 A 
ATOM      4  C   UNL     1      48.861  33.695  37.218  0.00  0.00    +0.000 A 
ATOM      5  C   UNL     1      49.458  32.438  37.301  0.00  0.00    +0.000 A 
ATOM      6  C   UNL     1      48.895  31.532  38.205  0.00  0.00    +0.000 A 
ATOM      7  H   UNL     1      47.349  35.020  37.883  0.00  0.00    +0.000 HD
ATOM      8  H   UNL     1      49.339  34.336  36.511  0.00  0.00    +0.000 HD
ATOM      9  H   UNL     1      50.300  32.103  36.741  0.00  0.00    +0.000 HD
ATOM     10  H   UNL     1      49.339  30.540  38.293  0.00  0.00    +0.000 HD
ENDROOT
BRANCH   2  14
ATOM     11 CL   UNL     1      45.278  35.276  43.138  0.00  0.00    +0.000 Cl
ATOM     12  C   UNL     1      45.156  34.528  41.567  0.00  0.00    +0.000 A 
ATOM     13  C   UNL     1      46.262  34.142  40.880  0.00  0.00    +0.000 A 
ATOM     14  C   UNL     1      46.074  33.562  39.638  0.00  0.00    +0.000 A 
ATOM     15  C   UNL     1      44.825  33.379  39.103  0.00  0.00    +0.000 A 
ATOM     16  C   UNL     1      43.722  33.768  39.799  0.00  0.00    +0.000 A 
ATOM     17  C   UNL     1      43.900  34.347  41.042  0.00  0.00    +0.000 A 
ATOM     18  H   UNL     1      44.703  32.925  38.129  0.00  0.00    +0.000 HD
ATOM     19  H   UNL     1      42.756  33.613  39.361  0.00  0.00    +0.000 HD
ATOM     20  H   UNL     1      42.992  34.639  41.556  0.00  0.00    +0.000 HD
BRANCH  13  23
ATOM     21  C   UNL     1      49.538  35.750  41.894  0.00  0.00    +0.000 A 
ATOM     22  C   UNL     1      48.278  35.547  41.321  0.00  0.00    +0.000 A 
ATOM     23  C   UNL     1      47.575  34.363  41.469  0.00  0.00    +0.000 A 
ATOM     24  N   UNL     1      48.220  33.454  42.203  0.00  0.00    +0.000 NA
ATOM     25  C   UNL     1      49.419  33.621  42.760  0.00  0.00    +0.000 A 
ATOM     26  N   UNL     1      50.075  34.764  42.606  0.00  0.00    +0.000 NA
ATOM     27  H   UNL     1      50.042  36.678  41.753  0.00  0.00    +0.000 HD
ATOM     28  H   UNL     1      47.841  36.362  40.736  0.00  0.00    +0.000 HD
ATOM     29  H   UNL     1      49.720  32.729  43.306  0.00  0.00    +0.000 HD
ENDBRANCH  13  23
ENDBRANCH   2  14
BRANCH   1  30
ATOM     30  S   UNL     1      47.183  30.720  40.061  0.00  0.00    +0.000 S 
ATOM     31  O   UNL     1      46.796  29.438  39.294  0.00  0.00    +0.000 OA
ATOM     32  O   UNL     1      48.393  30.270  40.903  0.00  0.00    +0.000 OA
BRANCH  30  33
ATOM     33  C   UNL     1      45.840  30.917  41.089  0.00  0.00    +0.000 A 
ATOM     34  C   UNL     1      45.374  32.017  41.798  0.00  0.00    +0.000 A 
ATOM     35  H   UNL     1      45.959  32.915  41.680  0.00  0.00    +0.000 HD
ATOM     36  C   UNL     1      44.310  32.098  42.643  0.00  0.00    +0.000 A 
ATOM     37  C   UNL     1      43.596  30.945  42.827  0.00  0.00    +0.000 A 
ATOM     38  N   UNL     1      42.533  30.973  43.655  0.00  0.00    +0.000 NA
ATOM     39  C   UNL     1      41.788  29.852  43.873  0.00  0.00    +0.000 A 
ATOM     40  H   UNL     1      40.940  29.915  44.546  0.00  0.00    +0.000 HD
ATOM     41  C   UNL     1      42.123  28.658  43.236  0.00  0.00    +0.000 A 
ATOM     42  C   UNL     1      43.214  28.564  42.367  0.00  0.00    +0.000 A 
ATOM     43  C   UNL     1      43.886  29.756  42.228  0.00  0.00    +0.000 A 
ATOM     44  C   UNL     1      44.987  29.818  41.398  0.00  0.00    +0.000 A 
ENDBRANCH  30  33
ENDBRANCH   1  30
TORSDOF 4
