
     RDKit          3D

 35 38  0  0  0  0  0  0  0  0999 V2000
   45.5249   34.1491   44.4216 C   0  0  0  0  0  0  0  0  0  0  0  0
   46.4874   33.5982   43.5391 C   0  0  0  0  0  0  0  0  0  0  0  0
   47.3779   32.6687   44.0540 C   0  0  0  0  0  0  0  0  0  0  0  0
   47.2785   32.3378   45.3722 N   0  0  0  0  0  0  0  0  0  0  0  0
   46.3449   32.8881   46.1754 C   0  0  0  0  0  0  0  0  0  0  0  0
   45.4715   33.7937   45.6905 N   0  0  0  0  0  0  0  0  0  0  0  0
   46.3997   32.3942   47.5907 C   0  0  0  0  0  0  0  0  0  0  0  0
   45.3873   32.9107   48.3562 F   0  0  0  0  0  0  0  0  0  0  0  0
   47.6220   32.7437   48.1661 F   0  0  0  0  0  0  0  0  0  0  0  0
   46.3854   31.0013   47.5821 F   0  0  0  0  0  0  0  0  0  0  0  0
   44.6029   35.1494   43.8492 C   0  0  1  0  0  0  0  0  0  0  0  0
   44.8363   36.5951   44.3261 C   0  0  0  0  0  0  0  0  0  0  0  0
   44.9993   36.1871   42.9050 C   0  0  1  0  0  0  0  0  0  0  0  0
   46.6063   33.8157   42.4864 H   0  0  0  0  0  0  0  0  0  0  0  0
   48.1375   32.2099   43.4356 H   0  0  0  0  0  0  0  0  0  0  0  0
   43.5092   34.8785   43.9132 H   0  0  0  0  0  0  0  0  0  0  0  0
   45.7058   36.7752   44.9864 H   0  0  0  0  0  0  0  0  0  0  0  0
   43.9336   37.2107   44.5765 H   0  0  0  0  0  0  0  0  0  0  0  0
   44.2094   36.5058   42.1592 H   0  0  0  0  0  0  0  0  0  0  0  0
   46.3583   36.4196   42.3891 C   0  0  0  0  0  0  0  0  0  0  0  0
   46.8396   35.5475   41.4031 C   0  0  0  0  0  0  0  0  0  0  0  0
   46.2374   34.7051   41.0261 H   0  0  0  0  0  0  0  0  0  0  0  0
   48.1030   35.6555   40.8118 C   0  0  0  0  0  0  0  0  0  0  0  0
   48.9260   36.6829   41.2241 C   0  0  0  0  0  0  0  0  0  0  0  0
   50.1513   36.8401   40.6944 N   0  0  0  0  0  0  0  0  0  0  0  0
   50.9476   37.8410   41.0989 C   0  0  0  0  0  0  0  0  0  0  0  0
   51.9218   37.9132   40.6337 H   0  0  0  0  0  0  0  0  0  0  0  0
   50.5533   38.7532   42.0713 C   0  0  0  0  0  0  0  0  0  0  0  0
   49.2850   38.6193   42.6436 C   0  0  0  0  0  0  0  0  0  0  0  0
   48.4987   37.5676   42.1914 C   0  0  0  0  0  0  0  0  0  0  0  0
   47.2452   37.4168   42.7416 C   0  0  0  0  0  0  0  0  0  0  0  0
   48.4156   34.9522   40.0574 H   0  0  0  0  0  0  0  0  0  0  0  0
   51.2361   39.5370   42.3561 H   0  0  0  0  0  0  0  0  0  0  0  0
   48.9688   39.3281   43.4045 H   0  0  0  0  0  0  0  0  0  0  0  0
   46.9027   38.1068   43.4990 H   0  0  0  0  0  0  0  0  0  0  0  0
  1  6  2  0
  2  3  2  0
  2  1  1  0
  3  4  1  0
  4  5  2  0
  5  7  1  0
  6  5  1  0
  7  9  1  0
  7  8  1  0
 10  7  1  0
 11 12  1  0
 11  1  1  0
 13 11  1  0
 13 12  1  0
  2 14  1  0
  3 15  1  0
 11 16  1  6
 12 17  1  0
 12 18  1  0
 13 19  1  6
 20 21  2  0
 21 22  1  0
 21 23  1  0
 23 24  2  0
 24 25  1  0
 25 26  2  0
 26 27  1  0
 26 28  1  0
 28 29  2  0
 29 30  1  0
 30 31  2  0
 31 20  1  0
 30 24  1  0
 23 32  1  0
 28 33  1  0
 29 34  1  0
 31 35  1  0
 13 20  1  0
M  ISO  8  14  14  15  14  16  13  17  13  18  13  19  13  22  16  27  16
M  END
>  <DihAtoms>  (1) 
10,12,19,20

>  <DihDeg>  (1) 
136.34989771163

$$$$
