REMARK  Name = 
REMARK  3 active torsions:
REMARK  status: ('A' for Active; 'I' for Inactive)
REMARK    1  A    between atoms: C_3  and  S_9
REMARK    2  A    between atoms: S_9  and  C_10
REMARK    3  A    between atoms: C_14  and  C_21
REMARK                            x       y       z     vdW  Elec       q    Type
REMARK                         _______ _______ _______ _____ _____    ______ ____
ROOT
ATOM      1  C   UNL     1      44.362  34.621  42.734  0.00  0.00    +0.000 A 
ATOM      2  C   UNL     1      45.029  33.485  43.203  0.00  0.00    +0.000 A 
ATOM      3  C   UNL     1      45.471  33.497  44.537  0.00  0.00    +0.000 A 
ATOM      4  N   UNL     1      45.231  34.601  45.301  0.00  0.00    +0.000 NA
ATOM      5  C   UNL     1      44.584  35.668  44.800  0.00  0.00    +0.000 A 
ATOM      6  N   UNL     1      44.139  35.702  43.519  0.00  0.00    +0.000 NA
ATOM      7  H   UNL     1      45.231  32.611  42.631  0.00  0.00    +0.000 HD
ATOM      8  H   UNL     1      45.991  32.630  44.926  0.00  0.00    +0.000 HD
ENDROOT
BRANCH   5   9
ATOM      9  C   UNL     1      44.367  36.809  45.682  0.00  0.00    +0.000 A 
ATOM     10  C   UNL     1      44.519  36.720  47.050  0.00  0.00    +0.000 A 
ATOM     11  H   UNL     1      44.809  35.778  47.502  0.00  0.00    +0.000 HD
ATOM     12  C   UNL     1      44.299  37.841  47.843  0.00  0.00    +0.000 A 
ATOM     13  C   UNL     1      43.929  39.041  47.269  0.00  0.00    +0.000 A 
ATOM     14  N   UNL     1      43.700  40.163  47.975  0.00  0.00    +0.000 NA
ATOM     15  C   UNL     1      43.341  41.332  47.426  0.00  0.00    +0.000 A 
ATOM     16  H   UNL     1      43.158  42.231  47.998  0.00  0.00    +0.000 HD
ATOM     17  C   UNL     1      43.181  41.444  46.043  0.00  0.00    +0.000 A 
ATOM     18  C   UNL     1      43.403  40.326  45.277  0.00  0.00    +0.000 A 
ATOM     19  C   UNL     1      43.770  39.156  45.903  0.00  0.00    +0.000 A 
ATOM     20  C   UNL     1      44.000  38.013  45.144  0.00  0.00    +0.000 A 
ENDBRANCH   5   9
BRANCH   1  21
ATOM     21  S   UNL     1      43.825  34.540  41.024  0.00  0.00    +0.000 S 
BRANCH  21  24
ATOM     22 CL   UNL     1      42.103  31.930  41.706  0.00  0.00    +0.000 Cl
ATOM     23  C   UNL     1      41.265  33.357  41.111  0.00  0.00    +0.000 A 
ATOM     24  C   UNL     1      42.078  34.426  40.846  0.00  0.00    +0.000 A 
ATOM     25  C   UNL     1      41.476  35.590  40.370  0.00  0.00    +0.000 A 
ATOM     26  C   UNL     1      40.081  35.620  40.187  0.00  0.00    +0.000 A 
ATOM     27  C   UNL     1      39.281  34.535  40.459  0.00  0.00    +0.000 A 
ATOM     28  C   UNL     1      39.905  33.389  40.931  0.00  0.00    +0.000 A 
ATOM     29 CL   UNL     1      38.970  31.951  41.308  0.00  0.00    +0.000 Cl
ATOM     30  H   UNL     1      41.991  36.483  40.128  0.00  0.00    +0.000 HD
ATOM     31  H   UNL     1      39.603  36.522  39.817  0.00  0.00    +0.000 HD
ATOM     32  H   UNL     1      38.210  34.550  40.321  0.00  0.00    +0.000 HD
ENDBRANCH  21  24
ENDBRANCH   1  21
TORSDOF 3
