
 OpenBabel03252507223D

 50 54  0  0  1  0  0  0  0  0999 V2000
   47.5020   33.7370   42.8260 C   0  0  0  0  0  0  0  0  0  0  0  0
   48.5900   33.6620   43.4690 O   0  0  0  0  0  0  0  0  0  0  0  0
   47.2530   33.1330   41.5400 N   0  0  0  0  0  0  0  0  0  0  0  0
   46.1140   32.3980   41.0390 C   0  0  0  0  0  0  0  0  0  0  0  0
   45.6860   33.0200   39.7020 C   0  0  0  0  0  0  0  0  0  0  0  0
   46.7730   32.8800   38.6860 C   0  0  0  0  0  0  0  0  0  0  0  0
   48.0640   32.4990   39.3650 C   0  0  0  0  0  0  0  0  0  0  0  0
   48.3420   33.3270   40.6040 C   0  0  2  0  0  0  0  0  0  0  0  0
   46.2840   31.3290   40.8910 H   0  0  0  0  0  0  0  0  0  0  0  0
   45.2230   32.5480   41.7100 H   0  0  0  0  0  0  0  0  0  0  0  0
   44.8190   32.4480   39.3660 H   0  0  0  0  0  0  0  0  0  0  0  0
   45.4470   34.0900   39.9090 H   0  0  0  0  0  0  0  0  0  0  0  0
   46.5390   32.0700   37.9590 H   0  0  0  0  0  0  0  0  0  0  0  0
   46.9140   33.8680   38.1810 H   0  0  0  0  0  0  0  0  0  0  0  0
   48.9190   32.7140   38.6670 H   0  0  0  0  0  0  0  0  0  0  0  0
   48.0960   31.4190   39.5850 H   0  0  0  0  0  0  0  0  0  0  0  0
   48.3290   34.3850   40.2940 H   0  0  0  0  0  0  0  0  0  0  0  0
   46.0400   35.7160   42.8380 C   0  0  0  0  0  0  0  0  0  0  0  0
   46.4280   34.4960   43.4450 C   0  0  0  0  0  0  0  0  0  0  0  0
   45.7840   34.0720   44.5850 C   0  0  0  0  0  0  0  0  0  0  0  0
   44.7980   34.8470   45.0830 N   0  0  0  0  0  0  0  0  0  0  0  0
   44.4150   36.0220   44.5100 C   0  0  0  0  0  0  0  0  0  0  0  0
   45.0460   36.4270   43.4000 N   0  0  0  0  0  0  0  0  0  0  0  0
   46.5510   36.0350   41.9480 H   0  0  0  0  0  0  0  0  0  0  0  0
   43.6240   36.5950   44.9520 H   0  0  0  0  0  0  0  0  0  0  0  0
   46.1990   32.8230   45.1870 C   0  0  0  0  0  0  0  0  0  0  0  0
   45.8920   31.6430   44.5850 C   0  0  0  0  0  0  0  0  0  0  0  0
   46.3020   30.4700   45.1820 C   0  0  0  0  0  0  0  0  0  0  0  0
   47.0150   30.4360   46.3730 C   0  0  0  0  0  0  0  0  0  0  0  0
   47.2990   31.6740   46.9410 C   0  0  0  0  0  0  0  0  0  0  0  0
   46.8880   32.7920   46.3360 N   0  0  0  0  0  0  0  0  0  0  0  0
   45.3500   31.5380   43.6690 H   0  0  0  0  0  0  0  0  0  0  0  0
   46.1010   29.4740   44.7720 H   0  0  0  0  0  0  0  0  0  0  0  0
   47.3490   29.5460   46.8660 H   0  0  0  0  0  0  0  0  0  0  0  0
   47.8510   31.6980   47.8670 H   0  0  0  0  0  0  0  0  0  0  0  0
   49.6910   32.9800   41.0920 C   0  0  0  0  0  0  0  0  0  0  0  0
   50.0460   33.5800   41.9660 H   0  0  0  0  0  0  0  0  0  0  0  0
   50.3370   33.4500   40.3030 H   0  0  0  0  0  0  0  0  0  0  0  0
   50.0770   31.5770   41.1480 C   0  0  0  0  0  0  0  0  0  0  0  0
   50.7310   30.6970   40.3230 C   0  0  0  0  0  0  0  0  0  0  0  0
   51.0530   31.0700   39.3910 H   0  0  0  0  0  0  0  0  0  0  0  0
   51.0130   29.3790   40.5630 C   0  0  0  0  0  3  0  0  0  0  0  0
   50.6340   28.7990   41.7320 C   0  0  0  0  0  0  0  0  0  0  0  0
   50.9040   27.5170   41.9720 N   0  0  0  0  0  0  0  0  0  0  0  0
   50.5610   26.8750   43.1030 C   0  0  0  0  0  0  0  0  0  0  0  0
   50.7650   25.8360   43.3290 H   0  0  0  0  0  0  0  0  0  0  0  0
   49.8910   27.6570   44.0210 C   0  0  0  0  0  3  0  0  0  0  0  0
   49.5800   28.9890   43.8350 C   0  0  0  0  0  3  0  0  0  0  0  0
   49.9750   29.5540   42.6440 C   0  0  0  0  0  0  0  0  0  0  0  0
   49.7230   30.8850   42.3330 C   0  0  0  0  0  3  0  0  0  0  0  0
  1 19  1  0  0  0  0
  1  2  2  0  0  0  0
  3  1  1  0  0  0  0
  4  3  1  0  0  0  0
  4 10  1  0  0  0  0
  5 12  1  0  0  0  0
  5  4  1  0  0  0  0
  6  7  1  0  0  0  0
  6  5  1  0  0  0  0
  7 16  1  0  0  0  0
  7  8  1  0  0  0  0
  8 17  1  6  0  0  0
  8 36  1  0  0  0  0
  8  3  1  0  0  0  0
  9  4  1  0  0  0  0
 11  5  1  0  0  0  0
 13  6  1  0  0  0  0
 14  6  1  0  0  0  0
 15  7  1  0  0  0  0
 18 23  2  0  0  0  0
 18 19  1  0  0  0  0
 19 20  2  0  0  0  0
 20 21  1  0  0  0  0
 20 26  1  0  0  0  0
 22 25  1  0  0  0  0
 22 21  2  0  0  0  0
 23 22  1  0  0  0  0
 24 18  1  0  0  0  0
 26 31  1  0  0  0  0
 27 28  1  0  0  0  0
 27 26  2  0  0  0  0
 28 29  2  0  0  0  0
 29 34  1  0  0  0  0
 29 30  1  0  0  0  0
 30 35  1  0  0  0  0
 31 30  2  0  0  0  0
 32 27  1  0  0  0  0
 33 28  1  0  0  0  0
 36 39  1  0  0  0  0
 36 37  1  0  0  0  0
 38 36  1  0  0  0  0
 39 50  1  0  0  0  0
 40 42  1  0  0  0  0
 40 39  2  0  0  0  0
 41 40  1  0  0  0  0
 42 43  2  0  0  0  0
 43 44  1  0  0  0  0
 43 49  1  0  0  0  0
 44 45  2  0  0  0  0
 45 46  1  0  0  0  0
 45 47  1  0  0  0  0
 48 47  2  0  0  0  0
 49 48  1  0  0  0  0
 50 49  2  0  0  0  0
M  END
>  <minimizedAffinity>
-5.02096367

>  <minimizedRMSD>
0.589122057

$$$$
