
 OpenBabel03252501483D

 36 39  0  0  0  0  0  0  0  0999 V2000
   44.2630   33.6740   40.6470 C   0  0  0  0  0  0  0  0  0  0  0  0
   44.5190   34.7980   41.4820 C   0  0  0  0  0  0  0  0  0  0  0  0
   43.5120   35.7420   41.6770 C   0  0  0  0  0  0  0  0  0  0  0  0
   42.3180   35.5430   41.0550 N   0  0  0  0  0  0  0  0  0  0  0  0
   42.1130   34.4780   40.2790 C   0  0  0  0  0  0  0  0  0  0  0  0
   43.0670   33.5520   40.0730 N   0  0  0  0  0  0  0  0  0  0  0  0
   45.0700   32.9610   40.5170 H   0  0  0  0  0  0  0  0  0  0  0  0
   43.6960   36.5910   42.3030 H   0  0  0  0  0  0  0  0  0  0  0  0
   39.8800   33.7170   41.7440 F   0  0  0  0  0  0  0  0  0  0  0  0
   39.7080   33.9240   40.4050 C   0  0  0  0  0  0  0  0  0  0  0  0
   40.8080   34.3090   39.6320 C   0  0  0  0  0  0  0  0  0  0  0  0
   40.6920   34.5290   38.2860 C   0  0  0  0  0  0  0  0  0  0  0  0
   39.4360   34.3570   37.7070 C   0  0  0  0  0  0  0  0  0  0  0  0
   38.3210   33.9750   38.4510 C   0  0  0  0  0  0  0  0  0  0  0  0
   38.4630   33.7570   39.8140 C   0  0  0  0  0  0  0  0  0  0  0  0
   41.5480   34.8280   37.6830 H   0  0  0  0  0  0  0  0  0  0  0  0
   39.3840   34.5380   36.6500 H   0  0  0  0  0  0  0  0  0  0  0  0
   37.3700   33.8560   37.9460 H   0  0  0  0  0  0  0  0  0  0  0  0
   37.5950   33.4580   40.3950 H   0  0  0  0  0  0  0  0  0  0  0  0
   45.8370   34.9220   42.1080 C   0  0  0  0  0  0  0  0  0  0  0  0
   46.9920   34.7870   41.4850 C   0  0  0  0  0  0  0  0  0  0  0  0
   48.2830   34.9350   42.2430 C   0  0  0  0  0  0  0  0  0  0  0  0
   48.7730   35.8930   42.0640 H   0  0  0  0  0  0  0  0  0  0  0  0
   48.1330   34.7530   43.3240 H   0  0  0  0  0  0  0  0  0  0  0  0
   49.1860   33.8420   41.7370 C   0  0  0  0  0  0  0  0  0  0  0  0
   50.3820   33.5140   42.3470 C   0  0  0  0  0  0  0  0  0  0  0  0
   50.6420   34.0970   43.2270 H   0  0  0  0  0  0  0  0  0  0  0  0
   51.1510   32.4880   41.8070 C   0  0  0  0  0  0  0  0  0  0  0  0
   50.7430   31.7980   40.6850 C   0  0  0  0  0  0  0  0  0  0  0  0
   51.5430   30.8180   40.2230 N   0  0  0  0  0  0  0  0  0  0  0  0
   51.1690   30.1210   39.1210 C   0  0  0  0  0  0  0  0  0  0  0  0
   51.7640   29.3260   38.7030 H   0  0  0  0  0  0  0  0  0  0  0  0
   49.9780   30.4360   38.4990 C   0  0  0  0  0  0  0  0  0  0  0  0
   49.1180   31.4290   38.9260 C   0  0  0  0  0  0  0  0  0  0  0  0
   49.5520   32.1120   40.0630 C   0  0  0  0  0  0  0  0  0  0  0  0
   48.7950   33.1300   40.6020 C   0  0  0  0  0  0  0  0  0  0  0  0
  1  2  1  0  0  0  0
  2  3  2  0  0  0  0
  2 20  1  0  0  0  0
  3  8  1  0  0  0  0
  4  3  1  0  0  0  0
  5  4  2  0  0  0  0
  6  5  1  0  0  0  0
  6  1  2  0  0  0  0
  7  1  1  0  0  0  0
 10  9  1  0  0  0  0
 11  5  1  0  0  0  0
 11 10  2  0  0  0  0
 12 11  1  0  0  0  0
 13 12  2  0  0  0  0
 13 14  1  0  0  0  0
 14 15  2  0  0  0  0
 15 19  1  0  0  0  0
 15 10  1  0  0  0  0
 16 12  1  0  0  0  0
 17 13  1  0  0  0  0
 18 14  1  0  0  0  0
 21 20  2  0  0  0  0
 21 22  1  0  0  0  0
 22 24  1  0  0  0  0
 23 22  1  0  0  0  0
 25 22  1  0  0  0  0
 25 26  1  0  0  0  0
 26 27  1  0  0  0  0
 28 26  2  0  0  0  0
 29 28  1  0  0  0  0
 30 29  1  0  0  0  0
 31 30  2  0  0  0  0
 32 31  1  0  0  0  0
 33 34  2  0  0  0  0
 33 31  1  0  0  0  0
 34 35  1  0  0  0  0
 35 36  1  0  0  0  0
 35 29  2  0  0  0  0
 36 25  2  0  0  0  0
M  END
>  <minimizedAffinity>
-6.73321772

>  <minimizedRMSD>
1.39309239

$$$$
