REMARK  Name = 
REMARK  3 active torsions:
REMARK  status: ('A' for Active; 'I' for Inactive)
REMARK    1  A    between atoms: C_1  and  C_11
REMARK    2  A    between atoms: C_5  and  C_7
REMARK    3  A    between atoms: C_13  and  C_20
REMARK                            x       y       z     vdW  Elec       q    Type
REMARK                         _______ _______ _______ _____ _____    ______ ____
ROOT
ATOM      1  C   UNL     1      44.603  35.149  43.849  0.00  0.00    +0.000 C 
ATOM      2  C   UNL     1      44.836  36.595  44.326  0.00  0.00    +0.000 C 
ATOM      3  C   UNL     1      44.999  36.187  42.905  0.00  0.00    +0.000 C 
ATOM      4  H   UNL     1      43.509  34.879  43.913  0.00  0.00    +0.000 HD
ATOM      5  H   UNL     1      45.706  36.775  44.986  0.00  0.00    +0.000 HD
ATOM      6  H   UNL     1      43.934  37.211  44.577  0.00  0.00    +0.000 HD
ATOM      7  H   UNL     1      44.209  36.506  42.159  0.00  0.00    +0.000 HD
ENDROOT
BRANCH   3   8
ATOM      8  C   UNL     1      46.358  36.420  42.389  0.00  0.00    +0.000 A 
ATOM      9  C   UNL     1      46.840  35.547  41.403  0.00  0.00    +0.000 A 
ATOM     10  H   UNL     1      46.237  34.705  41.026  0.00  0.00    +0.000 HD
ATOM     11  C   UNL     1      48.103  35.656  40.812  0.00  0.00    +0.000 A 
ATOM     12  C   UNL     1      48.926  36.683  41.224  0.00  0.00    +0.000 A 
ATOM     13  N   UNL     1      50.151  36.840  40.694  0.00  0.00    +0.000 NA
ATOM     14  C   UNL     1      50.948  37.841  41.099  0.00  0.00    +0.000 A 
ATOM     15  H   UNL     1      51.922  37.913  40.634  0.00  0.00    +0.000 HD
ATOM     16  C   UNL     1      50.553  38.753  42.071  0.00  0.00    +0.000 A 
ATOM     17  C   UNL     1      49.285  38.619  42.644  0.00  0.00    +0.000 A 
ATOM     18  C   UNL     1      48.499  37.568  42.191  0.00  0.00    +0.000 A 
ATOM     19  C   UNL     1      47.245  37.417  42.742  0.00  0.00    +0.000 A 
ENDBRANCH   3   8
BRANCH   1  20
ATOM     20  C   UNL     1      45.525  34.149  44.422  0.00  0.00    +0.000 A 
ATOM     21  C   UNL     1      46.487  33.598  43.539  0.00  0.00    +0.000 A 
ATOM     22  C   UNL     1      47.378  32.669  44.054  0.00  0.00    +0.000 A 
ATOM     23  N   UNL     1      47.279  32.338  45.372  0.00  0.00    +0.000 NA
ATOM     24  C   UNL     1      46.345  32.888  46.175  0.00  0.00    +0.000 A 
ATOM     25  N   UNL     1      45.471  33.794  45.691  0.00  0.00    +0.000 NA
ATOM     26  H   UNL     1      46.606  33.816  42.486  0.00  0.00    +0.000 HD
ATOM     27  H   UNL     1      48.138  32.210  43.436  0.00  0.00    +0.000 HD
BRANCH  24  28
ATOM     28  C   UNL     1      46.400  32.394  47.591  0.00  0.00    +0.000 C 
ATOM     29  F   UNL     1      45.387  32.911  48.356  0.00  0.00    +0.000 F 
ATOM     30  F   UNL     1      47.622  32.744  48.166  0.00  0.00    +0.000 F 
ATOM     31  F   UNL     1      46.385  31.001  47.582  0.00  0.00    +0.000 F 
ENDBRANCH  24  28
ENDBRANCH   1  20
TORSDOF 3
