
 OpenBabel03252501523D

 48 52  0  0  1  0  0  0  0  0999 V2000
   36.2020   28.0580   39.8570 C   0  0  0  0  0  0  0  0  0  0  0  0
   37.0850   27.7740   39.2240 H   0  0  0  0  0  0  0  0  0  0  0  0
   35.7570   27.0970   40.1890 H   0  0  0  0  0  0  0  0  0  0  0  0
   36.6910   28.8880   40.9140 N   0  0  0  0  0  0  0  0  0  0  0  0
   36.5760   28.2670   42.1840 C   0  0  0  0  0  0  0  0  0  0  0  0
   37.7720   28.6720   43.0130 C   0  0  0  0  0  0  0  0  0  0  0  0
   38.7900   29.0390   41.9850 C   0  0  0  0  0  0  0  0  0  0  0  0
   38.0300   29.3300   40.6990 C   0  0  2  0  0  0  0  0  0  0  0  0
   35.6920   28.7480   42.6990 H   0  0  0  0  0  0  0  0  0  0  0  0
   36.3580   27.1940   42.1900 H   0  0  0  0  0  0  0  0  0  0  0  0
   38.1180   27.7230   43.5140 H   0  0  0  0  0  0  0  0  0  0  0  0
   37.5690   29.4290   43.7720 H   0  0  0  0  0  0  0  0  0  0  0  0
   39.3680   29.9180   42.3350 H   0  0  0  0  0  0  0  0  0  0  0  0
   39.5480   28.2290   41.8170 H   0  0  0  0  0  0  0  0  0  0  0  0
   38.5560   28.8130   39.8690 H   0  0  0  0  0  0  0  0  0  0  0  0
   38.1050   30.8200   40.4920 C   0  0  0  0  0  0  0  0  0  0  0  0
   37.0770   31.6880   40.1850 C   0  0  0  0  0  0  0  0  0  0  0  0
   36.1160   31.2030   40.0910 H   0  0  0  0  0  0  0  0  0  0  0  0
   37.3580   33.0160   40.0370 C   0  0  0  0  0  3  0  0  0  0  0  0
   38.6500   33.4910   40.1900 C   0  0  0  0  0  0  0  0  0  0  0  0
   38.9100   34.8100   40.0410 N   0  0  0  0  0  0  0  0  0  0  0  0
   40.1600   35.2860   40.1850 C   0  0  0  0  0  0  0  0  0  0  0  0
   40.4240   36.3480   40.0750 H   0  0  0  0  0  0  0  0  0  0  0  0
   41.2450   34.4990   40.4900 C   0  0  0  0  0  3  0  0  0  0  0  0
   40.9920   33.1390   40.6470 C   0  0  0  0  0  3  0  0  0  0  0  0
   39.7130   32.6370   40.5010 C   0  0  0  0  0  0  0  0  0  0  0  0
   39.3960   31.2910   40.6450 C   0  0  0  0  0  3  0  0  0  0  0  0
   34.7500   28.1540   37.8670 C   0  0  0  0  0  3  0  0  0  0  0  0
   35.2510   28.7640   38.9390 C   0  0  0  0  0  3  0  0  0  0  0  0
   32.5120   29.2300   37.3360 C   0  0  0  0  0  0  0  0  0  0  0  0
   33.8190   28.8040   36.9430 C   0  0  0  0  0  0  0  0  0  0  0  0
   34.2320   29.0150   35.6160 C   0  0  0  0  0  0  0  0  0  0  0  0
   33.3650   29.6200   34.7600 N   0  0  0  0  0  0  0  0  0  0  0  0
   32.1440   30.0070   35.1630 C   0  0  0  0  0  0  0  0  0  0  0  0
   31.7470   29.8070   36.4300 N   0  0  0  0  0  0  0  0  0  0  0  0
   32.2270   29.0540   38.3570 H   0  0  0  0  0  0  0  0  0  0  0  0
   35.2210   28.6920   35.3200 H   0  0  0  0  0  0  0  0  0  0  0  0
   30.7530   28.5540   33.2600 F   0  0  0  0  0  0  0  0  0  0  0  0
   30.5710   29.9020   33.2690 C   0  0  0  0  0  0  0  0  0  0  0  0
   31.2550   30.6490   34.2100 C   0  0  0  0  0  0  0  0  0  0  0  0
   31.1210   32.0260   34.2810 C   0  0  0  0  0  0  0  0  0  0  0  0
   30.2730   32.6490   33.3730 C   0  0  0  0  0  0  0  0  0  0  0  0
   29.5720   31.9160   32.4140 C   0  0  0  0  0  0  0  0  0  0  0  0
   29.7240   30.5220   32.3610 C   0  0  0  0  0  0  0  0  0  0  0  0
   31.6490   32.6320   35.0120 H   0  0  0  0  0  0  0  0  0  0  0  0
   30.1030   33.7150   33.3490 H   0  0  0  0  0  0  0  0  0  0  0  0
   28.9020   32.3620   31.6900 H   0  0  0  0  0  0  0  0  0  0  0  0
   29.1920   29.9180   31.6270 H   0  0  0  0  0  0  0  0  0  0  0  0
  1  3  1  0  0  0  0
  1  4  1  0  0  0  0
  2  1  1  0  0  0  0
  4  5  1  0  0  0  0
  5 10  1  0  0  0  0
  5  9  1  0  0  0  0
  5  6  1  0  0  0  0
  6 11  1  0  0  0  0
  6 12  1  0  0  0  0
  7 13  1  0  0  0  0
  7  6  1  0  0  0  0
  8 15  1  6  0  0  0
  8  4  1  0  0  0  0
  8  7  1  0  0  0  0
 14  7  1  0  0  0  0
 16 27  1  0  0  0  0
 16  8  1  0  0  0  0
 17 16  2  0  0  0  0
 18 17  1  0  0  0  0
 19 17  1  0  0  0  0
 19 20  2  0  0  0  0
 20 26  1  0  0  0  0
 21 22  2  0  0  0  0
 21 20  1  0  0  0  0
 22 24  1  0  0  0  0
 23 22  1  0  0  0  0
 24 25  2  0  0  0  0
 26 27  2  0  0  0  0
 26 25  1  0  0  0  0
 28 29  2  0  0  0  0
 29  1  1  0  0  0  0
 30 36  1  0  0  0  0
 31 30  1  0  0  0  0
 31 28  1  0  0  0  0
 32 31  2  0  0  0  0
 33 34  2  0  0  0  0
 33 32  1  0  0  0  0
 34 35  1  0  0  0  0
 35 30  2  0  0  0  0
 37 32  1  0  0  0  0
 38 39  1  0  0  0  0
 39 40  1  0  0  0  0
 40 41  2  0  0  0  0
 40 34  1  0  0  0  0
 41 45  1  0  0  0  0
 42 41  1  0  0  0  0
 43 42  2  0  0  0  0
 44 43  1  0  0  0  0
 44 39  2  0  0  0  0
 46 42  1  0  0  0  0
 47 43  1  0  0  0  0
 48 44  1  0  0  0  0
M  END
>  <minimizedAffinity>
-7.04201174

$$$$

 OpenBabel03252501523D

 48 52  0  0  1  0  0  0  0  0999 V2000
   37.2470   26.9240   40.3640 C   0  0  0  0  0  0  0  0  0  0  0  0
   38.2310   27.0860   39.8480 H   0  0  0  0  0  0  0  0  0  0  0  0
   37.2380   25.8520   40.6500 H   0  0  0  0  0  0  0  0  0  0  0  0
   37.1910   27.8380   41.4620 N   0  0  0  0  0  0  0  0  0  0  0  0
   36.3280   27.3870   42.4940 C   0  0  0  0  0  0  0  0  0  0  0  0
   36.9270   27.7990   43.8190 C   0  0  0  0  0  0  0  0  0  0  0  0
   38.3770   27.9580   43.5010 C   0  0  0  0  0  0  0  0  0  0  0  0
   38.4790   28.1470   41.9940 C   0  0  2  0  0  0  0  0  0  0  0  0
   35.3780   27.9940   42.4060 H   0  0  0  0  0  0  0  0  0  0  0  0
   36.0030   26.3440   42.4440 H   0  0  0  0  0  0  0  0  0  0  0  0
   36.8200   26.8950   44.4840 H   0  0  0  0  0  0  0  0  0  0  0  0
   36.4480   28.6560   44.2920 H   0  0  0  0  0  0  0  0  0  0  0  0
   38.7830   28.8270   44.0570 H   0  0  0  0  0  0  0  0  0  0  0  0
   38.9920   27.0780   43.8280 H   0  0  0  0  0  0  0  0  0  0  0  0
   39.2960   27.4920   41.6240 H   0  0  0  0  0  0  0  0  0  0  0  0
   38.8480   29.5890   41.7730 C   0  0  0  0  0  0  0  0  0  0  0  0
   39.9530   30.2660   42.2470 C   0  0  0  0  0  0  0  0  0  0  0  0
   40.6110   29.6530   42.8450 H   0  0  0  0  0  0  0  0  0  0  0  0
   40.1050   31.5850   41.9290 C   0  0  0  0  0  3  0  0  0  0  0  0
   39.1690   32.2400   41.1450 C   0  0  0  0  0  0  0  0  0  0  0  0
   39.3350   33.5470   40.8400 N   0  0  0  0  0  0  0  0  0  0  0  0
   38.4350   34.1970   40.0800 C   0  0  0  0  0  0  0  0  0  0  0  0
   38.5230   35.2580   39.8030 H   0  0  0  0  0  0  0  0  0  0  0  0
   37.3050   33.6070   39.5640 C   0  0  0  0  0  3  0  0  0  0  0  0
   37.1210   32.2610   39.8700 C   0  0  0  0  0  3  0  0  0  0  0  0
   38.0390   31.5820   40.6500 C   0  0  0  0  0  0  0  0  0  0  0  0
   37.9120   30.2400   40.9900 C   0  0  0  0  0  3  0  0  0  0  0  0
   36.0990   28.3590   38.7210 C   0  0  0  0  0  3  0  0  0  0  0  0
   36.1950   27.1780   39.3270 C   0  0  0  0  0  3  0  0  0  0  0  0
   35.4000   28.7580   36.3130 C   0  0  0  0  0  0  0  0  0  0  0  0
   35.0880   28.6520   37.7030 C   0  0  0  0  0  0  0  0  0  0  0  0
   33.7570   28.8360   38.1180 C   0  0  0  0  0  0  0  0  0  0  0  0
   32.8190   29.1080   37.1690 N   0  0  0  0  0  0  0  0  0  0  0  0
   33.1480   29.2010   35.8710 C   0  0  0  0  0  0  0  0  0  0  0  0
   34.4180   29.0260   35.4730 N   0  0  0  0  0  0  0  0  0  0  0  0
   36.4260   28.6120   36.0290 H   0  0  0  0  0  0  0  0  0  0  0  0
   33.5220   28.7560   39.1700 H   0  0  0  0  0  0  0  0  0  0  0  0
   31.8720   27.1940   34.4520 F   0  0  0  0  0  0  0  0  0  0  0  0
   31.4870   28.4740   34.2020 C   0  0  0  0  0  0  0  0  0  0  0  0
   32.1090   29.4930   34.8970 C   0  0  0  0  0  0  0  0  0  0  0  0
   31.7720   30.8220   34.6970 C   0  0  0  0  0  0  0  0  0  0  0  0
   30.7790   31.1120   33.7670 C   0  0  0  0  0  0  0  0  0  0  0  0
   30.1360   30.0990   33.0530 C   0  0  0  0  0  0  0  0  0  0  0  0
   30.4950   28.7610   33.2730 C   0  0  0  0  0  0  0  0  0  0  0  0
   32.2480   31.6380   35.2330 H   0  0  0  0  0  0  0  0  0  0  0  0
   30.4470   32.1140   33.5420 H   0  0  0  0  0  0  0  0  0  0  0  0
   29.3590   30.2820   32.3220 H   0  0  0  0  0  0  0  0  0  0  0  0
   30.0150   27.9460   32.7340 H   0  0  0  0  0  0  0  0  0  0  0  0
  1  3  1  0  0  0  0
  1  4  1  0  0  0  0
  2  1  1  0  0  0  0
  4  8  1  0  0  0  0
  4  5  1  0  0  0  0
  5  6  1  0  0  0  0
  6 12  1  0  0  0  0
  6 11  1  0  0  0  0
  7  6  1  0  0  0  0
  7 14  1  0  0  0  0
  7 13  1  0  0  0  0
  8 15  1  6  0  0  0
  8  7  1  0  0  0  0
  9  5  1  0  0  0  0
 10  5  1  0  0  0  0
 16  8  1  0  0  0  0
 16 17  1  0  0  0  0
 17 18  1  0  0  0  0
 19 17  2  0  0  0  0
 20 19  1  0  0  0  0
 21 20  1  0  0  0  0
 22 21  2  0  0  0  0
 23 22  1  0  0  0  0
 24 25  2  0  0  0  0
 24 22  1  0  0  0  0
 25 26  1  0  0  0  0
 26 27  1  0  0  0  0
 26 20  2  0  0  0  0
 27 16  2  0  0  0  0
 28 29  2  0  0  0  0
 29  1  1  0  0  0  0
 30 31  1  0  0  0  0
 31 32  2  0  0  0  0
 31 28  1  0  0  0  0
 32 37  1  0  0  0  0
 33 32  1  0  0  0  0
 34 33  2  0  0  0  0
 35 34  1  0  0  0  0
 35 30  2  0  0  0  0
 36 30  1  0  0  0  0
 39 38  1  0  0  0  0
 39 40  1  0  0  0  0
 40 34  1  0  0  0  0
 41 40  2  0  0  0  0
 41 45  1  0  0  0  0
 42 41  1  0  0  0  0
 43 44  1  0  0  0  0
 43 42  2  0  0  0  0
 44 39  2  0  0  0  0
 46 42  1  0  0  0  0
 47 43  1  0  0  0  0
 48 44  1  0  0  0  0
M  END
>  <minimizedAffinity>
-6.66845131

$$$$

 OpenBabel03252501523D

 48 52  0  0  1  0  0  0  0  0999 V2000
   33.7370   28.9010   38.8350 C   0  0  0  0  0  0  0  0  0  0  0  0
   33.2980   29.7130   39.4750 H   0  0  0  0  0  0  0  0  0  0  0  0
   33.0860   28.0170   38.9920 H   0  0  0  0  0  0  0  0  0  0  0  0
   33.7660   29.3920   37.4920 N   0  0  0  0  0  0  0  0  0  0  0  0
   35.0260   29.1890   36.8720 C   0  0  0  0  0  0  0  0  0  0  0  0
   34.7840   28.8760   35.4130 C   0  0  0  0  0  0  0  0  0  0  0  0
   33.3840   28.3560   35.4050 C   0  0  0  0  0  0  0  0  0  0  0  0
   32.7220   28.8550   36.6810 C   0  0  2  0  0  0  0  0  0  0  0  0
   35.5490   30.1910   36.8690 H   0  0  0  0  0  0  0  0  0  0  0  0
   35.7190   28.5090   37.3760 H   0  0  0  0  0  0  0  0  0  0  0  0
   35.4700   28.0130   35.1800 H   0  0  0  0  0  0  0  0  0  0  0  0
   34.9890   29.6980   34.7270 H   0  0  0  0  0  0  0  0  0  0  0  0
   32.8620   28.7180   34.4960 H   0  0  0  0  0  0  0  0  0  0  0  0
   33.3380   27.2360   35.3510 H   0  0  0  0  0  0  0  0  0  0  0  0
   32.1800   28.0010   37.1390 H   0  0  0  0  0  0  0  0  0  0  0  0
   31.7360   29.9110   36.2600 C   0  0  0  0  0  0  0  0  0  0  0  0
   31.0880   30.8340   37.0560 C   0  0  0  0  0  0  0  0  0  0  0  0
   31.3460   30.7590   38.1020 H   0  0  0  0  0  0  0  0  0  0  0  0
   30.2220   31.7150   36.4730 C   0  0  0  0  0  3  0  0  0  0  0  0
   29.9920   31.6880   35.1080 C   0  0  0  0  0  0  0  0  0  0  0  0
   29.1320   32.5680   34.5470 N   0  0  0  0  0  0  0  0  0  0  0  0
   28.8980   32.5530   33.2220 C   0  0  0  0  0  0  0  0  0  0  0  0
   28.2090   33.2460   32.7170 H   0  0  0  0  0  0  0  0  0  0  0  0
   29.4960   31.6730   32.3510 C   0  0  0  0  0  3  0  0  0  0  0  0
   30.3850   30.7610   32.9150 C   0  0  0  0  0  3  0  0  0  0  0  0
   30.6330   30.7650   34.2750 C   0  0  0  0  0  0  0  0  0  0  0  0
   31.5090   29.8810   34.8970 C   0  0  0  0  0  3  0  0  0  0  0  0
   35.4020   28.9580   40.6510 C   0  0  0  0  0  3  0  0  0  0  0  0
   35.1000   28.6310   39.3970 C   0  0  0  0  0  3  0  0  0  0  0  0
   37.6210   27.7260   40.7360 C   0  0  0  0  0  0  0  0  0  0  0  0
   36.7200   28.7130   41.2420 C   0  0  0  0  0  0  0  0  0  0  0  0
   37.1070   29.4830   42.3530 C   0  0  0  0  0  0  0  0  0  0  0  0
   38.3330   29.2540   42.8990 N   0  0  0  0  0  0  0  0  0  0  0  0
   39.1550   28.3180   42.3980 C   0  0  0  0  0  0  0  0  0  0  0  0
   38.7870   27.5810   41.3370 N   0  0  0  0  0  0  0  0  0  0  0  0
   37.2950   27.1550   39.8870 H   0  0  0  0  0  0  0  0  0  0  0  0
   36.4240   30.2290   42.7340 H   0  0  0  0  0  0  0  0  0  0  0  0
   39.5930   26.2800   44.2210 F   0  0  0  0  0  0  0  0  0  0  0  0
   40.6470   27.0880   43.9250 C   0  0  0  0  0  0  0  0  0  0  0  0
   40.4530   28.1120   43.0180 C   0  0  0  0  0  0  0  0  0  0  0  0
   41.4780   28.9750   42.6670 C   0  0  0  0  0  0  0  0  0  0  0  0
   42.7230   28.7860   43.2540 C   0  0  0  0  0  0  0  0  0  0  0  0
   42.9440   27.7580   44.1730 C   0  0  0  0  0  0  0  0  0  0  0  0
   41.8890   26.8960   44.5140 C   0  0  0  0  0  0  0  0  0  0  0  0
   41.3470   29.7870   41.9560 H   0  0  0  0  0  0  0  0  0  0  0  0
   43.5820   29.4060   43.0450 H   0  0  0  0  0  0  0  0  0  0  0  0
   43.8970   27.5770   44.6530 H   0  0  0  0  0  0  0  0  0  0  0  0
   42.0250   26.0840   45.2260 H   0  0  0  0  0  0  0  0  0  0  0  0
  1  3  1  0  0  0  0
  1 29  1  0  0  0  0
  1  2  1  0  0  0  0
  4  1  1  0  0  0  0
  5 10  1  0  0  0  0
  5  4  1  0  0  0  0
  6  5  1  0  0  0  0
  7  6  1  0  0  0  0
  7  8  1  0  0  0  0
  8 15  1  1  0  0  0
  8  4  1  0  0  0  0
  9  5  1  0  0  0  0
 11  6  1  0  0  0  0
 12  6  1  0  0  0  0
 13  7  1  0  0  0  0
 14  7  1  0  0  0  0
 16  8  1  0  0  0  0
 16 17  1  0  0  0  0
 17 18  1  0  0  0  0
 19 17  2  0  0  0  0
 20 19  1  0  0  0  0
 21 20  1  0  0  0  0
 22 21  2  0  0  0  0
 23 22  1  0  0  0  0
 24 25  2  0  0  0  0
 24 22  1  0  0  0  0
 25 26  1  0  0  0  0
 26 27  1  0  0  0  0
 26 20  2  0  0  0  0
 27 16  2  0  0  0  0
 28 31  1  0  0  0  0
 29 28  2  0  0  0  0
 30 31  2  0  0  0  0
 30 35  1  0  0  0  0
 31 32  1  0  0  0  0
 32 37  1  0  0  0  0
 32 33  2  0  0  0  0
 34 33  1  0  0  0  0
 34 40  1  0  0  0  0
 35 34  2  0  0  0  0
 36 30  1  0  0  0  0
 39 38  1  0  0  0  0
 39 44  1  0  0  0  0
 40 39  2  0  0  0  0
 41 40  1  0  0  0  0
 41 42  2  0  0  0  0
 42 43  1  0  0  0  0
 43 44  2  0  0  0  0
 43 47  1  0  0  0  0
 44 48  1  0  0  0  0
 45 41  1  0  0  0  0
 46 42  1  0  0  0  0
M  END
>  <minimizedAffinity>
-6.52634048

$$$$

 OpenBabel03252501523D

 48 52  0  0  1  0  0  0  0  0999 V2000
   36.0970   23.7710   37.7930 C   0  0  0  0  0  0  0  0  0  0  0  0
   36.8070   24.0130   36.9580 H   0  0  0  0  0  0  0  0  0  0  0  0
   35.6470   22.7940   37.5240 H   0  0  0  0  0  0  0  0  0  0  0  0
   36.8560   23.7690   39.0050 N   0  0  0  0  0  0  0  0  0  0  0  0
   36.9680   22.4710   39.5670 C   0  0  0  0  0  0  0  0  0  0  0  0
   38.3390   22.3480   40.1910 C   0  0  0  0  0  0  0  0  0  0  0  0
   39.1400   23.3710   39.4570 C   0  0  0  0  0  0  0  0  0  0  0  0
   38.1480   24.3550   38.8530 C   0  0  2  0  0  0  0  0  0  0  0  0
   36.2500   22.4350   40.4390 H   0  0  0  0  0  0  0  0  0  0  0  0
   36.6800   21.6310   38.9280 H   0  0  0  0  0  0  0  0  0  0  0  0
   38.7140   21.3320   39.8790 H   0  0  0  0  0  0  0  0  0  0  0  0
   38.3560   22.4220   41.2790 H   0  0  0  0  0  0  0  0  0  0  0  0
   39.8400   23.8660   40.1590 H   0  0  0  0  0  0  0  0  0  0  0  0
   39.7850   22.9240   38.6550 H   0  0  0  0  0  0  0  0  0  0  0  0
   38.4480   24.5350   37.7990 H   0  0  0  0  0  0  0  0  0  0  0  0
   38.2840   25.6300   39.6410 C   0  0  0  0  0  0  0  0  0  0  0  0
   39.0300   26.7480   39.3270 C   0  0  0  0  0  0  0  0  0  0  0  0
   39.5680   26.6600   38.3940 H   0  0  0  0  0  0  0  0  0  0  0  0
   39.0190   27.8110   40.1840 C   0  0  0  0  0  3  0  0  0  0  0  0
   38.2740   27.7750   41.3520 C   0  0  0  0  0  0  0  0  0  0  0  0
   38.2730   28.8360   42.1890 N   0  0  0  0  0  0  0  0  0  0  0  0
   37.5550   28.8160   43.3270 C   0  0  0  0  0  0  0  0  0  0  0  0
   37.5210   29.6510   44.0410 H   0  0  0  0  0  0  0  0  0  0  0  0
   36.7830   27.7490   43.7230 C   0  0  0  0  0  3  0  0  0  0  0  0
   36.7740   26.6480   42.8690 C   0  0  0  0  0  3  0  0  0  0  0  0
   37.5070   26.6570   41.6970 C   0  0  0  0  0  0  0  0  0  0  0  0
   37.5390   25.5910   40.8050 C   0  0  0  0  0  3  0  0  0  0  0  0
   35.2190   25.9500   37.0450 C   0  0  0  0  0  3  0  0  0  0  0  0
   35.0440   24.8380   37.7560 C   0  0  0  0  0  3  0  0  0  0  0  0
   33.0460   26.9280   36.1680 C   0  0  0  0  0  0  0  0  0  0  0  0
   34.2190   27.0180   36.9800 C   0  0  0  0  0  0  0  0  0  0  0  0
   34.4270   28.1760   37.7480 C   0  0  0  0  0  0  0  0  0  0  0  0
   33.4960   29.1670   37.6850 N   0  0  0  0  0  0  0  0  0  0  0  0
   32.4050   29.0490   36.9120 C   0  0  0  0  0  0  0  0  0  0  0  0
   32.2030   27.9440   36.1770 N   0  0  0  0  0  0  0  0  0  0  0  0
   32.9160   26.0300   35.5930 H   0  0  0  0  0  0  0  0  0  0  0  0
   35.3150   28.2430   38.3610 H   0  0  0  0  0  0  0  0  0  0  0  0
   30.8830   29.7140   39.1270 F   0  0  0  0  0  0  0  0  0  0  0  0
   30.6920   30.4490   37.9980 C   0  0  0  0  0  0  0  0  0  0  0  0
   31.4400   30.1360   36.8790 C   0  0  0  0  0  0  0  0  0  0  0  0
   31.3020   30.8380   35.6930 C   0  0  0  0  0  0  0  0  0  0  0  0
   30.3810   31.8790   35.6520 C   0  0  0  0  0  0  0  0  0  0  0  0
   29.6150   32.2140   36.7700 C   0  0  0  0  0  0  0  0  0  0  0  0
   29.7720   31.4880   37.9610 C   0  0  0  0  0  0  0  0  0  0  0  0
   31.8800   30.6080   34.8020 H   0  0  0  0  0  0  0  0  0  0  0  0
   30.2030   32.4830   34.7760 H   0  0  0  0  0  0  0  0  0  0  0  0
   28.8890   33.0160   36.7800 H   0  0  0  0  0  0  0  0  0  0  0  0
   29.1910   31.7210   38.8510 H   0  0  0  0  0  0  0  0  0  0  0  0
  1  4  1  0  0  0  0
  2  1  1  0  0  0  0
  3  1  1  0  0  0  0
  4  5  1  0  0  0  0
  5  6  1  0  0  0  0
  5  9  1  0  0  0  0
  6 12  1  0  0  0  0
  7 13  1  0  0  0  0
  7  6  1  0  0  0  0
  8 15  1  6  0  0  0
  8  4  1  0  0  0  0
  8  7  1  0  0  0  0
  8 16  1  0  0  0  0
 10  5  1  0  0  0  0
 11  6  1  0  0  0  0
 14  7  1  0  0  0  0
 16 27  1  0  0  0  0
 17 16  2  0  0  0  0
 17 19  1  0  0  0  0
 18 17  1  0  0  0  0
 19 20  2  0  0  0  0
 20 26  1  0  0  0  0
 20 21  1  0  0  0  0
 21 22  2  0  0  0  0
 22 24  1  0  0  0  0
 22 23  1  0  0  0  0
 25 24  2  0  0  0  0
 26 25  1  0  0  0  0
 27 26  2  0  0  0  0
 28 29  2  0  0  0  0
 29  1  1  0  0  0  0
 30 35  2  0  0  0  0
 30 31  1  0  0  0  0
 31 28  1  0  0  0  0
 31 32  2  0  0  0  0
 32 37  1  0  0  0  0
 33 32  1  0  0  0  0
 34 33  2  0  0  0  0
 35 34  1  0  0  0  0
 36 30  1  0  0  0  0
 39 38  1  0  0  0  0
 40 34  1  0  0  0  0
 40 39  2  0  0  0  0
 41 40  1  0  0  0  0
 42 41  2  0  0  0  0
 42 43  1  0  0  0  0
 43 47  1  0  0  0  0
 43 44  2  0  0  0  0
 44 39  1  0  0  0  0
 44 48  1  0  0  0  0
 45 41  1  0  0  0  0
 46 42  1  0  0  0  0
M  END
>  <minimizedAffinity>
-6.43914461

$$$$

 OpenBabel03252501523D

 48 52  0  0  1  0  0  0  0  0999 V2000
   35.6120   23.3990   37.7360 C   0  0  0  0  0  0  0  0  0  0  0  0
   36.4140   23.6350   36.9850 H   0  0  0  0  0  0  0  0  0  0  0  0
   35.1110   22.4860   37.3550 H   0  0  0  0  0  0  0  0  0  0  0  0
   36.2540   23.2460   39.0040 N   0  0  0  0  0  0  0  0  0  0  0  0
   36.5230   21.8860   39.3100 C   0  0  0  0  0  0  0  0  0  0  0  0
   37.8370   21.8250   40.0540 C   0  0  0  0  0  0  0  0  0  0  0  0
   38.5250   23.0810   39.6340 C   0  0  0  0  0  0  0  0  0  0  0  0
   37.4450   24.0230   39.1220 C   0  0  2  0  0  0  0  0  0  0  0  0
   35.7470   21.5680   40.0680 H   0  0  0  0  0  0  0  0  0  0  0  0
   36.4290   21.1690   38.4890 H   0  0  0  0  0  0  0  0  0  0  0  0
   38.3950   20.9600   39.5960 H   0  0  0  0  0  0  0  0  0  0  0  0
   37.7480   21.6690   41.1300 H   0  0  0  0  0  0  0  0  0  0  0  0
   39.0740   23.5080   40.4970 H   0  0  0  0  0  0  0  0  0  0  0  0
   39.3000   22.9070   38.8420 H   0  0  0  0  0  0  0  0  0  0  0  0
   37.8020   24.4620   38.1660 H   0  0  0  0  0  0  0  0  0  0  0  0
   37.3070   25.1100   40.1550 C   0  0  0  0  0  0  0  0  0  0  0  0
   37.1910   24.9710   41.5230 C   0  0  0  0  0  0  0  0  0  0  0  0
   37.2050   23.9440   41.8560 H   0  0  0  0  0  0  0  0  0  0  0  0
   37.0750   26.0950   42.2920 C   0  0  0  0  0  3  0  0  0  0  0  0
   37.0730   27.3540   41.7150 C   0  0  0  0  0  0  0  0  0  0  0  0
   36.9570   28.4550   42.4910 N   0  0  0  0  0  0  0  0  0  0  0  0
   36.9530   29.6850   41.9460 C   0  0  0  0  0  0  0  0  0  0  0  0
   36.8630   30.6120   42.5320 H   0  0  0  0  0  0  0  0  0  0  0  0
   37.0640   29.9210   40.5960 C   0  0  0  0  0  3  0  0  0  0  0  0
   37.1840   28.7950   39.7840 C   0  0  0  0  0  3  0  0  0  0  0  0
   37.1890   27.5270   40.3320 C   0  0  0  0  0  0  0  0  0  0  0  0
   37.3050   26.3650   39.5760 C   0  0  0  0  0  3  0  0  0  0  0  0
   34.8810   25.5990   36.8970 C   0  0  0  0  0  3  0  0  0  0  0  0
   34.6580   24.5540   37.6910 C   0  0  0  0  0  3  0  0  0  0  0  0
   32.7710   26.7320   36.0550 C   0  0  0  0  0  0  0  0  0  0  0  0
   33.9780   26.7480   36.8210 C   0  0  0  0  0  0  0  0  0  0  0  0
   34.3170   27.9130   37.5310 C   0  0  0  0  0  0  0  0  0  0  0  0
   33.4740   28.9800   37.4580 N   0  0  0  0  0  0  0  0  0  0  0  0
   32.3480   28.9300   36.7290 C   0  0  0  0  0  0  0  0  0  0  0  0
   32.0220   27.8190   36.0490 N   0  0  0  0  0  0  0  0  0  0  0  0
   32.5410   25.8270   35.5230 H   0  0  0  0  0  0  0  0  0  0  0  0
   35.2290   27.9240   38.1090 H   0  0  0  0  0  0  0  0  0  0  0  0
   30.8870   29.7480   38.9340 F   0  0  0  0  0  0  0  0  0  0  0  0
   30.7630   30.4840   37.7980 C   0  0  0  0  0  0  0  0  0  0  0  0
   31.4820   30.0960   36.6840 C   0  0  0  0  0  0  0  0  0  0  0  0
   31.4070   30.7960   35.4900 C   0  0  0  0  0  0  0  0  0  0  0  0
   30.5820   31.9130   35.4370 C   0  0  0  0  0  0  0  0  0  0  0  0
   29.8460   32.3250   36.5500 C   0  0  0  0  0  0  0  0  0  0  0  0
   29.9380   31.6000   37.7480 C   0  0  0  0  0  0  0  0  0  0  0  0
   31.9640   30.5080   34.6030 H   0  0  0  0  0  0  0  0  0  0  0  0
   30.4580   32.5220   34.5550 H   0  0  0  0  0  0  0  0  0  0  0  0
   29.1930   33.1880   36.5500 H   0  0  0  0  0  0  0  0  0  0  0  0
   29.3780   31.8920   38.6350 H   0  0  0  0  0  0  0  0  0  0  0  0
  1  4  1  0  0  0  0
  2  1  1  0  0  0  0
  3  1  1  0  0  0  0
  4  8  1  0  0  0  0
  4  5  1  0  0  0  0
  5  6  1  0  0  0  0
  5  9  1  0  0  0  0
  6 12  1  0  0  0  0
  7  6  1  0  0  0  0
  7 13  1  0  0  0  0
  8 15  1  6  0  0  0
  8  7  1  0  0  0  0
  8 16  1  0  0  0  0
 10  5  1  0  0  0  0
 11  6  1  0  0  0  0
 14  7  1  0  0  0  0
 16 17  1  0  0  0  0
 17 18  1  0  0  0  0
 17 19  2  0  0  0  0
 20 19  1  0  0  0  0
 20 21  1  0  0  0  0
 22 21  2  0  0  0  0
 22 23  1  0  0  0  0
 24 22  1  0  0  0  0
 25 26  1  0  0  0  0
 25 24  2  0  0  0  0
 26 20  2  0  0  0  0
 27 16  2  0  0  0  0
 27 26  1  0  0  0  0
 28 29  2  0  0  0  0
 29  1  1  0  0  0  0
 30 31  1  0  0  0  0
 31 28  1  0  0  0  0
 31 32  2  0  0  0  0
 32 37  1  0  0  0  0
 33 32  1  0  0  0  0
 34 33  2  0  0  0  0
 35 30  2  0  0  0  0
 35 34  1  0  0  0  0
 36 30  1  0  0  0  0
 39 38  1  0  0  0  0
 40 34  1  0  0  0  0
 40 39  2  0  0  0  0
 41 40  1  0  0  0  0
 42 41  2  0  0  0  0
 42 43  1  0  0  0  0
 43 44  2  0  0  0  0
 44 39  1  0  0  0  0
 44 48  1  0  0  0  0
 45 41  1  0  0  0  0
 46 42  1  0  0  0  0
 47 43  1  0  0  0  0
M  END
>  <minimizedAffinity>
-6.41057491

$$$$

 OpenBabel03252501523D

 48 52  0  0  1  0  0  0  0  0999 V2000
   35.8720   30.4970   40.9870 C   0  0  0  0  0  0  0  0  0  0  0  0
   35.3200   31.3020   40.4300 H   0  0  0  0  0  0  0  0  0  0  0  0
   35.5000   30.5520   42.0300 H   0  0  0  0  0  0  0  0  0  0  0  0
   35.6020   29.2630   40.3180 N   0  0  0  0  0  0  0  0  0  0  0  0
   34.5360   29.3760   39.3890 C   0  0  0  0  0  0  0  0  0  0  0  0
   34.8520   28.4920   38.2040 C   0  0  0  0  0  0  0  0  0  0  0  0
   36.3380   28.3670   38.2610 C   0  0  0  0  0  0  0  0  0  0  0  0
   36.7540   28.7100   39.6840 C   0  0  2  0  0  0  0  0  0  0  0  0
   33.6340   28.8970   39.8740 H   0  0  0  0  0  0  0  0  0  0  0  0
   34.2140   30.3890   39.1300 H   0  0  0  0  0  0  0  0  0  0  0  0
   34.5950   29.1120   37.2980 H   0  0  0  0  0  0  0  0  0  0  0  0
   34.2970   27.5540   38.1710 H   0  0  0  0  0  0  0  0  0  0  0  0
   36.6320   27.3360   37.9790 H   0  0  0  0  0  0  0  0  0  0  0  0
   36.8580   29.0380   37.5280 H   0  0  0  0  0  0  0  0  0  0  0  0
   37.6210   29.4020   39.6270 H   0  0  0  0  0  0  0  0  0  0  0  0
   37.1830   27.4160   40.3230 C   0  0  0  0  0  0  0  0  0  0  0  0
   36.7150   26.1440   40.0630 C   0  0  0  0  0  0  0  0  0  0  0  0
   35.9500   26.1130   39.3020 H   0  0  0  0  0  0  0  0  0  0  0  0
   37.2410   25.0930   40.7600 C   0  0  0  0  0  3  0  0  0  0  0  0
   38.2250   25.2930   41.7130 C   0  0  0  0  0  0  0  0  0  0  0  0
   38.7350   24.2410   42.3930 N   0  0  0  0  0  0  0  0  0  0  0  0
   39.6920   24.4200   43.3220 C   0  0  0  0  0  0  0  0  0  0  0  0
   40.1390   23.5990   43.9020 H   0  0  0  0  0  0  0  0  0  0  0  0
   40.2180   25.6470   43.6490 C   0  0  0  0  0  3  0  0  0  0  0  0
   39.7030   26.7400   42.9550 C   0  0  0  0  0  3  0  0  0  0  0  0
   38.7200   26.5700   41.9990 C   0  0  0  0  0  0  0  0  0  0  0  0
   38.1660   27.6190   41.2740 C   0  0  0  0  0  3  0  0  0  0  0  0
   37.7190   31.9620   40.2670 C   0  0  0  0  0  3  0  0  0  0  0  0
   37.3180   30.8900   40.9460 C   0  0  0  0  0  3  0  0  0  0  0  0
   40.2010   31.4530   40.0990 C   0  0  0  0  0  0  0  0  0  0  0  0
   39.1200   32.3830   40.1990 C   0  0  0  0  0  0  0  0  0  0  0  0
   39.4080   33.7580   40.2360 C   0  0  0  0  0  0  0  0  0  0  0  0
   40.7110   34.1460   40.1720 N   0  0  0  0  0  0  0  0  0  0  0  0
   41.7020   33.2440   40.0780 C   0  0  0  0  0  0  0  0  0  0  0  0
   41.4300   31.9300   40.0430 N   0  0  0  0  0  0  0  0  0  0  0  0
   39.9480   30.4090   40.0730 H   0  0  0  0  0  0  0  0  0  0  0  0
   38.5900   34.4600   40.3130 H   0  0  0  0  0  0  0  0  0  0  0  0
   43.0890   34.0150   42.3470 F   0  0  0  0  0  0  0  0  0  0  0  0
   43.7490   34.0890   41.1600 C   0  0  0  0  0  0  0  0  0  0  0  0
   43.0770   33.7100   40.0130 C   0  0  0  0  0  0  0  0  0  0  0  0
   43.6820   33.7580   38.7680 C   0  0  0  0  0  0  0  0  0  0  0  0
   44.9970   34.2020   38.6950 C   0  0  0  0  0  0  0  0  0  0  0  0
   45.6960   34.5900   39.8400 C   0  0  0  0  0  0  0  0  0  0  0  0
   45.0620   34.5320   41.0910 C   0  0  0  0  0  0  0  0  0  0  0  0
   43.1720   33.4650   37.8530 H   0  0  0  0  0  0  0  0  0  0  0  0
   45.5520   34.2740   37.7720 H   0  0  0  0  0  0  0  0  0  0  0  0
   46.7200   34.9400   39.8270 H   0  0  0  0  0  0  0  0  0  0  0  0
   45.5770   34.8270   42.0040 H   0  0  0  0  0  0  0  0  0  0  0  0
  1  3  1  0  0  0  0
  2  1  1  0  0  0  0
  4  1  1  0  0  0  0
  5  9  1  0  0  0  0
  5  4  1  0  0  0  0
  6  7  1  0  0  0  0
  6  5  1  0  0  0  0
  7  8  1  0  0  0  0
  8 15  1  6  0  0  0
  8  4  1  0  0  0  0
  8 16  1  0  0  0  0
 10  5  1  0  0  0  0
 11  6  1  0  0  0  0
 12  6  1  0  0  0  0
 13  7  1  0  0  0  0
 14  7  1  0  0  0  0
 16 27  1  0  0  0  0
 17 16  2  0  0  0  0
 17 19  1  0  0  0  0
 18 17  1  0  0  0  0
 19 20  2  0  0  0  0
 20 26  1  0  0  0  0
 20 21  1  0  0  0  0
 21 22  2  0  0  0  0
 22 24  1  0  0  0  0
 22 23  1  0  0  0  0
 25 24  2  0  0  0  0
 26 25  1  0  0  0  0
 27 26  2  0  0  0  0
 28 29  2  0  0  0  0
 29  1  1  0  0  0  0
 30 31  1  0  0  0  0
 31 32  2  0  0  0  0
 31 28  1  0  0  0  0
 32 37  1  0  0  0  0
 33 32  1  0  0  0  0
 34 33  2  0  0  0  0
 35 34  1  0  0  0  0
 35 30  2  0  0  0  0
 36 30  1  0  0  0  0
 39 38  1  0  0  0  0
 40 34  1  0  0  0  0
 40 39  2  0  0  0  0
 41 40  1  0  0  0  0
 42 41  2  0  0  0  0
 42 43  1  0  0  0  0
 43 44  2  0  0  0  0
 44 39  1  0  0  0  0
 44 48  1  0  0  0  0
 45 41  1  0  0  0  0
 46 42  1  0  0  0  0
 47 43  1  0  0  0  0
M  END
>  <minimizedAffinity>
-6.40855265

$$$$

 OpenBabel03252501523D

 48 52  0  0  1  0  0  0  0  0999 V2000
   35.9430   26.1170   37.3050 C   0  0  0  0  0  0  0  0  0  0  0  0
   36.4360   25.5710   36.4560 H   0  0  0  0  0  0  0  0  0  0  0  0
   34.9380   26.3980   36.9300 H   0  0  0  0  0  0  0  0  0  0  0  0
   35.9370   25.2320   38.4270 N   0  0  0  0  0  0  0  0  0  0  0  0
   34.9090   24.2580   38.3400 C   0  0  0  0  0  0  0  0  0  0  0  0
   35.4350   22.9680   38.9270 C   0  0  0  0  0  0  0  0  0  0  0  0
   36.9150   23.1130   38.7950 C   0  0  0  0  0  0  0  0  0  0  0  0
   37.1990   24.6010   38.6440 C   0  0  2  0  0  0  0  0  0  0  0  0
   34.0940   24.5870   39.0500 H   0  0  0  0  0  0  0  0  0  0  0  0
   34.4140   24.1500   37.3700 H   0  0  0  0  0  0  0  0  0  0  0  0
   35.1050   22.1630   38.2100 H   0  0  0  0  0  0  0  0  0  0  0  0
   35.0670   22.7360   39.9270 H   0  0  0  0  0  0  0  0  0  0  0  0
   37.4080   22.6850   39.6900 H   0  0  0  0  0  0  0  0  0  0  0  0
   37.3300   22.5450   37.9220 H   0  0  0  0  0  0  0  0  0  0  0  0
   37.9220   24.7260   37.8110 H   0  0  0  0  0  0  0  0  0  0  0  0
   37.8350   25.0430   39.9350 C   0  0  0  0  0  0  0  0  0  0  0  0
   39.0730   24.6960   40.4350 C   0  0  0  0  0  0  0  0  0  0  0  0
   39.6250   24.0250   39.7930 H   0  0  0  0  0  0  0  0  0  0  0  0
   39.4670   25.2110   41.6370 C   0  0  0  0  0  3  0  0  0  0  0  0
   38.6430   26.0670   42.3490 C   0  0  0  0  0  0  0  0  0  0  0  0
   39.0490   26.5680   43.5370 N   0  0  0  0  0  0  0  0  0  0  0  0
   38.2590   27.3990   44.2400 C   0  0  0  0  0  0  0  0  0  0  0  0
   38.5420   27.8340   45.2100 H   0  0  0  0  0  0  0  0  0  0  0  0
   37.0110   27.8000   43.8240 C   0  0  0  0  0  3  0  0  0  0  0  0
   36.5800   27.2920   42.6000 C   0  0  0  0  0  3  0  0  0  0  0  0
   37.3820   26.4370   41.8690 C   0  0  0  0  0  0  0  0  0  0  0  0
   37.0090   25.8970   40.6430 C   0  0  0  0  0  3  0  0  0  0  0  0
   36.3170   28.3420   38.2980 C   0  0  0  0  0  3  0  0  0  0  0  0
   36.7620   27.3520   37.5270 C   0  0  0  0  0  3  0  0  0  0  0  0
   37.3340   30.5360   37.5230 C   0  0  0  0  0  0  0  0  0  0  0  0
   37.0820   29.5660   38.5420 C   0  0  0  0  0  0  0  0  0  0  0  0
   37.5880   29.7910   39.8340 C   0  0  0  0  0  0  0  0  0  0  0  0
   38.2980   30.9300   40.0590 N   0  0  0  0  0  0  0  0  0  0  0  0
   38.5160   31.8200   39.0770 C   0  0  0  0  0  0  0  0  0  0  0  0
   38.0350   31.6070   37.8420 N   0  0  0  0  0  0  0  0  0  0  0  0
   36.9340   30.3340   36.5460 H   0  0  0  0  0  0  0  0  0  0  0  0
   37.3970   29.0570   40.6040 H   0  0  0  0  0  0  0  0  0  0  0  0
   37.3260   34.0890   40.1270 F   0  0  0  0  0  0  0  0  0  0  0  0
   38.6650   34.1410   39.8910 C   0  0  0  0  0  0  0  0  0  0  0  0
   39.2820   33.0210   39.3680 C   0  0  0  0  0  0  0  0  0  0  0  0
   40.6410   32.9970   39.1010 C   0  0  0  0  0  0  0  0  0  0  0  0
   41.3820   34.1410   39.3750 C   0  0  0  0  0  0  0  0  0  0  0  0
   40.7810   35.2850   39.9050 C   0  0  0  0  0  0  0  0  0  0  0  0
   39.4020   35.2850   40.1670 C   0  0  0  0  0  0  0  0  0  0  0  0
   41.1460   32.1270   38.6890 H   0  0  0  0  0  0  0  0  0  0  0  0
   42.4440   34.2200   39.2020 H   0  0  0  0  0  0  0  0  0  0  0  0
   41.3210   36.1940   40.1330 H   0  0  0  0  0  0  0  0  0  0  0  0
   38.9000   36.1580   40.5800 H   0  0  0  0  0  0  0  0  0  0  0  0
  1 29  1  0  0  0  0
  1  4  1  0  0  0  0
  2  1  1  0  0  0  0
  3  1  1  0  0  0  0
  4  8  1  0  0  0  0
  5  4  1  0  0  0  0
  5  6  1  0  0  0  0
  5  9  1  0  0  0  0
  6 12  1  0  0  0  0
  7  6  1  0  0  0  0
  7 13  1  0  0  0  0
  8 15  1  6  0  0  0
  8  7  1  0  0  0  0
  8 16  1  0  0  0  0
 10  5  1  0  0  0  0
 11  6  1  0  0  0  0
 14  7  1  0  0  0  0
 16 17  2  0  0  0  0
 16 27  1  0  0  0  0
 17 19  1  0  0  0  0
 18 17  1  0  0  0  0
 19 20  2  0  0  0  0
 20 21  1  0  0  0  0
 21 22  2  0  0  0  0
 22 23  1  0  0  0  0
 24 22  1  0  0  0  0
 25 24  2  0  0  0  0
 26 20  1  0  0  0  0
 26 25  1  0  0  0  0
 27 26  2  0  0  0  0
 28 31  1  0  0  0  0
 29 28  2  0  0  0  0
 30 35  2  0  0  0  0
 30 31  1  0  0  0  0
 31 32  2  0  0  0  0
 32 33  1  0  0  0  0
 32 37  1  0  0  0  0
 34 40  1  0  0  0  0
 34 33  2  0  0  0  0
 35 34  1  0  0  0  0
 36 30  1  0  0  0  0
 39 38  1  0  0  0  0
 39 44  1  0  0  0  0
 40 39  2  0  0  0  0
 41 40  1  0  0  0  0
 41 42  2  0  0  0  0
 42 43  1  0  0  0  0
 43 47  1  0  0  0  0
 43 44  2  0  0  0  0
 44 48  1  0  0  0  0
 45 41  1  0  0  0  0
 46 42  1  0  0  0  0
M  END
>  <minimizedAffinity>
-6.32530928

$$$$

 OpenBabel03252501523D

 48 52  0  0  1  0  0  0  0  0999 V2000
   38.0270   29.2270   40.9760 C   0  0  0  0  0  0  0  0  0  0  0  0
   37.9640   30.2370   41.4630 H   0  0  0  0  0  0  0  0  0  0  0  0
   38.9530   29.2510   40.3650 H   0  0  0  0  0  0  0  0  0  0  0  0
   38.0250   28.2540   42.0230 N   0  0  0  0  0  0  0  0  0  0  0  0
   38.0480   28.8490   43.3110 C   0  0  0  0  0  0  0  0  0  0  0  0
   37.2070   27.9980   44.2340 C   0  0  0  0  0  0  0  0  0  0  0  0
   36.2890   27.2850   43.2980 C   0  0  0  0  0  0  0  0  0  0  0  0
   36.9400   27.3320   41.9230 C   0  0  2  0  0  0  0  0  0  0  0  0
   39.1040   28.7370   43.6980 H   0  0  0  0  0  0  0  0  0  0  0  0
   37.8390   29.9210   43.3620 H   0  0  0  0  0  0  0  0  0  0  0  0
   36.5890   28.7300   44.8280 H   0  0  0  0  0  0  0  0  0  0  0  0
   37.7740   27.3650   44.9180 H   0  0  0  0  0  0  0  0  0  0  0  0
   36.1370   26.2450   43.6510 H   0  0  0  0  0  0  0  0  0  0  0  0
   35.2650   27.7410   43.2630 H   0  0  0  0  0  0  0  0  0  0  0  0
   36.1590   27.6220   41.1880 H   0  0  0  0  0  0  0  0  0  0  0  0
   37.4140   25.9340   41.6310 C   0  0  0  0  0  0  0  0  0  0  0  0
   38.5060   25.2790   42.1620 C   0  0  0  0  0  0  0  0  0  0  0  0
   39.0640   25.8730   42.8700 H   0  0  0  0  0  0  0  0  0  0  0  0
   38.7670   23.9990   41.7610 C   0  0  0  0  0  3  0  0  0  0  0  0
   37.9530   23.3640   40.8380 C   0  0  0  0  0  0  0  0  0  0  0  0
   38.2250   22.0960   40.4520 N   0  0  0  0  0  0  0  0  0  0  0  0
   37.4440   21.4660   39.5560 C   0  0  0  0  0  0  0  0  0  0  0  0
   37.6220   20.4370   39.2100 H   0  0  0  0  0  0  0  0  0  0  0  0
   36.3370   22.0370   38.9740 C   0  0  0  0  0  3  0  0  0  0  0  0
   36.0450   23.3430   39.3620 C   0  0  0  0  0  3  0  0  0  0  0  0
   36.8390   24.0010   40.2820 C   0  0  0  0  0  0  0  0  0  0  0  0
   36.6000   25.3020   40.7090 C   0  0  0  0  0  3  0  0  0  0  0  0
   36.9500   29.2850   38.7590 C   0  0  0  0  0  3  0  0  0  0  0  0
   36.8320   29.1330   40.0760 C   0  0  0  0  0  3  0  0  0  0  0  0
   34.4700   29.0000   38.2940 C   0  0  0  0  0  0  0  0  0  0  0  0
   35.8110   29.2020   37.8430 C   0  0  0  0  0  0  0  0  0  0  0  0
   36.0530   29.3250   36.4630 C   0  0  0  0  0  0  0  0  0  0  0  0
   34.9920   29.2480   35.6140 N   0  0  0  0  0  0  0  0  0  0  0  0
   33.7440   29.0580   36.0740 C   0  0  0  0  0  0  0  0  0  0  0  0
   33.5110   28.9390   37.3910 N   0  0  0  0  0  0  0  0  0  0  0  0
   34.3190   28.9090   39.3540 H   0  0  0  0  0  0  0  0  0  0  0  0
   37.0670   29.4770   36.1230 H   0  0  0  0  0  0  0  0  0  0  0  0
   32.9370   26.6520   34.9650 F   0  0  0  0  0  0  0  0  0  0  0  0
   32.2610   27.7700   34.5860 C   0  0  0  0  0  0  0  0  0  0  0  0
   32.6450   28.9820   35.1250 C   0  0  0  0  0  0  0  0  0  0  0  0
   32.0050   30.1630   34.7880 C   0  0  0  0  0  0  0  0  0  0  0  0
   30.9530   30.1020   33.8810 C   0  0  0  0  0  0  0  0  0  0  0  0
   30.5460   28.8880   33.3230 C   0  0  0  0  0  0  0  0  0  0  0  0
   31.2110   27.7050   33.6800 C   0  0  0  0  0  0  0  0  0  0  0  0
   32.2910   31.1280   35.2000 H   0  0  0  0  0  0  0  0  0  0  0  0
   30.3930   30.9660   33.5570 H   0  0  0  0  0  0  0  0  0  0  0  0
   29.7330   28.7970   32.6150 H   0  0  0  0  0  0  0  0  0  0  0  0
   30.9210   26.7410   33.2650 H   0  0  0  0  0  0  0  0  0  0  0  0
  1  2  1  0  0  0  0
  1  4  1  0  0  0  0
  3  1  1  0  0  0  0
  4  5  1  0  0  0  0
  5 10  1  0  0  0  0
  5  9  1  0  0  0  0
  5  6  1  0  0  0  0
  6 11  1  0  0  0  0
  6 12  1  0  0  0  0
  7 13  1  0  0  0  0
  7  6  1  0  0  0  0
  8 15  1  6  0  0  0
  8  4  1  0  0  0  0
  8  7  1  0  0  0  0
 14  7  1  0  0  0  0
 16  8  1  0  0  0  0
 16 17  1  0  0  0  0
 17 18  1  0  0  0  0
 19 17  2  0  0  0  0
 20 19  1  0  0  0  0
 21 20  1  0  0  0  0
 22 21  2  0  0  0  0
 23 22  1  0  0  0  0
 24 25  2  0  0  0  0
 24 22  1  0  0  0  0
 25 26  1  0  0  0  0
 26 27  1  0  0  0  0
 26 20  2  0  0  0  0
 27 16  2  0  0  0  0
 28 29  2  0  0  0  0
 29  1  1  0  0  0  0
 30 36  1  0  0  0  0
 31 30  1  0  0  0  0
 31 28  1  0  0  0  0
 32 31  2  0  0  0  0
 33 34  2  0  0  0  0
 33 32  1  0  0  0  0
 34 35  1  0  0  0  0
 35 30  2  0  0  0  0
 37 32  1  0  0  0  0
 39 38  1  0  0  0  0
 39 40  1  0  0  0  0
 40 34  1  0  0  0  0
 41 40  2  0  0  0  0
 41 45  1  0  0  0  0
 42 41  1  0  0  0  0
 43 44  1  0  0  0  0
 43 42  2  0  0  0  0
 44 39  2  0  0  0  0
 46 42  1  0  0  0  0
 47 43  1  0  0  0  0
 48 44  1  0  0  0  0
M  END
>  <minimizedAffinity>
-6.27224207

$$$$

 OpenBabel03252501523D

 48 52  0  0  1  0  0  0  0  0999 V2000
   36.2070   25.4540   39.0120 C   0  0  0  0  0  0  0  0  0  0  0  0
   36.3380   25.1070   37.9520 H   0  0  0  0  0  0  0  0  0  0  0  0
   35.1140   25.5810   39.1480 H   0  0  0  0  0  0  0  0  0  0  0  0
   36.8040   24.4660   39.8560 N   0  0  0  0  0  0  0  0  0  0  0  0
   36.2470   23.1770   39.6530 C   0  0  0  0  0  0  0  0  0  0  0  0
   37.3530   22.1590   39.8090 C   0  0  0  0  0  0  0  0  0  0  0  0
   38.5860   22.9520   39.5260 C   0  0  0  0  0  0  0  0  0  0  0  0
   38.2250   24.4150   39.7330 C   0  0  2  0  0  0  0  0  0  0  0  0
   35.5540   22.9850   40.5250 H   0  0  0  0  0  0  0  0  0  0  0  0
   35.6250   23.0440   38.7620 H   0  0  0  0  0  0  0  0  0  0  0  0
   37.2090   21.4360   38.9560 H   0  0  0  0  0  0  0  0  0  0  0  0
   37.3440   21.6130   40.7530 H   0  0  0  0  0  0  0  0  0  0  0  0
   39.3990   22.6240   40.2060 H   0  0  0  0  0  0  0  0  0  0  0  0
   38.9790   22.7880   38.4880 H   0  0  0  0  0  0  0  0  0  0  0  0
   38.6310   24.9900   38.8740 H   0  0  0  0  0  0  0  0  0  0  0  0
   38.9150   24.8470   41.0000 C   0  0  0  0  0  0  0  0  0  0  0  0
   38.8260   24.2760   42.2530 C   0  0  0  0  0  0  0  0  0  0  0  0
   38.1730   23.4160   42.2900 H   0  0  0  0  0  0  0  0  0  0  0  0
   39.5390   24.8250   43.2800 C   0  0  0  0  0  3  0  0  0  0  0  0
   40.3400   25.9360   43.0750 C   0  0  0  0  0  0  0  0  0  0  0  0
   41.0400   26.4660   44.1030 N   0  0  0  0  0  0  0  0  0  0  0  0
   41.8220   27.5460   43.9200 C   0  0  0  0  0  0  0  0  0  0  0  0
   42.4110   28.0150   44.7220 H   0  0  0  0  0  0  0  0  0  0  0  0
   41.9730   28.1820   42.7100 C   0  0  0  0  0  3  0  0  0  0  0  0
   41.2580   27.6460   41.6420 C   0  0  0  0  0  3  0  0  0  0  0  0
   40.4510   26.5370   41.8170 C   0  0  0  0  0  0  0  0  0  0  0  0
   39.7130   25.9560   40.7920 C   0  0  0  0  0  3  0  0  0  0  0  0
   36.4750   27.7160   39.9530 C   0  0  0  0  0  3  0  0  0  0  0  0
   36.8840   26.7890   39.0910 C   0  0  0  0  0  3  0  0  0  0  0  0
   36.8290   29.9330   41.1400 C   0  0  0  0  0  0  0  0  0  0  0  0
   37.1050   29.0330   40.0640 C   0  0  0  0  0  0  0  0  0  0  0  0
   38.0160   29.4240   39.0680 C   0  0  0  0  0  0  0  0  0  0  0  0
   38.6010   30.6490   39.1740 N   0  0  0  0  0  0  0  0  0  0  0  0
   38.3190   31.4690   40.1990 C   0  0  0  0  0  0  0  0  0  0  0  0
   37.4480   31.0980   41.1510 N   0  0  0  0  0  0  0  0  0  0  0  0
   36.1280   29.6050   41.8850 H   0  0  0  0  0  0  0  0  0  0  0  0
   38.2230   28.7430   38.2540 H   0  0  0  0  0  0  0  0  0  0  0  0
   36.9190   33.8250   39.7980 F   0  0  0  0  0  0  0  0  0  0  0  0
   38.2500   33.9280   40.0620 C   0  0  0  0  0  0  0  0  0  0  0  0
   38.9690   32.7670   40.2660 C   0  0  0  0  0  0  0  0  0  0  0  0
   40.3270   32.7920   40.5400 C   0  0  0  0  0  0  0  0  0  0  0  0
   40.9590   34.0280   40.6060 C   0  0  0  0  0  0  0  0  0  0  0  0
   40.2520   35.2160   40.4040 C   0  0  0  0  0  0  0  0  0  0  0  0
   38.8770   35.1650   40.1280 C   0  0  0  0  0  0  0  0  0  0  0  0
   40.9120   31.8910   40.7030 H   0  0  0  0  0  0  0  0  0  0  0  0
   42.0110   34.1510   40.8130 H   0  0  0  0  0  0  0  0  0  0  0  0
   40.7060   36.1970   40.4470 H   0  0  0  0  0  0  0  0  0  0  0  0
   38.2950   36.0700   39.9650 H   0  0  0  0  0  0  0  0  0  0  0  0
  1 29  1  0  0  0  0
  1  3  1  0  0  0  0
  1  4  1  0  0  0  0
  2  1  1  0  0  0  0
  5  6  1  0  0  0  0
  5  4  1  0  0  0  0
  5  9  1  0  0  0  0
  6 12  1  0  0  0  0
  7  8  1  0  0  0  0
  7  6  1  0  0  0  0
  7 13  1  0  0  0  0
  8 15  1  6  0  0  0
  8  4  1  0  0  0  0
  8 16  1  0  0  0  0
 10  5  1  0  0  0  0
 11  6  1  0  0  0  0
 14  7  1  0  0  0  0
 16 17  1  0  0  0  0
 17 18  1  0  0  0  0
 17 19  2  0  0  0  0
 20 19  1  0  0  0  0
 20 21  1  0  0  0  0
 22 21  2  0  0  0  0
 22 23  1  0  0  0  0
 24 22  1  0  0  0  0
 25 26  1  0  0  0  0
 25 24  2  0  0  0  0
 26 20  2  0  0  0  0
 27 16  2  0  0  0  0
 27 26  1  0  0  0  0
 28 31  1  0  0  0  0
 29 28  2  0  0  0  0
 30 35  1  0  0  0  0
 30 36  1  0  0  0  0
 31 30  2  0  0  0  0
 32 33  2  0  0  0  0
 32 31  1  0  0  0  0
 33 34  1  0  0  0  0
 34 40  1  0  0  0  0
 34 35  2  0  0  0  0
 37 32  1  0  0  0  0
 38 39  1  0  0  0  0
 39 44  2  0  0  0  0
 39 40  1  0  0  0  0
 40 41  2  0  0  0  0
 41 42  1  0  0  0  0
 41 45  1  0  0  0  0
 42 46  1  0  0  0  0
 43 47  1  0  0  0  0
 43 42  2  0  0  0  0
 44 43  1  0  0  0  0
 48 44  1  0  0  0  0
M  END
>  <minimizedAffinity>
-6.26903868

$$$$
