
     RDKit          3D

 35 38  0  0  0  0  0  0  0  0999 V2000
   44.5563   35.8652   44.5866 C   0  0  0  0  0  0  0  0  0  0  0  0
   45.2133   35.8291   43.3303 C   0  0  0  0  0  0  0  0  0  0  0  0
   46.1505   34.8164   43.1342 C   0  0  0  0  0  0  0  0  0  0  0  0
   46.3782   33.9271   44.1548 N   0  0  0  0  0  0  0  0  0  0  0  0
   45.7330   33.9994   45.3274 C   0  0  0  0  0  0  0  0  0  0  0  0
   44.8263   34.9653   45.5401 N   0  0  0  0  0  0  0  0  0  0  0  0
   44.2892   33.9498   47.6731 F   0  0  0  0  0  0  0  0  0  0  0  0
   45.2725   33.0315   47.5375 C   0  0  0  0  0  0  0  0  0  0  0  0
   46.0135   33.0305   46.3743 C   0  0  0  0  0  0  0  0  0  0  0  0
   47.0105   32.1016   46.2335 C   0  0  0  0  0  0  0  0  0  0  0  0
   47.2682   31.1867   47.2333 C   0  0  0  0  0  0  0  0  0  0  0  0
   46.5426   31.1750   48.3919 C   0  0  0  0  0  0  0  0  0  0  0  0
   45.5168   32.1305   48.5370 C   0  0  0  0  0  0  0  0  0  0  0  0
   43.8362   36.6665   44.6988 H   0  0  0  0  0  0  0  0  0  0  0  0
   45.0417   36.5188   42.5290 H   0  0  0  0  0  0  0  0  0  0  0  0
   46.7234   34.6659   42.2364 H   0  0  0  0  0  0  0  0  0  0  0  0
   47.5864   32.1097   45.3158 H   0  0  0  0  0  0  0  0  0  0  0  0
   48.0600   30.4601   47.1045 H   0  0  0  0  0  0  0  0  0  0  0  0
   46.7565   30.4474   49.1728 H   0  0  0  0  0  0  0  0  0  0  0  0
   44.7777   32.0854   49.7681 C   0  0  0  0  0  0  0  0  0  0  0  0
   43.4187   31.8738   49.8662 C   0  0  0  0  0  0  0  0  0  0  0  0
   42.8931   31.7330   48.9104 H   0  0  0  0  0  0  0  0  0  0  0  0
   42.7521   31.8397   51.0873 C   0  0  0  0  0  0  0  0  0  0  0  0
   43.4787   32.0247   52.2452 C   0  0  0  0  0  0  0  0  0  0  0  0
   42.8567   31.9967   53.4493 N   0  0  0  0  0  0  0  0  0  0  0  0
   43.5838   32.1792   54.5663 C   0  0  0  0  0  0  0  0  0  0  0  0
   43.1006   32.1597   55.5381 H   0  0  0  0  0  0  0  0  0  0  0  0
   44.9575   32.3995   54.5751 C   0  0  0  0  0  0  0  0  0  0  0  0
   45.6024   32.4301   53.3537 C   0  0  0  0  0  0  0  0  0  0  0  0
   44.8448   32.2414   52.2149 C   0  0  0  0  0  0  0  0  0  0  0  0
   45.4599   32.2657   50.9674 C   0  0  0  0  0  0  0  0  0  0  0  0
   41.6841   31.6697   51.1019 H   0  0  0  0  0  0  0  0  0  0  0  0
   45.4727   32.5376   55.5147 H   0  0  0  0  0  0  0  0  0  0  0  0
   46.6706   32.5989   53.3189 H   0  0  0  0  0  0  0  0  0  0  0  0
   46.5181   32.4327   50.9304 H   0  0  0  0  0  0  0  0  0  0  0  0
  1  6  2  0
  2  1  1  0
  3  2  2  0
  3  4  1  0
  4  5  2  0
  5  6  1  0
  5  9  1  0
  8  7  1  0
  8 13  2  0
  9  8  1  0
 10  9  2  0
 10 11  1  0
 11 12  2  0
 12 13  1  0
  1 14  1  0
  2 15  1  0
  3 16  1  0
 10 17  1  0
 11 18  1  0
 12 19  1  0
 20 21  2  0
 21 22  1  0
 21 23  1  0
 23 24  2  0
 24 25  1  0
 25 26  2  0
 26 27  1  0
 26 28  1  0
 28 29  2  0
 29 30  1  0
 30 31  2  0
 31 20  1  0
 30 24  1  0
 23 32  1  0
 28 33  1  0
 29 34  1  0
 31 35  1  0
 13 20  1  0
M  ISO  8  14  14  15  14  16  14  17  14  18  14  19  14  22  16  27  16
M  END
>  <DihAtoms>  (1) 
7,12,19,20

>  <DihDeg>  (1) 
-45.000567083103626

$$$$
