
 OpenBabel03252507223D

 50 54  0  0  1  0  0  0  0  0999 V2000
   47.4900   33.7290   42.8280 C   0  0  0  0  0  0  0  0  0  0  0  0
   48.5730   33.6300   43.4760 O   0  0  0  0  0  0  0  0  0  0  0  0
   47.2400   33.1460   41.5320 N   0  0  0  0  0  0  0  0  0  0  0  0
   46.0950   32.4340   41.0150 C   0  0  0  0  0  0  0  0  0  0  0  0
   45.6830   33.0810   39.6840 C   0  0  0  0  0  0  0  0  0  0  0  0
   46.7740   32.9390   38.6720 C   0  0  0  0  0  0  0  0  0  0  0  0
   48.0550   32.5310   39.3540 C   0  0  0  0  0  0  0  0  0  0  0  0
   48.3370   33.3380   40.6050 C   0  0  2  0  0  0  0  0  0  0  0  0
   46.2500   31.3650   40.8530 H   0  0  0  0  0  0  0  0  0  0  0  0
   45.2010   32.5870   41.6820 H   0  0  0  0  0  0  0  0  0  0  0  0
   44.8090   32.5250   39.3360 H   0  0  0  0  0  0  0  0  0  0  0  0
   45.4570   34.1510   39.9050 H   0  0  0  0  0  0  0  0  0  0  0  0
   46.5330   32.1420   37.9330 H   0  0  0  0  0  0  0  0  0  0  0  0
   46.9310   33.9320   38.1810 H   0  0  0  0  0  0  0  0  0  0  0  0
   48.9170   32.7430   38.6630 H   0  0  0  0  0  0  0  0  0  0  0  0
   48.0700   31.4480   39.5590 H   0  0  0  0  0  0  0  0  0  0  0  0
   48.3410   34.4000   40.3090 H   0  0  0  0  0  0  0  0  0  0  0  0
   46.0410   35.7170   42.8470 C   0  0  0  0  0  0  0  0  0  0  0  0
   46.4230   34.4940   43.4510 C   0  0  0  0  0  0  0  0  0  0  0  0
   45.7800   34.0740   44.5930 C   0  0  0  0  0  0  0  0  0  0  0  0
   44.8010   34.8540   45.0950 N   0  0  0  0  0  0  0  0  0  0  0  0
   44.4240   36.0330   44.5240 C   0  0  0  0  0  0  0  0  0  0  0  0
   45.0540   36.4350   43.4130 N   0  0  0  0  0  0  0  0  0  0  0  0
   46.5510   36.0340   41.9550 H   0  0  0  0  0  0  0  0  0  0  0  0
   43.6380   36.6100   44.9690 H   0  0  0  0  0  0  0  0  0  0  0  0
   46.1890   32.8220   45.1920 C   0  0  0  0  0  0  0  0  0  0  0  0
   45.8770   31.6450   44.5880 C   0  0  0  0  0  0  0  0  0  0  0  0
   46.2810   30.4680   45.1820 C   0  0  0  0  0  0  0  0  0  0  0  0
   46.9940   30.4290   46.3740 C   0  0  0  0  0  0  0  0  0  0  0  0
   47.2830   31.6630   46.9440 C   0  0  0  0  0  0  0  0  0  0  0  0
   46.8770   32.7840   46.3420 N   0  0  0  0  0  0  0  0  0  0  0  0
   45.3340   31.5430   43.6720 H   0  0  0  0  0  0  0  0  0  0  0  0
   46.0760   29.4740   44.7700 H   0  0  0  0  0  0  0  0  0  0  0  0
   47.3230   29.5360   46.8650 H   0  0  0  0  0  0  0  0  0  0  0  0
   47.8350   31.6830   47.8710 H   0  0  0  0  0  0  0  0  0  0  0  0
   49.6790   32.9650   41.0960 C   0  0  0  0  0  0  0  0  0  0  0  0
   50.0290   33.5350   41.9920 H   0  0  0  0  0  0  0  0  0  0  0  0
   50.3370   33.4540   40.3280 H   0  0  0  0  0  0  0  0  0  0  0  0
   50.0530   31.5580   41.1120 C   0  0  0  0  0  0  0  0  0  0  0  0
   50.7480   30.7090   40.2870 C   0  0  0  0  0  0  0  0  0  0  0  0
   51.1210   31.1200   39.3900 H   0  0  0  0  0  0  0  0  0  0  0  0
   51.0090   29.3800   40.4850 C   0  0  0  0  0  3  0  0  0  0  0  0
   50.5630   28.7540   41.6050 C   0  0  0  0  0  0  0  0  0  0  0  0
   50.8130   27.4590   41.8040 N   0  0  0  0  0  0  0  0  0  0  0  0
   50.4050   26.7730   42.8860 C   0  0  0  0  0  0  0  0  0  0  0  0
   50.5920   25.7240   43.0770 H   0  0  0  0  0  0  0  0  0  0  0  0
   49.6900   27.5210   43.7980 C   0  0  0  0  0  3  0  0  0  0  0  0
   49.3960   28.8620   43.6540 C   0  0  0  0  0  3  0  0  0  0  0  0
   49.8590   29.4740   42.5120 C   0  0  0  0  0  0  0  0  0  0  0  0
   49.6320   30.8190   42.2440 C   0  0  0  0  0  3  0  0  0  0  0  0
  1 19  1  0  0  0  0
  1  2  2  0  0  0  0
  3  1  1  0  0  0  0
  4  3  1  0  0  0  0
  4 10  1  0  0  0  0
  5 12  1  0  0  0  0
  5  4  1  0  0  0  0
  6  7  1  0  0  0  0
  6  5  1  0  0  0  0
  7 16  1  0  0  0  0
  7  8  1  0  0  0  0
  8 17  1  6  0  0  0
  8 36  1  0  0  0  0
  8  3  1  0  0  0  0
  9  4  1  0  0  0  0
 11  5  1  0  0  0  0
 13  6  1  0  0  0  0
 14  6  1  0  0  0  0
 15  7  1  0  0  0  0
 18 23  2  0  0  0  0
 18 19  1  0  0  0  0
 19 20  2  0  0  0  0
 20 21  1  0  0  0  0
 20 26  1  0  0  0  0
 22 25  1  0  0  0  0
 22 21  2  0  0  0  0
 23 22  1  0  0  0  0
 24 18  1  0  0  0  0
 26 31  1  0  0  0  0
 27 28  1  0  0  0  0
 27 26  2  0  0  0  0
 28 29  2  0  0  0  0
 29 34  1  0  0  0  0
 29 30  1  0  0  0  0
 30 35  1  0  0  0  0
 31 30  2  0  0  0  0
 32 27  1  0  0  0  0
 33 28  1  0  0  0  0
 36 39  1  0  0  0  0
 36 37  1  0  0  0  0
 38 36  1  0  0  0  0
 39 50  1  0  0  0  0
 40 42  1  0  0  0  0
 40 39  2  0  0  0  0
 41 40  1  0  0  0  0
 42 43  2  0  0  0  0
 43 44  1  0  0  0  0
 43 49  1  0  0  0  0
 44 45  2  0  0  0  0
 45 46  1  0  0  0  0
 45 47  1  0  0  0  0
 48 47  2  0  0  0  0
 49 48  1  0  0  0  0
 50 49  2  0  0  0  0
M  END
>  <minimizedAffinity>
-4.99613905

>  <minimizedRMSD>
0.726056695

$$$$
