
     RDKit          3D

 45 50  0  0  0  0  0  0  0  0999 V2000
   45.4924   34.8313   43.5412 C   0  0  0  0  0  0  0  0  0  0  0  0
   46.2099   33.7517   44.1196 C   0  0  0  0  0  0  0  0  0  0  0  0
   46.0199   33.5177   45.4678 C   0  0  0  0  0  0  0  0  0  0  0  0
   45.1776   34.3105   46.1599 N   0  0  0  0  0  0  0  0  0  0  0  0
   44.5032   35.3361   45.5850 C   0  0  0  0  0  0  0  0  0  0  0  0
   44.6678   35.5834   44.2880 N   0  0  0  0  0  0  0  0  0  0  0  0
   47.0114   32.6989   47.5360 C   0  0  0  0  0  0  0  0  0  0  0  0
   46.6867   32.4448   46.2064 C   0  0  0  0  0  0  0  0  0  0  0  0
   47.0046   31.2328   45.6837 C   0  0  0  0  0  0  0  0  0  0  0  0
   47.6336   30.2354   46.3991 C   0  0  0  0  0  0  0  0  0  0  0  0
   48.0335   28.9864   46.0876 N   0  0  0  0  0  0  0  0  0  0  0  0
   48.6150   28.4460   47.2264 C   0  0  0  0  0  0  0  0  0  0  0  0
   48.5545   29.3823   48.2059 N   0  0  0  0  0  0  0  0  0  0  0  0
   47.9599   30.4735   47.7138 C   0  0  0  0  0  0  0  0  0  0  0  0
   47.6514   31.6927   48.2748 C   0  0  0  0  0  0  0  0  0  0  0  0
   45.6878   35.0642   42.1771 O   0  0  0  0  0  0  0  0  0  0  0  0
   44.6255   34.9179   41.2912 C   0  0  0  0  0  0  0  0  0  0  0  0
   45.0097   33.8184   40.6142 C   0  0  0  0  0  0  0  0  0  0  0  0
   43.5576   33.5963   39.3897 S   0  0  0  0  0  0  0  0  0  0  0  0
   42.7373   35.1265   40.1281 C   0  0  0  0  0  0  0  0  0  0  0  0
   43.4756   35.4041   40.8927 N   0  0  0  0  0  0  0  0  0  0  0  0
   46.8853   33.1133   43.5725 H   0  0  0  0  0  0  0  0  0  0  0  0
   43.8427   35.9376   46.1859 H   0  0  0  0  0  0  0  0  0  0  0  0
   46.7967   33.6334   48.0339 H   0  0  0  0  0  0  0  0  0  0  0  0
   46.7355   31.0703   44.6418 H   0  0  0  0  0  0  0  0  0  0  0  0
   47.9143   28.5353   45.1532 H   0  0  0  0  0  0  0  0  0  0  0  0
   49.0365   27.4461   47.2931 H   0  0  0  0  0  0  0  0  0  0  0  0
   47.8920   31.9083   49.2939 H   0  0  0  0  0  0  0  0  0  0  0  0
   45.6944   32.8687   40.2802 H   0  0  0  0  0  0  0  0  0  0  0  0
   41.4411   35.5312   39.5563 C   0  0  0  0  0  0  0  0  0  0  0  0
   40.7308   36.6174   39.9895 C   0  0  0  0  0  0  0  0  0  0  0  0
   41.1208   37.2267   40.7929 H   0  0  0  0  0  0  0  0  0  0  0  0
   39.5132   36.8798   39.3506 C   0  0  0  0  0  0  0  0  0  0  0  0
   39.0585   36.0568   38.3166 C   0  0  0  0  0  0  0  0  0  0  0  0
   37.8820   36.3508   37.7343 N   0  0  0  0  0  0  0  0  0  0  0  0
   37.3766   35.6033   36.7295 C   0  0  0  0  0  0  0  0  0  0  0  0
   36.4255   35.8765   36.2893 H   0  0  0  0  0  0  0  0  0  0  0  0
   38.1209   34.4967   36.3028 C   0  0  0  0  0  0  0  0  0  0  0  0
   39.3357   34.1855   36.8976 C   0  0  0  0  0  0  0  0  0  0  0  0
   39.8172   34.9748   37.9215 C   0  0  0  0  0  0  0  0  0  0  0  0
   41.0378   34.6908   38.5438 C   0  0  0  0  0  0  0  0  0  0  0  0
   38.9419   37.7275   39.6765 H   0  0  0  0  0  0  0  0  0  0  0  0
   37.7220   33.8930   35.4979 H   0  0  0  0  0  0  0  0  0  0  0  0
   39.8936   33.3335   36.5583 H   0  0  0  0  0  0  0  0  0  0  0  0
   41.5800   33.8447   38.1985 H   0  0  0  0  0  0  0  0  0  0  0  0
  1  2  2  0
  1  6  1  0
  2  3  1  0
  3  4  2  0
  3  8  1  0
  5  4  1  0
  6  5  2  0
  7 15  2  0
  8  7  1  0
  9  8  2  0
  9 10  1  0
 10 14  2  0
 11 10  1  0
 11 12  1  0
 12 13  2  0
 14 13  1  0
 14 15  1  0
 16  1  1  0
 17 16  1  0
 18 17  2  0
 19 20  1  0
 19 18  1  0
 20 21  2  0
 21 17  1  0
  2 22  1  0
  5 23  1  0
  7 24  1  0
  9 25  1  0
 11 26  1  0
 12 27  1  0
 15 28  1  0
 18 29  1  0
 30 31  2  0
 31 32  1  0
 31 33  1  0
 33 34  2  0
 34 35  1  0
 35 36  2  0
 36 37  1  0
 36 38  1  0
 38 39  2  0
 39 40  1  0
 40 41  2  0
 41 30  1  0
 40 34  1  0
 33 42  1  0
 38 43  1  0
 39 44  1  0
 41 45  1  0
 20 30  1  0
M  ISO  8  22  14  23  14  24  14  25  14  26   9  27  14  28  14  29  14
M  ISO  2  32  16  37  16
M  END
>  <DihAtoms>  (1) 
18,19,29,30

>  <DihDeg>  (1) 
-0.0006837733110750516

$$$$
