
 OpenBabel03252505433D

 45 49  0  0  1  0  0  0  0  0999 V2000
   43.1930   34.9170   40.5520 C   0  0  0  0  0  0  0  0  0  0  0  0
   43.2150   35.1130   39.1930 C   0  0  0  0  0  0  0  0  0  0  0  0
   42.0860   35.0910   38.4170 C   0  0  0  0  0  0  0  0  0  0  0  0
   40.9120   34.8660   39.0300 N   0  0  0  0  0  0  0  0  0  0  0  0
   40.8720   34.6700   40.3720 C   0  0  0  0  0  0  0  0  0  0  0  0
   41.9890   34.6950   41.1220 N   0  0  0  0  0  0  0  0  0  0  0  0
   44.1580   35.2940   38.6940 H   0  0  0  0  0  0  0  0  0  0  0  0
   42.1290   35.2510   37.3430 H   0  0  0  0  0  0  0  0  0  0  0  0
   44.2990   34.4660   42.7230 C   0  0  1  0  0  0  0  0  0  0  0  0
   44.5670   35.9860   42.4630 C   0  0  0  0  0  0  0  0  0  0  0  0
   44.4630   34.9210   41.3750 C   0  0  2  0  0  0  0  0  0  0  0  0
   43.2630   34.3270   43.1560 H   0  0  0  0  0  0  0  0  0  0  0  0
   45.6060   36.3140   42.6450 H   0  0  0  0  0  0  0  0  0  0  0  0
   43.7320   36.6750   42.5460 H   0  0  0  0  0  0  0  0  0  0  0  0
   45.3340   34.7810   40.7270 H   0  0  0  0  0  0  0  0  0  0  0  0
   45.3520   33.8010   43.5180 C   0  0  0  0  0  0  0  0  0  0  0  0
   46.5570   33.4780   42.8550 C   0  0  0  0  0  0  0  0  0  0  0  0
   47.5650   32.8550   43.5810 C   0  0  0  0  0  0  0  0  0  0  0  0
   47.3360   32.5890   44.8940 N   0  0  0  0  0  0  0  0  0  0  0  0
   46.1820   32.9100   45.4840 C   0  0  0  0  0  0  0  0  0  0  0  0
   45.2180   33.5100   44.7780 N   0  0  0  0  0  0  0  0  0  0  0  0
   46.6630   33.7190   41.8240 H   0  0  0  0  0  0  0  0  0  0  0  0
   48.5080   32.5950   43.0900 H   0  0  0  0  0  0  0  0  0  0  0  0
   46.1300   32.5360   46.9390 C   0  0  0  0  0  0  0  0  0  0  0  0
   45.1310   33.2320   47.6050 F   0  0  0  0  0  0  0  0  0  0  0  0
   47.3380   32.9310   47.5570 F   0  0  0  0  0  0  0  0  0  0  0  0
   46.0390   31.1780   47.0700 F   0  0  0  0  0  0  0  0  0  0  0  0
   39.6070   34.3990   41.0870 C   0  0  0  0  0  0  0  0  0  0  0  0
   39.2060   35.2680   41.6240 H   0  0  0  0  0  0  0  0  0  0  0  0
   39.7770   33.6040   41.8670 H   0  0  0  0  0  0  0  0  0  0  0  0
   38.5410   33.8890   40.1840 C   0  0  0  0  0  0  0  0  0  0  0  0
   37.5850   34.3730   40.4930 H   0  0  0  0  0  0  0  0  0  0  0  0
   38.7460   34.3480   39.1690 H   0  0  0  0  0  0  0  0  0  0  0  0
   38.3590   32.4510   40.0980 C   0  0  0  0  0  0  0  0  0  0  0  0
   38.5480   31.9340   38.8190 C   0  0  0  0  0  0  0  0  0  0  0  0
   38.8010   32.5520   37.9440 H   0  0  0  0  0  0  0  0  0  0  0  0
   38.4410   30.6030   38.4930 C   0  0  0  0  0  0  0  0  0  0  0  0
   38.1320   29.6900   39.4600 C   0  0  0  0  0  0  0  0  0  0  0  0
   38.0050   28.3710   39.2400 N   0  0  0  0  0  0  0  0  0  0  0  0
   37.6950   27.4870   40.2310 C   0  0  0  0  0  0  0  0  0  0  0  0
   37.5970   26.4330   40.0360 H   0  0  0  0  0  0  0  0  0  0  0  0
   37.5040   27.9680   41.5010 C   0  0  0  0  0  0  0  0  0  0  0  0
   37.6130   29.3120   41.8150 C   0  0  0  0  0  0  0  0  0  0  0  0
   37.9340   30.1450   40.7430 C   0  0  0  0  0  0  0  0  0  0  0  0
   38.0510   31.4860   41.0260 C   0  0  0  0  0  0  0  0  0  0  0  0
  1  6  1  0  0  0  0
  1 11  1  0  0  0  0
  2  1  2  0  0  0  0
  3  4  2  0  0  0  0
  3  2  1  0  0  0  0
  4  5  1  0  0  0  0
  5 28  1  0  0  0  0
  5  6  2  0  0  0  0
  7  2  1  0  0  0  0
  8  3  1  0  0  0  0
  9 12  1  1  0  0  0
  9 16  1  0  0  0  0
 10 14  1  0  0  0  0
 10 13  1  0  0  0  0
 10  9  1  0  0  0  0
 11 15  1  6  0  0  0
 11 10  1  0  0  0  0
 11  9  1  0  0  0  0
 16 21  1  0  0  0  0
 17 16  2  0  0  0  0
 17 18  1  0  0  0  0
 18 19  2  0  0  0  0
 19 20  1  0  0  0  0
 20 24  1  0  0  0  0
 21 20  2  0  0  0  0
 22 17  1  0  0  0  0
 23 18  1  0  0  0  0
 24 27  1  0  0  0  0
 24 26  1  0  0  0  0
 24 25  1  0  0  0  0
 28 29  1  0  0  0  0
 28 30  1  0  0  0  0
 31 32  1  0  0  0  0
 31 28  1  0  0  0  0
 33 31  1  0  0  0  0
 34 31  1  0  0  0  0
 34 45  1  0  0  0  0
 35 34  2  0  0  0  0
 36 35  1  0  0  0  0
 37 35  1  0  0  0  0
 37 38  2  0  0  0  0
 38 44  1  0  0  0  0
 39 38  1  0  0  0  0
 39 40  2  0  0  0  0
 40 42  1  0  0  0  0
 41 40  1  0  0  0  0
 42 43  2  0  0  0  0
 44 45  2  0  0  0  0
 44 43  1  0  0  0  0
M  END
>  <minimizedAffinity>
-6.66864824

>  <minimizedRMSD>
1.84181714

$$$$
