
 OpenBabel03252509243D

 30 33  0  0  1  0  0  0  0  0999 V2000
   47.3770   32.1740   44.4500 C   0  0  1  0  0  0  0  0  0  0  0  0
   47.5360   30.8370   43.6750 C   0  0  0  0  0  0  0  0  0  0  0  0
   46.6780   32.0590   43.2220 C   0  0  2  0  0  0  0  0  0  0  0  0
   48.3440   32.6970   44.5960 H   0  0  0  0  0  0  0  0  0  0  0  0
   48.4370   30.6990   43.0670 H   0  0  0  0  0  0  0  0  0  0  0  0
   47.0070   29.9530   44.0150 H   0  0  0  0  0  0  0  0  0  0  0  0
   45.5820   31.8440   43.2580 H   0  0  0  0  0  0  0  0  0  0  0  0
   47.1350   32.7670   41.9820 C   0  0  0  0  0  0  0  0  0  0  0  0
   47.8820   33.9230   42.1990 C   0  0  0  0  0  0  0  0  0  0  0  0
   48.1140   34.2820   43.1930 H   0  0  0  0  0  0  0  0  0  0  0  0
   48.3460   34.6420   41.1080 C   0  0  0  0  0  3  0  0  0  0  0  0
   48.0640   34.2060   39.8290 C   0  0  0  0  0  0  0  0  0  0  0  0
   48.4990   34.8790   38.7300 N   0  0  0  0  0  0  0  0  0  0  0  0
   48.2120   34.4360   37.4930 C   0  0  0  0  0  0  0  0  0  0  0  0
   48.5720   34.9920   36.6330 H   0  0  0  0  0  0  0  0  0  0  0  0
   47.4760   33.2950   37.2460 C   0  0  0  0  0  3  0  0  0  0  0  0
   47.0470   32.6330   38.3910 C   0  0  0  0  0  3  0  0  0  0  0  0
   47.3170   33.0490   39.6870 C   0  0  0  0  0  0  0  0  0  0  0  0
   46.8270   32.2900   40.7320 C   0  0  0  0  0  3  0  0  0  0  0  0
   45.2800   32.7140   47.5160 C   0  0  0  0  0  0  0  0  0  0  0  0
   46.0280   33.0250   46.3330 C   0  0  0  0  0  0  0  0  0  0  0  0
   46.6290   31.9430   45.7430 C   0  0  0  0  0  0  0  0  0  0  0  0
   46.5180   30.6580   46.2620 N   0  0  0  0  0  0  0  0  0  0  0  0
   45.8060   30.4380   47.3690 C   0  0  0  0  0  0  0  0  0  0  0  0
   45.1850   31.4680   48.0010 N   0  0  0  0  0  0  0  0  0  0  0  0
   44.7880   33.5350   48.0170 H   0  0  0  0  0  0  0  0  0  0  0  0
   45.8150   29.3930   47.6440 H   0  0  0  0  0  0  0  0  0  0  0  0
   46.1580   34.3510   45.8270 N   0  0  0  0  0  0  0  0  0  0  0  0
   45.9110   34.6420   44.8430 H   0  0  0  0  0  0  0  0  0  0  0  0
   46.5340   34.9530   46.6060 H   0  0  0  0  0  0  0  0  0  0  0  0
  1  4  1  1  0  0  0
  1 22  1  0  0  0  0
  2  6  1  0  0  0  0
  2  1  1  0  0  0  0
  3  7  1  1  0  0  0
  3  2  1  0  0  0  0
  3  1  1  0  0  0  0
  5  2  1  0  0  0  0
  8  9  1  0  0  0  0
  8  3  1  0  0  0  0
  9 10  1  0  0  0  0
 11  9  2  0  0  0  0
 12 11  1  0  0  0  0
 13 12  2  0  0  0  0
 14 13  1  0  0  0  0
 15 14  1  0  0  0  0
 16 14  2  0  0  0  0
 16 17  1  0  0  0  0
 17 18  2  0  0  0  0
 18 12  1  0  0  0  0
 18 19  1  0  0  0  0
 19  8  2  0  0  0  0
 20 25  1  0  0  0  0
 20 26  1  0  0  0  0
 21 20  2  0  0  0  0
 22 23  2  0  0  0  0
 22 21  1  0  0  0  0
 23 24  1  0  0  0  0
 24 27  1  0  0  0  0
 24 25  2  0  0  0  0
 28 21  1  0  0  0  0
 28 30  1  0  0  0  0
 29 28  1  0  0  0  0
M  END
>  <minimizedAffinity>
-4.5772748

>  <minimizedRMSD>
3.43988633

$$$$
