
 OpenBabel03252504513D

 37 40  0  0  0  0  0  0  0  0999 V2000
   46.8900   34.5690   42.7830 C   0  0  0  0  0  0  0  0  0  0  0  0
   48.0590   34.1280   42.1420 C   0  0  0  0  0  0  0  0  0  0  0  0
   48.7210   33.0490   42.7100 C   0  0  0  0  0  0  0  0  0  0  0  0
   48.1940   32.5010   43.8400 N   0  0  0  0  0  0  0  0  0  0  0  0
   47.0810   32.9400   44.4290 C   0  0  0  0  0  0  0  0  0  0  0  0
   46.4100   33.9910   43.9000 N   0  0  0  0  0  0  0  0  0  0  0  0
   46.2960   35.3930   42.4340 H   0  0  0  0  0  0  0  0  0  0  0  0
   49.6190   32.6810   42.2510 H   0  0  0  0  0  0  0  0  0  0  0  0
   45.7100   30.2470   43.9890 Cl  0  0  0  0  0  0  0  0  0  0  0  0
   45.9410   31.0720   45.5400 C   0  0  0  0  0  0  0  0  0  0  0  0
   46.5810   32.3010   45.6360 C   0  0  0  0  0  0  0  0  0  0  0  0
   46.7440   32.9130   46.8530 C   0  0  0  0  0  0  0  0  0  0  0  0
   46.2610   32.2900   47.9960 C   0  0  0  0  0  0  0  0  0  0  0  0
   45.6330   31.0720   47.8590 C   0  0  0  0  0  0  0  0  0  0  0  0
   45.0430   30.3290   49.3280 Cl  0  0  0  0  0  0  0  0  0  0  0  0
   45.4510   30.4270   46.6590 C   0  0  0  0  0  0  0  0  0  0  0  0
   47.2440   33.8760   46.9390 H   0  0  0  0  0  0  0  0  0  0  0  0
   46.3830   32.7630   48.9630 H   0  0  0  0  0  0  0  0  0  0  0  0
   44.9460   29.4720   46.6400 H   0  0  0  0  0  0  0  0  0  0  0  0
   48.4870   34.8160   40.9510 C   0  0  0  0  0  0  0  0  0  0  0  0
   49.5670   34.6400   40.7820 H   0  0  0  0  0  0  0  0  0  0  0  0
   48.3720   35.9090   41.0500 H   0  0  0  0  0  0  0  0  0  0  0  0
   47.6360   34.3920   39.7890 C   0  0  0  0  0  0  0  0  0  0  0  0
   46.5730   34.5930   40.0980 H   0  0  0  0  0  0  0  0  0  0  0  0
   47.8130   35.1270   38.9620 H   0  0  0  0  0  0  0  0  0  0  0  0
   47.8250   33.0030   39.3570 C   0  0  0  0  0  0  0  0  0  0  0  0
   46.8390   32.0380   39.3880 C   0  0  0  0  0  0  0  0  0  0  0  0
   45.8540   32.3030   39.7500 H   0  0  0  0  0  0  0  0  0  0  0  0
   47.1720   30.7640   38.9450 C   0  0  0  0  0  3  0  0  0  0  0  0
   48.4610   30.4720   38.4850 C   0  0  0  0  0  0  0  0  0  0  0  0
   48.7810   29.2370   38.0580 N   0  0  0  0  0  0  0  0  0  0  0  0
   50.0120   28.9270   37.6100 C   0  0  0  0  0  0  0  0  0  0  0  0
   50.3300   27.9720   37.2570 H   0  0  0  0  0  0  0  0  0  0  0  0
   50.9850   29.8970   37.5850 C   0  0  0  0  0  3  0  0  0  0  0  0
   50.7240   31.1890   38.0110 C   0  0  0  0  0  3  0  0  0  0  0  0
   49.4300   31.4500   38.4640 C   0  0  0  0  0  0  0  0  0  0  0  0
   49.1160   32.7280   38.9020 C   0  0  0  0  0  3  0  0  0  0  0  0
  1  6  1  0  0  0  0
  2  3  1  0  0  0  0
  2  1  2  0  0  0  0
  3  4  2  0  0  0  0
  4  5  1  0  0  0  0
  5 11  1  0  0  0  0
  6  5  2  0  0  0  0
  7  1  1  0  0  0  0
  8  3  1  0  0  0  0
  9 10  1  0  0  0  0
 10 11  2  0  0  0  0
 10 16  1  0  0  0  0
 11 12  1  0  0  0  0
 12 17  1  0  0  0  0
 12 13  2  0  0  0  0
 13 18  1  0  0  0  0
 14 13  1  0  0  0  0
 14 15  1  0  0  0  0
 16 14  2  0  0  0  0
 19 16  1  0  0  0  0
 20 22  1  0  0  0  0
 20  2  1  0  0  0  0
 21 20  1  0  0  0  0
 23 24  1  0  0  0  0
 23 20  1  0  0  0  0
 25 23  1  0  0  0  0
 26 27  1  0  0  0  0
 26 23  1  0  0  0  0
 27 28  1  0  0  0  0
 29 27  2  0  0  0  0
 30 29  1  0  0  0  0
 31 30  2  0  0  0  0
 32 31  1  0  0  0  0
 33 32  1  0  0  0  0
 34 32  2  0  0  0  0
 34 35  1  0  0  0  0
 35 36  2  0  0  0  0
 36 30  1  0  0  0  0
 36 37  1  0  0  0  0
 37 26  2  0  0  0  0
M  END
>  <minimizedAffinity>
-4.62024736

>  <minimizedRMSD>
1.37445664

$$$$
