
 OpenBabel03242513083D

 44 49  0  0  0  0  0  0  0  0999 V2000
   46.0240   33.2280   41.7020 C   0  0  0  0  0  0  0  0  0  0  0  0
   47.1900   33.9190   41.3820 C   0  0  0  0  0  0  0  0  0  0  0  0
   48.1730   33.9720   42.3610 C   0  0  0  0  0  0  0  0  0  0  0  0
   47.9130   33.3480   43.5480 N   0  0  0  0  0  0  0  0  0  0  0  0
   46.7890   32.6930   43.8330 C   0  0  0  0  0  0  0  0  0  0  0  0
   45.8270   32.6280   42.9020 N   0  0  0  0  0  0  0  0  0  0  0  0
   45.2140   33.1490   40.9770 H   0  0  0  0  0  0  0  0  0  0  0  0
   46.9400   30.7590   45.3300 C   0  0  0  0  0  0  0  0  0  0  0  0
   46.6250   32.0670   45.1290 C   0  0  0  0  0  0  0  0  0  0  0  0
   46.1210   32.9020   46.1610 C   0  0  0  0  0  0  0  0  0  0  0  0
   45.9350   32.3720   47.4370 C   0  0  0  0  0  0  0  0  0  0  0  0
   45.4880   32.8480   48.6330 N   0  0  0  0  0  0  0  0  0  0  0  0
   45.5430   31.8190   49.5250 C   0  0  0  0  0  0  0  0  0  0  0  0
   46.0190   30.7300   48.8750 N   0  0  0  0  0  0  0  0  0  0  0  0
   46.2670   31.0470   47.5900 C   0  0  0  0  0  0  0  0  0  0  0  0
   46.7570   30.2230   46.6040 C   0  0  0  0  0  0  0  0  0  0  0  0
   47.3190   30.1960   44.4870 H   0  0  0  0  0  0  0  0  0  0  0  0
   45.8740   33.9310   45.9990 H   0  0  0  0  0  0  0  0  0  0  0  0
   45.1970   33.8380   48.6820 H   0  0  0  0  0  0  0  0  0  0  0  0
   45.2130   32.0570   50.5300 H   0  0  0  0  0  0  0  0  0  0  0  0
   47.0010   29.1950   46.7710 H   0  0  0  0  0  0  0  0  0  0  0  0
   49.4340   34.6890   42.0860 C   0  0  0  0  0  0  0  0  0  0  0  0
   49.2070   35.7740   41.2180 F   0  0  0  0  0  0  0  0  0  0  0  0
   49.9460   35.2210   43.2440 F   0  0  0  0  0  0  0  0  0  0  0  0
   50.3060   33.7980   41.5090 F   0  0  0  0  0  0  0  0  0  0  0  0
   47.3030   34.4840   40.1710 O   0  0  0  0  0  0  0  0  0  0  0  0
   47.1180   33.7980   38.9870 C   0  0  0  0  0  0  0  0  0  0  0  0
   48.4010   33.7410   38.4130 C   0  0  0  0  0  0  0  0  0  0  0  0
   48.0840   32.8190   36.8490 S   0  0  0  0  0  0  0  0  0  0  0  0
   46.2630   32.6740   37.2540 C   0  0  0  0  0  0  0  0  0  0  0  0
   46.2540   33.2040   38.2240 N   0  0  0  0  0  0  0  0  0  0  0  0
   49.4770   34.0170   38.5190 H   0  0  0  0  0  0  0  0  0  0  0  0
   45.3650   31.9580   36.2820 C   0  0  0  0  0  0  0  0  0  0  0  0
   45.6880   31.8590   34.9670 C   0  0  0  0  0  0  0  0  0  0  0  0
   46.6040   32.2930   34.5810 H   0  0  0  0  0  0  0  0  0  0  0  0
   44.7660   31.1680   34.1730 C   0  0  0  0  0  0  0  0  0  0  0  0
   43.6140   30.6390   34.7420 C   0  0  0  0  0  0  0  0  0  0  0  0
   42.7110   29.9700   33.9980 N   0  0  0  0  0  0  0  0  0  0  0  0
   41.5820   29.4400   34.5020 C   0  0  0  0  0  0  0  0  0  0  0  0
   40.9120   28.9150   33.8160 H   0  0  0  0  0  0  0  0  0  0  0  0
   41.2700   29.5550   35.8620 C   0  0  0  0  0  0  0  0  0  0  0  0
   42.1930   30.2430   36.6370 C   0  0  0  0  0  0  0  0  0  0  0  0
   43.3470   30.7800   36.1020 C   0  0  0  0  0  0  0  0  0  0  0  0
   44.2510   31.4660   36.9200 C   0  0  0  0  0  0  0  0  0  0  0  0
  1  6  1  0  0  0  0
  2  1  2  0  0  0  0
  2  3  1  0  0  0  0
  3  4  2  0  0  0  0
  4  5  1  0  0  0  0
  5  9  1  0  0  0  0
  6  5  2  0  0  0  0
  7  1  1  0  0  0  0
  8 16  1  0  0  0  0
  9  8  2  0  0  0  0
  9 10  1  0  0  0  0
 10 11  2  0  0  0  0
 11 15  1  0  0  0  0
 11 12  1  0  0  0  0
 12 19  1  0  0  0  0
 12 13  1  0  0  0  0
 13 20  1  0  0  0  0
 14 13  2  0  0  0  0
 15 14  1  0  0  0  0
 16 21  1  0  0  0  0
 16 15  2  0  0  0  0
 17  8  1  0  0  0  0
 18 10  1  0  0  0  0
 22  3  1  0  0  0  0
 22 24  1  0  0  0  0
 23 22  1  0  0  0  0
 25 22  1  0  0  0  0
 26  2  1  0  0  0  0
 27 26  1  0  0  0  0
 28 32  1  0  0  0  0
 28 27  2  0  0  0  0
 29 30  1  0  0  0  0
 29 28  1  0  0  0  0
 30 31  2  0  0  0  0
 31 27  1  0  0  0  0
 33 44  1  0  0  0  0
 33 30  1  0  0  0  0
 34 33  2  0  0  0  0
 35 34  1  0  0  0  0
 36 37  2  0  0  0  0
 36 34  1  0  0  0  0
 37 43  1  0  0  0  0
 38 39  2  0  0  0  0
 38 37  1  0  0  0  0
 39 41  1  0  0  0  0
 40 39  1  0  0  0  0
 41 42  2  0  0  0  0
 43 42  1  0  0  0  0
 43 44  2  0  0  0  0
M  END
>  <minimizedAffinity>
-7.1816864

>  <minimizedRMSD>
2.02206421

$$$$
