
     RDKit          3D

 55 58  0  0  0  0  0  0  0  0999 V2000
   47.1636   34.1642   43.0759 N   0  0  0  0  0  0  0  0  0  0  0  0
   46.6468   35.3552   42.5110 C   0  0  0  0  0  0  0  0  0  0  0  0
   45.1579   35.5625   42.7212 C   0  0  0  0  0  0  0  0  0  0  0  0
   44.6390   35.0359   44.0372 C   0  0  0  0  0  0  0  0  0  0  0  0
   45.7581   34.4833   44.9015 C   0  0  0  0  0  0  0  0  0  0  0  0
   46.4304   33.4126   43.9647 C   0  0  2  0  0  0  0  0  0  0  0  0
   48.1607   33.5058   42.2648 C   0  0  0  0  0  0  0  0  0  0  0  0
   47.4631   32.6543   41.2637 C   0  0  0  0  0  0  0  0  0  0  0  0
   49.3331   32.2762   38.0279 C   0  0  0  0  0  0  0  0  0  0  0  0
   48.8155   32.0168   39.3099 C   0  0  0  0  0  0  0  0  0  0  0  0
   48.0042   32.9411   39.9070 C   0  0  0  0  0  0  0  0  0  0  0  0
   47.7424   34.0575   39.2312 N   0  0  0  0  0  0  0  0  0  0  0  0
   48.2254   34.3193   38.0139 C   0  0  0  0  0  0  0  0  0  0  0  0
   49.0322   33.4281   37.3907 N   0  0  0  0  0  0  0  0  0  0  0  0
   47.2210   32.7187   44.8654 O   0  0  0  0  0  0  0  0  0  0  0  0
   46.0463   30.5410   43.8798 O   0  0  0  0  0  0  0  0  0  0  0  0
   46.6971   31.1557   45.1346 P   0  0  2  0  0  0  0  0  0  0  0  0
   45.3940   31.2581   46.2544 O   0  0  0  0  0  0  0  0  0  0  0  0
   47.8427   30.1568   45.7854 O   0  0  0  0  0  0  0  0  0  0  0  0
   47.7286   28.8838   45.2157 C   0  0  0  0  0  0  0  0  0  0  0  0
   47.1399   36.2244   43.0292 H   0  0  0  0  0  0  0  0  0  0  0  0
   46.8266   35.5177   41.4458 H   0  0  0  0  0  0  0  0  0  0  0  0
   44.8968   36.6175   42.5520 H   0  0  0  0  0  0  0  0  0  0  0  0
   44.6440   34.9640   41.9308 H   0  0  0  0  0  0  0  0  0  0  0  0
   44.2079   35.8907   44.5990 H   0  0  0  0  0  0  0  0  0  0  0  0
   43.8673   34.2537   43.9329 H   0  0  0  0  0  0  0  0  0  0  0  0
   45.3137   33.9473   45.7509 H   0  0  0  0  0  0  0  0  0  0  0  0
   46.5075   35.2388   45.1436 H   0  0  0  0  0  0  0  0  0  0  0  0
   45.5851   32.8102   43.5772 H   0  0  0  0  0  0  0  0  0  0  0  0
   48.7297   34.3183   41.7464 H   0  0  0  0  0  0  0  0  0  0  0  0
   48.8543   32.9269   42.8999 H   0  0  0  0  0  0  0  0  0  0  0  0
   46.3722   32.8715   41.2203 H   0  0  0  0  0  0  0  0  0  0  0  0
   47.5499   31.5722   41.4825 H   0  0  0  0  0  0  0  0  0  0  0  0
   49.9714   31.5742   37.5315 H   0  0  0  0  0  0  0  0  0  0  0  0
   49.0979   31.0852   39.7494 H   0  0  0  0  0  0  0  0  0  0  0  0
   47.8879   35.2794   37.6515 H   0  0  0  0  0  0  0  0  0  0  0  0
   45.7911   31.1667   47.1616 H   0  0  0  0  0  0  0  0  0  0  0  0
   46.7471   28.4210   45.3403 H   0  0  0  0  0  0  0  0  0  0  0  0
   47.9607   28.9435   44.1167 H   0  0  0  0  0  0  0  0  0  0  0  0
   48.7963   28.0682   45.8646 C   0  0  0  0  0  0  0  0  0  0  0  0
   48.6701   27.3264   47.0212 C   0  0  0  0  0  0  0  0  0  0  0  0
   47.6962   27.3482   47.4918 H   0  0  0  0  0  0  0  0  0  0  0  0
   49.7470   26.6157   47.5110 C   0  0  0  0  0  0  0  0  0  0  0  0
   50.9411   26.6668   46.8196 C   0  0  0  0  0  0  0  0  0  0  0  0
   52.0141   26.0021   47.2437 N   0  0  0  0  0  0  0  0  0  0  0  0
   53.2023   26.0131   46.6141 C   0  0  0  0  0  0  0  0  0  0  0  0
   54.0840   25.4808   46.9422 H   0  0  0  0  0  0  0  0  0  0  0  0
   53.3752   26.7433   45.4505 C   0  0  0  0  0  0  0  0  0  0  0  0
   52.3045   27.4517   44.9610 C   0  0  0  0  0  0  0  0  0  0  0  0
   51.1174   27.3920   45.6614 C   0  0  0  0  0  0  0  0  0  0  0  0
   50.0177   28.1036   45.1820 C   0  0  0  0  0  0  0  0  0  0  0  0
   49.6350   26.0379   48.4191 H   0  0  0  0  0  0  0  0  0  0  0  0
   54.3079   26.7923   44.8971 H   0  0  0  0  0  0  0  0  0  0  0  0
   52.3773   28.0434   44.0525 H   0  0  0  0  0  0  0  0  0  0  0  0
   50.1664   28.6780   44.2602 H   0  0  0  0  0  0  0  0  0  0  0  0
  1  6  1  0
  2  3  1  0
  2  1  1  0
  3  4  1  0
  4  5  1  0
  6 15  1  0
  6  5  1  0
  7  1  1  0
  8  7  1  0
  9 10  2  0
 10 11  1  0
 11  8  1  0
 12 11  2  0
 13 12  1  0
 14 13  2  0
 14  9  1  0
 17 15  1  6
 17 16  2  0
 17 19  1  0
 17 18  1  0
 20 19  1  0
  2 21  1  0
  2 22  1  0
  3 23  1  0
  3 24  1  0
  4 25  1  0
  4 26  1  0
  5 27  1  0
  5 28  1  0
  6 29  1  6
  7 30  1  0
  7 31  1  0
  8 32  1  0
  8 33  1  0
  9 34  1  0
 10 35  1  0
 13 36  1  0
 18 37  1  0
 20 38  1  0
 20 39  1  0
 40 41  2  0
 41 42  1  0
 41 43  1  0
 43 44  2  0
 44 45  1  0
 45 46  2  0
 46 47  1  0
 46 48  1  0
 48 49  2  0
 49 50  1  0
 50 51  2  0
 51 40  1  0
 50 44  1  0
 43 52  1  0
 48 53  1  0
 49 54  1  0
 51 55  1  0
 20 40  1  0
M  ISO  8  21  13  22  13  23  13  24  13  25  13  26  13  27  13  28  13
M  ISO  8  29  13  30   8  31   8  32   8  33   8  34  14  35  14  36  14
M  ISO  5  37   3  38   8  39   8  42  16  47  16
M  END
>  <DihAtoms>  (1) 
18,19,39,40

>  <DihDeg>  (1) 
-89.99870708645811

$$$$
