REMARK  Name = 
REMARK  4 active torsions:
REMARK  status: ('A' for Active; 'I' for Inactive)
REMARK    1  A    between atoms: C_1  and  O_16
REMARK    2  A    between atoms: C_3  and  C_8
REMARK    3  A    between atoms: O_16  and  C_17
REMARK    4  A    between atoms: C_20  and  C_30
REMARK                            x       y       z     vdW  Elec       q    Type
REMARK                         _______ _______ _______ _____ _____    ______ ____
ROOT
ATOM      1  C   UNL     1      45.492  34.831  43.541  0.00  0.00    +0.000 A 
ATOM      2  C   UNL     1      46.210  33.752  44.120  0.00  0.00    +0.000 A 
ATOM      3  C   UNL     1      46.020  33.518  45.468  0.00  0.00    +0.000 A 
ATOM      4  N   UNL     1      45.178  34.310  46.160  0.00  0.00    +0.000 NA
ATOM      5  C   UNL     1      44.503  35.336  45.585  0.00  0.00    +0.000 A 
ATOM      6  N   UNL     1      44.668  35.583  44.288  0.00  0.00    +0.000 NA
ATOM      7  H   UNL     1      46.885  33.113  43.572  0.00  0.00    +0.000 HD
ATOM      8  H   UNL     1      43.843  35.938  46.186  0.00  0.00    +0.000 HD
ENDROOT
BRANCH   3  10
ATOM      9  C   UNL     1      47.011  32.699  47.536  0.00  0.00    +0.000 A 
ATOM     10  C   UNL     1      46.687  32.445  46.206  0.00  0.00    +0.000 A 
ATOM     11  C   UNL     1      47.005  31.233  45.684  0.00  0.00    +0.000 A 
ATOM     12  C   UNL     1      47.634  30.235  46.399  0.00  0.00    +0.000 A 
ATOM     13  N   UNL     1      48.033  28.986  46.088  0.00  0.00    +0.000 N 
ATOM     14  C   UNL     1      48.615  28.446  47.226  0.00  0.00    +0.000 A 
ATOM     15  N   UNL     1      48.554  29.382  48.206  0.00  0.00    +0.000 NA
ATOM     16  C   UNL     1      47.960  30.474  47.714  0.00  0.00    +0.000 A 
ATOM     17  C   UNL     1      47.651  31.693  48.275  0.00  0.00    +0.000 A 
ATOM     18  H   UNL     1      46.797  33.633  48.034  0.00  0.00    +0.000 HD
ATOM     19  H   UNL     1      46.736  31.070  44.642  0.00  0.00    +0.000 HD
ATOM     20  H   UNL     1      47.914  28.535  45.153  0.00  0.00    +0.000 HD
ATOM     21  H   UNL     1      49.036  27.446  47.293  0.00  0.00    +0.000 HD
ATOM     22  H   UNL     1      47.892  31.908  49.294  0.00  0.00    +0.000 HD
ENDBRANCH   3  10
BRANCH   1  23
ATOM     23  O   UNL     1      45.688  35.064  42.177  0.00  0.00    +0.000 OA
BRANCH  23  24
ATOM     24  C   UNL     1      44.626  34.918  41.291  0.00  0.00    +0.000 A 
ATOM     25  C   UNL     1      45.010  33.818  40.614  0.00  0.00    +0.000 A 
ATOM     26  S   UNL     1      43.558  33.596  39.390  0.00  0.00    +0.000 S 
ATOM     27  C   UNL     1      42.737  35.127  40.128  0.00  0.00    +0.000 A 
ATOM     28  N   UNL     1      43.476  35.404  40.893  0.00  0.00    +0.000 NA
ATOM     29  H   UNL     1      45.694  32.869  40.280  0.00  0.00    +0.000 HD
BRANCH  27  30
ATOM     30  C   UNL     1      41.441  35.531  39.556  0.00  0.00    +0.000 A 
ATOM     31  C   UNL     1      40.593  36.417  40.162  0.00  0.00    +0.000 A 
ATOM     32  H   UNL     1      40.865  36.858  41.111  0.00  0.00    +0.000 HD
ATOM     33  C   UNL     1      39.394  36.707  39.499  0.00  0.00    +0.000 A 
ATOM     34  C   UNL     1      39.093  36.107  38.273  0.00  0.00    +0.000 A 
ATOM     35  N   UNL     1      37.929  36.418  37.676  0.00  0.00    +0.000 NA
ATOM     36  C   UNL     1      37.568  35.880  36.491  0.00  0.00    +0.000 A 
ATOM     37  H   UNL     1      36.621  36.159  36.046  0.00  0.00    +0.000 HD
ATOM     38  C   UNL     1      38.452  34.976  35.891  0.00  0.00    +0.000 A 
ATOM     39  C   UNL     1      39.656  34.649  36.499  0.00  0.00    +0.000 A 
ATOM     40  C   UNL     1      39.987  35.221  37.710  0.00  0.00    +0.000 A 
ATOM     41  C   UNL     1      41.192  34.914  38.351  0.00  0.00    +0.000 A 
ENDBRANCH  27  30
ENDBRANCH  23  24
ENDBRANCH   1  23
TORSDOF 4
