
 OpenBabel03252509083D

 44 48  0  0  0  0  0  0  0  0999 V2000
   47.5500   31.8030   39.1600 C   0  0  0  0  0  0  0  0  0  0  0  0
   47.0760   33.0760   39.0190 C   0  0  0  0  0  0  0  0  0  0  0  0
   47.6630   33.9310   38.1010 C   0  0  0  0  0  0  0  0  0  0  0  0
   48.7190   33.5060   37.3310 C   0  0  0  0  0  0  0  0  0  0  0  0
   49.2340   32.2150   37.4430 C   0  0  0  0  0  0  0  0  0  0  0  0
   48.6230   31.3730   38.3770 C   0  0  0  0  0  0  0  0  0  0  0  0
   47.3040   34.9450   37.9730 H   0  0  0  0  0  0  0  0  0  0  0  0
   49.2300   34.0950   36.6020 H   0  0  0  0  0  0  0  0  0  0  0  0
   50.0460   31.8110   36.8850 H   0  0  0  0  0  0  0  0  0  0  0  0
   49.0020   30.3560   38.4880 H   0  0  0  0  0  0  0  0  0  0  0  0
   45.3170   35.5140   43.2190 Cl  0  0  0  0  0  0  0  0  0  0  0  0
   45.1260   34.7130   41.6810 C   0  0  0  0  0  0  0  0  0  0  0  0
   46.1970   34.2370   40.9940 C   0  0  0  0  0  0  0  0  0  0  0  0
   45.9560   33.6210   39.7790 C   0  0  0  0  0  0  0  0  0  0  0  0
   44.6900   33.4890   39.2700 C   0  0  0  0  0  0  0  0  0  0  0  0
   43.6220   33.9680   39.9650 C   0  0  0  0  0  0  0  0  0  0  0  0
   43.8540   34.5840   41.1810 C   0  0  0  0  0  0  0  0  0  0  0  0
   44.5260   33.0050   38.3160 H   0  0  0  0  0  0  0  0  0  0  0  0
   42.6420   33.8520   39.5480 H   0  0  0  0  0  0  0  0  0  0  0  0
   42.9720   34.9480   41.6960 H   0  0  0  0  0  0  0  0  0  0  0  0
   49.5760   35.6920   41.8940 C   0  0  0  0  0  0  0  0  0  0  0  0
   48.2970   35.5400   41.3480 C   0  0  0  0  0  0  0  0  0  0  0  0
   47.5300   34.4060   41.5550 C   0  0  0  0  0  0  0  0  0  0  0  0
   48.1340   33.4910   42.3160 N   0  0  0  0  0  0  0  0  0  0  0  0
   49.3500   33.6110   42.8490 C   0  0  0  0  0  0  0  0  0  0  0  0
   50.0670   34.7060   42.6390 N   0  0  0  0  0  0  0  0  0  0  0  0
   50.1300   36.5830   41.7080 H   0  0  0  0  0  0  0  0  0  0  0  0
   47.8980   36.3540   40.7360 H   0  0  0  0  0  0  0  0  0  0  0  0
   49.6080   32.7250   43.4270 H   0  0  0  0  0  0  0  0  0  0  0  0
   46.8820   30.7250   40.2700 S   0  0  0  0  0  0  0  0  0  0  0  0
   46.8480   29.3050   39.6670 O   0  0  0  0  0  0  0  0  0  0  0  0
   47.9260   30.6000   41.3970 O   0  0  0  0  0  0  0  0  0  0  0  0
   45.3320   30.8340   40.9660 C   0  0  0  0  0  0  0  0  0  0  0  0
   44.9150   31.2090   42.2370 C   0  0  0  0  0  0  0  0  0  0  0  0
   45.7090   31.4880   42.9120 H   0  0  0  0  0  0  0  0  0  0  0  0
   43.6540   31.2340   42.7480 C   0  0  0  0  0  3  0  0  0  0  0  0
   42.6520   30.8360   41.9040 C   0  0  0  0  0  0  0  0  0  0  0  0
   41.3850   30.8420   42.3620 N   0  0  0  0  0  0  0  0  0  0  0  0
   40.3510   30.4550   41.5620 C   0  0  0  0  0  0  0  0  0  0  0  0
   39.3460   30.4740   41.9680 H   0  0  0  0  0  0  0  0  0  0  0  0
   40.5990   30.0460   40.2520 C   0  0  0  0  0  3  0  0  0  0  0  0
   41.8900   30.0170   39.7180 C   0  0  0  0  0  3  0  0  0  0  0  0
   42.8460   30.4280   40.6180 C   0  0  0  0  0  0  0  0  0  0  0  0
   44.1710   30.4540   40.2320 C   0  0  0  0  0  3  0  0  0  0  0  0
  1 30  1  0  0  0  0
  2  1  1  0  0  0  0
  2 14  1  0  0  0  0
  3  2  2  0  0  0  0
  4  5  2  0  0  0  0
  4  3  1  0  0  0  0
  5  6  1  0  0  0  0
  6 10  1  0  0  0  0
  6  1  2  0  0  0  0
  7  3  1  0  0  0  0
  8  4  1  0  0  0  0
  9  5  1  0  0  0  0
 12 11  1  0  0  0  0
 13 23  1  0  0  0  0
 13 12  2  0  0  0  0
 14 13  1  0  0  0  0
 15 14  2  0  0  0  0
 15 16  1  0  0  0  0
 16 17  2  0  0  0  0
 17 12  1  0  0  0  0
 17 20  1  0  0  0  0
 18 15  1  0  0  0  0
 19 16  1  0  0  0  0
 21 26  1  0  0  0  0
 22 23  1  0  0  0  0
 22 21  2  0  0  0  0
 23 24  2  0  0  0  0
 24 25  1  0  0  0  0
 25 29  1  0  0  0  0
 26 25  2  0  0  0  0
 27 21  1  0  0  0  0
 28 22  1  0  0  0  0
 30 33  1  0  0  0  0
 30 32  2  0  0  0  0
 31 30  2  0  0  0  0
 33 34  1  0  0  0  0
 34 36  2  0  0  0  0
 34 35  1  0  0  0  0
 37 38  1  0  0  0  0
 37 36  1  0  0  0  0
 39 40  1  0  0  0  0
 39 38  2  0  0  0  0
 41 39  1  0  0  0  0
 42 41  2  0  0  0  0
 42 43  1  0  0  0  0
 43 37  2  0  0  0  0
 44 43  1  0  0  0  0
 44 33  2  0  0  0  0
M  END
>  <minimizedAffinity>
-5.18969297

>  <minimizedRMSD>
1.21757472

$$$$
