
     RDKit          3D

 34 37  0  0  0  0  0  0  0  0999 V2000
   45.6237   33.9445   45.4404 C   0  0  0  0  0  0  0  0  0  0  0  0
   44.7137   34.9701   45.6942 C   0  0  0  0  0  0  0  0  0  0  0  0
   44.5206   35.9444   44.6876 C   0  0  0  0  0  0  0  0  0  0  0  0
   45.2354   35.8351   43.5120 N   0  0  0  0  0  0  0  0  0  0  0  0
   46.1037   34.8122   43.3318 C   0  0  0  0  0  0  0  0  0  0  0  0
   46.2879   33.8970   44.2726 N   0  0  0  0  0  0  0  0  0  0  0  0
   46.8344   34.7269   42.0809 C   0  0  0  0  0  0  0  0  0  0  0  0
   48.0093   35.4049   41.8999 C   0  0  0  0  0  0  0  0  0  0  0  0
   48.7749   35.3952   40.7537 C   0  0  0  0  0  0  0  0  0  0  0  0
   48.2513   34.6103   39.7350 C   0  0  0  0  0  0  0  0  0  0  0  0
   47.0649   33.9091   39.8804 C   0  0  0  0  0  0  0  0  0  0  0  0
   46.3590   33.9715   41.0595 N   0  0  0  0  0  0  0  0  0  0  0  0
   44.1593   35.0643   46.5923 H   0  0  0  0  0  0  0  0  0  0  0  0
   43.8367   36.7497   44.8301 H   0  0  0  0  0  0  0  0  0  0  0  0
   48.3605   35.9998   42.7392 H   0  0  0  0  0  0  0  0  0  0  0  0
   49.6876   35.9569   40.6929 H   0  0  0  0  0  0  0  0  0  0  0  0
   48.7968   34.5520   38.8009 H   0  0  0  0  0  0  0  0  0  0  0  0
   46.6907   33.3075   39.0601 H   0  0  0  0  0  0  0  0  0  0  0  0
   45.8607   32.9143   46.4439 C   0  0  0  0  0  0  0  0  0  0  0  0
   45.7629   33.0830   47.7950 C   0  0  0  0  0  0  0  0  0  0  0  0
   45.4879   34.0538   48.1782 H   0  0  0  0  0  0  0  0  0  0  0  0
   46.0050   32.0497   48.6871 C   0  0  0  0  0  0  0  0  0  0  0  0
   46.3588   30.7941   48.2411 C   0  0  0  0  0  0  0  0  0  0  0  0
   46.6033   29.7612   49.0719 N   0  0  0  0  0  0  0  0  0  0  0  0
   46.9500   28.5366   48.5924 C   0  0  0  0  0  0  0  0  0  0  0  0
   47.1519   27.6901   49.2345 H   0  0  0  0  0  0  0  0  0  0  0  0
   47.0654   28.3052   47.2202 C   0  0  0  0  0  0  0  0  0  0  0  0
   46.8217   29.3419   46.3447 C   0  0  0  0  0  0  0  0  0  0  0  0
   46.4690   30.5791   46.8917 C   0  0  0  0  0  0  0  0  0  0  0  0
   46.2176   31.6391   46.0519 C   0  0  0  0  0  0  0  0  0  0  0  0
   45.9190   32.2146   49.7621 H   0  0  0  0  0  0  0  0  0  0  0  0
   47.3368   27.3546   46.7912 H   0  0  0  0  0  0  0  0  0  0  0  0
   46.9039   29.1907   45.2743 H   0  0  0  0  0  0  0  0  0  0  0  0
   46.3117   31.4451   44.9712 H   0  0  0  0  0  0  0  0  0  0  0  0
  1  2  2  0
  3  2  1  0
  4  3  2  0
  5  4  1  0
  5  6  2  0
  6  1  1  0
  7  5  1  0
  8  7  2  0
  9  8  1  0
 10 11  1  0
 10  9  2  0
 11 12  2  0
 12  7  1  0
  2 13  1  0
  3 14  1  0
  8 15  1  0
  9 16  1  0
 10 17  1  0
 11 18  1  0
 19 20  2  0
 20 21  1  0
 20 22  1  0
 22 23  2  0
 23 24  1  0
 24 25  2  0
 25 26  1  0
 25 27  1  0
 27 28  2  0
 28 29  1  0
 29 30  2  0
 30 19  1  0
 29 23  1  0
 22 31  1  0
 27 32  1  0
 28 33  1  0
 30 34  1  0
  1 19  1  0
M  ISO  8  13  14  14  14  15  14  16  14  17  14  18  14  21  16  26  16
M  END
>  <DihAtoms>  (1) 
1,0,18,19

>  <DihDeg>  (1) 
-0.0004183182546326304

$$$$
