
 OpenBabel03242522483D

 44 48  0  0  0  0  0  0  0  0999 V2000
   37.1340   31.3610   40.9640 C   0  0  0  0  0  0  0  0  0  0  0  0
   38.1240   30.3620   41.1390 C   0  0  0  0  0  0  0  0  0  0  0  0
   39.4810   30.6990   40.9210 C   0  0  0  0  0  0  0  0  0  0  0  0
   39.7510   31.9720   40.5500 N   0  0  0  0  0  0  0  0  0  0  0  0
   38.7760   32.9040   40.3910 C   0  0  0  0  0  0  0  0  0  0  0  0
   37.4920   32.5930   40.5970 N   0  0  0  0  0  0  0  0  0  0  0  0
   35.7840   31.0230   41.1820 N   0  0  0  0  0  0  0  0  0  0  0  0
   40.2470   29.9700   41.0440 H   0  0  0  0  0  0  0  0  0  0  0  0
   34.9940   31.5000   40.7060 H   0  0  0  0  0  0  0  0  0  0  0  0
   35.5220   30.2610   41.8480 H   0  0  0  0  0  0  0  0  0  0  0  0
   37.8070   29.0060   41.5300 C   0  0  0  0  0  0  0  0  0  0  0  0
   37.7400   28.4900   42.8220 C   0  0  0  0  0  0  0  0  0  0  0  0
   37.4260   27.1690   43.0520 C   0  0  0  0  0  0  0  0  0  0  0  0
   37.1670   26.3060   41.9950 C   0  0  0  0  0  0  0  0  0  0  0  0
   36.8660   25.0280   42.2830 N   0  0  0  0  0  0  0  0  0  0  0  0
   36.6050   24.1600   41.2510 C   0  0  0  0  0  0  0  0  0  0  0  0
   36.6700   24.6630   39.9750 C   0  0  0  0  0  0  0  0  0  0  0  0
   36.9760   25.9660   39.6510 C   0  0  0  0  0  0  0  0  0  0  0  0
   37.2330   26.8210   40.6980 C   0  0  0  0  0  0  0  0  0  0  0  0
   37.5500   28.1540   40.4730 C   0  0  0  0  0  0  0  0  0  0  0  0
   37.9510   29.2070   43.5990 H   0  0  0  0  0  0  0  0  0  0  0  0
   37.3960   26.8560   44.0860 H   0  0  0  0  0  0  0  0  0  0  0  0
   36.3620   23.1310   41.4800 H   0  0  0  0  0  0  0  0  0  0  0  0
   36.4540   23.9240   39.2130 H   0  0  0  0  0  0  0  0  0  0  0  0
   37.0130   26.3080   38.6300 H   0  0  0  0  0  0  0  0  0  0  0  0
   37.5770   28.4560   39.4380 H   0  0  0  0  0  0  0  0  0  0  0  0
   39.1950   34.2770   39.9670 C   0  0  0  0  0  0  0  0  0  0  0  0
   38.9610   35.0570   40.6860 H   0  0  0  0  0  0  0  0  0  0  0  0
   38.7180   34.4710   38.9850 H   0  0  0  0  0  0  0  0  0  0  0  0
   40.7060   34.2550   39.6400 C   0  0  0  0  0  0  0  0  0  0  0  0
   40.8700   34.7320   38.6540 H   0  0  0  0  0  0  0  0  0  0  0  0
   41.0870   33.2160   39.5720 H   0  0  0  0  0  0  0  0  0  0  0  0
   41.4580   34.9860   40.6930 C   0  0  0  0  0  0  0  0  0  0  0  0
   41.0130   36.2170   41.1090 C   0  0  0  0  0  0  0  0  0  0  0  0
   40.1160   36.6720   40.6810 H   0  0  0  0  0  0  0  0  0  0  0  0
   41.7300   36.8760   42.0890 C   0  0  0  0  0  3  0  0  0  0  0  0
   42.8630   36.3190   42.6380 C   0  0  0  0  0  0  0  0  0  0  0  0
   43.5700   36.9630   43.6000 N   0  0  0  0  0  0  0  0  0  0  0  0
   44.6800   36.4170   44.1400 C   0  0  0  0  0  0  0  0  0  0  0  0
   45.1810   37.0120   44.9080 H   0  0  0  0  0  0  0  0  0  0  0  0
   45.1670   35.1910   43.7600 C   0  0  0  0  0  3  0  0  0  0  0  0
   44.4710   34.4960   42.7740 C   0  0  0  0  0  3  0  0  0  0  0  0
   43.3240   35.0660   42.2210 C   0  0  0  0  0  0  0  0  0  0  0  0
   42.5910   34.4270   41.2420 C   0  0  0  0  0  3  0  0  0  0  0  0
  1  2  1  0  0  0  0
  1  7  1  0  0  0  0
  2 11  1  0  0  0  0
  3  8  1  0  0  0  0
  3  2  2  0  0  0  0
  4  3  1  0  0  0  0
  5  4  2  0  0  0  0
  5  6  1  0  0  0  0
  6  1  2  0  0  0  0
  7 10  1  0  0  0  0
  9  7  1  0  0  0  0
 11 12  1  0  0  0  0
 12 13  2  0  0  0  0
 12 21  1  0  0  0  0
 13 22  1  0  0  0  0
 14 15  1  0  0  0  0
 14 13  1  0  0  0  0
 16 23  1  0  0  0  0
 16 15  2  0  0  0  0
 17 16  1  0  0  0  0
 18 17  2  0  0  0  0
 18 19  1  0  0  0  0
 19 14  2  0  0  0  0
 20 19  1  0  0  0  0
 20 11  2  0  0  0  0
 24 17  1  0  0  0  0
 25 18  1  0  0  0  0
 26 20  1  0  0  0  0
 27  5  1  0  0  0  0
 27 28  1  0  0  0  0
 29 27  1  0  0  0  0
 30 27  1  0  0  0  0
 30 33  1  0  0  0  0
 31 30  1  0  0  0  0
 32 30  1  0  0  0  0
 33 34  2  0  0  0  0
 33 44  1  0  0  0  0
 34 36  1  0  0  0  0
 35 34  1  0  0  0  0
 36 37  2  0  0  0  0
 37 38  1  0  0  0  0
 38 39  2  0  0  0  0
 39 40  1  0  0  0  0
 41 39  1  0  0  0  0
 42 41  2  0  0  0  0
 43 37  1  0  0  0  0
 43 42  1  0  0  0  0
 44 43  2  0  0  0  0
M  END
>  <minimizedAffinity>
-8.44400311

$$$$

 OpenBabel03242522483D

 44 48  0  0  0  0  0  0  0  0999 V2000
   36.9940   31.3410   40.5580 C   0  0  0  0  0  0  0  0  0  0  0  0
   37.7920   30.3460   39.9420 C   0  0  0  0  0  0  0  0  0  0  0  0
   39.0330   30.7190   39.3730 C   0  0  0  0  0  0  0  0  0  0  0  0
   39.3830   32.0230   39.4530 N   0  0  0  0  0  0  0  0  0  0  0  0
   38.5930   32.9520   40.0520 C   0  0  0  0  0  0  0  0  0  0  0  0
   37.4200   32.6060   40.5920 N   0  0  0  0  0  0  0  0  0  0  0  0
   35.7600   30.9660   41.1230 N   0  0  0  0  0  0  0  0  0  0  0  0
   39.6540   29.9930   38.9020 H   0  0  0  0  0  0  0  0  0  0  0  0
   34.9530   31.6160   41.2090 H   0  0  0  0  0  0  0  0  0  0  0  0
   35.6070   29.9990   41.4860 H   0  0  0  0  0  0  0  0  0  0  0  0
   37.3910   28.9580   39.8640 C   0  0  0  0  0  0  0  0  0  0  0  0
   36.8060   28.3040   38.7840 C   0  0  0  0  0  0  0  0  0  0  0  0
   36.4710   26.9700   38.8480 C   0  0  0  0  0  0  0  0  0  0  0  0
   36.7090   26.2320   40.0010 C   0  0  0  0  0  0  0  0  0  0  0  0
   36.3610   24.9330   40.0020 N   0  0  0  0  0  0  0  0  0  0  0  0
   36.5900   24.1880   41.1330 C   0  0  0  0  0  0  0  0  0  0  0  0
   37.1670   24.8270   42.2020 C   0  0  0  0  0  0  0  0  0  0  0  0
   37.5330   26.1540   42.2280 C   0  0  0  0  0  0  0  0  0  0  0  0
   37.2970   26.8860   41.0870 C   0  0  0  0  0  0  0  0  0  0  0  0
   37.6310   28.2310   41.0150 C   0  0  0  0  0  0  0  0  0  0  0  0
   36.6460   28.9280   37.9200 H   0  0  0  0  0  0  0  0  0  0  0  0
   36.0220   26.5440   37.9620 H   0  0  0  0  0  0  0  0  0  0  0  0
   36.3110   23.1430   41.1360 H   0  0  0  0  0  0  0  0  0  0  0  0
   37.3170   24.1800   43.0570 H   0  0  0  0  0  0  0  0  0  0  0  0
   37.9840   26.6070   43.0960 H   0  0  0  0  0  0  0  0  0  0  0  0
   38.0790   28.6450   41.9050 H   0  0  0  0  0  0  0  0  0  0  0  0
   39.0800   34.3670   40.0680 C   0  0  0  0  0  0  0  0  0  0  0  0
   38.9470   34.8740   41.0200 H   0  0  0  0  0  0  0  0  0  0  0  0
   38.5580   34.8980   39.2470 H   0  0  0  0  0  0  0  0  0  0  0  0
   40.5620   34.3860   39.6300 C   0  0  0  0  0  0  0  0  0  0  0  0
   40.6510   34.9430   38.6760 H   0  0  0  0  0  0  0  0  0  0  0  0
   40.9410   33.3600   39.4490 H   0  0  0  0  0  0  0  0  0  0  0  0
   41.3890   35.0360   40.6800 C   0  0  0  0  0  0  0  0  0  0  0  0
   41.0280   36.2750   41.1520 C   0  0  0  0  0  0  0  0  0  0  0  0
   40.1460   36.7940   40.7700 H   0  0  0  0  0  0  0  0  0  0  0  0
   41.8130   36.8570   42.1280 C   0  0  0  0  0  3  0  0  0  0  0  0
   42.9300   36.2180   42.6200 C   0  0  0  0  0  0  0  0  0  0  0  0
   43.7030   36.7870   43.5780 N   0  0  0  0  0  0  0  0  0  0  0  0
   44.7970   36.1610   44.0610 C   0  0  0  0  0  0  0  0  0  0  0  0
   45.3560   36.6990   44.8310 H   0  0  0  0  0  0  0  0  0  0  0  0
   45.2000   34.9240   43.6240 C   0  0  0  0  0  3  0  0  0  0  0  0
   44.4340   34.3040   42.6390 C   0  0  0  0  0  3  0  0  0  0  0  0
   43.3040   34.9570   42.1460 C   0  0  0  0  0  0  0  0  0  0  0  0
   42.5040   34.3950   41.1710 C   0  0  0  0  0  3  0  0  0  0  0  0
  1  6  1  0  0  0  0
  1  7  1  0  0  0  0
  2  1  2  0  0  0  0
  3  4  2  0  0  0  0
  3  2  1  0  0  0  0
  4  5  1  0  0  0  0
  5 27  1  0  0  0  0
  5  6  2  0  0  0  0
  7  9  1  0  0  0  0
  7 10  1  0  0  0  0
  8  3  1  0  0  0  0
 11  2  1  0  0  0  0
 11 20  1  0  0  0  0
 12 13  1  0  0  0  0
 12 11  2  0  0  0  0
 13 14  2  0  0  0  0
 14 15  1  0  0  0  0
 14 19  1  0  0  0  0
 15 16  2  0  0  0  0
 16 23  1  0  0  0  0
 16 17  1  0  0  0  0
 17 18  2  0  0  0  0
 17 24  1  0  0  0  0
 18 25  1  0  0  0  0
 19 18  1  0  0  0  0
 20 19  2  0  0  0  0
 20 26  1  0  0  0  0
 21 12  1  0  0  0  0
 22 13  1  0  0  0  0
 27 28  1  0  0  0  0
 29 27  1  0  0  0  0
 30 27  1  0  0  0  0
 30 33  1  0  0  0  0
 31 30  1  0  0  0  0
 32 30  1  0  0  0  0
 33 34  2  0  0  0  0
 33 44  1  0  0  0  0
 34 36  1  0  0  0  0
 35 34  1  0  0  0  0
 36 37  2  0  0  0  0
 37 38  1  0  0  0  0
 38 39  2  0  0  0  0
 39 40  1  0  0  0  0
 41 39  1  0  0  0  0
 42 41  2  0  0  0  0
 43 37  1  0  0  0  0
 43 42  1  0  0  0  0
 44 43  2  0  0  0  0
M  END
>  <minimizedAffinity>
-8.18112373

$$$$

 OpenBabel03242522483D

 44 48  0  0  0  0  0  0  0  0999 V2000
   38.3520   33.0950   40.2170 C   0  0  0  0  0  0  0  0  0  0  0  0
   39.1240   31.9160   40.3590 C   0  0  0  0  0  0  0  0  0  0  0  0
   40.5340   32.0070   40.2710 C   0  0  0  0  0  0  0  0  0  0  0  0
   41.0630   33.2330   40.0530 N   0  0  0  0  0  0  0  0  0  0  0  0
   40.2910   34.3430   39.9220 C   0  0  0  0  0  0  0  0  0  0  0  0
   38.9590   34.2650   40.0050 N   0  0  0  0  0  0  0  0  0  0  0  0
   36.9490   33.0010   40.3050 N   0  0  0  0  0  0  0  0  0  0  0  0
   41.1410   31.1380   40.3730 H   0  0  0  0  0  0  0  0  0  0  0  0
   36.3040   33.6590   39.8260 H   0  0  0  0  0  0  0  0  0  0  0  0
   36.4950   32.2470   40.8690 H   0  0  0  0  0  0  0  0  0  0  0  0
   38.5330   30.6150   40.5860 C   0  0  0  0  0  0  0  0  0  0  0  0
   38.1040   29.7000   39.6290 C   0  0  0  0  0  0  0  0  0  0  0  0
   37.5540   28.4900   39.9880 C   0  0  0  0  0  0  0  0  0  0  0  0
   37.4110   28.1440   41.3250 C   0  0  0  0  0  0  0  0  0  0  0  0
   36.8670   26.9470   41.6120 N   0  0  0  0  0  0  0  0  0  0  0  0
   36.7190   26.5880   42.9300 C   0  0  0  0  0  0  0  0  0  0  0  0
   37.1400   27.4850   43.8790 C   0  0  0  0  0  0  0  0  0  0  0  0
   37.6990   28.7160   43.6130 C   0  0  0  0  0  0  0  0  0  0  0  0
   37.8410   29.0600   42.2880 C   0  0  0  0  0  0  0  0  0  0  0  0
   38.3940   30.2780   41.9190 C   0  0  0  0  0  0  0  0  0  0  0  0
   38.2410   30.0260   38.6100 H   0  0  0  0  0  0  0  0  0  0  0  0
   37.2490   27.8420   39.1780 H   0  0  0  0  0  0  0  0  0  0  0  0
   36.2820   25.6260   43.1630 H   0  0  0  0  0  0  0  0  0  0  0  0
   36.9920   27.1370   44.8930 H   0  0  0  0  0  0  0  0  0  0  0  0
   38.0140   29.3830   44.3990 H   0  0  0  0  0  0  0  0  0  0  0  0
   38.6950   30.9170   42.7350 H   0  0  0  0  0  0  0  0  0  0  0  0
   40.9890   35.6440   39.6710 C   0  0  0  0  0  0  0  0  0  0  0  0
   40.6260   36.1830   38.8000 H   0  0  0  0  0  0  0  0  0  0  0  0
   42.0720   35.4190   39.5890 H   0  0  0  0  0  0  0  0  0  0  0  0
   40.8920   36.5130   40.9450 C   0  0  0  0  0  0  0  0  0  0  0  0
   39.9670   36.2470   41.4950 H   0  0  0  0  0  0  0  0  0  0  0  0
   40.8280   37.5900   40.6930 H   0  0  0  0  0  0  0  0  0  0  0  0
   42.0810   36.2790   41.8050 C   0  0  0  0  0  0  0  0  0  0  0  0
   42.2090   36.9740   42.9830 C   0  0  0  0  0  0  0  0  0  0  0  0
   41.4550   37.6960   43.3020 H   0  0  0  0  0  0  0  0  0  0  0  0
   43.3240   36.7370   43.7640 C   0  0  0  0  0  3  0  0  0  0  0  0
   44.2860   35.8310   43.3770 C   0  0  0  0  0  0  0  0  0  0  0  0
   45.3820   35.5960   44.1410 N   0  0  0  0  0  0  0  0  0  0  0  0
   46.3240   34.7070   43.7630 C   0  0  0  0  0  0  0  0  0  0  0  0
   47.1710   34.5880   44.4450 H   0  0  0  0  0  0  0  0  0  0  0  0
   46.2440   33.9890   42.5970 C   0  0  0  0  0  3  0  0  0  0  0  0
   45.1340   34.1990   41.7820 C   0  0  0  0  0  3  0  0  0  0  0  0
   44.1640   35.1190   42.1800 C   0  0  0  0  0  0  0  0  0  0  0  0
   43.0410   35.3720   41.4170 C   0  0  0  0  0  3  0  0  0  0  0  0
  1  7  1  0  0  0  0
  1  2  1  0  0  0  0
  2 11  1  0  0  0  0
  3  2  2  0  0  0  0
  3  8  1  0  0  0  0
  4  3  1  0  0  0  0
  5  6  1  0  0  0  0
  5  4  2  0  0  0  0
  6  1  2  0  0  0  0
  7 10  1  0  0  0  0
  9  7  1  0  0  0  0
 11 20  1  0  0  0  0
 12 13  1  0  0  0  0
 12 11  2  0  0  0  0
 13 14  2  0  0  0  0
 14 15  1  0  0  0  0
 14 19  1  0  0  0  0
 15 16  2  0  0  0  0
 16 23  1  0  0  0  0
 16 17  1  0  0  0  0
 17 24  1  0  0  0  0
 18 17  2  0  0  0  0
 18 25  1  0  0  0  0
 19 18  1  0  0  0  0
 20 19  2  0  0  0  0
 20 26  1  0  0  0  0
 21 12  1  0  0  0  0
 22 13  1  0  0  0  0
 27  5  1  0  0  0  0
 27 30  1  0  0  0  0
 28 27  1  0  0  0  0
 29 27  1  0  0  0  0
 30 31  1  0  0  0  0
 30 33  1  0  0  0  0
 32 30  1  0  0  0  0
 33 34  1  0  0  0  0
 34 35  1  0  0  0  0
 34 36  2  0  0  0  0
 37 36  1  0  0  0  0
 37 38  1  0  0  0  0
 39 38  2  0  0  0  0
 39 40  1  0  0  0  0
 41 39  1  0  0  0  0
 42 43  1  0  0  0  0
 42 41  2  0  0  0  0
 43 37  2  0  0  0  0
 44 33  2  0  0  0  0
 44 43  1  0  0  0  0
M  END
>  <minimizedAffinity>
-8.05383778

$$$$

 OpenBabel03242522483D

 44 48  0  0  0  0  0  0  0  0999 V2000
   42.1640   32.9510   38.8560 C   0  0  0  0  0  0  0  0  0  0  0  0
   41.9880   33.6640   40.0670 C   0  0  0  0  0  0  0  0  0  0  0  0
   40.6920   33.7460   40.6310 C   0  0  0  0  0  0  0  0  0  0  0  0
   39.6880   33.1300   39.9660 N   0  0  0  0  0  0  0  0  0  0  0  0
   39.8930   32.4550   38.8060 C   0  0  0  0  0  0  0  0  0  0  0  0
   41.1140   32.3730   38.2680 N   0  0  0  0  0  0  0  0  0  0  0  0
   43.4540   32.8720   38.2980 N   0  0  0  0  0  0  0  0  0  0  0  0
   40.5290   34.2760   41.5410 H   0  0  0  0  0  0  0  0  0  0  0  0
   43.6270   32.7620   37.2790 H   0  0  0  0  0  0  0  0  0  0  0  0
   44.3050   32.9210   38.9020 H   0  0  0  0  0  0  0  0  0  0  0  0
   43.0780   34.3190   40.7560 C   0  0  0  0  0  0  0  0  0  0  0  0
   44.4410   34.1870   40.5040 C   0  0  0  0  0  0  0  0  0  0  0  0
   45.3780   34.8740   41.2440 C   0  0  0  0  0  0  0  0  0  0  0  0
   44.9880   35.7250   42.2700 C   0  0  0  0  0  0  0  0  0  0  0  0
   45.9500   36.3680   42.9560 N   0  0  0  0  0  0  0  0  0  0  0  0
   45.5830   37.2140   43.9740 C   0  0  0  0  0  0  0  0  0  0  0  0
   44.2410   37.3490   44.2280 C   0  0  0  0  0  0  0  0  0  0  0  0
   43.2360   36.7030   43.5420 C   0  0  0  0  0  0  0  0  0  0  0  0
   43.6210   35.8600   42.5250 C   0  0  0  0  0  0  0  0  0  0  0  0
   42.6820   35.1640   41.7760 C   0  0  0  0  0  0  0  0  0  0  0  0
   44.6810   33.5140   39.6970 H   0  0  0  0  0  0  0  0  0  0  0  0
   46.4130   34.7110   40.9770 H   0  0  0  0  0  0  0  0  0  0  0  0
   46.3540   37.7330   44.5270 H   0  0  0  0  0  0  0  0  0  0  0  0
   44.0250   38.0290   45.0420 H   0  0  0  0  0  0  0  0  0  0  0  0
   42.1950   36.8450   43.7830 H   0  0  0  0  0  0  0  0  0  0  0  0
   41.6530   35.3340   42.0500 H   0  0  0  0  0  0  0  0  0  0  0  0
   38.7020   31.8240   38.1540 C   0  0  0  0  0  0  0  0  0  0  0  0
   38.8000   30.7550   37.9850 H   0  0  0  0  0  0  0  0  0  0  0  0
   38.5240   32.3720   37.2060 H   0  0  0  0  0  0  0  0  0  0  0  0
   37.4480   32.1420   38.9990 C   0  0  0  0  0  0  0  0  0  0  0  0
   36.6170   32.4240   38.3220 H   0  0  0  0  0  0  0  0  0  0  0  0
   37.6270   33.0000   39.6770 H   0  0  0  0  0  0  0  0  0  0  0  0
   37.0690   30.9510   39.8030 C   0  0  0  0  0  0  0  0  0  0  0  0
   36.0970   30.1010   39.3340 C   0  0  0  0  0  0  0  0  0  0  0  0
   35.5950   30.2830   38.3800 H   0  0  0  0  0  0  0  0  0  0  0  0
   35.7640   29.0010   40.1010 C   0  0  0  0  0  3  0  0  0  0  0  0
   36.3840   28.7570   41.3050 C   0  0  0  0  0  0  0  0  0  0  0  0
   36.0600   27.6790   42.0610 N   0  0  0  0  0  0  0  0  0  0  0  0
   36.6690   27.4390   43.2400 C   0  0  0  0  0  0  0  0  0  0  0  0
   36.3390   26.5460   43.7770 H   0  0  0  0  0  0  0  0  0  0  0  0
   37.6450   28.2560   43.7540 C   0  0  0  0  0  3  0  0  0  0  0  0
   38.0090   29.3760   43.0100 C   0  0  0  0  0  3  0  0  0  0  0  0
   37.3750   29.6170   41.7910 C   0  0  0  0  0  0  0  0  0  0  0  0
   37.6910   30.7090   41.0070 C   0  0  0  0  0  3  0  0  0  0  0  0
  1  2  1  0  0  0  0
  2  3  2  0  0  0  0
  2 11  1  0  0  0  0
  3  8  1  0  0  0  0
  4  3  1  0  0  0  0
  5  4  2  0  0  0  0
  6  5  1  0  0  0  0
  6  1  2  0  0  0  0
  7  1  1  0  0  0  0
  7 10  1  0  0  0  0
  9  7  1  0  0  0  0
 11 20  1  0  0  0  0
 12 11  2  0  0  0  0
 12 13  1  0  0  0  0
 13 14  2  0  0  0  0
 14 19  1  0  0  0  0
 14 15  1  0  0  0  0
 15 16  2  0  0  0  0
 16 17  1  0  0  0  0
 16 23  1  0  0  0  0
 17 24  1  0  0  0  0
 18 25  1  0  0  0  0
 18 17  2  0  0  0  0
 19 18  1  0  0  0  0
 20 26  1  0  0  0  0
 20 19  2  0  0  0  0
 21 12  1  0  0  0  0
 22 13  1  0  0  0  0
 27  5  1  0  0  0  0
 27 30  1  0  0  0  0
 28 27  1  0  0  0  0
 29 27  1  0  0  0  0
 30 32  1  0  0  0  0
 30 33  1  0  0  0  0
 31 30  1  0  0  0  0
 33 44  1  0  0  0  0
 34 33  2  0  0  0  0
 34 36  1  0  0  0  0
 35 34  1  0  0  0  0
 36 37  2  0  0  0  0
 37 43  1  0  0  0  0
 37 38  1  0  0  0  0
 38 39  2  0  0  0  0
 39 41  1  0  0  0  0
 39 40  1  0  0  0  0
 42 41  2  0  0  0  0
 43 42  1  0  0  0  0
 44 43  2  0  0  0  0
M  END
>  <minimizedAffinity>
-7.50740814

$$$$

 OpenBabel03242522483D

 44 48  0  0  0  0  0  0  0  0999 V2000
   36.5160   30.0500   40.6640 C   0  0  0  0  0  0  0  0  0  0  0  0
   37.6080   30.5780   39.9320 C   0  0  0  0  0  0  0  0  0  0  0  0
   38.4230   29.6940   39.1850 C   0  0  0  0  0  0  0  0  0  0  0  0
   38.1040   28.3790   39.2200 N   0  0  0  0  0  0  0  0  0  0  0  0
   37.0500   27.9070   39.9350 C   0  0  0  0  0  0  0  0  0  0  0  0
   36.2750   28.7360   40.6410 N   0  0  0  0  0  0  0  0  0  0  0  0
   35.7070   30.9320   41.4060 N   0  0  0  0  0  0  0  0  0  0  0  0
   39.2510   30.0620   38.6250 H   0  0  0  0  0  0  0  0  0  0  0  0
   35.1880   30.6460   42.2590 H   0  0  0  0  0  0  0  0  0  0  0  0
   35.5960   31.9300   41.1180 H   0  0  0  0  0  0  0  0  0  0  0  0
   37.9300   31.9880   39.9150 C   0  0  0  0  0  0  0  0  0  0  0  0
   37.0890   33.0470   39.5850 C   0  0  0  0  0  0  0  0  0  0  0  0
   37.5310   34.3500   39.6100 C   0  0  0  0  0  0  0  0  0  0  0  0
   38.8390   34.6500   39.9680 C   0  0  0  0  0  0  0  0  0  0  0  0
   39.2110   35.9430   39.9750 N   0  0  0  0  0  0  0  0  0  0  0  0
   40.5010   36.2580   40.3270 C   0  0  0  0  0  0  0  0  0  0  0  0
   41.3360   35.2190   40.6540 C   0  0  0  0  0  0  0  0  0  0  0  0
   40.9820   33.8880   40.6560 C   0  0  0  0  0  0  0  0  0  0  0  0
   39.6860   33.5900   40.3010 C   0  0  0  0  0  0  0  0  0  0  0  0
   39.2340   32.2780   40.2730 C   0  0  0  0  0  0  0  0  0  0  0  0
   36.0870   32.7510   39.3160 H   0  0  0  0  0  0  0  0  0  0  0  0
   36.8080   35.1080   39.3390 H   0  0  0  0  0  0  0  0  0  0  0  0
   40.8020   37.2960   40.3330 H   0  0  0  0  0  0  0  0  0  0  0  0
   42.3350   35.5400   40.9200 H   0  0  0  0  0  0  0  0  0  0  0  0
   41.6790   33.1100   40.9210 H   0  0  0  0  0  0  0  0  0  0  0  0
   39.9630   31.5310   40.5450 H   0  0  0  0  0  0  0  0  0  0  0  0
   36.8030   26.4310   39.9080 C   0  0  0  0  0  0  0  0  0  0  0  0
   37.4160   25.8890   39.1920 H   0  0  0  0  0  0  0  0  0  0  0  0
   35.7210   26.2880   39.7080 H   0  0  0  0  0  0  0  0  0  0  0  0
   36.9870   25.8710   41.3360 C   0  0  0  0  0  0  0  0  0  0  0  0
   36.4780   24.8900   41.4090 H   0  0  0  0  0  0  0  0  0  0  0  0
   36.5260   26.5390   42.0920 H   0  0  0  0  0  0  0  0  0  0  0  0
   38.4350   25.7180   41.6330 C   0  0  0  0  0  0  0  0  0  0  0  0
   39.2340   25.0250   40.7570 C   0  0  0  0  0  0  0  0  0  0  0  0
   38.8270   24.5820   39.8450 H   0  0  0  0  0  0  0  0  0  0  0  0
   40.5770   24.8980   41.0560 C   0  0  0  0  0  3  0  0  0  0  0  0
   41.1070   25.4490   42.2020 C   0  0  0  0  0  0  0  0  0  0  0  0
   42.4250   25.3260   42.4990 N   0  0  0  0  0  0  0  0  0  0  0  0
   42.9450   25.8660   43.6210 C   0  0  0  0  0  0  0  0  0  0  0  0
   44.0160   25.7130   43.7730 H   0  0  0  0  0  0  0  0  0  0  0  0
   42.1900   26.5670   44.5280 C   0  0  0  0  0  3  0  0  0  0  0  0
   40.8320   26.7170   44.2620 C   0  0  0  0  0  3  0  0  0  0  0  0
   40.3010   26.1560   43.0990 C   0  0  0  0  0  0  0  0  0  0  0  0
   38.9630   26.2700   42.7790 C   0  0  0  0  0  3  0  0  0  0  0  0
  1  7  1  0  0  0  0
  2  1  2  0  0  0  0
  3  4  2  0  0  0  0
  3  2  1  0  0  0  0
  4  5  1  0  0  0  0
  5  6  2  0  0  0  0
  6  1  1  0  0  0  0
  7  9  1  0  0  0  0
  8  3  1  0  0  0  0
 10  7  1  0  0  0  0
 11  2  1  0  0  0  0
 11 20  1  0  0  0  0
 12 13  1  0  0  0  0
 12 11  2  0  0  0  0
 13 14  2  0  0  0  0
 14 15  1  0  0  0  0
 14 19  1  0  0  0  0
 15 16  2  0  0  0  0
 16 23  1  0  0  0  0
 16 17  1  0  0  0  0
 17 18  2  0  0  0  0
 17 24  1  0  0  0  0
 18 25  1  0  0  0  0
 19 18  1  0  0  0  0
 20 19  2  0  0  0  0
 20 26  1  0  0  0  0
 21 12  1  0  0  0  0
 22 13  1  0  0  0  0
 27  5  1  0  0  0  0
 27 30  1  0  0  0  0
 28 27  1  0  0  0  0
 29 27  1  0  0  0  0
 30 31  1  0  0  0  0
 30 33  1  0  0  0  0
 30 32  1  0  0  0  0
 33 44  1  0  0  0  0
 34 36  1  0  0  0  0
 34 33  2  0  0  0  0
 35 34  1  0  0  0  0
 36 37  2  0  0  0  0
 37 38  1  0  0  0  0
 37 43  1  0  0  0  0
 38 39  2  0  0  0  0
 39 40  1  0  0  0  0
 39 41  1  0  0  0  0
 42 41  2  0  0  0  0
 43 42  1  0  0  0  0
 44 43  2  0  0  0  0
M  END
>  <minimizedAffinity>
-7.34221029

$$$$

 OpenBabel03242522483D

 44 48  0  0  0  0  0  0  0  0999 V2000
   38.7200   32.0810   38.2670 C   0  0  0  0  0  0  0  0  0  0  0  0
   38.5160   32.6870   39.5310 C   0  0  0  0  0  0  0  0  0  0  0  0
   37.3970   32.2950   40.3050 C   0  0  0  0  0  0  0  0  0  0  0  0
   36.5800   31.3540   39.7790 N   0  0  0  0  0  0  0  0  0  0  0  0
   36.8060   30.7940   38.5620 C   0  0  0  0  0  0  0  0  0  0  0  0
   37.8610   31.1590   37.8260 N   0  0  0  0  0  0  0  0  0  0  0  0
   39.8340   32.4740   37.5000 N   0  0  0  0  0  0  0  0  0  0  0  0
   37.2170   32.7320   41.2590 H   0  0  0  0  0  0  0  0  0  0  0  0
   39.8540   32.4300   36.4620 H   0  0  0  0  0  0  0  0  0  0  0  0
   40.7030   32.8310   37.9580 H   0  0  0  0  0  0  0  0  0  0  0  0
   39.4020   33.6950   40.0690 C   0  0  0  0  0  0  0  0  0  0  0  0
   39.1800   35.0680   40.1400 C   0  0  0  0  0  0  0  0  0  0  0  0
   40.1180   35.9200   40.6800 C   0  0  0  0  0  0  0  0  0  0  0  0
   41.3210   35.4320   41.1720 C   0  0  0  0  0  0  0  0  0  0  0  0
   42.1960   36.3140   41.6870 N   0  0  0  0  0  0  0  0  0  0  0  0
   43.3910   35.8490   42.1800 C   0  0  0  0  0  0  0  0  0  0  0  0
   43.6170   34.4960   42.1120 C   0  0  0  0  0  0  0  0  0  0  0  0
   42.7400   33.5720   41.5900 C   0  0  0  0  0  0  0  0  0  0  0  0
   41.5470   34.0550   41.1020 C   0  0  0  0  0  0  0  0  0  0  0  0
   40.5970   33.2020   40.5560 C   0  0  0  0  0  0  0  0  0  0  0  0
   38.2300   35.3860   39.7430 H   0  0  0  0  0  0  0  0  0  0  0  0
   39.8600   36.9700   40.6950 H   0  0  0  0  0  0  0  0  0  0  0  0
   44.0970   36.5560   42.5950 H   0  0  0  0  0  0  0  0  0  0  0  0
   44.5770   34.2020   42.5170 H   0  0  0  0  0  0  0  0  0  0  0  0
   42.9670   32.5190   41.5620 H   0  0  0  0  0  0  0  0  0  0  0  0
   40.8650   32.1570   40.5470 H   0  0  0  0  0  0  0  0  0  0  0  0
   35.8260   29.7720   38.0780 C   0  0  0  0  0  0  0  0  0  0  0  0
   36.2490   29.0310   37.4050 H   0  0  0  0  0  0  0  0  0  0  0  0
   34.9900   30.3250   37.6030 H   0  0  0  0  0  0  0  0  0  0  0  0
   35.1670   29.0990   39.3040 C   0  0  0  0  0  0  0  0  0  0  0  0
   34.2510   28.5670   38.9760 H   0  0  0  0  0  0  0  0  0  0  0  0
   34.8600   29.8500   40.0580 H   0  0  0  0  0  0  0  0  0  0  0  0
   36.1180   28.1400   39.9230 C   0  0  0  0  0  0  0  0  0  0  0  0
   36.5260   27.0380   39.2110 C   0  0  0  0  0  0  0  0  0  0  0  0
   36.1650   26.8510   38.1980 H   0  0  0  0  0  0  0  0  0  0  0  0
   37.4120   26.1640   39.8100 C   0  0  0  0  0  3  0  0  0  0  0  0
   37.8780   26.3840   41.0870 C   0  0  0  0  0  0  0  0  0  0  0  0
   38.7470   25.5270   41.6790 N   0  0  0  0  0  0  0  0  0  0  0  0
   39.2050   25.7430   42.9300 C   0  0  0  0  0  0  0  0  0  0  0  0
   39.9010   24.9970   43.3200 H   0  0  0  0  0  0  0  0  0  0  0  0
   38.8290   26.8270   43.6830 C   0  0  0  0  0  3  0  0  0  0  0  0
   37.9360   27.7330   43.1140 C   0  0  0  0  0  3  0  0  0  0  0  0
   37.4690   27.5030   41.8200 C   0  0  0  0  0  0  0  0  0  0  0  0
   36.5840   28.3630   41.2000 C   0  0  0  0  0  3  0  0  0  0  0  0
  1  2  1  0  0  0  0
  2 11  1  0  0  0  0
  2  3  2  0  0  0  0
  3  8  1  0  0  0  0
  4  3  1  0  0  0  0
  5  4  2  0  0  0  0
  6  1  2  0  0  0  0
  6  5  1  0  0  0  0
  7 10  1  0  0  0  0
  7  1  1  0  0  0  0
  9  7  1  0  0  0  0
 11 12  2  0  0  0  0
 11 20  1  0  0  0  0
 12 13  1  0  0  0  0
 13 22  1  0  0  0  0
 13 14  2  0  0  0  0
 14 15  1  0  0  0  0
 15 16  2  0  0  0  0
 16 23  1  0  0  0  0
 17 16  1  0  0  0  0
 17 24  1  0  0  0  0
 18 17  2  0  0  0  0
 19 14  1  0  0  0  0
 19 18  1  0  0  0  0
 20 19  2  0  0  0  0
 21 12  1  0  0  0  0
 25 18  1  0  0  0  0
 26 20  1  0  0  0  0
 27  5  1  0  0  0  0
 27 30  1  0  0  0  0
 28 27  1  0  0  0  0
 29 27  1  0  0  0  0
 30 33  1  0  0  0  0
 30 32  1  0  0  0  0
 31 30  1  0  0  0  0
 33 44  1  0  0  0  0
 34 36  1  0  0  0  0
 34 33  2  0  0  0  0
 35 34  1  0  0  0  0
 36 37  2  0  0  0  0
 37 38  1  0  0  0  0
 37 43  1  0  0  0  0
 38 39  2  0  0  0  0
 39 40  1  0  0  0  0
 39 41  1  0  0  0  0
 42 41  2  0  0  0  0
 43 42  1  0  0  0  0
 44 43  2  0  0  0  0
M  END
>  <minimizedAffinity>
-7.33599281

$$$$

 OpenBabel03242522483D

 44 48  0  0  0  0  0  0  0  0999 V2000
   38.2540   33.8000   39.8600 C   0  0  0  0  0  0  0  0  0  0  0  0
   38.4730   32.4050   39.9680 C   0  0  0  0  0  0  0  0  0  0  0  0
   39.7710   31.9380   40.2850 C   0  0  0  0  0  0  0  0  0  0  0  0
   40.7360   32.8690   40.4660 N   0  0  0  0  0  0  0  0  0  0  0  0
   40.4900   34.2000   40.3550 C   0  0  0  0  0  0  0  0  0  0  0  0
   39.2670   34.6480   40.0570 N   0  0  0  0  0  0  0  0  0  0  0  0
   36.9610   34.2610   39.5450 N   0  0  0  0  0  0  0  0  0  0  0  0
   39.9660   30.8950   40.3720 H   0  0  0  0  0  0  0  0  0  0  0  0
   36.7820   35.1570   39.0500 H   0  0  0  0  0  0  0  0  0  0  0  0
   36.1150   33.7060   39.8040 H   0  0  0  0  0  0  0  0  0  0  0  0
   37.4240   31.4300   39.7640 C   0  0  0  0  0  0  0  0  0  0  0  0
   36.5410   30.9230   40.7140 C   0  0  0  0  0  0  0  0  0  0  0  0
   35.5850   29.9900   40.3790 C   0  0  0  0  0  0  0  0  0  0  0  0
   35.4710   29.5240   39.0760 C   0  0  0  0  0  0  0  0  0  0  0  0
   34.5170   28.6140   38.8120 N   0  0  0  0  0  0  0  0  0  0  0  0
   34.3910   28.1430   37.5280 C   0  0  0  0  0  0  0  0  0  0  0  0
   35.2580   28.6380   36.5860 C   0  0  0  0  0  0  0  0  0  0  0  0
   36.2440   29.5690   36.8290 C   0  0  0  0  0  0  0  0  0  0  0  0
   36.3560   30.0310   38.1200 C   0  0  0  0  0  0  0  0  0  0  0  0
   37.3180   30.9710   38.4650 C   0  0  0  0  0  0  0  0  0  0  0  0
   36.6780   31.3220   41.7060 H   0  0  0  0  0  0  0  0  0  0  0  0
   34.9420   29.6530   41.1810 H   0  0  0  0  0  0  0  0  0  0  0  0
   33.6240   27.4110   37.3130 H   0  0  0  0  0  0  0  0  0  0  0  0
   35.1010   28.2220   35.5990 H   0  0  0  0  0  0  0  0  0  0  0  0
   36.8990   29.9250   36.0510 H   0  0  0  0  0  0  0  0  0  0  0  0
   37.9530   31.3000   37.6570 H   0  0  0  0  0  0  0  0  0  0  0  0
   41.6410   35.1340   40.5650 C   0  0  0  0  0  0  0  0  0  0  0  0
   41.5440   35.7720   41.4400 H   0  0  0  0  0  0  0  0  0  0  0  0
   41.7470   35.7310   39.6360 H   0  0  0  0  0  0  0  0  0  0  0  0
   42.9470   34.3090   40.6190 C   0  0  0  0  0  0  0  0  0  0  0  0
   43.6150   34.6350   39.7980 H   0  0  0  0  0  0  0  0  0  0  0  0
   42.7450   33.2290   40.4720 H   0  0  0  0  0  0  0  0  0  0  0  0
   43.6140   34.5100   41.9320 C   0  0  0  0  0  0  0  0  0  0  0  0
   43.6380   35.7640   42.4920 C   0  0  0  0  0  0  0  0  0  0  0  0
   43.1760   36.6180   41.9920 H   0  0  0  0  0  0  0  0  0  0  0  0
   44.2640   35.9230   43.7130 C   0  0  0  0  0  3  0  0  0  0  0  0
   44.8520   34.8570   44.3570 C   0  0  0  0  0  0  0  0  0  0  0  0
   45.4680   35.0100   45.5560 N   0  0  0  0  0  0  0  0  0  0  0  0
   46.0430   33.9660   46.1880 C   0  0  0  0  0  0  0  0  0  0  0  0
   46.5150   34.1880   47.1480 H   0  0  0  0  0  0  0  0  0  0  0  0
   46.0480   32.6940   45.6710 C   0  0  0  0  0  3  0  0  0  0  0  0
   45.4260   32.4930   44.4410 C   0  0  0  0  0  3  0  0  0  0  0  0
   44.8320   33.5770   43.7950 C   0  0  0  0  0  0  0  0  0  0  0  0
   44.2010   33.4420   42.5750 C   0  0  0  0  0  3  0  0  0  0  0  0
  1  2  2  0  0  0  0
  1  6  1  0  0  0  0
  2  3  1  0  0  0  0
  3  8  1  0  0  0  0
  3  4  2  0  0  0  0
  5  4  1  0  0  0  0
  5 27  1  0  0  0  0
  6  5  2  0  0  0  0
  7 10  1  0  0  0  0
  7  1  1  0  0  0  0
  9  7  1  0  0  0  0
 11  2  1  0  0  0  0
 11 12  1  0  0  0  0
 12 21  1  0  0  0  0
 13 12  2  0  0  0  0
 13 22  1  0  0  0  0
 14 13  1  0  0  0  0
 15 14  1  0  0  0  0
 16 15  2  0  0  0  0
 17 18  2  0  0  0  0
 17 16  1  0  0  0  0
 18 19  1  0  0  0  0
 19 20  1  0  0  0  0
 19 14  2  0  0  0  0
 20 11  2  0  0  0  0
 23 16  1  0  0  0  0
 24 17  1  0  0  0  0
 25 18  1  0  0  0  0
 26 20  1  0  0  0  0
 27 30  1  0  0  0  0
 27 28  1  0  0  0  0
 29 27  1  0  0  0  0
 30 33  1  0  0  0  0
 31 30  1  0  0  0  0
 32 30  1  0  0  0  0
 33 34  2  0  0  0  0
 33 44  1  0  0  0  0
 34 36  1  0  0  0  0
 35 34  1  0  0  0  0
 36 37  2  0  0  0  0
 37 38  1  0  0  0  0
 38 39  2  0  0  0  0
 39 40  1  0  0  0  0
 41 39  1  0  0  0  0
 42 41  2  0  0  0  0
 43 37  1  0  0  0  0
 43 42  1  0  0  0  0
 44 43  2  0  0  0  0
M  END
>  <minimizedAffinity>
-7.31402779

$$$$

 OpenBabel03242522483D

 44 48  0  0  0  0  0  0  0  0999 V2000
   38.7940   31.5430   38.4900 C   0  0  0  0  0  0  0  0  0  0  0  0
   37.6620   31.0150   39.1590 C   0  0  0  0  0  0  0  0  0  0  0  0
   37.0460   31.7860   40.1740 C   0  0  0  0  0  0  0  0  0  0  0  0
   37.5870   32.9950   40.4470 N   0  0  0  0  0  0  0  0  0  0  0  0
   38.6740   33.4700   39.7860 C   0  0  0  0  0  0  0  0  0  0  0  0
   39.2600   32.7480   38.8260 N   0  0  0  0  0  0  0  0  0  0  0  0
   39.4040   30.7740   37.4810 N   0  0  0  0  0  0  0  0  0  0  0  0
   36.1930   31.4160   40.6950 H   0  0  0  0  0  0  0  0  0  0  0  0
   40.4110   30.8500   37.2390 H   0  0  0  0  0  0  0  0  0  0  0  0
   38.8520   30.0820   36.9250 H   0  0  0  0  0  0  0  0  0  0  0  0
   37.1060   29.7160   38.8510 C   0  0  0  0  0  0  0  0  0  0  0  0
   37.6060   28.4700   39.2210 C   0  0  0  0  0  0  0  0  0  0  0  0
   36.9720   27.3040   38.8560 C   0  0  0  0  0  0  0  0  0  0  0  0
   35.8050   27.3360   38.1020 C   0  0  0  0  0  0  0  0  0  0  0  0
   35.2320   26.1640   37.7770 N   0  0  0  0  0  0  0  0  0  0  0  0
   34.0770   26.1760   37.0330 C   0  0  0  0  0  0  0  0  0  0  0  0
   33.5780   27.4010   36.6650 C   0  0  0  0  0  0  0  0  0  0  0  0
   34.1440   28.6150   36.9830 C   0  0  0  0  0  0  0  0  0  0  0  0
   35.3000   28.5840   37.7300 C   0  0  0  0  0  0  0  0  0  0  0  0
   35.9460   29.7560   38.1010 C   0  0  0  0  0  0  0  0  0  0  0  0
   38.5130   28.5110   39.8040 H   0  0  0  0  0  0  0  0  0  0  0  0
   37.4310   26.3840   39.1870 H   0  0  0  0  0  0  0  0  0  0  0  0
   33.6140   25.2340   36.7710 H   0  0  0  0  0  0  0  0  0  0  0  0
   32.6690   27.3340   36.0810 H   0  0  0  0  0  0  0  0  0  0  0  0
   33.7100   29.5500   36.6680 H   0  0  0  0  0  0  0  0  0  0  0  0
   35.4780   30.6690   37.7650 H   0  0  0  0  0  0  0  0  0  0  0  0
   39.1920   34.8170   40.1840 C   0  0  0  0  0  0  0  0  0  0  0  0
   39.1190   35.0260   41.2480 H   0  0  0  0  0  0  0  0  0  0  0  0
   38.6370   35.5670   39.5840 H   0  0  0  0  0  0  0  0  0  0  0  0
   40.6480   34.9560   39.6870 C   0  0  0  0  0  0  0  0  0  0  0  0
   40.6810   35.7010   38.8670 H   0  0  0  0  0  0  0  0  0  0  0  0
   41.0260   33.9980   39.2780 H   0  0  0  0  0  0  0  0  0  0  0  0
   41.5230   35.3910   40.8060 C   0  0  0  0  0  0  0  0  0  0  0  0
   41.2610   36.5800   41.4450 C   0  0  0  0  0  0  0  0  0  0  0  0
   40.4230   37.2130   41.1450 H   0  0  0  0  0  0  0  0  0  0  0  0
   42.0890   36.9610   42.4830 C   0  0  0  0  0  3  0  0  0  0  0  0
   43.1510   36.1760   42.8730 C   0  0  0  0  0  0  0  0  0  0  0  0
   43.9660   36.5460   43.8920 N   0  0  0  0  0  0  0  0  0  0  0  0
   45.0050   35.7770   44.2750 C   0  0  0  0  0  0  0  0  0  0  0  0
   45.6050   36.1610   45.1050 H   0  0  0  0  0  0  0  0  0  0  0  0
   45.3100   34.5830   43.6710 C   0  0  0  0  0  3  0  0  0  0  0  0
   44.4980   34.1630   42.6200 C   0  0  0  0  0  3  0  0  0  0  0  0
   43.4240   34.9640   42.2300 C   0  0  0  0  0  0  0  0  0  0  0  0
   42.5830   34.6040   41.1960 C   0  0  0  0  0  3  0  0  0  0  0  0
  1  6  2  0  0  0  0
  1  2  1  0  0  0  0
  2  3  2  0  0  0  0
  3  4  1  0  0  0  0
  3  8  1  0  0  0  0
  5 27  1  0  0  0  0
  5  4  2  0  0  0  0
  6  5  1  0  0  0  0
  7  1  1  0  0  0  0
  9  7  1  0  0  0  0
 10  7  1  0  0  0  0
 11  2  1  0  0  0  0
 11 12  1  0  0  0  0
 12 21  1  0  0  0  0
 13 22  1  0  0  0  0
 13 12  2  0  0  0  0
 14 13  1  0  0  0  0
 15 14  1  0  0  0  0
 16 15  2  0  0  0  0
 17 18  2  0  0  0  0
 17 16  1  0  0  0  0
 18 19  1  0  0  0  0
 19 20  1  0  0  0  0
 19 14  2  0  0  0  0
 20 11  2  0  0  0  0
 23 16  1  0  0  0  0
 24 17  1  0  0  0  0
 25 18  1  0  0  0  0
 26 20  1  0  0  0  0
 27 28  1  0  0  0  0
 29 27  1  0  0  0  0
 30 27  1  0  0  0  0
 30 33  1  0  0  0  0
 31 30  1  0  0  0  0
 32 30  1  0  0  0  0
 33 44  2  0  0  0  0
 33 34  1  0  0  0  0
 34 36  2  0  0  0  0
 35 34  1  0  0  0  0
 36 37  1  0  0  0  0
 37 38  1  0  0  0  0
 38 39  2  0  0  0  0
 39 40  1  0  0  0  0
 41 39  1  0  0  0  0
 42 41  2  0  0  0  0
 43 42  1  0  0  0  0
 43 37  2  0  0  0  0
 44 43  1  0  0  0  0
M  END
>  <minimizedAffinity>
-7.29746819

$$$$

 OpenBabel03242522483D

 44 48  0  0  0  0  0  0  0  0999 V2000
   38.1630   32.6080   39.3430 C   0  0  0  0  0  0  0  0  0  0  0  0
   38.2240   31.3890   38.6230 C   0  0  0  0  0  0  0  0  0  0  0  0
   39.4420   31.0210   38.0030 C   0  0  0  0  0  0  0  0  0  0  0  0
   40.4870   31.8700   38.1370 N   0  0  0  0  0  0  0  0  0  0  0  0
   40.3920   33.0320   38.8350 C   0  0  0  0  0  0  0  0  0  0  0  0
   39.2460   33.3850   39.4240 N   0  0  0  0  0  0  0  0  0  0  0  0
   36.9500   32.9710   39.9580 N   0  0  0  0  0  0  0  0  0  0  0  0
   39.5190   30.1110   37.4550 H   0  0  0  0  0  0  0  0  0  0  0  0
   36.6720   33.9570   40.1300 H   0  0  0  0  0  0  0  0  0  0  0  0
   36.2680   32.2440   40.2730 H   0  0  0  0  0  0  0  0  0  0  0  0
   37.0900   30.5010   38.4900 C   0  0  0  0  0  0  0  0  0  0  0  0
   36.3500   29.9120   39.5110 C   0  0  0  0  0  0  0  0  0  0  0  0
   35.2880   29.0790   39.2400 C   0  0  0  0  0  0  0  0  0  0  0  0
   34.9210   28.7990   37.9300 C   0  0  0  0  0  0  0  0  0  0  0  0
   33.8750   27.9780   37.7290 N   0  0  0  0  0  0  0  0  0  0  0  0
   33.4980   27.6900   36.4400 C   0  0  0  0  0  0  0  0  0  0  0  0
   34.2240   28.2670   35.4280 C   0  0  0  0  0  0  0  0  0  0  0  0
   35.2990   29.1100   35.6040 C   0  0  0  0  0  0  0  0  0  0  0  0
   35.6620   29.3880   36.9020 C   0  0  0  0  0  0  0  0  0  0  0  0
   36.7330   30.2270   37.1830 C   0  0  0  0  0  0  0  0  0  0  0  0
   36.6820   30.1670   40.5050 H   0  0  0  0  0  0  0  0  0  0  0  0
   34.7700   28.6680   40.0950 H   0  0  0  0  0  0  0  0  0  0  0  0
   32.6560   27.0310   36.2760 H   0  0  0  0  0  0  0  0  0  0  0  0
   33.8720   27.9960   34.4410 H   0  0  0  0  0  0  0  0  0  0  0  0
   35.8350   29.5360   34.7720 H   0  0  0  0  0  0  0  0  0  0  0  0
   37.2420   30.6310   36.3230 H   0  0  0  0  0  0  0  0  0  0  0  0
   41.6120   33.8970   38.9040 C   0  0  0  0  0  0  0  0  0  0  0  0
   41.9890   34.2140   37.9350 H   0  0  0  0  0  0  0  0  0  0  0  0
   42.3770   33.3330   39.4740 H   0  0  0  0  0  0  0  0  0  0  0  0
   41.3060   35.1130   39.8070 C   0  0  0  0  0  0  0  0  0  0  0  0
   40.2650   35.0350   40.1800 H   0  0  0  0  0  0  0  0  0  0  0  0
   41.3840   36.0630   39.2420 H   0  0  0  0  0  0  0  0  0  0  0  0
   42.2560   35.1420   40.9500 C   0  0  0  0  0  0  0  0  0  0  0  0
   43.1630   34.1210   41.1000 C   0  0  0  0  0  0  0  0  0  0  0  0
   43.2000   33.2860   40.3960 H   0  0  0  0  0  0  0  0  0  0  0  0
   44.0350   34.1720   42.1700 C   0  0  0  0  0  3  0  0  0  0  0  0
   44.0020   35.2160   43.0670 C   0  0  0  0  0  0  0  0  0  0  0  0
   44.8560   35.2700   44.1190 N   0  0  0  0  0  0  0  0  0  0  0  0
   44.8250   36.2930   44.9980 C   0  0  0  0  0  0  0  0  0  0  0  0
   45.5520   36.2470   45.8120 H   0  0  0  0  0  0  0  0  0  0  0  0
   43.9400   37.3370   44.8930 C   0  0  0  0  0  3  0  0  0  0  0  0
   43.0440   37.3220   43.8270 C   0  0  0  0  0  3  0  0  0  0  0  0
   43.0830   36.2600   42.9220 C   0  0  0  0  0  0  0  0  0  0  0  0
   42.2220   36.1870   41.8450 C   0  0  0  0  0  3  0  0  0  0  0  0
  1  6  1  0  0  0  0
  1  7  1  0  0  0  0
  2  1  2  0  0  0  0
  3  4  2  0  0  0  0
  3  2  1  0  0  0  0
  4  5  1  0  0  0  0
  5 27  1  0  0  0  0
  5  6  2  0  0  0  0
  7  9  1  0  0  0  0
  7 10  1  0  0  0  0
  8  3  1  0  0  0  0
 11  2  1  0  0  0  0
 11 12  1  0  0  0  0
 12 21  1  0  0  0  0
 13 12  2  0  0  0  0
 13 22  1  0  0  0  0
 14 13  1  0  0  0  0
 15 14  1  0  0  0  0
 16 15  2  0  0  0  0
 17 18  2  0  0  0  0
 17 16  1  0  0  0  0
 18 19  1  0  0  0  0
 19 20  1  0  0  0  0
 19 14  2  0  0  0  0
 20 11  2  0  0  0  0
 23 16  1  0  0  0  0
 24 17  1  0  0  0  0
 25 18  1  0  0  0  0
 26 20  1  0  0  0  0
 27 29  1  0  0  0  0
 27 30  1  0  0  0  0
 28 27  1  0  0  0  0
 30 31  1  0  0  0  0
 30 33  1  0  0  0  0
 32 30  1  0  0  0  0
 33 34  2  0  0  0  0
 33 44  1  0  0  0  0
 34 36  1  0  0  0  0
 35 34  1  0  0  0  0
 36 37  2  0  0  0  0
 37 38  1  0  0  0  0
 38 39  2  0  0  0  0
 39 40  1  0  0  0  0
 41 39  1  0  0  0  0
 42 41  2  0  0  0  0
 43 37  1  0  0  0  0
 43 42  1  0  0  0  0
 44 43  2  0  0  0  0
M  END
>  <minimizedAffinity>
-7.28853703

$$$$
