
 OpenBabel03252508173D

 50 55  0  0  1  0  0  0  0  0999 V2000
   45.7230   32.0040   48.0570 C   0  0  1  0  0  0  0  0  0  0  0  0
   45.2310   31.4910   49.3660 C   0  0  0  0  0  0  0  0  0  0  0  0
   46.6620   31.6740   49.1460 C   0  0  1  0  0  0  0  0  0  0  0  0
   45.3060   33.0420   47.8930 H   0  0  0  0  0  0  0  0  0  0  0  0
   44.7240   32.1380   50.1090 H   0  0  0  0  0  0  0  0  0  0  0  0
   44.8640   30.4360   49.4130 H   0  0  0  0  0  0  0  0  0  0  0  0
   47.1340   32.5390   49.6560 H   0  0  0  0  0  0  0  0  0  0  0  0
   47.5890   30.5140   48.9470 C   0  0  2  0  0  0  0  0  0  0  0  0
   48.9430   30.6880   49.6800 C   0  0  0  0  0  0  0  0  0  0  0  0
   48.8990   30.7770   48.2110 C   0  0  1  0  0  0  0  0  0  0  0  0
   47.2530   29.4740   49.0320 H   0  0  0  0  0  0  0  0  0  0  0  0
   49.1330   31.6420   50.2050 H   0  0  0  0  0  0  0  0  0  0  0  0
   49.4330   29.8380   50.1410 H   0  0  0  0  0  0  0  0  0  0  0  0
   49.0090   31.7670   47.7250 H   0  0  0  0  0  0  0  0  0  0  0  0
   49.5120   29.6660   47.4570 C   0  0  0  0  0  0  0  0  0  0  0  0
   50.7160   29.1380   47.9390 C   0  0  0  0  0  0  0  0  0  0  0  0
   51.2140   29.5070   48.8370 H   0  0  0  0  0  0  0  0  0  0  0  0
   51.3450   28.0900   47.2710 C   0  0  0  0  0  3  0  0  0  0  0  0
   50.7970   27.5450   46.1190 C   0  0  0  0  0  0  0  0  0  0  0  0
   51.4120   26.5400   45.4900 N   0  0  0  0  0  0  0  0  0  0  0  0
   50.9340   25.9710   44.3720 C   0  0  0  0  0  0  0  0  0  0  0  0
   51.4610   25.1600   43.8930 H   0  0  0  0  0  0  0  0  0  0  0  0
   49.7420   26.4820   43.8810 C   0  0  0  0  0  3  0  0  0  0  0  0
   49.0650   27.5340   44.5080 C   0  0  0  0  0  3  0  0  0  0  0  0
   49.6010   28.0920   45.6670 C   0  0  0  0  0  0  0  0  0  0  0  0
   48.9530   29.1370   46.3110 C   0  0  0  0  0  3  0  0  0  0  0  0
   45.5500   31.0800   46.9060 C   0  0  0  0  0  0  0  0  0  0  0  0
   44.4360   30.9990   46.7300 H   0  0  0  0  0  0  0  0  0  0  0  0
   45.9270   30.0780   46.9860 H   0  0  0  0  0  0  0  0  0  0  0  0
   46.0250   32.9700   45.5860 C   0  0  0  0  0  3  0  0  0  0  0  0
   46.0580   31.7040   45.6290 C   0  0  0  0  0  3  0  0  0  0  0  0
   46.2800   35.3010   42.7420 C   0  0  0  0  0  0  0  0  0  0  0  0
   47.3520   34.7920   42.0170 C   0  0  0  0  0  0  0  0  0  0  0  0
   47.9450   33.6780   42.5210 C   0  0  0  0  0  0  0  0  0  0  0  0
   47.4870   33.1200   43.6760 N   0  0  0  0  0  0  0  0  0  0  0  0
   46.4480   33.6380   44.3530 C   0  0  0  0  0  0  0  0  0  0  0  0
   45.8690   34.7200   43.8640 N   0  0  0  0  0  0  0  0  0  0  0  0
   45.7660   36.1910   42.3850 H   0  0  0  0  0  0  0  0  0  0  0  0
   47.6960   35.2560   41.1020 H   0  0  0  0  0  0  0  0  0  0  0  0
   49.0780   33.0320   41.8710 C   0  0  0  0  0  0  0  0  0  0  0  0
   50.3600   33.0450   42.3370 C   0  0  0  0  0  0  0  0  0  0  0  0
   51.4230   32.4270   41.7080 C   0  0  0  0  0  0  0  0  0  0  0  0
   51.2120   31.7410   40.5290 C   0  0  0  0  0  0  0  0  0  0  0  0
   49.9470   31.6910   40.0100 C   0  0  0  0  0  0  0  0  0  0  0  0
   48.9210   32.3300   40.6840 C   0  0  0  0  0  0  0  0  0  0  0  0
   50.5660   33.5800   43.2700 H   0  0  0  0  0  0  0  0  0  0  0  0
   52.4250   32.4460   42.0860 H   0  0  0  0  0  0  0  0  0  0  0  0
   51.9730   31.2200   39.9520 H   0  0  0  0  0  0  0  0  0  0  0  0
   49.7260   31.1690   39.0920 H   0  0  0  0  0  0  0  0  0  0  0  0
   47.9240   32.2660   40.2360 H   0  0  0  0  0  0  0  0  0  0  0  0
  1  4  1  6  0  0  0
  1  3  1  0  0  0  0
  1  2  1  0  0  0  0
  2  6  1  0  0  0  0
  2  5  1  0  0  0  0
  3  2  1  0  0  0  0
  3  7  1  1  0  0  0
  8 11  1  6  0  0  0
  8  3  1  0  0  0  0
  8  9  1  0  0  0  0
  9 13  1  0  0  0  0
  9 12  1  0  0  0  0
 10 14  1  6  0  0  0
 10  8  1  0  0  0  0
 10  9  1  0  0  0  0
 15 16  1  0  0  0  0
 15 10  1  0  0  0  0
 16 17  1  0  0  0  0
 18 16  2  0  0  0  0
 19 18  1  0  0  0  0
 20 19  2  0  0  0  0
 21 20  1  0  0  0  0
 22 21  1  0  0  0  0
 23 21  2  0  0  0  0
 23 24  1  0  0  0  0
 24 25  2  0  0  0  0
 25 19  1  0  0  0  0
 25 26  1  0  0  0  0
 26 15  2  0  0  0  0
 27 29  1  0  0  0  0
 27  1  1  0  0  0  0
 28 27  1  0  0  0  0
 30 31  2  0  0  0  0
 31 27  1  0  0  0  0
 32 37  1  0  0  0  0
 33 34  1  0  0  0  0
 33 32  2  0  0  0  0
 34 35  2  0  0  0  0
 35 36  1  0  0  0  0
 36 30  1  0  0  0  0
 37 36  2  0  0  0  0
 38 32  1  0  0  0  0
 39 33  1  0  0  0  0
 40 41  1  0  0  0  0
 40 34  1  0  0  0  0
 41 46  1  0  0  0  0
 42 47  1  0  0  0  0
 42 41  2  0  0  0  0
 43 42  1  0  0  0  0
 44 43  2  0  0  0  0
 44 45  1  0  0  0  0
 45 40  2  0  0  0  0
 48 43  1  0  0  0  0
 49 44  1  0  0  0  0
 50 45  1  0  0  0  0
M  END
>  <minimizedAffinity>
-5.42866564

>  <minimizedRMSD>
2.99918318

$$$$
