
 OpenBabel03252509063D

 51 54  0  0  1  0  0  0  0  0999 V2000
   40.1130   29.8540   39.9860 N   0  0  0  0  0  0  0  0  0  0  0  0
   41.2620   29.1830   39.5000 C   0  0  0  0  0  0  0  0  0  0  0  0
   41.2140   27.6710   39.6270 C   0  0  0  0  0  0  0  0  0  0  0  0
   39.8370   27.0780   39.4560 C   0  0  0  0  0  0  0  0  0  0  0  0
   38.8080   28.1390   39.1100 C   0  0  0  0  0  0  0  0  0  0  0  0
   38.9560   29.1710   40.2860 C   0  0  2  0  0  0  0  0  0  0  0  0
   41.3360   29.3830   38.3950 H   0  0  0  0  0  0  0  0  0  0  0  0
   42.2260   29.4900   39.9110 H   0  0  0  0  0  0  0  0  0  0  0  0
   41.9600   27.2140   38.9600 H   0  0  0  0  0  0  0  0  0  0  0  0
   41.5190   27.4350   40.6740 H   0  0  0  0  0  0  0  0  0  0  0  0
   39.8700   26.3850   38.5900 H   0  0  0  0  0  0  0  0  0  0  0  0
   39.4760   26.5250   40.3400 H   0  0  0  0  0  0  0  0  0  0  0  0
   37.8060   27.6950   39.1840 H   0  0  0  0  0  0  0  0  0  0  0  0
   39.0410   28.6550   38.1750 H   0  0  0  0  0  0  0  0  0  0  0  0
   38.9310   28.5540   41.2060 H   0  0  0  0  0  0  0  0  0  0  0  0
   40.3940   31.0880   40.6800 C   0  0  0  0  0  0  0  0  0  0  0  0
   39.4050   31.5010   41.0010 H   0  0  0  0  0  0  0  0  0  0  0  0
   41.0130   30.8950   41.5740 H   0  0  0  0  0  0  0  0  0  0  0  0
   41.0510   32.0230   39.7270 C   0  0  0  0  0  0  0  0  0  0  0  0
   40.9170   31.7020   38.6690 H   0  0  0  0  0  0  0  0  0  0  0  0
   42.1440   32.1030   39.8850 H   0  0  0  0  0  0  0  0  0  0  0  0
   38.4750   34.7170   40.1890 C   0  0  0  0  0  0  0  0  0  0  0  0
   39.0800   33.4520   40.0780 C   0  0  0  0  0  0  0  0  0  0  0  0
   40.4240   33.3680   39.8410 C   0  0  0  0  0  0  0  0  0  0  0  0
   41.1000   34.5080   39.7250 N   0  0  0  0  0  0  0  0  0  0  0  0
   40.5410   35.7170   39.8270 C   0  0  0  0  0  0  0  0  0  0  0  0
   39.2140   35.8400   40.0610 N   0  0  0  0  0  0  0  0  0  0  0  0
   37.4260   34.8190   40.3750 H   0  0  0  0  0  0  0  0  0  0  0  0
   38.4310   32.6110   40.1920 H   0  0  0  0  0  0  0  0  0  0  0  0
   41.2710   36.5030   39.7000 H   0  0  0  0  0  0  0  0  0  0  0  0
   37.8180   29.9420   40.1210 O   0  0  0  0  0  0  0  0  0  0  0  0
   35.6100   28.5510   40.6530 O   0  0  0  0  0  0  0  0  0  0  0  0
   36.6110   29.5790   41.2170 P   0  0  2  0  0  0  0  0  0  0  0  0
   35.6640   31.0040   41.3980 O   0  0  0  0  0  0  0  0  0  0  0  0
   36.0550   31.5110   42.1600 H   0  0  0  0  0  0  0  0  0  0  0  0
   37.1600   29.1450   42.7150 O   0  0  0  0  0  0  0  0  0  0  0  0
   36.6740   27.8740   43.0390 C   0  0  0  0  0  0  0  0  0  0  0  0
   36.2260   27.8020   44.0330 H   0  0  0  0  0  0  0  0  0  0  0  0
   35.9070   27.5610   42.2770 H   0  0  0  0  0  0  0  0  0  0  0  0
   37.8460   26.9610   42.9090 C   0  0  0  0  0  0  0  0  0  0  0  0
   37.8530   25.7180   42.3090 C   0  0  0  0  0  0  0  0  0  0  0  0
   36.9080   25.3880   41.8980 H   0  0  0  0  0  0  0  0  0  0  0  0
   39.0160   24.9780   42.2600 C   0  0  0  0  0  3  0  0  0  0  0  0
   40.1610   25.5080   42.8210 C   0  0  0  0  0  0  0  0  0  0  0  0
   41.3120   24.8390   42.8040 N   0  0  0  0  0  0  0  0  0  0  0  0
   42.4580   25.3030   43.3330 C   0  0  0  0  0  0  0  0  0  0  0  0
   43.4020   24.7760   43.3280 H   0  0  0  0  0  0  0  0  0  0  0  0
   42.4990   26.5450   43.9440 C   0  0  0  0  0  3  0  0  0  0  0  0
   41.3420   27.2840   43.9940 C   0  0  0  0  0  3  0  0  0  0  0  0
   40.2060   26.7430   43.4310 C   0  0  0  0  0  0  0  0  0  0  0  0
   39.0190   27.4760   43.4700 C   0  0  0  0  0  3  0  0  0  0  0  0
  1  6  1  0  0  0  0
  1 16  1  0  0  0  0
  2  3  1  0  0  0  0
  2  8  1  0  0  0  0
  2  1  1  0  0  0  0
  3 10  1  0  0  0  0
  4  3  1  0  0  0  0
  4 12  1  0  0  0  0
  5 13  1  0  0  0  0
  5  4  1  0  0  0  0
  5  6  1  0  0  0  0
  6 15  1  1  0  0  0
  7  2  1  0  0  0  0
  9  3  1  0  0  0  0
 11  4  1  0  0  0  0
 14  5  1  0  0  0  0
 16 17  1  0  0  0  0
 16 18  1  0  0  0  0
 19 24  1  0  0  0  0
 19 21  1  0  0  0  0
 19 16  1  0  0  0  0
 20 19  1  0  0  0  0
 22 28  1  0  0  0  0
 23 22  1  0  0  0  0
 23 29  1  0  0  0  0
 24 23  2  0  0  0  0
 25 26  2  0  0  0  0
 25 24  1  0  0  0  0
 26 27  1  0  0  0  0
 27 22  2  0  0  0  0
 30 26  1  0  0  0  0
 31  6  1  0  0  0  0
 31 33  1  0  0  0  0
 33 32  2  6  0  0  0
 33 34  1  0  0  0  0
 33 36  1  0  0  0  0
 34 35  1  0  0  0  0
 36 37  1  0  0  0  0
 37 38  1  0  0  0  0
 39 37  1  0  0  0  0
 40 37  1  0  0  0  0
 40 51  1  0  0  0  0
 41 40  2  0  0  0  0
 42 41  1  0  0  0  0
 43 41  1  0  0  0  0
 43 44  2  0  0  0  0
 44 50  1  0  0  0  0
 45 44  1  0  0  0  0
 45 46  2  0  0  0  0
 46 48  1  0  0  0  0
 47 46  1  0  0  0  0
 48 49  2  0  0  0  0
 50 51  2  0  0  0  0
 50 49  1  0  0  0  0
M  END
>  <minimizedAffinity>
-6.35379028

$$$$

 OpenBabel03252509063D

 51 54  0  0  1  0  0  0  0  0999 V2000
   37.9400   26.9920   42.7380 N   0  0  0  0  0  0  0  0  0  0  0  0
   39.1810   26.7350   43.3680 C   0  0  0  0  0  0  0  0  0  0  0  0
   40.3250   27.6160   42.9000 C   0  0  0  0  0  0  0  0  0  0  0  0
   39.9140   29.0220   42.5350 C   0  0  0  0  0  0  0  0  0  0  0  0
   38.4390   29.2630   42.8010 C   0  0  0  0  0  0  0  0  0  0  0  0
   37.7410   28.1210   41.9760 C   0  0  2  0  0  0  0  0  0  0  0  0
   39.0650   26.9620   44.4640 H   0  0  0  0  0  0  0  0  0  0  0  0
   39.5550   25.7090   43.3280 H   0  0  0  0  0  0  0  0  0  0  0  0
   41.1450   27.5890   43.6320 H   0  0  0  0  0  0  0  0  0  0  0  0
   40.7080   27.1570   41.9570 H   0  0  0  0  0  0  0  0  0  0  0  0
   40.4660   29.7200   43.1980 H   0  0  0  0  0  0  0  0  0  0  0  0
   40.1220   29.2900   41.4850 H   0  0  0  0  0  0  0  0  0  0  0  0
   38.1520   30.2210   42.3480 H   0  0  0  0  0  0  0  0  0  0  0  0
   38.1790   29.1270   43.8540 H   0  0  0  0  0  0  0  0  0  0  0  0
   38.2110   28.1720   40.9740 H   0  0  0  0  0  0  0  0  0  0  0  0
   37.1660   25.8090   42.4450 C   0  0  0  0  0  0  0  0  0  0  0  0
   36.4860   25.6530   43.3200 H   0  0  0  0  0  0  0  0  0  0  0  0
   36.5570   25.9610   41.5360 H   0  0  0  0  0  0  0  0  0  0  0  0
   38.1000   24.6580   42.3150 C   0  0  0  0  0  0  0  0  0  0  0  0
   38.0790   24.0010   43.2140 H   0  0  0  0  0  0  0  0  0  0  0  0
   39.1550   24.9700   42.1910 H   0  0  0  0  0  0  0  0  0  0  0  0
   35.9930   23.1030   39.6220 C   0  0  0  0  0  0  0  0  0  0  0  0
   36.3980   23.8980   40.7090 C   0  0  0  0  0  0  0  0  0  0  0  0
   37.6840   23.8100   41.1640 C   0  0  0  0  0  0  0  0  0  0  0  0
   38.4990   22.9600   40.5440 N   0  0  0  0  0  0  0  0  0  0  0  0
   38.1310   22.1970   39.5120 C   0  0  0  0  0  0  0  0  0  0  0  0
   36.8660   22.2580   39.0330 N   0  0  0  0  0  0  0  0  0  0  0  0
   34.9940   23.1480   39.2400 H   0  0  0  0  0  0  0  0  0  0  0  0
   35.6520   24.5420   41.1210 H   0  0  0  0  0  0  0  0  0  0  0  0
   38.9460   21.5820   39.1610 H   0  0  0  0  0  0  0  0  0  0  0  0
   36.4240   28.5470   41.9780 O   0  0  0  0  0  0  0  0  0  0  0  0
   35.9430   31.0880   41.3420 O   0  0  0  0  0  0  0  0  0  0  0  0
   36.0880   29.6600   40.7790 P   0  0  2  0  0  0  0  0  0  0  0  0
   34.5120   29.2970   40.1940 O   0  0  0  0  0  0  0  0  0  0  0  0
   34.6300   28.6700   39.4290 H   0  0  0  0  0  0  0  0  0  0  0  0
   37.1280   29.6100   39.4940 O   0  0  0  0  0  0  0  0  0  0  0  0
   37.0860   30.8310   38.8130 C   0  0  0  0  0  0  0  0  0  0  0  0
   37.0410   30.7390   37.7250 H   0  0  0  0  0  0  0  0  0  0  0  0
   36.1950   31.4230   39.1600 H   0  0  0  0  0  0  0  0  0  0  0  0
   38.3150   31.5600   39.2410 C   0  0  0  0  0  0  0  0  0  0  0  0
   39.5810   31.0250   39.3680 C   0  0  0  0  0  0  0  0  0  0  0  0
   39.6750   29.9740   39.1290 H   0  0  0  0  0  0  0  0  0  0  0  0
   40.6320   31.8200   39.7760 C   0  0  0  0  0  3  0  0  0  0  0  0
   40.3870   33.1500   40.0520 C   0  0  0  0  0  0  0  0  0  0  0  0
   41.3610   33.9650   40.4510 N   0  0  0  0  0  0  0  0  0  0  0  0
   41.1830   35.2680   40.7330 C   0  0  0  0  0  0  0  0  0  0  0  0
   41.9610   35.9450   41.0570 H   0  0  0  0  0  0  0  0  0  0  0  0
   39.9300   35.8480   40.6200 C   0  0  0  0  0  3  0  0  0  0  0  0
   38.8820   35.0580   40.2130 C   0  0  0  0  0  3  0  0  0  0  0  0
   39.1420   33.7310   39.9410 C   0  0  0  0  0  0  0  0  0  0  0  0
   38.0910   32.9110   39.5270 C   0  0  0  0  0  3  0  0  0  0  0  0
  1  2  1  0  0  0  0
  2  7  1  0  0  0  0
  3  2  1  0  0  0  0
  3  9  1  0  0  0  0
  4  5  1  0  0  0  0
  4  3  1  0  0  0  0
  4 11  1  0  0  0  0
  5 14  1  0  0  0  0
  6 15  1  6  0  0  0
  6 31  1  0  0  0  0
  6  1  1  0  0  0  0
  6  5  1  0  0  0  0
  8  2  1  0  0  0  0
 10  3  1  0  0  0  0
 12  4  1  0  0  0  0
 13  5  1  0  0  0  0
 16  1  1  0  0  0  0
 16 17  1  0  0  0  0
 18 16  1  0  0  0  0
 19 16  1  0  0  0  0
 19 20  1  0  0  0  0
 21 19  1  0  0  0  0
 22 23  1  0  0  0  0
 23 29  1  0  0  0  0
 23 24  2  0  0  0  0
 24 19  1  0  0  0  0
 25 24  1  0  0  0  0
 26 25  2  0  0  0  0
 27 26  1  0  0  0  0
 27 22  2  0  0  0  0
 28 22  1  0  0  0  0
 30 26  1  0  0  0  0
 33 32  2  1  0  0  0
 33 31  1  0  0  0  0
 34 33  1  0  0  0  0
 35 34  1  0  0  0  0
 36 33  1  0  0  0  0
 37 39  1  0  0  0  0
 37 40  1  0  0  0  0
 37 36  1  0  0  0  0
 38 37  1  0  0  0  0
 40 41  2  0  0  0  0
 40 51  1  0  0  0  0
 41 43  1  0  0  0  0
 42 41  1  0  0  0  0
 43 44  2  0  0  0  0
 44 45  1  0  0  0  0
 45 46  2  0  0  0  0
 46 47  1  0  0  0  0
 48 46  1  0  0  0  0
 49 48  2  0  0  0  0
 50 44  1  0  0  0  0
 50 49  1  0  0  0  0
 51 50  2  0  0  0  0
M  END
>  <minimizedAffinity>
-6.34136295

$$$$

 OpenBabel03252509063D

 51 54  0  0  1  0  0  0  0  0999 V2000
   36.7860   25.9630   40.1840 N   0  0  0  0  0  0  0  0  0  0  0  0
   36.7680   24.7550   39.4440 C   0  0  0  0  0  0  0  0  0  0  0  0
   37.6910   23.6730   39.9740 C   0  0  0  0  0  0  0  0  0  0  0  0
   37.8350   23.6630   41.4770 C   0  0  0  0  0  0  0  0  0  0  0  0
   36.9450   24.7030   42.1330 C   0  0  0  0  0  0  0  0  0  0  0  0
   37.3790   26.0370   41.4230 C   0  0  2  0  0  0  0  0  0  0  0  0
   35.7330   24.3210   39.5200 H   0  0  0  0  0  0  0  0  0  0  0  0
   36.9700   24.8270   38.3730 H   0  0  0  0  0  0  0  0  0  0  0  0
   37.3960   22.6950   39.5690 H   0  0  0  0  0  0  0  0  0  0  0  0
   38.7070   23.9040   39.5740 H   0  0  0  0  0  0  0  0  0  0  0  0
   37.4820   22.6770   41.8460 H   0  0  0  0  0  0  0  0  0  0  0  0
   38.8680   23.8240   41.8280 H   0  0  0  0  0  0  0  0  0  0  0  0
   37.2230   24.7860   43.1930 H   0  0  0  0  0  0  0  0  0  0  0  0
   35.8860   24.5370   41.9220 H   0  0  0  0  0  0  0  0  0  0  0  0
   38.4860   26.0370   41.4800 H   0  0  0  0  0  0  0  0  0  0  0  0
   36.7090   27.1560   39.3750 C   0  0  0  0  0  0  0  0  0  0  0  0
   35.9680   26.9400   38.5650 H   0  0  0  0  0  0  0  0  0  0  0  0
   36.3490   28.0080   39.9780 H   0  0  0  0  0  0  0  0  0  0  0  0
   38.0510   27.4080   38.7830 C   0  0  0  0  0  0  0  0  0  0  0  0
   38.2190   26.8080   37.8600 H   0  0  0  0  0  0  0  0  0  0  0  0
   38.8810   27.1490   39.4690 H   0  0  0  0  0  0  0  0  0  0  0  0
   39.4950   30.7010   37.6980 C   0  0  0  0  0  0  0  0  0  0  0  0
   39.3850   29.3520   38.0800 C   0  0  0  0  0  0  0  0  0  0  0  0
   38.1540   28.8370   38.3810 C   0  0  0  0  0  0  0  0  0  0  0  0
   37.1080   29.6550   38.2950 N   0  0  0  0  0  0  0  0  0  0  0  0
   37.1950   30.9380   37.9350 C   0  0  0  0  0  0  0  0  0  0  0  0
   38.3960   31.4830   37.6300 N   0  0  0  0  0  0  0  0  0  0  0  0
   40.4430   31.1360   37.4550 H   0  0  0  0  0  0  0  0  0  0  0  0
   40.2970   28.7980   38.1100 H   0  0  0  0  0  0  0  0  0  0  0  0
   36.2270   31.4170   37.9330 H   0  0  0  0  0  0  0  0  0  0  0  0
   36.7960   26.9880   42.2440 O   0  0  0  0  0  0  0  0  0  0  0  0
   38.8810   27.2450   43.8810 O   0  0  0  0  0  0  0  0  0  0  0  0
   37.9050   28.0080   42.9640 P   0  0  2  0  0  0  0  0  0  0  0  0
   37.0240   29.0050   44.0550 O   0  0  0  0  0  0  0  0  0  0  0  0
   36.7630   29.8210   43.5480 H   0  0  0  0  0  0  0  0  0  0  0  0
   38.7030   28.9990   41.9080 O   0  0  0  0  0  0  0  0  0  0  0  0
   38.0010   30.2020   41.7760 C   0  0  0  0  0  0  0  0  0  0  0  0
   37.1740   30.1660   41.0620 H   0  0  0  0  0  0  0  0  0  0  0  0
   37.5950   30.5100   42.7790 H   0  0  0  0  0  0  0  0  0  0  0  0
   39.0220   31.2090   41.3670 C   0  0  0  0  0  0  0  0  0  0  0  0
   40.3850   31.0060   41.2880 C   0  0  0  0  0  0  0  0  0  0  0  0
   40.7300   30.0150   41.5510 H   0  0  0  0  0  0  0  0  0  0  0  0
   41.2180   32.0320   40.8920 C   0  0  0  0  0  3  0  0  0  0  0  0
   40.6580   33.2550   40.5820 C   0  0  0  0  0  0  0  0  0  0  0  0
   41.4110   34.2830   40.1950 N   0  0  0  0  0  0  0  0  0  0  0  0
   40.9240   35.4950   39.8790 C   0  0  0  0  0  0  0  0  0  0  0  0
   41.5180   36.3410   39.5630 H   0  0  0  0  0  0  0  0  0  0  0  0
   39.5620   35.7450   39.9430 C   0  0  0  0  0  3  0  0  0  0  0  0
   38.7310   34.7240   40.3370 C   0  0  0  0  0  3  0  0  0  0  0  0
   39.3040   33.5080   40.6450 C   0  0  0  0  0  0  0  0  0  0  0  0
   38.4790   32.4580   41.0470 C   0  0  0  0  0  3  0  0  0  0  0  0
  1  6  1  0  0  0  0
  2  7  1  0  0  0  0
  2  3  1  0  0  0  0
  2  1  1  0  0  0  0
  3  4  1  0  0  0  0
  4 12  1  0  0  0  0
  4 11  1  0  0  0  0
  4  5  1  0  0  0  0
  5 13  1  0  0  0  0
  6 15  1  6  0  0  0
  6  5  1  0  0  0  0
  6 31  1  0  0  0  0
  8  2  1  0  0  0  0
  9  3  1  0  0  0  0
 10  3  1  0  0  0  0
 14  5  1  0  0  0  0
 16 18  1  0  0  0  0
 16  1  1  0  0  0  0
 17 16  1  0  0  0  0
 19 16  1  0  0  0  0
 19 21  1  0  0  0  0
 20 19  1  0  0  0  0
 22 23  1  0  0  0  0
 23 29  1  0  0  0  0
 23 24  2  0  0  0  0
 24 19  1  0  0  0  0
 25 24  1  0  0  0  0
 26 25  2  0  0  0  0
 27 22  2  0  0  0  0
 27 26  1  0  0  0  0
 28 22  1  0  0  0  0
 30 26  1  0  0  0  0
 31 33  1  0  0  0  0
 33 32  2  1  0  0  0
 33 34  1  0  0  0  0
 35 34  1  0  0  0  0
 36 33  1  0  0  0  0
 37 36  1  0  0  0  0
 37 39  1  0  0  0  0
 38 37  1  0  0  0  0
 40 37  1  0  0  0  0
 41 40  1  0  0  0  0
 41 42  1  0  0  0  0
 43 41  2  0  0  0  0
 44 50  1  0  0  0  0
 44 43  1  0  0  0  0
 45 44  2  0  0  0  0
 46 48  2  0  0  0  0
 46 45  1  0  0  0  0
 47 46  1  0  0  0  0
 48 49  1  0  0  0  0
 49 50  2  0  0  0  0
 50 51  1  0  0  0  0
 51 40  2  0  0  0  0
M  END
>  <minimizedAffinity>
-6.04476357

$$$$

 OpenBabel03252509063D

 51 54  0  0  1  0  0  0  0  0999 V2000
   38.8240   30.2550   38.5240 N   0  0  0  0  0  0  0  0  0  0  0  0
   40.1410   29.9140   38.1340 C   0  0  0  0  0  0  0  0  0  0  0  0
   40.7760   28.8030   38.9510 C   0  0  0  0  0  0  0  0  0  0  0  0
   39.8050   27.7470   39.4210 C   0  0  0  0  0  0  0  0  0  0  0  0
   38.4040   27.9980   38.8920 C   0  0  0  0  0  0  0  0  0  0  0  0
   38.0990   29.4600   39.3820 C   0  0  2  0  0  0  0  0  0  0  0  0
   40.0970   29.5160   37.0830 H   0  0  0  0  0  0  0  0  0  0  0  0
   40.8750   30.7220   38.1030 H   0  0  0  0  0  0  0  0  0  0  0  0
   41.6340   28.3800   38.4090 H   0  0  0  0  0  0  0  0  0  0  0  0
   41.1740   29.2820   39.8770 H   0  0  0  0  0  0  0  0  0  0  0  0
   40.1270   26.7740   38.9940 H   0  0  0  0  0  0  0  0  0  0  0  0
   39.7450   27.6510   40.5190 H   0  0  0  0  0  0  0  0  0  0  0  0
   37.7070   27.3230   39.4090 H   0  0  0  0  0  0  0  0  0  0  0  0
   38.3640   27.9910   37.8010 H   0  0  0  0  0  0  0  0  0  0  0  0
   38.3690   29.4580   40.4570 H   0  0  0  0  0  0  0  0  0  0  0  0
   38.5380   31.6700   38.4770 C   0  0  0  0  0  0  0  0  0  0  0  0
   39.2930   32.1200   37.7840 H   0  0  0  0  0  0  0  0  0  0  0  0
   37.5260   31.8460   38.0740 H   0  0  0  0  0  0  0  0  0  0  0  0
   38.7090   32.2280   39.8460 C   0  0  0  0  0  0  0  0  0  0  0  0
   39.2770   31.5380   40.5100 H   0  0  0  0  0  0  0  0  0  0  0  0
   37.7450   32.4190   40.3570 H   0  0  0  0  0  0  0  0  0  0  0  0
   39.7110   35.8270   40.2400 C   0  0  0  0  0  0  0  0  0  0  0  0
   38.9730   34.6310   40.3030 C   0  0  0  0  0  0  0  0  0  0  0  0
   39.5000   33.4870   39.7720 C   0  0  0  0  0  0  0  0  0  0  0  0
   40.7050   33.5670   39.2130 N   0  0  0  0  0  0  0  0  0  0  0  0
   41.4190   34.6940   39.1440 C   0  0  0  0  0  0  0  0  0  0  0  0
   40.9300   35.8470   39.6590 N   0  0  0  0  0  0  0  0  0  0  0  0
   39.3280   36.7400   40.6470 H   0  0  0  0  0  0  0  0  0  0  0  0
   38.0190   34.6950   40.7780 H   0  0  0  0  0  0  0  0  0  0  0  0
   42.3660   34.5340   38.6500 H   0  0  0  0  0  0  0  0  0  0  0  0
   36.7330   29.5420   39.1680 O   0  0  0  0  0  0  0  0  0  0  0  0
   34.3590   29.0580   40.2740 O   0  0  0  0  0  0  0  0  0  0  0  0
   35.8360   29.3870   40.5690 P   0  0  2  0  0  0  0  0  0  0  0  0
   35.7630   30.9500   41.2840 O   0  0  0  0  0  0  0  0  0  0  0  0
   36.5330   31.0120   41.9120 H   0  0  0  0  0  0  0  0  0  0  0  0
   36.4860   28.3530   41.6820 O   0  0  0  0  0  0  0  0  0  0  0  0
   36.9270   29.0800   42.7930 C   0  0  0  0  0  0  0  0  0  0  0  0
   36.6700   30.1420   42.7680 H   0  0  0  0  0  0  0  0  0  0  0  0
   36.4960   28.6290   43.7290 H   0  0  0  0  0  0  0  0  0  0  0  0
   38.4050   28.8830   42.8290 C   0  0  0  0  0  0  0  0  0  0  0  0
   39.3650   29.8590   42.6480 C   0  0  0  0  0  0  0  0  0  0  0  0
   38.9930   30.8580   42.4650 H   0  0  0  0  0  0  0  0  0  0  0  0
   40.7040   29.5330   42.7070 C   0  0  0  0  0  3  0  0  0  0  0  0
   41.0550   28.2200   42.9490 C   0  0  0  0  0  0  0  0  0  0  0  0
   42.3320   27.8470   43.0160 N   0  0  0  0  0  0  0  0  0  0  0  0
   42.7350   26.5850   43.2480 C   0  0  0  0  0  0  0  0  0  0  0  0
   43.7640   26.2630   43.3070 H   0  0  0  0  0  0  0  0  0  0  0  0
   41.8070   25.5740   43.4360 C   0  0  0  0  0  3  0  0  0  0  0  0
   40.4720   25.8950   43.3770 C   0  0  0  0  0  3  0  0  0  0  0  0
   40.1360   27.2110   43.1350 C   0  0  0  0  0  0  0  0  0  0  0  0
   38.7860   27.5590   43.0720 C   0  0  0  0  0  3  0  0  0  0  0  0
  1  6  1  0  0  0  0
  2  1  1  0  0  0  0
  2  3  1  0  0  0  0
  3  4  1  0  0  0  0
  3 10  1  0  0  0  0
  4 12  1  0  0  0  0
  5  6  1  0  0  0  0
  5 13  1  0  0  0  0
  5  4  1  0  0  0  0
  6 15  1  1  0  0  0
  7  2  1  0  0  0  0
  8  2  1  0  0  0  0
  9  3  1  0  0  0  0
 11  4  1  0  0  0  0
 14  5  1  0  0  0  0
 16  1  1  0  0  0  0
 16 19  1  0  0  0  0
 17 16  1  0  0  0  0
 18 16  1  0  0  0  0
 19 21  1  0  0  0  0
 19 20  1  0  0  0  0
 22 23  1  0  0  0  0
 22 28  1  0  0  0  0
 23 29  1  0  0  0  0
 24 19  1  0  0  0  0
 24 23  2  0  0  0  0
 25 24  1  0  0  0  0
 26 25  2  0  0  0  0
 26 27  1  0  0  0  0
 27 22  2  0  0  0  0
 30 26  1  0  0  0  0
 31  6  1  0  0  0  0
 31 33  1  0  0  0  0
 33 32  2  6  0  0  0
 33 34  1  0  0  0  0
 33 36  1  0  0  0  0
 34 35  1  0  0  0  0
 36 37  1  0  0  0  0
 37 40  1  0  0  0  0
 37 39  1  0  0  0  0
 38 37  1  0  0  0  0
 40 51  1  0  0  0  0
 41 43  1  0  0  0  0
 41 40  2  0  0  0  0
 42 41  1  0  0  0  0
 43 44  2  0  0  0  0
 44 45  1  0  0  0  0
 44 50  1  0  0  0  0
 45 46  2  0  0  0  0
 46 47  1  0  0  0  0
 46 48  1  0  0  0  0
 49 48  2  0  0  0  0
 50 49  1  0  0  0  0
 51 50  2  0  0  0  0
M  END
>  <minimizedAffinity>
-6.01478958

$$$$

 OpenBabel03252509063D

 51 54  0  0  1  0  0  0  0  0999 V2000
   38.4870   27.5100   42.8310 N   0  0  0  0  0  0  0  0  0  0  0  0
   39.7720   27.3630   43.4060 C   0  0  0  0  0  0  0  0  0  0  0  0
   40.8190   28.3260   42.8750 C   0  0  0  0  0  0  0  0  0  0  0  0
   40.2790   29.6890   42.5130 C   0  0  0  0  0  0  0  0  0  0  0  0
   38.8030   29.8140   42.8440 C   0  0  0  0  0  0  0  0  0  0  0  0
   38.1630   28.6070   42.0660 C   0  0  2  0  0  0  0  0  0  0  0  0
   39.6870   27.5980   44.5040 H   0  0  0  0  0  0  0  0  0  0  0  0
   40.2260   26.3700   43.3610 H   0  0  0  0  0  0  0  0  0  0  0  0
   41.6710   28.3770   43.5690 H   0  0  0  0  0  0  0  0  0  0  0  0
   41.1950   27.8850   41.9210 H   0  0  0  0  0  0  0  0  0  0  0  0
   40.8030   30.4400   43.1410 H   0  0  0  0  0  0  0  0  0  0  0  0
   40.4170   29.9560   41.4510 H   0  0  0  0  0  0  0  0  0  0  0  0
   38.4190   30.7400   42.3930 H   0  0  0  0  0  0  0  0  0  0  0  0
   38.6030   29.6750   43.9090 H   0  0  0  0  0  0  0  0  0  0  0  0
   38.5810   28.6800   41.0420 H   0  0  0  0  0  0  0  0  0  0  0  0
   37.7990   26.2640   42.5890 C   0  0  0  0  0  0  0  0  0  0  0  0
   37.9580   25.6350   43.5010 H   0  0  0  0  0  0  0  0  0  0  0  0
   36.7170   26.4410   42.4540 H   0  0  0  0  0  0  0  0  0  0  0  0
   38.4180   25.6100   41.4040 C   0  0  0  0  0  0  0  0  0  0  0  0
   38.9910   24.6970   41.6840 H   0  0  0  0  0  0  0  0  0  0  0  0
   39.1330   26.2670   40.8730 H   0  0  0  0  0  0  0  0  0  0  0  0
   35.6650   23.5720   39.8610 C   0  0  0  0  0  0  0  0  0  0  0  0
   36.6780   24.0030   40.7360 C   0  0  0  0  0  0  0  0  0  0  0  0
   37.3480   25.1650   40.4690 C   0  0  0  0  0  0  0  0  0  0  0  0
   37.0000   25.8380   39.3760 N   0  0  0  0  0  0  0  0  0  0  0  0
   36.0410   25.4430   38.5340 C   0  0  0  0  0  0  0  0  0  0  0  0
   35.3560   24.2980   38.7650 N   0  0  0  0  0  0  0  0  0  0  0  0
   35.1210   22.6680   40.0400 H   0  0  0  0  0  0  0  0  0  0  0  0
   36.8650   23.3760   41.5800 H   0  0  0  0  0  0  0  0  0  0  0  0
   35.9230   26.1360   37.7140 H   0  0  0  0  0  0  0  0  0  0  0  0
   36.8170   28.9260   42.1240 O   0  0  0  0  0  0  0  0  0  0  0  0
   34.7980   29.0050   40.3890 O   0  0  0  0  0  0  0  0  0  0  0  0
   36.2190   29.5260   40.6850 P   0  0  2  0  0  0  0  0  0  0  0  0
   37.1690   28.8340   39.4280 O   0  0  0  0  0  0  0  0  0  0  0  0
   37.9170   29.4670   39.2560 H   0  0  0  0  0  0  0  0  0  0  0  0
   36.3130   31.1700   40.5420 O   0  0  0  0  0  0  0  0  0  0  0  0
   36.9480   31.4980   39.3390 C   0  0  0  0  0  0  0  0  0  0  0  0
   37.4570   30.6610   38.8550 H   0  0  0  0  0  0  0  0  0  0  0  0
   36.1930   31.9230   38.6210 H   0  0  0  0  0  0  0  0  0  0  0  0
   37.9090   32.5850   39.6880 C   0  0  0  0  0  0  0  0  0  0  0  0
   37.6180   33.9300   39.7970 C   0  0  0  0  0  0  0  0  0  0  0  0
   36.5890   34.2060   39.6100 H   0  0  0  0  0  0  0  0  0  0  0  0
   38.6110   34.8290   40.1280 C   0  0  0  0  0  3  0  0  0  0  0  0
   39.8890   34.3530   40.3440 C   0  0  0  0  0  0  0  0  0  0  0  0
   40.8870   35.1740   40.6660 N   0  0  0  0  0  0  0  0  0  0  0  0
   42.1500   34.7700   40.8880 C   0  0  0  0  0  0  0  0  0  0  0  0
   42.9730   35.4190   41.1510 H   0  0  0  0  0  0  0  0  0  0  0  0
   42.4880   33.4300   40.7900 C   0  0  0  0  0  3  0  0  0  0  0  0
   41.5010   32.5320   40.4600 C   0  0  0  0  0  3  0  0  0  0  0  0
   40.2290   33.0210   40.2470 C   0  0  0  0  0  0  0  0  0  0  0  0
   39.2120   32.1270   39.9110 C   0  0  0  0  0  3  0  0  0  0  0  0
  1  2  1  0  0  0  0
  2  7  1  0  0  0  0
  3  2  1  0  0  0  0
  3  9  1  0  0  0  0
  4  5  1  0  0  0  0
  4  3  1  0  0  0  0
  4 11  1  0  0  0  0
  5 14  1  0  0  0  0
  6 15  1  6  0  0  0
  6 31  1  0  0  0  0
  6  1  1  0  0  0  0
  6  5  1  0  0  0  0
  8  2  1  0  0  0  0
 10  3  1  0  0  0  0
 12  4  1  0  0  0  0
 13  5  1  0  0  0  0
 16  1  1  0  0  0  0
 16 17  1  0  0  0  0
 18 16  1  0  0  0  0
 19 20  1  0  0  0  0
 19 16  1  0  0  0  0
 21 19  1  0  0  0  0
 22 28  1  0  0  0  0
 22 23  1  0  0  0  0
 23 29  1  0  0  0  0
 24 23  2  0  0  0  0
 24 19  1  0  0  0  0
 25 24  1  0  0  0  0
 26 27  1  0  0  0  0
 26 25  2  0  0  0  0
 27 22  2  0  0  0  0
 30 26  1  0  0  0  0
 33 32  2  6  0  0  0
 33 31  1  0  0  0  0
 34 33  1  0  0  0  0
 35 34  1  0  0  0  0
 36 33  1  0  0  0  0
 37 40  1  0  0  0  0
 37 36  1  0  0  0  0
 38 37  1  0  0  0  0
 39 37  1  0  0  0  0
 40 41  2  0  0  0  0
 40 51  1  0  0  0  0
 41 43  1  0  0  0  0
 42 41  1  0  0  0  0
 43 44  2  0  0  0  0
 44 45  1  0  0  0  0
 45 46  2  0  0  0  0
 46 47  1  0  0  0  0
 48 46  1  0  0  0  0
 49 48  2  0  0  0  0
 50 44  1  0  0  0  0
 50 49  1  0  0  0  0
 51 50  2  0  0  0  0
M  END
>  <minimizedAffinity>
-6.00465107

$$$$

 OpenBabel03252509063D

 51 54  0  0  1  0  0  0  0  0999 V2000
   39.4240   29.9990   37.9870 N   0  0  0  0  0  0  0  0  0  0  0  0
   40.4080   29.1670   37.4000 C   0  0  0  0  0  0  0  0  0  0  0  0
   40.6820   27.8790   38.1550 C   0  0  0  0  0  0  0  0  0  0  0  0
   39.4710   27.2900   38.8360 C   0  0  0  0  0  0  0  0  0  0  0  0
   38.2150   28.0890   38.5380 C   0  0  0  0  0  0  0  0  0  0  0  0
   38.6060   29.5420   38.9950 C   0  0  2  0  0  0  0  0  0  0  0  0
   40.0260   28.8410   36.3930 H   0  0  0  0  0  0  0  0  0  0  0  0
   41.3840   29.6160   37.2040 H   0  0  0  0  0  0  0  0  0  0  0  0
   41.1930   27.1600   37.4990 H   0  0  0  0  0  0  0  0  0  0  0  0
   41.3930   28.1420   38.9750 H   0  0  0  0  0  0  0  0  0  0  0  0
   39.3010   26.2780   38.4120 H   0  0  0  0  0  0  0  0  0  0  0  0
   39.5710   27.2040   39.9320 H   0  0  0  0  0  0  0  0  0  0  0  0
   37.4100   27.7390   39.1980 H   0  0  0  0  0  0  0  0  0  0  0  0
   37.9860   28.1210   37.4700 H   0  0  0  0  0  0  0  0  0  0  0  0
   39.0360   29.4110   40.0080 H   0  0  0  0  0  0  0  0  0  0  0  0
   39.7190   31.4100   37.9150 C   0  0  0  0  0  0  0  0  0  0  0  0
   40.3510   31.5530   37.0030 H   0  0  0  0  0  0  0  0  0  0  0  0
   38.7890   31.9940   37.8070 H   0  0  0  0  0  0  0  0  0  0  0  0
   40.4890   31.7900   39.1310 C   0  0  0  0  0  0  0  0  0  0  0  0
   41.5880   31.7290   38.9650 H   0  0  0  0  0  0  0  0  0  0  0  0
   40.2750   31.1370   39.9990 H   0  0  0  0  0  0  0  0  0  0  0  0
   40.8950   35.4950   39.6030 C   0  0  0  0  0  0  0  0  0  0  0  0
   41.1610   34.1530   39.2780 C   0  0  0  0  0  0  0  0  0  0  0  0
   40.1940   33.2070   39.4800 C   0  0  0  0  0  0  0  0  0  0  0  0
   39.0320   33.6150   39.9840 N   0  0  0  0  0  0  0  0  0  0  0  0
   38.7630   34.8850   40.2990 C   0  0  0  0  0  0  0  0  0  0  0  0
   39.6960   35.8490   40.1120 N   0  0  0  0  0  0  0  0  0  0  0  0
   41.6300   36.2600   39.4570 H   0  0  0  0  0  0  0  0  0  0  0  0
   42.1320   33.9510   38.8800 H   0  0  0  0  0  0  0  0  0  0  0  0
   37.7630   34.9930   40.6920 H   0  0  0  0  0  0  0  0  0  0  0  0
   37.3700   30.1670   39.0100 O   0  0  0  0  0  0  0  0  0  0  0  0
   35.4130   29.8790   40.7940 O   0  0  0  0  0  0  0  0  0  0  0  0
   36.8100   30.4850   40.5510 P   0  0  2  0  0  0  0  0  0  0  0  0
   36.5320   32.1810   40.6360 O   0  0  0  0  0  0  0  0  0  0  0  0
   37.3740   32.5910   40.9730 H   0  0  0  0  0  0  0  0  0  0  0  0
   37.8700   30.0870   41.7560 O   0  0  0  0  0  0  0  0  0  0  0  0
   37.2520   29.2060   42.6490 C   0  0  0  0  0  0  0  0  0  0  0  0
   37.3250   29.5020   43.6980 H   0  0  0  0  0  0  0  0  0  0  0  0
   36.1640   29.1040   42.3810 H   0  0  0  0  0  0  0  0  0  0  0  0
   37.9060   27.8860   42.4140 C   0  0  0  0  0  0  0  0  0  0  0  0
   39.2080   27.5520   42.7280 C   0  0  0  0  0  0  0  0  0  0  0  0
   39.7970   28.3320   43.1900 H   0  0  0  0  0  0  0  0  0  0  0  0
   39.6840   26.2860   42.4530 C   0  0  0  0  0  3  0  0  0  0  0  0
   38.8340   25.3740   41.8610 C   0  0  0  0  0  0  0  0  0  0  0  0
   39.2380   24.1390   41.5720 N   0  0  0  0  0  0  0  0  0  0  0  0
   38.4560   23.2080   40.9960 C   0  0  0  0  0  0  0  0  0  0  0  0
   38.7650   22.2010   40.7540 H   0  0  0  0  0  0  0  0  0  0  0  0
   37.1430   23.4990   40.6640 C   0  0  0  0  0  3  0  0  0  0  0  0
   36.6670   24.7580   40.9370 C   0  0  0  0  0  3  0  0  0  0  0  0
   37.5270   25.6600   41.5280 C   0  0  0  0  0  0  0  0  0  0  0  0
   37.0640   26.9440   41.8140 C   0  0  0  0  0  3  0  0  0  0  0  0
  1  6  1  0  0  0  0
  2  1  1  0  0  0  0
  2  3  1  0  0  0  0
  3  4  1  0  0  0  0
  3 10  1  0  0  0  0
  4 12  1  0  0  0  0
  5  4  1  0  0  0  0
  5  6  1  0  0  0  0
  5 13  1  0  0  0  0
  6 31  1  0  0  0  0
  6 15  1  1  0  0  0
  7  2  1  0  0  0  0
  8  2  1  0  0  0  0
  9  3  1  0  0  0  0
 11  4  1  0  0  0  0
 14  5  1  0  0  0  0
 16  1  1  0  0  0  0
 16 19  1  0  0  0  0
 17 16  1  0  0  0  0
 18 16  1  0  0  0  0
 19 24  1  0  0  0  0
 19 21  1  0  0  0  0
 20 19  1  0  0  0  0
 22 27  1  0  0  0  0
 23 24  1  0  0  0  0
 23 22  2  0  0  0  0
 24 25  2  0  0  0  0
 25 26  1  0  0  0  0
 26 30  1  0  0  0  0
 27 26  2  0  0  0  0
 28 22  1  0  0  0  0
 29 23  1  0  0  0  0
 31 33  1  0  0  0  0
 33 34  1  0  0  0  0
 33 32  2  1  0  0  0
 33 36  1  0  0  0  0
 34 35  1  0  0  0  0
 36 37  1  0  0  0  0
 37 38  1  0  0  0  0
 39 37  1  0  0  0  0
 40 37  1  0  0  0  0
 40 41  1  0  0  0  0
 41 42  1  0  0  0  0
 43 41  2  0  0  0  0
 44 43  1  0  0  0  0
 45 44  1  0  0  0  0
 46 45  2  0  0  0  0
 47 46  1  0  0  0  0
 48 49  2  0  0  0  0
 48 46  1  0  0  0  0
 49 50  1  0  0  0  0
 50 51  1  0  0  0  0
 50 44  2  0  0  0  0
 51 40  2  0  0  0  0
M  END
>  <minimizedAffinity>
-5.93111038

$$$$

 OpenBabel03252509063D

 51 54  0  0  1  0  0  0  0  0999 V2000
   38.7780   30.4940   38.6230 N   0  0  0  0  0  0  0  0  0  0  0  0
   40.1420   30.2480   38.3330 C   0  0  0  0  0  0  0  0  0  0  0  0
   40.7510   29.0830   39.0920 C   0  0  0  0  0  0  0  0  0  0  0  0
   39.7940   27.9450   39.3530 C   0  0  0  0  0  0  0  0  0  0  0  0
   38.4390   28.1940   38.7160 C   0  0  0  0  0  0  0  0  0  0  0  0
   38.0160   29.5840   39.3190 C   0  0  2  0  0  0  0  0  0  0  0  0
   40.2170   29.9630   37.2470 H   0  0  0  0  0  0  0  0  0  0  0  0
   40.8340   31.0840   38.4580 H   0  0  0  0  0  0  0  0  0  0  0  0
   41.6770   28.7550   38.5970 H   0  0  0  0  0  0  0  0  0  0  0  0
   41.0350   29.4780   40.0970 H   0  0  0  0  0  0  0  0  0  0  0  0
   40.2040   27.0370   38.8640 H   0  0  0  0  0  0  0  0  0  0  0  0
   39.6360   27.7310   40.4240 H   0  0  0  0  0  0  0  0  0  0  0  0
   37.7310   27.4420   39.0890 H   0  0  0  0  0  0  0  0  0  0  0  0
   38.5030   28.3020   37.6310 H   0  0  0  0  0  0  0  0  0  0  0  0
   38.1830   29.4780   40.4100 H   0  0  0  0  0  0  0  0  0  0  0  0
   38.4270   31.8930   38.6920 C   0  0  0  0  0  0  0  0  0  0  0  0
   39.2010   32.4400   38.0970 H   0  0  0  0  0  0  0  0  0  0  0  0
   37.4350   32.0650   38.2400 H   0  0  0  0  0  0  0  0  0  0  0  0
   38.4840   32.3200   40.1160 C   0  0  0  0  0  0  0  0  0  0  0  0
   38.8910   31.5210   40.7760 H   0  0  0  0  0  0  0  0  0  0  0  0
   37.4900   32.5800   40.5290 H   0  0  0  0  0  0  0  0  0  0  0  0
   39.7360   35.8470   40.4380 C   0  0  0  0  0  0  0  0  0  0  0  0
   38.8760   34.7410   40.3140 C   0  0  0  0  0  0  0  0  0  0  0  0
   39.4050   33.4820   40.2470 C   0  0  0  0  0  0  0  0  0  0  0  0
   40.7300   33.3690   40.3050 N   0  0  0  0  0  0  0  0  0  0  0  0
   41.5600   34.4080   40.4220 C   0  0  0  0  0  0  0  0  0  0  0  0
   41.0730   35.6700   40.4910 N   0  0  0  0  0  0  0  0  0  0  0  0
   39.3540   36.8460   40.4940 H   0  0  0  0  0  0  0  0  0  0  0  0
   37.8320   34.9620   40.2790 H   0  0  0  0  0  0  0  0  0  0  0  0
   42.5930   34.0910   40.4490 H   0  0  0  0  0  0  0  0  0  0  0  0
   36.6740   29.6330   38.9800 O   0  0  0  0  0  0  0  0  0  0  0  0
   34.1960   29.1110   39.8060 O   0  0  0  0  0  0  0  0  0  0  0  0
   35.6570   29.2980   40.2620 P   0  0  2  0  0  0  0  0  0  0  0  0
   35.5970   30.7190   41.2290 O   0  0  0  0  0  0  0  0  0  0  0  0
   36.3130   30.6280   41.9140 H   0  0  0  0  0  0  0  0  0  0  0  0
   36.1640   28.0530   41.2250 O   0  0  0  0  0  0  0  0  0  0  0  0
   36.4430   28.5400   42.5070 C   0  0  0  0  0  0  0  0  0  0  0  0
   36.1590   29.5830   42.6650 H   0  0  0  0  0  0  0  0  0  0  0  0
   35.9140   27.9050   43.2710 H   0  0  0  0  0  0  0  0  0  0  0  0
   37.9110   28.3460   42.6890 C   0  0  0  0  0  0  0  0  0  0  0  0
   38.5550   27.1470   42.9160 C   0  0  0  0  0  0  0  0  0  0  0  0
   37.9210   26.2720   42.9630 H   0  0  0  0  0  0  0  0  0  0  0  0
   39.9270   27.1150   43.0660 C   0  0  0  0  0  3  0  0  0  0  0  0
   40.6290   28.3010   42.9850 C   0  0  0  0  0  0  0  0  0  0  0  0
   41.9530   28.3310   43.1220 N   0  0  0  0  0  0  0  0  0  0  0  0
   42.6900   29.4540   43.0520 C   0  0  0  0  0  0  0  0  0  0  0  0
   43.7640   29.4990   43.1600 H   0  0  0  0  0  0  0  0  0  0  0  0
   42.0850   30.6790   42.8250 C   0  0  0  0  0  3  0  0  0  0  0  0
   40.7200   30.7140   42.6750 C   0  0  0  0  0  3  0  0  0  0  0  0
   40.0310   29.5220   42.7600 C   0  0  0  0  0  0  0  0  0  0  0  0
   38.6440   29.5350   42.6110 C   0  0  0  0  0  3  0  0  0  0  0  0
  1 16  1  0  0  0  0
  1  6  1  0  0  0  0
  2  8  1  0  0  0  0
  2  1  1  0  0  0  0
  2  3  1  0  0  0  0
  3  4  1  0  0  0  0
  3 10  1  0  0  0  0
  4 12  1  0  0  0  0
  5 13  1  0  0  0  0
  5  6  1  0  0  0  0
  5  4  1  0  0  0  0
  6 15  1  1  0  0  0
  7  2  1  0  0  0  0
  9  3  1  0  0  0  0
 11  4  1  0  0  0  0
 14  5  1  0  0  0  0
 16 19  1  0  0  0  0
 17 16  1  0  0  0  0
 18 16  1  0  0  0  0
 19 24  1  0  0  0  0
 19 21  1  0  0  0  0
 19 20  1  0  0  0  0
 22 27  1  0  0  0  0
 22 28  1  0  0  0  0
 23 22  2  0  0  0  0
 24 25  2  0  0  0  0
 24 23  1  0  0  0  0
 25 26  1  0  0  0  0
 26 30  1  0  0  0  0
 26 27  2  0  0  0  0
 29 23  1  0  0  0  0
 31  6  1  0  0  0  0
 31 33  1  0  0  0  0
 33 32  2  6  0  0  0
 33 36  1  0  0  0  0
 33 34  1  0  0  0  0
 34 35  1  0  0  0  0
 36 37  1  0  0  0  0
 37 38  1  0  0  0  0
 37 40  1  0  0  0  0
 37 39  1  0  0  0  0
 40 41  1  0  0  0  0
 41 42  1  0  0  0  0
 41 43  2  0  0  0  0
 44 43  1  0  0  0  0
 44 45  1  0  0  0  0
 46 45  2  0  0  0  0
 46 47  1  0  0  0  0
 48 46  1  0  0  0  0
 49 50  1  0  0  0  0
 49 48  2  0  0  0  0
 50 44  2  0  0  0  0
 51 40  2  0  0  0  0
 51 50  1  0  0  0  0
M  END
>  <minimizedAffinity>
-5.86855412

$$$$

 OpenBabel03252509063D

 51 54  0  0  1  0  0  0  0  0999 V2000
   40.9740   32.6520   41.0090 N   0  0  0  0  0  0  0  0  0  0  0  0
   42.1590   33.4230   41.0780 C   0  0  0  0  0  0  0  0  0  0  0  0
   42.3270   34.4300   39.9540 C   0  0  0  0  0  0  0  0  0  0  0  0
   41.0330   35.0350   39.4660 C   0  0  0  0  0  0  0  0  0  0  0  0
   39.8460   34.5500   40.2790 C   0  0  0  0  0  0  0  0  0  0  0  0
   39.9480   32.9860   40.1550 C   0  0  2  0  0  0  0  0  0  0  0  0
   42.1160   34.0380   42.0190 H   0  0  0  0  0  0  0  0  0  0  0  0
   43.1040   32.8770   41.1370 H   0  0  0  0  0  0  0  0  0  0  0  0
   43.0710   35.1890   40.2370 H   0  0  0  0  0  0  0  0  0  0  0  0
   42.7450   33.8650   39.0870 H   0  0  0  0  0  0  0  0  0  0  0  0
   41.0890   36.1320   39.6250 H   0  0  0  0  0  0  0  0  0  0  0  0
   40.8220   34.8400   38.4010 H   0  0  0  0  0  0  0  0  0  0  0  0
   38.9220   34.8630   39.7730 H   0  0  0  0  0  0  0  0  0  0  0  0
   39.9300   34.8120   41.3360 H   0  0  0  0  0  0  0  0  0  0  0  0
   40.0800   32.7990   39.0700 H   0  0  0  0  0  0  0  0  0  0  0  0
   41.1420   31.2690   41.3880 C   0  0  0  0  0  0  0  0  0  0  0  0
   40.7120   31.1710   42.4170 H   0  0  0  0  0  0  0  0  0  0  0  0
   40.5860   30.6100   40.6990 H   0  0  0  0  0  0  0  0  0  0  0  0
   42.5980   30.9640   41.4140 C   0  0  0  0  0  0  0  0  0  0  0  0
   43.2180   31.8880   41.4130 H   0  0  0  0  0  0  0  0  0  0  0  0
   42.9310   30.3730   40.5390 H   0  0  0  0  0  0  0  0  0  0  0  0
   43.8260   30.2500   44.8920 C   0  0  0  0  0  0  0  0  0  0  0  0
   43.5090   30.9250   43.7000 C   0  0  0  0  0  0  0  0  0  0  0  0
   42.9290   30.2370   42.6710 C   0  0  0  0  0  0  0  0  0  0  0  0
   42.6910   28.9410   42.8560 N   0  0  0  0  0  0  0  0  0  0  0  0
   42.9860   28.2840   43.9800 C   0  0  0  0  0  0  0  0  0  0  0  0
   43.5610   28.9330   45.0210 N   0  0  0  0  0  0  0  0  0  0  0  0
   44.2800   30.7590   45.7170 H   0  0  0  0  0  0  0  0  0  0  0  0
   43.7480   31.9660   43.6730 H   0  0  0  0  0  0  0  0  0  0  0  0
   42.7100   27.2420   43.9160 H   0  0  0  0  0  0  0  0  0  0  0  0
   38.7070   32.5910   40.6240 O   0  0  0  0  0  0  0  0  0  0  0  0
   38.2450   32.1140   38.0440 O   0  0  0  0  0  0  0  0  0  0  0  0
   37.5800   32.3790   39.4090 P   0  0  2  0  0  0  0  0  0  0  0  0
   36.8000   33.8970   39.1880 O   0  0  0  0  0  0  0  0  0  0  0  0
   36.0010   33.8960   39.7810 H   0  0  0  0  0  0  0  0  0  0  0  0
   36.4130   31.2590   39.7520 O   0  0  0  0  0  0  0  0  0  0  0  0
   36.4070   30.9960   41.1260 C   0  0  0  0  0  0  0  0  0  0  0  0
   37.0730   31.6360   41.7100 H   0  0  0  0  0  0  0  0  0  0  0  0
   35.3610   31.1100   41.5230 H   0  0  0  0  0  0  0  0  0  0  0  0
   36.7920   29.5600   41.2520 C   0  0  0  0  0  0  0  0  0  0  0  0
   36.2750   28.5090   40.5240 C   0  0  0  0  0  0  0  0  0  0  0  0
   35.5190   28.7670   39.7930 H   0  0  0  0  0  0  0  0  0  0  0  0
   36.7250   27.2230   40.7460 C   0  0  0  0  0  3  0  0  0  0  0  0
   37.6950   27.0200   41.7070 C   0  0  0  0  0  0  0  0  0  0  0  0
   38.1680   25.8020   41.9650 N   0  0  0  0  0  0  0  0  0  0  0  0
   39.1110   25.5420   42.8880 C   0  0  0  0  0  0  0  0  0  0  0  0
   39.5070   24.5620   43.1120 H   0  0  0  0  0  0  0  0  0  0  0  0
   39.6590   26.5670   43.6420 C   0  0  0  0  0  3  0  0  0  0  0  0
   39.2120   27.8480   43.4220 C   0  0  0  0  0  3  0  0  0  0  0  0
   38.2420   28.0360   42.4600 C   0  0  0  0  0  0  0  0  0  0  0  0
   37.7740   29.3290   42.2210 C   0  0  0  0  0  3  0  0  0  0  0  0
  1  2  1  0  0  0  0
  1 16  1  0  0  0  0
  2  8  1  0  0  0  0
  2  7  1  0  0  0  0
  3  9  1  0  0  0  0
  3  2  1  0  0  0  0
  4 11  1  0  0  0  0
  4  3  1  0  0  0  0
  4  5  1  0  0  0  0
  5 14  1  0  0  0  0
  6 15  1  6  0  0  0
  6  5  1  0  0  0  0
  6 31  1  0  0  0  0
  6  1  1  0  0  0  0
 10  3  1  0  0  0  0
 12  4  1  0  0  0  0
 13  5  1  0  0  0  0
 16 19  1  0  0  0  0
 16 17  1  0  0  0  0
 18 16  1  0  0  0  0
 19 24  1  0  0  0  0
 20 19  1  0  0  0  0
 21 19  1  0  0  0  0
 22 27  1  0  0  0  0
 22 28  1  0  0  0  0
 23 22  2  0  0  0  0
 24 25  2  0  0  0  0
 24 23  1  0  0  0  0
 25 26  1  0  0  0  0
 26 27  2  0  0  0  0
 29 23  1  0  0  0  0
 30 26  1  0  0  0  0
 33 32  2  6  0  0  0
 33 36  1  0  0  0  0
 33 31  1  0  0  0  0
 34 33  1  0  0  0  0
 34 35  1  0  0  0  0
 36 37  1  0  0  0  0
 37 40  1  0  0  0  0
 37 39  1  0  0  0  0
 37 38  1  0  0  0  0
 40 51  1  0  0  0  0
 41 43  1  0  0  0  0
 41 40  2  0  0  0  0
 42 41  1  0  0  0  0
 43 44  2  0  0  0  0
 44 45  1  0  0  0  0
 44 50  1  0  0  0  0
 45 46  2  0  0  0  0
 46 47  1  0  0  0  0
 46 48  1  0  0  0  0
 49 48  2  0  0  0  0
 50 49  1  0  0  0  0
 51 50  2  0  0  0  0
M  END
>  <minimizedAffinity>
-5.85648632

$$$$

 OpenBabel03252509063D

 51 54  0  0  1  0  0  0  0  0999 V2000
   40.4220   30.0500   39.3600 N   0  0  0  0  0  0  0  0  0  0  0  0
   41.5840   29.7440   38.6110 C   0  0  0  0  0  0  0  0  0  0  0  0
   41.7240   30.5180   37.3130 C   0  0  0  0  0  0  0  0  0  0  0  0
   41.1830   31.9260   37.3700 C   0  0  0  0  0  0  0  0  0  0  0  0
   40.6880   32.2810   38.7610 C   0  0  0  0  0  0  0  0  0  0  0  0
   39.6440   31.1450   39.0640 C   0  0  2  0  0  0  0  0  0  0  0  0
   42.4790   30.0400   39.2270 H   0  0  0  0  0  0  0  0  0  0  0  0
   41.7480   28.6940   38.3560 H   0  0  0  0  0  0  0  0  0  0  0  0
   42.7640   30.4760   36.9590 H   0  0  0  0  0  0  0  0  0  0  0  0
   41.0970   29.9820   36.5600 H   0  0  0  0  0  0  0  0  0  0  0  0
   42.0210   32.6210   37.1530 H   0  0  0  0  0  0  0  0  0  0  0  0
   40.3660   32.1210   36.6550 H   0  0  0  0  0  0  0  0  0  0  0  0
   40.1380   33.2300   38.7070 H   0  0  0  0  0  0  0  0  0  0  0  0
   41.4800   32.2220   39.5110 H   0  0  0  0  0  0  0  0  0  0  0  0
   39.0000   31.1080   38.1630 H   0  0  0  0  0  0  0  0  0  0  0  0
   39.8060   28.9070   39.9930 C   0  0  0  0  0  0  0  0  0  0  0  0
   38.7010   29.0370   39.8670 H   0  0  0  0  0  0  0  0  0  0  0  0
   40.1200   27.9740   39.4940 H   0  0  0  0  0  0  0  0  0  0  0  0
   40.1590   28.9250   41.4380 C   0  0  0  0  0  0  0  0  0  0  0  0
   39.3070   29.2600   42.0720 H   0  0  0  0  0  0  0  0  0  0  0  0
   40.9990   29.6090   41.6690 H   0  0  0  0  0  0  0  0  0  0  0  0
   40.8610   25.9730   43.6540 C   0  0  0  0  0  0  0  0  0  0  0  0
   40.5450   27.2740   43.2220 C   0  0  0  0  0  0  0  0  0  0  0  0
   40.4940   27.5440   41.8820 C   0  0  0  0  0  0  0  0  0  0  0  0
   40.7510   26.5430   41.0430 N   0  0  0  0  0  0  0  0  0  0  0  0
   41.0530   25.3030   41.4370 C   0  0  0  0  0  0  0  0  0  0  0  0
   41.1120   24.9980   42.7540 N   0  0  0  0  0  0  0  0  0  0  0  0
   40.9080   25.7280   44.6950 H   0  0  0  0  0  0  0  0  0  0  0  0
   40.3580   27.9900   43.9910 H   0  0  0  0  0  0  0  0  0  0  0  0
   41.2240   24.6500   40.5940 H   0  0  0  0  0  0  0  0  0  0  0  0
   38.9940   31.6590   40.1730 O   0  0  0  0  0  0  0  0  0  0  0  0
   36.8730   31.2060   38.6270 O   0  0  0  0  0  0  0  0  0  0  0  0
   37.3290   31.6080   40.0440 P   0  0  2  0  0  0  0  0  0  0  0  0
   36.7720   33.2290   40.2000 O   0  0  0  0  0  0  0  0  0  0  0  0
   36.5840   33.3730   41.1660 H   0  0  0  0  0  0  0  0  0  0  0  0
   36.5830   30.7040   41.2090 O   0  0  0  0  0  0  0  0  0  0  0  0
   35.7950   29.7200   40.6030 C   0  0  0  0  0  0  0  0  0  0  0  0
   34.7200   29.8450   40.7560 H   0  0  0  0  0  0  0  0  0  0  0  0
   36.0010   29.7050   39.4970 H   0  0  0  0  0  0  0  0  0  0  0  0
   36.2740   28.4270   41.1750 C   0  0  0  0  0  0  0  0  0  0  0  0
   36.5180   28.1630   42.5070 C   0  0  0  0  0  0  0  0  0  0  0  0
   36.3380   28.9820   43.1910 H   0  0  0  0  0  0  0  0  0  0  0  0
   36.9600   26.9160   42.8970 C   0  0  0  0  0  3  0  0  0  0  0  0
   37.1520   25.9500   41.9290 C   0  0  0  0  0  0  0  0  0  0  0  0
   37.5780   24.7290   42.2460 N   0  0  0  0  0  0  0  0  0  0  0  0
   37.7830   23.7490   41.3490 C   0  0  0  0  0  0  0  0  0  0  0  0
   38.1280   22.7520   41.5860 H   0  0  0  0  0  0  0  0  0  0  0  0
   37.5510   23.9680   40.0010 C   0  0  0  0  0  3  0  0  0  0  0  0
   37.1100   25.2100   39.6100 C   0  0  0  0  0  3  0  0  0  0  0  0
   36.9240   26.1650   40.5870 C   0  0  0  0  0  0  0  0  0  0  0  0
   36.4760   27.4320   40.2130 C   0  0  0  0  0  3  0  0  0  0  0  0
  1 16  1  0  0  0  0
  2  7  1  0  0  0  0
  2  1  1  0  0  0  0
  3  4  1  0  0  0  0
  3  2  1  0  0  0  0
  4  5  1  0  0  0  0
  5  6  1  0  0  0  0
  5 14  1  0  0  0  0
  6 15  1  6  0  0  0
  6  1  1  0  0  0  0
  6 31  1  0  0  0  0
  8  2  1  0  0  0  0
  9  3  1  0  0  0  0
 10  3  1  0  0  0  0
 11  4  1  0  0  0  0
 12  4  1  0  0  0  0
 13  5  1  0  0  0  0
 16 19  1  0  0  0  0
 17 16  1  0  0  0  0
 18 16  1  0  0  0  0
 19 21  1  0  0  0  0
 19 24  1  0  0  0  0
 19 20  1  0  0  0  0
 22 28  1  0  0  0  0
 23 22  1  0  0  0  0
 23 29  1  0  0  0  0
 24 23  2  0  0  0  0
 25 26  2  0  0  0  0
 25 24  1  0  0  0  0
 26 27  1  0  0  0  0
 27 22  2  0  0  0  0
 30 26  1  0  0  0  0
 33 32  2  6  0  0  0
 33 31  1  0  0  0  0
 33 34  1  0  0  0  0
 33 36  1  0  0  0  0
 34 35  1  0  0  0  0
 37 38  1  0  0  0  0
 37 40  1  0  0  0  0
 37 36  1  0  0  0  0
 39 37  1  0  0  0  0
 40 41  1  0  0  0  0
 41 43  2  0  0  0  0
 41 42  1  0  0  0  0
 44 45  1  0  0  0  0
 44 43  1  0  0  0  0
 46 47  1  0  0  0  0
 46 45  2  0  0  0  0
 48 46  1  0  0  0  0
 49 48  2  0  0  0  0
 49 50  1  0  0  0  0
 50 44  2  0  0  0  0
 51 50  1  0  0  0  0
 51 40  2  0  0  0  0
M  END
>  <minimizedAffinity>
-5.84780502

$$$$
