
 OpenBabel03252507263D

 30 33  0  0  0  0  0  0  0  0999 V2000
   45.7590   33.6930   43.8680 C   0  0  0  0  0  0  0  0  0  0  0  0
   45.2960   34.9630   44.2120 C   0  0  0  0  0  0  0  0  0  0  0  0
   45.2830   35.9550   43.2060 C   0  0  0  0  0  0  0  0  0  0  0  0
   45.7240   35.6240   41.9410 N   0  0  0  0  0  0  0  0  0  0  0  0
   46.1610   34.3700   41.6750 C   0  0  0  0  0  0  0  0  0  0  0  0
   46.1750   33.4370   42.6170 N   0  0  0  0  0  0  0  0  0  0  0  0
   44.9540   35.2290   45.1790 H   0  0  0  0  0  0  0  0  0  0  0  0
   44.9390   36.9430   43.4150 H   0  0  0  0  0  0  0  0  0  0  0  0
   45.7940   32.6330   44.8690 C   0  0  0  0  0  0  0  0  0  0  0  0
   45.9690   31.3050   44.6130 C   0  0  0  0  0  0  0  0  0  0  0  0
   46.0960   30.9850   43.5890 H   0  0  0  0  0  0  0  0  0  0  0  0
   45.9910   30.3550   45.6220 C   0  0  0  0  0  3  0  0  0  0  0  0
   45.8330   30.7180   46.9430 C   0  0  0  0  0  0  0  0  0  0  0  0
   45.8470   29.8300   47.9560 N   0  0  0  0  0  0  0  0  0  0  0  0
   45.6870   30.2280   49.2460 C   0  0  0  0  0  0  0  0  0  0  0  0
   45.6940   29.5380   50.0790 H   0  0  0  0  0  0  0  0  0  0  0  0
   45.5020   31.5750   49.5680 C   0  0  0  0  0  3  0  0  0  0  0  0
   45.4840   32.5080   48.5540 C   0  0  0  0  0  3  0  0  0  0  0  0
   45.6530   32.0430   47.2460 C   0  0  0  0  0  0  0  0  0  0  0  0
   45.6400   32.9420   46.2060 C   0  0  0  0  0  3  0  0  0  0  0  0
   46.6130   34.0560   40.3330 C   0  0  0  0  0  0  0  0  0  0  0  0
   47.8290   34.4880   39.8770 C   0  0  0  0  0  0  0  0  0  0  0  0
   48.3480   34.2500   38.6220 C   0  0  0  0  0  0  0  0  0  0  0  0
   47.5140   33.5010   37.8020 C   0  0  0  0  0  0  0  0  0  0  0  0
   46.2770   33.0460   38.2270 C   0  0  0  0  0  0  0  0  0  0  0  0
   45.8310   33.3270   39.4980 N   0  0  0  0  0  0  0  0  0  0  0  0
   48.4300   35.0690   40.5720 H   0  0  0  0  0  0  0  0  0  0  0  0
   49.3140   34.6260   38.3420 H   0  0  0  0  0  0  0  0  0  0  0  0
   47.8540   33.2720   36.7990 H   0  0  0  0  0  0  0  0  0  0  0  0
   45.6570   32.4630   37.5560 H   0  0  0  0  0  0  0  0  0  0  0  0
  1  2  1  0  0  0  0
  1  9  1  0  0  0  0
  2  7  1  0  0  0  0
  3  8  1  0  0  0  0
  3  2  2  0  0  0  0
  4  3  1  0  0  0  0
  5  4  2  0  0  0  0
  5  6  1  0  0  0  0
  6  1  2  0  0  0  0
  9 20  1  0  0  0  0
 10  9  2  0  0  0  0
 10 12  1  0  0  0  0
 11 10  1  0  0  0  0
 12 13  2  0  0  0  0
 13 19  1  0  0  0  0
 13 14  1  0  0  0  0
 14 15  2  0  0  0  0
 15 17  1  0  0  0  0
 15 16  1  0  0  0  0
 18 17  2  0  0  0  0
 19 18  1  0  0  0  0
 20 19  2  0  0  0  0
 21  5  1  0  0  0  0
 22 21  1  0  0  0  0
 22 27  1  0  0  0  0
 23 22  2  0  0  0  0
 24 25  2  0  0  0  0
 24 23  1  0  0  0  0
 25 26  1  0  0  0  0
 26 21  2  0  0  0  0
 28 23  1  0  0  0  0
 29 24  1  0  0  0  0
 30 25  1  0  0  0  0
M  END
>  <minimizedAffinity>
-5.34966326

>  <minimizedRMSD>
1.78747892

$$$$
