
 OpenBabel03252503253D

 50 56  0  0  1  0  0  0  0  0999 V2000
   35.1450   29.2280   40.2660 C   0  0  0  0  0  0  0  0  0  0  0  0
   35.1920   28.6560   38.9630 C   0  0  0  0  0  0  0  0  0  0  0  0
   35.9640   27.5360   38.7880 C   0  0  0  0  0  0  0  0  0  0  0  0
   36.6260   27.0600   39.8810 N   0  0  0  0  0  0  0  0  0  0  0  0
   36.5740   27.6070   41.0990 C   0  0  0  0  0  0  0  0  0  0  0  0
   35.8260   28.7020   41.2940 N   0  0  0  0  0  0  0  0  0  0  0  0
   34.5340   30.1210   40.4220 H   0  0  0  0  0  0  0  0  0  0  0  0
   36.0340   27.0640   37.8220 H   0  0  0  0  0  0  0  0  0  0  0  0
   34.4280   29.2860   37.8480 C   0  0  1  0  0  0  0  0  0  0  0  0
   34.2980   28.6010   36.5670 C   0  0  0  0  0  0  0  0  0  0  0  0
   33.1150   28.6240   37.4570 C   0  0  2  0  0  0  0  0  0  0  0  0
   34.4340   30.3900   37.8840 H   0  0  0  0  0  0  0  0  0  0  0  0
   34.4630   29.1910   35.6790 H   0  0  0  0  0  0  0  0  0  0  0  0
   34.8480   27.6060   36.4970 H   0  0  0  0  0  0  0  0  0  0  0  0
   32.8720   27.7460   38.0730 H   0  0  0  0  0  0  0  0  0  0  0  0
   32.0300   29.5880   37.1170 C   0  0  0  0  0  0  0  0  0  0  0  0
   31.0820   30.0360   38.0140 C   0  0  0  0  0  0  0  0  0  0  0  0
   30.0950   30.9250   37.6230 C   0  0  0  0  0  0  0  0  0  0  0  0
   30.0460   31.3750   36.3270 C   0  0  0  0  0  0  0  0  0  0  0  0
   29.0880   32.2530   35.9160 N   0  0  0  0  0  0  0  0  0  0  0  0
   29.0620   32.6850   34.6320 C   0  0  0  0  0  0  0  0  0  0  0  0
   29.9910   32.2790   33.6430 C   0  0  0  0  0  0  0  0  0  0  0  0
   30.9640   31.3930   34.0450 C   0  0  0  0  0  0  0  0  0  0  0  0
   30.9780   30.9570   35.3700 C   0  0  0  0  0  0  0  0  0  0  0  0
   31.9440   30.0690   35.8100 C   0  0  0  0  0  0  0  0  0  0  0  0
   31.1710   29.6490   39.0150 H   0  0  0  0  0  0  0  0  0  0  0  0
   29.3610   31.2670   38.3380 H   0  0  0  0  0  0  0  0  0  0  0  0
   28.2940   33.3830   34.3200 H   0  0  0  0  0  0  0  0  0  0  0  0
   29.8980   32.6730   32.6410 H   0  0  0  0  0  0  0  0  0  0  0  0
   31.6980   31.0490   33.3350 H   0  0  0  0  0  0  0  0  0  0  0  0
   32.6270   29.7830   35.0220 H   0  0  0  0  0  0  0  0  0  0  0  0
   37.3480   26.9540   42.1760 C   0  0  2  0  0  0  0  0  0  0  0  0
   37.6580   27.6020   43.4360 C   0  0  0  0  0  0  0  0  0  0  0  0
   38.7480   27.5640   42.4310 C   0  0  2  0  0  0  0  0  0  0  0  0
   37.3530   25.8340   42.0690 H   0  0  0  0  0  0  0  0  0  0  0  0
   37.1290   28.5430   43.6740 H   0  0  0  0  0  0  0  0  0  0  0  0
   37.7060   26.9320   44.3360 H   0  0  0  0  0  0  0  0  0  0  0  0
   39.5320   26.7660   42.5660 H   0  0  0  0  0  0  0  0  0  0  0  0
   39.1300   28.8240   41.8000 C   0  0  0  0  0  0  0  0  0  0  0  0
   39.2210   29.8560   42.7420 C   0  0  0  0  0  0  0  0  0  0  0  0
   39.0480   29.7740   43.8180 H   0  0  0  0  0  0  0  0  0  0  0  0
   39.5580   31.1610   42.3650 C   0  0  0  0  0  3  0  0  0  0  0  0
   39.8060   31.4290   41.0510 C   0  0  0  0  0  0  0  0  0  0  0  0
   40.1400   32.6520   40.5820 N   0  0  0  0  0  0  0  0  0  0  0  0
   40.3800   32.8930   39.2810 C   0  0  0  0  0  0  0  0  0  0  0  0
   40.6410   33.8970   38.9840 H   0  0  0  0  0  0  0  0  0  0  0  0
   40.2940   31.8830   38.3420 C   0  0  0  0  0  3  0  0  0  0  0  0
   39.9580   30.6250   38.7680 C   0  0  0  0  0  3  0  0  0  0  0  0
   39.7220   30.4290   40.1150 C   0  0  0  0  0  0  0  0  0  0  0  0
   39.3900   29.1530   40.4930 C   0  0  0  0  0  3  0  0  0  0  0  0
  1  7  1  0  0  0  0
  1  6  1  0  0  0  0
  2  1  2  0  0  0  0
  3  2  1  0  0  0  0
  3  4  2  0  0  0  0
  4  5  1  0  0  0  0
  5  6  2  0  0  0  0
  5 32  1  0  0  0  0
  8  3  1  0  0  0  0
  9 12  1  6  0  0  0
  9  2  1  0  0  0  0
 10 11  1  0  0  0  0
 10  9  1  0  0  0  0
 11  9  1  0  0  0  0
 11 15  1  1  0  0  0
 13 10  1  0  0  0  0
 14 10  1  0  0  0  0
 16 11  1  0  0  0  0
 16 17  1  0  0  0  0
 17 26  1  0  0  0  0
 18 17  2  0  0  0  0
 18 27  1  0  0  0  0
 19 18  1  0  0  0  0
 20 19  1  0  0  0  0
 21 20  2  0  0  0  0
 22 23  2  0  0  0  0
 22 21  1  0  0  0  0
 23 24  1  0  0  0  0
 24 25  1  0  0  0  0
 24 19  2  0  0  0  0
 25 16  2  0  0  0  0
 28 21  1  0  0  0  0
 29 22  1  0  0  0  0
 30 23  1  0  0  0  0
 31 25  1  0  0  0  0
 32 35  1  1  0  0  0
 32 34  1  0  0  0  0
 32 33  1  0  0  0  0
 33 36  1  0  0  0  0
 33 37  1  0  0  0  0
 34 38  1  1  0  0  0
 34 33  1  0  0  0  0
 39 34  1  0  0  0  0
 39 40  1  0  0  0  0
 40 41  1  0  0  0  0
 42 40  2  0  0  0  0
 43 42  1  0  0  0  0
 44 43  1  0  0  0  0
 45 44  2  0  0  0  0
 46 45  1  0  0  0  0
 47 48  2  0  0  0  0
 47 45  1  0  0  0  0
 48 49  1  0  0  0  0
 49 50  1  0  0  0  0
 49 43  2  0  0  0  0
 50 39  2  0  0  0  0
M  END
>  <minimizedAffinity>
-7.60591602

$$$$

 OpenBabel03252503253D

 50 56  0  0  1  0  0  0  0  0999 V2000
   37.4510   29.0630   39.3500 C   0  0  0  0  0  0  0  0  0  0  0  0
   36.0290   29.1220   39.2920 C   0  0  0  0  0  0  0  0  0  0  0  0
   35.3390   28.9750   40.4680 C   0  0  0  0  0  0  0  0  0  0  0  0
   36.0730   28.7830   41.6000 N   0  0  0  0  0  0  0  0  0  0  0  0
   37.4070   28.7290   41.6420 C   0  0  0  0  0  0  0  0  0  0  0  0
   38.1040   28.8710   40.5040 N   0  0  0  0  0  0  0  0  0  0  0  0
   38.0160   29.1790   38.4210 H   0  0  0  0  0  0  0  0  0  0  0  0
   34.2620   29.0110   40.4790 H   0  0  0  0  0  0  0  0  0  0  0  0
   35.3480   29.3240   37.9800 C   0  0  1  0  0  0  0  0  0  0  0  0
   35.4280   28.2990   36.9450 C   0  0  0  0  0  0  0  0  0  0  0  0
   34.1520   28.4300   37.6860 C   0  0  2  0  0  0  0  0  0  0  0  0
   35.2540   30.3870   37.6970 H   0  0  0  0  0  0  0  0  0  0  0  0
   35.6420   28.6340   35.9420 H   0  0  0  0  0  0  0  0  0  0  0  0
   36.0670   27.3950   37.2130 H   0  0  0  0  0  0  0  0  0  0  0  0
   33.9170   27.7360   38.5050 H   0  0  0  0  0  0  0  0  0  0  0  0
   33.0330   29.1280   36.9900 C   0  0  0  0  0  0  0  0  0  0  0  0
   32.9650   29.3100   35.6240 C   0  0  0  0  0  0  0  0  0  0  0  0
   31.8980   29.9800   35.0470 C   0  0  0  0  0  0  0  0  0  0  0  0
   30.8870   30.4730   35.8330 C   0  0  0  0  0  0  0  0  0  0  0  0
   29.8240   31.1320   35.2920 N   0  0  0  0  0  0  0  0  0  0  0  0
   28.8370   31.6090   36.0890 C   0  0  0  0  0  0  0  0  0  0  0  0
   28.8240   31.4700   37.4980 C   0  0  0  0  0  0  0  0  0  0  0  0
   29.8910   30.8060   38.0580 C   0  0  0  0  0  0  0  0  0  0  0  0
   30.9000   30.3210   37.2250 C   0  0  0  0  0  0  0  0  0  0  0  0
   31.9860   29.6450   37.7530 C   0  0  0  0  0  0  0  0  0  0  0  0
   33.7860   28.9010   35.0590 H   0  0  0  0  0  0  0  0  0  0  0  0
   31.8600   30.1130   33.9760 H   0  0  0  0  0  0  0  0  0  0  0  0
   27.9990   32.1300   35.6440 H   0  0  0  0  0  0  0  0  0  0  0  0
   27.9950   31.8800   38.0580 H   0  0  0  0  0  0  0  0  0  0  0  0
   29.9340   30.6700   39.1260 H   0  0  0  0  0  0  0  0  0  0  0  0
   31.9360   29.5680   38.8300 H   0  0  0  0  0  0  0  0  0  0  0  0
   38.0440   28.5250   42.9600 C   0  0  2  0  0  0  0  0  0  0  0  0
   39.4100   28.0650   43.1190 C   0  0  0  0  0  0  0  0  0  0  0  0
   38.3490   27.0480   43.3110 C   0  0  2  0  0  0  0  0  0  0  0  0
   37.5090   29.0860   43.7750 H   0  0  0  0  0  0  0  0  0  0  0  0
   40.0580   28.0580   42.2230 H   0  0  0  0  0  0  0  0  0  0  0  0
   39.9650   28.4680   44.0080 H   0  0  0  0  0  0  0  0  0  0  0  0
   38.0680   26.8070   44.3750 H   0  0  0  0  0  0  0  0  0  0  0  0
   38.2190   26.0060   42.2980 C   0  0  0  0  0  0  0  0  0  0  0  0
   39.4650   25.6670   41.7570 C   0  0  0  0  0  0  0  0  0  0  0  0
   40.4330   26.0910   42.0330 H   0  0  0  0  0  0  0  0  0  0  0  0
   39.5860   24.6980   40.7530 C   0  0  0  0  0  3  0  0  0  0  0  0
   38.4640   24.0720   40.2970 C   0  0  0  0  0  0  0  0  0  0  0  0
   38.4700   23.1240   39.3340 N   0  0  0  0  0  0  0  0  0  0  0  0
   37.3510   22.5200   38.8980 C   0  0  0  0  0  0  0  0  0  0  0  0
   37.4370   21.7720   38.1250 H   0  0  0  0  0  0  0  0  0  0  0  0
   36.1150   22.8460   39.4240 C   0  0  0  0  0  3  0  0  0  0  0  0
   36.0560   23.8020   40.4030 C   0  0  0  0  0  3  0  0  0  0  0  0
   37.2350   24.3930   40.8160 C   0  0  0  0  0  0  0  0  0  0  0  0
   37.1250   25.3430   41.7980 C   0  0  0  0  0  3  0  0  0  0  0  0
  1  6  1  0  0  0  0
  2  1  2  0  0  0  0
  2  3  1  0  0  0  0
  3  8  1  0  0  0  0
  3  4  2  0  0  0  0
  4  5  1  0  0  0  0
  5 32  1  0  0  0  0
  6  5  2  0  0  0  0
  7  1  1  0  0  0  0
  9 12  1  6  0  0  0
  9  2  1  0  0  0  0
 10 14  1  0  0  0  0
 10 11  1  0  0  0  0
 10  9  1  0  0  0  0
 11  9  1  0  0  0  0
 11 15  1  1  0  0  0
 13 10  1  0  0  0  0
 16 11  1  0  0  0  0
 16 25  1  0  0  0  0
 17 16  2  0  0  0  0
 18 17  1  0  0  0  0
 18 19  2  0  0  0  0
 19 24  1  0  0  0  0
 20 19  1  0  0  0  0
 20 21  2  0  0  0  0
 21 22  1  0  0  0  0
 22 29  1  0  0  0  0
 22 23  2  0  0  0  0
 23 30  1  0  0  0  0
 24 25  2  0  0  0  0
 24 23  1  0  0  0  0
 25 31  1  0  0  0  0
 26 17  1  0  0  0  0
 27 18  1  0  0  0  0
 28 21  1  0  0  0  0
 32 33  1  0  0  0  0
 32 34  1  0  0  0  0
 32 35  1  1  0  0  0
 33 34  1  0  0  0  0
 33 37  1  0  0  0  0
 34 38  1  1  0  0  0
 36 33  1  0  0  0  0
 39 34  1  0  0  0  0
 40 41  1  0  0  0  0
 40 39  2  0  0  0  0
 42 40  1  0  0  0  0
 43 42  2  0  0  0  0
 43 49  1  0  0  0  0
 44 43  1  0  0  0  0
 45 44  2  0  0  0  0
 45 47  1  0  0  0  0
 46 45  1  0  0  0  0
 47 48  2  0  0  0  0
 48 49  1  0  0  0  0
 49 50  2  0  0  0  0
 50 39  1  0  0  0  0
M  END
>  <minimizedAffinity>
-7.35869598

$$$$

 OpenBabel03252503253D

 50 56  0  0  1  0  0  0  0  0999 V2000
   36.5660   31.0100   39.8150 C   0  0  0  0  0  0  0  0  0  0  0  0
   37.0840   30.3430   38.6690 C   0  0  0  0  0  0  0  0  0  0  0  0
   38.4190   30.0290   38.6650 C   0  0  0  0  0  0  0  0  0  0  0  0
   39.1440   30.3840   39.7640 N   0  0  0  0  0  0  0  0  0  0  0  0
   38.6470   31.0100   40.8340 C   0  0  0  0  0  0  0  0  0  0  0  0
   37.3440   31.3270   40.8600 N   0  0  0  0  0  0  0  0  0  0  0  0
   35.5040   31.2670   39.8340 H   0  0  0  0  0  0  0  0  0  0  0  0
   38.8610   29.5250   37.8220 H   0  0  0  0  0  0  0  0  0  0  0  0
   36.1810   30.0250   37.5250 C   0  0  1  0  0  0  0  0  0  0  0  0
   36.3840   28.8090   36.7450 C   0  0  0  0  0  0  0  0  0  0  0  0
   35.2500   28.8340   37.6980 C   0  0  2  0  0  0  0  0  0  0  0  0
   35.7540   30.9230   37.0440 H   0  0  0  0  0  0  0  0  0  0  0  0
   36.3410   28.9040   35.6720 H   0  0  0  0  0  0  0  0  0  0  0  0
   37.2820   28.1810   37.0590 H   0  0  0  0  0  0  0  0  0  0  0  0
   35.3440   28.3490   38.6800 H   0  0  0  0  0  0  0  0  0  0  0  0
   33.8890   29.0440   37.1260 C   0  0  0  0  0  0  0  0  0  0  0  0
   33.5790   28.8940   35.7900 C   0  0  0  0  0  0  0  0  0  0  0  0
   32.2930   29.1170   35.3270 C   0  0  0  0  0  0  0  0  0  0  0  0
   31.3020   29.4920   36.2000 C   0  0  0  0  0  0  0  0  0  0  0  0
   30.0260   29.7130   35.7730 N   0  0  0  0  0  0  0  0  0  0  0  0
   29.0640   30.0800   36.6530 C   0  0  0  0  0  0  0  0  0  0  0  0
   29.2900   30.2580   38.0410 C   0  0  0  0  0  0  0  0  0  0  0  0
   30.5730   30.0370   38.4850 C   0  0  0  0  0  0  0  0  0  0  0  0
   31.5530   29.6600   37.5670 C   0  0  0  0  0  0  0  0  0  0  0  0
   32.8530   29.4260   37.9790 C   0  0  0  0  0  0  0  0  0  0  0  0
   34.3970   28.6000   35.1540 H   0  0  0  0  0  0  0  0  0  0  0  0
   32.0670   28.9950   34.2780 H   0  0  0  0  0  0  0  0  0  0  0  0
   28.0560   30.2530   36.2990 H   0  0  0  0  0  0  0  0  0  0  0  0
   28.4640   30.5520   38.6730 H   0  0  0  0  0  0  0  0  0  0  0  0
   30.8030   30.1570   39.5310 H   0  0  0  0  0  0  0  0  0  0  0  0
   32.9800   29.5790   39.0420 H   0  0  0  0  0  0  0  0  0  0  0  0
   39.5750   31.3110   41.9450 C   0  0  2  0  0  0  0  0  0  0  0  0
   40.7940   30.5630   42.1840 C   0  0  0  0  0  0  0  0  0  0  0  0
   39.6380   30.2270   43.0490 C   0  0  2  0  0  0  0  0  0  0  0  0
   39.4330   32.3540   42.3390 H   0  0  0  0  0  0  0  0  0  0  0  0
   41.1380   29.8730   41.3910 H   0  0  0  0  0  0  0  0  0  0  0  0
   41.6550   31.1470   42.6060 H   0  0  0  0  0  0  0  0  0  0  0  0
   39.6300   30.6820   44.0790 H   0  0  0  0  0  0  0  0  0  0  0  0
   38.9980   28.9310   42.8480 C   0  0  0  0  0  0  0  0  0  0  0  0
   37.7430   28.8830   43.4680 C   0  0  0  0  0  0  0  0  0  0  0  0
   37.2620   29.6880   44.0280 H   0  0  0  0  0  0  0  0  0  0  0  0
   36.9500   27.7300   43.4230 C   0  0  0  0  0  3  0  0  0  0  0  0
   37.4120   26.6330   42.7580 C   0  0  0  0  0  0  0  0  0  0  0  0
   36.7260   25.4730   42.6530 N   0  0  0  0  0  0  0  0  0  0  0  0
   37.2020   24.4030   41.9920 C   0  0  0  0  0  0  0  0  0  0  0  0
   36.5950   23.5110   41.9530 H   0  0  0  0  0  0  0  0  0  0  0  0
   38.4380   24.4370   41.3770 C   0  0  0  0  0  3  0  0  0  0  0  0
   39.1720   25.5910   41.4540 C   0  0  0  0  0  3  0  0  0  0  0  0
   38.6390   26.6620   42.1450 C   0  0  0  0  0  0  0  0  0  0  0  0
   39.4100   27.7960   42.1950 C   0  0  0  0  0  3  0  0  0  0  0  0
  1  7  1  0  0  0  0
  1  6  1  0  0  0  0
  2  1  2  0  0  0  0
  3  2  1  0  0  0  0
  3  4  2  0  0  0  0
  4  5  1  0  0  0  0
  5  6  2  0  0  0  0
  5 32  1  0  0  0  0
  8  3  1  0  0  0  0
  9 12  1  6  0  0  0
  9 11  1  0  0  0  0
  9  2  1  0  0  0  0
 10 14  1  0  0  0  0
 10  9  1  0  0  0  0
 10 11  1  0  0  0  0
 11 15  1  1  0  0  0
 13 10  1  0  0  0  0
 16 11  1  0  0  0  0
 16 25  1  0  0  0  0
 17 16  2  0  0  0  0
 18 17  1  0  0  0  0
 18 19  2  0  0  0  0
 19 24  1  0  0  0  0
 20 19  1  0  0  0  0
 20 21  2  0  0  0  0
 21 22  1  0  0  0  0
 22 23  2  0  0  0  0
 22 29  1  0  0  0  0
 23 30  1  0  0  0  0
 24 25  2  0  0  0  0
 24 23  1  0  0  0  0
 25 31  1  0  0  0  0
 26 17  1  0  0  0  0
 27 18  1  0  0  0  0
 28 21  1  0  0  0  0
 32 33  1  0  0  0  0
 32 35  1  1  0  0  0
 32 34  1  0  0  0  0
 33 37  1  0  0  0  0
 33 34  1  0  0  0  0
 34 38  1  1  0  0  0
 36 33  1  0  0  0  0
 39 34  1  0  0  0  0
 39 40  1  0  0  0  0
 40 41  1  0  0  0  0
 42 40  2  0  0  0  0
 43 42  1  0  0  0  0
 44 43  1  0  0  0  0
 45 44  2  0  0  0  0
 46 45  1  0  0  0  0
 47 48  2  0  0  0  0
 47 45  1  0  0  0  0
 48 49  1  0  0  0  0
 49 50  1  0  0  0  0
 49 43  2  0  0  0  0
 50 39  2  0  0  0  0
M  END
>  <minimizedAffinity>
-7.20720434

$$$$

 OpenBabel03252503253D

 50 56  0  0  1  0  0  0  0  0999 V2000
   35.6850   28.9020   40.5930 C   0  0  0  0  0  0  0  0  0  0  0  0
   36.4340   29.2640   39.4370 C   0  0  0  0  0  0  0  0  0  0  0  0
   37.8000   29.2980   39.5490 C   0  0  0  0  0  0  0  0  0  0  0  0
   38.3320   28.9800   40.7640 N   0  0  0  0  0  0  0  0  0  0  0  0
   37.6190   28.6410   41.8420 C   0  0  0  0  0  0  0  0  0  0  0  0
   36.2810   28.6010   41.7550 N   0  0  0  0  0  0  0  0  0  0  0  0
   34.5950   28.8690   40.5190 H   0  0  0  0  0  0  0  0  0  0  0  0
   38.4130   29.5670   38.7050 H   0  0  0  0  0  0  0  0  0  0  0  0
   35.7240   29.6040   38.1700 C   0  0  1  0  0  0  0  0  0  0  0  0
   36.1110   28.9660   36.9170 C   0  0  0  0  0  0  0  0  0  0  0  0
   34.8540   28.5150   37.5590 C   0  0  2  0  0  0  0  0  0  0  0  0
   35.3130   30.6290   38.1620 H   0  0  0  0  0  0  0  0  0  0  0  0
   36.2150   29.6060   36.0540 H   0  0  0  0  0  0  0  0  0  0  0  0
   36.9940   28.2500   36.9960 H   0  0  0  0  0  0  0  0  0  0  0  0
   34.8400   27.5890   38.1510 H   0  0  0  0  0  0  0  0  0  0  0  0
   33.5780   29.0170   36.9750 C   0  0  0  0  0  0  0  0  0  0  0  0
   33.3570   29.1840   35.6240 C   0  0  0  0  0  0  0  0  0  0  0  0
   32.1460   29.6680   35.1540 C   0  0  0  0  0  0  0  0  0  0  0  0
   31.1440   29.9890   36.0340 C   0  0  0  0  0  0  0  0  0  0  0  0
   29.9420   30.4620   35.6000 N   0  0  0  0  0  0  0  0  0  0  0  0
   28.9660   30.7700   36.4880 C   0  0  0  0  0  0  0  0  0  0  0  0
   29.1030   30.6310   37.8910 C   0  0  0  0  0  0  0  0  0  0  0  0
   30.3120   30.1540   38.3430 C   0  0  0  0  0  0  0  0  0  0  0  0
   31.3070   29.8420   37.4170 C   0  0  0  0  0  0  0  0  0  0  0  0
   32.5330   29.3560   37.8360 C   0  0  0  0  0  0  0  0  0  0  0  0
   34.1790   28.9170   34.9820 H   0  0  0  0  0  0  0  0  0  0  0  0
   31.9900   29.7920   34.0930 H   0  0  0  0  0  0  0  0  0  0  0  0
   28.0160   31.1450   36.1270 H   0  0  0  0  0  0  0  0  0  0  0  0
   28.2730   30.9000   38.5290 H   0  0  0  0  0  0  0  0  0  0  0  0
   30.4730   30.0280   39.4010 H   0  0  0  0  0  0  0  0  0  0  0  0
   32.5940   29.2720   38.9120 H   0  0  0  0  0  0  0  0  0  0  0  0
   38.3600   28.3150   43.0780 C   0  0  2  0  0  0  0  0  0  0  0  0
   39.7200   27.8130   43.0790 C   0  0  0  0  0  0  0  0  0  0  0  0
   38.6490   26.8080   43.2830 C   0  0  2  0  0  0  0  0  0  0  0  0
   37.9140   28.8200   43.9790 H   0  0  0  0  0  0  0  0  0  0  0  0
   40.2880   27.8630   42.1320 H   0  0  0  0  0  0  0  0  0  0  0  0
   40.3610   28.1290   43.9450 H   0  0  0  0  0  0  0  0  0  0  0  0
   38.4540   26.4880   44.3460 H   0  0  0  0  0  0  0  0  0  0  0  0
   38.4020   25.8560   42.2060 C   0  0  0  0  0  0  0  0  0  0  0  0
   37.1480   25.2480   42.3440 C   0  0  0  0  0  0  0  0  0  0  0  0
   36.4140   25.4390   43.1300 H   0  0  0  0  0  0  0  0  0  0  0  0
   36.6990   24.2850   41.4320 C   0  0  0  0  0  3  0  0  0  0  0  0
   37.5020   23.9350   40.3880 C   0  0  0  0  0  0  0  0  0  0  0  0
   37.1650   23.0190   39.4530 N   0  0  0  0  0  0  0  0  0  0  0  0
   37.9740   22.6890   38.4310 C   0  0  0  0  0  0  0  0  0  0  0  0
   37.6340   21.9470   37.7240 H   0  0  0  0  0  0  0  0  0  0  0  0
   39.2140   23.2810   38.2840 C   0  0  0  0  0  3  0  0  0  0  0  0
   39.6020   24.2170   39.2060 C   0  0  0  0  0  3  0  0  0  0  0  0
   38.7340   24.5200   40.2370 C   0  0  0  0  0  0  0  0  0  0  0  0
   39.1670   25.4630   41.1360 C   0  0  0  0  0  3  0  0  0  0  0  0
  1  6  1  0  0  0  0
  2  3  1  0  0  0  0
  2  1  2  0  0  0  0
  3  4  2  0  0  0  0
  4  5  1  0  0  0  0
  5 32  1  0  0  0  0
  6  5  2  0  0  0  0
  7  1  1  0  0  0  0
  8  3  1  0  0  0  0
  9 12  1  6  0  0  0
  9  2  1  0  0  0  0
 10 14  1  0  0  0  0
 10 11  1  0  0  0  0
 10  9  1  0  0  0  0
 11 15  1  1  0  0  0
 11  9  1  0  0  0  0
 13 10  1  0  0  0  0
 16 11  1  0  0  0  0
 16 25  1  0  0  0  0
 17 16  2  0  0  0  0
 18 17  1  0  0  0  0
 18 19  2  0  0  0  0
 19 24  1  0  0  0  0
 20 19  1  0  0  0  0
 20 21  2  0  0  0  0
 21 22  1  0  0  0  0
 22 23  2  0  0  0  0
 22 29  1  0  0  0  0
 23 30  1  0  0  0  0
 24 25  2  0  0  0  0
 24 23  1  0  0  0  0
 25 31  1  0  0  0  0
 26 17  1  0  0  0  0
 27 18  1  0  0  0  0
 28 21  1  0  0  0  0
 32 33  1  0  0  0  0
 32 34  1  0  0  0  0
 32 35  1  1  0  0  0
 33 34  1  0  0  0  0
 33 37  1  0  0  0  0
 34 38  1  1  0  0  0
 36 33  1  0  0  0  0
 39 40  1  0  0  0  0
 39 34  1  0  0  0  0
 40 41  1  0  0  0  0
 42 40  2  0  0  0  0
 43 42  1  0  0  0  0
 44 43  2  0  0  0  0
 45 44  1  0  0  0  0
 46 45  1  0  0  0  0
 47 45  2  0  0  0  0
 47 48  1  0  0  0  0
 48 49  2  0  0  0  0
 49 43  1  0  0  0  0
 49 50  1  0  0  0  0
 50 39  2  0  0  0  0
M  END
>  <minimizedAffinity>
-7.11468315

$$$$

 OpenBabel03252503253D

 50 56  0  0  1  0  0  0  0  0999 V2000
   36.6570   29.5400   38.3440 C   0  0  0  0  0  0  0  0  0  0  0  0
   35.3090   29.0980   38.4600 C   0  0  0  0  0  0  0  0  0  0  0  0
   34.7440   29.1000   39.7100 C   0  0  0  0  0  0  0  0  0  0  0  0
   35.5230   29.5270   40.7430 N   0  0  0  0  0  0  0  0  0  0  0  0
   36.7880   29.9400   40.6220 C   0  0  0  0  0  0  0  0  0  0  0  0
   37.3620   29.9470   39.4100 N   0  0  0  0  0  0  0  0  0  0  0  0
   37.1210   29.5450   37.3550 H   0  0  0  0  0  0  0  0  0  0  0  0
   33.7270   28.7740   39.8520 H   0  0  0  0  0  0  0  0  0  0  0  0
   34.5710   28.6410   37.2470 C   0  0  1  0  0  0  0  0  0  0  0  0
   33.9250   27.3330   37.2280 C   0  0  0  0  0  0  0  0  0  0  0  0
   33.0580   28.5270   37.3680 C   0  0  2  0  0  0  0  0  0  0  0  0
   34.9620   29.0760   36.3090 H   0  0  0  0  0  0  0  0  0  0  0  0
   34.0720   26.7290   36.3470 H   0  0  0  0  0  0  0  0  0  0  0  0
   34.0710   26.7120   38.1720 H   0  0  0  0  0  0  0  0  0  0  0  0
   32.6790   28.8190   38.3570 H   0  0  0  0  0  0  0  0  0  0  0  0
   32.3200   28.9730   36.1520 C   0  0  0  0  0  0  0  0  0  0  0  0
   32.0720   28.1710   35.0580 C   0  0  0  0  0  0  0  0  0  0  0  0
   31.3870   28.6590   33.9570 C   0  0  0  0  0  0  0  0  0  0  0  0
   30.9420   29.9570   33.9410 C   0  0  0  0  0  0  0  0  0  0  0  0
   30.2620   30.4610   32.8730 N   0  0  0  0  0  0  0  0  0  0  0  0
   29.8310   31.7460   32.8810 C   0  0  0  0  0  0  0  0  0  0  0  0
   30.0390   32.6410   33.9590 C   0  0  0  0  0  0  0  0  0  0  0  0
   30.7240   32.1440   35.0440 C   0  0  0  0  0  0  0  0  0  0  0  0
   31.1630   30.8210   35.0200 C   0  0  0  0  0  0  0  0  0  0  0  0
   31.8510   30.2870   36.0960 C   0  0  0  0  0  0  0  0  0  0  0  0
   32.4450   27.1630   35.1270 H   0  0  0  0  0  0  0  0  0  0  0  0
   31.2020   28.0170   33.1080 H   0  0  0  0  0  0  0  0  0  0  0  0
   29.2920   32.1320   32.0250 H   0  0  0  0  0  0  0  0  0  0  0  0
   29.6600   33.6510   33.8830 H   0  0  0  0  0  0  0  0  0  0  0  0
   30.9120   32.7810   35.8930 H   0  0  0  0  0  0  0  0  0  0  0  0
   31.9910   31.0060   36.8900 H   0  0  0  0  0  0  0  0  0  0  0  0
   37.4850   30.3810   41.8490 C   0  0  2  0  0  0  0  0  0  0  0  0
   38.9150   30.2370   42.0450 C   0  0  0  0  0  0  0  0  0  0  0  0
   38.0560   29.2340   42.7190 C   0  0  2  0  0  0  0  0  0  0  0  0
   36.8810   31.1330   42.4270 H   0  0  0  0  0  0  0  0  0  0  0  0
   39.5300   29.9690   41.1660 H   0  0  0  0  0  0  0  0  0  0  0  0
   39.4130   31.0420   42.6490 H   0  0  0  0  0  0  0  0  0  0  0  0
   37.8510   29.4010   43.8140 H   0  0  0  0  0  0  0  0  0  0  0  0
   38.0870   27.8670   42.2100 C   0  0  0  0  0  0  0  0  0  0  0  0
   37.0840   27.0840   42.7960 C   0  0  0  0  0  0  0  0  0  0  0  0
   36.3470   27.4130   43.5320 H   0  0  0  0  0  0  0  0  0  0  0  0
   36.9310   25.7310   42.4710 C   0  0  0  0  0  3  0  0  0  0  0  0
   37.7760   25.1670   41.5630 C   0  0  0  0  0  0  0  0  0  0  0  0
   37.7140   23.8720   41.1790 N   0  0  0  0  0  0  0  0  0  0  0  0
   38.5600   23.3360   40.2820 C   0  0  0  0  0  0  0  0  0  0  0  0
   38.4470   22.2940   40.0270 H   0  0  0  0  0  0  0  0  0  0  0  0
   39.5530   24.0980   39.6970 C   0  0  0  0  0  3  0  0  0  0  0  0
   39.6580   25.4170   40.0520 C   0  0  0  0  0  3  0  0  0  0  0  0
   38.7650   25.9190   40.9790 C   0  0  0  0  0  0  0  0  0  0  0  0
   38.9090   27.2440   41.3030 C   0  0  0  0  0  3  0  0  0  0  0  0
  1  2  2  0  0  0  0
  1  6  1  0  0  0  0
  2  3  1  0  0  0  0
  3  8  1  0  0  0  0
  3  4  2  0  0  0  0
  5  4  1  0  0  0  0
  5 32  1  0  0  0  0
  6  5  2  0  0  0  0
  7  1  1  0  0  0  0
  9 12  1  6  0  0  0
  9 11  1  0  0  0  0
  9  2  1  0  0  0  0
 10  9  1  0  0  0  0
 10 11  1  0  0  0  0
 10 14  1  0  0  0  0
 11 15  1  1  0  0  0
 13 10  1  0  0  0  0
 16 11  1  0  0  0  0
 17 26  1  0  0  0  0
 17 16  2  0  0  0  0
 18 17  1  0  0  0  0
 19 18  2  0  0  0  0
 19 24  1  0  0  0  0
 20 21  2  0  0  0  0
 20 19  1  0  0  0  0
 21 22  1  0  0  0  0
 22 23  2  0  0  0  0
 23 30  1  0  0  0  0
 24 23  1  0  0  0  0
 24 25  2  0  0  0  0
 25 16  1  0  0  0  0
 25 31  1  0  0  0  0
 27 18  1  0  0  0  0
 28 21  1  0  0  0  0
 29 22  1  0  0  0  0
 32 33  1  0  0  0  0
 32 35  1  1  0  0  0
 32 34  1  0  0  0  0
 33 37  1  0  0  0  0
 33 34  1  0  0  0  0
 34 38  1  1  0  0  0
 36 33  1  0  0  0  0
 39 34  1  0  0  0  0
 39 40  1  0  0  0  0
 40 41  1  0  0  0  0
 42 40  2  0  0  0  0
 43 42  1  0  0  0  0
 44 43  1  0  0  0  0
 45 44  2  0  0  0  0
 46 45  1  0  0  0  0
 47 48  2  0  0  0  0
 47 45  1  0  0  0  0
 48 49  1  0  0  0  0
 49 50  1  0  0  0  0
 49 43  2  0  0  0  0
 50 39  2  0  0  0  0
M  END
>  <minimizedAffinity>
-6.93054676

$$$$

 OpenBabel03252503253D

 50 56  0  0  1  0  0  0  0  0999 V2000
   37.3900   28.8100   39.2640 C   0  0  0  0  0  0  0  0  0  0  0  0
   35.9930   29.0400   39.4120 C   0  0  0  0  0  0  0  0  0  0  0  0
   35.4600   28.9310   40.6700 C   0  0  0  0  0  0  0  0  0  0  0  0
   36.3150   28.6090   41.6820 N   0  0  0  0  0  0  0  0  0  0  0  0
   37.6260   28.3950   41.5310 C   0  0  0  0  0  0  0  0  0  0  0  0
   38.1690   28.4960   40.3090 N   0  0  0  0  0  0  0  0  0  0  0  0
   37.8300   28.8940   38.2670 H   0  0  0  0  0  0  0  0  0  0  0  0
   34.4080   29.0950   40.8360 H   0  0  0  0  0  0  0  0  0  0  0  0
   35.1650   29.3730   38.2160 C   0  0  1  0  0  0  0  0  0  0  0  0
   35.1340   28.4710   37.0700 C   0  0  0  0  0  0  0  0  0  0  0  0
   33.9490   28.4950   37.9590 C   0  0  2  0  0  0  0  0  0  0  0  0
   35.0330   30.4590   38.0660 H   0  0  0  0  0  0  0  0  0  0  0  0
   35.2310   28.9190   36.0930 H   0  0  0  0  0  0  0  0  0  0  0  0
   35.8050   27.5550   37.1610 H   0  0  0  0  0  0  0  0  0  0  0  0
   33.8140   27.7100   38.7170 H   0  0  0  0  0  0  0  0  0  0  0  0
   32.7550   29.2440   37.4750 C   0  0  0  0  0  0  0  0  0  0  0  0
   31.7130   29.6470   38.2850 C   0  0  0  0  0  0  0  0  0  0  0  0
   30.6280   30.3310   37.7620 C   0  0  0  0  0  0  0  0  0  0  0  0
   30.5750   30.6180   36.4210 C   0  0  0  0  0  0  0  0  0  0  0  0
   29.5210   31.2930   35.8800 N   0  0  0  0  0  0  0  0  0  0  0  0
   29.4920   31.5670   34.5540 C   0  0  0  0  0  0  0  0  0  0  0  0
   30.5140   31.1910   33.6480 C   0  0  0  0  0  0  0  0  0  0  0  0
   31.5840   30.5100   34.1800 C   0  0  0  0  0  0  0  0  0  0  0  0
   31.6000   30.2350   35.5480 C   0  0  0  0  0  0  0  0  0  0  0  0
   32.6610   29.5550   36.1180 C   0  0  0  0  0  0  0  0  0  0  0  0
   31.8100   29.3940   39.3270 H   0  0  0  0  0  0  0  0  0  0  0  0
   29.8210   30.6410   38.4100 H   0  0  0  0  0  0  0  0  0  0  0  0
   28.6480   32.1040   34.1390 H   0  0  0  0  0  0  0  0  0  0  0  0
   30.4110   31.4510   32.6030 H   0  0  0  0  0  0  0  0  0  0  0  0
   32.3910   30.1990   33.5380 H   0  0  0  0  0  0  0  0  0  0  0  0
   33.4130   29.2840   35.3900 H   0  0  0  0  0  0  0  0  0  0  0  0
   38.4090   28.0650   42.7400 C   0  0  2  0  0  0  0  0  0  0  0  0
   39.7540   27.5250   42.6910 C   0  0  0  0  0  0  0  0  0  0  0  0
   38.6660   26.5530   42.9540 C   0  0  2  0  0  0  0  0  0  0  0  0
   38.0160   28.5930   43.6510 H   0  0  0  0  0  0  0  0  0  0  0  0
   40.2830   27.5480   41.7200 H   0  0  0  0  0  0  0  0  0  0  0  0
   40.4400   27.8340   43.5250 H   0  0  0  0  0  0  0  0  0  0  0  0
   38.5080   26.2520   44.0280 H   0  0  0  0  0  0  0  0  0  0  0  0
   38.3480   25.5940   41.9010 C   0  0  0  0  0  0  0  0  0  0  0  0
   37.0590   25.0710   42.0640 C   0  0  0  0  0  0  0  0  0  0  0  0
   36.3470   25.3250   42.8520 H   0  0  0  0  0  0  0  0  0  0  0  0
   36.5410   24.1180   41.1790 C   0  0  0  0  0  3  0  0  0  0  0  0
   37.3100   23.6940   40.1360 C   0  0  0  0  0  0  0  0  0  0  0  0
   36.9060   22.7800   39.2260 N   0  0  0  0  0  0  0  0  0  0  0  0
   37.6820   22.3760   38.2050 C   0  0  0  0  0  0  0  0  0  0  0  0
   37.2880   21.6420   37.5190 H   0  0  0  0  0  0  0  0  0  0  0  0
   38.9550   22.8840   38.0330 C   0  0  0  0  0  3  0  0  0  0  0  0
   39.4120   23.8140   38.9300 C   0  0  0  0  0  3  0  0  0  0  0  0
   38.5750   24.1960   39.9620 C   0  0  0  0  0  0  0  0  0  0  0  0
   39.0760   25.1290   40.8340 C   0  0  0  0  0  3  0  0  0  0  0  0
  1  2  2  0  0  0  0
  1  6  1  0  0  0  0
  2  3  1  0  0  0  0
  3  8  1  0  0  0  0
  3  4  2  0  0  0  0
  5  4  1  0  0  0  0
  5 32  1  0  0  0  0
  6  5  2  0  0  0  0
  7  1  1  0  0  0  0
  9 12  1  6  0  0  0
  9  2  1  0  0  0  0
 10 14  1  0  0  0  0
 10 11  1  0  0  0  0
 10  9  1  0  0  0  0
 11  9  1  0  0  0  0
 11 15  1  1  0  0  0
 13 10  1  0  0  0  0
 16 11  1  0  0  0  0
 16 17  1  0  0  0  0
 17 26  1  0  0  0  0
 18 17  2  0  0  0  0
 18 27  1  0  0  0  0
 19 18  1  0  0  0  0
 20 19  1  0  0  0  0
 21 20  2  0  0  0  0
 22 23  2  0  0  0  0
 22 21  1  0  0  0  0
 23 24  1  0  0  0  0
 24 25  1  0  0  0  0
 24 19  2  0  0  0  0
 25 16  2  0  0  0  0
 28 21  1  0  0  0  0
 29 22  1  0  0  0  0
 30 23  1  0  0  0  0
 31 25  1  0  0  0  0
 32 34  1  0  0  0  0
 32 35  1  1  0  0  0
 33 32  1  0  0  0  0
 33 34  1  0  0  0  0
 33 37  1  0  0  0  0
 34 38  1  1  0  0  0
 36 33  1  0  0  0  0
 39 40  1  0  0  0  0
 39 34  1  0  0  0  0
 40 41  1  0  0  0  0
 42 40  2  0  0  0  0
 43 42  1  0  0  0  0
 44 43  2  0  0  0  0
 45 44  1  0  0  0  0
 46 45  1  0  0  0  0
 47 45  2  0  0  0  0
 47 48  1  0  0  0  0
 48 49  2  0  0  0  0
 49 43  1  0  0  0  0
 49 50  1  0  0  0  0
 50 39  2  0  0  0  0
M  END
>  <minimizedAffinity>
-6.91204739

$$$$

 OpenBabel03252503253D

 50 56  0  0  1  0  0  0  0  0999 V2000
   36.2020   29.6820   37.1450 C   0  0  0  0  0  0  0  0  0  0  0  0
   35.9580   29.8910   38.5320 C   0  0  0  0  0  0  0  0  0  0  0  0
   35.1610   28.9840   39.1810 C   0  0  0  0  0  0  0  0  0  0  0  0
   34.6670   27.9510   38.4420 N   0  0  0  0  0  0  0  0  0  0  0  0
   34.9030   27.7640   37.1410 C   0  0  0  0  0  0  0  0  0  0  0  0
   35.6790   28.6400   36.4850 N   0  0  0  0  0  0  0  0  0  0  0  0
   36.8360   30.3970   36.6130 H   0  0  0  0  0  0  0  0  0  0  0  0
   34.9450   29.0970   40.2310 H   0  0  0  0  0  0  0  0  0  0  0  0
   36.5510   31.0750   39.2190 C   0  0  1  0  0  0  0  0  0  0  0  0
   36.6200   31.1210   40.6760 C   0  0  0  0  0  0  0  0  0  0  0  0
   37.8760   30.8580   39.9350 C   0  0  2  0  0  0  0  0  0  0  0  0
   36.4470   32.0120   38.6430 H   0  0  0  0  0  0  0  0  0  0  0  0
   36.3180   32.0410   41.1500 H   0  0  0  0  0  0  0  0  0  0  0  0
   36.1600   30.2240   41.2070 H   0  0  0  0  0  0  0  0  0  0  0  0
   38.2560   29.8310   39.8420 H   0  0  0  0  0  0  0  0  0  0  0  0
   38.8310   31.9940   39.7970 C   0  0  0  0  0  0  0  0  0  0  0  0
   38.8380   33.1050   40.6150 C   0  0  0  0  0  0  0  0  0  0  0  0
   39.7500   34.1290   40.4190 C   0  0  0  0  0  0  0  0  0  0  0  0
   40.6650   34.0520   39.4000 C   0  0  0  0  0  0  0  0  0  0  0  0
   41.5760   35.0430   39.1870 N   0  0  0  0  0  0  0  0  0  0  0  0
   42.4710   34.9430   38.1750 C   0  0  0  0  0  0  0  0  0  0  0  0
   42.5380   33.8430   37.2850 C   0  0  0  0  0  0  0  0  0  0  0  0
   41.6240   32.8350   37.4890 C   0  0  0  0  0  0  0  0  0  0  0  0
   40.7080   32.9520   38.5350 C   0  0  0  0  0  0  0  0  0  0  0  0
   39.7780   31.9550   38.7720 C   0  0  0  0  0  0  0  0  0  0  0  0
   38.0970   33.1100   41.3970 H   0  0  0  0  0  0  0  0  0  0  0  0
   39.7420   34.9910   41.0700 H   0  0  0  0  0  0  0  0  0  0  0  0
   43.1890   35.7390   38.0180 H   0  0  0  0  0  0  0  0  0  0  0  0
   43.2850   33.8440   36.5040 H   0  0  0  0  0  0  0  0  0  0  0  0
   41.6280   31.9730   36.8420 H   0  0  0  0  0  0  0  0  0  0  0  0
   39.8610   31.1400   38.0660 H   0  0  0  0  0  0  0  0  0  0  0  0
   34.2930   26.5820   36.4960 C   0  0  2  0  0  0  0  0  0  0  0  0
   33.9660   26.5280   35.0840 C   0  0  0  0  0  0  0  0  0  0  0  0
   32.8380   26.7850   36.0100 C   0  0  2  0  0  0  0  0  0  0  0  0
   34.4440   25.6490   37.1050 H   0  0  0  0  0  0  0  0  0  0  0  0
   34.3680   27.3250   34.4320 H   0  0  0  0  0  0  0  0  0  0  0  0
   34.0670   25.5230   34.5940 H   0  0  0  0  0  0  0  0  0  0  0  0
   32.1860   25.9040   36.2680 H   0  0  0  0  0  0  0  0  0  0  0  0
   32.2430   28.1180   35.9970 C   0  0  0  0  0  0  0  0  0  0  0  0
   32.4610   28.7590   34.7720 C   0  0  0  0  0  0  0  0  0  0  0  0
   32.9910   28.3510   33.9080 H   0  0  0  0  0  0  0  0  0  0  0  0
   31.9940   30.0570   34.5330 C   0  0  0  0  0  3  0  0  0  0  0  0
   31.3100   30.7070   35.5170 C   0  0  0  0  0  0  0  0  0  0  0  0
   30.8160   31.9590   35.3900 N   0  0  0  0  0  0  0  0  0  0  0  0
   30.1440   32.5810   36.3740 C   0  0  0  0  0  0  0  0  0  0  0  0
   29.7810   33.5810   36.1970 H   0  0  0  0  0  0  0  0  0  0  0  0
   29.9220   31.9590   37.5880 C   0  0  0  0  0  3  0  0  0  0  0  0
   30.4030   30.6890   37.7670 C   0  0  0  0  0  3  0  0  0  0  0  0
   31.0870   30.0940   36.7240 C   0  0  0  0  0  0  0  0  0  0  0  0
   31.5490   28.8220   36.9500 C   0  0  0  0  0  3  0  0  0  0  0  0
  1  2  1  0  0  0  0
  2  3  2  0  0  0  0
  2  9  1  0  0  0  0
  3  8  1  0  0  0  0
  4  3  1  0  0  0  0
  5  4  2  0  0  0  0
  6  5  1  0  0  0  0
  6  1  2  0  0  0  0
  7  1  1  0  0  0  0
  9 12  1  6  0  0  0
  9 11  1  0  0  0  0
  9 10  1  0  0  0  0
 10 13  1  0  0  0  0
 10 14  1  0  0  0  0
 11 15  1  1  0  0  0
 11 10  1  0  0  0  0
 16 11  1  0  0  0  0
 16 17  1  0  0  0  0
 17 26  1  0  0  0  0
 18 17  2  0  0  0  0
 18 27  1  0  0  0  0
 19 18  1  0  0  0  0
 20 19  1  0  0  0  0
 21 20  2  0  0  0  0
 22 23  2  0  0  0  0
 22 21  1  0  0  0  0
 23 24  1  0  0  0  0
 24 25  1  0  0  0  0
 24 19  2  0  0  0  0
 25 16  2  0  0  0  0
 28 21  1  0  0  0  0
 29 22  1  0  0  0  0
 30 23  1  0  0  0  0
 31 25  1  0  0  0  0
 32 35  1  1  0  0  0
 32  5  1  0  0  0  0
 33 34  1  0  0  0  0
 33 32  1  0  0  0  0
 34 38  1  1  0  0  0
 34 32  1  0  0  0  0
 36 33  1  0  0  0  0
 37 33  1  0  0  0  0
 39 34  1  0  0  0  0
 39 50  1  0  0  0  0
 40 39  2  0  0  0  0
 41 40  1  0  0  0  0
 42 40  1  0  0  0  0
 42 43  2  0  0  0  0
 43 49  1  0  0  0  0
 44 43  1  0  0  0  0
 44 45  2  0  0  0  0
 45 47  1  0  0  0  0
 46 45  1  0  0  0  0
 47 48  2  0  0  0  0
 49 50  2  0  0  0  0
 49 48  1  0  0  0  0
M  END
>  <minimizedAffinity>
-6.69307804

$$$$

 OpenBabel03252503253D

 50 56  0  0  1  0  0  0  0  0999 V2000
   37.8000   29.7560   38.5660 C   0  0  0  0  0  0  0  0  0  0  0  0
   36.3920   29.9420   38.6620 C   0  0  0  0  0  0  0  0  0  0  0  0
   35.8970   30.4600   39.8320 C   0  0  0  0  0  0  0  0  0  0  0  0
   36.7980   30.7550   40.8100 N   0  0  0  0  0  0  0  0  0  0  0  0
   38.1190   30.5760   40.7090 C   0  0  0  0  0  0  0  0  0  0  0  0
   38.6250   30.0710   39.5740 N   0  0  0  0  0  0  0  0  0  0  0  0
   38.2100   29.3450   37.6390 H   0  0  0  0  0  0  0  0  0  0  0  0
   34.8390   30.6200   39.9560 H   0  0  0  0  0  0  0  0  0  0  0  0
   35.5130   29.5630   37.5170 C   0  0  1  0  0  0  0  0  0  0  0  0
   35.6050   28.2310   36.9310 C   0  0  0  0  0  0  0  0  0  0  0  0
   34.4370   28.5230   37.7950 C   0  0  2  0  0  0  0  0  0  0  0  0
   35.2210   30.4230   36.8890 H   0  0  0  0  0  0  0  0  0  0  0  0
   35.6260   28.1720   35.8540 H   0  0  0  0  0  0  0  0  0  0  0  0
   36.4040   27.5590   37.3860 H   0  0  0  0  0  0  0  0  0  0  0  0
   34.4260   28.1800   38.8390 H   0  0  0  0  0  0  0  0  0  0  0  0
   33.1410   28.7980   37.1120 C   0  0  0  0  0  0  0  0  0  0  0  0
   32.1400   29.5870   37.6390 C   0  0  0  0  0  0  0  0  0  0  0  0
   30.9550   29.7890   36.9500 C   0  0  0  0  0  0  0  0  0  0  0  0
   30.7610   29.2020   35.7250 C   0  0  0  0  0  0  0  0  0  0  0  0
   29.6060   29.3870   35.0240 N   0  0  0  0  0  0  0  0  0  0  0  0
   29.4380   28.7980   33.8150 C   0  0  0  0  0  0  0  0  0  0  0  0
   30.4090   27.9720   33.1980 C   0  0  0  0  0  0  0  0  0  0  0  0
   31.5800   27.7780   33.8950 C   0  0  0  0  0  0  0  0  0  0  0  0
   31.7380   28.3900   35.1380 C   0  0  0  0  0  0  0  0  0  0  0  0
   32.9030   28.2190   35.8640 C   0  0  0  0  0  0  0  0  0  0  0  0
   32.3490   30.0210   38.6020 H   0  0  0  0  0  0  0  0  0  0  0  0
   30.1810   30.4100   37.3770 H   0  0  0  0  0  0  0  0  0  0  0  0
   28.5160   28.9540   33.2700 H   0  0  0  0  0  0  0  0  0  0  0  0
   30.1940   27.5420   32.2300 H   0  0  0  0  0  0  0  0  0  0  0  0
   32.3540   27.1590   33.4730 H   0  0  0  0  0  0  0  0  0  0  0  0
   33.6120   27.5780   35.3580 H   0  0  0  0  0  0  0  0  0  0  0  0
   38.9530   30.9610   41.8660 C   0  0  2  0  0  0  0  0  0  0  0  0
   40.2520   30.3760   42.1370 C   0  0  0  0  0  0  0  0  0  0  0  0
   39.1190   29.8600   42.9420 C   0  0  2  0  0  0  0  0  0  0  0  0
   38.6560   31.9620   42.2830 H   0  0  0  0  0  0  0  0  0  0  0  0
   40.7180   29.7660   41.3420 H   0  0  0  0  0  0  0  0  0  0  0  0
   41.0090   31.0560   42.6120 H   0  0  0  0  0  0  0  0  0  0  0  0
   39.0090   30.2750   43.9830 H   0  0  0  0  0  0  0  0  0  0  0  0
   38.6690   28.4970   42.6780 C   0  0  0  0  0  0  0  0  0  0  0  0
   37.4040   28.2640   43.2300 C   0  0  0  0  0  0  0  0  0  0  0  0
   36.7920   28.9800   43.7830 H   0  0  0  0  0  0  0  0  0  0  0  0
   36.7750   27.0180   43.1160 C   0  0  0  0  0  3  0  0  0  0  0  0
   37.4120   26.0130   42.4510 C   0  0  0  0  0  0  0  0  0  0  0  0
   36.8940   24.7750   42.2840 N   0  0  0  0  0  0  0  0  0  0  0  0
   37.5400   23.7980   41.6240 C   0  0  0  0  0  0  0  0  0  0  0  0
   37.0600   22.8350   41.5320 H   0  0  0  0  0  0  0  0  0  0  0  0
   38.7890   24.0150   41.0740 C   0  0  0  0  0  3  0  0  0  0  0  0
   39.3570   25.2530   41.2170 C   0  0  0  0  0  3  0  0  0  0  0  0
   38.6520   26.2230   41.9040 C   0  0  0  0  0  0  0  0  0  0  0  0
   39.2610   27.4470   42.0200 C   0  0  0  0  0  3  0  0  0  0  0  0
  1  2  2  0  0  0  0
  1  6  1  0  0  0  0
  2  3  1  0  0  0  0
  3  8  1  0  0  0  0
  3  4  2  0  0  0  0
  5  4  1  0  0  0  0
  5 32  1  0  0  0  0
  6  5  2  0  0  0  0
  7  1  1  0  0  0  0
  9 12  1  6  0  0  0
  9 11  1  0  0  0  0
  9  2  1  0  0  0  0
 10 14  1  0  0  0  0
 10  9  1  0  0  0  0
 10 11  1  0  0  0  0
 11 15  1  1  0  0  0
 13 10  1  0  0  0  0
 16 17  1  0  0  0  0
 16 11  1  0  0  0  0
 17 26  1  0  0  0  0
 18 27  1  0  0  0  0
 18 17  2  0  0  0  0
 19 18  1  0  0  0  0
 20 19  2  0  0  0  0
 21 20  1  0  0  0  0
 22 21  2  0  0  0  0
 22 23  1  0  0  0  0
 23 24  2  0  0  0  0
 24 19  1  0  0  0  0
 24 25  1  0  0  0  0
 25 16  2  0  0  0  0
 28 21  1  0  0  0  0
 29 22  1  0  0  0  0
 30 23  1  0  0  0  0
 31 25  1  0  0  0  0
 32 33  1  0  0  0  0
 32 35  1  1  0  0  0
 32 34  1  0  0  0  0
 33 37  1  0  0  0  0
 33 34  1  0  0  0  0
 34 38  1  1  0  0  0
 36 33  1  0  0  0  0
 39 34  1  0  0  0  0
 39 40  1  0  0  0  0
 40 41  1  0  0  0  0
 42 40  2  0  0  0  0
 43 42  1  0  0  0  0
 44 43  1  0  0  0  0
 45 44  2  0  0  0  0
 46 45  1  0  0  0  0
 47 48  2  0  0  0  0
 47 45  1  0  0  0  0
 48 49  1  0  0  0  0
 49 50  1  0  0  0  0
 49 43  2  0  0  0  0
 50 39  2  0  0  0  0
M  END
>  <minimizedAffinity>
-6.64201212

$$$$

 OpenBabel03252503253D

 50 56  0  0  1  0  0  0  0  0999 V2000
   36.5510   30.9320   39.8030 C   0  0  0  0  0  0  0  0  0  0  0  0
   37.1310   30.3740   38.6290 C   0  0  0  0  0  0  0  0  0  0  0  0
   38.4890   30.1830   38.6200 C   0  0  0  0  0  0  0  0  0  0  0  0
   39.1750   30.5440   39.7420 N   0  0  0  0  0  0  0  0  0  0  0  0
   38.6190   31.0680   40.8380 C   0  0  0  0  0  0  0  0  0  0  0  0
   37.2920   31.2640   40.8690 N   0  0  0  0  0  0  0  0  0  0  0  0
   35.4690   31.0900   39.8260 H   0  0  0  0  0  0  0  0  0  0  0  0
   38.9780   29.7640   37.7560 H   0  0  0  0  0  0  0  0  0  0  0  0
   36.2650   30.0350   37.4620 C   0  0  1  0  0  0  0  0  0  0  0  0
   36.8630   29.7450   36.1640 C   0  0  0  0  0  0  0  0  0  0  0  0
   36.3380   28.6040   36.9490 C   0  0  2  0  0  0  0  0  0  0  0  0
   35.2610   30.4910   37.5180 H   0  0  0  0  0  0  0  0  0  0  0  0
   36.4100   30.2130   35.3030 H   0  0  0  0  0  0  0  0  0  0  0  0
   37.9970   29.8420   36.1250 H   0  0  0  0  0  0  0  0  0  0  0  0
   37.0260   27.9710   37.5270 H   0  0  0  0  0  0  0  0  0  0  0  0
   35.0210   28.0440   36.5330 C   0  0  0  0  0  0  0  0  0  0  0  0
   34.1050   28.7170   35.7500 C   0  0  0  0  0  0  0  0  0  0  0  0
   32.8940   28.1370   35.4120 C   0  0  0  0  0  0  0  0  0  0  0  0
   32.5870   26.8740   35.8540 C   0  0  0  0  0  0  0  0  0  0  0  0
   31.4040   26.2770   35.5330 N   0  0  0  0  0  0  0  0  0  0  0  0
   31.1240   25.0290   35.9790 C   0  0  0  0  0  0  0  0  0  0  0  0
   32.0010   24.2640   36.7870 C   0  0  0  0  0  0  0  0  0  0  0  0
   33.1990   24.8550   37.1180 C   0  0  0  0  0  0  0  0  0  0  0  0
   33.4730   26.1410   36.6510 C   0  0  0  0  0  0  0  0  0  0  0  0
   34.6690   26.7630   36.9620 C   0  0  0  0  0  0  0  0  0  0  0  0
   34.4010   29.7030   35.4340 H   0  0  0  0  0  0  0  0  0  0  0  0
   32.1890   28.6770   34.7980 H   0  0  0  0  0  0  0  0  0  0  0  0
   30.1800   24.5680   35.7150 H   0  0  0  0  0  0  0  0  0  0  0  0
   31.6990   23.2750   37.0990 H   0  0  0  0  0  0  0  0  0  0  0  0
   33.9060   24.3200   37.7300 H   0  0  0  0  0  0  0  0  0  0  0  0
   35.3030   26.1460   37.5830 H   0  0  0  0  0  0  0  0  0  0  0  0
   39.5120   31.3930   41.9700 C   0  0  2  0  0  0  0  0  0  0  0  0
   40.7430   30.6760   42.2410 C   0  0  0  0  0  0  0  0  0  0  0  0
   39.5740   30.3140   43.0780 C   0  0  2  0  0  0  0  0  0  0  0  0
   39.3350   32.4330   42.3580 H   0  0  0  0  0  0  0  0  0  0  0  0
   41.1240   29.9940   41.4590 H   0  0  0  0  0  0  0  0  0  0  0  0
   41.5790   31.2820   42.6820 H   0  0  0  0  0  0  0  0  0  0  0  0
   39.5300   30.7700   44.1070 H   0  0  0  0  0  0  0  0  0  0  0  0
   38.9720   29.0010   42.8660 C   0  0  0  0  0  0  0  0  0  0  0  0
   37.7170   28.9130   43.4810 C   0  0  0  0  0  0  0  0  0  0  0  0
   37.2120   29.6990   44.0460 H   0  0  0  0  0  0  0  0  0  0  0  0
   36.9570   27.7390   43.4240 C   0  0  0  0  0  3  0  0  0  0  0  0
   37.4510   26.6610   42.7520 C   0  0  0  0  0  0  0  0  0  0  0  0
   36.7990   25.4820   42.6360 N   0  0  0  0  0  0  0  0  0  0  0  0
   37.3060   24.4310   41.9680 C   0  0  0  0  0  0  0  0  0  0  0  0
   36.7250   23.5230   41.9200 H   0  0  0  0  0  0  0  0  0  0  0  0
   38.5430   24.5060   41.3570 C   0  0  0  0  0  3  0  0  0  0  0  0
   39.2440   25.6790   41.4450 C   0  0  0  0  0  3  0  0  0  0  0  0
   38.6790   26.7290   42.1430 C   0  0  0  0  0  0  0  0  0  0  0  0
   39.4180   27.8840   42.2040 C   0  0  0  0  0  3  0  0  0  0  0  0
  1  7  1  0  0  0  0
  1  6  1  0  0  0  0
  2  1  2  0  0  0  0
  3  2  1  0  0  0  0
  3  4  2  0  0  0  0
  4  5  1  0  0  0  0
  5  6  2  0  0  0  0
  5 32  1  0  0  0  0
  8  3  1  0  0  0  0
  9 12  1  6  0  0  0
  9  2  1  0  0  0  0
 10 11  1  0  0  0  0
 10  9  1  0  0  0  0
 11  9  1  0  0  0  0
 11 15  1  1  0  0  0
 13 10  1  0  0  0  0
 14 10  1  0  0  0  0
 16 11  1  0  0  0  0
 16 25  1  0  0  0  0
 17 16  2  0  0  0  0
 18 17  1  0  0  0  0
 18 19  2  0  0  0  0
 19 24  1  0  0  0  0
 20 19  1  0  0  0  0
 20 21  2  0  0  0  0
 21 22  1  0  0  0  0
 22 29  1  0  0  0  0
 22 23  2  0  0  0  0
 23 30  1  0  0  0  0
 24 25  2  0  0  0  0
 24 23  1  0  0  0  0
 25 31  1  0  0  0  0
 26 17  1  0  0  0  0
 27 18  1  0  0  0  0
 28 21  1  0  0  0  0
 32 33  1  0  0  0  0
 32 35  1  1  0  0  0
 32 34  1  0  0  0  0
 33 37  1  0  0  0  0
 33 34  1  0  0  0  0
 34 38  1  1  0  0  0
 36 33  1  0  0  0  0
 39 34  1  0  0  0  0
 39 40  1  0  0  0  0
 40 41  1  0  0  0  0
 42 40  2  0  0  0  0
 43 42  1  0  0  0  0
 44 43  1  0  0  0  0
 45 44  2  0  0  0  0
 46 45  1  0  0  0  0
 47 48  2  0  0  0  0
 47 45  1  0  0  0  0
 48 49  1  0  0  0  0
 49 50  1  0  0  0  0
 49 43  2  0  0  0  0
 50 39  2  0  0  0  0
M  END
>  <minimizedAffinity>
-6.49051428

$$$$
