
 OpenBabel03252507383D

 41 46  0  0  0  0  0  0  0  0999 V2000
   47.1800   31.1210   45.7410 C   0  0  0  0  0  0  0  0  0  0  0  0
   48.0230   30.4040   46.6310 C   0  0  0  0  0  0  0  0  0  0  0  0
   48.2260   30.9480   47.8840 C   0  0  0  0  0  0  0  0  0  0  0  0
   47.6260   32.1130   48.2000 N   0  0  0  0  0  0  0  0  0  0  0  0
   46.8250   32.7800   47.3330 C   0  0  0  0  0  0  0  0  0  0  0  0
   46.6130   32.2770   46.1190 N   0  0  0  0  0  0  0  0  0  0  0  0
   48.5050   29.4710   46.3850 H   0  0  0  0  0  0  0  0  0  0  0  0
   46.3720   33.7070   47.6380 H   0  0  0  0  0  0  0  0  0  0  0  0
   49.5600   31.1620   49.9100 C   0  0  0  0  0  0  0  0  0  0  0  0
   49.0660   30.3290   48.9100 C   0  0  0  0  0  0  0  0  0  0  0  0
   49.3890   29.0110   48.9490 C   0  0  0  0  0  0  0  0  0  0  0  0
   50.1830   28.4480   49.9260 C   0  0  0  0  0  0  0  0  0  0  0  0
   50.6190   27.1940   50.1540 N   0  0  0  0  0  0  0  0  0  0  0  0
   51.3960   27.2320   51.3030 C   0  0  0  0  0  0  0  0  0  0  0  0
   51.4120   28.5130   51.7500 N   0  0  0  0  0  0  0  0  0  0  0  0
   50.6780   29.2610   50.9200 C   0  0  0  0  0  0  0  0  0  0  0  0
   50.3680   30.6030   50.9110 C   0  0  0  0  0  0  0  0  0  0  0  0
   49.3550   32.2210   49.9590 H   0  0  0  0  0  0  0  0  0  0  0  0
   48.9850   28.3910   48.1510 H   0  0  0  0  0  0  0  0  0  0  0  0
   50.3990   26.3660   49.5560 H   0  0  0  0  0  0  0  0  0  0  0  0
   51.8910   26.3720   51.7470 H   0  0  0  0  0  0  0  0  0  0  0  0
   50.7380   31.2590   51.6690 H   0  0  0  0  0  0  0  0  0  0  0  0
   46.9780   30.5660   44.4740 O   0  0  0  0  0  0  0  0  0  0  0  0
   46.6000   31.3840   43.4140 C   0  0  0  0  0  0  0  0  0  0  0  0
   47.8050   31.7640   42.9460 C   0  0  0  0  0  0  0  0  0  0  0  0
   47.3090   32.8880   41.4810 S   0  0  0  0  0  0  0  0  0  0  0  0
   45.4930   32.5560   41.8760 C   0  0  0  0  0  0  0  0  0  0  0  0
   45.5940   31.8870   42.7430 N   0  0  0  0  0  0  0  0  0  0  0  0
   49.0150   31.8510   42.8570 H   0  0  0  0  0  0  0  0  0  0  0  0
   44.4920   33.2060   41.0140 C   0  0  0  0  0  0  0  0  0  0  0  0
   44.4900   33.1030   39.6500 C   0  0  0  0  0  0  0  0  0  0  0  0
   45.2540   32.5190   39.1550 H   0  0  0  0  0  0  0  0  0  0  0  0
   43.4760   33.7770   38.9600 C   0  0  0  0  0  3  0  0  0  0  0  0
   42.5140   34.5180   39.6520 C   0  0  0  0  0  0  0  0  0  0  0  0
   41.5580   35.1470   38.9440 N   0  0  0  0  0  0  0  0  0  0  0  0
   40.5960   35.8820   39.5410 C   0  0  0  0  0  0  0  0  0  0  0  0
   39.8450   36.3720   38.9320 H   0  0  0  0  0  0  0  0  0  0  0  0
   40.6170   35.9730   40.9380 C   0  0  0  0  0  3  0  0  0  0  0  0
   41.5990   35.3280   41.6770 C   0  0  0  0  0  3  0  0  0  0  0  0
   42.5650   34.5870   41.0280 C   0  0  0  0  0  0  0  0  0  0  0  0
   43.5700   33.9220   41.7410 C   0  0  0  0  0  3  0  0  0  0  0  0
  1  6  2  0  0  0  0
  1  2  1  0  0  0  0
  2  3  2  0  0  0  0
  3  4  1  0  0  0  0
  3 10  1  0  0  0  0
  5  8  1  0  0  0  0
  5  4  2  0  0  0  0
  6  5  1  0  0  0  0
  7  2  1  0  0  0  0
  9 18  1  0  0  0  0
  9 17  1  0  0  0  0
 10 11  1  0  0  0  0
 10  9  2  0  0  0  0
 11 12  2  0  0  0  0
 12 13  1  0  0  0  0
 12 16  1  0  0  0  0
 13 14  1  0  0  0  0
 14 21  1  0  0  0  0
 14 15  2  0  0  0  0
 16 15  1  0  0  0  0
 17 16  2  0  0  0  0
 17 22  1  0  0  0  0
 19 11  1  0  0  0  0
 20 13  1  0  0  0  0
 23  1  1  0  0  0  0
 24 23  1  0  0  0  0
 25 24  2  0  0  0  0
 26 27  1  0  0  0  0
 26 25  1  0  0  0  0
 27 28  2  0  0  0  0
 28 24  1  0  0  0  0
 29 25  1  0  0  0  0
 30 41  1  0  0  0  0
 30 27  1  0  0  0  0
 31 30  2  0  0  0  0
 32 31  1  0  0  0  0
 33 31  1  0  0  0  0
 33 34  2  0  0  0  0
 34 40  1  0  0  0  0
 35 36  2  0  0  0  0
 35 34  1  0  0  0  0
 36 38  1  0  0  0  0
 37 36  1  0  0  0  0
 38 39  2  0  0  0  0
 40 39  1  0  0  0  0
 40 41  2  0  0  0  0
M  END
>  <minimizedAffinity>
-6.13156939

>  <minimizedRMSD>
4.4968195

$$$$
