
 OpenBabel03242517053D

 36 39  0  0  0  0  0  0  0  0999 V2000
   37.7730   31.3520   38.2320 C   0  0  0  0  0  0  0  0  0  0  0  0
   37.6070   31.6520   36.8930 C   0  0  0  0  0  0  0  0  0  0  0  0
   37.0050   30.7110   36.0710 C   0  0  0  0  0  0  0  0  0  0  0  0
   36.5920   29.5220   36.5940 C   0  0  0  0  0  0  0  0  0  0  0  0
   36.7440   29.1990   37.9110 C   0  0  0  0  0  0  0  0  0  0  0  0
   37.3560   30.1580   38.7370 C   0  0  0  0  0  0  0  0  0  0  0  0
   37.9280   32.5940   36.4530 H   0  0  0  0  0  0  0  0  0  0  0  0
   36.8260   30.8430   35.0130 H   0  0  0  0  0  0  0  0  0  0  0  0
   36.1190   28.7640   35.9870 H   0  0  0  0  0  0  0  0  0  0  0  0
   36.4360   28.2660   38.3900 H   0  0  0  0  0  0  0  0  0  0  0  0
   38.4960   34.4130   40.3190 C   0  0  0  0  0  0  0  0  0  0  0  0
   37.7640   33.4800   39.5450 C   0  0  0  0  0  0  0  0  0  0  0  0
   38.4120   32.3790   39.0390 C   0  0  0  0  0  0  0  0  0  0  0  0
   39.7390   32.2640   39.3250 N   0  0  0  0  0  0  0  0  0  0  0  0
   40.4330   33.1540   40.0620 C   0  0  0  0  0  0  0  0  0  0  0  0
   39.8060   34.2420   40.5660 N   0  0  0  0  0  0  0  0  0  0  0  0
   37.9580   35.2480   40.6910 H   0  0  0  0  0  0  0  0  0  0  0  0
   36.7090   33.6020   39.3370 H   0  0  0  0  0  0  0  0  0  0  0  0
   41.4840   32.9310   40.2070 H   0  0  0  0  0  0  0  0  0  0  0  0
   36.9090   30.2980   41.3000 C   0  0  0  0  0  0  0  0  0  0  0  0
   35.8720   30.9410   41.3760 O   0  0  0  0  0  0  0  0  0  0  0  0
   37.5880   29.9660   40.1150 N   0  0  0  0  0  0  0  0  0  0  0  0
   38.5090   29.4460   40.1320 H   0  0  0  0  0  0  0  0  0  0  0  0
   37.4680   29.8520   42.5010 O   0  0  0  0  0  0  0  0  0  0  0  0
   38.0390   28.6030   42.5560 C   0  0  0  0  0  0  0  0  0  0  0  0
   39.3060   28.3130   43.0410 C   0  0  0  0  0  0  0  0  0  0  0  0
   39.8620   29.1740   43.4000 H   0  0  0  0  0  0  0  0  0  0  0  0
   39.7960   27.0170   43.0550 C   0  0  0  0  0  3  0  0  0  0  0  0
   39.0260   25.9520   42.5770 C   0  0  0  0  0  0  0  0  0  0  0  0
   39.5260   24.7050   42.6030 N   0  0  0  0  0  0  0  0  0  0  0  0
   38.7880   23.6650   42.1420 C   0  0  0  0  0  0  0  0  0  0  0  0
   39.1900   22.6540   42.1600 H   0  0  0  0  0  0  0  0  0  0  0  0
   37.5380   23.8870   41.6530 C   0  0  0  0  0  3  0  0  0  0  0  0
   37.0460   25.1720   41.6370 C   0  0  0  0  0  3  0  0  0  0  0  0
   37.7710   26.2750   42.1020 C   0  0  0  0  0  0  0  0  0  0  0  0
   37.2710   27.5600   42.0830 C   0  0  0  0  0  3  0  0  0  0  0  0
  1  6  1  0  0  0  0
  1 13  1  0  0  0  0
  2  1  2  0  0  0  0
  3  4  2  0  0  0  0
  3  2  1  0  0  0  0
  4  5  1  0  0  0  0
  5 10  1  0  0  0  0
  5  6  2  0  0  0  0
  6 22  1  0  0  0  0
  7  2  1  0  0  0  0
  8  3  1  0  0  0  0
  9  4  1  0  0  0  0
 11 16  1  0  0  0  0
 11 17  1  0  0  0  0
 12 11  2  0  0  0  0
 13 14  2  0  0  0  0
 13 12  1  0  0  0  0
 14 15  1  0  0  0  0
 15 19  1  0  0  0  0
 15 16  2  0  0  0  0
 18 12  1  0  0  0  0
 20 21  2  0  0  0  0
 20 24  1  0  0  0  0
 22 23  1  0  0  0  0
 22 20  1  0  0  0  0
 24 25  1  0  0  0  0
 25 26  1  0  0  0  0
 26 28  2  0  0  0  0
 26 27  1  0  0  0  0
 29 30  1  0  0  0  0
 29 28  1  0  0  0  0
 31 32  1  0  0  0  0
 31 30  2  0  0  0  0
 33 31  1  0  0  0  0
 34 33  2  0  0  0  0
 34 35  1  0  0  0  0
 35 29  2  0  0  0  0
 36 35  1  0  0  0  0
 36 25  2  0  0  0  0
M  END
>  <minimizedAffinity>
-6.15564537

$$$$

 OpenBabel03242517053D

 36 39  0  0  0  0  0  0  0  0999 V2000
   38.5320   26.1750   41.6510 C   0  0  0  0  0  0  0  0  0  0  0  0
   39.3780   25.1230   41.9440 C   0  0  0  0  0  0  0  0  0  0  0  0
   40.0540   25.1310   43.1550 C   0  0  0  0  0  0  0  0  0  0  0  0
   39.8720   26.1660   44.0240 C   0  0  0  0  0  0  0  0  0  0  0  0
   39.0430   27.2180   43.7600 C   0  0  0  0  0  0  0  0  0  0  0  0
   38.3620   27.2020   42.5300 C   0  0  0  0  0  0  0  0  0  0  0  0
   39.5380   24.2860   41.2680 H   0  0  0  0  0  0  0  0  0  0  0  0
   40.7370   24.3610   43.4840 H   0  0  0  0  0  0  0  0  0  0  0  0
   40.3800   26.2090   44.9760 H   0  0  0  0  0  0  0  0  0  0  0  0
   38.8560   28.0750   44.4110 H   0  0  0  0  0  0  0  0  0  0  0  0
   36.1290   25.4120   38.8400 C   0  0  0  0  0  0  0  0  0  0  0  0
   36.6970   25.4030   40.1380 C   0  0  0  0  0  0  0  0  0  0  0  0
   37.8540   26.1060   40.3660 C   0  0  0  0  0  0  0  0  0  0  0  0
   38.3830   26.7760   39.3040 N   0  0  0  0  0  0  0  0  0  0  0  0
   37.8420   26.7830   38.0700 C   0  0  0  0  0  0  0  0  0  0  0  0
   36.7020   26.0940   37.8330 N   0  0  0  0  0  0  0  0  0  0  0  0
   35.2360   24.8570   38.7070 H   0  0  0  0  0  0  0  0  0  0  0  0
   36.2490   24.8600   40.9610 H   0  0  0  0  0  0  0  0  0  0  0  0
   38.3750   27.3600   37.3220 H   0  0  0  0  0  0  0  0  0  0  0  0
   37.5740   29.6090   41.9190 C   0  0  0  0  0  0  0  0  0  0  0  0
   38.5560   30.2990   42.1480 O   0  0  0  0  0  0  0  0  0  0  0  0
   37.4800   28.2200   42.1130 N   0  0  0  0  0  0  0  0  0  0  0  0
   36.5780   27.6970   41.9370 H   0  0  0  0  0  0  0  0  0  0  0  0
   36.4440   30.2610   41.4180 O   0  0  0  0  0  0  0  0  0  0  0  0
   35.9300   29.8810   40.2010 C   0  0  0  0  0  0  0  0  0  0  0  0
   34.7450   29.1900   40.0020 C   0  0  0  0  0  0  0  0  0  0  0  0
   34.2040   28.9460   40.9120 H   0  0  0  0  0  0  0  0  0  0  0  0
   34.3090   28.8510   38.7320 C   0  0  0  0  0  3  0  0  0  0  0  0
   35.0550   29.1950   37.5990 C   0  0  0  0  0  0  0  0  0  0  0  0
   34.6090   28.8540   36.3790 N   0  0  0  0  0  0  0  0  0  0  0  0
   35.3250   29.1830   35.2750 C   0  0  0  0  0  0  0  0  0  0  0  0
   34.9670   28.9080   34.2850 H   0  0  0  0  0  0  0  0  0  0  0  0
   36.4970   29.8610   35.4060 C   0  0  0  0  0  3  0  0  0  0  0  0
   36.9340   30.2010   36.6660 C   0  0  0  0  0  3  0  0  0  0  0  0
   36.2300   29.8820   37.8330 C   0  0  0  0  0  0  0  0  0  0  0  0
   36.6740   30.2260   39.0920 C   0  0  0  0  0  3  0  0  0  0  0  0
  1  2  2  0  0  0  0
  1  6  1  0  0  0  0
  2  3  1  0  0  0  0
  3  8  1  0  0  0  0
  3  4  2  0  0  0  0
  4  9  1  0  0  0  0
  5  4  1  0  0  0  0
  5 10  1  0  0  0  0
  6  5  2  0  0  0  0
  7  2  1  0  0  0  0
 11 12  1  0  0  0  0
 12 13  2  0  0  0  0
 12 18  1  0  0  0  0
 13  1  1  0  0  0  0
 14 13  1  0  0  0  0
 15 14  2  0  0  0  0
 16 15  1  0  0  0  0
 16 11  2  0  0  0  0
 17 11  1  0  0  0  0
 19 15  1  0  0  0  0
 20 22  1  0  0  0  0
 20 21  2  0  0  0  0
 22  6  1  0  0  0  0
 23 22  1  0  0  0  0
 24 20  1  0  0  0  0
 25 24  1  0  0  0  0
 26 25  1  0  0  0  0
 26 27  1  0  0  0  0
 28 26  2  0  0  0  0
 29 35  1  0  0  0  0
 29 28  1  0  0  0  0
 30 29  2  0  0  0  0
 31 33  2  0  0  0  0
 31 30  1  0  0  0  0
 32 31  1  0  0  0  0
 33 34  1  0  0  0  0
 34 35  2  0  0  0  0
 35 36  1  0  0  0  0
 36 25  2  0  0  0  0
M  END
>  <minimizedAffinity>
-6.1348772

$$$$

 OpenBabel03242517053D

 36 39  0  0  0  0  0  0  0  0999 V2000
   37.6260   31.8380   40.2100 C   0  0  0  0  0  0  0  0  0  0  0  0
   37.0550   32.8330   39.4400 C   0  0  0  0  0  0  0  0  0  0  0  0
   37.5970   34.1090   39.4960 C   0  0  0  0  0  0  0  0  0  0  0  0
   38.6710   34.3530   40.3000 C   0  0  0  0  0  0  0  0  0  0  0  0
   39.2540   33.3890   41.0710 C   0  0  0  0  0  0  0  0  0  0  0  0
   38.6980   32.0990   41.0090 C   0  0  0  0  0  0  0  0  0  0  0  0
   36.1990   32.6630   38.7910 H   0  0  0  0  0  0  0  0  0  0  0  0
   37.2310   34.9580   38.9370 H   0  0  0  0  0  0  0  0  0  0  0  0
   39.1220   35.3310   40.3710 H   0  0  0  0  0  0  0  0  0  0  0  0
   40.1120   33.5200   41.7340 H   0  0  0  0  0  0  0  0  0  0  0  0
   35.2540   28.9050   40.3860 C   0  0  0  0  0  0  0  0  0  0  0  0
   35.7440   30.2250   40.5440 C   0  0  0  0  0  0  0  0  0  0  0  0
   37.0110   30.5240   40.1060 C   0  0  0  0  0  0  0  0  0  0  0  0
   37.7200   29.5060   39.5420 N   0  0  0  0  0  0  0  0  0  0  0  0
   37.2520   28.2510   39.3930 C   0  0  0  0  0  0  0  0  0  0  0  0
   36.0050   27.9440   39.8200 N   0  0  0  0  0  0  0  0  0  0  0  0
   34.2710   28.7170   40.7370 H   0  0  0  0  0  0  0  0  0  0  0  0
   35.1530   31.0100   40.9970 H   0  0  0  0  0  0  0  0  0  0  0  0
   37.9300   27.5450   38.9260 H   0  0  0  0  0  0  0  0  0  0  0  0
   40.4440   30.4130   41.9560 C   0  0  0  0  0  0  0  0  0  0  0  0
   41.4900   30.7530   41.4240 O   0  0  0  0  0  0  0  0  0  0  0  0
   39.1840   31.0030   41.7510 N   0  0  0  0  0  0  0  0  0  0  0  0
   38.3130   30.6210   42.2130 H   0  0  0  0  0  0  0  0  0  0  0  0
   40.5070   29.3400   42.8500 O   0  0  0  0  0  0  0  0  0  0  0  0
   39.5910   28.3200   42.7450 C   0  0  0  0  0  0  0  0  0  0  0  0
   38.3170   28.3170   43.2930 C   0  0  0  0  0  0  0  0  0  0  0  0
   38.0580   29.2160   43.8450 H   0  0  0  0  0  0  0  0  0  0  0  0
   37.4630   27.2380   43.1330 C   0  0  0  0  0  3  0  0  0  0  0  0
   37.8590   26.1080   42.4090 C   0  0  0  0  0  0  0  0  0  0  0  0
   37.0100   25.0770   42.2690 N   0  0  0  0  0  0  0  0  0  0  0  0
   37.3840   23.9760   41.5690 C   0  0  0  0  0  0  0  0  0  0  0  0
   36.7000   23.1390   41.4540 H   0  0  0  0  0  0  0  0  0  0  0  0
   38.6220   23.9210   41.0080 C   0  0  0  0  0  3  0  0  0  0  0  0
   39.4750   24.9900   41.1640 C   0  0  0  0  0  3  0  0  0  0  0  0
   39.1320   26.1440   41.8770 C   0  0  0  0  0  0  0  0  0  0  0  0
   39.9920   27.2120   42.0290 C   0  0  0  0  0  3  0  0  0  0  0  0
  1  6  1  0  0  0  0
  2  3  1  0  0  0  0
  2  1  2  0  0  0  0
  3  4  2  0  0  0  0
  4  9  1  0  0  0  0
  4  5  1  0  0  0  0
  5 10  1  0  0  0  0
  6  5  2  0  0  0  0
  6 22  1  0  0  0  0
  7  2  1  0  0  0  0
  8  3  1  0  0  0  0
 11 12  1  0  0  0  0
 11 17  1  0  0  0  0
 12 18  1  0  0  0  0
 13  1  1  0  0  0  0
 13 12  2  0  0  0  0
 14 13  1  0  0  0  0
 15 14  2  0  0  0  0
 15 16  1  0  0  0  0
 16 11  2  0  0  0  0
 19 15  1  0  0  0  0
 20 24  1  0  0  0  0
 21 20  2  0  0  0  0
 22 20  1  0  0  0  0
 22 23  1  0  0  0  0
 25 24  1  0  0  0  0
 25 26  1  0  0  0  0
 26 27  1  0  0  0  0
 28 26  2  0  0  0  0
 29 28  1  0  0  0  0
 30 29  1  0  0  0  0
 31 30  2  0  0  0  0
 32 31  1  0  0  0  0
 33 34  2  0  0  0  0
 33 31  1  0  0  0  0
 34 35  1  0  0  0  0
 35 36  1  0  0  0  0
 35 29  2  0  0  0  0
 36 25  2  0  0  0  0
M  END
>  <minimizedAffinity>
-6.12084818

$$$$

 OpenBabel03242517053D

 36 39  0  0  0  0  0  0  0  0999 V2000
   37.3460   26.4500   41.0520 C   0  0  0  0  0  0  0  0  0  0  0  0
   37.3020   25.5260   42.0790 C   0  0  0  0  0  0  0  0  0  0  0  0
   36.7840   24.2670   41.8170 C   0  0  0  0  0  0  0  0  0  0  0  0
   36.3330   23.9680   40.5660 C   0  0  0  0  0  0  0  0  0  0  0  0
   36.3630   24.8600   39.5340 C   0  0  0  0  0  0  0  0  0  0  0  0
   36.8900   26.1350   39.8080 C   0  0  0  0  0  0  0  0  0  0  0  0
   37.6570   25.7420   43.0840 H   0  0  0  0  0  0  0  0  0  0  0  0
   36.7040   23.4710   42.5450 H   0  0  0  0  0  0  0  0  0  0  0  0
   35.9230   22.9990   40.3230 H   0  0  0  0  0  0  0  0  0  0  0  0
   36.0180   24.6830   38.5130 H   0  0  0  0  0  0  0  0  0  0  0  0
   39.6610   29.3250   41.8460 C   0  0  0  0  0  0  0  0  0  0  0  0
   39.2420   28.0140   41.5100 C   0  0  0  0  0  0  0  0  0  0  0  0
   37.9000   27.7510   41.3910 C   0  0  0  0  0  0  0  0  0  0  0  0
   37.0500   28.7940   41.6110 N   0  0  0  0  0  0  0  0  0  0  0  0
   37.4500   30.0400   41.9310 C   0  0  0  0  0  0  0  0  0  0  0  0
   38.7710   30.3120   42.0500 N   0  0  0  0  0  0  0  0  0  0  0  0
   40.7060   29.4850   41.9270 H   0  0  0  0  0  0  0  0  0  0  0  0
   39.9460   27.2080   41.3420 H   0  0  0  0  0  0  0  0  0  0  0  0
   36.6600   30.7690   42.0770 H   0  0  0  0  0  0  0  0  0  0  0  0
   36.0650   28.0180   38.2070 C   0  0  0  0  0  0  0  0  0  0  0  0
   34.8510   27.9990   38.3420 O   0  0  0  0  0  0  0  0  0  0  0  0
   36.9800   27.1640   38.8480 N   0  0  0  0  0  0  0  0  0  0  0  0
   38.0170   27.2100   38.6430 H   0  0  0  0  0  0  0  0  0  0  0  0
   36.5920   28.9770   37.3360 O   0  0  0  0  0  0  0  0  0  0  0  0
   37.4900   29.9010   37.8140 C   0  0  0  0  0  0  0  0  0  0  0  0
   38.8710   29.7940   37.7540 C   0  0  0  0  0  0  0  0  0  0  0  0
   39.2360   28.8870   37.2800 H   0  0  0  0  0  0  0  0  0  0  0  0
   39.6970   30.7820   38.2640 C   0  0  0  0  0  3  0  0  0  0  0  0
   39.1620   31.9270   38.8630 C   0  0  0  0  0  0  0  0  0  0  0  0
   39.9860   32.8700   39.3510 N   0  0  0  0  0  0  0  0  0  0  0  0
   39.4780   33.9850   39.9330 C   0  0  0  0  0  0  0  0  0  0  0  0
   40.1420   34.7500   40.3290 H   0  0  0  0  0  0  0  0  0  0  0  0
   38.1300   34.1460   40.0220 C   0  0  0  0  0  3  0  0  0  0  0  0
   37.3050   33.1680   39.5160 C   0  0  0  0  0  3  0  0  0  0  0  0
   37.7850   32.0020   38.9070 C   0  0  0  0  0  0  0  0  0  0  0  0
   36.9510   31.0260   38.4010 C   0  0  0  0  0  3  0  0  0  0  0  0
  1 13  1  0  0  0  0
  1  2  1  0  0  0  0
  2  7  1  0  0  0  0
  3  2  2  0  0  0  0
  3  8  1  0  0  0  0
  4  3  1  0  0  0  0
  5  6  1  0  0  0  0
  5  4  2  0  0  0  0
  6  1  2  0  0  0  0
  9  4  1  0  0  0  0
 10  5  1  0  0  0  0
 11 17  1  0  0  0  0
 11 16  1  0  0  0  0
 12 11  2  0  0  0  0
 13 12  1  0  0  0  0
 13 14  2  0  0  0  0
 14 15  1  0  0  0  0
 15 16  2  0  0  0  0
 15 19  1  0  0  0  0
 18 12  1  0  0  0  0
 20 21  2  0  0  0  0
 20 22  1  0  0  0  0
 22  6  1  0  0  0  0
 23 22  1  0  0  0  0
 24 25  1  0  0  0  0
 24 20  1  0  0  0  0
 25 36  1  0  0  0  0
 26 25  2  0  0  0  0
 26 28  1  0  0  0  0
 27 26  1  0  0  0  0
 28 29  2  0  0  0  0
 29 35  1  0  0  0  0
 29 30  1  0  0  0  0
 30 31  2  0  0  0  0
 31 33  1  0  0  0  0
 31 32  1  0  0  0  0
 34 33  2  0  0  0  0
 35 34  1  0  0  0  0
 36 35  2  0  0  0  0
M  END
>  <minimizedAffinity>
-6.06231117

$$$$

 OpenBabel03242517053D

 36 39  0  0  0  0  0  0  0  0999 V2000
   36.5140   26.1030   39.4710 C   0  0  0  0  0  0  0  0  0  0  0  0
   36.0320   25.0840   38.6730 C   0  0  0  0  0  0  0  0  0  0  0  0
   35.9770   23.8000   39.1950 C   0  0  0  0  0  0  0  0  0  0  0  0
   36.3950   23.5720   40.4730 C   0  0  0  0  0  0  0  0  0  0  0  0
   36.8760   24.5600   41.2830 C   0  0  0  0  0  0  0  0  0  0  0  0
   36.9280   25.8580   40.7450 C   0  0  0  0  0  0  0  0  0  0  0  0
   35.6930   25.2410   37.6510 H   0  0  0  0  0  0  0  0  0  0  0  0
   35.6180   22.9320   38.6600 H   0  0  0  0  0  0  0  0  0  0  0  0
   36.3680   22.5880   40.9160 H   0  0  0  0  0  0  0  0  0  0  0  0
   37.2260   24.4420   42.3120 H   0  0  0  0  0  0  0  0  0  0  0  0
   35.5890   29.4350   37.9550 C   0  0  0  0  0  0  0  0  0  0  0  0
   35.4290   28.1560   38.5440 C   0  0  0  0  0  0  0  0  0  0  0  0
   36.5460   27.4240   38.8640 C   0  0  0  0  0  0  0  0  0  0  0  0
   37.7520   27.9930   38.5840 N   0  0  0  0  0  0  0  0  0  0  0  0
   37.9020   29.2090   38.0230 C   0  0  0  0  0  0  0  0  0  0  0  0
   36.8090   29.9410   37.7040 N   0  0  0  0  0  0  0  0  0  0  0  0
   34.7010   29.9670   37.7240 H   0  0  0  0  0  0  0  0  0  0  0  0
   34.4540   27.7340   38.7530 H   0  0  0  0  0  0  0  0  0  0  0  0
   38.9240   29.5330   37.8590 H   0  0  0  0  0  0  0  0  0  0  0  0
   37.0880   27.6010   42.6750 C   0  0  0  0  0  0  0  0  0  0  0  0
   36.1860   27.2750   43.4320 O   0  0  0  0  0  0  0  0  0  0  0  0
   37.4070   26.9780   41.4560 N   0  0  0  0  0  0  0  0  0  0  0  0
   38.1750   27.3480   40.8300 H   0  0  0  0  0  0  0  0  0  0  0  0
   37.8740   28.6910   43.0580 O   0  0  0  0  0  0  0  0  0  0  0  0
   37.9230   29.8030   42.2520 C   0  0  0  0  0  0  0  0  0  0  0  0
   36.8510   30.3560   41.5690 C   0  0  0  0  0  0  0  0  0  0  0  0
   35.9070   29.8360   41.7090 H   0  0  0  0  0  0  0  0  0  0  0  0
   36.9990   31.4830   40.7770 C   0  0  0  0  0  3  0  0  0  0  0  0
   38.2450   32.1050   40.6390 C   0  0  0  0  0  0  0  0  0  0  0  0
   38.3610   33.1970   39.8650 N   0  0  0  0  0  0  0  0  0  0  0  0
   39.5640   33.8080   39.7250 C   0  0  0  0  0  0  0  0  0  0  0  0
   39.6620   34.6920   39.0980 H   0  0  0  0  0  0  0  0  0  0  0  0
   40.6540   33.3130   40.3700 C   0  0  0  0  0  3  0  0  0  0  0  0
   40.5110   32.1930   41.1580 C   0  0  0  0  0  3  0  0  0  0  0  0
   39.2910   31.5300   41.3320 C   0  0  0  0  0  0  0  0  0  0  0  0
   39.1560   30.4090   42.1240 C   0  0  0  0  0  3  0  0  0  0  0  0
  1  6  1  0  0  0  0
  2  3  1  0  0  0  0
  2  1  2  0  0  0  0
  3  4  2  0  0  0  0
  4  9  1  0  0  0  0
  4  5  1  0  0  0  0
  5 10  1  0  0  0  0
  6  5  2  0  0  0  0
  6 22  1  0  0  0  0
  7  2  1  0  0  0  0
  8  3  1  0  0  0  0
 11 12  1  0  0  0  0
 12 18  1  0  0  0  0
 12 13  2  0  0  0  0
 13  1  1  0  0  0  0
 14 13  1  0  0  0  0
 15 14  2  0  0  0  0
 16 11  2  0  0  0  0
 16 15  1  0  0  0  0
 17 11  1  0  0  0  0
 19 15  1  0  0  0  0
 20 24  1  0  0  0  0
 20 21  2  0  0  0  0
 22 20  1  0  0  0  0
 23 22  1  0  0  0  0
 25 24  1  0  0  0  0
 26 27  1  0  0  0  0
 26 25  2  0  0  0  0
 28 26  1  0  0  0  0
 29 28  2  0  0  0  0
 29 35  1  0  0  0  0
 30 29  1  0  0  0  0
 31 30  2  0  0  0  0
 31 33  1  0  0  0  0
 32 31  1  0  0  0  0
 33 34  2  0  0  0  0
 34 35  1  0  0  0  0
 35 36  2  0  0  0  0
 36 25  1  0  0  0  0
M  END
>  <minimizedAffinity>
-6.04105282

$$$$

 OpenBabel03242517053D

 36 39  0  0  0  0  0  0  0  0999 V2000
   39.3240   32.0550   40.7740 C   0  0  0  0  0  0  0  0  0  0  0  0
   40.3500   32.9760   40.6870 C   0  0  0  0  0  0  0  0  0  0  0  0
   40.0460   34.2750   40.3080 C   0  0  0  0  0  0  0  0  0  0  0  0
   38.7550   34.6150   40.0320 C   0  0  0  0  0  0  0  0  0  0  0  0
   37.7220   33.7260   40.1100 C   0  0  0  0  0  0  0  0  0  0  0  0
   38.0390   32.4110   40.4950 C   0  0  0  0  0  0  0  0  0  0  0  0
   41.3880   32.7290   40.9020 H   0  0  0  0  0  0  0  0  0  0  0  0
   40.7700   35.0720   40.2080 H   0  0  0  0  0  0  0  0  0  0  0  0
   38.4780   35.6150   39.7340 H   0  0  0  0  0  0  0  0  0  0  0  0
   36.6700   33.9350   39.9030 H   0  0  0  0  0  0  0  0  0  0  0  0
   40.4520   29.0200   42.7160 C   0  0  0  0  0  0  0  0  0  0  0  0
   40.1000   30.3660   42.4460 C   0  0  0  0  0  0  0  0  0  0  0  0
   39.7090   30.7120   41.1760 C   0  0  0  0  0  0  0  0  0  0  0  0
   39.6880   29.7140   40.2480 N   0  0  0  0  0  0  0  0  0  0  0  0
   40.0230   28.4350   40.5080 C   0  0  0  0  0  0  0  0  0  0  0  0
   40.4100   28.0810   41.7550 N   0  0  0  0  0  0  0  0  0  0  0  0
   40.7470   28.7950   43.7090 H   0  0  0  0  0  0  0  0  0  0  0  0
   40.1280   31.1340   43.2080 H   0  0  0  0  0  0  0  0  0  0  0  0
   39.9590   27.7490   39.6700 H   0  0  0  0  0  0  0  0  0  0  0  0
   36.3730   30.5660   39.7130 C   0  0  0  0  0  0  0  0  0  0  0  0
   36.4210   30.6350   38.4940 O   0  0  0  0  0  0  0  0  0  0  0  0
   37.0830   31.3810   40.6130 N   0  0  0  0  0  0  0  0  0  0  0  0
   36.9540   31.2930   41.6590 H   0  0  0  0  0  0  0  0  0  0  0  0
   35.5380   29.5890   40.2610 O   0  0  0  0  0  0  0  0  0  0  0  0
   36.0940   28.4580   40.8100 C   0  0  0  0  0  0  0  0  0  0  0  0
   36.4470   28.2920   42.1400 C   0  0  0  0  0  0  0  0  0  0  0  0
   36.2500   29.1540   42.7720 H   0  0  0  0  0  0  0  0  0  0  0  0
   37.0020   27.1100   42.6010 C   0  0  0  0  0  3  0  0  0  0  0  0
   37.2300   26.0370   41.7330 C   0  0  0  0  0  0  0  0  0  0  0  0
   37.7700   24.9010   42.2060 N   0  0  0  0  0  0  0  0  0  0  0  0
   37.9940   23.8540   41.3730 C   0  0  0  0  0  0  0  0  0  0  0  0
   38.4320   22.9340   41.7520 H   0  0  0  0  0  0  0  0  0  0  0  0
   37.6690   23.9560   40.0560 C   0  0  0  0  0  3  0  0  0  0  0  0
   37.1160   25.1290   39.5940 C   0  0  0  0  0  3  0  0  0  0  0  0
   36.8680   26.2340   40.4160 C   0  0  0  0  0  0  0  0  0  0  0  0
   36.3120   27.4060   39.9450 C   0  0  0  0  0  3  0  0  0  0  0  0
  1 13  1  0  0  0  0
  2  1  1  0  0  0  0
  2  7  1  0  0  0  0
  3  2  2  0  0  0  0
  4  5  2  0  0  0  0
  4  3  1  0  0  0  0
  5  6  1  0  0  0  0
  6 22  1  0  0  0  0
  6  1  2  0  0  0  0
  8  3  1  0  0  0  0
  9  4  1  0  0  0  0
 10  5  1  0  0  0  0
 11 17  1  0  0  0  0
 12 11  1  0  0  0  0
 12 18  1  0  0  0  0
 13 12  2  0  0  0  0
 14 15  2  0  0  0  0
 14 13  1  0  0  0  0
 15 16  1  0  0  0  0
 16 11  2  0  0  0  0
 19 15  1  0  0  0  0
 20 24  1  0  0  0  0
 20 22  1  0  0  0  0
 21 20  2  0  0  0  0
 22 23  1  0  0  0  0
 24 25  1  0  0  0  0
 25 26  1  0  0  0  0
 26 28  2  0  0  0  0
 26 27  1  0  0  0  0
 29 30  1  0  0  0  0
 29 28  1  0  0  0  0
 31 32  1  0  0  0  0
 31 30  2  0  0  0  0
 33 31  1  0  0  0  0
 34 33  2  0  0  0  0
 34 35  1  0  0  0  0
 35 29  2  0  0  0  0
 36 35  1  0  0  0  0
 36 25  2  0  0  0  0
M  END
>  <minimizedAffinity>
-6.03354931

$$$$

 OpenBabel03242517053D

 36 39  0  0  0  0  0  0  0  0999 V2000
   39.4660   29.0560   42.4610 C   0  0  0  0  0  0  0  0  0  0  0  0
   39.8260   27.8860   43.1020 C   0  0  0  0  0  0  0  0  0  0  0  0
   38.8350   27.1290   43.7080 C   0  0  0  0  0  0  0  0  0  0  0  0
   37.5380   27.5490   43.6610 C   0  0  0  0  0  0  0  0  0  0  0  0
   37.1550   28.7000   43.0360 C   0  0  0  0  0  0  0  0  0  0  0  0
   38.1660   29.4610   42.4240 C   0  0  0  0  0  0  0  0  0  0  0  0
   40.8530   27.5310   43.1520 H   0  0  0  0  0  0  0  0  0  0  0  0
   39.0050   26.2000   44.2350 H   0  0  0  0  0  0  0  0  0  0  0  0
   36.7380   26.9880   44.1210 H   0  0  0  0  0  0  0  0  0  0  0  0
   36.1370   29.0900   42.9630 H   0  0  0  0  0  0  0  0  0  0  0  0
   42.3100   30.1880   40.2520 C   0  0  0  0  0  0  0  0  0  0  0  0
   41.2740   29.3680   40.7630 C   0  0  0  0  0  0  0  0  0  0  0  0
   40.5510   29.8040   41.8460 C   0  0  0  0  0  0  0  0  0  0  0  0
   40.8910   31.0190   42.3610 N   0  0  0  0  0  0  0  0  0  0  0  0
   41.8770   31.7970   41.8730 C   0  0  0  0  0  0  0  0  0  0  0  0
   42.5970   31.3790   40.8060 N   0  0  0  0  0  0  0  0  0  0  0  0
   42.8440   29.8150   39.4150 H   0  0  0  0  0  0  0  0  0  0  0  0
   41.0300   28.4070   40.3280 H   0  0  0  0  0  0  0  0  0  0  0  0
   42.0340   32.7390   42.3860 H   0  0  0  0  0  0  0  0  0  0  0  0
   37.1070   31.0820   40.6800 C   0  0  0  0  0  0  0  0  0  0  0  0
   36.3830   30.3560   40.0160 O   0  0  0  0  0  0  0  0  0  0  0  0
   37.9260   30.6760   41.7480 N   0  0  0  0  0  0  0  0  0  0  0  0
   38.5640   31.3570   42.2460 H   0  0  0  0  0  0  0  0  0  0  0  0
   37.1200   32.4400   40.3480 O   0  0  0  0  0  0  0  0  0  0  0  0
   38.3150   33.0500   40.0510 C   0  0  0  0  0  0  0  0  0  0  0  0
   38.8240   34.1800   40.6740 C   0  0  0  0  0  0  0  0  0  0  0  0
   38.1940   34.5870   41.4600 H   0  0  0  0  0  0  0  0  0  0  0  0
   40.0430   34.7240   40.3040 C   0  0  0  0  0  3  0  0  0  0  0  0
   40.8060   34.1490   39.2820 C   0  0  0  0  0  0  0  0  0  0  0  0
   41.9850   34.6970   38.9430 N   0  0  0  0  0  0  0  0  0  0  0  0
   42.7330   34.1470   37.9540 C   0  0  0  0  0  0  0  0  0  0  0  0
   43.6880   34.5880   37.6760 H   0  0  0  0  0  0  0  0  0  0  0  0
   42.2860   33.0380   37.3050 C   0  0  0  0  0  3  0  0  0  0  0  0
   41.0760   32.4940   37.6690 C   0  0  0  0  0  3  0  0  0  0  0  0
   40.2710   33.0270   38.6830 C   0  0  0  0  0  0  0  0  0  0  0  0
   39.0590   32.4750   39.0430 C   0  0  0  0  0  3  0  0  0  0  0  0
  1  2  1  0  0  0  0
  2  7  1  0  0  0  0
  2  3  2  0  0  0  0
  3  8  1  0  0  0  0
  4  3  1  0  0  0  0
  4  9  1  0  0  0  0
  5  4  2  0  0  0  0
  6  1  2  0  0  0  0
  6  5  1  0  0  0  0
 10  5  1  0  0  0  0
 11 12  2  0  0  0  0
 11 16  1  0  0  0  0
 12 13  1  0  0  0  0
 13 14  2  0  0  0  0
 13  1  1  0  0  0  0
 15 14  1  0  0  0  0
 15 19  1  0  0  0  0
 16 15  2  0  0  0  0
 17 11  1  0  0  0  0
 18 12  1  0  0  0  0
 20 22  1  0  0  0  0
 21 20  2  0  0  0  0
 22 23  1  0  0  0  0
 22  6  1  0  0  0  0
 24 20  1  0  0  0  0
 25 24  1  0  0  0  0
 25 26  1  0  0  0  0
 26 27  1  0  0  0  0
 28 26  2  0  0  0  0
 29 28  1  0  0  0  0
 30 29  1  0  0  0  0
 31 30  2  0  0  0  0
 32 31  1  0  0  0  0
 33 34  2  0  0  0  0
 33 31  1  0  0  0  0
 34 35  1  0  0  0  0
 35 36  1  0  0  0  0
 35 29  2  0  0  0  0
 36 25  2  0  0  0  0
M  END
>  <minimizedAffinity>
-6.00743675

$$$$

 OpenBabel03242517053D

 36 39  0  0  0  0  0  0  0  0999 V2000
   36.8780   27.0750   40.0420 C   0  0  0  0  0  0  0  0  0  0  0  0
   36.8070   25.7530   39.6480 C   0  0  0  0  0  0  0  0  0  0  0  0
   36.0130   25.4270   38.5580 C   0  0  0  0  0  0  0  0  0  0  0  0
   35.3270   26.4070   37.9040 C   0  0  0  0  0  0  0  0  0  0  0  0
   35.3790   27.7200   38.2720 C   0  0  0  0  0  0  0  0  0  0  0  0
   36.1860   28.0410   39.3780 C   0  0  0  0  0  0  0  0  0  0  0  0
   37.3450   24.9540   40.1540 H   0  0  0  0  0  0  0  0  0  0  0  0
   35.8860   24.4270   38.1660 H   0  0  0  0  0  0  0  0  0  0  0  0
   34.7000   26.1940   37.0510 H   0  0  0  0  0  0  0  0  0  0  0  0
   34.8550   28.5490   37.7910 H   0  0  0  0  0  0  0  0  0  0  0  0
   38.4040   27.1970   43.4940 C   0  0  0  0  0  0  0  0  0  0  0  0
   37.5050   26.8580   42.4530 C   0  0  0  0  0  0  0  0  0  0  0  0
   37.7270   27.3500   41.1910 C   0  0  0  0  0  0  0  0  0  0  0  0
   38.8200   28.1480   41.0280 N   0  0  0  0  0  0  0  0  0  0  0  0
   39.6740   28.4700   42.0190 C   0  0  0  0  0  0  0  0  0  0  0  0
   39.4660   27.9900   43.2680 N   0  0  0  0  0  0  0  0  0  0  0  0
   38.1970   26.7950   44.4530 H   0  0  0  0  0  0  0  0  0  0  0  0
   36.6450   26.2200   42.6180 H   0  0  0  0  0  0  0  0  0  0  0  0
   40.5010   29.1150   41.7410 H   0  0  0  0  0  0  0  0  0  0  0  0
   36.5710   30.6180   39.3190 C   0  0  0  0  0  0  0  0  0  0  0  0
   36.7650   30.8530   38.1360 O   0  0  0  0  0  0  0  0  0  0  0  0
   36.3340   29.3510   39.8810 N   0  0  0  0  0  0  0  0  0  0  0  0
   36.2220   29.2200   40.9240 H   0  0  0  0  0  0  0  0  0  0  0  0
   36.5850   31.7090   40.1930 O   0  0  0  0  0  0  0  0  0  0  0  0
   37.7060   32.5010   40.2640 C   0  0  0  0  0  0  0  0  0  0  0  0
   37.7710   33.8440   39.9250 C   0  0  0  0  0  0  0  0  0  0  0  0
   36.8340   34.2710   39.5780 H   0  0  0  0  0  0  0  0  0  0  0  0
   38.9520   34.5620   40.0300 C   0  0  0  0  0  3  0  0  0  0  0  0
   40.1260   33.9510   40.4840 C   0  0  0  0  0  0  0  0  0  0  0  0
   41.2570   34.6700   40.5770 N   0  0  0  0  0  0  0  0  0  0  0  0
   42.4010   34.0880   41.0160 C   0  0  0  0  0  0  0  0  0  0  0  0
   43.3190   34.6670   41.0920 H   0  0  0  0  0  0  0  0  0  0  0  0
   42.4000   32.7730   41.3630 C   0  0  0  0  0  3  0  0  0  0  0  0
   41.2290   32.0560   41.2600 C   0  0  0  0  0  3  0  0  0  0  0  0
   40.0270   32.6140   40.8120 C   0  0  0  0  0  0  0  0  0  0  0  0
   38.8580   31.8890   40.7130 C   0  0  0  0  0  3  0  0  0  0  0  0
  1 13  1  0  0  0  0
  2  1  1  0  0  0  0
  2  7  1  0  0  0  0
  3  2  2  0  0  0  0
  4  5  2  0  0  0  0
  4  3  1  0  0  0  0
  5  6  1  0  0  0  0
  6 22  1  0  0  0  0
  6  1  2  0  0  0  0
  8  3  1  0  0  0  0
  9  4  1  0  0  0  0
 10  5  1  0  0  0  0
 11 17  1  0  0  0  0
 12 18  1  0  0  0  0
 12 11  2  0  0  0  0
 13 12  1  0  0  0  0
 14 13  2  0  0  0  0
 14 15  1  0  0  0  0
 15 16  2  0  0  0  0
 16 11  1  0  0  0  0
 19 15  1  0  0  0  0
 20 22  1  0  0  0  0
 20 24  1  0  0  0  0
 21 20  2  0  0  0  0
 22 23  1  0  0  0  0
 24 25  1  0  0  0  0
 25 36  1  0  0  0  0
 26 28  1  0  0  0  0
 26 25  2  0  0  0  0
 27 26  1  0  0  0  0
 28 29  2  0  0  0  0
 29 30  1  0  0  0  0
 29 35  1  0  0  0  0
 30 31  2  0  0  0  0
 31 32  1  0  0  0  0
 31 33  1  0  0  0  0
 34 33  2  0  0  0  0
 35 34  1  0  0  0  0
 36 35  2  0  0  0  0
M  END
>  <minimizedAffinity>
-5.90931273

$$$$

 OpenBabel03242517053D

 36 39  0  0  0  0  0  0  0  0999 V2000
   35.5840   27.1700   38.4290 C   0  0  0  0  0  0  0  0  0  0  0  0
   35.1050   26.5310   37.3020 C   0  0  0  0  0  0  0  0  0  0  0  0
   34.0800   27.1300   36.5840 C   0  0  0  0  0  0  0  0  0  0  0  0
   33.5710   28.3240   37.0000 C   0  0  0  0  0  0  0  0  0  0  0  0
   34.0250   28.9770   38.1100 C   0  0  0  0  0  0  0  0  0  0  0  0
   35.0640   28.3630   38.8310 C   0  0  0  0  0  0  0  0  0  0  0  0
   35.4950   25.5790   36.9500 H   0  0  0  0  0  0  0  0  0  0  0  0
   33.6320   26.7180   35.6900 H   0  0  0  0  0  0  0  0  0  0  0  0
   32.7730   28.8220   36.4690 H   0  0  0  0  0  0  0  0  0  0  0  0
   33.6610   29.9330   38.4940 H   0  0  0  0  0  0  0  0  0  0  0  0
   37.6500   24.7120   40.4150 C   0  0  0  0  0  0  0  0  0  0  0  0
   36.5280   25.2740   39.7580 C   0  0  0  0  0  0  0  0  0  0  0  0
   36.6590   26.4910   39.1360 C   0  0  0  0  0  0  0  0  0  0  0  0
   37.8850   27.0830   39.1990 N   0  0  0  0  0  0  0  0  0  0  0  0
   38.9500   26.5460   39.8250 C   0  0  0  0  0  0  0  0  0  0  0  0
   38.8340   25.3470   40.4410 N   0  0  0  0  0  0  0  0  0  0  0  0
   37.5060   23.7710   40.8820 H   0  0  0  0  0  0  0  0  0  0  0  0
   35.5670   24.7760   39.7270 H   0  0  0  0  0  0  0  0  0  0  0  0
   39.8630   27.1320   39.7930 H   0  0  0  0  0  0  0  0  0  0  0  0
   36.2370   30.1330   40.3410 C   0  0  0  0  0  0  0  0  0  0  0  0
   36.4590   31.0610   39.5770 O   0  0  0  0  0  0  0  0  0  0  0  0
   35.6310   28.9110   40.0000 N   0  0  0  0  0  0  0  0  0  0  0  0
   35.5160   28.1340   40.7090 H   0  0  0  0  0  0  0  0  0  0  0  0
   36.6210   30.3040   41.6740 O   0  0  0  0  0  0  0  0  0  0  0  0
   37.3950   29.3450   42.2820 C   0  0  0  0  0  0  0  0  0  0  0  0
   36.9230   28.2050   42.9150 C   0  0  0  0  0  0  0  0  0  0  0  0
   35.8420   28.0970   42.9080 H   0  0  0  0  0  0  0  0  0  0  0  0
   37.7850   27.2920   43.5010 C   0  0  0  0  0  3  0  0  0  0  0  0
   39.1700   27.4920   43.4750 C   0  0  0  0  0  0  0  0  0  0  0  0
   39.9830   26.5910   44.0500 N   0  0  0  0  0  0  0  0  0  0  0  0
   41.3270   26.7750   44.0300 C   0  0  0  0  0  0  0  0  0  0  0  0
   41.9890   26.0480   44.4960 H   0  0  0  0  0  0  0  0  0  0  0  0
   41.8500   27.8750   43.4240 C   0  0  0  0  0  3  0  0  0  0  0  0
   40.9970   28.7840   42.8400 C   0  0  0  0  0  3  0  0  0  0  0  0
   39.6060   28.6360   42.8370 C   0  0  0  0  0  0  0  0  0  0  0  0
   38.7580   29.5520   42.2490 C   0  0  0  0  0  3  0  0  0  0  0  0
  1  6  1  0  0  0  0
  1 13  1  0  0  0  0
  2  1  2  0  0  0  0
  3  4  2  0  0  0  0
  3  2  1  0  0  0  0
  4  5  1  0  0  0  0
  5 10  1  0  0  0  0
  5  6  2  0  0  0  0
  6 22  1  0  0  0  0
  7  2  1  0  0  0  0
  8  3  1  0  0  0  0
  9  4  1  0  0  0  0
 11 16  1  0  0  0  0
 11 17  1  0  0  0  0
 12 11  2  0  0  0  0
 13 14  2  0  0  0  0
 13 12  1  0  0  0  0
 14 15  1  0  0  0  0
 15 16  2  0  0  0  0
 18 12  1  0  0  0  0
 19 15  1  0  0  0  0
 20 24  1  0  0  0  0
 21 20  2  0  0  0  0
 22 20  1  0  0  0  0
 22 23  1  0  0  0  0
 24 25  1  0  0  0  0
 25 26  1  0  0  0  0
 26 28  2  0  0  0  0
 27 26  1  0  0  0  0
 29 28  1  0  0  0  0
 29 30  1  0  0  0  0
 31 30  2  0  0  0  0
 31 32  1  0  0  0  0
 33 31  1  0  0  0  0
 34 33  2  0  0  0  0
 35 34  1  0  0  0  0
 35 29  2  0  0  0  0
 36 25  2  0  0  0  0
 36 35  1  0  0  0  0
M  END
>  <minimizedAffinity>
-5.88404989

$$$$
