
 OpenBabel03242518413D

 42 46  0  0  1  0  0  0  0  0999 V2000
   39.9990   35.3560   40.1750 C   0  0  0  0  0  0  0  0  0  0  0  0
   39.4660   36.4670   39.9460 O   0  0  0  0  0  0  0  0  0  0  0  0
   39.3440   34.1060   40.3710 C   0  0  0  0  0  0  0  0  0  0  0  0
   38.0680   34.0250   39.9210 C   0  0  0  0  0  0  0  0  0  0  0  0
   37.3670   32.8350   40.0780 C   0  0  0  0  0  0  0  0  0  0  0  0
   37.9910   31.7980   40.6770 N   0  0  0  0  0  0  0  0  0  0  0  0
   39.2480   31.8980   41.1140 C   0  0  0  0  0  0  0  0  0  0  0  0
   39.8890   33.0640   40.9420 N   0  0  0  0  0  0  0  0  0  0  0  0
   37.5180   34.8180   39.4350 H   0  0  0  0  0  0  0  0  0  0  0  0
   36.3420   32.7390   39.7270 H   0  0  0  0  0  0  0  0  0  0  0  0
   39.8660   30.7400   41.7530 C   0  0  0  0  0  0  0  0  0  0  0  0
   41.2370   30.6340   41.8940 C   0  0  0  0  0  0  0  0  0  0  0  0
   41.8900   31.4130   41.5280 H   0  0  0  0  0  0  0  0  0  0  0  0
   41.7370   29.4880   42.5200 C   0  0  0  0  0  3  0  0  0  0  0  0
   40.9130   28.4820   42.9920 C   0  0  0  0  0  0  0  0  0  0  0  0
   41.3730   27.3860   43.5900 N   0  0  0  0  0  0  0  0  0  0  0  0
   40.5760   26.4010   44.0540 C   0  0  0  0  0  0  0  0  0  0  0  0
   40.9700   25.5160   44.5380 H   0  0  0  0  0  0  0  0  0  0  0  0
   39.2030   26.4850   43.9250 C   0  0  0  0  0  3  0  0  0  0  0  0
   38.6970   27.6210   43.3030 C   0  0  0  0  0  3  0  0  0  0  0  0
   39.5480   28.6210   42.8360 C   0  0  0  0  0  0  0  0  0  0  0  0
   39.0220   29.7470   42.2180 C   0  0  0  0  0  3  0  0  0  0  0  0
   41.4230   35.3300   40.2510 O   0  0  0  0  0  0  0  0  0  0  0  0
   42.0420   35.8560   41.4130 C   0  0  0  0  0  0  0  0  0  0  0  0
   41.6020   36.8070   42.3490 C   0  0  0  0  0  0  0  0  0  0  0  0
   42.5880   36.9730   43.3040 C   0  0  0  0  0  0  0  0  0  0  0  0
   43.5730   36.1260   42.9120 C   0  0  0  0  0  0  0  0  0  0  0  0
   43.2450   35.4780   41.8060 O   0  0  0  0  0  0  0  0  0  0  0  0
   40.6350   37.2760   42.2520 H   0  0  0  0  0  0  0  0  0  0  0  0
   42.5460   37.6270   44.1420 H   0  0  0  0  0  0  0  0  0  0  0  0
   44.8540   35.9480   43.6260 C   0  0  2  0  0  0  0  0  0  0  0  0
   45.9400   35.1680   43.0360 C   0  0  0  0  0  0  0  0  0  0  0  0
   45.1150   34.4830   44.0650 C   0  0  1  0  0  0  0  0  0  0  0  0
   45.0260   36.7140   44.4030 H   0  0  0  0  0  0  0  0  0  0  0  0
   45.8860   34.8160   41.9770 H   0  0  0  0  0  0  0  0  0  0  0  0
   46.9820   35.4820   43.3390 H   0  0  0  0  0  0  0  0  0  0  0  0
   44.3480   33.7510   43.8200 H   0  0  0  0  0  0  0  0  0  0  0  0
   45.5330   33.2200   46.1660 C   0  0  0  0  0  0  0  0  0  0  0  0
   44.8230   32.2430   45.7900 O   0  0  0  0  0  0  0  0  0  0  0  0
   45.7090   34.3970   45.3970 N   0  0  0  0  0  0  0  0  0  0  0  0
   46.0450   33.1730   47.1300 H   0  0  0  0  0  0  0  0  0  0  0  0
   46.2600   35.1980   45.7770 H   0  0  0  0  0  0  0  0  0  0  0  0
  1 23  1  0  0  0  0
  1  3  1  0  0  0  0
  2  1  2  0  0  0  0
  3  8  1  0  0  0  0
  4  5  1  0  0  0  0
  4  3  2  0  0  0  0
  5  6  2  0  0  0  0
  6  7  1  0  0  0  0
  7 11  1  0  0  0  0
  8  7  2  0  0  0  0
  9  4  1  0  0  0  0
 10  5  1  0  0  0  0
 11 12  2  0  0  0  0
 11 22  1  0  0  0  0
 12 14  1  0  0  0  0
 13 12  1  0  0  0  0
 14 15  2  0  0  0  0
 15 16  1  0  0  0  0
 16 17  2  0  0  0  0
 17 18  1  0  0  0  0
 19 17  1  0  0  0  0
 20 19  2  0  0  0  0
 21 15  1  0  0  0  0
 21 20  1  0  0  0  0
 22 21  2  0  0  0  0
 23 24  1  0  0  0  0
 24 28  1  0  0  0  0
 24 25  2  0  0  0  0
 25 26  1  0  0  0  0
 26 30  1  0  0  0  0
 27 26  2  0  0  0  0
 27 31  1  0  0  0  0
 28 27  1  0  0  0  0
 29 25  1  0  0  0  0
 31 33  1  0  0  0  0
 31 34  1  1  0  0  0
 32 36  1  0  0  0  0
 32 31  1  0  0  0  0
 32 33  1  0  0  0  0
 33 37  1  6  0  0  0
 33 40  1  0  0  0  0
 35 32  1  0  0  0  0
 38 41  1  0  0  0  0
 39 38  2  0  0  0  0
 40 42  1  0  0  0  0
 40 38  1  0  0  0  0
M  END
>  <minimizedAffinity>
-7.51392078

$$$$

 OpenBabel03242518413D

 42 46  0  0  1  0  0  0  0  0999 V2000
   39.3020   31.7750   38.7220 C   0  0  0  0  0  0  0  0  0  0  0  0
   39.0970   30.8480   37.9040 O   0  0  0  0  0  0  0  0  0  0  0  0
   40.3910   32.6930   38.7320 C   0  0  0  0  0  0  0  0  0  0  0  0
   41.0950   32.7970   37.5770 C   0  0  0  0  0  0  0  0  0  0  0  0
   42.1720   33.6730   37.5140 C   0  0  0  0  0  0  0  0  0  0  0  0
   42.4760   34.3940   38.6150 N   0  0  0  0  0  0  0  0  0  0  0  0
   41.7720   34.2780   39.7420 C   0  0  0  0  0  0  0  0  0  0  0  0
   40.7400   33.4200   39.7600 N   0  0  0  0  0  0  0  0  0  0  0  0
   40.9000   32.2480   36.6670 H   0  0  0  0  0  0  0  0  0  0  0  0
   42.7550   33.7780   36.6020 H   0  0  0  0  0  0  0  0  0  0  0  0
   42.1520   35.0860   40.8970 C   0  0  0  0  0  0  0  0  0  0  0  0
   41.4720   36.2420   41.2310 C   0  0  0  0  0  0  0  0  0  0  0  0
   40.6350   36.5800   40.6360 H   0  0  0  0  0  0  0  0  0  0  0  0
   41.9090   36.9490   42.3550 C   0  0  0  0  0  3  0  0  0  0  0  0
   42.9790   36.5290   43.1250 C   0  0  0  0  0  0  0  0  0  0  0  0
   43.4070   37.1910   44.1970 N   0  0  0  0  0  0  0  0  0  0  0  0
   44.4490   36.7880   44.9530 C   0  0  0  0  0  0  0  0  0  0  0  0
   44.7820   37.3400   45.8240 H   0  0  0  0  0  0  0  0  0  0  0  0
   45.1440   35.6350   44.6400 C   0  0  0  0  0  3  0  0  0  0  0  0
   44.7160   34.9260   43.5230 C   0  0  0  0  0  3  0  0  0  0  0  0
   43.6350   35.3690   42.7640 C   0  0  0  0  0  0  0  0  0  0  0  0
   43.2250   34.6450   41.6520 C   0  0  0  0  0  3  0  0  0  0  0  0
   38.3430   31.9380   39.7630 O   0  0  0  0  0  0  0  0  0  0  0  0
   38.3840   31.0380   40.8590 C   0  0  0  0  0  0  0  0  0  0  0  0
   39.2680   30.9380   41.9450 C   0  0  0  0  0  0  0  0  0  0  0  0
   38.8700   29.8790   42.7410 C   0  0  0  0  0  0  0  0  0  0  0  0
   37.7730   29.3870   42.1100 C   0  0  0  0  0  0  0  0  0  0  0  0
   37.4970   30.0710   41.0120 O   0  0  0  0  0  0  0  0  0  0  0  0
   40.0950   31.6230   42.0540 H   0  0  0  0  0  0  0  0  0  0  0  0
   39.3430   29.5550   43.6360 H   0  0  0  0  0  0  0  0  0  0  0  0
   36.9860   28.2320   42.5860 C   0  0  2  0  0  0  0  0  0  0  0  0
   37.3090   27.5730   43.8500 C   0  0  0  0  0  0  0  0  0  0  0  0
   37.7920   26.9060   42.6130 C   0  0  1  0  0  0  0  0  0  0  0  0
   35.9850   28.1690   42.1210 H   0  0  0  0  0  0  0  0  0  0  0  0
   38.0550   28.0140   44.5540 H   0  0  0  0  0  0  0  0  0  0  0  0
   36.4350   27.0940   44.3840 H   0  0  0  0  0  0  0  0  0  0  0  0
   38.8260   26.9530   42.2800 H   0  0  0  0  0  0  0  0  0  0  0  0
   37.5760   24.4680   42.1770 C   0  0  0  0  0  0  0  0  0  0  0  0
   38.7770   24.2430   42.5030 O   0  0  0  0  0  0  0  0  0  0  0  0
   37.0030   25.7640   42.1610 N   0  0  0  0  0  0  0  0  0  0  0  0
   36.9310   23.6340   41.8890 H   0  0  0  0  0  0  0  0  0  0  0  0
   36.0220   25.9030   41.8290 H   0  0  0  0  0  0  0  0  0  0  0  0
  1  3  1  0  0  0  0
  1 23  1  0  0  0  0
  2  1  2  0  0  0  0
  3  8  1  0  0  0  0
  4  3  2  0  0  0  0
  5  4  1  0  0  0  0
  5  6  2  0  0  0  0
  6  7  1  0  0  0  0
  7  8  2  0  0  0  0
  7 11  1  0  0  0  0
  9  4  1  0  0  0  0
 10  5  1  0  0  0  0
 11 12  2  0  0  0  0
 11 22  1  0  0  0  0
 12 14  1  0  0  0  0
 13 12  1  0  0  0  0
 14 15  2  0  0  0  0
 15 16  1  0  0  0  0
 16 17  2  0  0  0  0
 17 18  1  0  0  0  0
 19 17  1  0  0  0  0
 20 19  2  0  0  0  0
 21 15  1  0  0  0  0
 21 20  1  0  0  0  0
 22 21  2  0  0  0  0
 23 24  1  0  0  0  0
 24 28  1  0  0  0  0
 24 25  2  0  0  0  0
 25 29  1  0  0  0  0
 25 26  1  0  0  0  0
 26 30  1  0  0  0  0
 27 31  1  0  0  0  0
 27 26  2  0  0  0  0
 28 27  1  0  0  0  0
 31 34  1  6  0  0  0
 31 33  1  0  0  0  0
 31 32  1  0  0  0  0
 32 36  1  0  0  0  0
 32 35  1  0  0  0  0
 33 37  1  6  0  0  0
 33 32  1  0  0  0  0
 38 39  2  0  0  0  0
 40 38  1  0  0  0  0
 40 33  1  0  0  0  0
 41 38  1  0  0  0  0
 42 40  1  0  0  0  0
M  END
>  <minimizedAffinity>
-7.48491812

$$$$

 OpenBabel03242518413D

 42 46  0  0  1  0  0  0  0  0999 V2000
   37.7150   32.6750   40.2870 C   0  0  0  0  0  0  0  0  0  0  0  0
   37.2410   33.2350   39.2700 O   0  0  0  0  0  0  0  0  0  0  0  0
   37.4550   31.3520   40.7440 C   0  0  0  0  0  0  0  0  0  0  0  0
   36.2270   30.8510   40.4590 C   0  0  0  0  0  0  0  0  0  0  0  0
   35.9050   29.5650   40.8740 C   0  0  0  0  0  0  0  0  0  0  0  0
   36.8360   28.8580   41.5500 N   0  0  0  0  0  0  0  0  0  0  0  0
   38.0390   29.3670   41.8210 C   0  0  0  0  0  0  0  0  0  0  0  0
   38.3100   30.6130   41.4020 N   0  0  0  0  0  0  0  0  0  0  0  0
   35.4440   31.3680   39.9230 H   0  0  0  0  0  0  0  0  0  0  0  0
   34.9280   29.1370   40.6600 H   0  0  0  0  0  0  0  0  0  0  0  0
   39.0010   28.5510   42.5550 C   0  0  0  0  0  0  0  0  0  0  0  0
   38.6190   27.4060   43.2280 C   0  0  0  0  0  0  0  0  0  0  0  0
   37.5870   27.0860   43.2280 H   0  0  0  0  0  0  0  0  0  0  0  0
   39.6120   26.6890   43.9030 C   0  0  0  0  0  3  0  0  0  0  0  0
   40.9370   27.0880   43.9130 C   0  0  0  0  0  0  0  0  0  0  0  0
   41.8930   26.4170   44.5500 N   0  0  0  0  0  0  0  0  0  0  0  0
   43.1870   26.7990   44.5640 C   0  0  0  0  0  0  0  0  0  0  0  0
   43.9520   26.2390   45.0890 H   0  0  0  0  0  0  0  0  0  0  0  0
   43.5930   27.9400   43.8990 C   0  0  0  0  0  3  0  0  0  0  0  0
   42.6120   28.6590   43.2250 C   0  0  0  0  0  3  0  0  0  0  0  0
   41.2840   28.2360   43.2300 C   0  0  0  0  0  0  0  0  0  0  0  0
   40.3200   28.9700   42.5500 C   0  0  0  0  0  3  0  0  0  0  0  0
   38.6160   33.4420   41.0820 O   0  0  0  0  0  0  0  0  0  0  0  0
   39.5480   34.2800   40.4180 C   0  0  0  0  0  0  0  0  0  0  0  0
   39.7430   35.6700   40.4630 C   0  0  0  0  0  0  0  0  0  0  0  0
   40.7910   35.9960   39.6220 C   0  0  0  0  0  0  0  0  0  0  0  0
   41.1830   34.8020   39.1080 C   0  0  0  0  0  0  0  0  0  0  0  0
   40.4510   33.8060   39.5790 O   0  0  0  0  0  0  0  0  0  0  0  0
   39.1230   36.2990   41.0840 H   0  0  0  0  0  0  0  0  0  0  0  0
   41.1740   36.9720   39.4450 H   0  0  0  0  0  0  0  0  0  0  0  0
   42.2870   34.6330   38.1410 C   0  0  2  0  0  0  0  0  0  0  0  0
   42.7700   33.3020   37.7790 C   0  0  0  0  0  0  0  0  0  0  0  0
   43.5780   34.0500   38.7770 C   0  0  1  0  0  0  0  0  0  0  0  0
   42.4350   35.5160   37.4930 H   0  0  0  0  0  0  0  0  0  0  0  0
   42.2240   32.3840   38.1040 H   0  0  0  0  0  0  0  0  0  0  0  0
   43.1980   33.2090   36.7370 H   0  0  0  0  0  0  0  0  0  0  0  0
   43.5480   33.8380   39.8430 H   0  0  0  0  0  0  0  0  0  0  0  0
   45.9940   34.5920   39.0010 C   0  0  0  0  0  0  0  0  0  0  0  0
   46.0730   34.0380   40.1360 O   0  0  0  0  0  0  0  0  0  0  0  0
   44.7880   34.6850   38.2630 N   0  0  0  0  0  0  0  0  0  0  0  0
   46.8900   35.0270   38.5510 H   0  0  0  0  0  0  0  0  0  0  0  0
   44.7640   35.2020   37.3560 H   0  0  0  0  0  0  0  0  0  0  0  0
  1  3  1  0  0  0  0
  1 23  1  0  0  0  0
  2  1  2  0  0  0  0
  3  8  1  0  0  0  0
  4  3  2  0  0  0  0
  4  5  1  0  0  0  0
  5  6  2  0  0  0  0
  6  7  1  0  0  0  0
  7 11  1  0  0  0  0
  8  7  2  0  0  0  0
  9  4  1  0  0  0  0
 10  5  1  0  0  0  0
 11 12  1  0  0  0  0
 12 14  2  0  0  0  0
 13 12  1  0  0  0  0
 14 15  1  0  0  0  0
 15 16  1  0  0  0  0
 16 17  2  0  0  0  0
 17 18  1  0  0  0  0
 19 17  1  0  0  0  0
 20 21  1  0  0  0  0
 20 19  2  0  0  0  0
 21 15  2  0  0  0  0
 22 11  2  0  0  0  0
 22 21  1  0  0  0  0
 24 25  2  0  0  0  0
 24 23  1  0  0  0  0
 25 29  1  0  0  0  0
 26 25  1  0  0  0  0
 27 28  1  0  0  0  0
 27 26  2  0  0  0  0
 28 24  1  0  0  0  0
 30 26  1  0  0  0  0
 31 34  1  6  0  0  0
 31 33  1  0  0  0  0
 31 27  1  0  0  0  0
 32 35  1  0  0  0  0
 32 31  1  0  0  0  0
 32 33  1  0  0  0  0
 33 37  1  1  0  0  0
 36 32  1  0  0  0  0
 38 39  2  0  0  0  0
 40 33  1  0  0  0  0
 40 38  1  0  0  0  0
 41 38  1  0  0  0  0
 42 40  1  0  0  0  0
M  END
>  <minimizedAffinity>
-7.36832047

$$$$

 OpenBabel03242518413D

 42 46  0  0  1  0  0  0  0  0999 V2000
   45.3730   34.5570   43.0980 C   0  0  0  0  0  0  0  0  0  0  0  0
   46.1020   35.5650   42.9340 O   0  0  0  0  0  0  0  0  0  0  0  0
   45.3210   33.7040   44.2370 C   0  0  0  0  0  0  0  0  0  0  0  0
   45.8510   34.2040   45.3810 C   0  0  0  0  0  0  0  0  0  0  0  0
   45.8350   33.4270   46.5330 C   0  0  0  0  0  0  0  0  0  0  0  0
   45.2870   32.1940   46.4670 N   0  0  0  0  0  0  0  0  0  0  0  0
   44.7700   31.7200   45.3310 C   0  0  0  0  0  0  0  0  0  0  0  0
   44.8060   32.5030   44.2420 N   0  0  0  0  0  0  0  0  0  0  0  0
   46.3020   35.1790   45.4950 H   0  0  0  0  0  0  0  0  0  0  0  0
   46.2520   33.8000   47.4650 H   0  0  0  0  0  0  0  0  0  0  0  0
   44.1920   30.3800   45.3260 C   0  0  0  0  0  0  0  0  0  0  0  0
   44.2660   29.5510   46.4290 C   0  0  0  0  0  0  0  0  0  0  0  0
   44.7610   29.8800   47.3320 H   0  0  0  0  0  0  0  0  0  0  0  0
   43.6810   28.2850   46.3290 C   0  0  0  0  0  3  0  0  0  0  0  0
   43.0460   27.8510   45.1800 C   0  0  0  0  0  0  0  0  0  0  0  0
   42.4850   26.6490   45.0690 N   0  0  0  0  0  0  0  0  0  0  0  0
   41.8630   26.2190   43.9520 C   0  0  0  0  0  0  0  0  0  0  0  0
   41.4120   25.2360   43.8810 H   0  0  0  0  0  0  0  0  0  0  0  0
   41.7760   27.0280   42.8360 C   0  0  0  0  0  3  0  0  0  0  0  0
   42.3540   28.2900   42.9270 C   0  0  0  0  0  3  0  0  0  0  0  0
   42.9890   28.7040   44.0960 C   0  0  0  0  0  0  0  0  0  0  0  0
   43.5600   29.9680   44.1650 C   0  0  0  0  0  3  0  0  0  0  0  0
   44.4940   34.2200   42.0280 O   0  0  0  0  0  0  0  0  0  0  0  0
   43.3590   35.0420   41.8080 C   0  0  0  0  0  0  0  0  0  0  0  0
   42.8860   36.1720   42.4950 C   0  0  0  0  0  0  0  0  0  0  0  0
   41.7280   36.6100   41.8770 C   0  0  0  0  0  0  0  0  0  0  0  0
   41.5500   35.7350   40.8540 C   0  0  0  0  0  0  0  0  0  0  0  0
   42.5080   34.8240   40.8220 O   0  0  0  0  0  0  0  0  0  0  0  0
   43.4100   36.5610   43.3530 H   0  0  0  0  0  0  0  0  0  0  0  0
   41.1390   37.4460   42.1680 H   0  0  0  0  0  0  0  0  0  0  0  0
   40.4280   35.7910   39.8960 C   0  0  2  0  0  0  0  0  0  0  0  0
   39.3340   36.7430   40.0740 C   0  0  0  0  0  0  0  0  0  0  0  0
   39.0720   35.3470   40.5090 C   0  0  1  0  0  0  0  0  0  0  0  0
   40.6730   35.3440   38.9150 H   0  0  0  0  0  0  0  0  0  0  0  0
   39.3930   37.5490   40.8460 H   0  0  0  0  0  0  0  0  0  0  0  0
   38.8320   37.0890   39.1220 H   0  0  0  0  0  0  0  0  0  0  0  0
   39.0820   35.0390   41.5520 H   0  0  0  0  0  0  0  0  0  0  0  0
   37.9740   33.1940   39.9250 C   0  0  0  0  0  0  0  0  0  0  0  0
   38.4070   32.6230   40.9670 O   0  0  0  0  0  0  0  0  0  0  0  0
   38.2820   34.5360   39.5870 N   0  0  0  0  0  0  0  0  0  0  0  0
   37.3290   32.6430   39.2370 H   0  0  0  0  0  0  0  0  0  0  0  0
   37.9460   34.9430   38.6870 H   0  0  0  0  0  0  0  0  0  0  0  0
  1  3  1  0  0  0  0
  2  1  2  0  0  0  0
  3  8  2  0  0  0  0
  3  4  1  0  0  0  0
  4  9  1  0  0  0  0
  4  5  2  0  0  0  0
  5 10  1  0  0  0  0
  6  5  1  0  0  0  0
  7  6  2  0  0  0  0
  8  7  1  0  0  0  0
 11  7  1  0  0  0  0
 11 12  1  0  0  0  0
 12 13  1  0  0  0  0
 14 12  2  0  0  0  0
 15 14  1  0  0  0  0
 16 15  1  0  0  0  0
 17 16  2  0  0  0  0
 18 17  1  0  0  0  0
 19 20  2  0  0  0  0
 19 17  1  0  0  0  0
 20 21  1  0  0  0  0
 21 22  1  0  0  0  0
 21 15  2  0  0  0  0
 22 11  2  0  0  0  0
 23  1  1  0  0  0  0
 24 23  1  0  0  0  0
 24 25  2  0  0  0  0
 25 29  1  0  0  0  0
 26 30  1  0  0  0  0
 26 25  1  0  0  0  0
 27 26  2  0  0  0  0
 28 27  1  0  0  0  0
 28 24  1  0  0  0  0
 31 34  1  6  0  0  0
 31 32  1  0  0  0  0
 31 33  1  0  0  0  0
 31 27  1  0  0  0  0
 32 33  1  0  0  0  0
 32 35  1  0  0  0  0
 33 37  1  1  0  0  0
 36 32  1  0  0  0  0
 38 39  2  0  0  0  0
 40 38  1  0  0  0  0
 40 33  1  0  0  0  0
 41 38  1  0  0  0  0
 42 40  1  0  0  0  0
M  END
>  <minimizedAffinity>
-7.25801945

$$$$

 OpenBabel03242518413D

 42 46  0  0  1  0  0  0  0  0999 V2000
   37.3630   32.0260   39.7500 C   0  0  0  0  0  0  0  0  0  0  0  0
   37.3900   32.2340   38.5140 O   0  0  0  0  0  0  0  0  0  0  0  0
   37.1670   30.7810   40.4120 C   0  0  0  0  0  0  0  0  0  0  0  0
   35.9350   30.2280   40.2920 C   0  0  0  0  0  0  0  0  0  0  0  0
   35.6710   29.0120   40.9120 C   0  0  0  0  0  0  0  0  0  0  0  0
   36.6630   28.4240   41.6150 N   0  0  0  0  0  0  0  0  0  0  0  0
   37.8700   28.9840   41.7220 C   0  0  0  0  0  0  0  0  0  0  0  0
   38.0820   30.1580   41.1080 N   0  0  0  0  0  0  0  0  0  0  0  0
   35.1040   30.6510   39.7440 H   0  0  0  0  0  0  0  0  0  0  0  0
   34.6930   28.5450   40.8330 H   0  0  0  0  0  0  0  0  0  0  0  0
   38.8990   28.2970   42.4960 C   0  0  0  0  0  0  0  0  0  0  0  0
   38.6380   27.1160   43.1660 C   0  0  0  0  0  0  0  0  0  0  0  0
   37.6540   26.6700   43.1320 H   0  0  0  0  0  0  0  0  0  0  0  0
   39.6880   26.5310   43.8810 C   0  0  0  0  0  3  0  0  0  0  0  0
   40.9510   27.0920   43.9340 C   0  0  0  0  0  0  0  0  0  0  0  0
   41.9610   26.5480   44.6100 N   0  0  0  0  0  0  0  0  0  0  0  0
   43.1960   27.0880   44.6650 C   0  0  0  0  0  0  0  0  0  0  0  0
   44.0050   26.6290   45.2210 H   0  0  0  0  0  0  0  0  0  0  0  0
   43.4800   28.2670   44.0050 C   0  0  0  0  0  3  0  0  0  0  0  0
   42.4420   28.8560   43.2910 C   0  0  0  0  0  3  0  0  0  0  0  0
   41.1780   28.2710   43.2530 C   0  0  0  0  0  0  0  0  0  0  0  0
   40.1550   28.8770   42.5340 C   0  0  0  0  0  3  0  0  0  0  0  0
   37.5490   33.1580   40.5970 O   0  0  0  0  0  0  0  0  0  0  0  0
   38.6930   33.9710   40.3870 C   0  0  0  0  0  0  0  0  0  0  0  0
   38.8190   35.3420   40.1150 C   0  0  0  0  0  0  0  0  0  0  0  0
   40.1630   35.6460   39.9940 C   0  0  0  0  0  0  0  0  0  0  0  0
   40.7880   34.4580   40.1950 C   0  0  0  0  0  0  0  0  0  0  0  0
   39.9210   33.4860   40.4250 O   0  0  0  0  0  0  0  0  0  0  0  0
   37.9490   35.9750   40.0330 H   0  0  0  0  0  0  0  0  0  0  0  0
   40.5740   36.6050   39.7890 H   0  0  0  0  0  0  0  0  0  0  0  0
   42.2520   34.2700   40.1620 C   0  0  2  0  0  0  0  0  0  0  0  0
   42.8850   33.1730   40.8910 C   0  0  0  0  0  0  0  0  0  0  0  0
   42.9350   34.5110   41.5350 C   0  0  1  0  0  0  0  0  0  0  0  0
   42.7330   34.7660   39.3000 H   0  0  0  0  0  0  0  0  0  0  0  0
   42.2720   32.3680   41.3640 H   0  0  0  0  0  0  0  0  0  0  0  0
   43.8460   32.7820   40.4410 H   0  0  0  0  0  0  0  0  0  0  0  0
   42.2900   34.7960   42.3620 H   0  0  0  0  0  0  0  0  0  0  0  0
   44.7800   35.8310   42.5530 C   0  0  0  0  0  0  0  0  0  0  0  0
   44.2210   35.8480   43.6880 O   0  0  0  0  0  0  0  0  0  0  0  0
   44.2030   35.2260   41.4090 N   0  0  0  0  0  0  0  0  0  0  0  0
   45.7580   36.3020   42.4280 H   0  0  0  0  0  0  0  0  0  0  0  0
   44.6790   35.2890   40.4820 H   0  0  0  0  0  0  0  0  0  0  0  0
  1  3  1  0  0  0  0
  1 23  1  0  0  0  0
  2  1  2  0  0  0  0
  3  8  1  0  0  0  0
  4  3  2  0  0  0  0
  4  5  1  0  0  0  0
  5  6  2  0  0  0  0
  6  7  1  0  0  0  0
  7 11  1  0  0  0  0
  8  7  2  0  0  0  0
  9  4  1  0  0  0  0
 10  5  1  0  0  0  0
 11 22  2  0  0  0  0
 11 12  1  0  0  0  0
 12 14  2  0  0  0  0
 13 12  1  0  0  0  0
 14 15  1  0  0  0  0
 15 16  1  0  0  0  0
 16 17  2  0  0  0  0
 17 18  1  0  0  0  0
 19 17  1  0  0  0  0
 20 19  2  0  0  0  0
 21 20  1  0  0  0  0
 21 15  2  0  0  0  0
 22 21  1  0  0  0  0
 24 28  1  0  0  0  0
 24 23  1  0  0  0  0
 25 24  2  0  0  0  0
 26 25  1  0  0  0  0
 26 27  2  0  0  0  0
 27 28  1  0  0  0  0
 29 25  1  0  0  0  0
 30 26  1  0  0  0  0
 31 34  1  6  0  0  0
 31 27  1  0  0  0  0
 31 32  1  0  0  0  0
 31 33  1  0  0  0  0
 32 35  1  0  0  0  0
 32 33  1  0  0  0  0
 33 37  1  1  0  0  0
 36 32  1  0  0  0  0
 38 39  2  0  0  0  0
 40 33  1  0  0  0  0
 40 38  1  0  0  0  0
 41 38  1  0  0  0  0
 42 40  1  0  0  0  0
M  END
>  <minimizedAffinity>
-7.17193031

$$$$

 OpenBabel03242518413D

 42 46  0  0  1  0  0  0  0  0999 V2000
   37.0750   27.6550   43.4730 C   0  0  0  0  0  0  0  0  0  0  0  0
   35.9730   27.3860   44.0080 O   0  0  0  0  0  0  0  0  0  0  0  0
   38.1150   26.7450   43.1320 C   0  0  0  0  0  0  0  0  0  0  0  0
   37.7620   25.7050   42.3360 C   0  0  0  0  0  0  0  0  0  0  0  0
   38.7260   24.7770   41.9630 C   0  0  0  0  0  0  0  0  0  0  0  0
   39.9880   24.9490   42.4110 N   0  0  0  0  0  0  0  0  0  0  0  0
   40.3170   25.9780   43.1940 C   0  0  0  0  0  0  0  0  0  0  0  0
   39.3560   26.8520   43.5300 N   0  0  0  0  0  0  0  0  0  0  0  0
   36.7720   25.5160   41.9480 H   0  0  0  0  0  0  0  0  0  0  0  0
   38.4730   23.9330   41.3260 H   0  0  0  0  0  0  0  0  0  0  0  0
   41.6990   26.1080   43.6440 C   0  0  0  0  0  0  0  0  0  0  0  0
   42.7230   25.3770   43.0710 C   0  0  0  0  0  0  0  0  0  0  0  0
   42.5200   24.6830   42.2680 H   0  0  0  0  0  0  0  0  0  0  0  0
   44.0150   25.5700   43.5700 C   0  0  0  0  0  3  0  0  0  0  0  0
   44.2880   26.4540   44.5980 C   0  0  0  0  0  0  0  0  0  0  0  0
   45.5120   26.6480   45.0840 N   0  0  0  0  0  0  0  0  0  0  0  0
   45.7870   27.5090   46.0850 C   0  0  0  0  0  0  0  0  0  0  0  0
   46.7910   27.6530   46.4670 H   0  0  0  0  0  0  0  0  0  0  0  0
   44.7810   28.2510   46.6740 C   0  0  0  0  0  3  0  0  0  0  0  0
   43.4930   28.0660   46.1840 C   0  0  0  0  0  3  0  0  0  0  0  0
   43.2430   27.1690   45.1470 C   0  0  0  0  0  0  0  0  0  0  0  0
   41.9480   26.9990   44.6740 C   0  0  0  0  0  3  0  0  0  0  0  0
   37.3230   29.0260   43.1660 O   0  0  0  0  0  0  0  0  0  0  0  0
   36.8750   29.5240   41.9160 C   0  0  0  0  0  0  0  0  0  0  0  0
   36.0130   28.9750   40.9540 C   0  0  0  0  0  0  0  0  0  0  0  0
   35.9010   29.8670   39.9030 C   0  0  0  0  0  0  0  0  0  0  0  0
   36.6910   30.9080   40.2690 C   0  0  0  0  0  0  0  0  0  0  0  0
   37.2560   30.6980   41.4470 O   0  0  0  0  0  0  0  0  0  0  0  0
   35.5600   28.0070   41.1000 H   0  0  0  0  0  0  0  0  0  0  0  0
   35.3170   29.7320   39.0240 H   0  0  0  0  0  0  0  0  0  0  0  0
   36.9000   32.1230   39.4560 C   0  0  2  0  0  0  0  0  0  0  0  0
   38.0610   32.2490   38.5770 C   0  0  0  0  0  0  0  0  0  0  0  0
   38.1440   32.9460   39.8870 C   0  0  1  0  0  0  0  0  0  0  0  0
   35.9740   32.7080   39.3050 H   0  0  0  0  0  0  0  0  0  0  0  0
   38.7330   31.3780   38.3850 H   0  0  0  0  0  0  0  0  0  0  0  0
   37.9080   32.8930   37.6610 H   0  0  0  0  0  0  0  0  0  0  0  0
   38.7190   32.5640   40.7270 H   0  0  0  0  0  0  0  0  0  0  0  0
   38.9370   35.2800   40.2180 C   0  0  0  0  0  0  0  0  0  0  0  0
   40.0650   34.8980   40.6440 O   0  0  0  0  0  0  0  0  0  0  0  0
   37.8990   34.3860   39.8530 N   0  0  0  0  0  0  0  0  0  0  0  0
   38.7320   36.3480   40.1190 H   0  0  0  0  0  0  0  0  0  0  0  0
   36.9660   34.7520   39.5610 H   0  0  0  0  0  0  0  0  0  0  0  0
  1  2  2  0  0  0  0
  3  1  1  0  0  0  0
  3  8  1  0  0  0  0
  4  3  2  0  0  0  0
  5  4  1  0  0  0  0
  5  6  2  0  0  0  0
  6  7  1  0  0  0  0
  7  8  2  0  0  0  0
  7 11  1  0  0  0  0
  9  4  1  0  0  0  0
 10  5  1  0  0  0  0
 11 22  1  0  0  0  0
 12 14  1  0  0  0  0
 12 11  2  0  0  0  0
 13 12  1  0  0  0  0
 14 15  2  0  0  0  0
 15 16  1  0  0  0  0
 15 21  1  0  0  0  0
 16 17  2  0  0  0  0
 17 18  1  0  0  0  0
 17 19  1  0  0  0  0
 20 19  2  0  0  0  0
 21 20  1  0  0  0  0
 22 21  2  0  0  0  0
 23  1  1  0  0  0  0
 24 23  1  0  0  0  0
 25 29  1  0  0  0  0
 25 24  2  0  0  0  0
 26 27  2  0  0  0  0
 26 25  1  0  0  0  0
 27 28  1  0  0  0  0
 28 24  1  0  0  0  0
 30 26  1  0  0  0  0
 31 34  1  6  0  0  0
 31 33  1  0  0  0  0
 31 27  1  0  0  0  0
 32 31  1  0  0  0  0
 32 33  1  0  0  0  0
 33 37  1  1  0  0  0
 35 32  1  0  0  0  0
 36 32  1  0  0  0  0
 38 39  2  0  0  0  0
 40 33  1  0  0  0  0
 40 38  1  0  0  0  0
 41 38  1  0  0  0  0
 42 40  1  0  0  0  0
M  END
>  <minimizedAffinity>
-7.12454033

$$$$

 OpenBabel03242518413D

 42 46  0  0  1  0  0  0  0  0999 V2000
   37.7080   27.9530   43.7950 C   0  0  0  0  0  0  0  0  0  0  0  0
   36.8550   28.0610   44.7070 O   0  0  0  0  0  0  0  0  0  0  0  0
   38.2920   26.7540   43.2950 C   0  0  0  0  0  0  0  0  0  0  0  0
   39.5340   26.4590   43.7530 C   0  0  0  0  0  0  0  0  0  0  0  0
   40.1650   25.3030   43.3080 C   0  0  0  0  0  0  0  0  0  0  0  0
   39.5100   24.5130   42.4310 N   0  0  0  0  0  0  0  0  0  0  0  0
   38.2880   24.8200   41.9920 C   0  0  0  0  0  0  0  0  0  0  0  0
   37.7140   25.9440   42.4470 N   0  0  0  0  0  0  0  0  0  0  0  0
   40.1060   27.0510   44.4520 H   0  0  0  0  0  0  0  0  0  0  0  0
   41.1610   25.0400   43.6570 H   0  0  0  0  0  0  0  0  0  0  0  0
   37.6330   23.9230   41.0450 C   0  0  0  0  0  0  0  0  0  0  0  0
   36.4220   24.2430   40.4590 C   0  0  0  0  0  0  0  0  0  0  0  0
   35.9260   25.1740   40.6940 H   0  0  0  0  0  0  0  0  0  0  0  0
   35.8720   23.3210   39.5630 C   0  0  0  0  0  3  0  0  0  0  0  0
   36.4950   22.1250   39.2550 C   0  0  0  0  0  0  0  0  0  0  0  0
   35.9850   21.2370   38.4050 N   0  0  0  0  0  0  0  0  0  0  0  0
   36.5860   20.0690   38.0980 C   0  0  0  0  0  0  0  0  0  0  0  0
   36.1540   19.3600   37.4030 H   0  0  0  0  0  0  0  0  0  0  0  0
   37.7960   19.7280   38.6700 C   0  0  0  0  0  3  0  0  0  0  0  0
   38.3510   20.6390   39.5630 C   0  0  0  0  0  3  0  0  0  0  0  0
   37.7040   21.8370   39.8570 C   0  0  0  0  0  0  0  0  0  0  0  0
   38.2750   22.7330   40.7520 C   0  0  0  0  0  3  0  0  0  0  0  0
   38.1510   29.1620   43.1830 O   0  0  0  0  0  0  0  0  0  0  0  0
   37.4130   29.6640   42.0810 C   0  0  0  0  0  0  0  0  0  0  0  0
   36.3180   29.1340   41.3790 C   0  0  0  0  0  0  0  0  0  0  0  0
   35.9660   30.0210   40.3780 C   0  0  0  0  0  0  0  0  0  0  0  0
   36.8520   31.0400   40.5140 C   0  0  0  0  0  0  0  0  0  0  0  0
   37.6930   30.8230   41.5120 O   0  0  0  0  0  0  0  0  0  0  0  0
   35.8910   28.1810   41.6510 H   0  0  0  0  0  0  0  0  0  0  0  0
   35.1740   29.8970   39.6800 H   0  0  0  0  0  0  0  0  0  0  0  0
   36.8790   32.2430   39.6570 C   0  0  2  0  0  0  0  0  0  0  0  0
   37.8350   32.3600   38.5580 C   0  0  0  0  0  0  0  0  0  0  0  0
   38.1770   33.0800   39.8120 C   0  0  1  0  0  0  0  0  0  0  0  0
   35.9370   32.8190   39.6890 H   0  0  0  0  0  0  0  0  0  0  0  0
   38.4620   31.4890   38.2460 H   0  0  0  0  0  0  0  0  0  0  0  0
   37.4920   32.9860   37.6820 H   0  0  0  0  0  0  0  0  0  0  0  0
   38.9160   32.7160   40.5220 H   0  0  0  0  0  0  0  0  0  0  0  0
   38.9490   35.4150   40.1790 C   0  0  0  0  0  0  0  0  0  0  0  0
   40.0840   35.0380   40.5910 O   0  0  0  0  0  0  0  0  0  0  0  0
   37.9180   34.5170   39.8060 N   0  0  0  0  0  0  0  0  0  0  0  0
   38.7320   36.4830   40.1010 H   0  0  0  0  0  0  0  0  0  0  0  0
   36.9790   34.8790   39.5270 H   0  0  0  0  0  0  0  0  0  0  0  0
  1  2  2  0  0  0  0
  3  4  1  0  0  0  0
  3  1  1  0  0  0  0
  4  9  1  0  0  0  0
  5 10  1  0  0  0  0
  5  4  2  0  0  0  0
  6  5  1  0  0  0  0
  7  6  2  0  0  0  0
  7  8  1  0  0  0  0
  8  3  2  0  0  0  0
 11  7  1  0  0  0  0
 12 13  1  0  0  0  0
 12 11  2  0  0  0  0
 14 12  1  0  0  0  0
 15 14  2  0  0  0  0
 15 21  1  0  0  0  0
 16 15  1  0  0  0  0
 17 16  2  0  0  0  0
 17 19  1  0  0  0  0
 18 17  1  0  0  0  0
 19 20  2  0  0  0  0
 20 21  1  0  0  0  0
 21 22  2  0  0  0  0
 22 11  1  0  0  0  0
 23  1  1  0  0  0  0
 24 23  1  0  0  0  0
 25 29  1  0  0  0  0
 25 24  2  0  0  0  0
 26 27  2  0  0  0  0
 26 25  1  0  0  0  0
 27 28  1  0  0  0  0
 28 24  1  0  0  0  0
 30 26  1  0  0  0  0
 31 34  1  6  0  0  0
 31 33  1  0  0  0  0
 31 27  1  0  0  0  0
 32 31  1  0  0  0  0
 32 33  1  0  0  0  0
 33 37  1  1  0  0  0
 35 32  1  0  0  0  0
 36 32  1  0  0  0  0
 38 39  2  0  0  0  0
 40 33  1  0  0  0  0
 40 38  1  0  0  0  0
 41 38  1  0  0  0  0
 42 40  1  0  0  0  0
M  END
>  <minimizedAffinity>
-7.07138681

$$$$

 OpenBabel03242518413D

 42 46  0  0  1  0  0  0  0  0999 V2000
   40.0770   34.9270   40.3890 C   0  0  0  0  0  0  0  0  0  0  0  0
   39.0810   35.4030   40.9850 O   0  0  0  0  0  0  0  0  0  0  0  0
   40.2020   33.6290   39.8170 C   0  0  0  0  0  0  0  0  0  0  0  0
   41.0420   33.5220   38.7580 C   0  0  0  0  0  0  0  0  0  0  0  0
   41.2140   32.2850   38.1490 C   0  0  0  0  0  0  0  0  0  0  0  0
   40.5330   31.2280   38.6430 N   0  0  0  0  0  0  0  0  0  0  0  0
   39.7120   31.3530   39.6870 C   0  0  0  0  0  0  0  0  0  0  0  0
   39.5740   32.5660   40.2450 N   0  0  0  0  0  0  0  0  0  0  0  0
   41.6110   34.3290   38.3200 H   0  0  0  0  0  0  0  0  0  0  0  0
   41.8800   32.1680   37.2980 H   0  0  0  0  0  0  0  0  0  0  0  0
   39.0050   30.1720   40.1730 C   0  0  0  0  0  0  0  0  0  0  0  0
   38.6240   29.1510   39.3230 C   0  0  0  0  0  0  0  0  0  0  0  0
   38.8420   29.2060   38.2650 H   0  0  0  0  0  0  0  0  0  0  0  0
   37.9510   28.0600   39.8810 C   0  0  0  0  0  3  0  0  0  0  0  0
   37.6650   27.9780   41.2320 C   0  0  0  0  0  0  0  0  0  0  0  0
   37.0260   26.9460   41.7780 N   0  0  0  0  0  0  0  0  0  0  0  0
   36.7440   26.8580   43.0950 C   0  0  0  0  0  0  0  0  0  0  0  0
   36.2220   26.0090   43.5200 H   0  0  0  0  0  0  0  0  0  0  0  0
   37.1140   27.8650   43.9640 C   0  0  0  0  0  3  0  0  0  0  0  0
   37.7840   28.9550   43.4180 C   0  0  0  0  0  3  0  0  0  0  0  0
   38.0610   29.0140   42.0530 C   0  0  0  0  0  0  0  0  0  0  0  0
   38.7300   30.1120   41.5290 C   0  0  0  0  0  3  0  0  0  0  0  0
   41.2160   35.7750   40.2640 O   0  0  0  0  0  0  0  0  0  0  0  0
   41.9970   36.0230   41.4220 C   0  0  0  0  0  0  0  0  0  0  0  0
   41.8450   36.9550   42.4610 C   0  0  0  0  0  0  0  0  0  0  0  0
   42.8840   36.7880   43.3590 C   0  0  0  0  0  0  0  0  0  0  0  0
   43.6140   35.7720   42.8310 C   0  0  0  0  0  0  0  0  0  0  0  0
   43.0870   35.3310   41.7010 O   0  0  0  0  0  0  0  0  0  0  0  0
   41.0190   37.6490   42.4690 H   0  0  0  0  0  0  0  0  0  0  0  0
   43.0410   37.3470   44.2480 H   0  0  0  0  0  0  0  0  0  0  0  0
   44.8430   35.2240   43.4400 C   0  0  2  0  0  0  0  0  0  0  0  0
   45.7860   34.4360   42.6490 C   0  0  0  0  0  0  0  0  0  0  0  0
   44.8530   33.6740   43.5190 C   0  0  1  0  0  0  0  0  0  0  0  0
   45.1380   35.7480   44.3670 H   0  0  0  0  0  0  0  0  0  0  0  0
   45.6790   34.3560   41.5400 H   0  0  0  0  0  0  0  0  0  0  0  0
   46.8650   34.4960   42.9790 H   0  0  0  0  0  0  0  0  0  0  0  0
   43.9760   33.1560   43.1380 H   0  0  0  0  0  0  0  0  0  0  0  0
   44.9250   31.9810   45.3390 C   0  0  0  0  0  0  0  0  0  0  0  0
   43.9590   31.3270   44.8490 O   0  0  0  0  0  0  0  0  0  0  0  0
   45.4180   33.1830   44.7730 N   0  0  0  0  0  0  0  0  0  0  0  0
   45.4170   31.6170   46.2440 H   0  0  0  0  0  0  0  0  0  0  0  0
   46.1810   33.7150   45.2480 H   0  0  0  0  0  0  0  0  0  0  0  0
  1  2  2  0  0  0  0
  3  8  1  0  0  0  0
  3  1  1  0  0  0  0
  4  3  2  0  0  0  0
  5  6  2  0  0  0  0
  5  4  1  0  0  0  0
  6  7  1  0  0  0  0
  7 11  1  0  0  0  0
  7  8  2  0  0  0  0
  9  4  1  0  0  0  0
 10  5  1  0  0  0  0
 11 22  1  0  0  0  0
 12 14  1  0  0  0  0
 12 11  2  0  0  0  0
 13 12  1  0  0  0  0
 14 15  2  0  0  0  0
 15 16  1  0  0  0  0
 15 21  1  0  0  0  0
 16 17  2  0  0  0  0
 17 18  1  0  0  0  0
 17 19  1  0  0  0  0
 20 19  2  0  0  0  0
 21 20  1  0  0  0  0
 22 21  2  0  0  0  0
 23  1  1  0  0  0  0
 23 24  1  0  0  0  0
 24 28  1  0  0  0  0
 24 25  2  0  0  0  0
 25 29  1  0  0  0  0
 25 26  1  0  0  0  0
 26 30  1  0  0  0  0
 27 26  2  0  0  0  0
 27 31  1  0  0  0  0
 28 27  1  0  0  0  0
 31 33  1  0  0  0  0
 31 34  1  1  0  0  0
 32 36  1  0  0  0  0
 32 31  1  0  0  0  0
 32 33  1  0  0  0  0
 33 37  1  6  0  0  0
 33 40  1  0  0  0  0
 35 32  1  0  0  0  0
 38 41  1  0  0  0  0
 39 38  2  0  0  0  0
 40 42  1  0  0  0  0
 40 38  1  0  0  0  0
M  END
>  <minimizedAffinity>
-6.90176201

$$$$

 OpenBabel03242518413D

 42 46  0  0  1  0  0  0  0  0999 V2000
   37.6550   29.9860   38.4520 C   0  0  0  0  0  0  0  0  0  0  0  0
   37.0530   29.7790   37.3710 O   0  0  0  0  0  0  0  0  0  0  0  0
   37.4350   29.3390   39.7010 C   0  0  0  0  0  0  0  0  0  0  0  0
   36.1400   29.1780   40.0710 C   0  0  0  0  0  0  0  0  0  0  0  0
   35.8500   28.5540   41.2780 C   0  0  0  0  0  0  0  0  0  0  0  0
   36.8800   28.1270   42.0410 N   0  0  0  0  0  0  0  0  0  0  0  0
   38.1470   28.2940   41.6610 C   0  0  0  0  0  0  0  0  0  0  0  0
   38.3830   28.9020   40.4880 N   0  0  0  0  0  0  0  0  0  0  0  0
   35.2780   29.4980   39.5030 H   0  0  0  0  0  0  0  0  0  0  0  0
   34.8220   28.4110   41.6010 H   0  0  0  0  0  0  0  0  0  0  0  0
   39.2150   27.8100   42.5310 C   0  0  0  0  0  0  0  0  0  0  0  0
   39.0750   26.6560   43.2790 C   0  0  0  0  0  0  0  0  0  0  0  0
   38.1610   26.0800   43.2380 H   0  0  0  0  0  0  0  0  0  0  0  0
   40.1520   26.2710   44.0840 C   0  0  0  0  0  3  0  0  0  0  0  0
   41.3270   26.9990   44.1470 C   0  0  0  0  0  0  0  0  0  0  0  0
   42.3600   26.6460   44.9080 N   0  0  0  0  0  0  0  0  0  0  0  0
   43.5090   27.3500   44.9750 C   0  0  0  0  0  0  0  0  0  0  0  0
   44.3400   27.0460   45.6000 H   0  0  0  0  0  0  0  0  0  0  0  0
   43.6720   28.5060   44.2360 C   0  0  0  0  0  3  0  0  0  0  0  0
   42.6060   28.8970   43.4330 C   0  0  0  0  0  3  0  0  0  0  0  0
   41.4330   28.1460   43.3860 C   0  0  0  0  0  0  0  0  0  0  0  0
   40.3800   28.5550   42.5780 C   0  0  0  0  0  3  0  0  0  0  0  0
   38.6770   30.9800   38.4380 O   0  0  0  0  0  0  0  0  0  0  0  0
   38.3740   32.2580   38.9730 C   0  0  0  0  0  0  0  0  0  0  0  0
   37.1800   32.9970   38.9930 C   0  0  0  0  0  0  0  0  0  0  0  0
   37.4150   34.1970   39.6410 C   0  0  0  0  0  0  0  0  0  0  0  0
   38.7270   34.1350   39.9820 C   0  0  0  0  0  0  0  0  0  0  0  0
   39.2790   32.9990   39.5890 O   0  0  0  0  0  0  0  0  0  0  0  0
   36.2780   32.6080   38.5480 H   0  0  0  0  0  0  0  0  0  0  0  0
   36.7030   34.9670   39.8130 H   0  0  0  0  0  0  0  0  0  0  0  0
   39.4520   35.2010   40.7020 C   0  0  2  0  0  0  0  0  0  0  0  0
   39.6180   36.5280   40.1110 C   0  0  0  0  0  0  0  0  0  0  0  0
   40.7830   35.6110   40.0160 C   0  0  1  0  0  0  0  0  0  0  0  0
   39.5160   35.0230   41.7910 H   0  0  0  0  0  0  0  0  0  0  0  0
   39.0750   36.8120   39.1770 H   0  0  0  0  0  0  0  0  0  0  0  0
   39.6930   37.3810   40.8490 H   0  0  0  0  0  0  0  0  0  0  0  0
   41.0490   35.0830   39.1040 H   0  0  0  0  0  0  0  0  0  0  0  0
   42.7830   34.8180   41.2630 C   0  0  0  0  0  0  0  0  0  0  0  0
   42.6990   33.6540   40.7750 O   0  0  0  0  0  0  0  0  0  0  0  0
   41.8560   35.8510   40.9780 N   0  0  0  0  0  0  0  0  0  0  0  0
   43.6060   35.0590   41.9400 H   0  0  0  0  0  0  0  0  0  0  0  0
   41.9380   36.7780   41.4510 H   0  0  0  0  0  0  0  0  0  0  0  0
  1  3  1  0  0  0  0
  2  1  2  0  0  0  0
  3  4  2  0  0  0  0
  3  8  1  0  0  0  0
  4  5  1  0  0  0  0
  5 10  1  0  0  0  0
  5  6  2  0  0  0  0
  7  6  1  0  0  0  0
  7 11  1  0  0  0  0
  8  7  2  0  0  0  0
  9  4  1  0  0  0  0
 11 22  2  0  0  0  0
 11 12  1  0  0  0  0
 12 14  2  0  0  0  0
 13 12  1  0  0  0  0
 14 15  1  0  0  0  0
 15 16  1  0  0  0  0
 16 17  2  0  0  0  0
 17 18  1  0  0  0  0
 19 17  1  0  0  0  0
 20 19  2  0  0  0  0
 21 20  1  0  0  0  0
 21 15  2  0  0  0  0
 22 21  1  0  0  0  0
 23  1  1  0  0  0  0
 23 24  1  0  0  0  0
 24 25  2  0  0  0  0
 24 28  1  0  0  0  0
 25 26  1  0  0  0  0
 26 30  1  0  0  0  0
 26 27  2  0  0  0  0
 27 31  1  0  0  0  0
 28 27  1  0  0  0  0
 29 25  1  0  0  0  0
 31 34  1  1  0  0  0
 32 31  1  0  0  0  0
 32 36  1  0  0  0  0
 33 37  1  6  0  0  0
 33 32  1  0  0  0  0
 33 31  1  0  0  0  0
 33 40  1  0  0  0  0
 35 32  1  0  0  0  0
 38 41  1  0  0  0  0
 39 38  2  0  0  0  0
 40 38  1  0  0  0  0
 40 42  1  0  0  0  0
M  END
>  <minimizedAffinity>
-6.90038919

$$$$
