
 OpenBabel03252509173D

 28 31  0  0  0  0  0  0  0  0999 V2000
   41.6810   33.7800   40.4960 C   0  0  0  0  0  0  0  0  0  0  0  0
   40.5480   34.6270   40.3960 C   0  0  0  0  0  0  0  0  0  0  0  0
   39.3940   34.0950   39.9310 C   0  0  0  0  0  0  0  0  0  0  0  0
   39.3550   32.7260   39.5620 C   0  0  0  0  0  0  0  0  0  0  0  0
   41.0610   32.1710   39.9000 S   0  0  0  0  0  0  0  0  0  0  0  0
   40.6080   35.6660   40.6860 H   0  0  0  0  0  0  0  0  0  0  0  0
   38.4740   34.5910   39.7990 H   0  0  0  0  0  0  0  0  0  0  0  0
   38.3550   31.8730   39.0560 C   0  0  0  0  0  0  0  0  0  0  0  0
   38.3340   31.6230   37.7000 C   0  0  0  0  0  0  0  0  0  0  0  0
   39.0410   32.0430   36.9990 H   0  0  0  0  0  0  0  0  0  0  0  0
   37.3240   30.7700   37.2380 C   0  0  0  0  0  3  0  0  0  0  0  0
   36.4010   30.2180   38.1270 C   0  0  0  0  0  0  0  0  0  0  0  0
   35.4450   29.3970   37.6080 N   0  0  0  0  0  0  0  0  0  0  0  0
   34.5190   28.8250   38.4000 C   0  0  0  0  0  0  0  0  0  0  0  0
   33.7880   28.1900   37.9610 H   0  0  0  0  0  0  0  0  0  0  0  0
   34.5670   29.0980   39.7670 C   0  0  0  0  0  3  0  0  0  0  0  0
   35.5220   29.9240   40.3130 C   0  0  0  0  0  3  0  0  0  0  0  0
   36.4610   30.4980   39.4850 C   0  0  0  0  0  0  0  0  0  0  0  0
   37.4640   31.3490   39.9650 C   0  0  0  0  0  3  0  0  0  0  0  0
   44.5340   35.0990   42.4740 C   0  0  0  0  0  0  0  0  0  0  0  0
   45.5840   34.9090   41.5410 C   0  0  0  0  0  0  0  0  0  0  0  0
   45.2640   34.3440   40.2900 C   0  0  0  0  0  0  0  0  0  0  0  0
   43.9520   34.0080   40.0500 N   0  0  0  0  0  0  0  0  0  0  0  0
   42.9920   34.2120   40.9800 C   0  0  0  0  0  0  0  0  0  0  0  0
   43.2760   34.7550   42.1890 N   0  0  0  0  0  0  0  0  0  0  0  0
   44.7760   35.5320   43.4330 H   0  0  0  0  0  0  0  0  0  0  0  0
   46.6020   35.1720   41.7320 H   0  0  0  0  0  0  0  0  0  0  0  0
   46.0040   34.1650   39.5220 H   0  0  0  0  0  0  0  0  0  0  0  0
  1 24  1  0  0  0  0
  2  1  2  0  0  0  0
  2  6  1  0  0  0  0
  3  2  1  0  0  0  0
  4  5  1  0  0  0  0
  4  3  2  0  0  0  0
  5  1  1  0  0  0  0
  7  3  1  0  0  0  0
  8  4  1  0  0  0  0
  8 19  1  0  0  0  0
  9  8  2  0  0  0  0
 10  9  1  0  0  0  0
 11  9  1  0  0  0  0
 11 12  2  0  0  0  0
 12 18  1  0  0  0  0
 13 12  1  0  0  0  0
 13 14  2  0  0  0  0
 14 16  1  0  0  0  0
 15 14  1  0  0  0  0
 16 17  2  0  0  0  0
 18 19  2  0  0  0  0
 18 17  1  0  0  0  0
 20 26  1  0  0  0  0
 21 27  1  0  0  0  0
 21 20  2  0  0  0  0
 22 21  1  0  0  0  0
 23 22  2  0  0  0  0
 23 24  1  0  0  0  0
 24 25  2  0  0  0  0
 25 20  1  0  0  0  0
 28 22  1  0  0  0  0
M  END
>  <minimizedAffinity>
-5.60125971

$$$$

 OpenBabel03252509173D

 28 31  0  0  0  0  0  0  0  0999 V2000
   38.9360   31.2500   41.0820 C   0  0  0  0  0  0  0  0  0  0  0  0
   39.1970   30.6130   42.3220 C   0  0  0  0  0  0  0  0  0  0  0  0
   38.8060   29.3270   42.4700 C   0  0  0  0  0  0  0  0  0  0  0  0
   38.1570   28.6650   41.3980 C   0  0  0  0  0  0  0  0  0  0  0  0
   38.1040   29.9540   40.1050 S   0  0  0  0  0  0  0  0  0  0  0  0
   39.6940   31.1430   43.1210 H   0  0  0  0  0  0  0  0  0  0  0  0
   38.9260   28.7210   43.3240 H   0  0  0  0  0  0  0  0  0  0  0  0
   37.6340   27.3700   41.2140 C   0  0  0  0  0  0  0  0  0  0  0  0
   37.6560   26.4990   42.2820 C   0  0  0  0  0  0  0  0  0  0  0  0
   38.0510   26.7490   43.2570 H   0  0  0  0  0  0  0  0  0  0  0  0
   37.1260   25.2220   42.0580 C   0  0  0  0  0  3  0  0  0  0  0  0
   36.6110   24.8780   40.8070 C   0  0  0  0  0  0  0  0  0  0  0  0
   36.1120   23.6190   40.6600 N   0  0  0  0  0  0  0  0  0  0  0  0
   35.5970   23.2110   39.4840 C   0  0  0  0  0  0  0  0  0  0  0  0
   35.2170   22.2210   39.4050 H   0  0  0  0  0  0  0  0  0  0  0  0
   35.5900   24.1160   38.4240 C   0  0  0  0  0  3  0  0  0  0  0  0
   36.0880   25.3920   38.5490 C   0  0  0  0  0  3  0  0  0  0  0  0
   36.6100   25.7890   39.7590 C   0  0  0  0  0  0  0  0  0  0  0  0
   37.1350   27.0700   39.9660 C   0  0  0  0  0  3  0  0  0  0  0  0
   38.9540   34.8950   40.3660 C   0  0  0  0  0  0  0  0  0  0  0  0
   40.3450   35.0990   40.1840 C   0  0  0  0  0  0  0  0  0  0  0  0
   41.2000   33.9860   40.3150 C   0  0  0  0  0  0  0  0  0  0  0  0
   40.6340   32.7690   40.6120 N   0  0  0  0  0  0  0  0  0  0  0  0
   39.2980   32.6340   40.7750 C   0  0  0  0  0  0  0  0  0  0  0  0
   38.4570   33.6900   40.6530 N   0  0  0  0  0  0  0  0  0  0  0  0
   38.2970   35.7450   40.2660 H   0  0  0  0  0  0  0  0  0  0  0  0
   40.7790   36.0470   39.9530 H   0  0  0  0  0  0  0  0  0  0  0  0
   42.2720   34.0540   40.1920 H   0  0  0  0  0  0  0  0  0  0  0  0
  1  2  2  0  0  0  0
  2  3  1  0  0  0  0
  2  6  1  0  0  0  0
  3  7  1  0  0  0  0
  4  3  2  0  0  0  0
  5  1  1  0  0  0  0
  5  4  1  0  0  0  0
  8  4  1  0  0  0  0
  8  9  1  0  0  0  0
  9 10  1  0  0  0  0
 11  9  2  0  0  0  0
 12 11  1  0  0  0  0
 13 12  1  0  0  0  0
 14 13  2  0  0  0  0
 15 14  1  0  0  0  0
 16 17  2  0  0  0  0
 16 14  1  0  0  0  0
 17 18  1  0  0  0  0
 18 19  1  0  0  0  0
 18 12  2  0  0  0  0
 19  8  2  0  0  0  0
 20 25  1  0  0  0  0
 21 22  1  0  0  0  0
 21 20  2  0  0  0  0
 22 23  2  0  0  0  0
 23 24  1  0  0  0  0
 24  1  1  0  0  0  0
 25 24  2  0  0  0  0
 26 20  1  0  0  0  0
 27 21  1  0  0  0  0
 28 22  1  0  0  0  0
M  END
>  <minimizedAffinity>
-5.52142572

$$$$

 OpenBabel03252509173D

 28 31  0  0  0  0  0  0  0  0999 V2000
   34.7880   28.6260   38.5550 C   0  0  0  0  0  0  0  0  0  0  0  0
   34.6710   29.2790   39.8090 C   0  0  0  0  0  0  0  0  0  0  0  0
   35.5100   28.9020   40.8020 C   0  0  0  0  0  0  0  0  0  0  0  0
   36.4640   27.8820   40.5610 C   0  0  0  0  0  0  0  0  0  0  0  0
   36.1460   27.4380   38.8190 S   0  0  0  0  0  0  0  0  0  0  0  0
   33.9340   30.0540   39.9620 H   0  0  0  0  0  0  0  0  0  0  0  0
   35.5470   29.2880   41.7810 H   0  0  0  0  0  0  0  0  0  0  0  0
   37.4600   27.2630   41.3430 C   0  0  0  0  0  0  0  0  0  0  0  0
   37.3230   25.9230   41.6340 C   0  0  0  0  0  0  0  0  0  0  0  0
   36.4950   25.3150   41.2980 H   0  0  0  0  0  0  0  0  0  0  0  0
   38.3330   25.3460   42.4130 C   0  0  0  0  0  3  0  0  0  0  0  0
   39.4110   26.1140   42.8570 C   0  0  0  0  0  0  0  0  0  0  0  0
   40.3580   25.4880   43.6110 N   0  0  0  0  0  0  0  0  0  0  0  0
   41.4270   26.1600   44.0770 C   0  0  0  0  0  0  0  0  0  0  0  0
   42.1460   25.6400   44.6620 H   0  0  0  0  0  0  0  0  0  0  0  0
   41.5370   27.5150   43.7650 C   0  0  0  0  0  3  0  0  0  0  0  0
   40.5930   28.1680   43.0060 C   0  0  0  0  0  3  0  0  0  0  0  0
   39.5070   27.4620   42.5390 C   0  0  0  0  0  0  0  0  0  0  0  0
   38.5060   28.0550   41.7610 C   0  0  0  0  0  3  0  0  0  0  0  0
   32.0040   29.4180   36.2270 C   0  0  0  0  0  0  0  0  0  0  0  0
   32.7150   29.4520   35.0020 C   0  0  0  0  0  0  0  0  0  0  0  0
   34.1020   29.2040   35.0340 C   0  0  0  0  0  0  0  0  0  0  0  0
   34.6830   28.9450   36.2540 N   0  0  0  0  0  0  0  0  0  0  0  0
   33.9530   28.9250   37.3910 C   0  0  0  0  0  0  0  0  0  0  0  0
   32.6180   29.1610   37.3840 N   0  0  0  0  0  0  0  0  0  0  0  0
   30.9410   29.6080   36.2050 H   0  0  0  0  0  0  0  0  0  0  0  0
   32.2590   29.6550   34.0570 H   0  0  0  0  0  0  0  0  0  0  0  0
   34.7190   29.2110   34.1460 H   0  0  0  0  0  0  0  0  0  0  0  0
  1  5  1  0  0  0  0
  1  2  2  0  0  0  0
  2  6  1  0  0  0  0
  2  3  1  0  0  0  0
  3  7  1  0  0  0  0
  4  3  2  0  0  0  0
  4  8  1  0  0  0  0
  5  4  1  0  0  0  0
  8  9  2  0  0  0  0
  8 19  1  0  0  0  0
  9 11  1  0  0  0  0
 10  9  1  0  0  0  0
 11 12  2  0  0  0  0
 12 13  1  0  0  0  0
 13 14  2  0  0  0  0
 14 15  1  0  0  0  0
 16 14  1  0  0  0  0
 17 16  2  0  0  0  0
 18 12  1  0  0  0  0
 18 17  1  0  0  0  0
 19 18  2  0  0  0  0
 20 25  1  0  0  0  0
 21 22  1  0  0  0  0
 21 20  2  0  0  0  0
 22 23  2  0  0  0  0
 23 24  1  0  0  0  0
 24  1  1  0  0  0  0
 25 24  2  0  0  0  0
 26 20  1  0  0  0  0
 27 21  1  0  0  0  0
 28 22  1  0  0  0  0
M  END
>  <minimizedAffinity>
-5.34086561

$$$$

 OpenBabel03252509173D

 28 31  0  0  0  0  0  0  0  0999 V2000
   37.1950   27.2330   41.0930 C   0  0  0  0  0  0  0  0  0  0  0  0
   36.3620   28.3020   41.5130 C   0  0  0  0  0  0  0  0  0  0  0  0
   35.5230   28.8480   40.6030 C   0  0  0  0  0  0  0  0  0  0  0  0
   35.5020   28.3430   39.2790 C   0  0  0  0  0  0  0  0  0  0  0  0
   36.7510   27.0130   39.3380 S   0  0  0  0  0  0  0  0  0  0  0  0
   36.4000   28.6650   42.5290 H   0  0  0  0  0  0  0  0  0  0  0  0
   34.8490   29.6420   40.7590 H   0  0  0  0  0  0  0  0  0  0  0  0
   34.7760   28.6650   38.1150 C   0  0  0  0  0  0  0  0  0  0  0  0
   35.4310   28.6180   36.9030 C   0  0  0  0  0  0  0  0  0  0  0  0
   36.4710   28.3470   36.7900 H   0  0  0  0  0  0  0  0  0  0  0  0
   34.6740   28.9450   35.7710 C   0  0  0  0  0  3  0  0  0  0  0  0
   33.3290   29.2980   35.8960 C   0  0  0  0  0  0  0  0  0  0  0  0
   32.6540   29.6040   34.7530 N   0  0  0  0  0  0  0  0  0  0  0  0
   31.3540   29.9540   34.7900 C   0  0  0  0  0  0  0  0  0  0  0  0
   30.8580   30.1860   33.8780 H   0  0  0  0  0  0  0  0  0  0  0  0
   30.7200   29.9920   36.0310 C   0  0  0  0  0  3  0  0  0  0  0  0
   31.3820   29.6870   37.1980 C   0  0  0  0  0  3  0  0  0  0  0  0
   32.7110   29.3320   37.1390 C   0  0  0  0  0  0  0  0  0  0  0  0
   33.4530   29.0070   38.2810 C   0  0  0  0  0  3  0  0  0  0  0  0
   39.3500   24.7510   42.8220 C   0  0  0  0  0  0  0  0  0  0  0  0
   40.0030   25.6010   43.7490 C   0  0  0  0  0  0  0  0  0  0  0  0
   39.6750   26.9720   43.7360 C   0  0  0  0  0  0  0  0  0  0  0  0
   38.7410   27.4020   42.8220 N   0  0  0  0  0  0  0  0  0  0  0  0
   38.1500   26.5440   41.9610 C   0  0  0  0  0  0  0  0  0  0  0  0
   38.4510   25.2220   41.9560 N   0  0  0  0  0  0  0  0  0  0  0  0
   39.6010   23.7010   42.8300 H   0  0  0  0  0  0  0  0  0  0  0  0
   40.7290   25.2610   44.4560 H   0  0  0  0  0  0  0  0  0  0  0  0
   40.1250   27.6880   44.4080 H   0  0  0  0  0  0  0  0  0  0  0  0
  1  2  2  0  0  0  0
  1 24  1  0  0  0  0
  2  6  1  0  0  0  0
  3  7  1  0  0  0  0
  3  2  1  0  0  0  0
  4  5  1  0  0  0  0
  4  3  2  0  0  0  0
  5  1  1  0  0  0  0
  8 19  1  0  0  0  0
  8  4  1  0  0  0  0
  9  8  2  0  0  0  0
 10  9  1  0  0  0  0
 11 12  2  0  0  0  0
 11  9  1  0  0  0  0
 12 18  1  0  0  0  0
 13 14  2  0  0  0  0
 13 12  1  0  0  0  0
 14 16  1  0  0  0  0
 15 14  1  0  0  0  0
 16 17  2  0  0  0  0
 18 17  1  0  0  0  0
 18 19  2  0  0  0  0
 20 26  1  0  0  0  0
 20 21  1  0  0  0  0
 21 27  1  0  0  0  0
 22 21  2  0  0  0  0
 22 28  1  0  0  0  0
 23 22  1  0  0  0  0
 24 23  2  0  0  0  0
 25 24  1  0  0  0  0
 25 20  2  0  0  0  0
M  END
>  <minimizedAffinity>
-5.3356576

$$$$

 OpenBabel03252509173D

 28 31  0  0  0  0  0  0  0  0999 V2000
   38.6050   31.4600   40.6720 C   0  0  0  0  0  0  0  0  0  0  0  0
   37.2300   31.2200   40.9290 C   0  0  0  0  0  0  0  0  0  0  0  0
   36.8240   29.9380   41.0730 C   0  0  0  0  0  0  0  0  0  0  0  0
   37.7710   28.8880   40.9630 C   0  0  0  0  0  0  0  0  0  0  0  0
   39.3270   29.7850   40.6380 S   0  0  0  0  0  0  0  0  0  0  0  0
   36.5320   32.0410   41.0080 H   0  0  0  0  0  0  0  0  0  0  0  0
   35.8450   29.6000   41.2640 H   0  0  0  0  0  0  0  0  0  0  0  0
   37.6970   27.4850   41.0550 C   0  0  0  0  0  0  0  0  0  0  0  0
   37.0580   26.9340   42.1450 C   0  0  0  0  0  0  0  0  0  0  0  0
   36.6080   27.5150   42.9370 H   0  0  0  0  0  0  0  0  0  0  0  0
   37.0070   25.5350   42.1980 C   0  0  0  0  0  3  0  0  0  0  0  0
   37.5820   24.7660   41.1850 C   0  0  0  0  0  0  0  0  0  0  0  0
   37.4950   23.4110   41.3010 N   0  0  0  0  0  0  0  0  0  0  0  0
   38.0250   22.6010   40.3660 C   0  0  0  0  0  0  0  0  0  0  0  0
   37.9380   21.5480   40.4890 H   0  0  0  0  0  0  0  0  0  0  0  0
   38.6640   23.1890   39.2750 C   0  0  0  0  0  3  0  0  0  0  0  0
   38.7640   24.5540   39.1370 C   0  0  0  0  0  3  0  0  0  0  0  0
   38.2160   25.3650   40.1050 C   0  0  0  0  0  0  0  0  0  0  0  0
   38.2760   26.7620   40.0350 C   0  0  0  0  0  3  0  0  0  0  0  0
   39.2130   35.0970   40.2320 C   0  0  0  0  0  0  0  0  0  0  0  0
   40.6290   35.0990   40.1600 C   0  0  0  0  0  0  0  0  0  0  0  0
   41.2990   33.8630   40.2640 C   0  0  0  0  0  0  0  0  0  0  0  0
   40.5380   32.7290   40.4320 N   0  0  0  0  0  0  0  0  0  0  0  0
   39.1890   32.7880   40.4940 C   0  0  0  0  0  0  0  0  0  0  0  0
   38.5240   33.9660   40.3950 N   0  0  0  0  0  0  0  0  0  0  0  0
   38.6980   36.0420   40.1520 H   0  0  0  0  0  0  0  0  0  0  0  0
   41.2150   35.9830   40.0300 H   0  0  0  0  0  0  0  0  0  0  0  0
   42.3750   33.7750   40.2200 H   0  0  0  0  0  0  0  0  0  0  0  0
  1  2  2  0  0  0  0
  2  6  1  0  0  0  0
  2  3  1  0  0  0  0
  3  7  1  0  0  0  0
  4  8  1  0  0  0  0
  4  3  2  0  0  0  0
  5  1  1  0  0  0  0
  5  4  1  0  0  0  0
  8  9  1  0  0  0  0
  9 11  2  0  0  0  0
  9 10  1  0  0  0  0
 12 13  1  0  0  0  0
 12 11  1  0  0  0  0
 14 15  1  0  0  0  0
 14 13  2  0  0  0  0
 16 14  1  0  0  0  0
 17 16  2  0  0  0  0
 17 18  1  0  0  0  0
 18 12  2  0  0  0  0
 19 18  1  0  0  0  0
 19  8  2  0  0  0  0
 20 25  1  0  0  0  0
 21 20  2  0  0  0  0
 21 22  1  0  0  0  0
 22 23  2  0  0  0  0
 23 24  1  0  0  0  0
 24  1  1  0  0  0  0
 25 24  2  0  0  0  0
 26 20  1  0  0  0  0
 27 21  1  0  0  0  0
 28 22  1  0  0  0  0
M  END
>  <minimizedAffinity>
-5.32944202

$$$$

 OpenBabel03252509173D

 28 31  0  0  0  0  0  0  0  0999 V2000
   37.5070   28.0460   40.8720 C   0  0  0  0  0  0  0  0  0  0  0  0
   36.6850   29.1100   41.3250 C   0  0  0  0  0  0  0  0  0  0  0  0
   37.1240   30.3760   41.1380 C   0  0  0  0  0  0  0  0  0  0  0  0
   38.3730   30.5970   40.5050 C   0  0  0  0  0  0  0  0  0  0  0  0
   38.9510   28.9010   40.1570 S   0  0  0  0  0  0  0  0  0  0  0  0
   35.7370   28.9110   41.8030 H   0  0  0  0  0  0  0  0  0  0  0  0
   36.6330   31.2660   41.4170 H   0  0  0  0  0  0  0  0  0  0  0  0
   39.1110   31.7470   40.1610 C   0  0  0  0  0  0  0  0  0  0  0  0
   38.8980   32.9000   40.8850 C   0  0  0  0  0  0  0  0  0  0  0  0
   38.1970   32.9780   41.7050 H   0  0  0  0  0  0  0  0  0  0  0  0
   39.6520   34.0200   40.5120 C   0  0  0  0  0  3  0  0  0  0  0  0
   40.5630   33.9420   39.4580 C   0  0  0  0  0  0  0  0  0  0  0  0
   41.2620   35.0700   39.1480 N   0  0  0  0  0  0  0  0  0  0  0  0
   42.1590   35.0750   38.1450 C   0  0  0  0  0  0  0  0  0  0  0  0
   42.6860   35.9730   37.9310 H   0  0  0  0  0  0  0  0  0  0  0  0
   42.3510   33.8930   37.4320 C   0  0  0  0  0  3  0  0  0  0  0  0
   41.6570   32.7410   37.7250 C   0  0  0  0  0  3  0  0  0  0  0  0
   40.7440   32.7570   38.7560 C   0  0  0  0  0  0  0  0  0  0  0  0
   39.9990   31.6280   39.1160 C   0  0  0  0  0  3  0  0  0  0  0  0
   36.9050   24.5840   42.0730 C   0  0  0  0  0  0  0  0  0  0  0  0
   36.4380   23.9900   40.8740 C   0  0  0  0  0  0  0  0  0  0  0  0
   36.3530   24.7980   39.7230 C   0  0  0  0  0  0  0  0  0  0  0  0
   36.7280   26.1170   39.8320 N   0  0  0  0  0  0  0  0  0  0  0  0
   37.1670   26.6300   41.0040 C   0  0  0  0  0  0  0  0  0  0  0  0
   37.2570   25.8700   42.1230 N   0  0  0  0  0  0  0  0  0  0  0  0
   36.9710   23.9660   42.9560 H   0  0  0  0  0  0  0  0  0  0  0  0
   36.1480   22.9640   40.7940 H   0  0  0  0  0  0  0  0  0  0  0  0
   36.0080   24.4250   38.7690 H   0  0  0  0  0  0  0  0  0  0  0  0
  1 24  1  0  0  0  0
  1  2  2  0  0  0  0
  2  6  1  0  0  0  0
  3  2  1  0  0  0  0
  3  7  1  0  0  0  0
  4  3  2  0  0  0  0
  5  4  1  0  0  0  0
  5  1  1  0  0  0  0
  8  4  1  0  0  0  0
  8  9  1  0  0  0  0
  9 10  1  0  0  0  0
 11  9  2  0  0  0  0
 12 11  1  0  0  0  0
 13 12  1  0  0  0  0
 14 13  2  0  0  0  0
 15 14  1  0  0  0  0
 16 17  2  0  0  0  0
 16 14  1  0  0  0  0
 17 18  1  0  0  0  0
 18 19  1  0  0  0  0
 18 12  2  0  0  0  0
 19  8  2  0  0  0  0
 20 25  1  0  0  0  0
 20 26  1  0  0  0  0
 21 20  2  0  0  0  0
 22 23  2  0  0  0  0
 22 21  1  0  0  0  0
 23 24  1  0  0  0  0
 24 25  2  0  0  0  0
 27 21  1  0  0  0  0
 28 22  1  0  0  0  0
M  END
>  <minimizedAffinity>
-5.3223877

$$$$

 OpenBabel03252509173D

 28 31  0  0  0  0  0  0  0  0999 V2000
   37.7510   31.4610   40.0580 C   0  0  0  0  0  0  0  0  0  0  0  0
   36.5220   31.1490   40.6950 C   0  0  0  0  0  0  0  0  0  0  0  0
   36.0450   29.8900   40.5740 C   0  0  0  0  0  0  0  0  0  0  0  0
   36.7750   28.9340   39.8230 C   0  0  0  0  0  0  0  0  0  0  0  0
   38.2260   29.8900   39.2620 S   0  0  0  0  0  0  0  0  0  0  0  0
   35.9880   31.8980   41.2610 H   0  0  0  0  0  0  0  0  0  0  0  0
   35.1530   29.5070   40.9840 H   0  0  0  0  0  0  0  0  0  0  0  0
   36.5780   27.5770   39.5010 C   0  0  0  0  0  0  0  0  0  0  0  0
   35.8460   27.2730   38.3730 C   0  0  0  0  0  0  0  0  0  0  0  0
   35.4140   28.0160   37.7170 H   0  0  0  0  0  0  0  0  0  0  0  0
   35.6730   25.9130   38.0890 C   0  0  0  0  0  3  0  0  0  0  0  0
   36.2230   24.9390   38.9230 C   0  0  0  0  0  0  0  0  0  0  0  0
   36.0150   23.6350   38.5860 N   0  0  0  0  0  0  0  0  0  0  0  0
   36.5130   22.6370   39.3400 C   0  0  0  0  0  0  0  0  0  0  0  0
   36.3310   21.6320   39.0470 H   0  0  0  0  0  0  0  0  0  0  0  0
   37.2480   22.9770   40.4740 C   0  0  0  0  0  3  0  0  0  0  0  0
   37.4710   24.2870   40.8350 C   0  0  0  0  0  3  0  0  0  0  0  0
   36.9530   25.2920   40.0500 C   0  0  0  0  0  0  0  0  0  0  0  0
   37.1370   26.6470   40.3490 C   0  0  0  0  0  3  0  0  0  0  0  0
   38.5150   35.0950   40.0480 C   0  0  0  0  0  0  0  0  0  0  0  0
   39.9210   35.0480   40.2250 C   0  0  0  0  0  0  0  0  0  0  0  0
   40.5320   33.7820   40.3380 C   0  0  0  0  0  0  0  0  0  0  0  0
   39.7260   32.6690   40.2710 N   0  0  0  0  0  0  0  0  0  0  0  0
   38.3900   32.7760   40.1010 C   0  0  0  0  0  0  0  0  0  0  0  0
   37.7810   33.9830   39.9890 N   0  0  0  0  0  0  0  0  0  0  0  0
   38.0460   36.0640   39.9610 H   0  0  0  0  0  0  0  0  0  0  0  0
   40.5420   35.9160   40.2770 H   0  0  0  0  0  0  0  0  0  0  0  0
   41.5970   33.6560   40.4750 H   0  0  0  0  0  0  0  0  0  0  0  0
  1 24  1  0  0  0  0
  1  2  2  0  0  0  0
  2  6  1  0  0  0  0
  3  2  1  0  0  0  0
  3  7  1  0  0  0  0
  4  3  2  0  0  0  0
  5  4  1  0  0  0  0
  5  1  1  0  0  0  0
  8  4  1  0  0  0  0
  8 19  1  0  0  0  0
  9  8  2  0  0  0  0
 10  9  1  0  0  0  0
 11  9  1  0  0  0  0
 11 12  2  0  0  0  0
 12 18  1  0  0  0  0
 13 12  1  0  0  0  0
 13 14  2  0  0  0  0
 14 16  1  0  0  0  0
 15 14  1  0  0  0  0
 16 17  2  0  0  0  0
 18 19  2  0  0  0  0
 18 17  1  0  0  0  0
 20 21  1  0  0  0  0
 21 27  1  0  0  0  0
 21 22  2  0  0  0  0
 22 28  1  0  0  0  0
 23 22  1  0  0  0  0
 24 23  2  0  0  0  0
 25 20  2  0  0  0  0
 25 24  1  0  0  0  0
 26 20  1  0  0  0  0
M  END
>  <minimizedAffinity>
-5.29236126

$$$$

 OpenBabel03252509173D

 28 31  0  0  0  0  0  0  0  0999 V2000
   38.1090   31.5110   39.8270 C   0  0  0  0  0  0  0  0  0  0  0  0
   36.7710   31.3110   39.4020 C   0  0  0  0  0  0  0  0  0  0  0  0
   36.2830   30.0490   39.4120 C   0  0  0  0  0  0  0  0  0  0  0  0
   37.1120   28.9820   39.8390 C   0  0  0  0  0  0  0  0  0  0  0  0
   38.6760   29.8300   40.2510 S   0  0  0  0  0  0  0  0  0  0  0  0
   36.1620   32.1440   39.0830 H   0  0  0  0  0  0  0  0  0  0  0  0
   35.3170   29.7400   39.1260 H   0  0  0  0  0  0  0  0  0  0  0  0
   36.9340   27.5910   39.9710 C   0  0  0  0  0  0  0  0  0  0  0  0
   37.3270   26.9910   41.1470 C   0  0  0  0  0  0  0  0  0  0  0  0
   37.7650   27.5240   41.9800 H   0  0  0  0  0  0  0  0  0  0  0  0
   37.1330   25.6060   41.2380 C   0  0  0  0  0  3  0  0  0  0  0  0
   36.5690   24.8990   40.1750 C   0  0  0  0  0  0  0  0  0  0  0  0
   36.4100   23.5550   40.3320 N   0  0  0  0  0  0  0  0  0  0  0  0
   35.8740   22.8030   39.3530 C   0  0  0  0  0  0  0  0  0  0  0  0
   35.7640   21.7570   39.5090 H   0  0  0  0  0  0  0  0  0  0  0  0
   35.4860   23.4390   38.1750 C   0  0  0  0  0  3  0  0  0  0  0  0
   35.6380   24.7950   37.9940 C   0  0  0  0  0  3  0  0  0  0  0  0
   36.1880   25.5460   39.0080 C   0  0  0  0  0  0  0  0  0  0  0  0
   36.3740   26.9300   38.9000 C   0  0  0  0  0  3  0  0  0  0  0  0
   38.9760   35.0990   40.2420 C   0  0  0  0  0  0  0  0  0  0  0  0
   40.3280   35.0710   39.8200 C   0  0  0  0  0  0  0  0  0  0  0  0
   40.8720   33.8350   39.4170 C   0  0  0  0  0  0  0  0  0  0  0  0
   40.0570   32.7280   39.4600 N   0  0  0  0  0  0  0  0  0  0  0  0
   38.7720   32.8140   39.8720 C   0  0  0  0  0  0  0  0  0  0  0  0
   38.2290   33.9930   40.2630 N   0  0  0  0  0  0  0  0  0  0  0  0
   38.5570   36.0450   40.5500 H   0  0  0  0  0  0  0  0  0  0  0  0
   40.9580   35.9350   39.7890 H   0  0  0  0  0  0  0  0  0  0  0  0
   41.8940   33.7250   39.0820 H   0  0  0  0  0  0  0  0  0  0  0  0
  1 24  1  0  0  0  0
  1  5  1  0  0  0  0
  2  3  1  0  0  0  0
  2  1  2  0  0  0  0
  3  4  2  0  0  0  0
  4  8  1  0  0  0  0
  4  5  1  0  0  0  0
  6  2  1  0  0  0  0
  7  3  1  0  0  0  0
  8  9  1  0  0  0  0
  9 11  2  0  0  0  0
  9 10  1  0  0  0  0
 12 13  1  0  0  0  0
 12 11  1  0  0  0  0
 14 15  1  0  0  0  0
 14 13  2  0  0  0  0
 16 14  1  0  0  0  0
 17 16  2  0  0  0  0
 17 18  1  0  0  0  0
 18 12  2  0  0  0  0
 19 18  1  0  0  0  0
 19  8  2  0  0  0  0
 20 25  1  0  0  0  0
 20 26  1  0  0  0  0
 21 20  2  0  0  0  0
 22 23  2  0  0  0  0
 22 21  1  0  0  0  0
 23 24  1  0  0  0  0
 24 25  2  0  0  0  0
 27 21  1  0  0  0  0
 28 22  1  0  0  0  0
M  END
>  <minimizedAffinity>
-5.23990059

$$$$

 OpenBabel03252509173D

 28 31  0  0  0  0  0  0  0  0999 V2000
   37.5210   31.8230   39.4780 C   0  0  0  0  0  0  0  0  0  0  0  0
   36.6900   31.3060   40.5050 C   0  0  0  0  0  0  0  0  0  0  0  0
   35.8960   30.2510   40.2090 C   0  0  0  0  0  0  0  0  0  0  0  0
   35.9190   29.7030   38.9020 C   0  0  0  0  0  0  0  0  0  0  0  0
   37.1440   30.7550   38.0490 S   0  0  0  0  0  0  0  0  0  0  0  0
   36.6940   31.7440   41.4920 H   0  0  0  0  0  0  0  0  0  0  0  0
   35.2280   29.7580   40.8580 H   0  0  0  0  0  0  0  0  0  0  0  0
   35.2450   28.6400   38.2690 C   0  0  0  0  0  0  0  0  0  0  0  0
   34.1210   28.9290   37.5260 C   0  0  0  0  0  0  0  0  0  0  0  0
   33.7220   29.9260   37.3980 H   0  0  0  0  0  0  0  0  0  0  0  0
   33.4810   27.8450   36.9140 C   0  0  0  0  0  3  0  0  0  0  0  0
   33.9780   26.5500   37.0670 C   0  0  0  0  0  0  0  0  0  0  0  0
   33.3050   25.5420   36.4440 N   0  0  0  0  0  0  0  0  0  0  0  0
   33.7230   24.2660   36.5430 C   0  0  0  0  0  0  0  0  0  0  0  0
   33.1730   23.5050   36.0430 H   0  0  0  0  0  0  0  0  0  0  0  0
   34.8630   24.0070   37.3010 C   0  0  0  0  0  3  0  0  0  0  0  0
   35.5590   25.0080   37.9400 C   0  0  0  0  0  3  0  0  0  0  0  0
   35.1160   26.3060   37.8250 C   0  0  0  0  0  0  0  0  0  0  0  0
   35.7680   27.3790   38.4440 C   0  0  0  0  0  3  0  0  0  0  0  0
   39.0870   35.0950   40.2760 C   0  0  0  0  0  0  0  0  0  0  0  0
   40.4000   34.8580   39.7970 C   0  0  0  0  0  0  0  0  0  0  0  0
   40.6810   33.5990   39.2290 C   0  0  0  0  0  0  0  0  0  0  0  0
   39.6640   32.6740   39.1750 N   0  0  0  0  0  0  0  0  0  0  0  0
   38.4290   32.9570   39.6480 C   0  0  0  0  0  0  0  0  0  0  0  0
   38.1370   34.1620   40.1980 N   0  0  0  0  0  0  0  0  0  0  0  0
   38.8700   36.0590   40.7110 H   0  0  0  0  0  0  0  0  0  0  0  0
   41.1870   35.5800   39.8430 H   0  0  0  0  0  0  0  0  0  0  0  0
   41.6550   33.3350   38.8410 H   0  0  0  0  0  0  0  0  0  0  0  0
  1 24  1  0  0  0  0
  1  2  2  0  0  0  0
  2  6  1  0  0  0  0
  3  2  1  0  0  0  0
  3  7  1  0  0  0  0
  4  3  2  0  0  0  0
  5  4  1  0  0  0  0
  5  1  1  0  0  0  0
  8 19  1  0  0  0  0
  8  4  1  0  0  0  0
  9  8  2  0  0  0  0
 10  9  1  0  0  0  0
 11 12  2  0  0  0  0
 11  9  1  0  0  0  0
 12 18  1  0  0  0  0
 13 14  2  0  0  0  0
 13 12  1  0  0  0  0
 14 16  1  0  0  0  0
 15 14  1  0  0  0  0
 16 17  2  0  0  0  0
 18 17  1  0  0  0  0
 18 19  2  0  0  0  0
 20 26  1  0  0  0  0
 21 27  1  0  0  0  0
 21 20  2  0  0  0  0
 22 21  1  0  0  0  0
 23 22  2  0  0  0  0
 23 24  1  0  0  0  0
 24 25  2  0  0  0  0
 25 20  1  0  0  0  0
 28 22  1  0  0  0  0
M  END
>  <minimizedAffinity>
-5.14181566

$$$$
