
 OpenBabel03252509243D

 30 33  0  0  1  0  0  0  0  0999 V2000
   46.2000   34.7420   41.9140 C   0  0  1  0  0  0  0  0  0  0  0  0
   47.7210   35.0170   41.7620 C   0  0  0  0  0  0  0  0  0  0  0  0
   46.9870   33.6980   41.3660 C   0  0  2  0  0  0  0  0  0  0  0  0
   45.5790   35.4560   41.3340 H   0  0  0  0  0  0  0  0  0  0  0  0
   48.0540   35.5960   40.8930 H   0  0  0  0  0  0  0  0  0  0  0  0
   48.3630   34.9900   42.6350 H   0  0  0  0  0  0  0  0  0  0  0  0
   47.2650   32.8440   42.0310 H   0  0  0  0  0  0  0  0  0  0  0  0
   46.9570   33.3670   39.9040 C   0  0  0  0  0  0  0  0  0  0  0  0
   45.6840   33.2420   39.3500 C   0  0  0  0  0  0  0  0  0  0  0  0
   44.7850   33.3760   39.9350 H   0  0  0  0  0  0  0  0  0  0  0  0
   45.5620   32.9390   38.0030 C   0  0  0  0  0  3  0  0  0  0  0  0
   46.6940   32.7650   37.2330 C   0  0  0  0  0  0  0  0  0  0  0  0
   46.6210   32.4650   35.9080 N   0  0  0  0  0  0  0  0  0  0  0  0
   47.7390   32.2990   35.1770 C   0  0  0  0  0  0  0  0  0  0  0  0
   47.6520   32.0610   34.1210 H   0  0  0  0  0  0  0  0  0  0  0  0
   49.0110   32.4170   35.6970 C   0  0  0  0  0  3  0  0  0  0  0  0
   49.0490   32.7230   37.0530 C   0  0  0  0  0  3  0  0  0  0  0  0
   47.9260   32.9030   37.8500 C   0  0  0  0  0  0  0  0  0  0  0  0
   48.1150   33.2040   39.1840 C   0  0  0  0  0  3  0  0  0  0  0  0
   44.6480   35.5210   45.2420 C   0  0  0  0  0  0  0  0  0  0  0  0
   45.0180   35.6820   43.8660 C   0  0  0  0  0  0  0  0  0  0  0  0
   45.8230   34.6860   43.3770 C   0  0  0  0  0  0  0  0  0  0  0  0
   46.2420   33.6170   44.1610 N   0  0  0  0  0  0  0  0  0  0  0  0
   45.8600   33.5290   45.4380 C   0  0  0  0  0  0  0  0  0  0  0  0
   45.0610   34.4830   45.9830 N   0  0  0  0  0  0  0  0  0  0  0  0
   44.0120   36.2820   45.6720 H   0  0  0  0  0  0  0  0  0  0  0  0
   46.2660   32.6460   45.9110 H   0  0  0  0  0  0  0  0  0  0  0  0
   44.6050   36.7970   43.0800 N   0  0  0  0  0  0  0  0  0  0  0  0
   44.0980   36.7230   42.1580 H   0  0  0  0  0  0  0  0  0  0  0  0
   44.8980   37.6710   43.5900 H   0  0  0  0  0  0  0  0  0  0  0  0
  1  4  1  6  0  0  0
  1 22  1  0  0  0  0
  2  1  1  0  0  0  0
  2  6  1  0  0  0  0
  3  2  1  0  0  0  0
  3  1  1  0  0  0  0
  3  7  1  1  0  0  0
  5  2  1  0  0  0  0
  8  3  1  0  0  0  0
  9  8  1  0  0  0  0
  9 10  1  0  0  0  0
 11  9  2  0  0  0  0
 12 18  1  0  0  0  0
 12 11  1  0  0  0  0
 13 12  2  0  0  0  0
 14 16  2  0  0  0  0
 14 13  1  0  0  0  0
 15 14  1  0  0  0  0
 16 17  1  0  0  0  0
 17 18  2  0  0  0  0
 18 19  1  0  0  0  0
 19  8  2  0  0  0  0
 20 26  1  0  0  0  0
 20 25  1  0  0  0  0
 21 20  2  0  0  0  0
 22 21  1  0  0  0  0
 22 23  2  0  0  0  0
 23 24  1  0  0  0  0
 24 27  1  0  0  0  0
 24 25  2  0  0  0  0
 28 30  1  0  0  0  0
 28 21  1  0  0  0  0
 29 28  1  0  0  0  0
M  END
>  <minimizedAffinity>
-5.45745754

>  <minimizedRMSD>
0.763248324

$$$$
