
     RDKit          3D

 45 48  0  0  0  0  0  0  0  0999 V2000
   46.5159   34.3744   43.0043 C   0  0  0  0  0  0  0  0  0  0  0  0
   45.2801   34.7414   43.4746 C   0  0  0  0  0  0  0  0  0  0  0  0
   44.9523   34.4067   44.8013 C   0  0  0  0  0  0  0  0  0  0  0  0
   45.8812   33.7447   45.5220 N   0  0  0  0  0  0  0  0  0  0  0  0
   47.0770   33.3996   45.0387 C   0  0  0  0  0  0  0  0  0  0  0  0
   47.3884   33.7159   43.7830 N   0  0  0  0  0  0  0  0  0  0  0  0
   46.9232   34.6931   41.6261 C   0  0  0  0  0  0  0  0  0  0  0  0
   48.2809   35.3309   41.6541 C   0  0  0  0  0  0  0  0  0  0  0  0
   44.4509   35.4196   42.5889 O   0  0  0  0  0  0  0  0  0  0  0  0
   43.6940   34.8464   40.1338 O   0  0  0  0  0  0  0  0  0  0  0  0
   43.2635   34.7303   41.5851 P   0  0  1  0  0  0  0  0  0  0  0  0
   43.1547   33.0894   41.9751 O   0  0  0  0  0  0  0  0  0  0  0  0
   41.7391   35.4122   41.8166 O   0  0  0  0  0  0  0  0  0  0  0  0
   40.6362   34.7604   41.2973 C   0  0  0  0  0  0  0  0  0  0  0  0
   39.9896   35.3311   40.2152 C   0  0  0  0  0  0  0  0  0  0  0  0
   38.8774   34.7524   39.6273 C   0  0  0  0  0  0  0  0  0  0  0  0
   38.4217   33.5858   40.1449 N   0  0  0  0  0  0  0  0  0  0  0  0
   39.0446   33.0292   41.1929 C   0  0  0  0  0  0  0  0  0  0  0  0
   40.1104   33.6097   41.7350 N   0  0  0  0  0  0  0  0  0  0  0  0
   43.9811   34.7123   45.1234 H   0  0  0  0  0  0  0  0  0  0  0  0
   47.7989   32.8653   45.6538 H   0  0  0  0  0  0  0  0  0  0  0  0
   46.2293   35.3611   41.1021 H   0  0  0  0  0  0  0  0  0  0  0  0
   46.9848   33.7333   41.0670 H   0  0  0  0  0  0  0  0  0  0  0  0
   48.2980   36.2612   41.0582 H   0  0  0  0  0  0  0  0  0  0  0  0
   49.0785   34.6704   41.2147 H   0  0  0  0  0  0  0  0  0  0  0  0
   48.5640   35.6069   42.7023 H   0  0  0  0  0  0  0  0  0  0  0  0
   42.6989   33.0420   42.8631 H   0  0  0  0  0  0  0  0  0  0  0  0
   40.3224   36.2608   39.7737 H   0  0  0  0  0  0  0  0  0  0  0  0
   38.3806   35.2050   38.7844 H   0  0  0  0  0  0  0  0  0  0  0  0
   38.5315   31.7731   41.7289 C   0  0  0  0  0  0  0  0  0  0  0  0
   37.3793   31.7387   42.4926 C   0  0  0  0  0  0  0  0  0  0  0  0
   36.8265   32.6390   42.7142 H   0  0  0  0  0  0  0  0  0  0  0  0
   36.8535   30.5567   43.0253 C   0  0  0  0  0  0  0  0  0  0  0  0
   37.5391   29.3897   42.7584 C   0  0  0  0  0  0  0  0  0  0  0  0
   37.1203   28.1772   43.2256 N   0  0  0  0  0  0  0  0  0  0  0  0
   37.8466   27.0610   42.9239 C   0  0  0  0  0  0  0  0  0  0  0  0
   37.4152   26.1475   43.3521 H   0  0  0  0  0  0  0  0  0  0  0  0
   38.9998   27.0526   42.1665 C   0  0  0  0  0  0  0  0  0  0  0  0
   39.4530   28.2818   41.6741 C   0  0  0  0  0  0  0  0  0  0  0  0
   38.6919   29.3850   42.0007 C   0  0  0  0  0  0  0  0  0  0  0  0
   39.1879   30.5819   41.4852 C   0  0  0  0  0  0  0  0  0  0  0  0
   35.9533   30.5353   43.6210 H   0  0  0  0  0  0  0  0  0  0  0  0
   39.5068   26.1249   41.9794 H   0  0  0  0  0  0  0  0  0  0  0  0
   40.3369   28.3267   41.0853 H   0  0  0  0  0  0  0  0  0  0  0  0
   40.1025   30.6397   40.8742 H   0  0  0  0  0  0  0  0  0  0  0  0
  1  2  2  0
  1  6  1  0
  2  3  1  0
  3  4  2  0
  5  4  1  0
  6  5  2  0
  7  8  1  0
  7  1  1  0
  9  2  1  0
 11 10  2  0
 11 13  1  6
 11 12  1  0
 11  9  1  0
 14 19  1  0
 14 13  1  0
 15 14  2  0
 16 17  2  0
 16 15  1  0
 17 18  1  0
 18 19  2  0
  3 20  1  0
  5 21  1  0
  7 22  1  0
  7 23  1  0
  8 24  1  0
  8 25  1  0
  8 26  1  0
 12 27  1  0
 15 28  1  0
 16 29  1  0
 30 31  2  0
 31 32  1  0
 31 33  1  0
 33 34  2  0
 34 35  1  0
 35 36  2  0
 36 37  1  0
 36 38  1  0
 38 39  2  0
 39 40  1  0
 40 41  2  0
 41 30  1  0
 40 34  1  0
 33 42  1  0
 38 43  1  0
 39 44  1  0
 41 45  1  0
 18 30  1  0
M  ISO  8  20  14  21  14  22   8  23   8  24   8  25   8  26   8  27   3
M  ISO  4  28  14  29  14  32  16  37  16
M  END
>  <DihAtoms>  (1) 
16,17,29,30

>  <DihDeg>  (1) 
-179.99938683754496

$$$$
