
 OpenBabel03252501513D

 48 52  0  0  1  0  0  0  0  0999 V2000
   47.8740   34.3810   42.8420 C   0  0  0  0  0  0  0  0  0  0  0  0
   47.9650   33.7150   43.7420 H   0  0  0  0  0  0  0  0  0  0  0  0
   47.8750   35.4160   43.2410 H   0  0  0  0  0  0  0  0  0  0  0  0
   48.9690   34.0720   41.9760 N   0  0  0  0  0  0  0  0  0  0  0  0
   50.2070   34.0310   42.6690 C   0  0  0  0  0  0  0  0  0  0  0  0
   51.0520   32.9410   42.0510 C   0  0  0  0  0  0  0  0  0  0  0  0
   50.0410   32.0420   41.4210 C   0  0  0  0  0  0  0  0  0  0  0  0
   48.7730   32.8650   41.2420 C   0  0  2  0  0  0  0  0  0  0  0  0
   50.7470   34.9910   42.4180 H   0  0  0  0  0  0  0  0  0  0  0  0
   50.1600   34.0080   43.7610 H   0  0  0  0  0  0  0  0  0  0  0  0
   51.5040   32.3880   42.9240 H   0  0  0  0  0  0  0  0  0  0  0  0
   51.8480   33.2940   41.3950 H   0  0  0  0  0  0  0  0  0  0  0  0
   50.4320   31.6660   40.4550 H   0  0  0  0  0  0  0  0  0  0  0  0
   49.8300   31.1270   42.0360 H   0  0  0  0  0  0  0  0  0  0  0  0
   47.9170   32.2500   41.5910 H   0  0  0  0  0  0  0  0  0  0  0  0
   48.6400   33.1200   39.7640 C   0  0  0  0  0  0  0  0  0  0  0  0
   48.1850   34.2620   39.1370 C   0  0  0  0  0  0  0  0  0  0  0  0
   47.8990   35.0460   39.8220 H   0  0  0  0  0  0  0  0  0  0  0  0
   48.1420   34.2920   37.7720 C   0  0  0  0  0  0  0  0  0  0  0  0
   48.5460   33.1980   37.0240 C   0  0  0  0  0  0  0  0  0  0  0  0
   48.4970   33.2450   35.6730 N   0  0  0  0  0  0  0  0  0  0  0  0
   48.8850   32.1910   34.9330 C   0  0  0  0  0  0  0  0  0  0  0  0
   48.8650   32.1780   33.8330 H   0  0  0  0  0  0  0  0  0  0  0  0
   49.3510   31.0130   35.4680 C   0  0  0  0  0  0  0  0  0  0  0  0
   49.4080   30.9510   36.8580 C   0  0  0  0  0  0  0  0  0  0  0  0
   49.0120   32.0270   37.6300 C   0  0  0  0  0  0  0  0  0  0  0  0
   49.0440   32.0270   39.0200 C   0  0  0  0  0  0  0  0  0  0  0  0
   45.7320   35.0490   41.8200 C   0  0  0  0  0  0  0  0  0  0  0  0
   46.5360   34.0740   42.2400 C   0  0  0  0  0  0  0  0  0  0  0  0
   44.1490   33.6590   40.4020 C   0  0  0  0  0  0  0  0  0  0  0  0
   44.4180   34.7960   41.2260 C   0  0  0  0  0  0  0  0  0  0  0  0
   43.3830   35.7120   41.4790 C   0  0  0  0  0  0  0  0  0  0  0  0
   42.1620   35.4740   40.9260 N   0  0  0  0  0  0  0  0  0  0  0  0
   41.9450   34.3950   40.1570 C   0  0  0  0  0  0  0  0  0  0  0  0
   42.9320   33.5190   39.9120 N   0  0  0  0  0  0  0  0  0  0  0  0
   44.9620   32.9780   40.2270 H   0  0  0  0  0  0  0  0  0  0  0  0
   43.5870   36.5710   42.1020 H   0  0  0  0  0  0  0  0  0  0  0  0
   39.8030   33.5790   41.7100 F   0  0  0  0  0  0  0  0  0  0  0  0
   39.5700   33.7790   40.3850 C   0  0  0  0  0  0  0  0  0  0  0  0
   40.6230   34.1860   39.5890 C   0  0  0  0  0  0  0  0  0  0  0  0
   40.4630   34.4100   38.2310 C   0  0  0  0  0  0  0  0  0  0  0  0
   39.2030   34.2130   37.6790 C   0  0  0  0  0  0  0  0  0  0  0  0
   38.1230   33.8010   38.4630 C   0  0  0  0  0  0  0  0  0  0  0  0
   38.3100   33.5810   39.8370 C   0  0  0  0  0  0  0  0  0  0  0  0
   41.2780   34.7300   37.5870 H   0  0  0  0  0  0  0  0  0  0  0  0
   38.9800   34.3610   36.6330 H   0  0  0  0  0  0  0  0  0  0  0  0
   37.1280   33.6370   38.0730 H   0  0  0  0  0  0  0  0  0  0  0  0
   37.4910   33.2600   40.4780 H   0  0  0  0  0  0  0  0  0  0  0  0
  1  3  1  0  0  0  0
  1  2  1  0  0  0  0
  4  5  1  0  0  0  0
  4  1  1  0  0  0  0
  5 10  1  0  0  0  0
  6  5  1  0  0  0  0
  6 11  1  0  0  0  0
  7 14  1  0  0  0  0
  7  6  1  0  0  0  0
  8  7  1  0  0  0  0
  8 15  1  1  0  0  0
  8  4  1  0  0  0  0
  9  5  1  0  0  0  0
 12  6  1  0  0  0  0
 13  7  1  0  0  0  0
 16  8  1  0  0  0  0
 17 16  1  0  0  0  0
 17 18  1  0  0  0  0
 19 17  2  0  0  0  0
 20 26  1  0  0  0  0
 20 19  1  0  0  0  0
 21 20  2  0  0  0  0
 22 24  2  0  0  0  0
 22 21  1  0  0  0  0
 23 22  1  0  0  0  0
 24 25  1  0  0  0  0
 25 26  2  0  0  0  0
 26 27  1  0  0  0  0
 27 16  2  0  0  0  0
 28 29  2  0  0  0  0
 29  1  1  0  0  0  0
 30 31  1  0  0  0  0
 31 32  2  0  0  0  0
 31 28  1  0  0  0  0
 32 37  1  0  0  0  0
 33 32  1  0  0  0  0
 34 33  2  0  0  0  0
 35 34  1  0  0  0  0
 35 30  2  0  0  0  0
 36 30  1  0  0  0  0
 39 38  1  0  0  0  0
 40 34  1  0  0  0  0
 40 39  2  0  0  0  0
 41 40  1  0  0  0  0
 42 41  2  0  0  0  0
 42 43  1  0  0  0  0
 43 44  2  0  0  0  0
 44 39  1  0  0  0  0
 44 48  1  0  0  0  0
 45 41  1  0  0  0  0
 46 42  1  0  0  0  0
 47 43  1  0  0  0  0
M  END
>  <minimizedAffinity>
-7.3331933

>  <minimizedRMSD>
0.750098348

$$$$
