
 OpenBabel03252509243D

 30 33  0  0  1  0  0  0  0  0999 V2000
   46.3400   34.7410   42.0390 C   0  0  1  0  0  0  0  0  0  0  0  0
   47.8230   35.1980   41.9700 C   0  0  0  0  0  0  0  0  0  0  0  0
   47.2880   33.7760   41.6150 C   0  0  2  0  0  0  0  0  0  0  0  0
   45.6810   35.3350   41.3730 H   0  0  0  0  0  0  0  0  0  0  0  0
   48.1460   35.7650   41.0880 H   0  0  0  0  0  0  0  0  0  0  0  0
   48.3960   35.3050   42.8840 H   0  0  0  0  0  0  0  0  0  0  0  0
   47.6190   33.0040   42.3520 H   0  0  0  0  0  0  0  0  0  0  0  0
   47.4070   33.3610   40.1800 C   0  0  0  0  0  0  0  0  0  0  0  0
   48.6810   32.9630   39.7800 C   0  0  0  0  0  0  0  0  0  0  0  0
   49.5230   32.9560   40.4590 H   0  0  0  0  0  0  0  0  0  0  0  0
   48.8820   32.5620   38.4670 C   0  0  0  0  0  3  0  0  0  0  0  0
   47.8240   32.5630   37.5810 C   0  0  0  0  0  0  0  0  0  0  0  0
   47.9760   32.1780   36.2840 N   0  0  0  0  0  0  0  0  0  0  0  0
   46.9310   32.1860   35.4370 C   0  0  0  0  0  0  0  0  0  0  0  0
   47.0800   31.8750   34.4080 H   0  0  0  0  0  0  0  0  0  0  0  0
   45.6590   32.5750   35.8030 C   0  0  0  0  0  3  0  0  0  0  0  0
   45.5400   32.9610   37.1340 C   0  0  0  0  0  3  0  0  0  0  0  0
   46.5860   32.9700   38.0460 C   0  0  0  0  0  0  0  0  0  0  0  0
   46.3220   33.3800   39.3380 C   0  0  0  0  0  3  0  0  0  0  0  0
   44.5510   35.5900   45.2280 C   0  0  0  0  0  0  0  0  0  0  0  0
   45.0120   35.7170   43.8760 C   0  0  0  0  0  0  0  0  0  0  0  0
   45.8660   34.7220   43.4740 C   0  0  0  0  0  0  0  0  0  0  0  0
   46.2480   33.6850   44.3180 N   0  0  0  0  0  0  0  0  0  0  0  0
   45.7820   33.6290   45.5680 C   0  0  0  0  0  0  0  0  0  0  0  0
   44.9310   34.5830   46.0270 N   0  0  0  0  0  0  0  0  0  0  0  0
   43.8750   36.3510   45.5900 H   0  0  0  0  0  0  0  0  0  0  0  0
   46.1690   32.7680   46.0950 H   0  0  0  0  0  0  0  0  0  0  0  0
   44.6340   36.7990   43.0290 N   0  0  0  0  0  0  0  0  0  0  0  0
   44.1930   36.6880   42.0770 H   0  0  0  0  0  0  0  0  0  0  0  0
   44.8770   37.6940   43.5300 H   0  0  0  0  0  0  0  0  0  0  0  0
  1  4  1  6  0  0  0
  1 22  1  0  0  0  0
  2  1  1  0  0  0  0
  2  6  1  0  0  0  0
  3  2  1  0  0  0  0
  3  1  1  0  0  0  0
  3  7  1  1  0  0  0
  5  2  1  0  0  0  0
  8  3  1  0  0  0  0
  9  8  1  0  0  0  0
  9 10  1  0  0  0  0
 11  9  2  0  0  0  0
 12 18  1  0  0  0  0
 12 11  1  0  0  0  0
 13 12  2  0  0  0  0
 14 16  2  0  0  0  0
 14 13  1  0  0  0  0
 15 14  1  0  0  0  0
 16 17  1  0  0  0  0
 17 18  2  0  0  0  0
 18 19  1  0  0  0  0
 19  8  2  0  0  0  0
 20 26  1  0  0  0  0
 20 25  1  0  0  0  0
 21 20  2  0  0  0  0
 22 21  1  0  0  0  0
 22 23  2  0  0  0  0
 23 24  1  0  0  0  0
 24 25  2  0  0  0  0
 24 27  1  0  0  0  0
 28 30  1  0  0  0  0
 28 21  1  0  0  0  0
 29 28  1  0  0  0  0
M  END
>  <minimizedAffinity>
-5.48935604

>  <minimizedRMSD>
0.525609493

$$$$
