REMARK  Name = 
REMARK  2 active torsions:
REMARK  status: ('A' for Active; 'I' for Inactive)
REMARK    1  A    between atoms: C_1  and  C_7
REMARK    2  A    between atoms: C_3  and  C_13
REMARK                            x       y       z     vdW  Elec       q    Type
REMARK                         _______ _______ _______ _____ _____    ______ ____
ROOT
ATOM      1  C   UNL     1      47.674  34.973  42.342  0.00  0.00    +0.000 A 
ATOM      2  C   UNL     1      47.911  33.913  43.248  0.00  0.00    +0.000 A 
ATOM      3  C   UNL     1      46.903  33.519  44.129  0.00  0.00    +0.000 A 
ATOM      4  N   UNL     1      45.731  34.202  44.050  0.00  0.00    +0.000 NA
ATOM      5  C   UNL     1      45.520  35.204  43.187  0.00  0.00    +0.000 A 
ATOM      6  N   UNL     1      46.484  35.588  42.339  0.00  0.00    +0.000 NA
ATOM      7  H   UNL     1      48.863  33.419  43.254  0.00  0.00    +0.000 HD
ATOM      8  H   UNL     1      44.544  35.671  43.219  0.00  0.00    +0.000 HD
ENDROOT
BRANCH   3   9
ATOM      9  C   UNL     1      47.086  32.439  45.081  0.00  0.00    +0.000 A 
ATOM     10  C   UNL     1      46.471  32.347  46.297  0.00  0.00    +0.000 A 
ATOM     11  H   UNL     1      45.795  33.118  46.599  0.00  0.00    +0.000 HD
ATOM     12  C   UNL     1      46.697  31.283  47.152  0.00  0.00    +0.000 A 
ATOM     13  C   UNL     1      47.569  30.273  46.780  0.00  0.00    +0.000 A 
ATOM     14  N   UNL     1      47.802  29.224  47.606  0.00  0.00    +0.000 NA
ATOM     15  C   UNL     1      48.648  28.227  47.265  0.00  0.00    +0.000 A 
ATOM     16  H   UNL     1      48.838  27.379  47.929  0.00  0.00    +0.000 HD
ATOM     17  C   UNL     1      49.288  28.288  46.040  0.00  0.00    +0.000 A 
ATOM     18  C   UNL     1      49.075  29.338  45.177  0.00  0.00    +0.000 A 
ATOM     19  C   UNL     1      48.208  30.329  45.562  0.00  0.00    +0.000 A 
ATOM     20  C   UNL     1      47.944  31.414  44.752  0.00  0.00    +0.000 A 
ENDBRANCH   3   9
BRANCH   1  21
ATOM     21  C   UNL     1      48.794  35.340  41.433  0.00  0.00    +0.000 C 
ATOM     22  F   UNL     1      48.422  35.233  40.106  0.00  0.00    +0.000 F 
ATOM     23  F   UNL     1      49.206  36.618  41.749  0.00  0.00    +0.000 F 
ATOM     24  F   UNL     1      49.888  34.496  41.673  0.00  0.00    +0.000 F 
ENDBRANCH   1  21
TORSDOF 2
