
 OpenBabel03252504283D

 25 27  0  0  0  0  0  0  0  0999 V2000
   36.5660   30.0510   41.8550 O   0  0  0  0  0  0  0  0  0  0  0  0
   37.2330   28.8730   42.1360 C   0  0  0  0  0  0  0  0  0  0  0  0
   38.4320   29.0820   42.8230 C   0  0  0  0  0  0  0  0  0  0  0  0
   38.8070   30.0670   43.1100 H   0  0  0  0  0  0  0  0  0  0  0  0
   39.2520   28.0430   43.2000 C   0  0  0  0  0  3  0  0  0  0  0  0
   38.8840   26.7550   42.8930 C   0  0  0  0  0  0  0  0  0  0  0  0
   39.5940   25.6700   43.2050 N   0  0  0  0  0  0  0  0  0  0  0  0
   39.2440   24.4090   42.9100 C   0  0  0  0  0  0  0  0  0  0  0  0
   39.9530   23.6440   43.2460 H   0  0  0  0  0  0  0  0  0  0  0  0
   38.0740   24.1650   42.2370 C   0  0  0  0  0  3  0  0  0  0  0  0
   37.2820   25.2490   41.8780 C   0  0  0  0  0  3  0  0  0  0  0  0
   37.7080   26.5350   42.2170 C   0  0  0  0  0  0  0  0  0  0  0  0
   36.8900   27.5540   41.8410 C   0  0  0  0  0  3  0  0  0  0  0  0
   35.7810   30.1360   40.7060 C   0  0  0  0  0  0  0  0  0  0  0  0
   34.8390   30.6810   40.9070 H   0  0  0  0  0  0  0  0  0  0  0  0
   35.4490   29.1130   40.3700 H   0  0  0  0  0  0  0  0  0  0  0  0
   36.4480   29.9630   38.3920 C   0  0  0  0  0  0  0  0  0  0  0  0
   36.4880   30.7190   39.5620 C   0  0  0  0  0  0  0  0  0  0  0  0
   37.1780   31.9140   39.5120 C   0  0  0  0  0  0  0  0  0  0  0  0
   37.7600   32.2720   38.3590 N   0  0  0  0  0  0  0  0  0  0  0  0
   37.7010   31.5160   37.2440 C   0  0  0  0  0  0  0  0  0  0  0  0
   37.0320   30.3130   37.2190 N   0  0  0  0  0  0  0  0  0  0  0  0
   35.9290   29.0000   38.3130 H   0  0  0  0  0  0  0  0  0  0  0  0
   37.1910   32.4770   40.4340 H   0  0  0  0  0  0  0  0  0  0  0  0
   38.1840   31.8380   36.3300 H   0  0  0  0  0  0  0  0  0  0  0  0
  1  2  1  0  0  0  0
  2  3  1  0  0  0  0
  3  4  1  0  0  0  0
  3  5  2  0  0  0  0
  6  5  1  0  0  0  0
  6  7  1  0  0  0  0
  8  7  2  0  0  0  0
  8  9  1  0  0  0  0
 10  8  1  0  0  0  0
 11 12  1  0  0  0  0
 11 10  2  0  0  0  0
 12  6  2  0  0  0  0
 13  2  2  0  0  0  0
 13 12  1  0  0  0  0
 14 15  1  0  0  0  0
 14  1  1  0  0  0  0
 16 14  1  0  0  0  0
 17 18  1  0  0  0  0
 18 14  1  0  0  0  0
 19 18  2  0  0  0  0
 19 24  1  0  0  0  0
 20 19  1  0  0  0  0
 21 20  2  0  0  0  0
 22 21  1  0  0  0  0
 22 17  2  0  0  0  0
 23 17  1  0  0  0  0
 25 21  1  0  0  0  0
M  END
>  <minimizedAffinity>
-5.18871498

$$$$

 OpenBabel03252504283D

 25 27  0  0  0  0  0  0  0  0999 V2000
   36.9010   30.1760   42.0200 O   0  0  0  0  0  0  0  0  0  0  0  0
   37.4490   28.9220   42.2140 C   0  0  0  0  0  0  0  0  0  0  0  0
   36.6570   27.8980   41.6880 C   0  0  0  0  0  0  0  0  0  0  0  0
   35.7060   28.0650   41.1770 H   0  0  0  0  0  0  0  0  0  0  0  0
   37.0180   26.5720   41.7740 C   0  0  0  0  0  3  0  0  0  0  0  0
   38.1970   26.2400   42.3970 C   0  0  0  0  0  0  0  0  0  0  0  0
   38.6520   24.9950   42.5410 N   0  0  0  0  0  0  0  0  0  0  0  0
   39.8010   24.6590   43.1470 C   0  0  0  0  0  0  0  0  0  0  0  0
   40.0110   23.5840   43.1710 H   0  0  0  0  0  0  0  0  0  0  0  0
   40.6040   25.6360   43.6750 C   0  0  0  0  0  3  0  0  0  0  0  0
   40.1950   26.9600   43.5630 C   0  0  0  0  0  3  0  0  0  0  0  0
   38.9860   27.2370   42.9190 C   0  0  0  0  0  0  0  0  0  0  0  0
   38.6390   28.5490   42.8390 C   0  0  0  0  0  3  0  0  0  0  0  0
   36.0820   30.4010   40.9140 C   0  0  0  0  0  0  0  0  0  0  0  0
   35.2350   31.0650   41.1760 H   0  0  0  0  0  0  0  0  0  0  0  0
   35.5940   29.4430   40.5750 H   0  0  0  0  0  0  0  0  0  0  0  0
   36.4920   30.2970   38.5380 C   0  0  0  0  0  0  0  0  0  0  0  0
   36.8070   30.9120   39.7470 C   0  0  0  0  0  0  0  0  0  0  0  0
   37.7510   31.9190   39.7120 C   0  0  0  0  0  0  0  0  0  0  0  0
   38.3010   32.2410   38.5340 N   0  0  0  0  0  0  0  0  0  0  0  0
   37.9740   31.6250   37.3800 C   0  0  0  0  0  0  0  0  0  0  0  0
   37.0410   30.6140   37.3380 N   0  0  0  0  0  0  0  0  0  0  0  0
   35.7580   29.4880   38.4440 H   0  0  0  0  0  0  0  0  0  0  0  0
   37.9730   32.3760   40.6660 H   0  0  0  0  0  0  0  0  0  0  0  0
   38.4410   31.9140   36.4460 H   0  0  0  0  0  0  0  0  0  0  0  0
  1  2  1  0  0  0  0
  2 13  1  0  0  0  0
  3  5  1  0  0  0  0
  3  2  2  0  0  0  0
  4  3  1  0  0  0  0
  5  6  2  0  0  0  0
  6  7  1  0  0  0  0
  6 12  1  0  0  0  0
  7  8  2  0  0  0  0
  8  9  1  0  0  0  0
  8 10  1  0  0  0  0
 11 10  2  0  0  0  0
 12 11  1  0  0  0  0
 13 12  2  0  0  0  0
 14 15  1  0  0  0  0
 14  1  1  0  0  0  0
 16 14  1  0  0  0  0
 17 18  1  0  0  0  0
 18 14  1  0  0  0  0
 19 18  2  0  0  0  0
 19 24  1  0  0  0  0
 20 19  1  0  0  0  0
 21 20  2  0  0  0  0
 22 21  1  0  0  0  0
 22 17  2  0  0  0  0
 23 17  1  0  0  0  0
 25 21  1  0  0  0  0
M  END
>  <minimizedAffinity>
-5.11867237

$$$$

 OpenBabel03252504283D

 25 27  0  0  0  0  0  0  0  0999 V2000
   36.5490   30.2390   41.8190 O   0  0  0  0  0  0  0  0  0  0  0  0
   37.1570   29.0240   42.0710 C   0  0  0  0  0  0  0  0  0  0  0  0
   38.3280   29.1510   42.8240 C   0  0  0  0  0  0  0  0  0  0  0  0
   38.7240   30.1050   43.1780 H   0  0  0  0  0  0  0  0  0  0  0  0
   39.0900   28.0630   43.1860 C   0  0  0  0  0  3  0  0  0  0  0  0
   38.6900   26.8070   42.7960 C   0  0  0  0  0  0  0  0  0  0  0  0
   39.3420   25.6810   43.0860 N   0  0  0  0  0  0  0  0  0  0  0  0
   38.9610   24.4510   42.7110 C   0  0  0  0  0  0  0  0  0  0  0  0
   39.6240   23.6430   43.0410 H   0  0  0  0  0  0  0  0  0  0  0  0
   37.8180   24.2870   41.9720 C   0  0  0  0  0  3  0  0  0  0  0  0
   37.0840   25.4170   41.6310 C   0  0  0  0  0  3  0  0  0  0  0  0
   37.5400   26.6670   42.0550 C   0  0  0  0  0  0  0  0  0  0  0  0
   36.7800   27.7350   41.6930 C   0  0  0  0  0  3  0  0  0  0  0  0
   36.4070   30.6740   40.5020 C   0  0  0  0  0  0  0  0  0  0  0  0
   35.5230   31.3320   40.3940 H   0  0  0  0  0  0  0  0  0  0  0  0
   36.1980   29.8060   39.8130 H   0  0  0  0  0  0  0  0  0  0  0  0
   37.7450   32.6710   40.2870 C   0  0  0  0  0  0  0  0  0  0  0  0
   37.6100   31.3210   39.9710 C   0  0  0  0  0  0  0  0  0  0  0  0
   38.6100   30.7530   39.2060 C   0  0  0  0  0  0  0  0  0  0  0  0
   39.6360   31.5220   38.8180 N   0  0  0  0  0  0  0  0  0  0  0  0
   39.7360   32.8270   39.1410 C   0  0  0  0  0  0  0  0  0  0  0  0
   38.7790   33.4610   39.9000 N   0  0  0  0  0  0  0  0  0  0  0  0
   37.0160   33.2270   40.8880 H   0  0  0  0  0  0  0  0  0  0  0  0
   38.4760   29.7050   38.9790 H   0  0  0  0  0  0  0  0  0  0  0  0
   40.5810   33.4170   38.8080 H   0  0  0  0  0  0  0  0  0  0  0  0
  1  2  1  0  0  0  0
  2  3  1  0  0  0  0
  3  4  1  0  0  0  0
  3  5  2  0  0  0  0
  6  7  1  0  0  0  0
  6  5  1  0  0  0  0
  8  9  1  0  0  0  0
  8  7  2  0  0  0  0
 10  8  1  0  0  0  0
 11 10  2  0  0  0  0
 11 12  1  0  0  0  0
 12  6  2  0  0  0  0
 13 12  1  0  0  0  0
 13  2  2  0  0  0  0
 14  1  1  0  0  0  0
 15 14  1  0  0  0  0
 16 14  1  0  0  0  0
 17 23  1  0  0  0  0
 18 17  1  0  0  0  0
 18 14  1  0  0  0  0
 19 18  2  0  0  0  0
 20 21  2  0  0  0  0
 20 19  1  0  0  0  0
 21 22  1  0  0  0  0
 22 17  2  0  0  0  0
 24 19  1  0  0  0  0
 25 21  1  0  0  0  0
M  END
>  <minimizedAffinity>
-5.03482866

$$$$

 OpenBabel03252504283D

 25 27  0  0  0  0  0  0  0  0999 V2000
   37.4550   32.5720   40.1830 O   0  0  0  0  0  0  0  0  0  0  0  0
   37.3100   31.3220   40.7560 C   0  0  0  0  0  0  0  0  0  0  0  0
   36.1710   30.6500   40.3050 C   0  0  0  0  0  0  0  0  0  0  0  0
   35.4670   31.0630   39.5790 H   0  0  0  0  0  0  0  0  0  0  0  0
   35.8390   29.3900   40.7490 C   0  0  0  0  0  3  0  0  0  0  0  0
   36.6510   28.7680   41.6660 C   0  0  0  0  0  0  0  0  0  0  0  0
   36.4340   27.5510   42.1670 N   0  0  0  0  0  0  0  0  0  0  0  0
   37.2200   26.9350   43.0630 C   0  0  0  0  0  0  0  0  0  0  0  0
   36.8820   25.9360   43.3620 H   0  0  0  0  0  0  0  0  0  0  0  0
   38.3460   27.5640   43.5280 C   0  0  0  0  0  3  0  0  0  0  0  0
   38.6380   28.8350   43.0490 C   0  0  0  0  0  3  0  0  0  0  0  0
   37.7750   29.4170   42.1180 C   0  0  0  0  0  0  0  0  0  0  0  0
   38.1130   30.6610   41.6850 C   0  0  0  0  0  3  0  0  0  0  0  0
   38.6110   33.3100   40.4340 C   0  0  0  0  0  0  0  0  0  0  0  0
   39.0350   33.0600   41.4260 H   0  0  0  0  0  0  0  0  0  0  0  0
   38.3790   34.4110   40.4960 H   0  0  0  0  0  0  0  0  0  0  0  0
   40.6630   34.1030   39.4400 C   0  0  0  0  0  0  0  0  0  0  0  0
   39.6250   33.1760   39.3840 C   0  0  0  0  0  0  0  0  0  0  0  0
   39.6680   32.2480   38.3610 C   0  0  0  0  0  0  0  0  0  0  0  0
   40.6890   32.2940   37.4960 N   0  0  0  0  0  0  0  0  0  0  0  0
   41.6790   33.2060   37.5790 C   0  0  0  0  0  0  0  0  0  0  0  0
   41.7030   34.1600   38.5710 N   0  0  0  0  0  0  0  0  0  0  0  0
   40.7350   34.8840   40.2060 H   0  0  0  0  0  0  0  0  0  0  0  0
   38.8490   31.5430   38.3450 H   0  0  0  0  0  0  0  0  0  0  0  0
   42.4890   33.2110   36.8600 H   0  0  0  0  0  0  0  0  0  0  0  0
  1 14  1  0  0  0  0
  1  2  1  0  0  0  0
  2 13  1  0  0  0  0
  3  5  1  0  0  0  0
  3  2  2  0  0  0  0
  4  3  1  0  0  0  0
  5  6  2  0  0  0  0
  6 12  1  0  0  0  0
  6  7  1  0  0  0  0
  7  8  2  0  0  0  0
  8  9  1  0  0  0  0
  8 10  1  0  0  0  0
 11 10  2  0  0  0  0
 12 11  1  0  0  0  0
 13 12  2  0  0  0  0
 14 16  1  0  0  0  0
 14 15  1  0  0  0  0
 17 23  1  0  0  0  0
 18 17  1  0  0  0  0
 18 14  1  0  0  0  0
 19 18  2  0  0  0  0
 20 21  2  0  0  0  0
 20 19  1  0  0  0  0
 21 22  1  0  0  0  0
 22 17  2  0  0  0  0
 24 19  1  0  0  0  0
 25 21  1  0  0  0  0
M  END
>  <minimizedAffinity>
-5.02804184

$$$$

 OpenBabel03252504283D

 25 27  0  0  0  0  0  0  0  0999 V2000
   37.5960   28.0720   43.4580 O   0  0  0  0  0  0  0  0  0  0  0  0
   37.8730   29.1810   42.6800 C   0  0  0  0  0  0  0  0  0  0  0  0
   39.1310   29.7290   42.9490 C   0  0  0  0  0  0  0  0  0  0  0  0
   39.8240   29.3280   43.6910 H   0  0  0  0  0  0  0  0  0  0  0  0
   39.6050   30.8380   42.2860 C   0  0  0  0  0  3  0  0  0  0  0  0
   38.8190   31.4310   41.3270 C   0  0  0  0  0  0  0  0  0  0  0  0
   39.1690   32.5060   40.6200 N   0  0  0  0  0  0  0  0  0  0  0  0
   38.4090   33.0930   39.6830 C   0  0  0  0  0  0  0  0  0  0  0  0
   38.8630   33.9690   39.2050 H   0  0  0  0  0  0  0  0  0  0  0  0
   37.1700   32.5840   39.3920 C   0  0  0  0  0  3  0  0  0  0  0  0
   36.7370   31.4630   40.0900 C   0  0  0  0  0  3  0  0  0  0  0  0
   37.5800   30.9030   41.0530 C   0  0  0  0  0  0  0  0  0  0  0  0
   37.1020   29.8070   41.7010 C   0  0  0  0  0  3  0  0  0  0  0  0
   36.8090   27.0480   42.9330 C   0  0  0  0  0  0  0  0  0  0  0  0
   36.1100   27.4370   42.1670 H   0  0  0  0  0  0  0  0  0  0  0  0
   36.1400   26.6090   43.7270 H   0  0  0  0  0  0  0  0  0  0  0  0
   36.8480   24.9300   41.7760 C   0  0  0  0  0  0  0  0  0  0  0  0
   37.5910   25.9260   42.4070 C   0  0  0  0  0  0  0  0  0  0  0  0
   38.9590   25.7460   42.4640 C   0  0  0  0  0  0  0  0  0  0  0  0
   39.4840   24.6420   41.9180 N   0  0  0  0  0  0  0  0  0  0  0  0
   38.7360   23.6970   41.3140 C   0  0  0  0  0  0  0  0  0  0  0  0
   37.3680   23.8080   41.2190 N   0  0  0  0  0  0  0  0  0  0  0  0
   35.7570   24.9650   41.6700 H   0  0  0  0  0  0  0  0  0  0  0  0
   39.5060   26.5360   42.9590 H   0  0  0  0  0  0  0  0  0  0  0  0
   39.1980   22.8160   40.8830 H   0  0  0  0  0  0  0  0  0  0  0  0
  2  3  1  0  0  0  0
  2  1  1  0  0  0  0
  3  4  1  0  0  0  0
  5  3  2  0  0  0  0
  6  5  1  0  0  0  0
  7  6  2  0  0  0  0
  8  7  1  0  0  0  0
  9  8  1  0  0  0  0
 10  8  2  0  0  0  0
 10 11  1  0  0  0  0
 11 12  2  0  0  0  0
 12  6  1  0  0  0  0
 12 13  1  0  0  0  0
 13  2  2  0  0  0  0
 14  1  1  0  0  0  0
 14 16  1  0  0  0  0
 15 14  1  0  0  0  0
 17 18  1  0  0  0  0
 18 19  2  0  0  0  0
 18 14  1  0  0  0  0
 19 24  1  0  0  0  0
 20 19  1  0  0  0  0
 21 20  2  0  0  0  0
 22 21  1  0  0  0  0
 22 17  2  0  0  0  0
 23 17  1  0  0  0  0
 25 21  1  0  0  0  0
M  END
>  <minimizedAffinity>
-4.97523832

$$$$

 OpenBabel03252504283D

 25 27  0  0  0  0  0  0  0  0999 V2000
   37.1280   29.4150   42.1150 O   0  0  0  0  0  0  0  0  0  0  0  0
   37.8050   30.4880   41.5660 C   0  0  0  0  0  0  0  0  0  0  0  0
   36.9810   31.3050   40.7850 C   0  0  0  0  0  0  0  0  0  0  0  0
   35.9170   31.1200   40.6230 H   0  0  0  0  0  0  0  0  0  0  0  0
   37.4560   32.4280   40.1460 C   0  0  0  0  0  3  0  0  0  0  0  0
   38.7820   32.7630   40.2770 C   0  0  0  0  0  0  0  0  0  0  0  0
   39.3550   33.8240   39.7080 N   0  0  0  0  0  0  0  0  0  0  0  0
   40.6480   34.1590   39.8290 C   0  0  0  0  0  0  0  0  0  0  0  0
   40.9410   35.0660   39.2880 H   0  0  0  0  0  0  0  0  0  0  0  0
   41.4860   33.3820   40.5870 C   0  0  0  0  0  3  0  0  0  0  0  0
   40.9590   32.2580   41.2110 C   0  0  0  0  0  3  0  0  0  0  0  0
   39.6030   31.9680   41.0410 C   0  0  0  0  0  0  0  0  0  0  0  0
   39.1450   30.8570   41.6780 C   0  0  0  0  0  3  0  0  0  0  0  0
   37.6150   28.8210   43.2780 C   0  0  0  0  0  0  0  0  0  0  0  0
   36.8570   28.8450   44.0840 H   0  0  0  0  0  0  0  0  0  0  0  0
   38.4860   29.4050   43.6920 H   0  0  0  0  0  0  0  0  0  0  0  0
   37.2710   26.6240   42.3400 C   0  0  0  0  0  0  0  0  0  0  0  0
   38.1140   27.4590   43.0690 C   0  0  0  0  0  0  0  0  0  0  0  0
   39.3080   26.9180   43.5060 C   0  0  0  0  0  0  0  0  0  0  0  0
   39.5810   25.6420   43.2080 N   0  0  0  0  0  0  0  0  0  0  0  0
   38.7420   24.8600   42.4990 C   0  0  0  0  0  0  0  0  0  0  0  0
   37.5360   25.3300   42.0300 N   0  0  0  0  0  0  0  0  0  0  0  0
   36.3010   26.9430   41.9420 H   0  0  0  0  0  0  0  0  0  0  0  0
   39.9400   27.5910   44.0680 H   0  0  0  0  0  0  0  0  0  0  0  0
   38.9980   23.8310   42.2770 H   0  0  0  0  0  0  0  0  0  0  0  0
  1 14  1  0  0  0  0
  2 13  1  0  0  0  0
  2  1  1  0  0  0  0
  3  2  2  0  0  0  0
  4  3  1  0  0  0  0
  5  6  2  0  0  0  0
  5  3  1  0  0  0  0
  6 12  1  0  0  0  0
  7  8  2  0  0  0  0
  7  6  1  0  0  0  0
  8 10  1  0  0  0  0
  9  8  1  0  0  0  0
 10 11  2  0  0  0  0
 12 11  1  0  0  0  0
 12 13  2  0  0  0  0
 14 16  1  0  0  0  0
 14 15  1  0  0  0  0
 17 18  1  0  0  0  0
 18 14  1  0  0  0  0
 18 19  2  0  0  0  0
 19 24  1  0  0  0  0
 20 19  1  0  0  0  0
 21 20  2  0  0  0  0
 22 17  2  0  0  0  0
 22 21  1  0  0  0  0
 23 17  1  0  0  0  0
 25 21  1  0  0  0  0
M  END
>  <minimizedAffinity>
-4.78582096

$$$$

 OpenBabel03252504283D

 25 27  0  0  0  0  0  0  0  0999 V2000
   39.1280   30.3840   42.8690 O   0  0  0  0  0  0  0  0  0  0  0  0
   38.7210   29.0700   42.7240 C   0  0  0  0  0  0  0  0  0  0  0  0
   37.3310   28.9300   42.7450 C   0  0  0  0  0  0  0  0  0  0  0  0
   36.6360   29.7630   42.8630 H   0  0  0  0  0  0  0  0  0  0  0  0
   36.7150   27.7050   42.6150 C   0  0  0  0  0  3  0  0  0  0  0  0
   37.4900   26.5800   42.4600 C   0  0  0  0  0  0  0  0  0  0  0  0
   37.0100   25.3430   42.3250 N   0  0  0  0  0  0  0  0  0  0  0  0
   37.7560   24.2390   42.1740 C   0  0  0  0  0  0  0  0  0  0  0  0
   37.1860   23.3080   42.0790 H   0  0  0  0  0  0  0  0  0  0  0  0
   39.1240   24.3380   42.1490 C   0  0  0  0  0  3  0  0  0  0  0  0
   39.6960   25.5970   42.2840 C   0  0  0  0  0  3  0  0  0  0  0  0
   38.8580   26.7040   42.4380 C   0  0  0  0  0  0  0  0  0  0  0  0
   39.4760   27.9090   42.5640 C   0  0  0  0  0  3  0  0  0  0  0  0
   39.8820   30.9820   41.8620 C   0  0  0  0  0  0  0  0  0  0  0  0
   40.7630   30.3630   41.6030 H   0  0  0  0  0  0  0  0  0  0  0  0
   40.3180   31.9600   42.2130 H   0  0  0  0  0  0  0  0  0  0  0  0
   38.2080   32.3650   40.8070 C   0  0  0  0  0  0  0  0  0  0  0  0
   39.1000   31.3050   40.6640 C   0  0  0  0  0  0  0  0  0  0  0  0
   39.1490   30.6880   39.4300 C   0  0  0  0  0  0  0  0  0  0  0  0
   38.3470   31.1370   38.4560 N   0  0  0  0  0  0  0  0  0  0  0  0
   37.4930   32.1670   38.6270 C   0  0  0  0  0  0  0  0  0  0  0  0
   37.3900   32.8300   39.8290 N   0  0  0  0  0  0  0  0  0  0  0  0
   38.0840   32.9300   41.7390 H   0  0  0  0  0  0  0  0  0  0  0  0
   39.8510   29.8700   39.3510 H   0  0  0  0  0  0  0  0  0  0  0  0
   36.8590   32.5020   37.8150 H   0  0  0  0  0  0  0  0  0  0  0  0
  2  3  1  0  0  0  0
  2  1  1  0  0  0  0
  3  4  1  0  0  0  0
  5  3  2  0  0  0  0
  6  5  1  0  0  0  0
  7  6  2  0  0  0  0
  8  7  1  0  0  0  0
  9  8  1  0  0  0  0
 10  8  2  0  0  0  0
 10 11  1  0  0  0  0
 11 12  2  0  0  0  0
 12  6  1  0  0  0  0
 12 13  1  0  0  0  0
 13  2  2  0  0  0  0
 14 16  1  0  0  0  0
 14  1  1  0  0  0  0
 15 14  1  0  0  0  0
 17 23  1  0  0  0  0
 18 17  1  0  0  0  0
 18 14  1  0  0  0  0
 19 18  2  0  0  0  0
 20 21  2  0  0  0  0
 20 19  1  0  0  0  0
 21 22  1  0  0  0  0
 22 17  2  0  0  0  0
 24 19  1  0  0  0  0
 25 21  1  0  0  0  0
M  END
>  <minimizedAffinity>
-4.76855803

$$$$

 OpenBabel03252504283D

 25 27  0  0  0  0  0  0  0  0999 V2000
   37.7640   27.6770   43.1530 O   0  0  0  0  0  0  0  0  0  0  0  0
   37.8310   26.4740   42.4760 C   0  0  0  0  0  0  0  0  0  0  0  0
   39.0040   25.7640   42.7510 C   0  0  0  0  0  0  0  0  0  0  0  0
   39.7850   26.1170   43.4270 H   0  0  0  0  0  0  0  0  0  0  0  0
   39.2710   24.5400   42.1800 C   0  0  0  0  0  3  0  0  0  0  0  0
   38.3590   23.9940   41.3100 C   0  0  0  0  0  0  0  0  0  0  0  0
   38.5060   22.8190   40.6970 N   0  0  0  0  0  0  0  0  0  0  0  0
   37.6220   22.2770   39.8460 C   0  0  0  0  0  0  0  0  0  0  0  0
   37.9140   21.3030   39.4380 H   0  0  0  0  0  0  0  0  0  0  0  0
   36.4610   22.9440   39.5520 C   0  0  0  0  0  3  0  0  0  0  0  0
   36.2380   24.1770   40.1540 C   0  0  0  0  0  3  0  0  0  0  0  0
   37.2020   24.6820   41.0300 C   0  0  0  0  0  0  0  0  0  0  0  0
   36.9270   25.8910   41.5890 C   0  0  0  0  0  3  0  0  0  0  0  0
   38.6570   28.6970   42.8270 C   0  0  0  0  0  0  0  0  0  0  0  0
   39.5590   28.2910   42.3300 H   0  0  0  0  0  0  0  0  0  0  0  0
   39.0490   29.1990   43.7570 H   0  0  0  0  0  0  0  0  0  0  0  0
   38.9390   30.7340   41.5630 C   0  0  0  0  0  0  0  0  0  0  0  0
   38.0520   29.7650   42.0250 C   0  0  0  0  0  0  0  0  0  0  0  0
   36.7230   29.9150   41.6800 C   0  0  0  0  0  0  0  0  0  0  0  0
   36.3700   30.9690   40.9320 N   0  0  0  0  0  0  0  0  0  0  0  0
   37.2550   31.8900   40.5010 C   0  0  0  0  0  0  0  0  0  0  0  0
   38.5950   31.8050   40.8050 N   0  0  0  0  0  0  0  0  0  0  0  0
   40.0160   30.7170   41.7730 H   0  0  0  0  0  0  0  0  0  0  0  0
   36.0610   29.1470   42.0530 H   0  0  0  0  0  0  0  0  0  0  0  0
   36.9320   32.7300   39.8970 H   0  0  0  0  0  0  0  0  0  0  0  0
  2  3  1  0  0  0  0
  2  1  1  0  0  0  0
  3  4  1  0  0  0  0
  5  3  2  0  0  0  0
  6  5  1  0  0  0  0
  7  6  2  0  0  0  0
  8  7  1  0  0  0  0
  9  8  1  0  0  0  0
 10  8  2  0  0  0  0
 10 11  1  0  0  0  0
 11 12  2  0  0  0  0
 12  6  1  0  0  0  0
 12 13  1  0  0  0  0
 13  2  2  0  0  0  0
 14  1  1  0  0  0  0
 14 16  1  0  0  0  0
 15 14  1  0  0  0  0
 17 23  1  0  0  0  0
 17 18  1  0  0  0  0
 18 14  1  0  0  0  0
 19 18  2  0  0  0  0
 19 24  1  0  0  0  0
 20 19  1  0  0  0  0
 21 22  1  0  0  0  0
 21 20  2  0  0  0  0
 22 17  2  0  0  0  0
 25 21  1  0  0  0  0
M  END
>  <minimizedAffinity>
-4.6858077

$$$$

 OpenBabel03252504283D

 25 27  0  0  0  0  0  0  0  0999 V2000
   36.3710   28.3490   41.5510 O   0  0  0  0  0  0  0  0  0  0  0  0
   36.6750   27.0360   41.2460 C   0  0  0  0  0  0  0  0  0  0  0  0
   37.0540   26.2950   42.3690 C   0  0  0  0  0  0  0  0  0  0  0  0
   37.1060   26.7040   43.3800 H   0  0  0  0  0  0  0  0  0  0  0  0
   37.3990   24.9640   42.2880 C   0  0  0  0  0  3  0  0  0  0  0  0
   37.3720   24.3400   41.0640 C   0  0  0  0  0  0  0  0  0  0  0  0
   37.6830   23.0590   40.8610 N   0  0  0  0  0  0  0  0  0  0  0  0
   37.6600   22.4400   39.6710 C   0  0  0  0  0  0  0  0  0  0  0  0
   37.9480   21.3830   39.6970 H   0  0  0  0  0  0  0  0  0  0  0  0
   37.2920   23.1350   38.5480 C   0  0  0  0  0  3  0  0  0  0  0  0
   36.9540   24.4760   38.6820 C   0  0  0  0  0  3  0  0  0  0  0  0
   37.0010   25.0570   39.9520 C   0  0  0  0  0  0  0  0  0  0  0  0
   36.6570   26.3710   40.0210 C   0  0  0  0  0  3  0  0  0  0  0  0
   35.5120   29.0640   40.7170 C   0  0  0  0  0  0  0  0  0  0  0  0
   34.6380   29.4460   41.2800 H   0  0  0  0  0  0  0  0  0  0  0  0
   35.0670   28.3930   39.9290 H   0  0  0  0  0  0  0  0  0  0  0  0
   36.6180   31.2090   40.7720 C   0  0  0  0  0  0  0  0  0  0  0  0
   36.1780   30.1460   39.9860 C   0  0  0  0  0  0  0  0  0  0  0  0
   36.4170   30.2280   38.6280 C   0  0  0  0  0  0  0  0  0  0  0  0
   37.0470   31.3100   38.1530 N   0  0  0  0  0  0  0  0  0  0  0  0
   37.4600   32.3230   38.9410 C   0  0  0  0  0  0  0  0  0  0  0  0
   37.2580   32.3090   40.3030 N   0  0  0  0  0  0  0  0  0  0  0  0
   36.4850   31.2520   41.8590 H   0  0  0  0  0  0  0  0  0  0  0  0
   36.0640   29.3890   38.0470 H   0  0  0  0  0  0  0  0  0  0  0  0
   37.9680   33.1820   38.5200 H   0  0  0  0  0  0  0  0  0  0  0  0
  2  1  1  0  0  0  0
  2  3  1  0  0  0  0
  3  4  1  0  0  0  0
  5  3  2  0  0  0  0
  6  5  1  0  0  0  0
  7  6  1  0  0  0  0
  8  9  1  0  0  0  0
  8  7  2  0  0  0  0
 10 11  2  0  0  0  0
 10  8  1  0  0  0  0
 11 12  1  0  0  0  0
 12 13  1  0  0  0  0
 12  6  2  0  0  0  0
 13  2  2  0  0  0  0
 14 15  1  0  0  0  0
 14  1  1  0  0  0  0
 16 14  1  0  0  0  0
 17 23  1  0  0  0  0
 18 14  1  0  0  0  0
 18 17  2  0  0  0  0
 19 18  1  0  0  0  0
 20 19  2  0  0  0  0
 20 21  1  0  0  0  0
 21 22  2  0  0  0  0
 22 17  1  0  0  0  0
 24 19  1  0  0  0  0
 25 21  1  0  0  0  0
M  END
>  <minimizedAffinity>
-4.57272863

$$$$
