REMARK  Name = 
REMARK  3 active torsions:
REMARK  status: ('A' for Active; 'I' for Inactive)
REMARK    1  A    between atoms: C_2  and  N_10
REMARK    2  A    between atoms: C_3  and  C_7
REMARK    3  A    between atoms: C_9  and  C_19
REMARK                            x       y       z     vdW  Elec       q    Type
REMARK                         _______ _______ _______ _____ _____    ______ ____
ROOT
ATOM      1  C   UNL     1      46.540  34.976  41.941  0.00  0.00    +0.000 C 
ATOM      2  C   UNL     1      48.064  35.274  41.936  0.00  0.00    +0.000 C 
ATOM      3  C   UNL     1      47.386  33.976  41.398  0.00  0.00    +0.000 C 
ATOM      4  H   UNL     1      45.960  35.719  41.356  0.00  0.00    +0.000 HD
ATOM      5  H   UNL     1      48.461  35.911  41.137  0.00  0.00    +0.000 HD
ATOM      6  H   UNL     1      48.630  35.198  42.858  0.00  0.00    +0.000 HD
ATOM      7  H   UNL     1      47.619  33.084  42.029  0.00  0.00    +0.000 HD
ENDROOT
BRANCH   3   8
ATOM      8  C   UNL     1      47.484  33.739  39.921  0.00  0.00    +0.000 A 
ATOM      9  C   UNL     1      47.196  34.843  39.122  0.00  0.00    +0.000 A 
ATOM     10  H   UNL     1      46.922  35.802  39.540  0.00  0.00    +0.000 HD
ATOM     11  C   UNL     1      47.262  34.714  37.743  0.00  0.00    +0.000 A 
ATOM     12  C   UNL     1      47.609  33.501  37.184  0.00  0.00    +0.000 A 
ATOM     13  N   UNL     1      47.686  33.329  35.836  0.00  0.00    +0.000 NA
ATOM     14  C   UNL     1      48.026  32.137  35.312  0.00  0.00    +0.000 A 
ATOM     15  H   UNL     1      48.080  32.028  34.234  0.00  0.00    +0.000 HD
ATOM     16  C   UNL     1      48.317  31.026  36.077  0.00  0.00    +0.000 A 
ATOM     17  C   UNL     1      48.228  31.238  37.449  0.00  0.00    +0.000 A 
ATOM     18  C   UNL     1      47.882  32.447  38.037  0.00  0.00    +0.000 A 
ATOM     19  C   UNL     1      47.834  32.511  39.415  0.00  0.00    +0.000 A 
ENDBRANCH   3   8
BRANCH   1  22
ATOM     20  C   UNL     1      44.625  35.461  45.133  0.00  0.00    +0.000 A 
ATOM     21  C   UNL     1      45.098  35.714  43.803  0.00  0.00    +0.000 A 
ATOM     22  C   UNL     1      46.042  34.823  43.360  0.00  0.00    +0.000 A 
ATOM     23  N   UNL     1      46.496  33.770  44.146  0.00  0.00    +0.000 NA
ATOM     24  C   UNL     1      46.013  33.593  45.378  0.00  0.00    +0.000 A 
ATOM     25  N   UNL     1      45.075  34.440  45.876  0.00  0.00    +0.000 NA
ATOM     26  H   UNL     1      43.879  36.137  45.526  0.00  0.00    +0.000 HD
ATOM     27  H   UNL     1      46.463  32.736  45.859  0.00  0.00    +0.000 HD
BRANCH  21  28
ATOM     28  N   UNL     1      44.645  36.813  43.017  0.00  0.00    +0.000 N 
ATOM     29  H   UNL     1      44.233  36.727  42.050  0.00  0.00    +0.000 HD
ATOM     30  H   UNL     1      44.800  37.691  43.580  0.00  0.00    +0.000 HD
ENDBRANCH  21  28
ENDBRANCH   1  22
TORSDOF 3
