
 OpenBabel03252504053D

 22 24  0  0  0  0  0  0  0  0999 V2000
   37.6600   29.0510   41.3410 C   0  0  0  0  0  0  0  0  0  0  0  0
   37.7670   28.6420   42.6440 C   0  0  0  0  0  0  0  0  0  0  0  0
   38.0410   29.4260   43.3360 H   0  0  0  0  0  0  0  0  0  0  0  0
   37.5320   27.3280   42.9860 C   0  0  0  0  0  3  0  0  0  0  0  0
   37.1850   26.3700   42.0560 C   0  0  0  0  0  0  0  0  0  0  0  0
   36.9560   25.0930   42.3800 N   0  0  0  0  0  0  0  0  0  0  0  0
   36.6240   24.2240   41.4190 C   0  0  0  0  0  0  0  0  0  0  0  0
   36.4470   23.1950   41.7290 H   0  0  0  0  0  0  0  0  0  0  0  0
   36.4910   24.5320   40.0790 C   0  0  0  0  0  3  0  0  0  0  0  0
   36.7300   25.8530   39.7600 C   0  0  0  0  0  3  0  0  0  0  0  0
   37.0760   26.7840   40.7290 C   0  0  0  0  0  0  0  0  0  0  0  0
   37.3100   28.0960   40.3800 C   0  0  0  0  0  3  0  0  0  0  0  0
   37.2090   32.6130   40.1890 C   0  0  0  0  0  0  0  0  0  0  0  0
   36.8650   31.3620   40.7510 C   0  0  0  0  0  0  0  0  0  0  0  0
   37.8690   30.3900   40.7900 C   0  0  0  0  0  0  0  0  0  0  0  0
   39.0940   30.6860   40.2990 N   0  0  0  0  0  0  0  0  0  0  0  0
   39.3830   31.8990   39.7680 C   0  0  0  0  0  0  0  0  0  0  0  0
   38.4320   32.8490   39.7200 N   0  0  0  0  0  0  0  0  0  0  0  0
   36.4150   33.3610   40.1660 H   0  0  0  0  0  0  0  0  0  0  0  0
   40.4020   32.0540   39.3920 H   0  0  0  0  0  0  0  0  0  0  0  0
   35.6270   31.0370   41.2560 O   0  0  0  0  0  0  0  0  0  0  0  0
   35.1980   31.6690   41.9200 H   0  0  0  0  0  0  0  0  0  0  0  0
  1  2  1  0  0  0  0
  2  4  2  0  0  0  0
  2  3  1  0  0  0  0
  5  6  1  0  0  0  0
  5  4  1  0  0  0  0
  7  8  1  0  0  0  0
  7  6  2  0  0  0  0
  9  7  1  0  0  0  0
 10  9  2  0  0  0  0
 10 11  1  0  0  0  0
 11  5  2  0  0  0  0
 12 11  1  0  0  0  0
 12  1  2  0  0  0  0
 13 14  1  0  0  0  0
 14 15  2  0  0  0  0
 14 21  1  0  0  0  0
 15  1  1  0  0  0  0
 16 15  1  0  0  0  0
 17 16  2  0  0  0  0
 18 17  1  0  0  0  0
 18 13  2  0  0  0  0
 19 13  1  0  0  0  0
 20 17  1  0  0  0  0
 21 22  1  0  0  0  0
M  END
>  <minimizedAffinity>
-5.56037664

$$$$

 OpenBabel03252504053D

 22 24  0  0  0  0  0  0  0  0999 V2000
   38.4620   31.1050   40.2590 C   0  0  0  0  0  0  0  0  0  0  0  0
   37.1650   30.8760   39.8840 C   0  0  0  0  0  0  0  0  0  0  0  0
   36.8180   31.5040   39.0740 H   0  0  0  0  0  0  0  0  0  0  0  0
   36.4120   29.9130   40.5190 C   0  0  0  0  0  3  0  0  0  0  0  0
   36.9110   29.1420   41.5480 C   0  0  0  0  0  0  0  0  0  0  0  0
   36.1870   28.2050   42.1710 N   0  0  0  0  0  0  0  0  0  0  0  0
   36.7430   27.4980   43.1610 C   0  0  0  0  0  0  0  0  0  0  0  0
   36.1160   26.7470   43.6380 H   0  0  0  0  0  0  0  0  0  0  0  0
   38.0390   27.6500   43.6150 C   0  0  0  0  0  3  0  0  0  0  0  0
   38.7740   28.6190   42.9640 C   0  0  0  0  0  3  0  0  0  0  0  0
   38.2310   29.3720   41.9320 C   0  0  0  0  0  0  0  0  0  0  0  0
   38.9890   30.3340   41.3010 C   0  0  0  0  0  3  0  0  0  0  0  0
   40.5840   34.1610   39.6430 C   0  0  0  0  0  0  0  0  0  0  0  0
   39.6400   33.3270   40.2840 C   0  0  0  0  0  0  0  0  0  0  0  0
   39.4090   32.0740   39.7080 C   0  0  0  0  0  0  0  0  0  0  0  0
   40.0860   31.7270   38.5890 N   0  0  0  0  0  0  0  0  0  0  0  0
   40.9850   32.5590   38.0050 C   0  0  0  0  0  0  0  0  0  0  0  0
   41.2200   33.7680   38.5420 N   0  0  0  0  0  0  0  0  0  0  0  0
   40.7520   35.1350   40.1050 H   0  0  0  0  0  0  0  0  0  0  0  0
   41.4880   32.1990   37.1000 H   0  0  0  0  0  0  0  0  0  0  0  0
   38.9390   33.6550   41.4230 O   0  0  0  0  0  0  0  0  0  0  0  0
   39.4540   34.0070   42.2190 H   0  0  0  0  0  0  0  0  0  0  0  0
  1 12  1  0  0  0  0
  2  1  2  0  0  0  0
  2  4  1  0  0  0  0
  3  2  1  0  0  0  0
  4  5  2  0  0  0  0
  5 11  1  0  0  0  0
  5  6  1  0  0  0  0
  6  7  2  0  0  0  0
  7  9  1  0  0  0  0
  7  8  1  0  0  0  0
 10  9  2  0  0  0  0
 11 10  1  0  0  0  0
 12 11  2  0  0  0  0
 13 19  1  0  0  0  0
 13 14  1  0  0  0  0
 14 21  1  0  0  0  0
 15  1  1  0  0  0  0
 15 14  2  0  0  0  0
 16 15  1  0  0  0  0
 17 18  1  0  0  0  0
 17 16  2  0  0  0  0
 18 13  2  0  0  0  0
 20 17  1  0  0  0  0
 21 22  1  0  0  0  0
M  END
>  <minimizedAffinity>
-5.21119595

$$$$

 OpenBabel03252504053D

 22 24  0  0  0  0  0  0  0  0999 V2000
   38.4770   29.4580   41.6130 C   0  0  0  0  0  0  0  0  0  0  0  0
   39.5260   30.0950   42.2220 C   0  0  0  0  0  0  0  0  0  0  0  0
   40.1190   29.4610   42.8660 H   0  0  0  0  0  0  0  0  0  0  0  0
   39.7590   31.4340   41.9950 C   0  0  0  0  0  3  0  0  0  0  0  0
   38.9650   32.1930   41.1610 C   0  0  0  0  0  0  0  0  0  0  0  0
   39.1830   33.4940   40.9350 N   0  0  0  0  0  0  0  0  0  0  0  0
   38.3670   34.1610   40.1120 C   0  0  0  0  0  0  0  0  0  0  0  0
   38.5840   35.2170   39.9590 H   0  0  0  0  0  0  0  0  0  0  0  0
   37.2840   33.6150   39.4510 C   0  0  0  0  0  3  0  0  0  0  0  0
   37.0710   32.2740   39.6930 C   0  0  0  0  0  3  0  0  0  0  0  0
   37.8960   31.5480   40.5400 C   0  0  0  0  0  0  0  0  0  0  0  0
   37.6580   30.2100   40.7630 C   0  0  0  0  0  3  0  0  0  0  0  0
   36.9350   26.2050   42.7340 C   0  0  0  0  0  0  0  0  0  0  0  0
   37.2400   27.5850   42.7470 C   0  0  0  0  0  0  0  0  0  0  0  0
   38.0750   28.0570   41.7290 C   0  0  0  0  0  0  0  0  0  0  0  0
   38.5400   27.1890   40.8010 N   0  0  0  0  0  0  0  0  0  0  0  0
   38.2220   25.8700   40.8260 C   0  0  0  0  0  0  0  0  0  0  0  0
   37.4220   25.3960   41.7960 N   0  0  0  0  0  0  0  0  0  0  0  0
   36.2830   25.8530   43.5350 H   0  0  0  0  0  0  0  0  0  0  0  0
   38.6430   25.2370   40.0360 H   0  0  0  0  0  0  0  0  0  0  0  0
   36.7800   28.4880   43.6780 O   0  0  0  0  0  0  0  0  0  0  0  0
   35.7880   28.5110   43.8760 H   0  0  0  0  0  0  0  0  0  0  0  0
  1 15  1  0  0  0  0
  1  2  1  0  0  0  0
  2  3  1  0  0  0  0
  4  2  2  0  0  0  0
  5  4  1  0  0  0  0
  6  5  1  0  0  0  0
  7  6  2  0  0  0  0
  8  7  1  0  0  0  0
  9 10  2  0  0  0  0
  9  7  1  0  0  0  0
 10 11  1  0  0  0  0
 11 12  1  0  0  0  0
 11  5  2  0  0  0  0
 12  1  2  0  0  0  0
 13 14  1  0  0  0  0
 13 19  1  0  0  0  0
 14 21  1  0  0  0  0
 15 14  2  0  0  0  0
 16 17  2  0  0  0  0
 16 15  1  0  0  0  0
 17 18  1  0  0  0  0
 18 13  2  0  0  0  0
 20 17  1  0  0  0  0
 21 22  1  0  0  0  0
M  END
>  <minimizedAffinity>
-5.07868195

$$$$

 OpenBabel03252504053D

 22 24  0  0  0  0  0  0  0  0999 V2000
   36.8910   30.5820   39.6770 C   0  0  0  0  0  0  0  0  0  0  0  0
   35.8890   30.0500   40.4450 C   0  0  0  0  0  0  0  0  0  0  0  0
   35.9690   30.2750   41.5000 H   0  0  0  0  0  0  0  0  0  0  0  0
   34.8880   29.2990   39.8680 C   0  0  0  0  0  3  0  0  0  0  0  0
   34.8400   29.0450   38.5130 C   0  0  0  0  0  0  0  0  0  0  0  0
   33.8720   28.3180   37.9440 N   0  0  0  0  0  0  0  0  0  0  0  0
   33.8950   28.1160   36.6220 C   0  0  0  0  0  0  0  0  0  0  0  0
   33.0880   27.5180   36.2040 H   0  0  0  0  0  0  0  0  0  0  0  0
   34.8570   28.6060   35.7600 C   0  0  0  0  0  3  0  0  0  0  0  0
   35.8480   29.3540   36.3600 C   0  0  0  0  0  3  0  0  0  0  0  0
   35.8580   29.5850   37.7290 C   0  0  0  0  0  0  0  0  0  0  0  0
   36.8620   30.3360   38.2990 C   0  0  0  0  0  3  0  0  0  0  0  0
   39.1350   33.4450   40.6710 C   0  0  0  0  0  0  0  0  0  0  0  0
   37.9570   32.7860   40.2500 C   0  0  0  0  0  0  0  0  0  0  0  0
   38.0270   31.3970   40.1040 C   0  0  0  0  0  0  0  0  0  0  0  0
   39.1940   30.7640   40.3680 N   0  0  0  0  0  0  0  0  0  0  0  0
   40.3020   31.4340   40.7700 C   0  0  0  0  0  0  0  0  0  0  0  0
   40.2560   32.7700   40.9160 N   0  0  0  0  0  0  0  0  0  0  0  0
   39.0630   34.5280   40.7800 H   0  0  0  0  0  0  0  0  0  0  0  0
   41.2050   30.8430   40.9610 H   0  0  0  0  0  0  0  0  0  0  0  0
   36.7590   33.4060   39.9770 O   0  0  0  0  0  0  0  0  0  0  0  0
   36.3830   34.0490   40.6620 H   0  0  0  0  0  0  0  0  0  0  0  0
  1 15  1  0  0  0  0
  1  2  1  0  0  0  0
  2  3  1  0  0  0  0
  4  2  2  0  0  0  0
  5  4  1  0  0  0  0
  6  5  1  0  0  0  0
  7  6  2  0  0  0  0
  8  7  1  0  0  0  0
  9 10  2  0  0  0  0
  9  7  1  0  0  0  0
 10 11  1  0  0  0  0
 11 12  1  0  0  0  0
 11  5  2  0  0  0  0
 12  1  2  0  0  0  0
 13 19  1  0  0  0  0
 13 18  1  0  0  0  0
 14 13  2  0  0  0  0
 15 14  1  0  0  0  0
 15 16  2  0  0  0  0
 16 17  1  0  0  0  0
 17 18  2  0  0  0  0
 17 20  1  0  0  0  0
 21 14  1  0  0  0  0
 21 22  1  0  0  0  0
M  END
>  <minimizedAffinity>
-5.07275295

$$$$

 OpenBabel03252504053D

 22 24  0  0  0  0  0  0  0  0999 V2000
   35.8860   29.3560   39.1260 C   0  0  0  0  0  0  0  0  0  0  0  0
   36.0480   30.4770   39.8960 C   0  0  0  0  0  0  0  0  0  0  0  0
   35.7590   31.3980   39.4080 H   0  0  0  0  0  0  0  0  0  0  0  0
   36.5410   30.3810   41.1790 C   0  0  0  0  0  3  0  0  0  0  0  0
   36.8930   29.1740   41.7480 C   0  0  0  0  0  0  0  0  0  0  0  0
   37.3730   29.0710   42.9930 N   0  0  0  0  0  0  0  0  0  0  0  0
   37.6920   27.8640   43.4730 C   0  0  0  0  0  0  0  0  0  0  0  0
   38.0790   27.8290   44.4900 H   0  0  0  0  0  0  0  0  0  0  0  0
   37.5680   26.6750   42.7820 C   0  0  0  0  0  3  0  0  0  0  0  0
   37.0720   26.7960   41.5010 C   0  0  0  0  0  3  0  0  0  0  0  0
   36.7300   28.0310   40.9670 C   0  0  0  0  0  0  0  0  0  0  0  0
   36.2370   28.1210   39.6840 C   0  0  0  0  0  3  0  0  0  0  0  0
   33.6880   28.9780   36.0850 C   0  0  0  0  0  0  0  0  0  0  0  0
   34.0320   29.0500   37.4540 C   0  0  0  0  0  0  0  0  0  0  0  0
   35.3810   29.2600   37.7570 C   0  0  0  0  0  0  0  0  0  0  0  0
   36.2730   29.3820   36.7470 N   0  0  0  0  0  0  0  0  0  0  0  0
   35.9010   29.3070   35.4450 C   0  0  0  0  0  0  0  0  0  0  0  0
   34.6090   29.1050   35.1320 N   0  0  0  0  0  0  0  0  0  0  0  0
   32.6320   28.8140   35.8660 H   0  0  0  0  0  0  0  0  0  0  0  0
   36.6880   29.4160   34.6900 H   0  0  0  0  0  0  0  0  0  0  0  0
   33.1450   28.9290   38.5000 O   0  0  0  0  0  0  0  0  0  0  0  0
   32.3050   29.4930   38.4840 H   0  0  0  0  0  0  0  0  0  0  0  0
  1 12  2  0  0  0  0
  1  2  1  0  0  0  0
  2  4  2  0  0  0  0
  3  2  1  0  0  0  0
  4  5  1  0  0  0  0
  5  6  1  0  0  0  0
  6  7  2  0  0  0  0
  7  8  1  0  0  0  0
  9  7  1  0  0  0  0
 10  9  2  0  0  0  0
 11 10  1  0  0  0  0
 11  5  2  0  0  0  0
 12 11  1  0  0  0  0
 13 14  1  0  0  0  0
 14 15  2  0  0  0  0
 14 21  1  0  0  0  0
 15  1  1  0  0  0  0
 16 15  1  0  0  0  0
 17 16  2  0  0  0  0
 18 17  1  0  0  0  0
 18 13  2  0  0  0  0
 19 13  1  0  0  0  0
 20 17  1  0  0  0  0
 22 21  1  0  0  0  0
M  END
>  <minimizedAffinity>
-5.01811123

$$$$

 OpenBabel03252504053D

 22 24  0  0  0  0  0  0  0  0999 V2000
   37.8020   28.9800   40.6770 C   0  0  0  0  0  0  0  0  0  0  0  0
   36.9620   27.9450   40.3620 C   0  0  0  0  0  0  0  0  0  0  0  0
   36.1930   28.1970   39.6450 H   0  0  0  0  0  0  0  0  0  0  0  0
   37.1310   26.7050   40.9400 C   0  0  0  0  0  3  0  0  0  0  0  0
   38.1330   26.4430   41.8510 C   0  0  0  0  0  0  0  0  0  0  0  0
   38.3040   25.2440   42.4180 N   0  0  0  0  0  0  0  0  0  0  0  0
   39.3010   25.0690   43.2920 C   0  0  0  0  0  0  0  0  0  0  0  0
   39.4020   24.0770   43.7280 H   0  0  0  0  0  0  0  0  0  0  0  0
   40.2000   26.0440   43.6780 C   0  0  0  0  0  3  0  0  0  0  0  0
   40.0120   27.2760   43.0860 C   0  0  0  0  0  3  0  0  0  0  0  0
   38.9890   27.4950   42.1740 C   0  0  0  0  0  0  0  0  0  0  0  0
   38.8260   28.7370   41.5990 C   0  0  0  0  0  3  0  0  0  0  0  0
   36.9120   32.5760   39.9720 C   0  0  0  0  0  0  0  0  0  0  0  0
   36.8070   31.2860   40.5400 C   0  0  0  0  0  0  0  0  0  0  0  0
   37.7810   30.3520   40.1710 C   0  0  0  0  0  0  0  0  0  0  0  0
   38.7540   30.7200   39.3070 N   0  0  0  0  0  0  0  0  0  0  0  0
   38.8180   31.9700   38.7840 C   0  0  0  0  0  0  0  0  0  0  0  0
   37.8920   32.8820   39.1250 N   0  0  0  0  0  0  0  0  0  0  0  0
   36.1440   33.2920   40.2700 H   0  0  0  0  0  0  0  0  0  0  0  0
   39.6400   32.1840   38.0900 H   0  0  0  0  0  0  0  0  0  0  0  0
   35.8280   30.8860   41.4210 O   0  0  0  0  0  0  0  0  0  0  0  0
   35.6440   31.4660   42.2300 H   0  0  0  0  0  0  0  0  0  0  0  0
  1 12  1  0  0  0  0
  2  1  2  0  0  0  0
  2  4  1  0  0  0  0
  3  2  1  0  0  0  0
  4  5  2  0  0  0  0
  5 11  1  0  0  0  0
  5  6  1  0  0  0  0
  6  7  2  0  0  0  0
  7  9  1  0  0  0  0
  7  8  1  0  0  0  0
 10  9  2  0  0  0  0
 11 10  1  0  0  0  0
 12 11  2  0  0  0  0
 13 19  1  0  0  0  0
 13 14  1  0  0  0  0
 14 21  1  0  0  0  0
 15 14  2  0  0  0  0
 15  1  1  0  0  0  0
 16 15  1  0  0  0  0
 17 18  1  0  0  0  0
 17 16  2  0  0  0  0
 18 13  2  0  0  0  0
 20 17  1  0  0  0  0
 21 22  1  0  0  0  0
M  END
>  <minimizedAffinity>
-4.97461081

$$$$

 OpenBabel03252504053D

 22 24  0  0  0  0  0  0  0  0999 V2000
   36.2180   29.5560   38.9590 C   0  0  0  0  0  0  0  0  0  0  0  0
   36.4160   30.6800   39.7160 C   0  0  0  0  0  0  0  0  0  0  0  0
   36.2440   31.6080   39.1900 H   0  0  0  0  0  0  0  0  0  0  0  0
   36.8020   30.5760   41.0350 C   0  0  0  0  0  3  0  0  0  0  0  0
   37.0070   29.3610   41.6540 C   0  0  0  0  0  0  0  0  0  0  0  0
   37.3820   29.2510   42.9330 N   0  0  0  0  0  0  0  0  0  0  0  0
   37.5610   28.0340   43.4610 C   0  0  0  0  0  0  0  0  0  0  0  0
   37.8660   27.9940   44.5050 H   0  0  0  0  0  0  0  0  0  0  0  0
   37.3890   26.8420   42.7850 C   0  0  0  0  0  3  0  0  0  0  0  0
   37.0030   26.9700   41.4670 C   0  0  0  0  0  3  0  0  0  0  0  0
   36.8070   28.2150   40.8850 C   0  0  0  0  0  0  0  0  0  0  0  0
   36.4220   28.3110   39.5660 C   0  0  0  0  0  3  0  0  0  0  0  0
   36.1540   29.5930   35.1880 C   0  0  0  0  0  0  0  0  0  0  0  0
   36.6840   29.7180   36.4930 C   0  0  0  0  0  0  0  0  0  0  0  0
   35.8120   29.4660   37.5560 C   0  0  0  0  0  0  0  0  0  0  0  0
   34.5310   29.1220   37.2920 N   0  0  0  0  0  0  0  0  0  0  0  0
   34.0610   29.0140   36.0250 C   0  0  0  0  0  0  0  0  0  0  0  0
   34.8830   29.2520   34.9880 N   0  0  0  0  0  0  0  0  0  0  0  0
   36.8470   29.7930   34.3700 H   0  0  0  0  0  0  0  0  0  0  0  0
   33.0090   28.7310   35.9000 H   0  0  0  0  0  0  0  0  0  0  0  0
   37.9830   30.0660   36.7880 O   0  0  0  0  0  0  0  0  0  0  0  0
   38.7310   29.5660   36.3250 H   0  0  0  0  0  0  0  0  0  0  0  0
  1 12  2  0  0  0  0
  1  2  1  0  0  0  0
  2  4  2  0  0  0  0
  3  2  1  0  0  0  0
  4  5  1  0  0  0  0
  5  6  1  0  0  0  0
  6  7  2  0  0  0  0
  7  8  1  0  0  0  0
  9  7  1  0  0  0  0
 10  9  2  0  0  0  0
 11 10  1  0  0  0  0
 11  5  2  0  0  0  0
 12 11  1  0  0  0  0
 13 14  1  0  0  0  0
 14 21  1  0  0  0  0
 14 15  2  0  0  0  0
 15  1  1  0  0  0  0
 16 15  1  0  0  0  0
 17 16  2  0  0  0  0
 18 13  2  0  0  0  0
 18 17  1  0  0  0  0
 19 13  1  0  0  0  0
 20 17  1  0  0  0  0
 22 21  1  0  0  0  0
M  END
>  <minimizedAffinity>
-4.96003532

$$$$

 OpenBabel03252504053D

 22 24  0  0  0  0  0  0  0  0999 V2000
   37.6420   29.1460   41.7790 C   0  0  0  0  0  0  0  0  0  0  0  0
   37.4290   28.6950   43.0550 C   0  0  0  0  0  0  0  0  0  0  0  0
   37.4980   29.4600   43.8160 H   0  0  0  0  0  0  0  0  0  0  0  0
   37.1540   27.3650   43.2910 C   0  0  0  0  0  3  0  0  0  0  0  0
   37.0800   26.4330   42.2770 C   0  0  0  0  0  0  0  0  0  0  0  0
   36.8130   25.1400   42.4960 N   0  0  0  0  0  0  0  0  0  0  0  0
   36.7580   24.2980   41.4580 C   0  0  0  0  0  0  0  0  0  0  0  0
   36.5390   23.2560   41.6850 H   0  0  0  0  0  0  0  0  0  0  0  0
   36.9570   24.6500   40.1380 C   0  0  0  0  0  3  0  0  0  0  0  0
   37.2310   25.9850   39.9260 C   0  0  0  0  0  3  0  0  0  0  0  0
   37.2960   26.8890   40.9770 C   0  0  0  0  0  0  0  0  0  0  0  0
   37.5720   28.2170   40.7350 C   0  0  0  0  0  3  0  0  0  0  0  0
   39.3220   32.4500   41.0880 C   0  0  0  0  0  0  0  0  0  0  0  0
   39.1710   31.1310   41.5740 C   0  0  0  0  0  0  0  0  0  0  0  0
   37.9430   30.5070   41.3360 C   0  0  0  0  0  0  0  0  0  0  0  0
   36.9800   31.1790   40.6660 N   0  0  0  0  0  0  0  0  0  0  0  0
   37.1660   32.4450   40.2160 C   0  0  0  0  0  0  0  0  0  0  0  0
   38.3390   33.0640   40.4350 N   0  0  0  0  0  0  0  0  0  0  0  0
   40.2860   32.9230   41.2820 H   0  0  0  0  0  0  0  0  0  0  0  0
   36.3320   32.9170   39.6830 H   0  0  0  0  0  0  0  0  0  0  0  0
   40.1360   30.4250   42.2580 O   0  0  0  0  0  0  0  0  0  0  0  0
   41.0660   30.3770   41.8630 H   0  0  0  0  0  0  0  0  0  0  0  0
  1  2  1  0  0  0  0
  2  4  2  0  0  0  0
  2  3  1  0  0  0  0
  5  6  1  0  0  0  0
  5  4  1  0  0  0  0
  7  8  1  0  0  0  0
  7  6  2  0  0  0  0
  9  7  1  0  0  0  0
 10  9  2  0  0  0  0
 10 11  1  0  0  0  0
 11  5  2  0  0  0  0
 12 11  1  0  0  0  0
 12  1  2  0  0  0  0
 13 19  1  0  0  0  0
 13 14  1  0  0  0  0
 14 21  1  0  0  0  0
 15 14  2  0  0  0  0
 15  1  1  0  0  0  0
 16 15  1  0  0  0  0
 17 18  1  0  0  0  0
 17 16  2  0  0  0  0
 18 13  2  0  0  0  0
 20 17  1  0  0  0  0
 22 21  1  0  0  0  0
M  END
>  <minimizedAffinity>
-4.95270157

$$$$

 OpenBabel03252504053D

 22 24  0  0  0  0  0  0  0  0999 V2000
   37.1340   28.7690   39.6920 C   0  0  0  0  0  0  0  0  0  0  0  0
   36.4710   28.1440   38.6680 C   0  0  0  0  0  0  0  0  0  0  0  0
   36.2240   28.7890   37.8370 H   0  0  0  0  0  0  0  0  0  0  0  0
   36.1730   26.8010   38.7450 C   0  0  0  0  0  3  0  0  0  0  0  0
   36.5150   26.0270   39.8350 C   0  0  0  0  0  0  0  0  0  0  0  0
   36.2290   24.7230   39.9180 N   0  0  0  0  0  0  0  0  0  0  0  0
   36.5960   24.0410   41.0090 C   0  0  0  0  0  0  0  0  0  0  0  0
   36.3420   22.9820   41.0330 H   0  0  0  0  0  0  0  0  0  0  0  0
   37.2640   24.5750   42.0940 C   0  0  0  0  0  3  0  0  0  0  0  0
   37.5530   25.9200   41.9940 C   0  0  0  0  0  3  0  0  0  0  0  0
   37.1890   26.6610   40.8780 C   0  0  0  0  0  0  0  0  0  0  0  0
   37.4900   28.0030   40.8070 C   0  0  0  0  0  3  0  0  0  0  0  0
   37.2750   32.4590   40.4570 C   0  0  0  0  0  0  0  0  0  0  0  0
   36.7630   31.1410   40.4400 C   0  0  0  0  0  0  0  0  0  0  0  0
   37.5340   30.1730   39.7900 C   0  0  0  0  0  0  0  0  0  0  0  0
   38.7070   30.5350   39.2210 N   0  0  0  0  0  0  0  0  0  0  0  0
   39.1620   31.8110   39.2600 C   0  0  0  0  0  0  0  0  0  0  0  0
   38.4360   32.7580   39.8790 N   0  0  0  0  0  0  0  0  0  0  0  0
   36.6610   33.2030   40.9670 H   0  0  0  0  0  0  0  0  0  0  0  0
   40.1230   32.0180   38.7730 H   0  0  0  0  0  0  0  0  0  0  0  0
   35.5740   30.7480   41.0110 O   0  0  0  0  0  0  0  0  0  0  0  0
   35.3920   31.0110   41.9700 H   0  0  0  0  0  0  0  0  0  0  0  0
  1 15  1  0  0  0  0
  1 12  1  0  0  0  0
  2  4  1  0  0  0  0
  2  1  2  0  0  0  0
  3  2  1  0  0  0  0
  4  5  2  0  0  0  0
  5  6  1  0  0  0  0
  5 11  1  0  0  0  0
  6  7  2  0  0  0  0
  7  8  1  0  0  0  0
  7  9  1  0  0  0  0
 10  9  2  0  0  0  0
 11 10  1  0  0  0  0
 12 11  2  0  0  0  0
 13 19  1  0  0  0  0
 14 13  1  0  0  0  0
 14 21  1  0  0  0  0
 15 14  2  0  0  0  0
 16 17  2  0  0  0  0
 16 15  1  0  0  0  0
 17 18  1  0  0  0  0
 18 13  2  0  0  0  0
 20 17  1  0  0  0  0
 21 22  1  0  0  0  0
M  END
>  <minimizedAffinity>
-4.94381762

$$$$
