
     RDKit          3D

 46 50  0  0  0  0  0  0  0  0999 V2000
   47.1719   31.2832   46.7108 C   0  0  0  0  0  0  0  0  0  0  0  0
   46.7746   31.7620   48.0838 C   0  0  1  0  0  0  0  0  0  0  0  0
   46.1765   30.7621   49.0114 C   0  0  0  0  0  0  0  0  0  0  0  0
   47.5138   31.2591   49.2694 C   0  0  1  0  0  0  0  0  0  0  0  0
   48.7672   30.5091   49.0426 C   0  0  0  0  0  0  0  0  0  0  0  0
   49.5884   30.2386   50.3321 C   0  0  0  0  0  0  0  0  0  0  0  0
   50.0795   31.2539   49.3646 C   0  0  0  0  0  0  0  0  0  0  0  0
   45.9313   33.1484   45.9161 C   0  0  0  0  0  0  0  0  0  0  0  0
   46.9391   32.3973   45.6999 C   0  0  0  0  0  0  0  0  0  0  0  0
   44.5112   36.1670   44.3563 C   0  0  0  0  0  0  0  0  0  0  0  0
   45.1115   36.1815   43.1049 C   0  0  0  0  0  0  0  0  0  0  0  0
   45.9920   35.1822   42.8259 C   0  0  0  0  0  0  0  0  0  0  0  0
   46.2338   34.2376   43.7706 N   0  0  0  0  0  0  0  0  0  0  0  0
   45.6530   34.2212   44.9817 C   0  0  0  0  0  0  0  0  0  0  0  0
   44.7943   35.2106   45.2341 N   0  0  0  0  0  0  0  0  0  0  0  0
   46.6166   30.3891   46.3798 H   0  0  0  0  0  0  0  0  0  0  0  0
   48.2550   31.0398   46.7502 H   0  0  0  0  0  0  0  0  0  0  0  0
   46.4011   32.8090   48.1442 H   0  0  0  0  0  0  0  0  0  0  0  0
   45.2959   31.0567   49.5986 H   0  0  0  0  0  0  0  0  0  0  0  0
   46.0681   29.7188   48.6048 H   0  0  0  0  0  0  0  0  0  0  0  0
   47.5919   31.9859   50.1361 H   0  0  0  0  0  0  0  0  0  0  0  0
   48.7927   29.7311   48.2640 H   0  0  0  0  0  0  0  0  0  0  0  0
   50.0587   29.2484   50.3492 H   0  0  0  0  0  0  0  0  0  0  0  0
   49.1821   30.6321   51.2878 H   0  0  0  0  0  0  0  0  0  0  0  0
   50.9026   31.0184   48.6479 H   0  0  0  0  0  0  0  0  0  0  0  0
   49.9803   32.3289   49.5350 H   0  0  0  0  0  0  0  0  0  0  0  0
   45.1836   33.1256   46.7284 H   0  0  0  0  0  0  0  0  0  0  0  0
   47.5859   32.5492   44.8463 H   0  0  0  0  0  0  0  0  0  0  0  0
   43.8144   36.9681   44.5628 H   0  0  0  0  0  0  0  0  0  0  0  0
   44.8884   36.9541   42.3834 H   0  0  0  0  0  0  0  0  0  0  0  0
   46.6971   35.0703   41.5530 C   0  0  0  0  0  0  0  0  0  0  0  0
   46.8322   33.8905   40.8540 C   0  0  0  0  0  0  0  0  0  0  0  0
   46.4043   32.9899   41.2457 H   0  0  0  0  0  0  0  0  0  0  0  0
   47.5006   33.7879   39.6485 C   0  0  0  0  0  0  0  0  0  0  0  0
   48.0633   34.9299   39.1165 C   0  0  0  0  0  0  0  0  0  0  0  0
   48.7316   34.9072   37.9428 N   0  0  0  0  0  0  0  0  0  0  0  0
   49.2856   36.0130   37.4117 C   0  0  0  0  0  0  0  0  0  0  0  0
   49.8098   35.9383   36.4685 H   0  0  0  0  0  0  0  0  0  0  0  0
   49.2168   37.2507   38.0181 C   0  0  0  0  0  0  0  0  0  0  0  0
   48.5354   37.2822   39.2181 C   0  0  0  0  0  0  0  0  0  0  0  0
   47.9685   36.1470   39.7601 C   0  0  0  0  0  0  0  0  0  0  0  0
   47.2852   36.1675   40.9592 C   0  0  0  0  0  0  0  0  0  0  0  0
   47.5854   32.8456   39.1304 H   0  0  0  0  0  0  0  0  0  0  0  0
   49.6475   38.1631   37.6260 H   0  0  0  0  0  0  0  0  0  0  0  0
   48.4225   38.2205   39.7837 H   0  0  0  0  0  0  0  0  0  0  0  0
   47.2156   37.1292   41.4583 H   0  0  0  0  0  0  0  0  0  0  0  0
  1  2  1  0
  2  3  1  0
  2  4  1  0
  3  4  1  0
  5  4  1  0
  5  7  1  0
  5  6  1  0
  7  6  1  0
  9  8  2  0
  9  1  1  0
 10 15  2  0
 11 10  1  0
 12 11  2  0
 12 13  1  0
 13 14  2  0
 14 15  1  0
 14  8  1  0
  1 16  1  0
  1 17  1  0
  2 18  1  6
  3 19  1  0
  3 20  1  0
  4 21  1  1
  5 22  1  0
  6 23  1  0
  6 24  1  0
  7 25  1  0
  7 26  1  0
  8 27  1  0
  9 28  1  0
 10 29  1  0
 11 30  1  0
 31 32  2  0
 32 33  1  0
 32 34  1  0
 34 35  2  0
 35 36  1  0
 36 37  2  0
 37 38  1  0
 37 39  1  0
 39 40  2  0
 40 41  1  0
 41 42  2  0
 42 31  1  0
 41 35  1  0
 34 43  1  0
 39 44  1  0
 40 45  1  0
 42 46  1  0
 12 31  1  0
M  ISO  8  16   8  17   8  18  13  19  13  20  13  21  13  22  13  23  13
M  ISO  7  24  13  25  13  26  13  29  14  30  14  33  16  38  16
M  END
>  <DihAtoms>  (1) 
10,11,30,31

>  <DihDeg>  (1) 
0.0017594294603466443

$$$$
