
 OpenBabel03252509243D

 30 33  0  0  1  0  0  0  0  0999 V2000
   46.5310   34.9600   41.9580 C   0  0  1  0  0  0  0  0  0  0  0  0
   48.0420   35.3210   41.9670 C   0  0  0  0  0  0  0  0  0  0  0  0
   47.4270   33.9790   41.4620 C   0  0  2  0  0  0  0  0  0  0  0  0
   45.9320   35.6590   41.3390 H   0  0  0  0  0  0  0  0  0  0  0  0
   48.4260   35.9470   41.1540 H   0  0  0  0  0  0  0  0  0  0  0  0
   48.5940   35.2980   42.9000 H   0  0  0  0  0  0  0  0  0  0  0  0
   47.6850   33.1180   42.1250 H   0  0  0  0  0  0  0  0  0  0  0  0
   47.5600   33.6980   39.9950 C   0  0  0  0  0  0  0  0  0  0  0  0
   48.2920   34.6390   39.2740 C   0  0  0  0  0  0  0  0  0  0  0  0
   48.7320   35.5090   39.7420 H   0  0  0  0  0  0  0  0  0  0  0  0
   48.4650   34.4590   37.9100 C   0  0  0  0  0  3  0  0  0  0  0  0
   47.9140   33.3570   37.2890 C   0  0  0  0  0  0  0  0  0  0  0  0
   48.0580   33.1400   35.9530 N   0  0  0  0  0  0  0  0  0  0  0  0
   47.5110   32.0590   35.3680 C   0  0  0  0  0  0  0  0  0  0  0  0
   47.6420   31.9110   34.3010 H   0  0  0  0  0  0  0  0  0  0  0  0
   46.7820   31.1110   36.0550 C   0  0  0  0  0  3  0  0  0  0  0  0
   46.6540   31.3630   37.4160 C   0  0  0  0  0  3  0  0  0  0  0  0
   47.1980   32.4630   38.0660 C   0  0  0  0  0  0  0  0  0  0  0  0
   46.9900   32.5850   39.4260 C   0  0  0  0  0  3  0  0  0  0  0  0
   44.5890   35.5140   45.1220 C   0  0  0  0  0  0  0  0  0  0  0  0
   45.0800   35.7430   43.7940 C   0  0  0  0  0  0  0  0  0  0  0  0
   46.0160   34.8330   43.3730 C   0  0  0  0  0  0  0  0  0  0  0  0
   46.4450   33.7830   44.1770 N   0  0  0  0  0  0  0  0  0  0  0  0
   45.9460   33.6290   45.4060 C   0  0  0  0  0  0  0  0  0  0  0  0
   45.0150   34.4960   45.8830 N   0  0  0  0  0  0  0  0  0  0  0  0
   43.8490   36.2060   45.4980 H   0  0  0  0  0  0  0  0  0  0  0  0
   46.3780   32.7720   45.9030 H   0  0  0  0  0  0  0  0  0  0  0  0
   44.6520   36.8380   42.9890 N   0  0  0  0  0  0  0  0  0  0  0  0
   44.2500   36.7460   42.0190 H   0  0  0  0  0  0  0  0  0  0  0  0
   44.8140   37.7210   43.5430 H   0  0  0  0  0  0  0  0  0  0  0  0
  1  4  1  6  0  0  0
  1  2  1  0  0  0  0
  1 22  1  0  0  0  0
  2  6  1  0  0  0  0
  3  1  1  0  0  0  0
  3  2  1  0  0  0  0
  3  7  1  1  0  0  0
  5  2  1  0  0  0  0
  8  3  1  0  0  0  0
  9 10  1  0  0  0  0
  9  8  2  0  0  0  0
 11  9  1  0  0  0  0
 12 11  2  0  0  0  0
 12 18  1  0  0  0  0
 13 12  1  0  0  0  0
 14 13  2  0  0  0  0
 14 16  1  0  0  0  0
 15 14  1  0  0  0  0
 16 17  2  0  0  0  0
 17 18  1  0  0  0  0
 18 19  2  0  0  0  0
 19  8  1  0  0  0  0
 20 26  1  0  0  0  0
 20 25  1  0  0  0  0
 21 20  2  0  0  0  0
 22 21  1  0  0  0  0
 22 23  2  0  0  0  0
 23 24  1  0  0  0  0
 24 25  2  0  0  0  0
 24 27  1  0  0  0  0
 28 30  1  0  0  0  0
 28 21  1  0  0  0  0
 29 28  1  0  0  0  0
M  END
>  <minimizedAffinity>
-5.85639

>  <minimizedRMSD>
0.141268805

$$$$
