
 OpenBabel03252508043D

 45 49  0  0  1  0  0  0  0  0999 V2000
   42.2050   33.3260   41.0310 C   0  0  0  0  0  0  0  0  0  0  0  0
   42.8580   34.4720   41.3760 C   0  0  0  0  0  0  0  0  0  0  0  0
   42.1110   35.6610   41.4800 C   0  0  0  0  0  0  0  0  0  0  0  0
   40.7610   35.7220   41.2520 C   0  0  0  0  0  0  0  0  0  0  0  0
   40.1060   34.5690   40.9060 C   0  0  0  0  0  0  0  0  0  0  0  0
   40.8240   33.4140   40.8030 C   0  0  0  0  0  0  0  0  0  0  0  0
   42.5520   36.6150   41.7400 H   0  0  0  0  0  0  0  0  0  0  0  0
   40.1990   36.6170   41.3310 H   0  0  0  0  0  0  0  0  0  0  0  0
   39.0630   34.5310   40.7130 H   0  0  0  0  0  0  0  0  0  0  0  0
   40.2980   32.4870   40.5250 H   0  0  0  0  0  0  0  0  0  0  0  0
   42.9800   31.8350   40.9230 S   0  0  0  0  0  0  0  0  0  0  0  0
   41.9140   30.9920   40.1910 O   0  0  0  0  0  0  0  0  0  0  0  0
   43.1820   31.2180   42.2930 O   0  0  0  0  0  0  0  0  0  0  0  0
   44.1380   31.2480   39.8830 C   0  0  0  0  0  0  0  0  0  0  0  0
   45.1860   30.3070   40.0550 C   0  0  0  0  0  0  0  0  0  0  0  0
   45.1230   29.8570   41.0640 H   0  0  0  0  0  0  0  0  0  0  0  0
   46.2090   29.9200   39.2140 C   0  0  0  0  0  0  0  0  0  0  0  0
   46.1100   30.6220   38.0430 C   0  0  0  0  0  0  0  0  0  0  0  0
   47.0730   30.3360   37.1590 N   0  0  0  0  0  0  0  0  0  0  0  0
   47.2070   30.8990   35.9490 C   0  0  0  0  0  0  0  0  0  0  0  0
   47.9900   30.6480   35.2650 H   0  0  0  0  0  0  0  0  0  0  0  0
   46.2940   31.8530   35.5560 C   0  0  0  0  0  0  0  0  0  0  0  0
   45.2930   32.1630   36.4490 C   0  0  0  0  0  0  0  0  0  0  0  0
   45.1860   31.5620   37.6860 C   0  0  0  0  0  0  0  0  0  0  0  0
   44.2150   31.8620   38.6050 C   0  0  0  0  0  0  0  0  0  0  0  0
   44.2960   34.5110   41.6300 C   0  0  0  0  0  0  0  0  0  0  0  0
   45.1900   34.5190   40.7190 O   0  0  0  0  0  0  0  0  0  0  0  0
   44.6190   34.5440   43.0260 C   0  0  0  0  0  0  0  0  0  0  0  0
   44.3060   35.7740   43.7020 C   0  0  0  0  0  0  0  0  0  0  0  0
   44.6030   35.8230   45.0580 C   0  0  0  0  0  0  0  0  0  0  0  0
   45.1560   34.7310   45.6470 N   0  0  0  0  0  0  0  0  0  0  0  0
   45.4270   33.5980   44.9490 C   0  0  0  0  0  0  0  0  0  0  0  0
   45.1630   33.5260   43.6920 N   0  0  0  0  0  0  0  0  0  0  0  0
   43.8810   36.6640   43.3290 H   0  0  0  0  0  0  0  0  0  0  0  0
   44.4150   36.6970   45.6830 H   0  0  0  0  0  0  0  0  0  0  0  0
   46.0240   32.4500   45.6760 C   0  0  1  0  0  0  0  0  0  0  0  0
   46.9730   32.7220   46.8240 C   0  0  0  0  0  0  0  0  0  0  0  0
   45.5660   32.2800   47.0710 C   0  0  1  0  0  0  0  0  0  0  0  0
   46.2260   31.5550   45.0980 H   0  0  0  0  0  0  0  0  0  0  0  0
   47.7760   31.9890   46.9950 H   0  0  0  0  0  0  0  0  0  0  0  0
   47.2670   33.7860   46.9060 H   0  0  0  0  0  0  0  0  0  0  0  0
   45.4220   31.2810   47.5350 H   0  0  0  0  0  0  0  0  0  0  0  0
   44.7770   33.3280   47.7050 N   0  0  0  0  0  0  0  0  0  0  0  0
   45.3230   34.1130   48.0690 H   0  0  0  0  0  0  0  0  0  0  0  0
   44.2050   32.9640   48.4940 H   0  0  0  0  0  0  0  0  0  0  0  0
  1  2  1  0  0  0  0
  2  3  2  0  0  0  0
  2 26  1  0  0  0  0
  3  7  1  0  0  0  0
  4  8  1  0  0  0  0
  4  3  1  0  0  0  0
  5  4  2  0  0  0  0
  6  5  1  0  0  0  0
  6  1  2  0  0  0  0
  9  5  1  0  0  0  0
 10  6  1  0  0  0  0
 11  1  1  0  0  0  0
 11 13  2  0  0  0  0
 12 11  2  0  0  0  0
 14 15  1  0  0  0  0
 14 11  1  0  0  0  0
 15 16  1  0  0  0  0
 17 15  2  0  0  0  0
 18 17  1  0  0  0  0
 19 18  2  0  0  0  0
 20 19  1  0  0  0  0
 21 20  1  0  0  0  0
 22 20  2  0  0  0  0
 22 23  1  0  0  0  0
 23 24  2  0  0  0  0
 24 18  1  0  0  0  0
 24 25  1  0  0  0  0
 25 14  2  0  0  0  0
 26 28  1  0  0  0  0
 27 26  2  0  0  0  0
 28 33  2  0  0  0  0
 28 29  1  0  0  0  0
 29 30  2  0  0  0  0
 30 31  1  0  0  0  0
 30 35  1  0  0  0  0
 32 31  2  0  0  0  0
 32 36  1  0  0  0  0
 33 32  1  0  0  0  0
 34 29  1  0  0  0  0
 36 39  1  6  0  0  0
 36 37  1  0  0  0  0
 36 38  1  0  0  0  0
 37 41  1  0  0  0  0
 37 40  1  0  0  0  0
 37 38  1  0  0  0  0
 38 42  1  1  0  0  0
 38 43  1  0  0  0  0
 43 44  1  0  0  0  0
 43 45  1  0  0  0  0
M  END
>  <minimizedAffinity>
-6.16344261

>  <minimizedRMSD>
2.27421284

$$$$
