REMARK  Name = 
REMARK  2 active torsions:
REMARK  status: ('A' for Active; 'I' for Inactive)
REMARK    1  A    between atoms: C_5  and  C_7
REMARK    2  A    between atoms: C_10  and  C_17
REMARK                            x       y       z     vdW  Elec       q    Type
REMARK                         _______ _______ _______ _____ _____    ______ ____
ROOT
ATOM      1  C   UNL     1      45.865  32.930  46.710  0.00  0.00    +0.000 A 
ATOM      2  C   UNL     1      45.115  32.783  47.905  0.00  0.00    +0.000 A 
ATOM      3  C   UNL     1      45.495  31.824  48.780  0.00  0.00    +0.000 A 
ATOM      4  C   UNL     1      46.614  31.007  48.480  0.00  0.00    +0.000 A 
ATOM      5  S   UNL     1      47.153  31.647  46.857  0.00  0.00    +0.000 S 
ATOM      6  H   UNL     1      44.267  33.421  48.107  0.00  0.00    +0.000 HD
ATOM      7  H   UNL     1      45.043  31.592  49.703  0.00  0.00    +0.000 HD
ENDROOT
BRANCH   4   8
ATOM      8  C   UNL     1      47.264  29.948  49.143  0.00  0.00    +0.000 A 
ATOM      9  C   UNL     1      47.330  28.725  48.512  0.00  0.00    +0.000 A 
ATOM     10  H   UNL     1      46.912  28.527  47.535  0.00  0.00    +0.000 HD
ATOM     11  C   UNL     1      47.984  27.698  49.204  0.00  0.00    +0.000 A 
ATOM     12  C   UNL     1      48.531  27.932  50.467  0.00  0.00    +0.000 A 
ATOM     13  N   UNL     1      49.153  26.889  51.084  0.00  0.00    +0.000 NA
ATOM     14  C   UNL     1      49.705  27.035  52.303  0.00  0.00    +0.000 A 
ATOM     15  H   UNL     1      50.183  26.199  52.755  0.00  0.00    +0.000 HD
ATOM     16  C   UNL     1      49.622  28.285  52.914  0.00  0.00    +0.000 A 
ATOM     17  C   UNL     1      48.999  29.353  52.312  0.00  0.00    +0.000 A 
ATOM     18  C   UNL     1      48.440  29.182  51.064  0.00  0.00    +0.000 A 
ATOM     19  C   UNL     1      47.790  30.220  50.387  0.00  0.00    +0.000 A 
ENDBRANCH   4   8
BRANCH   1  24
ATOM     20  C   UNL     1      44.586  35.796  44.724  0.00  0.00    +0.000 A 
ATOM     21  C   UNL     1      45.274  35.572  43.505  0.00  0.00    +0.000 A 
ATOM     22  C   UNL     1      46.135  34.459  43.425  0.00  0.00    +0.000 A 
ATOM     23  N   UNL     1      46.257  33.657  44.536  0.00  0.00    +0.000 NA
ATOM     24  C   UNL     1      45.575  33.920  45.673  0.00  0.00    +0.000 A 
ATOM     25  N   UNL     1      44.741  34.985  45.772  0.00  0.00    +0.000 NA
ATOM     26  H   UNL     1      43.926  36.648  44.787  0.00  0.00    +0.000 HD
ATOM     27  H   UNL     1      45.176  36.199  42.645  0.00  0.00    +0.000 HD
ATOM     28  H   UNL     1      46.697  34.216  42.534  0.00  0.00    +0.000 HD
ENDBRANCH   1  24
TORSDOF 2
