REMARK  Name = 
REMARK  4 active torsions:
REMARK  status: ('A' for Active; 'I' for Inactive)
REMARK    1  A    between atoms: C_2  and  N_11
REMARK    2  A    between atoms: C_3  and  C_7
REMARK    3  A    between atoms: C_9  and  C_10
REMARK    4  A    between atoms: C_10  and  C_22
REMARK                            x       y       z     vdW  Elec       q    Type
REMARK                         _______ _______ _______ _____ _____    ______ ____
ROOT
ATOM      1  C   UNL     1      46.576  35.067  41.932  0.00  0.00    +0.000 C 
ATOM      2  C   UNL     1      48.117  35.286  41.935  0.00  0.00    +0.000 C 
ATOM      3  C   UNL     1      47.349  34.078  41.306  0.00  0.00    +0.000 C 
ATOM      4  H   UNL     1      46.020  35.853  41.382  0.00  0.00    +0.000 HD
ATOM      5  H   UNL     1      48.680  35.043  42.840  0.00  0.00    +0.000 HD
ATOM      6  H   UNL     1      48.453  36.054  41.243  0.00  0.00    +0.000 HD
ATOM      7  H   UNL     1      47.520  33.097  41.832  0.00  0.00    +0.000 HD
ENDROOT
BRANCH   1  10
ATOM      8  C   UNL     1      44.676  35.373  45.151  0.00  0.00    +0.000 A 
ATOM      9  C   UNL     1      45.130  35.704  43.825  0.00  0.00    +0.000 A 
ATOM     10  C   UNL     1      46.072  34.859  43.342  0.00  0.00    +0.000 A 
ATOM     11  N   UNL     1      46.553  33.783  44.053  0.00  0.00    +0.000 NA
ATOM     12  C   UNL     1      46.093  33.515  45.298  0.00  0.00    +0.000 A 
ATOM     13  N   UNL     1      45.150  34.316  45.846  0.00  0.00    +0.000 NA
ATOM     14  H   UNL     1      43.927  36.007  45.590  0.00  0.00    +0.000 HD
ATOM     15  H   UNL     1      46.577  32.644  45.701  0.00  0.00    +0.000 HD
BRANCH   9  16
ATOM     16  N   UNL     1      44.653  36.813  43.113  0.00  0.00    +0.000 N 
ATOM     17  H   UNL     1      45.427  37.471  43.389  0.00  0.00    +0.000 HD
ATOM     18  H   UNL     1      43.784  36.846  42.528  0.00  0.00    +0.000 HD
ENDBRANCH   9  16
ENDBRANCH   1  10
BRANCH   3  19
ATOM     19  C   UNL     1      47.390  33.911  39.808  0.00  0.00    +0.000 C 
ATOM     20  H   UNL     1      46.384  33.648  39.401  0.00  0.00    +0.000 HD
ATOM     21  H   UNL     1      48.116  33.114  39.536  0.00  0.00    +0.000 HD
BRANCH  19  22
ATOM     22  C   UNL     1      47.897  35.164  39.145  0.00  0.00    +0.000 A 
ATOM     23  C   UNL     1      48.800  36.000  39.797  0.00  0.00    +0.000 A 
ATOM     24  H   UNL     1      49.156  35.767  40.795  0.00  0.00    +0.000 HD
ATOM     25  C   UNL     1      49.297  37.158  39.237  0.00  0.00    +0.000 A 
ATOM     26  C   UNL     1      48.877  37.512  37.957  0.00  0.00    +0.000 A 
ATOM     27  N   UNL     1      49.343  38.637  37.381  0.00  0.00    +0.000 NA
ATOM     28  C   UNL     1      48.977  39.034  36.148  0.00  0.00    +0.000 A 
ATOM     29  H   UNL     1      49.345  39.937  35.674  0.00  0.00    +0.000 HD
ATOM     30  C   UNL     1      48.079  38.229  35.464  0.00  0.00    +0.000 A 
ATOM     31  C   UNL     1      47.573  37.066  36.012  0.00  0.00    +0.000 A 
ATOM     32  C   UNL     1      47.981  36.702  37.283  0.00  0.00    +0.000 A 
ATOM     33  C   UNL     1      47.496  35.542  37.869  0.00  0.00    +0.000 A 
ENDBRANCH  19  22
ENDBRANCH   3  19
TORSDOF 4
