REMARK  Name = 
REMARK  4 active torsions:
REMARK  status: ('A' for Active; 'I' for Inactive)
REMARK    1  A    between atoms: N_1  and  C_9
REMARK    2  A    between atoms: C_6  and  N_16
REMARK    3  A    between atoms: C_7  and  C_11
REMARK    4  A    between atoms: N_16  and  C_34
REMARK                            x       y       z     vdW  Elec       q    Type
REMARK                         _______ _______ _______ _____ _____    ______ ____
ROOT
ATOM      1  N   UNL     1      49.346  33.224  41.497  0.00  0.00    +0.000 NA
ATOM      2  C   UNL     1      50.671  33.122  42.055  0.00  0.00    +0.000 C 
ATOM      3  C   UNL     1      51.333  31.804  41.768  0.00  0.00    +0.000 C 
ATOM      4  C   UNL     1      50.593  30.724  42.526  0.00  0.00    +0.000 C 
ATOM      5  C   UNL     1      49.107  31.002  42.542  0.00  0.00    +0.000 C 
ATOM      6  C   UNL     1      48.760  31.911  41.371  0.00  0.00    +0.000 C 
ATOM      7  H   UNL     1      50.639  33.248  43.166  0.00  0.00    +0.000 HD
ATOM      8  H   UNL     1      51.310  33.911  41.645  0.00  0.00    +0.000 HD
ATOM      9  H   UNL     1      52.345  31.872  42.244  0.00  0.00    +0.000 HD
ATOM     10  H   UNL     1      51.447  31.608  40.694  0.00  0.00    +0.000 HD
ATOM     11  H   UNL     1      50.718  29.791  41.935  0.00  0.00    +0.000 HD
ATOM     12  H   UNL     1      51.007  30.540  43.533  0.00  0.00    +0.000 HD
ATOM     13  H   UNL     1      48.884  31.508  43.493  0.00  0.00    +0.000 HD
ATOM     14  H   UNL     1      48.501  30.091  42.422  0.00  0.00    +0.000 HD
ATOM     15  H   UNL     1      47.659  32.037  41.429  0.00  0.00    +0.000 HD
ENDROOT
BRANCH   1  18
ATOM     16  C   UNL     1      47.194  34.554  42.026  0.00  0.00    +0.000 C 
ATOM     17  C   UNL     1      48.288  35.453  41.684  0.00  0.00    +0.000 C 
ATOM     18  C   UNL     1      48.618  34.137  42.313  0.00  0.00    +0.000 C 
ATOM     19  H   UNL     1      46.717  33.836  41.296  0.00  0.00    +0.000 HD
ATOM     20  H   UNL     1      48.485  35.609  40.588  0.00  0.00    +0.000 HD
ATOM     21  H   UNL     1      48.353  36.403  42.240  0.00  0.00    +0.000 HD
ATOM     22  H   UNL     1      48.913  34.198  43.384  0.00  0.00    +0.000 HD
BRANCH  16  24
ATOM     23  C   UNL     1      45.516  36.035  43.166  0.00  0.00    +0.000 A 
ATOM     24  C   UNL     1      46.288  34.849  43.150  0.00  0.00    +0.000 A 
ATOM     25  C   UNL     1      46.159  33.972  44.222  0.00  0.00    +0.000 A 
ATOM     26  N   UNL     1      45.301  34.299  45.224  0.00  0.00    +0.000 NA
ATOM     27  C   UNL     1      44.577  35.424  45.224  0.00  0.00    +0.000 A 
ATOM     28  N   UNL     1      44.678  36.311  44.186  0.00  0.00    +0.000 NA
ATOM     29  H   UNL     1      45.644  36.690  42.316  0.00  0.00    +0.000 HD
ATOM     30  H   UNL     1      46.725  33.045  44.270  0.00  0.00    +0.000 HD
ATOM     31  H   UNL     1      43.895  35.680  46.025  0.00  0.00    +0.000 HD
ENDBRANCH  16  24
ENDBRANCH   1  18
BRANCH   6  32
ATOM     32  N   UNL     1      49.051  31.236  40.147  0.00  0.00    +0.000 N 
ATOM     33  H   UNL     1      49.516  30.284  40.205  0.00  0.00    +0.000 HD
BRANCH  32  34
ATOM     34  C   UNL     1      48.791  31.686  38.843  0.00  0.00    +0.000 A 
ATOM     35  C   UNL     1      47.968  32.726  38.509  0.00  0.00    +0.000 A 
ATOM     36  H   UNL     1      47.466  33.274  39.276  0.00  0.00    +0.000 HD
ATOM     37  C   UNL     1      47.693  33.183  37.245  0.00  0.00    +0.000 A 
ATOM     38  C   UNL     1      48.308  32.529  36.178  0.00  0.00    +0.000 A 
ATOM     39  N   UNL     1      48.108  32.896  34.901  0.00  0.00    +0.000 NA
ATOM     40  C   UNL     1      48.698  32.270  33.869  0.00  0.00    +0.000 A 
ATOM     41  H   UNL     1      48.445  32.671  32.906  0.00  0.00    +0.000 HD
ATOM     42  C   UNL     1      49.560  31.194  34.076  0.00  0.00    +0.000 A 
ATOM     43  C   UNL     1      49.758  30.826  35.390  0.00  0.00    +0.000 A 
ATOM     44  C   UNL     1      49.147  31.476  36.436  0.00  0.00    +0.000 A 
ATOM     45  C   UNL     1      49.365  31.087  37.729  0.00  0.00    +0.000 A 
ENDBRANCH  32  34
ENDBRANCH   6  32
TORSDOF 4
