
 OpenBabel03252500423D

 31 34  0  0  1  0  0  0  0  0999 V2000
   35.8170   30.1080   39.8840 C   0  0  1  0  0  0  0  0  0  0  0  0
   35.0810   28.8590   39.4700 C   0  0  0  0  0  0  0  0  0  0  0  0
   35.4870   29.0560   40.8850 C   0  0  1  0  0  0  0  0  0  0  0  0
   35.2830   31.0500   40.1460 H   0  0  0  0  0  0  0  0  0  0  0  0
   34.0010   29.0190   39.1920 H   0  0  0  0  0  0  0  0  0  0  0  0
   35.5800   28.1620   38.7980 H   0  0  0  0  0  0  0  0  0  0  0  0
   34.6190   29.2590   41.5930 H   0  0  0  0  0  0  0  0  0  0  0  0
   36.5420   28.2980   41.5480 C   0  0  0  0  0  0  0  0  0  0  0  0
   37.2210   28.9510   42.5750 C   0  0  0  0  0  0  0  0  0  0  0  0
   37.0060   29.9810   42.8840 H   0  0  0  0  0  0  0  0  0  0  0  0
   38.2470   28.3390   43.3050 C   0  0  0  0  0  3  0  0  0  0  0  0
   38.6260   27.0430   43.0260 C   0  0  0  0  0  0  0  0  0  0  0  0
   39.5970   26.3940   43.6800 N   0  0  0  0  0  0  0  0  0  0  0  0
   39.9440   25.1260   43.3820 C   0  0  0  0  0  0  0  0  0  0  0  0
   40.7360   24.6170   43.9260 H   0  0  0  0  0  0  0  0  0  0  0  0
   39.3110   24.4080   42.3710 C   0  0  0  0  0  3  0  0  0  0  0  0
   38.3090   25.0690   41.6900 C   0  0  0  0  0  3  0  0  0  0  0  0
   37.9790   26.3660   42.0200 C   0  0  0  0  0  0  0  0  0  0  0  0
   36.9770   27.0160   41.3340 C   0  0  0  0  0  3  0  0  0  0  0  0
   37.1950   30.2280   39.3590 C   0  0  0  0  0  0  0  0  0  0  0  0
   37.7930   29.3130   39.5790 H   0  0  0  0  0  0  0  0  0  0  0  0
   37.2170   30.3560   38.2340 H   0  0  0  0  0  0  0  0  0  0  0  0
   37.8790   31.4500   39.8440 C   0  0  0  0  0  0  0  0  0  0  0  0
   37.3250   32.6600   39.4910 C   0  0  0  0  0  0  0  0  0  0  0  0
   37.9550   33.8440   39.9350 C   0  0  0  0  0  0  0  0  0  0  0  0
   39.0750   33.7060   40.6860 N   0  0  0  0  0  0  0  0  0  0  0  0
   39.5760   32.4830   41.0030 C   0  0  0  0  0  0  0  0  0  0  0  0
   38.9840   31.3570   40.5860 N   0  0  0  0  0  0  0  0  0  0  0  0
   36.4700   32.9580   38.9130 H   0  0  0  0  0  0  0  0  0  0  0  0
   37.6680   34.8490   39.7580 H   0  0  0  0  0  0  0  0  0  0  0  0
   40.4740   32.3580   41.6050 H   0  0  0  0  0  0  0  0  0  0  0  0
  1  4  1  1  0  0  0
  1  3  1  0  0  0  0
  2  1  1  0  0  0  0
  2  3  1  0  0  0  0
  3  8  1  0  0  0  0
  3  7  1  1  0  0  0
  5  2  1  0  0  0  0
  6  2  1  0  0  0  0
  8  9  1  0  0  0  0
  9 10  1  0  0  0  0
  9 11  2  0  0  0  0
 12 11  1  0  0  0  0
 12 13  1  0  0  0  0
 14 13  2  0  0  0  0
 14 15  1  0  0  0  0
 16 14  1  0  0  0  0
 17 18  1  0  0  0  0
 17 16  2  0  0  0  0
 18 12  2  0  0  0  0
 19  8  2  0  0  0  0
 19 18  1  0  0  0  0
 20 21  1  0  0  0  0
 20 23  1  0  0  0  0
 20  1  1  0  0  0  0
 22 20  1  0  0  0  0
 23 28  1  0  0  0  0
 24 23  2  0  0  0  0
 24 25  1  0  0  0  0
 25 26  2  0  0  0  0
 26 27  1  0  0  0  0
 27 31  1  0  0  0  0
 28 27  2  0  0  0  0
 29 24  1  0  0  0  0
 30 25  1  0  0  0  0
M  END
>  <minimizedAffinity>
-5.92306995

$$$$

 OpenBabel03252500423D

 31 34  0  0  1  0  0  0  0  0999 V2000
   37.4050   26.8380   42.5640 C   0  0  1  0  0  0  0  0  0  0  0  0
   38.3880   27.0870   43.6800 C   0  0  0  0  0  0  0  0  0  0  0  0
   37.4530   28.1580   43.2510 C   0  0  1  0  0  0  0  0  0  0  0  0
   36.4150   26.3630   42.7430 H   0  0  0  0  0  0  0  0  0  0  0  0
   38.1680   26.5300   44.6340 H   0  0  0  0  0  0  0  0  0  0  0  0
   39.4510   27.0930   43.4440 H   0  0  0  0  0  0  0  0  0  0  0  0
   36.6320   28.3870   44.0060 H   0  0  0  0  0  0  0  0  0  0  0  0
   37.8590   29.3610   42.5330 C   0  0  0  0  0  0  0  0  0  0  0  0
   39.1280   29.8580   42.8270 C   0  0  0  0  0  0  0  0  0  0  0  0
   39.8020   29.4000   43.5600 H   0  0  0  0  0  0  0  0  0  0  0  0
   39.6520   30.9970   42.2040 C   0  0  0  0  0  3  0  0  0  0  0  0
   38.9130   31.6780   41.2590 C   0  0  0  0  0  0  0  0  0  0  0  0
   39.3470   32.7730   40.6230 N   0  0  0  0  0  0  0  0  0  0  0  0
   38.6000   33.4170   39.7040 C   0  0  0  0  0  0  0  0  0  0  0  0
   38.9710   34.3050   39.1980 H   0  0  0  0  0  0  0  0  0  0  0  0
   37.3240   32.9810   39.3560 C   0  0  0  0  0  3  0  0  0  0  0  0
   36.8670   31.8520   40.0070 C   0  0  0  0  0  3  0  0  0  0  0  0
   37.6570   31.2180   40.9430 C   0  0  0  0  0  0  0  0  0  0  0  0
   37.1910   30.0930   41.5860 C   0  0  0  0  0  3  0  0  0  0  0  0
   38.0080   26.6770   41.2210 C   0  0  0  0  0  0  0  0  0  0  0  0
   38.3000   27.6630   40.7880 H   0  0  0  0  0  0  0  0  0  0  0  0
   38.9510   26.0510   41.2460 H   0  0  0  0  0  0  0  0  0  0  0  0
   37.1320   25.9190   40.2980 C   0  0  0  0  0  0  0  0  0  0  0  0
   36.6960   26.5740   39.1680 C   0  0  0  0  0  0  0  0  0  0  0  0
   35.8560   25.8800   38.2690 C   0  0  0  0  0  0  0  0  0  0  0  0
   35.5320   24.6020   38.5850 N   0  0  0  0  0  0  0  0  0  0  0  0
   35.9920   24.0070   39.7170 C   0  0  0  0  0  0  0  0  0  0  0  0
   36.7890   24.6590   40.5720 N   0  0  0  0  0  0  0  0  0  0  0  0
   36.8400   27.5600   38.7650 H   0  0  0  0  0  0  0  0  0  0  0  0
   35.4340   26.2270   37.3610 H   0  0  0  0  0  0  0  0  0  0  0  0
   35.7390   22.9820   39.9810 H   0  0  0  0  0  0  0  0  0  0  0  0
  1  4  1  1  0  0  0
  1  3  1  0  0  0  0
  1  2  1  0  0  0  0
  2  5  1  0  0  0  0
  3  2  1  0  0  0  0
  3  7  1  1  0  0  0
  6  2  1  0  0  0  0
  8  9  1  0  0  0  0
  8  3  1  0  0  0  0
  9 10  1  0  0  0  0
 11  9  2  0  0  0  0
 12 11  1  0  0  0  0
 13 12  2  0  0  0  0
 14 13  1  0  0  0  0
 15 14  1  0  0  0  0
 16 14  2  0  0  0  0
 16 17  1  0  0  0  0
 17 18  2  0  0  0  0
 18 12  1  0  0  0  0
 18 19  1  0  0  0  0
 19  8  2  0  0  0  0
 20 22  1  0  0  0  0
 20  1  1  0  0  0  0
 21 20  1  0  0  0  0
 23 28  1  0  0  0  0
 23 20  1  0  0  0  0
 24 23  2  0  0  0  0
 25 26  2  0  0  0  0
 25 24  1  0  0  0  0
 26 27  1  0  0  0  0
 27 31  1  0  0  0  0
 27 28  2  0  0  0  0
 29 24  1  0  0  0  0
 30 25  1  0  0  0  0
M  END
>  <minimizedAffinity>
-5.52227831

$$$$

 OpenBabel03252500423D

 31 34  0  0  1  0  0  0  0  0999 V2000
   35.8230   30.3410   40.0330 C   0  0  1  0  0  0  0  0  0  0  0  0
   34.8590   29.3290   39.4690 C   0  0  0  0  0  0  0  0  0  0  0  0
   35.4690   29.1180   40.8060 C   0  0  1  0  0  0  0  0  0  0  0  0
   35.4770   31.2430   40.5880 H   0  0  0  0  0  0  0  0  0  0  0  0
   33.7890   29.6780   39.4130 H   0  0  0  0  0  0  0  0  0  0  0  0
   35.1550   28.7680   38.5830 H   0  0  0  0  0  0  0  0  0  0  0  0
   34.7400   29.2380   41.6730 H   0  0  0  0  0  0  0  0  0  0  0  0
   36.4730   28.1010   41.0980 C   0  0  0  0  0  0  0  0  0  0  0  0
   36.5640   27.0450   40.1930 C   0  0  0  0  0  0  0  0  0  0  0  0
   35.9240   26.9490   39.3080 H   0  0  0  0  0  0  0  0  0  0  0  0
   37.4910   26.0060   40.3420 C   0  0  0  0  0  3  0  0  0  0  0  0
   38.3620   25.9950   41.4110 C   0  0  0  0  0  0  0  0  0  0  0  0
   39.2730   25.0370   41.6190 N   0  0  0  0  0  0  0  0  0  0  0  0
   40.1110   25.0550   42.6740 C   0  0  0  0  0  0  0  0  0  0  0  0
   40.8440   24.2660   42.8250 H   0  0  0  0  0  0  0  0  0  0  0  0
   40.0810   26.0760   43.6200 C   0  0  0  0  0  3  0  0  0  0  0  0
   39.1440   27.0700   43.4150 C   0  0  0  0  0  3  0  0  0  0  0  0
   38.3020   27.0210   42.3240 C   0  0  0  0  0  0  0  0  0  0  0  0
   37.3720   28.0170   42.1300 C   0  0  0  0  0  3  0  0  0  0  0  0
   37.1240   30.4270   39.3330 C   0  0  0  0  0  0  0  0  0  0  0  0
   37.6550   29.4460   39.3440 H   0  0  0  0  0  0  0  0  0  0  0  0
   37.0080   30.7120   38.2440 H   0  0  0  0  0  0  0  0  0  0  0  0
   37.9820   31.5110   39.8690 C   0  0  0  0  0  0  0  0  0  0  0  0
   39.0340   31.1370   40.6730 C   0  0  0  0  0  0  0  0  0  0  0  0
   39.8690   32.1460   41.2030 C   0  0  0  0  0  0  0  0  0  0  0  0
   39.5710   33.4290   40.8810 N   0  0  0  0  0  0  0  0  0  0  0  0
   38.5160   33.7380   40.0810 C   0  0  0  0  0  0  0  0  0  0  0  0
   37.7220   32.7860   39.5750 N   0  0  0  0  0  0  0  0  0  0  0  0
   39.4120   30.1970   41.0340 H   0  0  0  0  0  0  0  0  0  0  0  0
   40.7150   32.0380   41.8330 H   0  0  0  0  0  0  0  0  0  0  0  0
   38.2670   34.7630   39.8140 H   0  0  0  0  0  0  0  0  0  0  0  0
  1  4  1  1  0  0  0
  1  3  1  0  0  0  0
  2  1  1  0  0  0  0
  2  3  1  0  0  0  0
  3  8  1  0  0  0  0
  3  7  1  1  0  0  0
  5  2  1  0  0  0  0
  6  2  1  0  0  0  0
  8 19  1  0  0  0  0
  9 11  1  0  0  0  0
  9  8  2  0  0  0  0
 10  9  1  0  0  0  0
 11 12  2  0  0  0  0
 12 13  1  0  0  0  0
 12 18  1  0  0  0  0
 13 14  2  0  0  0  0
 14 15  1  0  0  0  0
 14 16  1  0  0  0  0
 17 16  2  0  0  0  0
 18 17  1  0  0  0  0
 19 18  2  0  0  0  0
 20 21  1  0  0  0  0
 20 23  1  0  0  0  0
 20  1  1  0  0  0  0
 22 20  1  0  0  0  0
 23 24  1  0  0  0  0
 24 29  1  0  0  0  0
 24 25  2  0  0  0  0
 25 30  1  0  0  0  0
 26 25  1  0  0  0  0
 27 26  2  0  0  0  0
 28 23  2  0  0  0  0
 28 27  1  0  0  0  0
 31 27  1  0  0  0  0
M  END
>  <minimizedAffinity>
-5.36195374

$$$$

 OpenBabel03252500423D

 31 34  0  0  1  0  0  0  0  0999 V2000
   36.1620   30.1850   38.0720 C   0  0  1  0  0  0  0  0  0  0  0  0
   35.6760   29.0820   37.1680 C   0  0  0  0  0  0  0  0  0  0  0  0
   35.3680   29.0500   38.6200 C   0  0  1  0  0  0  0  0  0  0  0  0
   35.5940   31.1330   38.2070 H   0  0  0  0  0  0  0  0  0  0  0  0
   34.8620   29.3850   36.4500 H   0  0  0  0  0  0  0  0  0  0  0  0
   36.4140   28.4320   36.6990 H   0  0  0  0  0  0  0  0  0  0  0  0
   34.2740   29.2460   38.8670 H   0  0  0  0  0  0  0  0  0  0  0  0
   35.9620   28.1090   39.5630 C   0  0  0  0  0  0  0  0  0  0  0  0
   36.1150   28.5590   40.8730 C   0  0  0  0  0  0  0  0  0  0  0  0
   35.8250   29.5630   41.2060 H   0  0  0  0  0  0  0  0  0  0  0  0
   36.6580   27.7570   41.8840 C   0  0  0  0  0  3  0  0  0  0  0  0
   37.0670   26.4690   41.6100 C   0  0  0  0  0  0  0  0  0  0  0  0
   37.5950   25.6460   42.5240 N   0  0  0  0  0  0  0  0  0  0  0  0
   37.9860   24.3910   42.2240 C   0  0  0  0  0  0  0  0  0  0  0  0
   38.4120   23.7380   42.9820 H   0  0  0  0  0  0  0  0  0  0  0  0
   37.8640   23.8700   40.9390 C   0  0  0  0  0  3  0  0  0  0  0  0
   37.3210   24.7120   39.9890 C   0  0  0  0  0  3  0  0  0  0  0  0
   36.9320   25.9900   40.3290 C   0  0  0  0  0  0  0  0  0  0  0  0
   36.3910   26.8210   39.3740 C   0  0  0  0  0  3  0  0  0  0  0  0
   37.6280   30.2320   38.2740 C   0  0  0  0  0  0  0  0  0  0  0  0
   38.0180   29.2540   38.6400 H   0  0  0  0  0  0  0  0  0  0  0  0
   38.1860   30.4550   37.3140 H   0  0  0  0  0  0  0  0  0  0  0  0
   38.0390   31.3450   39.1620 C   0  0  0  0  0  0  0  0  0  0  0  0
   37.3340   32.5220   39.0590 C   0  0  0  0  0  0  0  0  0  0  0  0
   37.7040   33.6030   39.8900 C   0  0  0  0  0  0  0  0  0  0  0  0
   38.7400   33.4050   40.7410 N   0  0  0  0  0  0  0  0  0  0  0  0
   39.4000   32.2180   40.7990 C   0  0  0  0  0  0  0  0  0  0  0  0
   39.0540   31.1890   40.0140 N   0  0  0  0  0  0  0  0  0  0  0  0
   36.5110   32.8590   38.4550 H   0  0  0  0  0  0  0  0  0  0  0  0
   37.2740   34.5710   39.9420 H   0  0  0  0  0  0  0  0  0  0  0  0
   40.2330   32.0450   41.4770 H   0  0  0  0  0  0  0  0  0  0  0  0
  1  4  1  6  0  0  0
  1 20  1  0  0  0  0
  1  3  1  0  0  0  0
  2  1  1  0  0  0  0
  2  3  1  0  0  0  0
  3  7  1  1  0  0  0
  3  8  1  0  0  0  0
  5  2  1  0  0  0  0
  6  2  1  0  0  0  0
  8  9  1  0  0  0  0
  9 10  1  0  0  0  0
  9 11  2  0  0  0  0
 12 11  1  0  0  0  0
 12 13  1  0  0  0  0
 14 13  2  0  0  0  0
 14 15  1  0  0  0  0
 16 14  1  0  0  0  0
 17 18  1  0  0  0  0
 17 16  2  0  0  0  0
 18 12  2  0  0  0  0
 19  8  2  0  0  0  0
 19 18  1  0  0  0  0
 20 21  1  0  0  0  0
 20 23  1  0  0  0  0
 22 20  1  0  0  0  0
 23 28  1  0  0  0  0
 24 23  2  0  0  0  0
 24 25  1  0  0  0  0
 25 30  1  0  0  0  0
 25 26  2  0  0  0  0
 26 27  1  0  0  0  0
 27 31  1  0  0  0  0
 28 27  2  0  0  0  0
 29 24  1  0  0  0  0
M  END
>  <minimizedAffinity>
-5.34709787

$$$$

 OpenBabel03252500423D

 31 34  0  0  1  0  0  0  0  0999 V2000
   39.1230   25.8470   42.8810 C   0  0  1  0  0  0  0  0  0  0  0  0
   40.0610   26.7150   43.6790 C   0  0  0  0  0  0  0  0  0  0  0  0
   38.6340   27.0960   43.5270 C   0  0  1  0  0  0  0  0  0  0  0  0
   38.6030   24.9700   43.3280 H   0  0  0  0  0  0  0  0  0  0  0  0
   40.3980   26.2690   44.6580 H   0  0  0  0  0  0  0  0  0  0  0  0
   40.8730   27.2200   43.1570 H   0  0  0  0  0  0  0  0  0  0  0  0
   38.0200   26.9890   44.4790 H   0  0  0  0  0  0  0  0  0  0  0  0
   38.1690   28.2210   42.7230 C   0  0  0  0  0  0  0  0  0  0  0  0
   36.8620   28.1390   42.2440 C   0  0  0  0  0  0  0  0  0  0  0  0
   36.2000   27.2860   42.4340 H   0  0  0  0  0  0  0  0  0  0  0  0
   36.2810   29.1520   41.4710 C   0  0  0  0  0  3  0  0  0  0  0  0
   36.9980   30.2860   41.1520 C   0  0  0  0  0  0  0  0  0  0  0  0
   36.5100   31.2930   40.4180 N   0  0  0  0  0  0  0  0  0  0  0  0
   37.2370   32.3890   40.1240 C   0  0  0  0  0  0  0  0  0  0  0  0
   36.8210   33.1970   39.5260 H   0  0  0  0  0  0  0  0  0  0  0  0
   38.5480   32.5440   40.5670 C   0  0  0  0  0  3  0  0  0  0  0  0
   39.0610   31.5100   41.3240 C   0  0  0  0  0  3  0  0  0  0  0  0
   38.2890   30.4020   41.6070 C   0  0  0  0  0  0  0  0  0  0  0  0
   38.8120   29.3770   42.3630 C   0  0  0  0  0  3  0  0  0  0  0  0
   39.3840   25.8160   41.4240 C   0  0  0  0  0  0  0  0  0  0  0  0
   39.2710   26.8290   40.9710 H   0  0  0  0  0  0  0  0  0  0  0  0
   40.4370   25.4780   41.1830 H   0  0  0  0  0  0  0  0  0  0  0  0
   38.5460   24.8150   40.7220 C   0  0  0  0  0  0  0  0  0  0  0  0
   37.2420   24.6850   41.1430 C   0  0  0  0  0  0  0  0  0  0  0  0
   36.4180   23.7360   40.4970 C   0  0  0  0  0  0  0  0  0  0  0  0
   36.9740   23.0110   39.4960 N   0  0  0  0  0  0  0  0  0  0  0  0
   38.2700   23.1840   39.1240 C   0  0  0  0  0  0  0  0  0  0  0  0
   39.0560   24.0810   39.7320 N   0  0  0  0  0  0  0  0  0  0  0  0
   36.6440   25.1540   41.9020 H   0  0  0  0  0  0  0  0  0  0  0  0
   35.4010   23.5070   40.6910 H   0  0  0  0  0  0  0  0  0  0  0  0
   38.7290   22.6080   38.3230 H   0  0  0  0  0  0  0  0  0  0  0  0
  1  4  1  1  0  0  0
  1  3  1  0  0  0  0
  1  2  1  0  0  0  0
  2  5  1  0  0  0  0
  3  2  1  0  0  0  0
  3  7  1  1  0  0  0
  6  2  1  0  0  0  0
  8  3  1  0  0  0  0
  9 10  1  0  0  0  0
  9  8  2  0  0  0  0
 11  9  1  0  0  0  0
 12 11  2  0  0  0  0
 12 18  1  0  0  0  0
 13 12  1  0  0  0  0
 14 13  2  0  0  0  0
 14 16  1  0  0  0  0
 15 14  1  0  0  0  0
 16 17  2  0  0  0  0
 17 18  1  0  0  0  0
 18 19  2  0  0  0  0
 19  8  1  0  0  0  0
 20  1  1  0  0  0  0
 21 20  1  0  0  0  0
 22 20  1  0  0  0  0
 23 24  1  0  0  0  0
 23 20  1  0  0  0  0
 24 29  1  0  0  0  0
 25 30  1  0  0  0  0
 25 24  2  0  0  0  0
 26 25  1  0  0  0  0
 27 26  2  0  0  0  0
 27 28  1  0  0  0  0
 28 23  2  0  0  0  0
 31 27  1  0  0  0  0
M  END
>  <minimizedAffinity>
-5.21578646

$$$$

 OpenBabel03252500423D

 31 34  0  0  1  0  0  0  0  0999 V2000
   36.0020   28.4900   39.2720 C   0  0  1  0  0  0  0  0  0  0  0  0
   35.3400   29.2750   38.1690 C   0  0  0  0  0  0  0  0  0  0  0  0
   36.8160   29.3000   38.3240 C   0  0  1  0  0  0  0  0  0  0  0  0
   36.2630   27.4140   39.1570 H   0  0  0  0  0  0  0  0  0  0  0  0
   34.8950   28.6480   37.3450 H   0  0  0  0  0  0  0  0  0  0  0  0
   34.6970   30.1120   38.4410 H   0  0  0  0  0  0  0  0  0  0  0  0
   37.3790   28.7430   37.5050 H   0  0  0  0  0  0  0  0  0  0  0  0
   37.5720   30.4580   38.7870 C   0  0  0  0  0  0  0  0  0  0  0  0
   36.8910   31.6740   38.8060 C   0  0  0  0  0  0  0  0  0  0  0  0
   35.8480   31.7890   38.4870 H   0  0  0  0  0  0  0  0  0  0  0  0
   37.4890   32.8640   39.2400 C   0  0  0  0  0  3  0  0  0  0  0  0
   38.7980   32.8700   39.6710 C   0  0  0  0  0  0  0  0  0  0  0  0
   39.4360   33.9670   40.0980 N   0  0  0  0  0  0  0  0  0  0  0  0
   40.7180   33.9400   40.5140 C   0  0  0  0  0  0  0  0  0  0  0  0
   41.2170   34.8430   40.8570 H   0  0  0  0  0  0  0  0  0  0  0  0
   41.4640   32.7640   40.5250 C   0  0  0  0  0  3  0  0  0  0  0  0
   40.8150   31.6280   40.0850 C   0  0  0  0  0  3  0  0  0  0  0  0
   39.5030   31.6900   39.6670 C   0  0  0  0  0  0  0  0  0  0  0  0
   38.8660   30.5500   39.2310 C   0  0  0  0  0  3  0  0  0  0  0  0
   35.7410   28.9890   40.6410 C   0  0  0  0  0  0  0  0  0  0  0  0
   35.7280   30.1040   40.6700 H   0  0  0  0  0  0  0  0  0  0  0  0
   34.7360   28.6500   41.0370 H   0  0  0  0  0  0  0  0  0  0  0  0
   36.6920   28.4330   41.6330 C   0  0  0  0  0  0  0  0  0  0  0  0
   37.3880   29.3340   42.4060 C   0  0  0  0  0  0  0  0  0  0  0  0
   38.3050   28.8370   43.3590 C   0  0  0  0  0  0  0  0  0  0  0  0
   38.4380   27.4910   43.4470 N   0  0  0  0  0  0  0  0  0  0  0  0
   37.7220   26.6490   42.6560 C   0  0  0  0  0  0  0  0  0  0  0  0
   36.8510   27.1140   41.7510 N   0  0  0  0  0  0  0  0  0  0  0  0
   37.4200   30.4070   42.4710 H   0  0  0  0  0  0  0  0  0  0  0  0
   38.9180   29.3820   44.0300 H   0  0  0  0  0  0  0  0  0  0  0  0
   37.8190   25.5670   42.7170 H   0  0  0  0  0  0  0  0  0  0  0  0
  1  4  1  6  0  0  0
  1 20  1  0  0  0  0
  2  3  1  0  0  0  0
  2  6  1  0  0  0  0
  2  1  1  0  0  0  0
  3  7  1  6  0  0  0
  3  8  1  0  0  0  0
  3  1  1  0  0  0  0
  5  2  1  0  0  0  0
  8  9  2  0  0  0  0
  8 19  1  0  0  0  0
  9 11  1  0  0  0  0
 10  9  1  0  0  0  0
 11 12  2  0  0  0  0
 12 13  1  0  0  0  0
 13 14  2  0  0  0  0
 14 16  1  0  0  0  0
 14 15  1  0  0  0  0
 17 16  2  0  0  0  0
 18 12  1  0  0  0  0
 18 17  1  0  0  0  0
 19 18  2  0  0  0  0
 20 21  1  0  0  0  0
 20 22  1  0  0  0  0
 20 23  1  0  0  0  0
 23 28  2  0  0  0  0
 23 24  1  0  0  0  0
 24 29  1  0  0  0  0
 24 25  2  0  0  0  0
 25 26  1  0  0  0  0
 25 30  1  0  0  0  0
 27 31  1  0  0  0  0
 27 26  2  0  0  0  0
 28 27  1  0  0  0  0
M  END
>  <minimizedAffinity>
-5.21066618

$$$$

 OpenBabel03252500423D

 31 34  0  0  1  0  0  0  0  0999 V2000
   39.9490   24.9930   42.8070 C   0  0  1  0  0  0  0  0  0  0  0  0
   40.8400   25.8400   43.6780 C   0  0  0  0  0  0  0  0  0  0  0  0
   39.3800   26.1020   43.6220 C   0  0  1  0  0  0  0  0  0  0  0  0
   39.5290   24.0230   43.1570 H   0  0  0  0  0  0  0  0  0  0  0  0
   41.2590   25.3100   44.5810 H   0  0  0  0  0  0  0  0  0  0  0  0
   41.5810   26.4790   43.1980 H   0  0  0  0  0  0  0  0  0  0  0  0
   38.8210   25.8220   44.5730 H   0  0  0  0  0  0  0  0  0  0  0  0
   38.7810   27.2680   42.9830 C   0  0  0  0  0  0  0  0  0  0  0  0
   39.5300   28.4440   43.0130 C   0  0  0  0  0  0  0  0  0  0  0  0
   40.5140   28.5220   43.4920 H   0  0  0  0  0  0  0  0  0  0  0  0
   39.0840   29.6350   42.4280 C   0  0  0  0  0  3  0  0  0  0  0  0
   37.8620   29.6840   41.7900 C   0  0  0  0  0  0  0  0  0  0  0  0
   37.3700   30.7850   41.2090 N   0  0  0  0  0  0  0  0  0  0  0  0
   36.1720   30.8010   40.5930 C   0  0  0  0  0  0  0  0  0  0  0  0
   35.7900   31.7060   40.1270 H   0  0  0  0  0  0  0  0  0  0  0  0
   35.3660   29.6670   40.5200 C   0  0  0  0  0  3  0  0  0  0  0  0
   35.8650   28.5270   41.1170 C   0  0  0  0  0  3  0  0  0  0  0  0
   37.0950   28.5450   41.7390 C   0  0  0  0  0  0  0  0  0  0  0  0
   37.5820   27.4010   42.3310 C   0  0  0  0  0  3  0  0  0  0  0  0
   40.1460   25.1670   41.3500 C   0  0  0  0  0  0  0  0  0  0  0  0
   40.3180   26.2380   41.0900 H   0  0  0  0  0  0  0  0  0  0  0  0
   41.0490   24.6000   40.9690 H   0  0  0  0  0  0  0  0  0  0  0  0
   39.0340   24.5900   40.5590 C   0  0  0  0  0  0  0  0  0  0  0  0
   38.5020   23.4000   41.0000 C   0  0  0  0  0  0  0  0  0  0  0  0
   37.4430   22.8220   40.2650 C   0  0  0  0  0  0  0  0  0  0  0  0
   37.0190   23.4860   39.1620 N   0  0  0  0  0  0  0  0  0  0  0  0
   37.5840   24.6600   38.7740 C   0  0  0  0  0  0  0  0  0  0  0  0
   38.5880   25.2130   39.4670 N   0  0  0  0  0  0  0  0  0  0  0  0
   38.7070   22.7420   41.8250 H   0  0  0  0  0  0  0  0  0  0  0  0
   36.9220   21.9200   40.4600 H   0  0  0  0  0  0  0  0  0  0  0  0
   37.2530   25.2040   37.8910 H   0  0  0  0  0  0  0  0  0  0  0  0
  1  4  1  1  0  0  0
  1  3  1  0  0  0  0
  1  2  1  0  0  0  0
  2  5  1  0  0  0  0
  3  2  1  0  0  0  0
  3  7  1  1  0  0  0
  6  2  1  0  0  0  0
  8  9  1  0  0  0  0
  8  3  1  0  0  0  0
  9 10  1  0  0  0  0
 11  9  2  0  0  0  0
 12 11  1  0  0  0  0
 13 12  2  0  0  0  0
 14 13  1  0  0  0  0
 15 14  1  0  0  0  0
 16 14  2  0  0  0  0
 16 17  1  0  0  0  0
 17 18  2  0  0  0  0
 18 12  1  0  0  0  0
 18 19  1  0  0  0  0
 19  8  2  0  0  0  0
 20  1  1  0  0  0  0
 21 20  1  0  0  0  0
 22 20  1  0  0  0  0
 23 24  1  0  0  0  0
 23 20  1  0  0  0  0
 24 29  1  0  0  0  0
 25 30  1  0  0  0  0
 25 24  2  0  0  0  0
 26 25  1  0  0  0  0
 27 26  2  0  0  0  0
 27 28  1  0  0  0  0
 28 23  2  0  0  0  0
 31 27  1  0  0  0  0
M  END
>  <minimizedAffinity>
-5.18564987

$$$$

 OpenBabel03252500423D

 31 34  0  0  1  0  0  0  0  0999 V2000
   38.0180   29.0160   42.7300 C   0  0  1  0  0  0  0  0  0  0  0  0
   37.1540   28.2240   43.6770 C   0  0  0  0  0  0  0  0  0  0  0  0
   38.3380   27.5950   43.0390 C   0  0  1  0  0  0  0  0  0  0  0  0
   38.8450   29.6690   43.0890 H   0  0  0  0  0  0  0  0  0  0  0  0
   37.2270   28.5390   44.7570 H   0  0  0  0  0  0  0  0  0  0  0  0
   36.1290   28.0020   43.3830 H   0  0  0  0  0  0  0  0  0  0  0  0
   39.2000   27.3950   43.7550 H   0  0  0  0  0  0  0  0  0  0  0  0
   38.2630   26.5690   42.0040 C   0  0  0  0  0  0  0  0  0  0  0  0
   39.4020   26.4000   41.2180 C   0  0  0  0  0  0  0  0  0  0  0  0
   40.3140   26.9960   41.3380 H   0  0  0  0  0  0  0  0  0  0  0  0
   39.4740   25.4440   40.1970 C   0  0  0  0  0  3  0  0  0  0  0  0
   38.3990   24.6220   39.9320 C   0  0  0  0  0  0  0  0  0  0  0  0
   38.3940   23.6880   38.9740 N   0  0  0  0  0  0  0  0  0  0  0  0
   37.3270   22.9000   38.7400 C   0  0  0  0  0  0  0  0  0  0  0  0
   37.3440   22.1460   37.9560 H   0  0  0  0  0  0  0  0  0  0  0  0
   36.1540   23.0080   39.4840 C   0  0  0  0  0  3  0  0  0  0  0  0
   36.1490   23.9700   40.4740 C   0  0  0  0  0  3  0  0  0  0  0  0
   37.2590   24.7600   40.6880 C   0  0  0  0  0  0  0  0  0  0  0  0
   37.2410   25.7150   41.6780 C   0  0  0  0  0  3  0  0  0  0  0  0
   37.3770   29.3710   41.4430 C   0  0  0  0  0  0  0  0  0  0  0  0
   37.6070   28.6160   40.6550 H   0  0  0  0  0  0  0  0  0  0  0  0
   36.2480   29.4100   41.5220 H   0  0  0  0  0  0  0  0  0  0  0  0
   37.7260   30.7400   40.9980 C   0  0  0  0  0  0  0  0  0  0  0  0
   36.8600   31.3550   40.1230 C   0  0  0  0  0  0  0  0  0  0  0  0
   37.1660   32.6600   39.6780 C   0  0  0  0  0  0  0  0  0  0  0  0
   38.3060   33.2240   40.1470 N   0  0  0  0  0  0  0  0  0  0  0  0
   39.1240   32.5670   41.0110 C   0  0  0  0  0  0  0  0  0  0  0  0
   38.8390   31.3300   41.4380 N   0  0  0  0  0  0  0  0  0  0  0  0
   35.9380   31.0710   39.6500 H   0  0  0  0  0  0  0  0  0  0  0  0
   36.6160   33.2740   39.0110 H   0  0  0  0  0  0  0  0  0  0  0  0
   40.0420   33.0080   41.3960 H   0  0  0  0  0  0  0  0  0  0  0  0
  1  3  1  0  0  0  0
  1  4  1  1  0  0  0
  1  2  1  0  0  0  0
  2  5  1  0  0  0  0
  3  2  1  0  0  0  0
  3  7  1  1  0  0  0
  6  2  1  0  0  0  0
  8  3  1  0  0  0  0
  9 10  1  0  0  0  0
  9  8  2  0  0  0  0
 11  9  1  0  0  0  0
 12 11  2  0  0  0  0
 12 18  1  0  0  0  0
 13 12  1  0  0  0  0
 14 13  2  0  0  0  0
 14 16  1  0  0  0  0
 15 14  1  0  0  0  0
 16 17  2  0  0  0  0
 17 18  1  0  0  0  0
 18 19  2  0  0  0  0
 19  8  1  0  0  0  0
 20 22  1  0  0  0  0
 20  1  1  0  0  0  0
 21 20  1  0  0  0  0
 23 28  1  0  0  0  0
 23 20  1  0  0  0  0
 24 23  2  0  0  0  0
 25 24  1  0  0  0  0
 25 26  2  0  0  0  0
 26 27  1  0  0  0  0
 27 31  1  0  0  0  0
 27 28  2  0  0  0  0
 29 24  1  0  0  0  0
 30 25  1  0  0  0  0
M  END
>  <minimizedAffinity>
-5.13722229

$$$$

 OpenBabel03252500423D

 31 34  0  0  1  0  0  0  0  0999 V2000
   35.7940   29.7810   39.3900 C   0  0  1  0  0  0  0  0  0  0  0  0
   34.6290   29.1580   40.1150 C   0  0  0  0  0  0  0  0  0  0  0  0
   35.8360   29.5870   40.8660 C   0  0  1  0  0  0  0  0  0  0  0  0
   35.8330   30.8690   39.1580 H   0  0  0  0  0  0  0  0  0  0  0  0
   33.7060   29.8020   40.1650 H   0  0  0  0  0  0  0  0  0  0  0  0
   34.3910   28.1140   39.9150 H   0  0  0  0  0  0  0  0  0  0  0  0
   35.6740   30.5040   41.5210 H   0  0  0  0  0  0  0  0  0  0  0  0
   36.7930   28.6690   41.4730 C   0  0  0  0  0  0  0  0  0  0  0  0
   37.7960   29.2460   42.2510 C   0  0  0  0  0  0  0  0  0  0  0  0
   37.8940   30.3260   42.4080 H   0  0  0  0  0  0  0  0  0  0  0  0
   38.7730   28.4830   42.9020 C   0  0  0  0  0  3  0  0  0  0  0  0
   38.7750   27.1090   42.7930 C   0  0  0  0  0  0  0  0  0  0  0  0
   39.6750   26.3160   43.3850 N   0  0  0  0  0  0  0  0  0  0  0  0
   39.6490   24.9740   43.2590 C   0  0  0  0  0  0  0  0  0  0  0  0
   40.3910   24.3480   43.7500 H   0  0  0  0  0  0  0  0  0  0  0  0
   38.6790   24.3250   42.5000 C   0  0  0  0  0  3  0  0  0  0  0  0
   37.7450   25.1340   41.8850 C   0  0  0  0  0  3  0  0  0  0  0  0
   37.8010   26.5040   42.0350 C   0  0  0  0  0  0  0  0  0  0  0  0
   36.8640   27.3010   41.4160 C   0  0  0  0  0  3  0  0  0  0  0  0
   36.5410   28.8650   38.4990 C   0  0  0  0  0  0  0  0  0  0  0  0
   37.6430   28.9720   38.6410 H   0  0  0  0  0  0  0  0  0  0  0  0
   36.3000   27.7780   38.7010 H   0  0  0  0  0  0  0  0  0  0  0  0
   36.1620   29.0310   37.0760 C   0  0  0  0  0  0  0  0  0  0  0  0
   35.1220   28.2590   36.6110 C   0  0  0  0  0  0  0  0  0  0  0  0
   34.7380   28.3900   35.2580 C   0  0  0  0  0  0  0  0  0  0  0  0
   35.4290   29.2770   34.5010 N   0  0  0  0  0  0  0  0  0  0  0  0
   36.4490   30.0130   35.0160 C   0  0  0  0  0  0  0  0  0  0  0  0
   36.8180   29.8930   36.2970 N   0  0  0  0  0  0  0  0  0  0  0  0
   34.4780   27.5180   37.0490 H   0  0  0  0  0  0  0  0  0  0  0  0
   33.9670   27.8800   34.7400 H   0  0  0  0  0  0  0  0  0  0  0  0
   37.0120   30.7280   34.4190 H   0  0  0  0  0  0  0  0  0  0  0  0
  1  4  1  6  0  0  0
  1  2  1  0  0  0  0
  1  3  1  0  0  0  0
  2  5  1  0  0  0  0
  2  3  1  0  0  0  0
  3  8  1  0  0  0  0
  3  7  1  1  0  0  0
  6  2  1  0  0  0  0
  8  9  1  0  0  0  0
  9 10  1  0  0  0  0
  9 11  2  0  0  0  0
 12 11  1  0  0  0  0
 12 13  1  0  0  0  0
 14 13  2  0  0  0  0
 14 15  1  0  0  0  0
 16 14  1  0  0  0  0
 17 18  1  0  0  0  0
 17 16  2  0  0  0  0
 18 12  2  0  0  0  0
 19  8  2  0  0  0  0
 19 18  1  0  0  0  0
 20 21  1  0  0  0  0
 20 22  1  0  0  0  0
 20  1  1  0  0  0  0
 23 20  1  0  0  0  0
 24 29  1  0  0  0  0
 24 23  1  0  0  0  0
 25 24  2  0  0  0  0
 26 27  2  0  0  0  0
 26 25  1  0  0  0  0
 27 28  1  0  0  0  0
 28 23  2  0  0  0  0
 30 25  1  0  0  0  0
 31 27  1  0  0  0  0
M  END
>  <minimizedAffinity>
-5.09290171

$$$$
