
     RDKit          3D

 34 37  0  0  0  0  0  0  0  0999 V2000
   44.6254   35.4612   45.1334 C   0  0  0  0  0  0  0  0  0  0  0  0
   45.0977   35.7136   43.8034 C   0  0  0  0  0  0  0  0  0  0  0  0
   46.0416   34.8232   43.3604 C   0  0  0  0  0  0  0  0  0  0  0  0
   46.4958   33.7701   44.1457 N   0  0  0  0  0  0  0  0  0  0  0  0
   46.0130   33.5934   45.3777 C   0  0  0  0  0  0  0  0  0  0  0  0
   45.0745   34.4399   45.8756 N   0  0  0  0  0  0  0  0  0  0  0  0
   46.5398   34.9764   41.9409 C   0  0  1  0  0  0  0  0  0  0  0  0
   48.0641   35.2742   41.9359 C   0  0  0  0  0  0  0  0  0  0  0  0
   47.3863   33.9758   41.3978 C   0  0  2  0  0  0  0  0  0  0  0  0
   44.6447   36.8131   43.0174 N   0  0  0  0  0  0  0  0  0  0  0  0
   43.8785   36.1374   45.5257 H   0  0  0  0  0  0  0  0  0  0  0  0
   46.4627   32.7365   45.8587 H   0  0  0  0  0  0  0  0  0  0  0  0
   45.9600   35.7187   41.3560 H   0  0  0  0  0  0  0  0  0  0  0  0
   48.4612   35.9110   41.1369 H   0  0  0  0  0  0  0  0  0  0  0  0
   48.6300   35.1979   42.8577 H   0  0  0  0  0  0  0  0  0  0  0  0
   47.6190   33.0839   42.0289 H   0  0  0  0  0  0  0  0  0  0  0  0
   44.2333   36.7267   42.0500 H   0  0  0  0  0  0  0  0  0  0  0  0
   44.8002   37.6913   43.5803 H   0  0  0  0  0  0  0  0  0  0  0  0
   47.4838   33.7390   39.9214 C   0  0  0  0  0  0  0  0  0  0  0  0
   48.6111   34.2794   39.3059 C   0  0  0  0  0  0  0  0  0  0  0  0
   49.3608   34.8301   39.8571 H   0  0  0  0  0  0  0  0  0  0  0  0
   48.7826   34.1082   37.9404 C   0  0  0  0  0  0  0  0  0  0  0  0
   47.8398   33.4091   37.2137 C   0  0  0  0  0  0  0  0  0  0  0  0
   47.9672   33.2168   35.8723 N   0  0  0  0  0  0  0  0  0  0  0  0
   47.0362   32.5321   35.1836 C   0  0  0  0  0  0  0  0  0  0  0  0
   47.1628   32.3936   34.1146 H   0  0  0  0  0  0  0  0  0  0  0  0
   45.9105   31.9857   35.7641 C   0  0  0  0  0  0  0  0  0  0  0  0
   45.8127   32.2012   37.1350 C   0  0  0  0  0  0  0  0  0  0  0  0
   46.7451   32.8998   37.8894 C   0  0  0  0  0  0  0  0  0  0  0  0
   46.5170   33.0356   39.2441 C   0  0  0  0  0  0  0  0  0  0  0  0
   49.6527   34.5209   37.4430 H   0  0  0  0  0  0  0  0  0  0  0  0
   45.1405   31.4346   35.2707 H   0  0  0  0  0  0  0  0  0  0  0  0
   44.9296   31.7825   37.6406 H   0  0  0  0  0  0  0  0  0  0  0  0
   45.6761   32.6431   39.7569 H   0  0  0  0  0  0  0  0  0  0  0  0
  1  6  2  0
  2  1  1  0
  3  2  2  0
  3  4  1  0
  4  5  2  0
  5  6  1  0
  7  3  1  0
  8  7  1  0
  9  8  1  0
  9  7  1  0
 10  2  1  0
  1 11  1  0
  5 12  1  0
  7 13  1  6
  8 14  1  0
  8 15  1  0
  9 16  1  1
 10 17  1  0
 10 18  1  0
 19 20  2  0
 20 21  1  0
 20 22  1  0
 22 23  2  0
 23 24  1  0
 24 25  2  0
 25 26  1  0
 25 27  1  0
 27 28  2  0
 28 29  1  0
 29 30  2  0
 30 19  1  0
 29 23  1  0
 22 31  1  0
 27 32  1  0
 28 33  1  0
 30 34  1  0
  9 19  1  0
M  ISO  8  11  14  12  14  13  13  14  13  15  13  16  13  21  16  26  16
M  END
>  <DihAtoms>  (1) 
7,8,18,19

>  <DihDeg>  (1) 
-46.230478009162624

$$$$
