
 OpenBabel03252506023D

 31 34  0  0  0  0  0  0  0  0999 V2000
   44.9750   36.1700   43.4790 Cl  0  0  0  0  0  0  0  0  0  0  0  0
   45.6180   34.8140   44.3520 C   0  0  0  0  0  0  0  0  0  0  0  0
   46.6540   34.0740   43.8300 C   0  0  0  0  0  0  0  0  0  0  0  0
   47.0920   33.0240   44.6010 C   0  0  0  0  0  0  0  0  0  0  0  0
   46.5720   32.6770   45.8310 C   0  0  0  0  0  0  0  0  0  0  0  0
   45.5390   33.4370   46.3220 C   0  0  0  0  0  0  0  0  0  0  0  0
   44.9010   32.9680   47.8860 Cl  0  0  0  0  0  0  0  0  0  0  0  0
   45.0640   34.4960   45.5920 C   0  0  0  0  0  0  0  0  0  0  0  0
   47.9180   32.4420   44.1750 H   0  0  0  0  0  0  0  0  0  0  0  0
   44.2490   35.0680   46.0180 H   0  0  0  0  0  0  0  0  0  0  0  0
   47.1740   31.5230   46.5000 C   0  0  0  0  0  0  0  0  0  0  0  0
   47.8890   31.6230   47.6750 C   0  0  0  0  0  0  0  0  0  0  0  0
   48.0230   32.5860   48.1410 H   0  0  0  0  0  0  0  0  0  0  0  0
   48.4650   30.5510   48.3240 C   0  0  0  0  0  3  0  0  0  0  0  0
   48.3290   29.2920   47.7780 C   0  0  0  0  0  0  0  0  0  0  0  0
   48.8950   28.2600   48.4200 N   0  0  0  0  0  0  0  0  0  0  0  0
   48.8150   26.9920   47.9610 C   0  0  0  0  0  0  0  0  0  0  0  0
   49.3140   26.2440   48.5700 H   0  0  0  0  0  0  0  0  0  0  0  0
   48.1100   26.8050   46.7780 C   0  0  0  0  0  3  0  0  0  0  0  0
   47.5330   27.8570   46.1240 C   0  0  0  0  0  3  0  0  0  0  0  0
   47.6260   29.1440   46.6090 C   0  0  0  0  0  0  0  0  0  0  0  0
   47.0580   30.2350   45.9790 C   0  0  0  0  0  3  0  0  0  0  0  0
   48.8880   35.5090   41.3300 C   0  0  0  0  0  0  0  0  0  0  0  0
   48.4100   34.9970   40.1270 C   0  0  0  0  0  0  0  0  0  0  0  0
   47.2840   34.1290   40.1670 C   0  0  0  0  0  0  0  0  0  0  0  0
   46.7590   33.8680   41.3890 N   0  0  0  0  0  0  0  0  0  0  0  0
   47.2510   34.3830   42.5360 C   0  0  0  0  0  0  0  0  0  0  0  0
   48.3160   35.2050   42.5100 N   0  0  0  0  0  0  0  0  0  0  0  0
   49.7540   36.1800   41.3330 H   0  0  0  0  0  0  0  0  0  0  0  0
   48.8760   35.2470   39.1850 H   0  0  0  0  0  0  0  0  0  0  0  0
   46.8820   33.7120   39.2700 H   0  0  0  0  0  0  0  0  0  0  0  0
  1  2  1  0  0  0  0
  2  8  1  0  0  0  0
  3  2  2  0  0  0  0
  3  4  1  0  0  0  0
  4  5  2  0  0  0  0
  5  6  1  0  0  0  0
  5 11  1  0  0  0  0
  6  7  1  0  0  0  0
  8 10  1  0  0  0  0
  8  6  2  0  0  0  0
  9  4  1  0  0  0  0
 11 12  1  0  0  0  0
 12 13  1  0  0  0  0
 12 14  2  0  0  0  0
 15 14  1  0  0  0  0
 15 16  1  0  0  0  0
 17 16  2  0  0  0  0
 17 18  1  0  0  0  0
 19 17  1  0  0  0  0
 20 21  1  0  0  0  0
 20 19  2  0  0  0  0
 21 15  2  0  0  0  0
 22 11  2  0  0  0  0
 22 21  1  0  0  0  0
 23 29  1  0  0  0  0
 23 28  1  0  0  0  0
 24 25  1  0  0  0  0
 24 23  2  0  0  0  0
 25 26  2  0  0  0  0
 26 27  1  0  0  0  0
 27  3  1  0  0  0  0
 28 27  2  0  0  0  0
 30 24  1  0  0  0  0
 31 25  1  0  0  0  0
M  END
>  <minimizedAffinity>
-5.93510056

>  <minimizedRMSD>
0.962213814

$$$$
