
 OpenBabel03252506143D

 39 42  0  0  0  0  0  0  0  0999 V2000
   37.5060   32.2970   39.1210 F   0  0  0  0  0  0  0  0  0  0  0  0
   38.4010   31.3830   39.4890 C   0  0  0  0  0  0  0  0  0  0  0  0
   39.6790   31.7820   39.8050 C   0  0  0  0  0  0  0  0  0  0  0  0
   40.6790   30.8920   40.2020 C   0  0  0  0  0  0  0  0  0  0  0  0
   40.3840   29.5300   40.2880 C   0  0  0  0  0  0  0  0  0  0  0  0
   39.0890   29.1700   39.9640 C   0  0  0  0  0  0  0  0  0  0  0  0
   38.1080   30.0260   39.5750 C   0  0  0  0  0  0  0  0  0  0  0  0
   41.6630   31.2870   40.4340 H   0  0  0  0  0  0  0  0  0  0  0  0
   41.1840   28.8790   40.6000 H   0  0  0  0  0  0  0  0  0  0  0  0
   38.9930   28.0950   40.0790 H   0  0  0  0  0  0  0  0  0  0  0  0
   41.4180   34.8760   38.8610 C   0  0  0  0  0  0  0  0  0  0  0  0
   40.7150   35.8440   39.6130 C   0  0  0  0  0  0  0  0  0  0  0  0
   39.6410   35.4270   40.4470 C   0  0  0  0  0  0  0  0  0  0  0  0
   39.3610   34.0910   40.4600 N   0  0  0  0  0  0  0  0  0  0  0  0
   40.0440   33.2060   39.7360 C   0  0  0  0  0  0  0  0  0  0  0  0
   41.0610   33.5980   38.9470 N   0  0  0  0  0  0  0  0  0  0  0  0
   40.9520   36.8950   39.5900 H   0  0  0  0  0  0  0  0  0  0  0  0
   39.0860   36.1380   41.0320 H   0  0  0  0  0  0  0  0  0  0  0  0
   42.4840   35.3090   38.0370 N   0  0  0  0  0  0  0  0  0  0  0  0
   42.3200   36.1980   37.5130 H   0  0  0  0  0  0  0  0  0  0  0  0
   43.4200   34.8770   37.8680 H   0  0  0  0  0  0  0  0  0  0  0  0
   36.8580   29.5590   39.2740 O   0  0  0  0  0  0  0  0  0  0  0  0
   34.2160   29.4510   39.5160 O   0  0  0  0  0  0  0  0  0  0  0  0
   35.5120   29.5610   40.2880 P   0  0  2  0  0  0  0  0  0  0  0  0
   35.5340   30.9840   41.2160 O   0  0  0  0  0  0  0  0  0  0  0  0
   35.2870   30.8620   42.1450 H   0  0  0  0  0  0  0  0  0  0  0  0
   35.5510   28.2940   41.4190 O   0  0  0  0  0  0  0  0  0  0  0  0
   36.7130   27.9290   42.1130 C   0  0  0  0  0  0  0  0  0  0  0  0
   37.3260   28.7790   43.0230 C   0  0  0  0  0  0  0  0  0  0  0  0
   36.8900   29.7380   43.1920 H   0  0  0  0  0  0  0  0  0  0  0  0
   38.4750   28.3300   43.6620 C   0  0  0  0  0  3  0  0  0  0  0  0
   38.9730   27.0730   43.3840 C   0  0  0  0  0  0  0  0  0  0  0  0
   40.0860   26.5860   43.9760 N   0  0  0  0  0  0  0  0  0  0  0  0
   40.5510   25.3420   43.6800 C   0  0  0  0  0  0  0  0  0  0  0  0
   41.4520   24.9620   44.1660 H   0  0  0  0  0  0  0  0  0  0  0  0
   39.9490   24.4910   42.7770 C   0  0  0  0  0  3  0  0  0  0  0  0
   38.7930   24.9610   42.1430 C   0  0  0  0  0  3  0  0  0  0  0  0
   38.3640   26.2280   42.4800 C   0  0  0  0  0  0  0  0  0  0  0  0
   37.2060   26.6520   41.8200 C   0  0  0  0  0  3  0  0  0  0  0  0
  1  2  1  0  0  0  0
  2  7  2  0  0  0  0
  2  3  1  0  0  0  0
  3  4  2  0  0  0  0
  4  5  1  0  0  0  0
  4  8  1  0  0  0  0
  5  9  1  0  0  0  0
  6 10  1  0  0  0  0
  6  5  2  0  0  0  0
  7  6  1  0  0  0  0
 11 16  2  0  0  0  0
 11 12  1  0  0  0  0
 12 13  2  0  0  0  0
 13 14  1  0  0  0  0
 13 18  1  0  0  0  0
 15  3  1  0  0  0  0
 15 14  2  0  0  0  0
 16 15  1  0  0  0  0
 17 12  1  0  0  0  0
 19 11  1  0  0  0  0
 20 19  1  0  0  0  0
 21 19  1  0  0  0  0
 22  7  1  0  0  0  0
 22 24  1  0  0  0  0
 24 23  2  6  0  0  0
 24 25  1  0  0  0  0
 24 27  1  0  0  0  0
 25 26  1  0  0  0  0
 27 28  1  0  0  0  0
 28 29  1  0  0  0  0
 29 30  1  0  0  0  0
 29 31  2  0  0  0  0
 32 31  1  0  0  0  0
 32 33  1  0  0  0  0
 34 33  2  0  0  0  0
 34 35  1  0  0  0  0
 36 34  1  0  0  0  0
 37 38  1  0  0  0  0
 37 36  2  0  0  0  0
 38 32  2  0  0  0  0
 39 28  2  0  0  0  0
 39 38  1  0  0  0  0
M  END
>  <minimizedAffinity>
-7.53067923

$$$$

 OpenBabel03252506143D

 39 42  0  0  0  0  0  0  0  0999 V2000
   41.7450   32.0640   40.7910 F   0  0  0  0  0  0  0  0  0  0  0  0
   41.0640   33.1850   40.5650 C   0  0  0  0  0  0  0  0  0  0  0  0
   41.7120   34.2650   40.0120 C   0  0  0  0  0  0  0  0  0  0  0  0
   41.0760   35.4780   39.7410 C   0  0  0  0  0  0  0  0  0  0  0  0
   39.7190   35.6170   40.0370 C   0  0  0  0  0  0  0  0  0  0  0  0
   39.1040   34.5090   40.5900 C   0  0  0  0  0  0  0  0  0  0  0  0
   39.7120   33.3240   40.8610 C   0  0  0  0  0  0  0  0  0  0  0  0
   41.6580   36.2840   39.3040 H   0  0  0  0  0  0  0  0  0  0  0  0
   39.2670   36.5690   39.8110 H   0  0  0  0  0  0  0  0  0  0  0  0
   38.0590   34.7460   40.7630 H   0  0  0  0  0  0  0  0  0  0  0  0
   44.7990   33.8650   38.0620 C   0  0  0  0  0  0  0  0  0  0  0  0
   45.7910   34.0060   39.0590 C   0  0  0  0  0  0  0  0  0  0  0  0
   45.3930   34.2390   40.4040 C   0  0  0  0  0  0  0  0  0  0  0  0
   44.0500   34.3110   40.6400 N   0  0  0  0  0  0  0  0  0  0  0  0
   43.1420   34.1740   39.6750 C   0  0  0  0  0  0  0  0  0  0  0  0
   43.5160   33.9530   38.4020 N   0  0  0  0  0  0  0  0  0  0  0  0
   46.8470   33.9460   38.8520 H   0  0  0  0  0  0  0  0  0  0  0  0
   46.1220   34.3510   41.1860 H   0  0  0  0  0  0  0  0  0  0  0  0
   45.2130   33.6340   36.7290 N   0  0  0  0  0  0  0  0  0  0  0  0
   46.0410   34.1840   36.4090 H   0  0  0  0  0  0  0  0  0  0  0  0
   44.8180   32.9920   36.0050 H   0  0  0  0  0  0  0  0  0  0  0  0
   39.0060   32.2900   41.4130 O   0  0  0  0  0  0  0  0  0  0  0  0
   38.2830   30.6460   39.4580 O   0  0  0  0  0  0  0  0  0  0  0  0
   37.7840   31.3980   40.6720 P   0  0  2  0  0  0  0  0  0  0  0  0
   36.5240   32.4530   40.2430 O   0  0  0  0  0  0  0  0  0  0  0  0
   35.6340   32.1060   40.4090 H   0  0  0  0  0  0  0  0  0  0  0  0
   37.0760   30.2690   41.7260 O   0  0  0  0  0  0  0  0  0  0  0  0
   37.7130   29.0780   42.1050 C   0  0  0  0  0  0  0  0  0  0  0  0
   38.8370   29.0700   42.9190 C   0  0  0  0  0  0  0  0  0  0  0  0
   39.2200   30.0060   43.2600 H   0  0  0  0  0  0  0  0  0  0  0  0
   39.3990   27.8420   43.2410 C   0  0  0  0  0  3  0  0  0  0  0  0
   38.8390   26.6780   42.7550 C   0  0  0  0  0  0  0  0  0  0  0  0
   39.3440   25.4560   43.0370 N   0  0  0  0  0  0  0  0  0  0  0  0
   38.7670   24.3270   42.5420 C   0  0  0  0  0  0  0  0  0  0  0  0
   39.1870   23.3470   42.7780 H   0  0  0  0  0  0  0  0  0  0  0  0
   37.6500   24.3250   41.7330 C   0  0  0  0  0  3  0  0  0  0  0  0
   37.0980   25.5730   41.4190 C   0  0  0  0  0  3  0  0  0  0  0  0
   37.7210   26.6850   41.9470 C   0  0  0  0  0  0  0  0  0  0  0  0
   37.1330   27.9060   41.6040 C   0  0  0  0  0  3  0  0  0  0  0  0
  2  1  1  0  0  0  0
  2  7  1  0  0  0  0
  3  2  2  0  0  0  0
  4  3  1  0  0  0  0
  4  5  2  0  0  0  0
  5  6  1  0  0  0  0
  6 10  1  0  0  0  0
  6  7  2  0  0  0  0
  7 22  1  0  0  0  0
  8  4  1  0  0  0  0
  9  5  1  0  0  0  0
 11 16  2  0  0  0  0
 11 12  1  0  0  0  0
 12 13  2  0  0  0  0
 13 14  1  0  0  0  0
 13 18  1  0  0  0  0
 15  3  1  0  0  0  0
 15 14  2  0  0  0  0
 16 15  1  0  0  0  0
 17 12  1  0  0  0  0
 19 11  1  0  0  0  0
 20 19  1  0  0  0  0
 21 19  1  0  0  0  0
 24 23  2  6  0  0  0
 24 22  1  0  0  0  0
 24 27  1  0  0  0  0
 25 26  1  0  0  0  0
 25 24  1  0  0  0  0
 27 28  1  0  0  0  0
 28 29  1  0  0  0  0
 29 31  2  0  0  0  0
 29 30  1  0  0  0  0
 32 33  1  0  0  0  0
 32 31  1  0  0  0  0
 34 35  1  0  0  0  0
 34 33  2  0  0  0  0
 36 34  1  0  0  0  0
 37 36  2  0  0  0  0
 37 38  1  0  0  0  0
 38 32  2  0  0  0  0
 39 38  1  0  0  0  0
 39 28  2  0  0  0  0
M  END
>  <minimizedAffinity>
-7.4464798

$$$$

 OpenBabel03252506143D

 39 42  0  0  0  0  0  0  0  0999 V2000
   41.1030   32.1250   40.6360 F   0  0  0  0  0  0  0  0  0  0  0  0
   40.4880   33.2920   40.4530 C   0  0  0  0  0  0  0  0  0  0  0  0
   41.2150   34.3740   40.0170 C   0  0  0  0  0  0  0  0  0  0  0  0
   40.6510   35.6330   39.7970 C   0  0  0  0  0  0  0  0  0  0  0  0
   39.2870   35.8160   40.0240 C   0  0  0  0  0  0  0  0  0  0  0  0
   38.5900   34.7040   40.4590 C   0  0  0  0  0  0  0  0  0  0  0  0
   39.1270   33.4750   40.6780 C   0  0  0  0  0  0  0  0  0  0  0  0
   41.2940   36.4370   39.4530 H   0  0  0  0  0  0  0  0  0  0  0  0
   38.8920   36.8020   39.8400 H   0  0  0  0  0  0  0  0  0  0  0  0
   37.5480   34.9790   40.5870 H   0  0  0  0  0  0  0  0  0  0  0  0
   44.3880   33.8660   38.2380 C   0  0  0  0  0  0  0  0  0  0  0  0
   45.3290   33.9850   39.2850 C   0  0  0  0  0  0  0  0  0  0  0  0
   44.8670   34.2400   40.6060 C   0  0  0  0  0  0  0  0  0  0  0  0
   43.5170   34.3540   40.7690 N   0  0  0  0  0  0  0  0  0  0  0  0
   42.6580   34.2370   39.7580 C   0  0  0  0  0  0  0  0  0  0  0  0
   43.0930   33.9960   38.5080 N   0  0  0  0  0  0  0  0  0  0  0  0
   46.3930   33.8910   39.1360 H   0  0  0  0  0  0  0  0  0  0  0  0
   45.5570   34.3350   41.4250 H   0  0  0  0  0  0  0  0  0  0  0  0
   44.8660   33.6130   36.9300 N   0  0  0  0  0  0  0  0  0  0  0  0
   45.7270   34.1350   36.6520 H   0  0  0  0  0  0  0  0  0  0  0  0
   44.4910   32.9780   36.1900 H   0  0  0  0  0  0  0  0  0  0  0  0
   38.3440   32.4410   41.1130 O   0  0  0  0  0  0  0  0  0  0  0  0
   37.0040   32.1660   38.8370 O   0  0  0  0  0  0  0  0  0  0  0  0
   37.2720   31.5320   40.1840 P   0  0  2  0  0  0  0  0  0  0  0  0
   35.8240   31.3450   41.0530 O   0  0  0  0  0  0  0  0  0  0  0  0
   35.4340   30.4590   40.9990 H   0  0  0  0  0  0  0  0  0  0  0  0
   37.8310   29.9510   39.9110 O   0  0  0  0  0  0  0  0  0  0  0  0
   38.2350   29.0970   40.9470 C   0  0  0  0  0  0  0  0  0  0  0  0
   37.3560   28.2160   41.5610 C   0  0  0  0  0  0  0  0  0  0  0  0
   36.3440   28.1980   41.2250 H   0  0  0  0  0  0  0  0  0  0  0  0
   37.8470   27.4100   42.5790 C   0  0  0  0  0  3  0  0  0  0  0  0
   39.1730   27.4980   42.9510 C   0  0  0  0  0  0  0  0  0  0  0  0
   39.7040   26.7380   43.9340 N   0  0  0  0  0  0  0  0  0  0  0  0
   41.0160   26.8500   44.2770 C   0  0  0  0  0  0  0  0  0  0  0  0
   41.4310   26.2280   45.0730 H   0  0  0  0  0  0  0  0  0  0  0  0
   41.8970   27.7210   43.6720 C   0  0  0  0  0  3  0  0  0  0  0  0
   41.3830   28.5270   42.6490 C   0  0  0  0  0  3  0  0  0  0  0  0
   40.0480   28.3730   42.3410 C   0  0  0  0  0  0  0  0  0  0  0  0
   39.5820   29.1990   41.3130 C   0  0  0  0  0  3  0  0  0  0  0  0
  2  1  1  0  0  0  0
  2  7  1  0  0  0  0
  3  2  2  0  0  0  0
  4  3  1  0  0  0  0
  4  5  2  0  0  0  0
  5  6  1  0  0  0  0
  6 10  1  0  0  0  0
  6  7  2  0  0  0  0
  7 22  1  0  0  0  0
  8  4  1  0  0  0  0
  9  5  1  0  0  0  0
 11 16  2  0  0  0  0
 11 12  1  0  0  0  0
 12 13  2  0  0  0  0
 13 14  1  0  0  0  0
 13 18  1  0  0  0  0
 15  3  1  0  0  0  0
 15 14  2  0  0  0  0
 16 15  1  0  0  0  0
 17 12  1  0  0  0  0
 19 11  1  0  0  0  0
 20 19  1  0  0  0  0
 21 19  1  0  0  0  0
 24 23  2  6  0  0  0
 24 25  1  0  0  0  0
 24 22  1  0  0  0  0
 26 25  1  0  0  0  0
 27 24  1  0  0  0  0
 27 28  1  0  0  0  0
 28 39  2  0  0  0  0
 28 29  1  0  0  0  0
 29 31  2  0  0  0  0
 30 29  1  0  0  0  0
 31 32  1  0  0  0  0
 32 33  1  0  0  0  0
 33 34  2  0  0  0  0
 34 35  1  0  0  0  0
 36 34  1  0  0  0  0
 37 36  2  0  0  0  0
 38 37  1  0  0  0  0
 38 32  2  0  0  0  0
 39 38  1  0  0  0  0
M  END
>  <minimizedAffinity>
-7.39423847

$$$$

 OpenBabel03252506143D

 39 42  0  0  0  0  0  0  0  0999 V2000
   40.2110   30.4420   39.3590 F   0  0  0  0  0  0  0  0  0  0  0  0
   39.2460   31.3420   39.5330 C   0  0  0  0  0  0  0  0  0  0  0  0
   39.5690   32.6780   39.5650 C   0  0  0  0  0  0  0  0  0  0  0  0
   38.6200   33.6880   39.7410 C   0  0  0  0  0  0  0  0  0  0  0  0
   37.2770   33.3410   39.8900 C   0  0  0  0  0  0  0  0  0  0  0  0
   36.9930   31.9880   39.8500 C   0  0  0  0  0  0  0  0  0  0  0  0
   37.9060   30.9960   39.6810 C   0  0  0  0  0  0  0  0  0  0  0  0
   38.9570   34.7200   39.7560 H   0  0  0  0  0  0  0  0  0  0  0  0
   36.5770   34.1510   40.0220 H   0  0  0  0  0  0  0  0  0  0  0  0
   35.9210   31.8580   39.9690 H   0  0  0  0  0  0  0  0  0  0  0  0
   42.6630   33.9390   38.0390 C   0  0  0  0  0  0  0  0  0  0  0  0
   43.5640   33.8840   39.1260 C   0  0  0  0  0  0  0  0  0  0  0  0
   43.1030   33.4110   40.3850 C   0  0  0  0  0  0  0  0  0  0  0  0
   41.7920   33.0350   40.4540 N   0  0  0  0  0  0  0  0  0  0  0  0
   40.9700   33.1010   39.4090 C   0  0  0  0  0  0  0  0  0  0  0  0
   41.4040   33.5490   38.2160 N   0  0  0  0  0  0  0  0  0  0  0  0
   44.5970   34.1850   39.0510 H   0  0  0  0  0  0  0  0  0  0  0  0
   43.7640   33.3560   41.2310 H   0  0  0  0  0  0  0  0  0  0  0  0
   43.1390   34.4130   36.7940 N   0  0  0  0  0  0  0  0  0  0  0  0
   43.7810   35.2360   36.8370 H   0  0  0  0  0  0  0  0  0  0  0  0
   42.9480   34.0670   35.8270 H   0  0  0  0  0  0  0  0  0  0  0  0
   37.5140   29.6860   39.6590 O   0  0  0  0  0  0  0  0  0  0  0  0
   36.6110   27.3810   40.6180 O   0  0  0  0  0  0  0  0  0  0  0  0
   36.6560   28.8730   40.8600 P   0  0  2  0  0  0  0  0  0  0  0  0
   35.0840   29.5130   40.9320 O   0  0  0  0  0  0  0  0  0  0  0  0
   34.7400   29.6340   41.8300 H   0  0  0  0  0  0  0  0  0  0  0  0
   37.3090   29.1280   42.4080 O   0  0  0  0  0  0  0  0  0  0  0  0
   38.4660   28.4800   42.8620 C   0  0  0  0  0  0  0  0  0  0  0  0
   38.4160   27.2740   43.5470 C   0  0  0  0  0  0  0  0  0  0  0  0
   37.4600   26.8360   43.7280 H   0  0  0  0  0  0  0  0  0  0  0  0
   39.6140   26.7080   43.9590 C   0  0  0  0  0  3  0  0  0  0  0  0
   40.8090   27.3430   43.6830 C   0  0  0  0  0  0  0  0  0  0  0  0
   42.0040   26.8370   44.0590 N   0  0  0  0  0  0  0  0  0  0  0  0
   43.1640   27.4890   43.7710 C   0  0  0  0  0  0  0  0  0  0  0  0
   44.1220   27.0680   44.0820 H   0  0  0  0  0  0  0  0  0  0  0  0
   43.2240   28.6870   43.0910 C   0  0  0  0  0  3  0  0  0  0  0  0
   42.0050   29.2430   42.6850 C   0  0  0  0  0  3  0  0  0  0  0  0
   40.8600   28.5420   43.0020 C   0  0  0  0  0  0  0  0  0  0  0  0
   39.6690   29.1370   42.5750 C   0  0  0  0  0  3  0  0  0  0  0  0
  1  2  1  0  0  0  0
  2  3  2  0  0  0  0
  2  7  1  0  0  0  0
  3  4  1  0  0  0  0
  4  8  1  0  0  0  0
  4  5  2  0  0  0  0
  5  9  1  0  0  0  0
  6  5  1  0  0  0  0
  6 10  1  0  0  0  0
  7  6  2  0  0  0  0
 11 16  2  0  0  0  0
 11 12  1  0  0  0  0
 12 13  2  0  0  0  0
 13 14  1  0  0  0  0
 13 18  1  0  0  0  0
 15  3  1  0  0  0  0
 15 14  2  0  0  0  0
 16 15  1  0  0  0  0
 17 12  1  0  0  0  0
 19 20  1  0  0  0  0
 19 11  1  0  0  0  0
 21 19  1  0  0  0  0
 22  7  1  0  0  0  0
 22 24  1  0  0  0  0
 24 23  2  6  0  0  0
 24 25  1  0  0  0  0
 24 27  1  0  0  0  0
 25 26  1  0  0  0  0
 27 28  1  0  0  0  0
 28 29  1  0  0  0  0
 29 30  1  0  0  0  0
 29 31  2  0  0  0  0
 32 31  1  0  0  0  0
 32 33  1  0  0  0  0
 34 33  2  0  0  0  0
 34 35  1  0  0  0  0
 36 34  1  0  0  0  0
 37 38  1  0  0  0  0
 37 36  2  0  0  0  0
 38 32  2  0  0  0  0
 39 28  2  0  0  0  0
 39 38  1  0  0  0  0
M  END
>  <minimizedAffinity>
-7.05221224

$$$$

 OpenBabel03252506143D

 39 42  0  0  0  0  0  0  0  0999 V2000
   38.9940   27.8150   40.3440 F   0  0  0  0  0  0  0  0  0  0  0  0
   38.3600   27.9140   41.5100 C   0  0  0  0  0  0  0  0  0  0  0  0
   37.4760   26.9270   41.8800 C   0  0  0  0  0  0  0  0  0  0  0  0
   36.7690   26.9500   43.0840 C   0  0  0  0  0  0  0  0  0  0  0  0
   36.9590   28.0150   43.9660 C   0  0  0  0  0  0  0  0  0  0  0  0
   37.8570   28.9850   43.5580 C   0  0  0  0  0  0  0  0  0  0  0  0
   38.5490   28.9760   42.3890 C   0  0  0  0  0  0  0  0  0  0  0  0
   36.0880   26.1330   43.3030 H   0  0  0  0  0  0  0  0  0  0  0  0
   36.3960   27.9930   44.8840 H   0  0  0  0  0  0  0  0  0  0  0  0
   37.9170   29.7450   44.3310 H   0  0  0  0  0  0  0  0  0  0  0  0
   37.5750   23.5190   40.5140 C   0  0  0  0  0  0  0  0  0  0  0  0
   36.7980   23.6550   39.3420 C   0  0  0  0  0  0  0  0  0  0  0  0
   36.2400   24.9240   39.0230 C   0  0  0  0  0  0  0  0  0  0  0  0
   36.5020   25.9420   39.8940 N   0  0  0  0  0  0  0  0  0  0  0  0
   37.2390   25.7780   40.9910 C   0  0  0  0  0  0  0  0  0  0  0  0
   37.7680   24.5790   41.2940 N   0  0  0  0  0  0  0  0  0  0  0  0
   36.6020   22.8380   38.6660 H   0  0  0  0  0  0  0  0  0  0  0  0
   35.6440   25.0600   38.1390 H   0  0  0  0  0  0  0  0  0  0  0  0
   38.1220   22.2490   40.8160 N   0  0  0  0  0  0  0  0  0  0  0  0
   37.4950   21.4320   40.6420 H   0  0  0  0  0  0  0  0  0  0  0  0
   39.0640   21.9960   41.1880 H   0  0  0  0  0  0  0  0  0  0  0  0
   39.4130   29.9910   42.0840 O   0  0  0  0  0  0  0  0  0  0  0  0
   39.7490   30.9530   39.6330 O   0  0  0  0  0  0  0  0  0  0  0  0
   39.1470   31.2440   40.9890 P   0  0  2  0  0  0  0  0  0  0  0  0
   39.7950   32.6760   41.6340 O   0  0  0  0  0  0  0  0  0  0  0  0
   39.2430   33.4620   41.5030 H   0  0  0  0  0  0  0  0  0  0  0  0
   37.4950   31.5680   40.7640 O   0  0  0  0  0  0  0  0  0  0  0  0
   36.6340   30.6970   40.0810 C   0  0  0  0  0  0  0  0  0  0  0  0
   35.6120   30.0140   40.7260 C   0  0  0  0  0  0  0  0  0  0  0  0
   35.4880   30.1660   41.7750 H   0  0  0  0  0  0  0  0  0  0  0  0
   34.8110   29.1720   39.9670 C   0  0  0  0  0  3  0  0  0  0  0  0
   35.0430   29.0340   38.6130 C   0  0  0  0  0  0  0  0  0  0  0  0
   34.2940   28.2290   37.8270 N   0  0  0  0  0  0  0  0  0  0  0  0
   34.5480   28.1150   36.4950 C   0  0  0  0  0  0  0  0  0  0  0  0
   33.9350   27.4610   35.8720 H   0  0  0  0  0  0  0  0  0  0  0  0
   35.5610   28.7900   35.8450 C   0  0  0  0  0  3  0  0  0  0  0  0
   36.3590   29.6330   36.6280 C   0  0  0  0  0  3  0  0  0  0  0  0
   36.0580   29.7120   37.9710 C   0  0  0  0  0  0  0  0  0  0  0  0
   36.8820   30.5670   38.7100 C   0  0  0  0  0  3  0  0  0  0  0  0
  1  2  1  0  0  0  0
  2  3  2  0  0  0  0
  2  7  1  0  0  0  0
  3  4  1  0  0  0  0
  4  8  1  0  0  0  0
  4  5  2  0  0  0  0
  5  9  1  0  0  0  0
  6  5  1  0  0  0  0
  6 10  1  0  0  0  0
  7  6  2  0  0  0  0
 11 19  1  0  0  0  0
 11 16  1  0  0  0  0
 12 11  2  0  0  0  0
 13 12  1  0  0  0  0
 13 14  2  0  0  0  0
 14 15  1  0  0  0  0
 15 16  2  0  0  0  0
 15  3  1  0  0  0  0
 17 12  1  0  0  0  0
 18 13  1  0  0  0  0
 19 21  1  0  0  0  0
 20 19  1  0  0  0  0
 22  7  1  0  0  0  0
 24 23  2  6  0  0  0
 24 25  1  0  0  0  0
 24 22  1  0  0  0  0
 26 25  1  0  0  0  0
 27 24  1  0  0  0  0
 28 29  1  0  0  0  0
 28 27  1  0  0  0  0
 29 30  1  0  0  0  0
 31 29  2  0  0  0  0
 32 31  1  0  0  0  0
 33 32  2  0  0  0  0
 34 33  1  0  0  0  0
 35 34  1  0  0  0  0
 36 34  2  0  0  0  0
 36 37  1  0  0  0  0
 37 38  2  0  0  0  0
 38 32  1  0  0  0  0
 38 39  1  0  0  0  0
 39 28  2  0  0  0  0
M  END
>  <minimizedAffinity>
-6.83788109

$$$$

 OpenBabel03252506143D

 39 42  0  0  0  0  0  0  0  0999 V2000
   40.3500   28.0010   41.0350 F   0  0  0  0  0  0  0  0  0  0  0  0
   40.9830   28.9360   41.7390 C   0  0  0  0  0  0  0  0  0  0  0  0
   40.5230   30.2320   41.7010 C   0  0  0  0  0  0  0  0  0  0  0  0
   41.1240   31.2750   42.4100 C   0  0  0  0  0  0  0  0  0  0  0  0
   42.2440   31.0060   43.1980 C   0  0  0  0  0  0  0  0  0  0  0  0
   42.6730   29.6920   43.2110 C   0  0  0  0  0  0  0  0  0  0  0  0
   42.0980   28.6690   42.5260 C   0  0  0  0  0  0  0  0  0  0  0  0
   40.7010   32.2710   42.3260 H   0  0  0  0  0  0  0  0  0  0  0  0
   42.6760   31.8390   43.7290 H   0  0  0  0  0  0  0  0  0  0  0  0
   43.5380   29.6190   43.8640 H   0  0  0  0  0  0  0  0  0  0  0  0
   37.0360   30.8860   40.7520 C   0  0  0  0  0  0  0  0  0  0  0  0
   37.1640   31.2040   39.3810 C   0  0  0  0  0  0  0  0  0  0  0  0
   38.4550   31.1910   38.7850 C   0  0  0  0  0  0  0  0  0  0  0  0
   39.5010   30.8660   39.6000 N   0  0  0  0  0  0  0  0  0  0  0  0
   39.3430   30.5720   40.8890 C   0  0  0  0  0  0  0  0  0  0  0  0
   38.1230   30.5830   41.4550 N   0  0  0  0  0  0  0  0  0  0  0  0
   36.3250   31.4570   38.7530 H   0  0  0  0  0  0  0  0  0  0  0  0
   38.5870   31.4280   37.7450 H   0  0  0  0  0  0  0  0  0  0  0  0
   35.7440   30.9030   41.3280 N   0  0  0  0  0  0  0  0  0  0  0  0
   35.1230   31.6890   41.0280 H   0  0  0  0  0  0  0  0  0  0  0  0
   35.3050   30.2480   42.0130 H   0  0  0  0  0  0  0  0  0  0  0  0
   42.6090   27.4030   42.6090 O   0  0  0  0  0  0  0  0  0  0  0  0
   43.4390   26.9120   45.0830 O   0  0  0  0  0  0  0  0  0  0  0  0
   42.5760   26.3910   43.9560 P   0  0  2  0  0  0  0  0  0  0  0  0
   43.0870   24.8410   43.4830 O   0  0  0  0  0  0  0  0  0  0  0  0
   42.5760   24.1130   43.8700 H   0  0  0  0  0  0  0  0  0  0  0  0
   41.0050   26.1730   44.5640 O   0  0  0  0  0  0  0  0  0  0  0  0
   39.8740   26.0950   43.7390 C   0  0  0  0  0  0  0  0  0  0  0  0
   38.8830   27.0670   43.7520 C   0  0  0  0  0  0  0  0  0  0  0  0
   38.9980   27.8950   44.4160 H   0  0  0  0  0  0  0  0  0  0  0  0
   37.7990   26.9050   42.9010 C   0  0  0  0  0  3  0  0  0  0  0  0
   37.7310   25.8020   42.0730 C   0  0  0  0  0  0  0  0  0  0  0  0
   36.6990   25.5950   41.2240 N   0  0  0  0  0  0  0  0  0  0  0  0
   36.6620   24.4960   40.4210 C   0  0  0  0  0  0  0  0  0  0  0  0
   35.8220   24.3420   39.7410 H   0  0  0  0  0  0  0  0  0  0  0  0
   37.6410   23.5260   40.4000 C   0  0  0  0  0  3  0  0  0  0  0  0
   38.7250   23.7060   41.2670 C   0  0  0  0  0  3  0  0  0  0  0  0
   38.7140   24.8360   42.0590 C   0  0  0  0  0  0  0  0  0  0  0  0
   39.8180   24.9710   42.9060 C   0  0  0  0  0  3  0  0  0  0  0  0
  1  2  1  0  0  0  0
  2  7  1  0  0  0  0
  3  2  2  0  0  0  0
  3  4  1  0  0  0  0
  4  5  2  0  0  0  0
  5  6  1  0  0  0  0
  5  9  1  0  0  0  0
  6 10  1  0  0  0  0
  7 22  1  0  0  0  0
  7  6  2  0  0  0  0
  8  4  1  0  0  0  0
 11 19  1  0  0  0  0
 11 16  1  0  0  0  0
 12 11  2  0  0  0  0
 13 12  1  0  0  0  0
 13 14  2  0  0  0  0
 14 15  1  0  0  0  0
 15 16  2  0  0  0  0
 15  3  1  0  0  0  0
 17 12  1  0  0  0  0
 18 13  1  0  0  0  0
 19 21  1  0  0  0  0
 20 19  1  0  0  0  0
 22 24  1  0  0  0  0
 24 27  1  0  0  0  0
 24 23  2  1  0  0  0
 25 26  1  0  0  0  0
 25 24  1  0  0  0  0
 28 29  1  0  0  0  0
 28 27  1  0  0  0  0
 29 30  1  0  0  0  0
 31 29  2  0  0  0  0
 32 31  1  0  0  0  0
 33 32  2  0  0  0  0
 34 33  1  0  0  0  0
 35 34  1  0  0  0  0
 36 34  2  0  0  0  0
 36 37  1  0  0  0  0
 37 38  2  0  0  0  0
 38 32  1  0  0  0  0
 38 39  1  0  0  0  0
 39 28  2  0  0  0  0
M  END
>  <minimizedAffinity>
-6.83432198

$$$$

 OpenBabel03252506143D

 39 42  0  0  0  0  0  0  0  0999 V2000
   40.1170   28.9660   40.8760 F   0  0  0  0  0  0  0  0  0  0  0  0
   40.9870   29.4670   41.7510 C   0  0  0  0  0  0  0  0  0  0  0  0
   41.0240   30.8260   41.9590 C   0  0  0  0  0  0  0  0  0  0  0  0
   41.9030   31.4350   42.8570 C   0  0  0  0  0  0  0  0  0  0  0  0
   42.7890   30.6420   43.5870 C   0  0  0  0  0  0  0  0  0  0  0  0
   42.7190   29.2810   43.3510 C   0  0  0  0  0  0  0  0  0  0  0  0
   41.8700   28.6760   42.4790 C   0  0  0  0  0  0  0  0  0  0  0  0
   41.8710   32.5150   42.9640 H   0  0  0  0  0  0  0  0  0  0  0  0
   43.4490   31.1520   44.2700 H   0  0  0  0  0  0  0  0  0  0  0  0
   43.4490   28.7850   43.9830 H   0  0  0  0  0  0  0  0  0  0  0  0
   37.9270   32.2680   40.6100 C   0  0  0  0  0  0  0  0  0  0  0  0
   38.4200   33.3520   39.8500 C   0  0  0  0  0  0  0  0  0  0  0  0
   39.8230   33.5840   39.8020 C   0  0  0  0  0  0  0  0  0  0  0  0
   40.6090   32.7220   40.5120 N   0  0  0  0  0  0  0  0  0  0  0  0
   40.1090   31.7110   41.2200 C   0  0  0  0  0  0  0  0  0  0  0  0
   38.7830   31.4890   41.2650 N   0  0  0  0  0  0  0  0  0  0  0  0
   37.7830   34.0220   39.2950 H   0  0  0  0  0  0  0  0  0  0  0  0
   40.2300   34.4000   39.2330 H   0  0  0  0  0  0  0  0  0  0  0  0
   36.5290   32.0530   40.6460 N   0  0  0  0  0  0  0  0  0  0  0  0
   35.9390   32.9110   40.7240 H   0  0  0  0  0  0  0  0  0  0  0  0
   35.9860   31.1610   40.6060 H   0  0  0  0  0  0  0  0  0  0  0  0
   41.8880   27.3180   42.3210 O   0  0  0  0  0  0  0  0  0  0  0  0
   41.9040   26.6040   44.8780 O   0  0  0  0  0  0  0  0  0  0  0  0
   41.5030   26.1650   43.4870 P   0  0  2  0  0  0  0  0  0  0  0  0
   42.2680   24.7040   43.0790 O   0  0  0  0  0  0  0  0  0  0  0  0
   41.7220   23.9130   43.2110 H   0  0  0  0  0  0  0  0  0  0  0  0
   39.8430   25.8020   43.5170 O   0  0  0  0  0  0  0  0  0  0  0  0
   38.8670   26.6590   42.9910 C   0  0  0  0  0  0  0  0  0  0  0  0
   38.4010   27.7630   43.6890 C   0  0  0  0  0  0  0  0  0  0  0  0
   38.8050   27.9550   44.6580 H   0  0  0  0  0  0  0  0  0  0  0  0
   37.4320   28.5540   43.0870 C   0  0  0  0  0  3  0  0  0  0  0  0
   36.9630   28.2330   41.8290 C   0  0  0  0  0  0  0  0  0  0  0  0
   36.0210   28.9670   41.1960 N   0  0  0  0  0  0  0  0  0  0  0  0
   35.5800   28.6230   39.9550 C   0  0  0  0  0  0  0  0  0  0  0  0
   34.8190   29.2270   39.4560 H   0  0  0  0  0  0  0  0  0  0  0  0
   36.0380   27.5280   39.2530 C   0  0  0  0  0  3  0  0  0  0  0  0
   37.0130   26.7420   39.8770 C   0  0  0  0  0  3  0  0  0  0  0  0
   37.4260   27.1360   41.1330 C   0  0  0  0  0  0  0  0  0  0  0  0
   38.4010   26.3200   41.7150 C   0  0  0  0  0  3  0  0  0  0  0  0
  1  2  1  0  0  0  0
  2  3  2  0  0  0  0
  2  7  1  0  0  0  0
  3  4  1  0  0  0  0
  4  8  1  0  0  0  0
  4  5  2  0  0  0  0
  5  9  1  0  0  0  0
  6  5  1  0  0  0  0
  6 10  1  0  0  0  0
  7  6  2  0  0  0  0
 11 19  1  0  0  0  0
 11 16  1  0  0  0  0
 12 11  2  0  0  0  0
 13 12  1  0  0  0  0
 13 14  2  0  0  0  0
 14 15  1  0  0  0  0
 15 16  2  0  0  0  0
 15  3  1  0  0  0  0
 17 12  1  0  0  0  0
 18 13  1  0  0  0  0
 19 20  1  0  0  0  0
 21 19  1  0  0  0  0
 22  7  1  0  0  0  0
 22 24  1  0  0  0  0
 24 27  1  0  0  0  0
 24 23  2  1  0  0  0
 25 26  1  0  0  0  0
 25 24  1  0  0  0  0
 28 27  1  0  0  0  0
 28 29  1  0  0  0  0
 29 30  1  0  0  0  0
 31 29  2  0  0  0  0
 32 31  1  0  0  0  0
 33 32  1  0  0  0  0
 34 33  2  0  0  0  0
 35 34  1  0  0  0  0
 36 37  2  0  0  0  0
 36 34  1  0  0  0  0
 37 38  1  0  0  0  0
 38 39  1  0  0  0  0
 38 32  2  0  0  0  0
 39 28  2  0  0  0  0
M  END
>  <minimizedAffinity>
-6.81371546

$$$$

 OpenBabel03252506143D

 39 42  0  0  0  0  0  0  0  0999 V2000
   40.7470   29.2910   41.7510 F   0  0  0  0  0  0  0  0  0  0  0  0
   39.6910   28.8510   42.4310 C   0  0  0  0  0  0  0  0  0  0  0  0
   39.8140   27.7240   43.2110 C   0  0  0  0  0  0  0  0  0  0  0  0
   38.7600   27.1950   43.9580 C   0  0  0  0  0  0  0  0  0  0  0  0
   37.5160   27.8270   43.9230 C   0  0  0  0  0  0  0  0  0  0  0  0
   37.4330   28.9570   43.1290 C   0  0  0  0  0  0  0  0  0  0  0  0
   38.4510   29.4810   42.3970 C   0  0  0  0  0  0  0  0  0  0  0  0
   38.9380   26.3010   44.5480 H   0  0  0  0  0  0  0  0  0  0  0  0
   36.7300   27.3870   44.5150 H   0  0  0  0  0  0  0  0  0  0  0  0
   36.4240   29.3520   43.1980 H   0  0  0  0  0  0  0  0  0  0  0  0
   42.7160   25.6830   42.2580 C   0  0  0  0  0  0  0  0  0  0  0  0
   43.4920   25.7170   43.4380 C   0  0  0  0  0  0  0  0  0  0  0  0
   43.0140   26.4450   44.5630 C   0  0  0  0  0  0  0  0  0  0  0  0
   41.8100   27.0720   44.4160 N   0  0  0  0  0  0  0  0  0  0  0  0
   41.1040   27.0190   43.2880 C   0  0  0  0  0  0  0  0  0  0  0  0
   41.5550   26.3310   42.2240 N   0  0  0  0  0  0  0  0  0  0  0  0
   44.4410   25.2140   43.5340 H   0  0  0  0  0  0  0  0  0  0  0  0
   43.5800   26.4900   45.4750 H   0  0  0  0  0  0  0  0  0  0  0  0
   43.2080   24.9550   41.1500 N   0  0  0  0  0  0  0  0  0  0  0  0
   44.2320   25.0460   40.9650 H   0  0  0  0  0  0  0  0  0  0  0  0
   42.7040   24.3310   40.4790 H   0  0  0  0  0  0  0  0  0  0  0  0
   38.2570   30.6050   41.6420 O   0  0  0  0  0  0  0  0  0  0  0  0
   37.2330   32.1260   39.7230 O   0  0  0  0  0  0  0  0  0  0  0  0
   37.0100   30.8760   40.5430 P   0  0  2  0  0  0  0  0  0  0  0  0
   35.5450   30.9770   41.3980 O   0  0  0  0  0  0  0  0  0  0  0  0
   34.7990   30.5260   40.9740 H   0  0  0  0  0  0  0  0  0  0  0  0
   36.8030   29.5780   39.4650 O   0  0  0  0  0  0  0  0  0  0  0  0
   37.5370   28.3880   39.5580 C   0  0  0  0  0  0  0  0  0  0  0  0
   38.7990   28.2540   38.9980 C   0  0  0  0  0  0  0  0  0  0  0  0
   39.2130   29.0910   38.4810 H   0  0  0  0  0  0  0  0  0  0  0  0
   39.4500   27.0350   39.1400 C   0  0  0  0  0  3  0  0  0  0  0  0
   38.8390   26.0030   39.8240 C   0  0  0  0  0  0  0  0  0  0  0  0
   39.4260   24.7970   39.9930 N   0  0  0  0  0  0  0  0  0  0  0  0
   38.7980   23.8000   40.6730 C   0  0  0  0  0  0  0  0  0  0  0  0
   39.2850   22.8310   40.8020 H   0  0  0  0  0  0  0  0  0  0  0  0
   37.5440   23.9240   41.2340 C   0  0  0  0  0  3  0  0  0  0  0  0
   36.9040   25.1590   41.0790 C   0  0  0  0  0  3  0  0  0  0  0  0
   37.5850   26.1350   40.3820 C   0  0  0  0  0  0  0  0  0  0  0  0
   36.9050   27.3500   40.2540 C   0  0  0  0  0  3  0  0  0  0  0  0
  1  2  1  0  0  0  0
  2  3  1  0  0  0  0
  3 15  1  0  0  0  0
  3  4  2  0  0  0  0
  4  8  1  0  0  0  0
  5  4  1  0  0  0  0
  5  9  1  0  0  0  0
  6 10  1  0  0  0  0
  6  5  2  0  0  0  0
  7  2  2  0  0  0  0
  7  6  1  0  0  0  0
 11 12  1  0  0  0  0
 12 17  1  0  0  0  0
 12 13  2  0  0  0  0
 13 18  1  0  0  0  0
 14 13  1  0  0  0  0
 15 14  2  0  0  0  0
 16 11  2  0  0  0  0
 16 15  1  0  0  0  0
 19 11  1  0  0  0  0
 20 19  1  0  0  0  0
 21 19  1  0  0  0  0
 22  7  1  0  0  0  0
 24 23  2  6  0  0  0
 24 25  1  0  0  0  0
 24 22  1  0  0  0  0
 26 25  1  0  0  0  0
 27 28  1  0  0  0  0
 27 24  1  0  0  0  0
 28 39  1  0  0  0  0
 29 31  1  0  0  0  0
 29 28  2  0  0  0  0
 30 29  1  0  0  0  0
 31 32  2  0  0  0  0
 32 33  1  0  0  0  0
 32 38  1  0  0  0  0
 33 34  2  0  0  0  0
 34 35  1  0  0  0  0
 34 36  1  0  0  0  0
 37 36  2  0  0  0  0
 38 37  1  0  0  0  0
 39 38  2  0  0  0  0
M  END
>  <minimizedAffinity>
-6.71506786

$$$$

 OpenBabel03252506143D

 39 42  0  0  0  0  0  0  0  0999 V2000
   39.1560   27.3320   39.5980 F   0  0  0  0  0  0  0  0  0  0  0  0
   38.3780   26.2790   39.8400 C   0  0  0  0  0  0  0  0  0  0  0  0
   37.1470   26.1990   39.2310 C   0  0  0  0  0  0  0  0  0  0  0  0
   36.2680   25.1310   39.4260 C   0  0  0  0  0  0  0  0  0  0  0  0
   36.6420   24.0880   40.2740 C   0  0  0  0  0  0  0  0  0  0  0  0
   37.8870   24.2050   40.8650 C   0  0  0  0  0  0  0  0  0  0  0  0
   38.7500   25.2390   40.6850 C   0  0  0  0  0  0  0  0  0  0  0  0
   35.3140   25.1430   38.9090 H   0  0  0  0  0  0  0  0  0  0  0  0
   35.9350   23.2830   40.3960 H   0  0  0  0  0  0  0  0  0  0  0  0
   38.0550   23.3310   41.4880 H   0  0  0  0  0  0  0  0  0  0  0  0
   36.9080   28.3630   36.2730 C   0  0  0  0  0  0  0  0  0  0  0  0
   35.8750   29.2510   36.6470 C   0  0  0  0  0  0  0  0  0  0  0  0
   35.2610   29.1030   37.9220 C   0  0  0  0  0  0  0  0  0  0  0  0
   35.7260   28.0890   38.7090 N   0  0  0  0  0  0  0  0  0  0  0  0
   36.7030   27.2690   38.3230 C   0  0  0  0  0  0  0  0  0  0  0  0
   37.2850   27.4080   37.1180 N   0  0  0  0  0  0  0  0  0  0  0  0
   35.5220   30.0470   36.0110 H   0  0  0  0  0  0  0  0  0  0  0  0
   34.4730   29.7620   38.2370 H   0  0  0  0  0  0  0  0  0  0  0  0
   37.5070   28.5260   35.0010 N   0  0  0  0  0  0  0  0  0  0  0  0
   36.8540   28.7500   34.2170 H   0  0  0  0  0  0  0  0  0  0  0  0
   38.5100   28.4580   34.7180 H   0  0  0  0  0  0  0  0  0  0  0  0
   39.9600   25.2540   41.3240 O   0  0  0  0  0  0  0  0  0  0  0  0
   41.6830   25.3140   43.3420 O   0  0  0  0  0  0  0  0  0  0  0  0
   40.2210   25.1630   42.9850 P   0  0  2  0  0  0  0  0  0  0  0  0
   39.6200   23.6780   43.5490 O   0  0  0  0  0  0  0  0  0  0  0  0
   39.1460   23.7300   44.3930 H   0  0  0  0  0  0  0  0  0  0  0  0
   39.3530   26.3460   43.8430 O   0  0  0  0  0  0  0  0  0  0  0  0
   38.5500   27.3070   43.2130 C   0  0  0  0  0  0  0  0  0  0  0  0
   37.1750   27.1580   43.0990 C   0  0  0  0  0  0  0  0  0  0  0  0
   36.7270   26.2800   43.5070 H   0  0  0  0  0  0  0  0  0  0  0  0
   36.4620   28.1620   42.4580 C   0  0  0  0  0  3  0  0  0  0  0  0
   37.1230   29.2660   41.9580 C   0  0  0  0  0  0  0  0  0  0  0  0
   36.4790   30.2730   41.3260 N   0  0  0  0  0  0  0  0  0  0  0  0
   37.1610   31.3480   40.8440 C   0  0  0  0  0  0  0  0  0  0  0  0
   36.6270   32.1540   40.3360 H   0  0  0  0  0  0  0  0  0  0  0  0
   38.5260   31.5050   40.9540 C   0  0  0  0  0  3  0  0  0  0  0  0
   39.2280   30.4820   41.6020 C   0  0  0  0  0  3  0  0  0  0  0  0
   38.4890   29.4150   42.0710 C   0  0  0  0  0  0  0  0  0  0  0  0
   39.2340   28.4200   42.7110 C   0  0  0  0  0  3  0  0  0  0  0  0
  1  2  1  0  0  0  0
  2  7  1  0  0  0  0
  3  4  1  0  0  0  0
  3  2  2  0  0  0  0
  4  5  2  0  0  0  0
  5  9  1  0  0  0  0
  5  6  1  0  0  0  0
  6 10  1  0  0  0  0
  7  6  2  0  0  0  0
  7 22  1  0  0  0  0
  8  4  1  0  0  0  0
 11 12  2  0  0  0  0
 11 16  1  0  0  0  0
 12 13  1  0  0  0  0
 13 18  1  0  0  0  0
 13 14  2  0  0  0  0
 15 14  1  0  0  0  0
 15  3  1  0  0  0  0
 16 15  2  0  0  0  0
 17 12  1  0  0  0  0
 19 11  1  0  0  0  0
 20 19  1  0  0  0  0
 21 19  1  0  0  0  0
 22 24  1  0  0  0  0
 24 23  2  1  0  0  0
 24 25  1  0  0  0  0
 24 27  1  0  0  0  0
 25 26  1  0  0  0  0
 28 27  1  0  0  0  0
 29 28  1  0  0  0  0
 29 30  1  0  0  0  0
 31 29  2  0  0  0  0
 32 38  1  0  0  0  0
 32 31  1  0  0  0  0
 33 32  2  0  0  0  0
 34 36  2  0  0  0  0
 34 33  1  0  0  0  0
 35 34  1  0  0  0  0
 36 37  1  0  0  0  0
 37 38  2  0  0  0  0
 38 39  1  0  0  0  0
 39 28  2  0  0  0  0
M  END
>  <minimizedAffinity>
-6.64172459

$$$$
