
 OpenBabel03242518053D

 23 25  0  0  0  0  0  0  0  0999 V2000
   37.7210   28.9790   41.4490 C   0  0  0  0  0  0  0  0  0  0  0  0
   37.7650   28.4920   42.7400 C   0  0  0  0  0  0  0  0  0  0  0  0
   38.0190   29.2350   43.4850 H   0  0  0  0  0  0  0  0  0  0  0  0
   37.4970   27.1620   42.9860 C   0  0  0  0  0  3  0  0  0  0  0  0
   37.1800   26.2710   41.9800 C   0  0  0  0  0  0  0  0  0  0  0  0
   36.9320   24.9890   42.3050 N   0  0  0  0  0  0  0  0  0  0  0  0
   36.6190   24.1010   41.3310 C   0  0  0  0  0  0  0  0  0  0  0  0
   36.4080   23.0570   41.5150 H   0  0  0  0  0  0  0  0  0  0  0  0
   36.5720   24.5780   40.0380 C   0  0  0  0  0  3  0  0  0  0  0  0
   36.8190   25.8830   39.6620 C   0  0  0  0  0  3  0  0  0  0  0  0
   37.1350   26.7630   40.6830 C   0  0  0  0  0  0  0  0  0  0  0  0
   37.4030   28.1020   40.4100 C   0  0  0  0  0  3  0  0  0  0  0  0
   36.9600   31.3110   40.8800 C   0  0  0  0  0  0  0  0  0  0  0  0
   37.9700   30.3410   40.9890 C   0  0  0  0  0  0  0  0  0  0  0  0
   39.3020   30.6890   40.6380 C   0  0  0  0  0  0  0  0  0  0  0  0
   39.5000   31.9680   40.2140 N   0  0  0  0  0  0  0  0  0  0  0  0
   38.5190   32.8750   40.1190 C   0  0  0  0  0  0  0  0  0  0  0  0
   37.2580   32.5360   40.4530 N   0  0  0  0  0  0  0  0  0  0  0  0
   35.6390   30.9550   41.2310 N   0  0  0  0  0  0  0  0  0  0  0  0
   40.1030   29.9650   40.7120 H   0  0  0  0  0  0  0  0  0  0  0  0
   38.8040   33.8570   39.7680 H   0  0  0  0  0  0  0  0  0  0  0  0
   34.9990   31.7160   41.5970 H   0  0  0  0  0  0  0  0  0  0  0  0
   35.2070   30.0060   41.1700 H   0  0  0  0  0  0  0  0  0  0  0  0
  1  2  1  0  0  0  0
  2  4  2  0  0  0  0
  2  3  1  0  0  0  0
  5  6  1  0  0  0  0
  5  4  1  0  0  0  0
  7  8  1  0  0  0  0
  7  6  2  0  0  0  0
  9  7  1  0  0  0  0
 10  9  2  0  0  0  0
 10 11  1  0  0  0  0
 11  5  2  0  0  0  0
 12 11  1  0  0  0  0
 12  1  2  0  0  0  0
 13 14  1  0  0  0  0
 13 19  1  0  0  0  0
 14  1  1  0  0  0  0
 15 20  1  0  0  0  0
 15 14  2  0  0  0  0
 16 15  1  0  0  0  0
 17 16  2  0  0  0  0
 17 18  1  0  0  0  0
 18 13  2  0  0  0  0
 19 22  1  0  0  0  0
 21 17  1  0  0  0  0
 23 19  1  0  0  0  0
M  END
>  <minimizedAffinity>
-5.57571173

$$$$

 OpenBabel03242518053D

 23 25  0  0  0  0  0  0  0  0999 V2000
   37.2810   28.8010   39.8320 C   0  0  0  0  0  0  0  0  0  0  0  0
   36.6470   28.1710   38.7810 C   0  0  0  0  0  0  0  0  0  0  0  0
   36.4380   28.8180   37.9380 H   0  0  0  0  0  0  0  0  0  0  0  0
   36.3350   26.8310   38.8660 C   0  0  0  0  0  3  0  0  0  0  0  0
   36.6350   26.0690   39.9770 C   0  0  0  0  0  0  0  0  0  0  0  0
   36.2960   24.7660   39.9790 N   0  0  0  0  0  0  0  0  0  0  0  0
   36.5820   24.0020   41.0610 C   0  0  0  0  0  0  0  0  0  0  0  0
   36.3410   22.9510   41.1350 H   0  0  0  0  0  0  0  0  0  0  0  0
   37.2160   24.6230   42.1170 C   0  0  0  0  0  3  0  0  0  0  0  0
   37.5810   25.9540   42.1560 C   0  0  0  0  0  3  0  0  0  0  0  0
   37.2730   26.7030   41.0320 C   0  0  0  0  0  0  0  0  0  0  0  0
   37.5970   28.0570   40.9710 C   0  0  0  0  0  3  0  0  0  0  0  0
   36.9110   31.1840   40.5590 C   0  0  0  0  0  0  0  0  0  0  0  0
   37.6910   30.1970   39.9330 C   0  0  0  0  0  0  0  0  0  0  0  0
   38.9420   30.5640   39.3670 C   0  0  0  0  0  0  0  0  0  0  0  0
   39.2960   31.8750   39.4800 N   0  0  0  0  0  0  0  0  0  0  0  0
   38.5330   32.7960   40.0820 C   0  0  0  0  0  0  0  0  0  0  0  0
   37.3470   32.4410   40.6160 N   0  0  0  0  0  0  0  0  0  0  0  0
   35.6690   30.8100   41.1190 N   0  0  0  0  0  0  0  0  0  0  0  0
   39.5670   29.8280   38.8790 H   0  0  0  0  0  0  0  0  0  0  0  0
   38.9230   33.8030   40.1060 H   0  0  0  0  0  0  0  0  0  0  0  0
   35.3100   31.3620   41.9480 H   0  0  0  0  0  0  0  0  0  0  0  0
   35.0460   30.0330   40.8020 H   0  0  0  0  0  0  0  0  0  0  0  0
  1 14  1  0  0  0  0
  1 12  1  0  0  0  0
  2  4  1  0  0  0  0
  2  1  2  0  0  0  0
  3  2  1  0  0  0  0
  4  5  2  0  0  0  0
  5  6  1  0  0  0  0
  5 11  1  0  0  0  0
  6  7  2  0  0  0  0
  7  8  1  0  0  0  0
  7  9  1  0  0  0  0
  9 10  2  0  0  0  0
 11 10  1  0  0  0  0
 12 11  2  0  0  0  0
 13 18  1  0  0  0  0
 13 19  1  0  0  0  0
 14 13  2  0  0  0  0
 15 16  2  0  0  0  0
 15 14  1  0  0  0  0
 16 17  1  0  0  0  0
 17 21  1  0  0  0  0
 17 18  2  0  0  0  0
 19 22  1  0  0  0  0
 20 15  1  0  0  0  0
 23 19  1  0  0  0  0
M  END
>  <minimizedAffinity>
-5.17903566

$$$$

 OpenBabel03242518053D

 23 25  0  0  0  0  0  0  0  0999 V2000
   38.3950   29.1990   41.5980 C   0  0  0  0  0  0  0  0  0  0  0  0
   39.3950   29.8760   42.2650 C   0  0  0  0  0  0  0  0  0  0  0  0
   39.9700   29.2590   42.9440 H   0  0  0  0  0  0  0  0  0  0  0  0
   39.5900   31.2210   42.0360 C   0  0  0  0  0  3  0  0  0  0  0  0
   38.8140   31.9430   41.1500 C   0  0  0  0  0  0  0  0  0  0  0  0
   39.0710   33.2540   40.9850 N   0  0  0  0  0  0  0  0  0  0  0  0
   38.3200   33.9780   40.1200 C   0  0  0  0  0  0  0  0  0  0  0  0
   38.4660   35.0330   39.9350 H   0  0  0  0  0  0  0  0  0  0  0  0
   37.3170   33.3100   39.4490 C   0  0  0  0  0  3  0  0  0  0  0  0
   37.0210   31.9690   39.5890 C   0  0  0  0  0  3  0  0  0  0  0  0
   37.8090   31.2600   40.4810 C   0  0  0  0  0  0  0  0  0  0  0  0
   37.5930   29.9010   40.6960 C   0  0  0  0  0  3  0  0  0  0  0  0
   37.1670   27.2880   42.6860 C   0  0  0  0  0  0  0  0  0  0  0  0
   38.0340   27.7890   41.7020 C   0  0  0  0  0  0  0  0  0  0  0  0
   38.5950   26.8910   40.7540 C   0  0  0  0  0  0  0  0  0  0  0  0
   38.2370   25.5820   40.8780 N   0  0  0  0  0  0  0  0  0  0  0  0
   37.4070   25.1300   41.8260 C   0  0  0  0  0  0  0  0  0  0  0  0
   36.8800   25.9880   42.7220 N   0  0  0  0  0  0  0  0  0  0  0  0
   36.6140   28.1890   43.6230 N   0  0  0  0  0  0  0  0  0  0  0  0
   39.2660   27.2440   39.9830 H   0  0  0  0  0  0  0  0  0  0  0  0
   37.2010   24.0690   41.8200 H   0  0  0  0  0  0  0  0  0  0  0  0
   35.6660   27.9600   44.0360 H   0  0  0  0  0  0  0  0  0  0  0  0
   37.0420   29.0790   43.9660 H   0  0  0  0  0  0  0  0  0  0  0  0
  1 14  1  0  0  0  0
  1  2  1  0  0  0  0
  2  3  1  0  0  0  0
  4  2  2  0  0  0  0
  5  4  1  0  0  0  0
  6  5  1  0  0  0  0
  7  6  2  0  0  0  0
  8  7  1  0  0  0  0
  9 10  2  0  0  0  0
  9  7  1  0  0  0  0
 10 11  1  0  0  0  0
 11 12  1  0  0  0  0
 11  5  2  0  0  0  0
 12  1  2  0  0  0  0
 13 18  1  0  0  0  0
 13 19  1  0  0  0  0
 14 13  2  0  0  0  0
 15 16  2  0  0  0  0
 15 14  1  0  0  0  0
 16 17  1  0  0  0  0
 17 18  2  0  0  0  0
 19 23  1  0  0  0  0
 19 22  1  0  0  0  0
 20 15  1  0  0  0  0
 21 17  1  0  0  0  0
M  END
>  <minimizedAffinity>
-5.1346364

$$$$

 OpenBabel03242518053D

 23 25  0  0  0  0  0  0  0  0999 V2000
   35.9810   29.3570   39.0550 C   0  0  0  0  0  0  0  0  0  0  0  0
   36.1050   30.4670   39.8650 C   0  0  0  0  0  0  0  0  0  0  0  0
   35.8350   31.3990   39.3840 H   0  0  0  0  0  0  0  0  0  0  0  0
   36.5410   30.3280   41.1660 C   0  0  0  0  0  3  0  0  0  0  0  0
   36.8680   29.1020   41.7110 C   0  0  0  0  0  0  0  0  0  0  0  0
   37.2860   29.0530   42.9890 N   0  0  0  0  0  0  0  0  0  0  0  0
   37.6100   27.8590   43.5410 C   0  0  0  0  0  0  0  0  0  0  0  0
   37.9540   27.7410   44.5590 H   0  0  0  0  0  0  0  0  0  0  0  0
   37.4900   26.7430   42.7390 C   0  0  0  0  0  3  0  0  0  0  0  0
   37.0650   26.7500   41.4250 C   0  0  0  0  0  3  0  0  0  0  0  0
   36.7420   27.9870   40.8950 C   0  0  0  0  0  0  0  0  0  0  0  0
   36.3030   28.1030   39.5770 C   0  0  0  0  0  3  0  0  0  0  0  0
   34.2050   29.0710   37.2920 C   0  0  0  0  0  0  0  0  0  0  0  0
   35.5390   29.2990   37.6660 C   0  0  0  0  0  0  0  0  0  0  0  0
   36.5180   29.4830   36.6510 C   0  0  0  0  0  0  0  0  0  0  0  0
   36.0730   29.4230   35.3650 N   0  0  0  0  0  0  0  0  0  0  0  0
   34.7930   29.2040   35.0360 C   0  0  0  0  0  0  0  0  0  0  0  0
   33.8720   29.0300   36.0040 N   0  0  0  0  0  0  0  0  0  0  0  0
   33.2400   28.8890   38.3080 N   0  0  0  0  0  0  0  0  0  0  0  0
   37.5540   29.6610   36.9050 H   0  0  0  0  0  0  0  0  0  0  0  0
   34.5650   29.1790   33.9800 H   0  0  0  0  0  0  0  0  0  0  0  0
   32.2410   29.1760   38.1030 H   0  0  0  0  0  0  0  0  0  0  0  0
   33.3990   28.4930   39.2620 H   0  0  0  0  0  0  0  0  0  0  0  0
  1 12  2  0  0  0  0
  1  2  1  0  0  0  0
  2  4  2  0  0  0  0
  3  2  1  0  0  0  0
  4  5  1  0  0  0  0
  5  6  1  0  0  0  0
  6  7  2  0  0  0  0
  7  8  1  0  0  0  0
  9  7  1  0  0  0  0
 10  9  2  0  0  0  0
 11 10  1  0  0  0  0
 11  5  2  0  0  0  0
 12 11  1  0  0  0  0
 13 14  1  0  0  0  0
 13 19  1  0  0  0  0
 14  1  1  0  0  0  0
 15 20  1  0  0  0  0
 15 14  2  0  0  0  0
 16 15  1  0  0  0  0
 17 16  2  0  0  0  0
 17 18  1  0  0  0  0
 18 13  2  0  0  0  0
 19 23  1  0  0  0  0
 21 17  1  0  0  0  0
 22 19  1  0  0  0  0
M  END
>  <minimizedAffinity>
-5.07959938

$$$$

 OpenBabel03242518053D

 23 25  0  0  0  0  0  0  0  0999 V2000
   37.4430   29.7090   40.9710 C   0  0  0  0  0  0  0  0  0  0  0  0
   36.4580   30.5800   40.5560 C   0  0  0  0  0  0  0  0  0  0  0  0
   35.4690   30.1410   40.5090 H   0  0  0  0  0  0  0  0  0  0  0  0
   36.7760   31.8850   40.2450 C   0  0  0  0  0  3  0  0  0  0  0  0
   38.0640   32.3750   40.3300 C   0  0  0  0  0  0  0  0  0  0  0  0
   38.2890   33.6630   40.0080 N   0  0  0  0  0  0  0  0  0  0  0  0
   39.5470   34.1600   40.0850 C   0  0  0  0  0  0  0  0  0  0  0  0
   39.8050   35.1820   39.8430 H   0  0  0  0  0  0  0  0  0  0  0  0
   40.5400   33.2960   40.4990 C   0  0  0  0  0  3  0  0  0  0  0  0
   40.3520   31.9720   40.8380 C   0  0  0  0  0  3  0  0  0  0  0  0
   39.0530   31.4970   40.7480 C   0  0  0  0  0  0  0  0  0  0  0  0
   38.7570   30.1740   41.0670 C   0  0  0  0  0  3  0  0  0  0  0  0
   37.0430   27.8780   42.6530 C   0  0  0  0  0  0  0  0  0  0  0  0
   37.3090   28.3040   41.3420 C   0  0  0  0  0  0  0  0  0  0  0  0
   37.4570   27.3310   40.3170 C   0  0  0  0  0  0  0  0  0  0  0  0
   37.3240   26.0290   40.6970 N   0  0  0  0  0  0  0  0  0  0  0  0
   37.0700   25.6490   41.9560 C   0  0  0  0  0  0  0  0  0  0  0  0
   36.9320   26.5790   42.9220 N   0  0  0  0  0  0  0  0  0  0  0  0
   36.8980   28.8540   43.6650 N   0  0  0  0  0  0  0  0  0  0  0  0
   37.6610   27.6250   39.2970 H   0  0  0  0  0  0  0  0  0  0  0  0
   36.9880   24.5860   42.1310 H   0  0  0  0  0  0  0  0  0  0  0  0
   36.2720   28.6270   44.4900 H   0  0  0  0  0  0  0  0  0  0  0  0
   37.3470   29.7970   43.6970 H   0  0  0  0  0  0  0  0  0  0  0  0
  1 12  1  0  0  0  0
  1 14  1  0  0  0  0
  2  1  2  0  0  0  0
  3  2  1  0  0  0  0
  4  5  2  0  0  0  0
  4  2  1  0  0  0  0
  5 11  1  0  0  0  0
  6  7  2  0  0  0  0
  6  5  1  0  0  0  0
  7  9  1  0  0  0  0
  8  7  1  0  0  0  0
  9 10  2  0  0  0  0
 11 10  1  0  0  0  0
 11 12  2  0  0  0  0
 13 18  1  0  0  0  0
 13 19  1  0  0  0  0
 14 13  2  0  0  0  0
 15 16  2  0  0  0  0
 15 14  1  0  0  0  0
 16 17  1  0  0  0  0
 17 21  1  0  0  0  0
 17 18  2  0  0  0  0
 19 23  1  0  0  0  0
 19 22  1  0  0  0  0
 20 15  1  0  0  0  0
M  END
>  <minimizedAffinity>
-5.07014704

$$$$

 OpenBabel03242518053D

 23 25  0  0  0  0  0  0  0  0999 V2000
   37.1630   31.0660   39.7240 C   0  0  0  0  0  0  0  0  0  0  0  0
   36.2090   30.5870   40.5990 C   0  0  0  0  0  0  0  0  0  0  0  0
   36.3180   30.9480   41.6140 H   0  0  0  0  0  0  0  0  0  0  0  0
   35.2300   29.7270   40.1500 C   0  0  0  0  0  3  0  0  0  0  0  0
   35.1550   29.3100   38.8360 C   0  0  0  0  0  0  0  0  0  0  0  0
   34.1670   28.4670   38.4790 N   0  0  0  0  0  0  0  0  0  0  0  0
   34.0780   28.0480   37.1940 C   0  0  0  0  0  0  0  0  0  0  0  0
   33.3140   27.3730   36.8340 H   0  0  0  0  0  0  0  0  0  0  0  0
   35.0280   28.5210   36.3120 C   0  0  0  0  0  3  0  0  0  0  0  0
   36.0550   29.3840   36.6360 C   0  0  0  0  0  3  0  0  0  0  0  0
   36.1150   29.7920   37.9580 C   0  0  0  0  0  0  0  0  0  0  0  0
   37.1140   30.6620   38.3880 C   0  0  0  0  0  3  0  0  0  0  0  0
   38.1600   33.3720   39.8950 C   0  0  0  0  0  0  0  0  0  0  0  0
   38.2680   31.9760   40.0040 C   0  0  0  0  0  0  0  0  0  0  0  0
   39.5080   31.4090   40.4050 C   0  0  0  0  0  0  0  0  0  0  0  0
   40.5190   32.2870   40.6590 N   0  0  0  0  0  0  0  0  0  0  0  0
   40.3900   33.6150   40.5470 C   0  0  0  0  0  0  0  0  0  0  0  0
   39.2100   34.1440   40.1650 N   0  0  0  0  0  0  0  0  0  0  0  0
   36.9230   33.9260   39.4960 N   0  0  0  0  0  0  0  0  0  0  0  0
   39.6240   30.3380   40.4990 H   0  0  0  0  0  0  0  0  0  0  0  0
   41.2660   34.2050   40.7760 H   0  0  0  0  0  0  0  0  0  0  0  0
   36.6770   34.8970   39.8410 H   0  0  0  0  0  0  0  0  0  0  0  0
   36.2040   33.4790   38.8830 H   0  0  0  0  0  0  0  0  0  0  0  0
  1 14  1  0  0  0  0
  1  2  1  0  0  0  0
  2  3  1  0  0  0  0
  4  2  2  0  0  0  0
  5  4  1  0  0  0  0
  6  5  1  0  0  0  0
  7  6  2  0  0  0  0
  8  7  1  0  0  0  0
  9 10  2  0  0  0  0
  9  7  1  0  0  0  0
 10 11  1  0  0  0  0
 11 12  1  0  0  0  0
 11  5  2  0  0  0  0
 12  1  2  0  0  0  0
 13 14  2  0  0  0  0
 13 18  1  0  0  0  0
 14 15  1  0  0  0  0
 15 20  1  0  0  0  0
 15 16  2  0  0  0  0
 17 16  1  0  0  0  0
 17 21  1  0  0  0  0
 18 17  2  0  0  0  0
 19 22  1  0  0  0  0
 19 13  1  0  0  0  0
 23 19  1  0  0  0  0
M  END
>  <minimizedAffinity>
-5.03716183

$$$$

 OpenBabel03242518053D

 23 25  0  0  0  0  0  0  0  0999 V2000
   37.6350   29.1880   41.7160 C   0  0  0  0  0  0  0  0  0  0  0  0
   37.4340   28.7090   42.9950 C   0  0  0  0  0  0  0  0  0  0  0  0
   37.5030   29.4650   43.7670 H   0  0  0  0  0  0  0  0  0  0  0  0
   37.1710   27.3710   43.1980 C   0  0  0  0  0  3  0  0  0  0  0  0
   37.0980   26.4640   42.1600 C   0  0  0  0  0  0  0  0  0  0  0  0
   36.8370   25.1740   42.4450 N   0  0  0  0  0  0  0  0  0  0  0  0
   36.7610   24.2700   41.4380 C   0  0  0  0  0  0  0  0  0  0  0  0
   36.5560   23.2200   41.5890 H   0  0  0  0  0  0  0  0  0  0  0  0
   36.9600   24.7390   40.1570 C   0  0  0  0  0  3  0  0  0  0  0  0
   37.2290   26.0510   39.8220 C   0  0  0  0  0  3  0  0  0  0  0  0
   37.2990   26.9470   40.8750 C   0  0  0  0  0  0  0  0  0  0  0  0
   37.5670   28.2950   40.6450 C   0  0  0  0  0  3  0  0  0  0  0  0
   39.1540   31.1870   41.5280 C   0  0  0  0  0  0  0  0  0  0  0  0
   37.9210   30.5560   41.2990 C   0  0  0  0  0  0  0  0  0  0  0  0
   36.8930   31.2740   40.6300 C   0  0  0  0  0  0  0  0  0  0  0  0
   37.1930   32.5480   40.2530 N   0  0  0  0  0  0  0  0  0  0  0  0
   38.3780   33.1270   40.4830 C   0  0  0  0  0  0  0  0  0  0  0  0
   39.3480   32.4400   41.1190 N   0  0  0  0  0  0  0  0  0  0  0  0
   40.1700   30.4660   42.1940 N   0  0  0  0  0  0  0  0  0  0  0  0
   35.9320   30.8170   40.4380 H   0  0  0  0  0  0  0  0  0  0  0  0
   38.4930   34.1430   40.1350 H   0  0  0  0  0  0  0  0  0  0  0  0
   41.1780   30.7050   41.9730 H   0  0  0  0  0  0  0  0  0  0  0  0
   40.0410   29.7040   42.8980 H   0  0  0  0  0  0  0  0  0  0  0  0
  1  2  1  0  0  0  0
  2  4  2  0  0  0  0
  2  3  1  0  0  0  0
  5  6  1  0  0  0  0
  5  4  1  0  0  0  0
  7  8  1  0  0  0  0
  7  6  2  0  0  0  0
  9  7  1  0  0  0  0
 10  9  2  0  0  0  0
 10 11  1  0  0  0  0
 11  5  2  0  0  0  0
 12 11  1  0  0  0  0
 12  1  2  0  0  0  0
 13 19  1  0  0  0  0
 14 13  1  0  0  0  0
 14  1  1  0  0  0  0
 15 14  2  0  0  0  0
 16 17  2  0  0  0  0
 16 15  1  0  0  0  0
 17 18  1  0  0  0  0
 18 13  2  0  0  0  0
 19 23  1  0  0  0  0
 20 15  1  0  0  0  0
 21 17  1  0  0  0  0
 22 19  1  0  0  0  0
M  END
>  <minimizedAffinity>
-5.03651714

$$$$

 OpenBabel03242518053D

 23 25  0  0  0  0  0  0  0  0999 V2000
   39.2630   32.2060   39.5660 C   0  0  0  0  0  0  0  0  0  0  0  0
   38.0350   32.8220   39.6880 C   0  0  0  0  0  0  0  0  0  0  0  0
   38.0370   33.8710   39.4230 H   0  0  0  0  0  0  0  0  0  0  0  0
   36.9410   32.1010   40.1170 C   0  0  0  0  0  3  0  0  0  0  0  0
   37.0160   30.7600   40.4380 C   0  0  0  0  0  0  0  0  0  0  0  0
   35.9000   30.1300   40.8500 N   0  0  0  0  0  0  0  0  0  0  0  0
   35.9550   28.8140   41.1690 C   0  0  0  0  0  0  0  0  0  0  0  0
   35.1020   28.2410   41.5070 H   0  0  0  0  0  0  0  0  0  0  0  0
   37.1790   28.1900   41.0500 C   0  0  0  0  0  3  0  0  0  0  0  0
   38.3450   28.7980   40.6320 C   0  0  0  0  0  3  0  0  0  0  0  0
   38.2520   30.1430   40.3140 C   0  0  0  0  0  0  0  0  0  0  0  0
   39.3720   30.8500   39.8830 C   0  0  0  0  0  3  0  0  0  0  0  0
   40.9220   32.8560   37.7850 C   0  0  0  0  0  0  0  0  0  0  0  0
   40.5270   32.7910   39.1310 C   0  0  0  0  0  0  0  0  0  0  0  0
   41.3910   33.3180   40.1290 C   0  0  0  0  0  0  0  0  0  0  0  0
   42.5620   33.8580   39.6900 N   0  0  0  0  0  0  0  0  0  0  0  0
   42.9150   33.9070   38.3990 C   0  0  0  0  0  0  0  0  0  0  0  0
   42.0900   33.4050   37.4590 N   0  0  0  0  0  0  0  0  0  0  0  0
   40.0560   32.3290   36.8000 N   0  0  0  0  0  0  0  0  0  0  0  0
   41.1170   33.2850   41.1750 H   0  0  0  0  0  0  0  0  0  0  0  0
   43.8700   34.3610   38.1780 H   0  0  0  0  0  0  0  0  0  0  0  0
   40.0860   32.7560   35.8310 H   0  0  0  0  0  0  0  0  0  0  0  0
   39.3720   31.5480   36.9180 H   0  0  0  0  0  0  0  0  0  0  0  0
  1  2  2  0  0  0  0
  1 12  1  0  0  0  0
  2  4  1  0  0  0  0
  3  2  1  0  0  0  0
  4  5  2  0  0  0  0
  5  6  1  0  0  0  0
  6  7  2  0  0  0  0
  7  8  1  0  0  0  0
  9  7  1  0  0  0  0
 10  9  2  0  0  0  0
 11  5  1  0  0  0  0
 11 10  1  0  0  0  0
 12 11  2  0  0  0  0
 13 14  1  0  0  0  0
 14  1  1  0  0  0  0
 14 15  2  0  0  0  0
 15 20  1  0  0  0  0
 16 15  1  0  0  0  0
 17 16  2  0  0  0  0
 18 13  2  0  0  0  0
 18 17  1  0  0  0  0
 19 23  1  0  0  0  0
 19 13  1  0  0  0  0
 21 17  1  0  0  0  0
 22 19  1  0  0  0  0
M  END
>  <minimizedAffinity>
-5.02447367

$$$$

 OpenBabel03242518053D

 23 25  0  0  0  0  0  0  0  0999 V2000
   36.6950   30.1700   39.6680 C   0  0  0  0  0  0  0  0  0  0  0  0
   35.5630   29.7060   40.3060 C   0  0  0  0  0  0  0  0  0  0  0  0
   35.5760   29.8370   41.3810 H   0  0  0  0  0  0  0  0  0  0  0  0
   34.5430   29.1360   39.5750 C   0  0  0  0  0  3  0  0  0  0  0  0
   34.6000   29.0040   38.2020 C   0  0  0  0  0  0  0  0  0  0  0  0
   33.5600   28.4350   37.5630 N   0  0  0  0  0  0  0  0  0  0  0  0
   33.5980   28.2970   36.2160 C   0  0  0  0  0  0  0  0  0  0  0  0
   32.8030   27.8510   35.6350 H   0  0  0  0  0  0  0  0  0  0  0  0
   34.7250   28.7570   35.5690 C   0  0  0  0  0  3  0  0  0  0  0  0
   35.8120   29.3460   36.1850 C   0  0  0  0  0  3  0  0  0  0  0  0
   35.7380   29.4710   37.5620 C   0  0  0  0  0  0  0  0  0  0  0  0
   36.7820   30.0510   38.2800 C   0  0  0  0  0  3  0  0  0  0  0  0
   37.9530   32.1750   40.5310 C   0  0  0  0  0  0  0  0  0  0  0  0
   37.8710   30.7990   40.2600 C   0  0  0  0  0  0  0  0  0  0  0  0
   38.9810   29.9680   40.5720 C   0  0  0  0  0  0  0  0  0  0  0  0
   40.0620   30.5860   41.1250 N   0  0  0  0  0  0  0  0  0  0  0  0
   40.1140   31.9010   41.3730 C   0  0  0  0  0  0  0  0  0  0  0  0
   39.0580   32.6820   41.0730 N   0  0  0  0  0  0  0  0  0  0  0  0
   36.8450   32.9930   40.2170 N   0  0  0  0  0  0  0  0  0  0  0  0
   38.9500   28.9040   40.3770 H   0  0  0  0  0  0  0  0  0  0  0  0
   41.0290   32.2720   41.8130 H   0  0  0  0  0  0  0  0  0  0  0  0
   36.6890   33.8650   40.7980 H   0  0  0  0  0  0  0  0  0  0  0  0
   36.1430   32.8360   39.4580 H   0  0  0  0  0  0  0  0  0  0  0  0
  1 14  1  0  0  0  0
  1  2  1  0  0  0  0
  2  3  1  0  0  0  0
  4  2  2  0  0  0  0
  5  4  1  0  0  0  0
  6  5  1  0  0  0  0
  7  6  2  0  0  0  0
  8  7  1  0  0  0  0
  9 10  2  0  0  0  0
  9  7  1  0  0  0  0
 10 11  1  0  0  0  0
 11  5  2  0  0  0  0
 11 12  1  0  0  0  0
 12  1  2  0  0  0  0
 13 18  1  0  0  0  0
 14 13  2  0  0  0  0
 14 15  1  0  0  0  0
 15 16  2  0  0  0  0
 16 17  1  0  0  0  0
 17 21  1  0  0  0  0
 18 17  2  0  0  0  0
 19 13  1  0  0  0  0
 19 22  1  0  0  0  0
 20 15  1  0  0  0  0
 23 19  1  0  0  0  0
M  END
>  <minimizedAffinity>
-4.92456532

$$$$
