
 OpenBabel03252507223D

 50 54  0  0  1  0  0  0  0  0999 V2000
   47.4910   33.7300   42.8270 C   0  0  0  0  0  0  0  0  0  0  0  0
   48.5730   33.6310   43.4750 O   0  0  0  0  0  0  0  0  0  0  0  0
   47.2410   33.1460   41.5320 N   0  0  0  0  0  0  0  0  0  0  0  0
   46.0950   32.4340   41.0140 C   0  0  0  0  0  0  0  0  0  0  0  0
   45.6830   33.0810   39.6830 C   0  0  0  0  0  0  0  0  0  0  0  0
   46.7740   32.9380   38.6710 C   0  0  0  0  0  0  0  0  0  0  0  0
   48.0550   32.5310   39.3530 C   0  0  0  0  0  0  0  0  0  0  0  0
   48.3370   33.3380   40.6050 C   0  0  2  0  0  0  0  0  0  0  0  0
   46.2510   31.3650   40.8530 H   0  0  0  0  0  0  0  0  0  0  0  0
   45.2020   32.5870   41.6820 H   0  0  0  0  0  0  0  0  0  0  0  0
   44.8100   32.5250   39.3350 H   0  0  0  0  0  0  0  0  0  0  0  0
   45.4580   34.1510   39.9040 H   0  0  0  0  0  0  0  0  0  0  0  0
   46.5330   32.1420   37.9330 H   0  0  0  0  0  0  0  0  0  0  0  0
   46.9320   33.9310   38.1810 H   0  0  0  0  0  0  0  0  0  0  0  0
   48.9180   32.7430   38.6630 H   0  0  0  0  0  0  0  0  0  0  0  0
   48.0710   31.4480   39.5580 H   0  0  0  0  0  0  0  0  0  0  0  0
   48.3410   34.4000   40.3090 H   0  0  0  0  0  0  0  0  0  0  0  0
   46.0420   35.7180   42.8460 C   0  0  0  0  0  0  0  0  0  0  0  0
   46.4240   34.4950   43.4500 C   0  0  0  0  0  0  0  0  0  0  0  0
   45.7800   34.0740   44.5920 C   0  0  0  0  0  0  0  0  0  0  0  0
   44.8010   34.8550   45.0940 N   0  0  0  0  0  0  0  0  0  0  0  0
   44.4240   36.0340   44.5230 C   0  0  0  0  0  0  0  0  0  0  0  0
   45.0540   36.4360   43.4120 N   0  0  0  0  0  0  0  0  0  0  0  0
   46.5520   36.0350   41.9540 H   0  0  0  0  0  0  0  0  0  0  0  0
   43.6380   36.6110   44.9680 H   0  0  0  0  0  0  0  0  0  0  0  0
   46.1890   32.8220   45.1910 C   0  0  0  0  0  0  0  0  0  0  0  0
   45.8760   31.6450   44.5870 C   0  0  0  0  0  0  0  0  0  0  0  0
   46.2800   30.4680   45.1820 C   0  0  0  0  0  0  0  0  0  0  0  0
   46.9930   30.4290   46.3730 C   0  0  0  0  0  0  0  0  0  0  0  0
   47.2830   31.6640   46.9430 C   0  0  0  0  0  0  0  0  0  0  0  0
   46.8770   32.7850   46.3410 N   0  0  0  0  0  0  0  0  0  0  0  0
   45.3330   31.5440   43.6710 H   0  0  0  0  0  0  0  0  0  0  0  0
   46.0740   29.4740   44.7690 H   0  0  0  0  0  0  0  0  0  0  0  0
   47.3220   29.5360   46.8640 H   0  0  0  0  0  0  0  0  0  0  0  0
   47.8350   31.6830   47.8700 H   0  0  0  0  0  0  0  0  0  0  0  0
   49.6790   32.9650   41.0960 C   0  0  0  0  0  0  0  0  0  0  0  0
   50.0290   33.5350   41.9910 H   0  0  0  0  0  0  0  0  0  0  0  0
   50.3370   33.4540   40.3280 H   0  0  0  0  0  0  0  0  0  0  0  0
   50.0540   31.5580   41.1120 C   0  0  0  0  0  0  0  0  0  0  0  0
   50.7480   30.7100   40.2880 C   0  0  0  0  0  0  0  0  0  0  0  0
   51.1230   31.1190   39.3910 H   0  0  0  0  0  0  0  0  0  0  0  0
   51.0100   29.3800   40.4860 C   0  0  0  0  0  3  0  0  0  0  0  0
   50.5630   28.7550   41.6050 C   0  0  0  0  0  0  0  0  0  0  0  0
   50.8130   27.4600   41.8060 N   0  0  0  0  0  0  0  0  0  0  0  0
   50.4050   26.7730   42.8870 C   0  0  0  0  0  0  0  0  0  0  0  0
   50.5910   25.7250   43.0780 H   0  0  0  0  0  0  0  0  0  0  0  0
   49.6880   27.5220   43.7990 C   0  0  0  0  0  3  0  0  0  0  0  0
   49.3940   28.8630   43.6540 C   0  0  0  0  0  3  0  0  0  0  0  0
   49.8580   29.4740   42.5120 C   0  0  0  0  0  0  0  0  0  0  0  0
   49.6310   30.8190   42.2440 C   0  0  0  0  0  3  0  0  0  0  0  0
  1 19  1  0  0  0  0
  1  2  2  0  0  0  0
  3  1  1  0  0  0  0
  4  3  1  0  0  0  0
  4 10  1  0  0  0  0
  5 12  1  0  0  0  0
  5  4  1  0  0  0  0
  6  7  1  0  0  0  0
  6  5  1  0  0  0  0
  7 16  1  0  0  0  0
  7  8  1  0  0  0  0
  8 17  1  6  0  0  0
  8 36  1  0  0  0  0
  8  3  1  0  0  0  0
  9  4  1  0  0  0  0
 11  5  1  0  0  0  0
 13  6  1  0  0  0  0
 14  6  1  0  0  0  0
 15  7  1  0  0  0  0
 18 23  2  0  0  0  0
 18 19  1  0  0  0  0
 19 20  2  0  0  0  0
 20 21  1  0  0  0  0
 20 26  1  0  0  0  0
 22 25  1  0  0  0  0
 22 21  2  0  0  0  0
 23 22  1  0  0  0  0
 24 18  1  0  0  0  0
 26 31  1  0  0  0  0
 27 28  1  0  0  0  0
 27 26  2  0  0  0  0
 28 29  2  0  0  0  0
 29 34  1  0  0  0  0
 29 30  1  0  0  0  0
 30 35  1  0  0  0  0
 31 30  2  0  0  0  0
 32 27  1  0  0  0  0
 33 28  1  0  0  0  0
 36 39  1  0  0  0  0
 36 37  1  0  0  0  0
 38 36  1  0  0  0  0
 39 50  1  0  0  0  0
 40 42  1  0  0  0  0
 40 39  2  0  0  0  0
 41 40  1  0  0  0  0
 42 43  2  0  0  0  0
 43 44  1  0  0  0  0
 43 49  1  0  0  0  0
 44 45  2  0  0  0  0
 45 46  1  0  0  0  0
 45 47  1  0  0  0  0
 48 47  2  0  0  0  0
 49 48  1  0  0  0  0
 50 49  2  0  0  0  0
M  END
>  <minimizedAffinity>
-4.99527884

>  <minimizedRMSD>
0.829958558

$$$$
