
 OpenBabel03242523133D

 49 54  0  0  1  0  0  0  0  0999 V2000
   38.0940   32.2450   39.9300 C   0  0  0  0  0  0  0  0  0  0  0  0
   39.2920   32.5840   40.5950 C   0  0  0  0  0  0  0  0  0  0  0  0
   39.6010   31.6620   41.5660 C   0  0  0  0  0  0  0  0  0  0  0  0
   38.8770   30.5550   41.8830 C   0  0  0  0  0  0  0  0  0  0  0  0
   37.7040   30.2950   41.1800 C   0  0  0  0  0  0  0  0  0  0  0  0
   37.3110   31.1550   40.1890 C   0  0  0  0  0  0  0  0  0  0  0  0
   37.2080   29.1270   41.7320 O   0  0  0  0  0  0  0  0  0  0  0  0
   38.0890   28.6430   42.7320 C   0  0  2  0  0  0  0  0  0  0  0  0
   39.1450   29.6000   42.8440 O   0  0  0  0  0  0  0  0  0  0  0  0
   37.5770   32.7650   39.0960 H   0  0  0  0  0  0  0  0  0  0  0  0
   40.4870   31.8970   42.0710 H   0  0  0  0  0  0  0  0  0  0  0  0
   36.4100   30.8540   39.7260 H   0  0  0  0  0  0  0  0  0  0  0  0
   37.5980   28.5520   43.7090 H   0  0  0  0  0  0  0  0  0  0  0  0
   41.1940   35.4450   39.1000 C   0  0  0  0  0  0  0  0  0  0  0  0
   40.8820   34.1030   39.3230 C   0  0  0  0  0  0  0  0  0  0  0  0
   39.8540   33.7890   40.1600 C   0  0  0  0  0  0  0  0  0  0  0  0
   39.1810   34.8300   40.7440 N   0  0  0  0  0  0  0  0  0  0  0  0
   39.4790   36.1140   40.5310 C   0  0  0  0  0  0  0  0  0  0  0  0
   40.4670   36.4110   39.7240 N   0  0  0  0  0  0  0  0  0  0  0  0
   42.0090   35.7030   38.4340 H   0  0  0  0  0  0  0  0  0  0  0  0
   38.9840   36.9730   40.9630 H   0  0  0  0  0  0  0  0  0  0  0  0
   41.6660   33.1490   38.6790 N   0  0  0  0  0  0  0  0  0  0  0  0
   41.2160   32.4690   37.5080 C   0  0  0  0  0  0  0  0  0  0  0  0
   42.2450   31.6050   36.8400 C   0  0  0  0  0  0  0  0  0  0  0  0
   43.5400   32.1370   36.8110 N   0  0  0  0  0  0  0  0  0  0  0  0
   43.9820   32.7580   37.9590 C   0  0  0  0  0  0  0  0  0  0  0  0
   42.9540   32.7310   39.0700 C   0  0  0  0  0  0  0  0  0  0  0  0
   40.7350   33.1220   36.7500 H   0  0  0  0  0  0  0  0  0  0  0  0
   40.3980   31.7750   37.8480 H   0  0  0  0  0  0  0  0  0  0  0  0
   41.8990   31.4290   35.8010 H   0  0  0  0  0  0  0  0  0  0  0  0
   42.2630   30.5830   37.3140 H   0  0  0  0  0  0  0  0  0  0  0  0
   43.7430   32.5720   35.8830 H   0  0  0  0  0  0  0  0  0  0  0  0
   44.8640   32.1860   38.3730 H   0  0  0  0  0  0  0  0  0  0  0  0
   44.3640   33.7660   37.7670 H   0  0  0  0  0  0  0  0  0  0  0  0
   43.3580   33.4390   39.8510 H   0  0  0  0  0  0  0  0  0  0  0  0
   42.9130   31.7130   39.5260 H   0  0  0  0  0  0  0  0  0  0  0  0
   38.6200   27.4430   42.2620 O   0  0  0  0  0  0  0  0  0  0  0  0
   37.8520   26.5950   41.4950 C   0  0  0  0  0  0  0  0  0  0  0  0
   37.5990   25.4530   42.2600 C   0  0  0  0  0  0  0  0  0  0  0  0
   37.9190   25.2090   43.2860 H   0  0  0  0  0  0  0  0  0  0  0  0
   36.8380   24.3830   41.7720 C   0  0  0  0  0  3  0  0  0  0  0  0
   36.3180   24.4470   40.4940 C   0  0  0  0  0  0  0  0  0  0  0  0
   35.5780   23.4670   39.9490 N   0  0  0  0  0  0  0  0  0  0  0  0
   35.0690   23.5380   38.6920 C   0  0  0  0  0  0  0  0  0  0  0  0
   34.4750   22.7480   38.2540 H   0  0  0  0  0  0  0  0  0  0  0  0
   35.3370   24.6900   37.9470 C   0  0  0  0  0  3  0  0  0  0  0  0
   36.0990   25.7410   38.4640 C   0  0  0  0  0  3  0  0  0  0  0  0
   36.5710   25.5760   39.7450 C   0  0  0  0  0  0  0  0  0  0  0  0
   37.3190   26.6270   40.2270 C   0  0  0  0  0  3  0  0  0  0  0  0
  1  6  2  0  0  0  0
  1  2  1  0  0  0  0
  2  3  2  0  0  0  0
  3  4  1  0  0  0  0
  3 11  1  0  0  0  0
  4  9  1  0  0  0  0
  5  7  1  0  0  0  0
  5  4  2  0  0  0  0
  6  5  1  0  0  0  0
  7  8  1  0  0  0  0
  8  9  1  0  0  0  0
  8 13  1  1  0  0  0
 10  1  1  0  0  0  0
 12  6  1  0  0  0  0
 14 15  2  0  0  0  0
 14 19  1  0  0  0  0
 15 16  1  0  0  0  0
 16  2  1  0  0  0  0
 16 17  2  0  0  0  0
 18 17  1  0  0  0  0
 18 21  1  0  0  0  0
 19 18  2  0  0  0  0
 20 14  1  0  0  0  0
 22 27  1  0  0  0  0
 22 15  1  0  0  0  0
 23 29  1  0  0  0  0
 23 22  1  0  0  0  0
 24 31  1  0  0  0  0
 24 23  1  0  0  0  0
 25 24  1  0  0  0  0
 25 26  1  0  0  0  0
 26 33  1  0  0  0  0
 26 27  1  0  0  0  0
 27 36  1  0  0  0  0
 27 35  1  0  0  0  0
 28 23  1  0  0  0  0
 30 24  1  0  0  0  0
 32 25  1  0  0  0  0
 34 26  1  0  0  0  0
 37  8  1  0  0  0  0
 38 39  1  0  0  0  0
 38 37  1  0  0  0  0
 39 40  1  0  0  0  0
 41 39  2  0  0  0  0
 42 41  1  0  0  0  0
 43 42  1  0  0  0  0
 44 43  2  0  0  0  0
 45 44  1  0  0  0  0
 46 47  2  0  0  0  0
 46 44  1  0  0  0  0
 47 48  1  0  0  0  0
 48 49  1  0  0  0  0
 48 42  2  0  0  0  0
 49 38  2  0  0  0  0
M  END
>  <minimizedAffinity>
-7.4199338

$$$$

 OpenBabel03242523133D

 49 54  0  0  1  0  0  0  0  0999 V2000
   39.1310   31.4550   37.5370 C   0  0  0  0  0  0  0  0  0  0  0  0
   40.1870   31.2700   38.4540 C   0  0  0  0  0  0  0  0  0  0  0  0
   39.7130   31.0310   39.7210 C   0  0  0  0  0  0  0  0  0  0  0  0
   38.4040   30.9740   40.0910 C   0  0  0  0  0  0  0  0  0  0  0  0
   37.4230   31.1720   39.1250 C   0  0  0  0  0  0  0  0  0  0  0  0
   37.7960   31.4150   37.8300 C   0  0  0  0  0  0  0  0  0  0  0  0
   36.2240   31.0610   39.8060 O   0  0  0  0  0  0  0  0  0  0  0  0
   36.4590   30.7500   41.1690 C   0  0  2  0  0  0  0  0  0  0  0  0
   37.8770   30.7350   41.3450 O   0  0  0  0  0  0  0  0  0  0  0  0
   39.1690   31.6510   36.4450 H   0  0  0  0  0  0  0  0  0  0  0  0
   40.4820   30.8910   40.4150 H   0  0  0  0  0  0  0  0  0  0  0  0
   36.9670   31.5460   37.1880 H   0  0  0  0  0  0  0  0  0  0  0  0
   36.0320   31.5010   41.8460 H   0  0  0  0  0  0  0  0  0  0  0  0
   43.6400   32.1780   37.3170 C   0  0  0  0  0  0  0  0  0  0  0  0
   42.4740   32.3090   38.0740 C   0  0  0  0  0  0  0  0  0  0  0  0
   41.4570   31.4230   37.8860 C   0  0  0  0  0  0  0  0  0  0  0  0
   41.6440   30.4420   36.9470 N   0  0  0  0  0  0  0  0  0  0  0  0
   42.7590   30.3170   36.2230 C   0  0  0  0  0  0  0  0  0  0  0  0
   43.7360   31.1700   36.4080 N   0  0  0  0  0  0  0  0  0  0  0  0
   44.4550   32.8770   37.4620 H   0  0  0  0  0  0  0  0  0  0  0  0
   42.9610   29.5660   35.4720 H   0  0  0  0  0  0  0  0  0  0  0  0
   42.4130   33.3680   38.9770 N   0  0  0  0  0  0  0  0  0  0  0  0
   41.4020   34.3710   38.8930 C   0  0  0  0  0  0  0  0  0  0  0  0
   41.3720   35.3380   40.0400 C   0  0  0  0  0  0  0  0  0  0  0  0
   41.6110   34.7750   41.3000 N   0  0  0  0  0  0  0  0  0  0  0  0
   42.6160   33.8350   41.3800 C   0  0  0  0  0  0  0  0  0  0  0  0
   43.2980   33.5970   40.0490 C   0  0  0  0  0  0  0  0  0  0  0  0
   40.3780   33.9820   38.7130 H   0  0  0  0  0  0  0  0  0  0  0  0
   41.6430   34.9780   37.9780 H   0  0  0  0  0  0  0  0  0  0  0  0
   40.3720   35.8170   40.0380 H   0  0  0  0  0  0  0  0  0  0  0  0
   42.0950   36.1830   39.8560 H   0  0  0  0  0  0  0  0  0  0  0  0
   40.7160   34.6110   41.8110 H   0  0  0  0  0  0  0  0  0  0  0  0
   43.4360   34.2250   42.0530 H   0  0  0  0  0  0  0  0  0  0  0  0
   42.2810   32.9060   41.8500 H   0  0  0  0  0  0  0  0  0  0  0  0
   43.9340   32.6780   40.2140 H   0  0  0  0  0  0  0  0  0  0  0  0
   43.9850   34.4440   39.8150 H   0  0  0  0  0  0  0  0  0  0  0  0
   35.9670   29.4640   41.3850 O   0  0  0  0  0  0  0  0  0  0  0  0
   36.8270   28.4290   41.6800 C   0  0  0  0  0  0  0  0  0  0  0  0
   36.7250   27.4920   40.6490 C   0  0  0  0  0  0  0  0  0  0  0  0
   36.0980   27.5110   39.7420 H   0  0  0  0  0  0  0  0  0  0  0  0
   37.4740   26.3090   40.6410 C   0  0  0  0  0  3  0  0  0  0  0  0
   38.3430   26.0480   41.6810 C   0  0  0  0  0  0  0  0  0  0  0  0
   39.0980   24.9390   41.7520 N   0  0  0  0  0  0  0  0  0  0  0  0
   39.9520   24.6900   42.7780 C   0  0  0  0  0  0  0  0  0  0  0  0
   40.5580   23.7970   42.8350 H   0  0  0  0  0  0  0  0  0  0  0  0
   40.0360   25.6430   43.7990 C   0  0  0  0  0  3  0  0  0  0  0  0
   39.2750   26.8150   43.7760 C   0  0  0  0  0  3  0  0  0  0  0  0
   38.4400   26.9760   42.6950 C   0  0  0  0  0  0  0  0  0  0  0  0
   37.7030   28.1390   42.7020 C   0  0  0  0  0  3  0  0  0  0  0  0
  1  6  2  0  0  0  0
  1  2  1  0  0  0  0
  2  3  2  0  0  0  0
  3  4  1  0  0  0  0
  3 11  1  0  0  0  0
  4  9  1  0  0  0  0
  5  7  1  0  0  0  0
  5  4  2  0  0  0  0
  6  5  1  0  0  0  0
  7  8  1  0  0  0  0
  8  9  1  0  0  0  0
  8 37  1  0  0  0  0
  8 13  1  1  0  0  0
 10  1  1  0  0  0  0
 12  6  1  0  0  0  0
 14 20  1  0  0  0  0
 14 15  1  0  0  0  0
 15 22  1  0  0  0  0
 16 15  2  0  0  0  0
 16  2  1  0  0  0  0
 17 16  1  0  0  0  0
 18 19  1  0  0  0  0
 18 17  2  0  0  0  0
 19 14  2  0  0  0  0
 21 18  1  0  0  0  0
 22 27  1  0  0  0  0
 23 22  1  0  0  0  0
 23 24  1  0  0  0  0
 24 25  1  0  0  0  0
 25 26  1  0  0  0  0
 25 32  1  0  0  0  0
 26 34  1  0  0  0  0
 26 33  1  0  0  0  0
 27 35  1  0  0  0  0
 27 26  1  0  0  0  0
 28 23  1  0  0  0  0
 29 23  1  0  0  0  0
 30 24  1  0  0  0  0
 31 24  1  0  0  0  0
 36 27  1  0  0  0  0
 37 38  1  0  0  0  0
 38 49  1  0  0  0  0
 39 38  2  0  0  0  0
 40 39  1  0  0  0  0
 41 39  1  0  0  0  0
 41 42  2  0  0  0  0
 42 43  1  0  0  0  0
 42 48  1  0  0  0  0
 43 44  2  0  0  0  0
 44 45  1  0  0  0  0
 44 46  1  0  0  0  0
 47 46  2  0  0  0  0
 48 49  2  0  0  0  0
 48 47  1  0  0  0  0
M  END
>  <minimizedAffinity>
-7.34268618

$$$$

 OpenBabel03242523133D

 49 54  0  0  1  0  0  0  0  0999 V2000
   37.8020   32.5790   39.6290 C   0  0  0  0  0  0  0  0  0  0  0  0
   39.0000   32.7560   40.3530 C   0  0  0  0  0  0  0  0  0  0  0  0
   39.1430   31.7940   41.3240 C   0  0  0  0  0  0  0  0  0  0  0  0
   38.2690   30.7860   41.5910 C   0  0  0  0  0  0  0  0  0  0  0  0
   37.1070   30.6850   40.8320 C   0  0  0  0  0  0  0  0  0  0  0  0
   36.8740   31.5960   39.8370 C   0  0  0  0  0  0  0  0  0  0  0  0
   36.4420   29.5850   41.3450 O   0  0  0  0  0  0  0  0  0  0  0  0
   37.2060   28.9840   42.3770 C   0  0  2  0  0  0  0  0  0  0  0  0
   38.3680   29.7970   42.5500 O   0  0  0  0  0  0  0  0  0  0  0  0
   37.3950   33.1670   38.7800 H   0  0  0  0  0  0  0  0  0  0  0  0
   40.0270   31.9100   41.8710 H   0  0  0  0  0  0  0  0  0  0  0  0
   35.9650   31.4160   39.3290 H   0  0  0  0  0  0  0  0  0  0  0  0
   36.6610   28.9480   43.3280 H   0  0  0  0  0  0  0  0  0  0  0  0
   41.3250   35.3610   38.9940 C   0  0  0  0  0  0  0  0  0  0  0  0
   40.8370   34.0670   39.1870 C   0  0  0  0  0  0  0  0  0  0  0  0
   39.7310   33.8830   39.9610 C   0  0  0  0  0  0  0  0  0  0  0  0
   39.1590   34.9980   40.5140 N   0  0  0  0  0  0  0  0  0  0  0  0
   39.6260   36.2350   40.3300 C   0  0  0  0  0  0  0  0  0  0  0  0
   40.6880   36.4090   39.5830 N   0  0  0  0  0  0  0  0  0  0  0  0
   42.2020   35.5170   38.3780 H   0  0  0  0  0  0  0  0  0  0  0  0
   39.2160   37.1480   40.7390 H   0  0  0  0  0  0  0  0  0  0  0  0
   41.5330   33.0240   38.5810 N   0  0  0  0  0  0  0  0  0  0  0  0
   41.0700   32.4050   37.3820 C   0  0  0  0  0  0  0  0  0  0  0  0
   42.0220   31.4220   36.7660 C   0  0  0  0  0  0  0  0  0  0  0  0
   43.3710   31.7910   36.8140 N   0  0  0  0  0  0  0  0  0  0  0  0
   43.8210   32.3520   37.9890 C   0  0  0  0  0  0  0  0  0  0  0  0
   42.7360   32.4510   39.0400 C   0  0  0  0  0  0  0  0  0  0  0  0
   40.7160   33.1130   36.6020 H   0  0  0  0  0  0  0  0  0  0  0  0
   40.1550   31.8170   37.6710 H   0  0  0  0  0  0  0  0  0  0  0  0
   41.7160   31.2900   35.7080 H   0  0  0  0  0  0  0  0  0  0  0  0
   41.8870   30.4050   37.2330 H   0  0  0  0  0  0  0  0  0  0  0  0
   43.6790   32.1970   35.9030 H   0  0  0  0  0  0  0  0  0  0  0  0
   44.6010   31.6760   38.4490 H   0  0  0  0  0  0  0  0  0  0  0  0
   44.3340   33.3060   37.8270 H   0  0  0  0  0  0  0  0  0  0  0  0
   43.1790   33.1040   39.8480 H   0  0  0  0  0  0  0  0  0  0  0  0
   42.5440   31.4470   39.4870 H   0  0  0  0  0  0  0  0  0  0  0  0
   37.6000   27.7300   41.9140 O   0  0  0  0  0  0  0  0  0  0  0  0
   38.8770   27.2700   42.1510 C   0  0  0  0  0  0  0  0  0  0  0  0
   38.9010   26.7490   43.4470 C   0  0  0  0  0  0  0  0  0  0  0  0
   38.0910   26.6840   44.1930 H   0  0  0  0  0  0  0  0  0  0  0  0
   40.0590   26.1940   44.0050 C   0  0  0  0  0  3  0  0  0  0  0  0
   41.2210   26.1580   43.2620 C   0  0  0  0  0  0  0  0  0  0  0  0
   42.3750   25.6450   43.7200 N   0  0  0  0  0  0  0  0  0  0  0  0
   43.5140   25.6120   42.9820 C   0  0  0  0  0  0  0  0  0  0  0  0
   44.4430   25.2000   43.3510 H   0  0  0  0  0  0  0  0  0  0  0  0
   43.4660   26.1410   41.6880 C   0  0  0  0  0  3  0  0  0  0  0  0
   42.2920   26.6870   41.1600 C   0  0  0  0  0  3  0  0  0  0  0  0
   41.1920   26.6740   41.9840 C   0  0  0  0  0  0  0  0  0  0  0  0
   40.0520   27.2190   41.4360 C   0  0  0  0  0  3  0  0  0  0  0  0
  1  6  2  0  0  0  0
  1  2  1  0  0  0  0
  2  3  2  0  0  0  0
  3  4  1  0  0  0  0
  3 11  1  0  0  0  0
  4  9  1  0  0  0  0
  5  7  1  0  0  0  0
  5  4  2  0  0  0  0
  6  5  1  0  0  0  0
  7  8  1  0  0  0  0
  8  9  1  0  0  0  0
  8 13  1  1  0  0  0
 10  1  1  0  0  0  0
 12  6  1  0  0  0  0
 14 15  2  0  0  0  0
 14 19  1  0  0  0  0
 15 16  1  0  0  0  0
 16  2  1  0  0  0  0
 16 17  2  0  0  0  0
 18 17  1  0  0  0  0
 18 21  1  0  0  0  0
 19 18  2  0  0  0  0
 20 14  1  0  0  0  0
 22 27  1  0  0  0  0
 22 15  1  0  0  0  0
 23 29  1  0  0  0  0
 23 22  1  0  0  0  0
 24 25  1  0  0  0  0
 24 31  1  0  0  0  0
 24 23  1  0  0  0  0
 25 26  1  0  0  0  0
 26 33  1  0  0  0  0
 26 27  1  0  0  0  0
 27 36  1  0  0  0  0
 27 35  1  0  0  0  0
 28 23  1  0  0  0  0
 30 24  1  0  0  0  0
 32 25  1  0  0  0  0
 34 26  1  0  0  0  0
 37 38  1  0  0  0  0
 37  8  1  0  0  0  0
 38 39  1  0  0  0  0
 39 41  2  0  0  0  0
 39 40  1  0  0  0  0
 42 43  1  0  0  0  0
 42 41  1  0  0  0  0
 44 45  1  0  0  0  0
 44 43  2  0  0  0  0
 46 44  1  0  0  0  0
 47 46  2  0  0  0  0
 47 48  1  0  0  0  0
 48 42  2  0  0  0  0
 49 48  1  0  0  0  0
 49 38  2  0  0  0  0
M  END
>  <minimizedAffinity>
-7.27566099

$$$$

 OpenBabel03242523133D

 49 54  0  0  1  0  0  0  0  0999 V2000
   38.1850   32.2730   38.3530 C   0  0  0  0  0  0  0  0  0  0  0  0
   38.4850   32.7550   39.6450 C   0  0  0  0  0  0  0  0  0  0  0  0
   37.7580   32.0950   40.6050 C   0  0  0  0  0  0  0  0  0  0  0  0
   36.8540   31.1010   40.3860 C   0  0  0  0  0  0  0  0  0  0  0  0
   36.6130   30.6870   39.0800 C   0  0  0  0  0  0  0  0  0  0  0  0
   37.2910   31.2840   38.0510 C   0  0  0  0  0  0  0  0  0  0  0  0
   35.6590   29.6910   39.1920 O   0  0  0  0  0  0  0  0  0  0  0  0
   35.3480   29.4580   40.5550 C   0  0  2  0  0  0  0  0  0  0  0  0
   36.1020   30.4060   41.3130 O   0  0  0  0  0  0  0  0  0  0  0  0
   38.6020   32.5790   37.3700 H   0  0  0  0  0  0  0  0  0  0  0  0
   37.9670   32.4390   41.5700 H   0  0  0  0  0  0  0  0  0  0  0  0
   37.0280   30.8850   37.1080 H   0  0  0  0  0  0  0  0  0  0  0  0
   34.2830   29.6090   40.7700 H   0  0  0  0  0  0  0  0  0  0  0  0
   41.3550   35.1580   39.4830 C   0  0  0  0  0  0  0  0  0  0  0  0
   40.7290   33.9160   39.3740 C   0  0  0  0  0  0  0  0  0  0  0  0
   39.3990   33.8150   39.6500 C   0  0  0  0  0  0  0  0  0  0  0  0
   38.7480   34.9610   40.0270 N   0  0  0  0  0  0  0  0  0  0  0  0
   39.3470   36.1490   40.1310 C   0  0  0  0  0  0  0  0  0  0  0  0
   40.6260   36.2420   39.8620 N   0  0  0  0  0  0  0  0  0  0  0  0
   42.4120   35.2470   39.2630 H   0  0  0  0  0  0  0  0  0  0  0  0
   38.8850   37.0830   40.4220 H   0  0  0  0  0  0  0  0  0  0  0  0
   41.5200   32.8310   39.0010 N   0  0  0  0  0  0  0  0  0  0  0  0
   42.0190   31.9000   39.9600 C   0  0  0  0  0  0  0  0  0  0  0  0
   42.7040   30.6970   39.3790 C   0  0  0  0  0  0  0  0  0  0  0  0
   42.1070   30.1710   38.2270 N   0  0  0  0  0  0  0  0  0  0  0  0
   41.6620   31.0770   37.2880 C   0  0  0  0  0  0  0  0  0  0  0  0
   41.9280   32.5110   37.6910 C   0  0  0  0  0  0  0  0  0  0  0  0
   41.2760   31.5700   40.7160 H   0  0  0  0  0  0  0  0  0  0  0  0
   42.8020   32.4510   40.5490 H   0  0  0  0  0  0  0  0  0  0  0  0
   42.7240   29.9190   40.1680 H   0  0  0  0  0  0  0  0  0  0  0  0
   43.7890   30.9280   39.1760 H   0  0  0  0  0  0  0  0  0  0  0  0
   41.5140   29.3430   38.4600 H   0  0  0  0  0  0  0  0  0  0  0  0
   42.2470   30.9370   36.3320 H   0  0  0  0  0  0  0  0  0  0  0  0
   40.6180   30.9070   37.0080 H   0  0  0  0  0  0  0  0  0  0  0  0
   41.3380   33.1300   36.9530 H   0  0  0  0  0  0  0  0  0  0  0  0
   43.0080   32.7540   37.5480 H   0  0  0  0  0  0  0  0  0  0  0  0
   35.8010   28.1770   40.8640 O   0  0  0  0  0  0  0  0  0  0  0  0
   37.0570   27.9900   41.3960 C   0  0  0  0  0  0  0  0  0  0  0  0
   36.8980   27.6920   42.7510 C   0  0  0  0  0  0  0  0  0  0  0  0
   35.9740   27.6050   43.3480 H   0  0  0  0  0  0  0  0  0  0  0  0
   37.9890   27.4450   43.5930 C   0  0  0  0  0  3  0  0  0  0  0  0
   39.2690   27.4960   43.0790 C   0  0  0  0  0  0  0  0  0  0  0  0
   40.3700   27.2710   43.8150 N   0  0  0  0  0  0  0  0  0  0  0  0
   41.6260   27.3220   43.3010 C   0  0  0  0  0  0  0  0  0  0  0  0
   42.5120   27.1430   43.8940 H   0  0  0  0  0  0  0  0  0  0  0  0
   41.7600   27.6240   41.9420 C   0  0  0  0  0  3  0  0  0  0  0  0
   40.6490   27.8650   41.1280 C   0  0  0  0  0  3  0  0  0  0  0  0
   39.4200   27.7900   41.7410 C   0  0  0  0  0  0  0  0  0  0  0  0
   38.3460   28.0340   40.9140 C   0  0  0  0  0  3  0  0  0  0  0  0
  1  2  1  0  0  0  0
  2 16  1  0  0  0  0
  2  3  2  0  0  0  0
  3 11  1  0  0  0  0
  4  3  1  0  0  0  0
  4  9  1  0  0  0  0
  5  7  1  0  0  0  0
  5  4  2  0  0  0  0
  6  1  2  0  0  0  0
  6  5  1  0  0  0  0
  7  8  1  0  0  0  0
  8 13  1  1  0  0  0
  8 37  1  0  0  0  0
  8  9  1  0  0  0  0
 10  1  1  0  0  0  0
 12  6  1  0  0  0  0
 14 19  1  0  0  0  0
 15 14  2  0  0  0  0
 15 16  1  0  0  0  0
 16 17  2  0  0  0  0
 17 18  1  0  0  0  0
 18 21  1  0  0  0  0
 19 18  2  0  0  0  0
 20 14  1  0  0  0  0
 22 15  1  0  0  0  0
 22 23  1  0  0  0  0
 23 29  1  0  0  0  0
 23 28  1  0  0  0  0
 24 23  1  0  0  0  0
 24 30  1  0  0  0  0
 25 32  1  0  0  0  0
 25 24  1  0  0  0  0
 26 27  1  0  0  0  0
 26 25  1  0  0  0  0
 27 22  1  0  0  0  0
 31 24  1  0  0  0  0
 33 26  1  0  0  0  0
 34 26  1  0  0  0  0
 35 27  1  0  0  0  0
 36 27  1  0  0  0  0
 37 38  1  0  0  0  0
 38 39  1  0  0  0  0
 39 40  1  0  0  0  0
 39 41  2  0  0  0  0
 42 41  1  0  0  0  0
 42 43  1  0  0  0  0
 44 43  2  0  0  0  0
 44 45  1  0  0  0  0
 46 44  1  0  0  0  0
 47 48  1  0  0  0  0
 47 46  2  0  0  0  0
 48 42  2  0  0  0  0
 49 38  2  0  0  0  0
 49 48  1  0  0  0  0
M  END
>  <minimizedAffinity>
-7.2582159

$$$$

 OpenBabel03242523133D

 49 54  0  0  1  0  0  0  0  0999 V2000
   40.7880   29.9960   37.8540 C   0  0  0  0  0  0  0  0  0  0  0  0
   40.5290   31.3830   37.8310 C   0  0  0  0  0  0  0  0  0  0  0  0
   39.2060   31.6390   37.5650 C   0  0  0  0  0  0  0  0  0  0  0  0
   38.2360   30.7100   37.3440 C   0  0  0  0  0  0  0  0  0  0  0  0
   38.5770   29.3610   37.3800 C   0  0  0  0  0  0  0  0  0  0  0  0
   39.8730   29.0030   37.6400 C   0  0  0  0  0  0  0  0  0  0  0  0
   37.3980   28.6880   37.1150 O   0  0  0  0  0  0  0  0  0  0  0  0
   36.3290   29.6080   36.9640 C   0  0  2  0  0  0  0  0  0  0  0  0
   36.8970   30.9140   37.0770 O   0  0  0  0  0  0  0  0  0  0  0  0
   41.7400   29.4580   38.0500 H   0  0  0  0  0  0  0  0  0  0  0  0
   38.9940   32.6630   37.5440 H   0  0  0  0  0  0  0  0  0  0  0  0
   40.0100   27.9560   37.6450 H   0  0  0  0  0  0  0  0  0  0  0  0
   35.8440   29.5230   35.9840 H   0  0  0  0  0  0  0  0  0  0  0  0
   43.2340   33.7920   38.7880 C   0  0  0  0  0  0  0  0  0  0  0  0
   41.9650   33.2140   38.8500 C   0  0  0  0  0  0  0  0  0  0  0  0
   41.6700   32.1700   38.0260 C   0  0  0  0  0  0  0  0  0  0  0  0
   42.6530   31.7480   37.1710 N   0  0  0  0  0  0  0  0  0  0  0  0
   43.8670   32.3010   37.1110 C   0  0  0  0  0  0  0  0  0  0  0  0
   44.1480   33.3030   37.9070 N   0  0  0  0  0  0  0  0  0  0  0  0
   43.4790   34.6220   39.4400 H   0  0  0  0  0  0  0  0  0  0  0  0
   44.6790   32.0090   36.4590 H   0  0  0  0  0  0  0  0  0  0  0  0
   41.0570   33.7620   39.7520 N   0  0  0  0  0  0  0  0  0  0  0  0
   40.6080   35.1120   39.6430 C   0  0  0  0  0  0  0  0  0  0  0  0
   39.5020   35.4910   40.5840 C   0  0  0  0  0  0  0  0  0  0  0  0
   38.5260   34.5070   40.7820 N   0  0  0  0  0  0  0  0  0  0  0  0
   38.9700   33.2110   40.9260 C   0  0  0  0  0  0  0  0  0  0  0  0
   40.4780   33.1000   40.8540 C   0  0  0  0  0  0  0  0  0  0  0  0
   40.3390   35.4290   38.6130 H   0  0  0  0  0  0  0  0  0  0  0  0
   41.4880   35.7550   39.9200 H   0  0  0  0  0  0  0  0  0  0  0  0
   39.0230   36.4040   40.1750 H   0  0  0  0  0  0  0  0  0  0  0  0
   39.9290   35.8110   41.5770 H   0  0  0  0  0  0  0  0  0  0  0  0
   37.6820   34.6960   40.1970 H   0  0  0  0  0  0  0  0  0  0  0  0
   38.7070   32.8410   41.9610 H   0  0  0  0  0  0  0  0  0  0  0  0
   38.4670   32.5190   40.2430 H   0  0  0  0  0  0  0  0  0  0  0  0
   40.6810   31.9920   40.7750 H   0  0  0  0  0  0  0  0  0  0  0  0
   40.9330   33.4590   41.8080 H   0  0  0  0  0  0  0  0  0  0  0  0
   35.4600   29.4020   38.0340 O   0  0  0  0  0  0  0  0  0  0  0  0
   35.9500   29.0470   39.2710 C   0  0  0  0  0  0  0  0  0  0  0  0
   36.0620   30.2160   40.0280 C   0  0  0  0  0  0  0  0  0  0  0  0
   35.8230   31.2570   39.7540 H   0  0  0  0  0  0  0  0  0  0  0  0
   36.5340   30.2070   41.3470 C   0  0  0  0  0  3  0  0  0  0  0  0
   36.9050   29.0110   41.9270 C   0  0  0  0  0  0  0  0  0  0  0  0
   37.3670   28.9120   43.1850 N   0  0  0  0  0  0  0  0  0  0  0  0
   37.7290   27.7310   43.7490 C   0  0  0  0  0  0  0  0  0  0  0  0
   38.1010   27.6530   44.7610 H   0  0  0  0  0  0  0  0  0  0  0  0
   37.6090   26.5760   42.9710 C   0  0  0  0  0  3  0  0  0  0  0  0
   37.1340   26.6190   41.6570 C   0  0  0  0  0  3  0  0  0  0  0  0
   36.7920   27.8610   41.1760 C   0  0  0  0  0  0  0  0  0  0  0  0
   36.3290   27.8710   39.8790 C   0  0  0  0  0  3  0  0  0  0  0  0
  1 10  1  0  0  0  0
  2  1  1  0  0  0  0
  2 16  1  0  0  0  0
  3  2  2  0  0  0  0
  4  5  2  0  0  0  0
  4  3  1  0  0  0  0
  5  6  1  0  0  0  0
  6 12  1  0  0  0  0
  6  1  2  0  0  0  0
  7  5  1  0  0  0  0
  8 13  1  6  0  0  0
  8  9  1  0  0  0  0
  8  7  1  0  0  0  0
  8 37  1  0  0  0  0
  9  4  1  0  0  0  0
 11  3  1  0  0  0  0
 14 15  1  0  0  0  0
 14 20  1  0  0  0  0
 15 22  1  0  0  0  0
 16 15  2  0  0  0  0
 17 16  1  0  0  0  0
 18 17  2  0  0  0  0
 18 19  1  0  0  0  0
 19 14  2  0  0  0  0
 21 18  1  0  0  0  0
 22 27  1  0  0  0  0
 23 22  1  0  0  0  0
 23 29  1  0  0  0  0
 23 24  1  0  0  0  0
 24 25  1  0  0  0  0
 24 31  1  0  0  0  0
 25 26  1  0  0  0  0
 26 33  1  0  0  0  0
 27 26  1  0  0  0  0
 27 36  1  0  0  0  0
 28 23  1  0  0  0  0
 30 24  1  0  0  0  0
 32 25  1  0  0  0  0
 34 26  1  0  0  0  0
 35 27  1  0  0  0  0
 37 38  1  0  0  0  0
 38 49  2  0  0  0  0
 38 39  1  0  0  0  0
 39 41  2  0  0  0  0
 40 39  1  0  0  0  0
 41 42  1  0  0  0  0
 42 43  1  0  0  0  0
 43 44  2  0  0  0  0
 44 45  1  0  0  0  0
 46 44  1  0  0  0  0
 47 46  2  0  0  0  0
 48 47  1  0  0  0  0
 48 42  2  0  0  0  0
 49 48  1  0  0  0  0
M  END
>  <minimizedAffinity>
-7.11379099

$$$$

 OpenBabel03242523133D

 49 54  0  0  1  0  0  0  0  0999 V2000
   35.7940   28.1500   39.1210 C   0  0  0  0  0  0  0  0  0  0  0  0
   36.9740   27.5910   39.6560 C   0  0  0  0  0  0  0  0  0  0  0  0
   38.0120   28.4890   39.6210 C   0  0  0  0  0  0  0  0  0  0  0  0
   37.9580   29.7610   39.1410 C   0  0  0  0  0  0  0  0  0  0  0  0
   36.7550   30.2350   38.6260 C   0  0  0  0  0  0  0  0  0  0  0  0
   35.6580   29.4150   38.6190 C   0  0  0  0  0  0  0  0  0  0  0  0
   37.0250   31.5310   38.2220 O   0  0  0  0  0  0  0  0  0  0  0  0
   38.3680   31.8710   38.5270 C   0  0  2  0  0  0  0  0  0  0  0  0
   38.9680   30.7010   39.0860 O   0  0  0  0  0  0  0  0  0  0  0  0
   34.7830   27.7010   39.0150 H   0  0  0  0  0  0  0  0  0  0  0  0
   38.8960   28.0920   40.0130 H   0  0  0  0  0  0  0  0  0  0  0  0
   34.8050   29.8840   38.2090 H   0  0  0  0  0  0  0  0  0  0  0  0
   38.9350   32.1610   37.6330 H   0  0  0  0  0  0  0  0  0  0  0  0
   36.9180   24.1830   41.2120 C   0  0  0  0  0  0  0  0  0  0  0  0
   37.2200   25.5440   41.1400 C   0  0  0  0  0  0  0  0  0  0  0  0
   36.8350   26.2530   40.0430 C   0  0  0  0  0  0  0  0  0  0  0  0
   36.1650   25.5730   39.0600 N   0  0  0  0  0  0  0  0  0  0  0  0
   35.8760   24.2710   39.1290 C   0  0  0  0  0  0  0  0  0  0  0  0
   36.2460   23.5930   40.1870 N   0  0  0  0  0  0  0  0  0  0  0  0
   37.2190   23.6120   42.0820 H   0  0  0  0  0  0  0  0  0  0  0  0
   35.3510   23.6860   38.3870 H   0  0  0  0  0  0  0  0  0  0  0  0
   37.9270   26.0990   42.2040 N   0  0  0  0  0  0  0  0  0  0  0  0
   39.2350   25.6500   42.5560 C   0  0  0  0  0  0  0  0  0  0  0  0
   39.9250   26.4670   43.6090 C   0  0  0  0  0  0  0  0  0  0  0  0
   39.7290   27.8490   43.5120 N   0  0  0  0  0  0  0  0  0  0  0  0
   38.4540   28.2770   43.2110 C   0  0  0  0  0  0  0  0  0  0  0  0
   37.4780   27.1310   43.0520 C   0  0  0  0  0  0  0  0  0  0  0  0
   39.9210   25.5040   41.6950 H   0  0  0  0  0  0  0  0  0  0  0  0
   39.1030   24.6220   42.9930 H   0  0  0  0  0  0  0  0  0  0  0  0
   41.0090   26.2450   43.5350 H   0  0  0  0  0  0  0  0  0  0  0  0
   39.6280   26.1090   44.6350 H   0  0  0  0  0  0  0  0  0  0  0  0
   40.5450   28.3100   43.0520 H   0  0  0  0  0  0  0  0  0  0  0  0
   38.0490   28.8770   44.0790 H   0  0  0  0  0  0  0  0  0  0  0  0
   38.4350   28.9640   42.3600 H   0  0  0  0  0  0  0  0  0  0  0  0
   36.5520   27.6030   42.6110 H   0  0  0  0  0  0  0  0  0  0  0  0
   37.2030   26.7220   44.0530 H   0  0  0  0  0  0  0  0  0  0  0  0
   38.3250   32.8640   39.5030 O   0  0  0  0  0  0  0  0  0  0  0  0
   39.4910   33.3610   40.0430 C   0  0  0  0  0  0  0  0  0  0  0  0
   39.3450   34.7460   40.1520 C   0  0  0  0  0  0  0  0  0  0  0  0
   38.4890   35.3860   39.8790 H   0  0  0  0  0  0  0  0  0  0  0  0
   40.3570   35.5640   40.6680 C   0  0  0  0  0  3  0  0  0  0  0  0
   41.5440   34.9940   41.0850 C   0  0  0  0  0  0  0  0  0  0  0  0
   42.5650   35.7040   41.5910 N   0  0  0  0  0  0  0  0  0  0  0  0
   43.7300   35.1360   42.0000 C   0  0  0  0  0  0  0  0  0  0  0  0
   44.5520   35.7080   42.4070 H   0  0  0  0  0  0  0  0  0  0  0  0
   43.8520   33.7490   41.8800 C   0  0  0  0  0  3  0  0  0  0  0  0
   42.8220   32.9600   41.3610 C   0  0  0  0  0  3  0  0  0  0  0  0
   41.6820   33.6280   40.9750 C   0  0  0  0  0  0  0  0  0  0  0  0
   40.6860   32.8250   40.4670 C   0  0  0  0  0  3  0  0  0  0  0  0
  1  2  1  0  0  0  0
  2 16  1  0  0  0  0
  3  2  2  0  0  0  0
  3 11  1  0  0  0  0
  4  3  1  0  0  0  0
  5  4  2  0  0  0  0
  6  5  1  0  0  0  0
  6  1  2  0  0  0  0
  7  8  1  0  0  0  0
  7  5  1  0  0  0  0
  8 13  1  6  0  0  0
  8  9  1  0  0  0  0
  8 37  1  0  0  0  0
  9  4  1  0  0  0  0
 10  1  1  0  0  0  0
 12  6  1  0  0  0  0
 14 20  1  0  0  0  0
 15 14  1  0  0  0  0
 15 22  1  0  0  0  0
 16 15  2  0  0  0  0
 17 18  2  0  0  0  0
 17 16  1  0  0  0  0
 18 19  1  0  0  0  0
 19 14  2  0  0  0  0
 21 18  1  0  0  0  0
 22 23  1  0  0  0  0
 22 27  1  0  0  0  0
 23 29  1  0  0  0  0
 23 24  1  0  0  0  0
 24 31  1  0  0  0  0
 25 24  1  0  0  0  0
 26 25  1  0  0  0  0
 26 33  1  0  0  0  0
 27 26  1  0  0  0  0
 27 36  1  0  0  0  0
 28 23  1  0  0  0  0
 30 24  1  0  0  0  0
 32 25  1  0  0  0  0
 34 26  1  0  0  0  0
 35 27  1  0  0  0  0
 37 38  1  0  0  0  0
 38 39  2  0  0  0  0
 38 49  1  0  0  0  0
 39 41  1  0  0  0  0
 40 39  1  0  0  0  0
 41 42  2  0  0  0  0
 42 43  1  0  0  0  0
 43 44  2  0  0  0  0
 44 45  1  0  0  0  0
 46 44  1  0  0  0  0
 47 46  2  0  0  0  0
 48 42  1  0  0  0  0
 48 47  1  0  0  0  0
 49 48  2  0  0  0  0
M  END
>  <minimizedAffinity>
-6.88226318

$$$$

 OpenBabel03242523133D

 49 54  0  0  1  0  0  0  0  0999 V2000
   38.8370   28.8870   42.5450 C   0  0  0  0  0  0  0  0  0  0  0  0
   38.7010   28.0400   41.4250 C   0  0  0  0  0  0  0  0  0  0  0  0
   38.6630   28.7620   40.2560 C   0  0  0  0  0  0  0  0  0  0  0  0
   38.7410   30.1160   40.1450 C   0  0  0  0  0  0  0  0  0  0  0  0
   38.8700   30.8790   41.3010 C   0  0  0  0  0  0  0  0  0  0  0  0
   38.9200   30.2520   42.5180 C   0  0  0  0  0  0  0  0  0  0  0  0
   38.9140   32.1900   40.8600 O   0  0  0  0  0  0  0  0  0  0  0  0
   38.8620   32.2350   39.4440 C   0  0  2  0  0  0  0  0  0  0  0  0
   38.7110   30.8850   38.9990 O   0  0  0  0  0  0  0  0  0  0  0  0
   38.9120   28.6280   43.6230 H   0  0  0  0  0  0  0  0  0  0  0  0
   38.5620   28.1500   39.4140 H   0  0  0  0  0  0  0  0  0  0  0  0
   39.0220   30.9320   43.3200 H   0  0  0  0  0  0  0  0  0  0  0  0
   38.0090   32.8200   39.0790 H   0  0  0  0  0  0  0  0  0  0  0  0
   39.0110   24.4340   42.3910 C   0  0  0  0  0  0  0  0  0  0  0  0
   39.4730   25.7240   42.1280 C   0  0  0  0  0  0  0  0  0  0  0  0
   38.5820   26.6860   41.7560 C   0  0  0  0  0  0  0  0  0  0  0  0
   37.2660   26.3180   41.6580 N   0  0  0  0  0  0  0  0  0  0  0  0
   36.8240   25.0840   41.9090 C   0  0  0  0  0  0  0  0  0  0  0  0
   37.6830   24.1620   42.2690 N   0  0  0  0  0  0  0  0  0  0  0  0
   39.7120   23.6630   42.6900 H   0  0  0  0  0  0  0  0  0  0  0  0
   35.8010   24.7390   41.8490 H   0  0  0  0  0  0  0  0  0  0  0  0
   40.8420   25.9500   42.2460 N   0  0  0  0  0  0  0  0  0  0  0  0
   41.6050   25.4030   43.3210 C   0  0  0  0  0  0  0  0  0  0  0  0
   43.0900   25.5920   43.2060 C   0  0  0  0  0  0  0  0  0  0  0  0
   43.6100   25.4460   41.9140 N   0  0  0  0  0  0  0  0  0  0  0  0
   42.8860   26.0120   40.8860 C   0  0  0  0  0  0  0  0  0  0  0  0
   41.6370   26.7150   41.3700 C   0  0  0  0  0  0  0  0  0  0  0  0
   41.3870   24.3380   43.5490 H   0  0  0  0  0  0  0  0  0  0  0  0
   41.2890   25.9640   44.2430 H   0  0  0  0  0  0  0  0  0  0  0  0
   43.5670   24.8500   43.8770 H   0  0  0  0  0  0  0  0  0  0  0  0
   43.3880   26.5940   43.6270 H   0  0  0  0  0  0  0  0  0  0  0  0
   44.0270   24.4980   41.7850 H   0  0  0  0  0  0  0  0  0  0  0  0
   43.5030   26.8260   40.4030 H   0  0  0  0  0  0  0  0  0  0  0  0
   42.6800   25.2990   40.0810 H   0  0  0  0  0  0  0  0  0  0  0  0
   41.0510   26.9390   40.4300 H   0  0  0  0  0  0  0  0  0  0  0  0
   41.9060   27.6910   41.8390 H   0  0  0  0  0  0  0  0  0  0  0  0
   40.0940   32.7160   39.0060 O   0  0  0  0  0  0  0  0  0  0  0  0
   40.8970   33.4490   39.8510 C   0  0  0  0  0  0  0  0  0  0  0  0
   40.4010   34.7550   39.8730 C   0  0  0  0  0  0  0  0  0  0  0  0
   39.5370   35.1870   39.3410 H   0  0  0  0  0  0  0  0  0  0  0  0
   40.9930   35.7640   40.6420 C   0  0  0  0  0  3  0  0  0  0  0  0
   42.1050   35.4720   41.4060 C   0  0  0  0  0  0  0  0  0  0  0  0
   42.7330   36.3800   42.1720 N   0  0  0  0  0  0  0  0  0  0  0  0
   43.8260   36.0830   42.9220 C   0  0  0  0  0  0  0  0  0  0  0  0
   44.3320   36.8140   43.5370 H   0  0  0  0  0  0  0  0  0  0  0  0
   44.3050   34.7700   42.8830 C   0  0  0  0  0  3  0  0  0  0  0  0
   43.6900   33.7850   42.1050 C   0  0  0  0  0  3  0  0  0  0  0  0
   42.5900   34.1820   41.3810 C   0  0  0  0  0  0  0  0  0  0  0  0
   42.0060   33.1910   40.6240 C   0  0  0  0  0  3  0  0  0  0  0  0
  1 10  1  0  0  0  0
  2 16  1  0  0  0  0
  2  1  2  0  0  0  0
  3  2  1  0  0  0  0
  4  3  2  0  0  0  0
  4  5  1  0  0  0  0
  5  6  2  0  0  0  0
  6  1  1  0  0  0  0
  6 12  1  0  0  0  0
  7  5  1  0  0  0  0
  8 13  1  6  0  0  0
  8  7  1  0  0  0  0
  9  8  1  0  0  0  0
  9  4  1  0  0  0  0
 11  3  1  0  0  0  0
 14 20  1  0  0  0  0
 15 22  1  0  0  0  0
 15 14  2  0  0  0  0
 16 15  1  0  0  0  0
 17 16  2  0  0  0  0
 17 18  1  0  0  0  0
 18 19  2  0  0  0  0
 19 14  1  0  0  0  0
 21 18  1  0  0  0  0
 22 23  1  0  0  0  0
 23 28  1  0  0  0  0
 23 29  1  0  0  0  0
 24 23  1  0  0  0  0
 24 31  1  0  0  0  0
 24 30  1  0  0  0  0
 25 24  1  0  0  0  0
 26 27  1  0  0  0  0
 26 25  1  0  0  0  0
 27 36  1  0  0  0  0
 27 22  1  0  0  0  0
 32 25  1  0  0  0  0
 33 26  1  0  0  0  0
 34 26  1  0  0  0  0
 35 27  1  0  0  0  0
 37  8  1  0  0  0  0
 37 38  1  0  0  0  0
 38 39  2  0  0  0  0
 38 49  1  0  0  0  0
 39 41  1  0  0  0  0
 40 39  1  0  0  0  0
 41 42  2  0  0  0  0
 42 43  1  0  0  0  0
 43 44  2  0  0  0  0
 44 45  1  0  0  0  0
 46 44  1  0  0  0  0
 47 46  2  0  0  0  0
 48 42  1  0  0  0  0
 48 47  1  0  0  0  0
 49 48  2  0  0  0  0
M  END
>  <minimizedAffinity>
-6.79366064

$$$$

 OpenBabel03242523133D

 49 54  0  0  1  0  0  0  0  0999 V2000
   36.5150   27.0900   39.5040 C   0  0  0  0  0  0  0  0  0  0  0  0
   36.4740   28.4490   39.8820 C   0  0  0  0  0  0  0  0  0  0  0  0
   35.7430   29.1940   38.9880 C   0  0  0  0  0  0  0  0  0  0  0  0
   35.1250   28.7260   37.8700 C   0  0  0  0  0  0  0  0  0  0  0  0
   35.2180   27.3710   37.5660 C   0  0  0  0  0  0  0  0  0  0  0  0
   35.9240   26.5440   38.3990 C   0  0  0  0  0  0  0  0  0  0  0  0
   34.5050   27.2190   36.3910 O   0  0  0  0  0  0  0  0  0  0  0  0
   33.9360   28.4560   35.9970 C   0  0  2  0  0  0  0  0  0  0  0  0
   34.3790   29.4300   36.9440 O   0  0  0  0  0  0  0  0  0  0  0  0
   37.0050   26.2300   40.0090 H   0  0  0  0  0  0  0  0  0  0  0  0
   35.7010   30.2050   39.2520 H   0  0  0  0  0  0  0  0  0  0  0  0
   35.9220   25.5410   38.0690 H   0  0  0  0  0  0  0  0  0  0  0  0
   34.2680   28.7660   34.9980 H   0  0  0  0  0  0  0  0  0  0  0  0
   38.6640   29.7240   42.6420 C   0  0  0  0  0  0  0  0  0  0  0  0
   38.0650   29.7430   41.3810 C   0  0  0  0  0  0  0  0  0  0  0  0
   37.2190   28.7350   41.0320 C   0  0  0  0  0  0  0  0  0  0  0  0
   37.0070   27.7450   41.9550 N   0  0  0  0  0  0  0  0  0  0  0  0
   37.5800   27.7260   43.1610 C   0  0  0  0  0  0  0  0  0  0  0  0
   38.3920   28.7000   43.4950 N   0  0  0  0  0  0  0  0  0  0  0  0
   39.3360   30.5240   42.9290 H   0  0  0  0  0  0  0  0  0  0  0  0
   37.4500   26.9740   43.9270 H   0  0  0  0  0  0  0  0  0  0  0  0
   38.3890   30.8010   40.5350 N   0  0  0  0  0  0  0  0  0  0  0  0
   39.4490   30.7080   39.5850 C   0  0  0  0  0  0  0  0  0  0  0  0
   39.5550   31.8650   38.6350 C   0  0  0  0  0  0  0  0  0  0  0  0
   38.3320   32.3740   38.1800 N   0  0  0  0  0  0  0  0  0  0  0  0
   37.3260   32.4990   39.1130 C   0  0  0  0  0  0  0  0  0  0  0  0
   37.7550   32.0590   40.4970 C   0  0  0  0  0  0  0  0  0  0  0  0
   39.4740   29.7570   39.0110 H   0  0  0  0  0  0  0  0  0  0  0  0
   40.4020   30.7050   40.1830 H   0  0  0  0  0  0  0  0  0  0  0  0
   40.1530   31.5210   37.7670 H   0  0  0  0  0  0  0  0  0  0  0  0
   40.1660   32.6920   39.0960 H   0  0  0  0  0  0  0  0  0  0  0  0
   38.1060   32.0070   37.2300 H   0  0  0  0  0  0  0  0  0  0  0  0
   37.0620   33.5910   39.2310 H   0  0  0  0  0  0  0  0  0  0  0  0
   36.3970   32.0170   38.7910 H   0  0  0  0  0  0  0  0  0  0  0  0
   36.7970   32.0150   41.0940 H   0  0  0  0  0  0  0  0  0  0  0  0
   38.4060   32.8390   40.9600 H   0  0  0  0  0  0  0  0  0  0  0  0
   32.5530   28.3220   36.1050 O   0  0  0  0  0  0  0  0  0  0  0  0
   31.7190   29.3290   35.6710 C   0  0  0  0  0  0  0  0  0  0  0  0
   31.1950   29.9560   36.8040 C   0  0  0  0  0  0  0  0  0  0  0  0
   31.3700   29.7400   37.8710 H   0  0  0  0  0  0  0  0  0  0  0  0
   30.3020   31.0310   36.7150 C   0  0  0  0  0  3  0  0  0  0  0  0
   29.9200   31.4950   35.4720 C   0  0  0  0  0  0  0  0  0  0  0  0
   29.0700   32.5210   35.2970 N   0  0  0  0  0  0  0  0  0  0  0  0
   28.6990   32.9720   34.0700 C   0  0  0  0  0  0  0  0  0  0  0  0
   28.0150   33.7960   33.9300 H   0  0  0  0  0  0  0  0  0  0  0  0
   29.2370   32.3280   32.9520 C   0  0  0  0  0  3  0  0  0  0  0  0
   30.1260   31.2570   33.0750 C   0  0  0  0  0  3  0  0  0  0  0  0
   30.4400   30.8730   34.3580 C   0  0  0  0  0  0  0  0  0  0  0  0
   31.3180   29.8160   34.4480 C   0  0  0  0  0  3  0  0  0  0  0  0
  1  2  1  0  0  0  0
  1 10  1  0  0  0  0
  2 16  1  0  0  0  0
  3 11  1  0  0  0  0
  3  2  2  0  0  0  0
  4  3  1  0  0  0  0
  5  4  2  0  0  0  0
  5  6  1  0  0  0  0
  6  1  2  0  0  0  0
  7  5  1  0  0  0  0
  8 13  1  6  0  0  0
  8 37  1  0  0  0  0
  8  7  1  0  0  0  0
  8  9  1  0  0  0  0
  9  4  1  0  0  0  0
 12  6  1  0  0  0  0
 14 20  1  0  0  0  0
 14 19  1  0  0  0  0
 15 14  2  0  0  0  0
 16 15  1  0  0  0  0
 16 17  2  0  0  0  0
 17 18  1  0  0  0  0
 18 19  2  0  0  0  0
 18 21  1  0  0  0  0
 22 15  1  0  0  0  0
 23 29  1  0  0  0  0
 23 22  1  0  0  0  0
 24 31  1  0  0  0  0
 24 23  1  0  0  0  0
 25 24  1  0  0  0  0
 25 26  1  0  0  0  0
 26 33  1  0  0  0  0
 26 27  1  0  0  0  0
 27 22  1  0  0  0  0
 27 36  1  0  0  0  0
 27 35  1  0  0  0  0
 28 23  1  0  0  0  0
 30 24  1  0  0  0  0
 32 25  1  0  0  0  0
 34 26  1  0  0  0  0
 38 37  1  0  0  0  0
 38 39  1  0  0  0  0
 39 40  1  0  0  0  0
 41 39  2  0  0  0  0
 42 41  1  0  0  0  0
 43 42  1  0  0  0  0
 44 43  2  0  0  0  0
 45 44  1  0  0  0  0
 46 47  2  0  0  0  0
 46 44  1  0  0  0  0
 47 48  1  0  0  0  0
 48 49  1  0  0  0  0
 48 42  2  0  0  0  0
 49 38  2  0  0  0  0
M  END
>  <minimizedAffinity>
-6.78354216

$$$$

 OpenBabel03242523133D

 49 54  0  0  1  0  0  0  0  0999 V2000
   41.3720   32.5810   38.1170 C   0  0  0  0  0  0  0  0  0  0  0  0
   41.9460   31.2930   38.1700 C   0  0  0  0  0  0  0  0  0  0  0  0
   41.3490   30.5190   39.1350 C   0  0  0  0  0  0  0  0  0  0  0  0
   40.3350   30.9020   39.9580 C   0  0  0  0  0  0  0  0  0  0  0  0
   39.8280   32.1930   39.8440 C   0  0  0  0  0  0  0  0  0  0  0  0
   40.3560   33.0420   38.9080 C   0  0  0  0  0  0  0  0  0  0  0  0
   38.8340   32.2720   40.8040 O   0  0  0  0  0  0  0  0  0  0  0  0
   38.6950   31.0290   41.4720 C   0  0  2  0  0  0  0  0  0  0  0  0
   39.7010   30.1650   40.9390 O   0  0  0  0  0  0  0  0  0  0  0  0
   41.6110   33.4350   37.4490 H   0  0  0  0  0  0  0  0  0  0  0  0
   41.7620   29.5600   39.1890 H   0  0  0  0  0  0  0  0  0  0  0  0
   39.8900   33.9900   38.9130 H   0  0  0  0  0  0  0  0  0  0  0  0
   38.8520   31.1200   42.5540 H   0  0  0  0  0  0  0  0  0  0  0  0
   45.1160   31.2060   36.1750 C   0  0  0  0  0  0  0  0  0  0  0  0
   44.2910   31.5830   37.2360 C   0  0  0  0  0  0  0  0  0  0  0  0
   43.0110   31.1170   37.2800 C   0  0  0  0  0  0  0  0  0  0  0  0
   42.6080   30.2950   36.2600 N   0  0  0  0  0  0  0  0  0  0  0  0
   43.3970   29.9350   35.2450 C   0  0  0  0  0  0  0  0  0  0  0  0
   44.6280   30.3840   35.2080 N   0  0  0  0  0  0  0  0  0  0  0  0
   46.1360   31.5710   36.1330 H   0  0  0  0  0  0  0  0  0  0  0  0
   43.1330   29.2920   34.4180 H   0  0  0  0  0  0  0  0  0  0  0  0
   44.8280   32.4420   38.1910 N   0  0  0  0  0  0  0  0  0  0  0  0
   45.4250   33.6870   37.8320 C   0  0  0  0  0  0  0  0  0  0  0  0
   45.7960   34.5700   38.9880 C   0  0  0  0  0  0  0  0  0  0  0  0
   44.8780   34.5830   40.0450 N   0  0  0  0  0  0  0  0  0  0  0  0
   44.3350   33.3700   40.4110 C   0  0  0  0  0  0  0  0  0  0  0  0
   44.8650   32.2200   39.5820 C   0  0  0  0  0  0  0  0  0  0  0  0
   44.8520   34.2790   37.0870 H   0  0  0  0  0  0  0  0  0  0  0  0
   46.3890   33.4310   37.3130 H   0  0  0  0  0  0  0  0  0  0  0  0
   45.9090   35.5990   38.5900 H   0  0  0  0  0  0  0  0  0  0  0  0
   46.8190   34.2970   39.3730 H   0  0  0  0  0  0  0  0  0  0  0  0
   44.2610   35.4240   39.9930 H   0  0  0  0  0  0  0  0  0  0  0  0
   44.6500   33.1270   41.4680 H   0  0  0  0  0  0  0  0  0  0  0  0
   43.2410   33.3950   40.4410 H   0  0  0  0  0  0  0  0  0  0  0  0
   44.1960   31.3480   39.8410 H   0  0  0  0  0  0  0  0  0  0  0  0
   45.9000   31.9590   39.9080 H   0  0  0  0  0  0  0  0  0  0  0  0
   37.4420   30.5220   41.1330 O   0  0  0  0  0  0  0  0  0  0  0  0
   37.2490   29.1630   41.0170 C   0  0  0  0  0  0  0  0  0  0  0  0
   36.9080   28.9010   39.6880 C   0  0  0  0  0  0  0  0  0  0  0  0
   36.7970   29.5970   38.8400 H   0  0  0  0  0  0  0  0  0  0  0  0
   36.6420   27.6050   39.2290 C   0  0  0  0  0  3  0  0  0  0  0  0
   36.7150   26.5440   40.1090 C   0  0  0  0  0  0  0  0  0  0  0  0
   36.4760   25.2710   39.7530 N   0  0  0  0  0  0  0  0  0  0  0  0
   36.5500   24.2330   40.6250 C   0  0  0  0  0  0  0  0  0  0  0  0
   36.3570   23.2090   40.3380 H   0  0  0  0  0  0  0  0  0  0  0  0
   36.8920   24.5210   41.9500 C   0  0  0  0  0  3  0  0  0  0  0  0
   37.1520   25.8260   42.3760 C   0  0  0  0  0  3  0  0  0  0  0  0
   37.0520   26.8090   41.4190 C   0  0  0  0  0  0  0  0  0  0  0  0
   37.3120   28.0840   41.8690 C   0  0  0  0  0  3  0  0  0  0  0  0
  1  2  2  0  0  0  0
  1  6  1  0  0  0  0
  2  3  1  0  0  0  0
  3 11  1  0  0  0  0
  3  4  2  0  0  0  0
  4  9  1  0  0  0  0
  5  4  1  0  0  0  0
  5  7  1  0  0  0  0
  6 12  1  0  0  0  0
  6  5  2  0  0  0  0
  7  8  1  0  0  0  0
  8 13  1  1  0  0  0
  9  8  1  0  0  0  0
 10  1  1  0  0  0  0
 14 15  1  0  0  0  0
 15 16  2  0  0  0  0
 15 22  1  0  0  0  0
 16  2  1  0  0  0  0
 17 16  1  0  0  0  0
 18 17  2  0  0  0  0
 19 18  1  0  0  0  0
 19 14  2  0  0  0  0
 20 14  1  0  0  0  0
 21 18  1  0  0  0  0
 22 27  1  0  0  0  0
 23 22  1  0  0  0  0
 23 24  1  0  0  0  0
 24 31  1  0  0  0  0
 24 25  1  0  0  0  0
 25 26  1  0  0  0  0
 26 34  1  0  0  0  0
 26 33  1  0  0  0  0
 27 35  1  0  0  0  0
 27 36  1  0  0  0  0
 27 26  1  0  0  0  0
 28 23  1  0  0  0  0
 29 23  1  0  0  0  0
 30 24  1  0  0  0  0
 32 25  1  0  0  0  0
 37  8  1  0  0  0  0
 38 37  1  0  0  0  0
 38 49  1  0  0  0  0
 39 38  2  0  0  0  0
 40 39  1  0  0  0  0
 41 39  1  0  0  0  0
 41 42  2  0  0  0  0
 42 48  1  0  0  0  0
 43 42  1  0  0  0  0
 43 44  2  0  0  0  0
 44 46  1  0  0  0  0
 45 44  1  0  0  0  0
 46 47  2  0  0  0  0
 48 49  2  0  0  0  0
 48 47  1  0  0  0  0
M  END
>  <minimizedAffinity>
-6.74597836

$$$$
