
 OpenBabel03252509273D

 33 36  0  0  1  0  0  0  0  0999 V2000
   49.3150   32.2680   40.8880 C   0  0  1  0  0  0  0  0  0  0  0  0
   48.9670   32.6140   39.4100 C   0  0  0  0  0  0  0  0  0  0  0  0
   48.1950   31.6240   40.3420 C   0  0  2  0  0  0  0  0  0  0  0  0
   49.2520   33.1390   41.5710 H   0  0  0  0  0  0  0  0  0  0  0  0
   49.5360   32.1320   38.6110 H   0  0  0  0  0  0  0  0  0  0  0  0
   48.5230   33.5980   39.2820 H   0  0  0  0  0  0  0  0  0  0  0  0
   48.2750   30.5430   40.0360 H   0  0  0  0  0  0  0  0  0  0  0  0
   52.1670   30.0860   41.9720 C   0  0  0  0  0  0  0  0  0  0  0  0
   50.9020   30.7730   42.0390 C   0  0  0  0  0  0  0  0  0  0  0  0
   50.6440   31.5510   40.9600 C   0  0  0  0  0  0  0  0  0  0  0  0
   51.5100   31.6750   39.8980 N   0  0  0  0  0  0  0  0  0  0  0  0
   52.6880   31.0080   39.8840 C   0  0  0  0  0  0  0  0  0  0  0  0
   53.0140   30.2110   40.9270 N   0  0  0  0  0  0  0  0  0  0  0  0
   52.4300   29.4520   42.7990 H   0  0  0  0  0  0  0  0  0  0  0  0
   53.2340   31.2230   38.9830 H   0  0  0  0  0  0  0  0  0  0  0  0
   50.0330   30.6590   43.1320 N   0  0  0  0  0  0  0  0  0  0  0  0
   50.3670   31.5210   43.6370 H   0  0  0  0  0  0  0  0  0  0  0  0
   49.3210   29.9050   43.2820 H   0  0  0  0  0  0  0  0  0  0  0  0
   46.7840   31.9770   40.7420 C   0  0  0  0  0  0  0  0  0  0  0  0
   46.0370   31.4060   40.1410 H   0  0  0  0  0  0  0  0  0  0  0  0
   46.6130   33.0670   40.6030 H   0  0  0  0  0  0  0  0  0  0  0  0
   46.5650   31.7170   42.2090 C   0  0  0  0  0  0  0  0  0  0  0  0
   46.5020   30.4180   42.7010 C   0  0  0  0  0  0  0  0  0  0  0  0
   46.6100   29.5650   42.0400 H   0  0  0  0  0  0  0  0  0  0  0  0
   46.3030   30.1230   44.0340 C   0  0  0  0  0  3  0  0  0  0  0  0
   46.1560   31.1750   44.9340 C   0  0  0  0  0  0  0  0  0  0  0  0
   45.9590   30.9230   46.2430 N   0  0  0  0  0  0  0  0  0  0  0  0
   45.8100   31.8950   47.1620 C   0  0  0  0  0  0  0  0  0  0  0  0
   45.6510   31.7040   48.2160 H   0  0  0  0  0  0  0  0  0  0  0  0
   45.8660   33.2060   46.7120 C   0  0  0  0  0  3  0  0  0  0  0  0
   46.0660   33.5150   45.3810 C   0  0  0  0  0  3  0  0  0  0  0  0
   46.2130   32.4790   44.4750 C   0  0  0  0  0  0  0  0  0  0  0  0
   46.4150   32.7480   43.1290 C   0  0  0  0  0  3  0  0  0  0  0  0
  1 10  1  0  0  0  0
  1  4  1  1  0  0  0
  2  3  1  0  0  0  0
  2  1  1  0  0  0  0
  3  7  1  6  0  0  0
  3 19  1  0  0  0  0
  3  1  1  0  0  0  0
  5  2  1  0  0  0  0
  6  2  1  0  0  0  0
  8  9  1  0  0  0  0
  8 14  1  0  0  0  0
  9 16  1  0  0  0  0
 10  9  2  0  0  0  0
 11 10  1  0  0  0  0
 12 11  2  0  0  0  0
 12 13  1  0  0  0  0
 13  8  2  0  0  0  0
 15 12  1  0  0  0  0
 16 18  1  0  0  0  0
 16 17  1  0  0  0  0
 19 22  1  0  0  0  0
 20 19  1  0  0  0  0
 21 19  1  0  0  0  0
 22 23  2  0  0  0  0
 22 33  1  0  0  0  0
 23 25  1  0  0  0  0
 24 23  1  0  0  0  0
 25 26  2  0  0  0  0
 26 27  1  0  0  0  0
 27 28  2  0  0  0  0
 28 29  1  0  0  0  0
 30 28  1  0  0  0  0
 31 30  2  0  0  0  0
 32 26  1  0  0  0  0
 32 31  1  0  0  0  0
 33 32  2  0  0  0  0
M  END
>  <minimizedAffinity>
-3.31185603

>  <minimizedRMSD>
8.09995079

$$$$
