
 OpenBabel03252508183D

 50 55  0  0  1  0  0  0  0  0999 V2000
   45.7240   32.0050   48.0580 C   0  0  1  0  0  0  0  0  0  0  0  0
   45.2320   31.4910   49.3670 C   0  0  0  0  0  0  0  0  0  0  0  0
   46.6630   31.6740   49.1470 C   0  0  1  0  0  0  0  0  0  0  0  0
   45.3080   33.0430   47.8940 H   0  0  0  0  0  0  0  0  0  0  0  0
   44.7250   32.1390   50.1100 H   0  0  0  0  0  0  0  0  0  0  0  0
   44.8640   30.4360   49.4130 H   0  0  0  0  0  0  0  0  0  0  0  0
   47.1350   32.5390   49.6570 H   0  0  0  0  0  0  0  0  0  0  0  0
   47.5890   30.5140   48.9470 C   0  0  2  0  0  0  0  0  0  0  0  0
   48.9430   30.6870   49.6810 C   0  0  0  0  0  0  0  0  0  0  0  0
   48.8990   30.7760   48.2120 C   0  0  1  0  0  0  0  0  0  0  0  0
   47.2530   29.4740   49.0320 H   0  0  0  0  0  0  0  0  0  0  0  0
   49.1330   31.6410   50.2070 H   0  0  0  0  0  0  0  0  0  0  0  0
   49.4320   29.8360   50.1420 H   0  0  0  0  0  0  0  0  0  0  0  0
   49.0110   31.7670   47.7270 H   0  0  0  0  0  0  0  0  0  0  0  0
   49.5130   29.6660   47.4570 C   0  0  0  0  0  0  0  0  0  0  0  0
   50.7170   29.1390   47.9390 C   0  0  0  0  0  0  0  0  0  0  0  0
   51.2160   29.5060   48.8360 H   0  0  0  0  0  0  0  0  0  0  0  0
   51.3450   28.0900   47.2700 C   0  0  0  0  0  3  0  0  0  0  0  0
   50.7970   27.5450   46.1190 C   0  0  0  0  0  0  0  0  0  0  0  0
   51.4120   26.5400   45.4890 N   0  0  0  0  0  0  0  0  0  0  0  0
   50.9320   25.9710   44.3710 C   0  0  0  0  0  0  0  0  0  0  0  0
   51.4590   25.1600   43.8930 H   0  0  0  0  0  0  0  0  0  0  0  0
   49.7400   26.4820   43.8810 C   0  0  0  0  0  3  0  0  0  0  0  0
   49.0640   27.5340   44.5090 C   0  0  0  0  0  3  0  0  0  0  0  0
   49.6010   28.0930   45.6670 C   0  0  0  0  0  0  0  0  0  0  0  0
   48.9530   29.1360   46.3130 C   0  0  0  0  0  3  0  0  0  0  0  0
   45.5500   31.0820   46.9070 C   0  0  0  0  0  0  0  0  0  0  0  0
   44.4370   31.0010   46.7300 H   0  0  0  0  0  0  0  0  0  0  0  0
   45.9270   30.0790   46.9860 H   0  0  0  0  0  0  0  0  0  0  0  0
   46.0230   32.9710   45.5860 C   0  0  0  0  0  3  0  0  0  0  0  0
   46.0590   31.7050   45.6300 C   0  0  0  0  0  3  0  0  0  0  0  0
   46.2800   35.3020   42.7410 C   0  0  0  0  0  0  0  0  0  0  0  0
   47.3510   34.7930   42.0170 C   0  0  0  0  0  0  0  0  0  0  0  0
   47.9440   33.6790   42.5210 C   0  0  0  0  0  0  0  0  0  0  0  0
   47.4850   33.1210   43.6750 N   0  0  0  0  0  0  0  0  0  0  0  0
   46.4460   33.6390   44.3530 C   0  0  0  0  0  0  0  0  0  0  0  0
   45.8680   34.7210   43.8640 N   0  0  0  0  0  0  0  0  0  0  0  0
   45.7660   36.1930   42.3840 H   0  0  0  0  0  0  0  0  0  0  0  0
   47.6950   35.2560   41.1020 H   0  0  0  0  0  0  0  0  0  0  0  0
   49.0770   33.0320   41.8710 C   0  0  0  0  0  0  0  0  0  0  0  0
   50.3590   33.0460   42.3370 C   0  0  0  0  0  0  0  0  0  0  0  0
   51.4210   32.4270   41.7080 C   0  0  0  0  0  0  0  0  0  0  0  0
   51.2110   31.7410   40.5290 C   0  0  0  0  0  0  0  0  0  0  0  0
   49.9460   31.6910   40.0110 C   0  0  0  0  0  0  0  0  0  0  0  0
   48.9200   32.3300   40.6850 C   0  0  0  0  0  0  0  0  0  0  0  0
   50.5650   33.5810   43.2700 H   0  0  0  0  0  0  0  0  0  0  0  0
   52.4240   32.4460   42.0870 H   0  0  0  0  0  0  0  0  0  0  0  0
   51.9710   31.2190   39.9530 H   0  0  0  0  0  0  0  0  0  0  0  0
   49.7250   31.1680   39.0920 H   0  0  0  0  0  0  0  0  0  0  0  0
   47.9230   32.2660   40.2370 H   0  0  0  0  0  0  0  0  0  0  0  0
  1  4  1  6  0  0  0
  1  3  1  0  0  0  0
  1  2  1  0  0  0  0
  2  6  1  0  0  0  0
  2  5  1  0  0  0  0
  3  2  1  0  0  0  0
  3  7  1  1  0  0  0
  8 11  1  6  0  0  0
  8  3  1  0  0  0  0
  8  9  1  0  0  0  0
  9 13  1  0  0  0  0
  9 12  1  0  0  0  0
 10 14  1  6  0  0  0
 10  8  1  0  0  0  0
 10  9  1  0  0  0  0
 15 16  1  0  0  0  0
 15 10  1  0  0  0  0
 16 17  1  0  0  0  0
 18 16  2  0  0  0  0
 19 18  1  0  0  0  0
 20 19  2  0  0  0  0
 21 20  1  0  0  0  0
 22 21  1  0  0  0  0
 23 21  2  0  0  0  0
 23 24  1  0  0  0  0
 24 25  2  0  0  0  0
 25 19  1  0  0  0  0
 25 26  1  0  0  0  0
 26 15  2  0  0  0  0
 27 29  1  0  0  0  0
 27  1  1  0  0  0  0
 28 27  1  0  0  0  0
 30 31  2  0  0  0  0
 31 27  1  0  0  0  0
 32 37  1  0  0  0  0
 33 34  1  0  0  0  0
 33 32  2  0  0  0  0
 34 35  2  0  0  0  0
 35 36  1  0  0  0  0
 36 30  1  0  0  0  0
 37 36  2  0  0  0  0
 38 32  1  0  0  0  0
 39 33  1  0  0  0  0
 40 41  1  0  0  0  0
 40 34  1  0  0  0  0
 41 46  1  0  0  0  0
 42 47  1  0  0  0  0
 42 41  2  0  0  0  0
 43 42  1  0  0  0  0
 44 43  2  0  0  0  0
 44 45  1  0  0  0  0
 45 40  2  0  0  0  0
 48 43  1  0  0  0  0
 49 44  1  0  0  0  0
 50 45  1  0  0  0  0
M  END
>  <minimizedAffinity>
-5.4289813

>  <minimizedRMSD>
3.05644679

$$$$
