
     RDKit          3D

 43 46  0  0  0  0  0  0  0  0999 V2000
   45.1388   33.5038   41.1582 F   0  0  0  0  0  0  0  0  0  0  0  0
   46.3314   34.0859   41.0483 C   0  0  0  0  0  0  0  0  0  0  0  0
   46.8316   34.7992   42.1123 C   0  0  0  0  0  0  0  0  0  0  0  0
   48.0733   35.4391   42.0840 C   0  0  0  0  0  0  0  0  0  0  0  0
   48.8538   35.3596   40.9304 C   0  0  0  0  0  0  0  0  0  0  0  0
   48.3159   34.6335   39.8838 C   0  0  0  0  0  0  0  0  0  0  0  0
   47.1102   34.0072   39.8976 C   0  0  0  0  0  0  0  0  0  0  0  0
   45.4518   34.0184   45.4250 C   0  0  0  0  0  0  0  0  0  0  0  0
   44.6088   35.1284   45.6556 C   0  0  0  0  0  0  0  0  0  0  0  0
   44.5167   36.1462   44.6675 C   0  0  0  0  0  0  0  0  0  0  0  0
   45.2684   35.9725   43.5398 N   0  0  0  0  0  0  0  0  0  0  0  0
   46.0534   34.9119   43.3557 C   0  0  0  0  0  0  0  0  0  0  0  0
   46.1414   33.9481   44.2898 N   0  0  0  0  0  0  0  0  0  0  0  0
   45.5306   33.0152   46.4202 N   0  0  0  0  0  0  0  0  0  0  0  0
   46.6733   33.3154   38.8022 O   0  0  0  0  0  0  0  0  0  0  0  0
   48.0866   34.6574   36.9997 O   0  0  0  0  0  0  0  0  0  0  0  0
   47.3230   33.3757   37.2489 P   0  0  2  0  0  0  0  0  0  0  0  0
   46.0598   33.2072   36.1247 O   0  0  0  0  0  0  0  0  0  0  0  0
   48.3721   32.0774   36.9343 O   0  0  0  0  0  0  0  0  0  0  0  0
   48.3972   35.9830   42.9656 H   0  0  0  0  0  0  0  0  0  0  0  0
   49.8046   35.8674   40.9510 H   0  0  0  0  0  0  0  0  0  0  0  0
   49.0219   34.6437   39.0589 H   0  0  0  0  0  0  0  0  0  0  0  0
   44.0235   35.2467   46.5528 H   0  0  0  0  0  0  0  0  0  0  0  0
   43.8851   37.0029   44.8119 H   0  0  0  0  0  0  0  0  0  0  0  0
   45.5621   33.3562   47.4069 H   0  0  0  0  0  0  0  0  0  0  0  0
   45.5626   31.9753   46.3244 H   0  0  0  0  0  0  0  0  0  0  0  0
   46.2683   32.6369   35.3693 H   0  0  0  0  0  0  0  0  0  0  0  0
   47.9500   30.8899   36.3186 C   0  0  0  0  0  0  0  0  0  0  0  0
   46.7240   30.7881   35.6764 C   0  0  0  0  0  0  0  0  0  0  0  0
   46.0915   31.6474   35.6573 H   0  0  0  0  0  0  0  0  0  0  0  0
   46.3921   29.5720   35.0956 C   0  0  0  0  0  0  0  0  0  0  0  0
   47.2709   28.5102   35.1675 C   0  0  0  0  0  0  0  0  0  0  0  0
   46.9989   27.3038   34.6198 N   0  0  0  0  0  0  0  0  0  0  0  0
   47.8869   26.2771   34.7082 C   0  0  0  0  0  0  0  0  0  0  0  0
   47.6532   25.3091   34.2610 H   0  0  0  0  0  0  0  0  0  0  0  0
   49.1081   26.3688   35.3446 C   0  0  0  0  0  0  0  0  0  0  0  0
   49.4243   27.6029   35.9238 C   0  0  0  0  0  0  0  0  0  0  0  0
   48.4895   28.6105   35.8055 C   0  0  0  0  0  0  0  0  0  0  0  0
   48.8514   29.8227   36.3999 C   0  0  0  0  0  0  0  0  0  0  0  0
   45.4424   29.4620   34.5874 H   0  0  0  0  0  0  0  0  0  0  0  0
   49.7902   25.5310   35.3957 H   0  0  0  0  0  0  0  0  0  0  0  0
   50.3633   27.7495   36.4392 H   0  0  0  0  0  0  0  0  0  0  0  0
   49.8082   29.9461   36.9162 H   0  0  0  0  0  0  0  0  0  0  0  0
  2  1  1  0
  2  3  2  0
  3 12  1  0
  4  3  1  0
  5  4  2  0
  6  7  2  0
  6  5  1  0
  7  2  1  0
  8  9  2  0
  8 14  1  0
 10  9  1  0
 11 10  2  0
 12 11  1  0
 12 13  2  0
 13  8  1  0
 15  7  1  0
 16 17  2  0
 17 15  1  1
 18 17  1  0
 19 17  1  0
  4 20  1  0
  5 21  1  0
  6 22  1  0
  9 23  1  0
 10 24  1  0
 14 25  1  0
 14 26  1  0
 18 27  1  0
 28 29  2  0
 29 30  1  0
 29 31  1  0
 31 32  2  0
 32 33  1  0
 33 34  2  0
 34 35  1  0
 34 36  1  0
 36 37  2  0
 37 38  1  0
 38 39  2  0
 39 28  1  0
 38 32  1  0
 31 40  1  0
 36 41  1  0
 37 42  1  0
 39 43  1  0
 19 28  1  0
M  ISO  8  20  14  21  14  22  14  23  14  24  14  27   3  30  16  35  16
M  END
>  <DihAtoms>  (1) 
16,18,27,28

>  <DihDeg>  (1) 
133.5360531085322

$$$$
