REMARK  Name = 
REMARK  6 active torsions:
REMARK  status: ('A' for Active; 'I' for Inactive)
REMARK    1  A    between atoms: C_1  and  C_7
REMARK    2  A    between atoms: C_2  and  C_15
REMARK    3  A    between atoms: C_5  and  C_9
REMARK    4  A    between atoms: C_15  and  C_16
REMARK    5  A    between atoms: C_18  and  C_19
REMARK    6  A    between atoms: C_21  and  C_41
REMARK                            x       y       z     vdW  Elec       q    Type
REMARK                         _______ _______ _______ _____ _____    ______ ____
ROOT
ATOM      1  C   UNL     1      45.897  31.503  48.259  0.00  0.00    +0.000 C 
ATOM      2  C   UNL     1      45.712  30.527  49.370  0.00  0.00    +0.000 C 
ATOM      3  C   UNL     1      46.928  31.332  49.301  0.00  0.00    +0.000 C 
ATOM      4  H   UNL     1      45.080  32.282  48.319  0.00  0.00    +0.000 HD
ATOM      5  H   UNL     1      45.009  30.703  50.208  0.00  0.00    +0.000 HD
ATOM      6  H   UNL     1      45.820  29.439  49.137  0.00  0.00    +0.000 HD
ATOM      7  H   UNL     1      47.015  32.160  50.035  0.00  0.00    +0.000 HD
ENDROOT
BRANCH   3   8
ATOM      8  C   UNL     1      48.245  30.746  48.896  0.00  0.00    +0.000 C 
ATOM      9  C   UNL     1      49.178  30.463  50.101  0.00  0.00    +0.000 C 
ATOM     10  C   UNL     1      49.499  31.566  49.181  0.00  0.00    +0.000 C 
ATOM     11  H   UNL     1      48.325  29.931  48.167  0.00  0.00    +0.000 HD
ATOM     12  H   UNL     1      48.838  30.770  51.107  0.00  0.00    +0.000 HD
ATOM     13  H   UNL     1      49.813  29.584  50.111  0.00  0.00    +0.000 HD
ATOM     14  H   UNL     1      49.347  32.612  49.516  0.00  0.00    +0.000 HD
BRANCH  10  15
ATOM     15  C   UNL     1      50.670  31.382  48.301  0.00  0.00    +0.000 A 
ATOM     16  C   UNL     1      51.867  32.007  48.672  0.00  0.00    +0.000 A 
ATOM     17  H   UNL     1      51.971  32.615  49.571  0.00  0.00    +0.000 HD
ATOM     18  C   UNL     1      53.007  31.872  47.883  0.00  0.00    +0.000 A 
ATOM     19  C   UNL     1      52.986  31.121  46.718  0.00  0.00    +0.000 A 
ATOM     20  N   UNL     1      54.088  31.001  45.972  0.00  0.00    +0.000 NA
ATOM     21  C   UNL     1      54.131  30.288  44.835  0.00  0.00    +0.000 A 
ATOM     22  H   UNL     1      55.042  30.215  44.261  0.00  0.00    +0.000 HD
ATOM     23  C   UNL     1      52.953  29.662  44.453  0.00  0.00    +0.000 A 
ATOM     24  C   UNL     1      51.778  29.762  45.205  0.00  0.00    +0.000 A 
ATOM     25  C   UNL     1      51.782  30.514  46.379  0.00  0.00    +0.000 A 
ATOM     26  C   UNL     1      50.631  30.630  47.145  0.00  0.00    +0.000 A 
ENDBRANCH  10  15
ENDBRANCH   3   8
BRANCH   1  27
ATOM     27  C   UNL     1      46.082  30.905  46.912  0.00  0.00    +0.000 C 
ATOM     28  H   UNL     1      45.201  30.216  46.747  0.00  0.00    +0.000 HD
ATOM     29  H   UNL     1      46.968  30.330  46.718  0.00  0.00    +0.000 HD
BRANCH  27  31
ATOM     30  C   UNL     1      45.759  33.135  46.233  0.00  0.00    +0.000 C 
ATOM     31  C   UNL     1      45.915  31.944  45.830  0.00  0.00    +0.000 C 
BRANCH  30  36
ATOM     32  C   UNL     1      44.528  36.139  44.486  0.00  0.00    +0.000 A 
ATOM     33  C   UNL     1      45.203  36.092  43.272  0.00  0.00    +0.000 A 
ATOM     34  C   UNL     1      46.049  35.044  43.093  0.00  0.00    +0.000 A 
ATOM     35  N   UNL     1      46.200  34.110  44.073  0.00  0.00    +0.000 NA
ATOM     36  C   UNL     1      45.532  34.185  45.237  0.00  0.00    +0.000 A 
ATOM     37  N   UNL     1      44.709  35.203  45.412  0.00  0.00    +0.000 NA
ATOM     38  H   UNL     1      43.837  36.956  44.684  0.00  0.00    +0.000 HD
ATOM     39  H   UNL     1      45.064  36.848  42.510  0.00  0.00    +0.000 HD
BRANCH  34  40
ATOM     40  C   UNL     1      46.824  34.862  41.872  0.00  0.00    +0.000 A 
ATOM     41  C   UNL     1      48.049  35.412  41.633  0.00  0.00    +0.000 A 
ATOM     42  C   UNL     1      48.770  35.229  40.470  0.00  0.00    +0.000 A 
ATOM     43  C   UNL     1      48.249  34.444  39.461  0.00  0.00    +0.000 A 
ATOM     44  C   UNL     1      47.023  33.864  39.641  0.00  0.00    +0.000 A 
ATOM     45  C   UNL     1      46.346  34.083  40.828  0.00  0.00    +0.000 A 
ATOM     46  H   UNL     1      48.494  36.041  42.411  0.00  0.00    +0.000 HD
ATOM     47  H   UNL     1      49.732  35.668  40.296  0.00  0.00    +0.000 HD
ATOM     48  H   UNL     1      48.729  34.233  38.508  0.00  0.00    +0.000 HD
ATOM     49  H   UNL     1      46.569  33.241  38.885  0.00  0.00    +0.000 HD
ATOM     50  H   UNL     1      45.369  33.601  40.932  0.00  0.00    +0.000 HD
ENDBRANCH  34  40
ENDBRANCH  30  36
ENDBRANCH  27  31
ENDBRANCH   1  27
TORSDOF 6
