
 OpenBabel03242513243D

 48 52  0  0  1  0  0  0  0  0999 V2000
   45.4170   29.0440   47.1410 C   0  0  0  0  0  0  0  0  0  0  0  0
   46.2070   28.3460   46.8300 H   0  0  0  0  0  0  0  0  0  0  0  0
   44.5940   28.4370   47.6180 H   0  0  0  0  0  0  0  0  0  0  0  0
   45.8930   30.0030   48.1780 C   0  0  2  0  0  0  0  0  0  0  0  0
   44.7930   30.8880   48.7280 C   0  0  0  0  0  0  0  0  0  0  0  0
   45.6920   31.9450   49.3730 C   0  0  0  0  0  0  0  0  0  0  0  0
   46.6970   32.1490   48.4720 O   0  0  0  0  0  0  0  0  0  0  0  0
   46.8190   31.0550   47.6650 C   0  0  1  0  0  0  0  0  0  0  0  0
   46.2800   29.4170   49.0160 H   0  0  0  0  0  0  0  0  0  0  0  0
   44.1690   30.3810   49.4720 H   0  0  0  0  0  0  0  0  0  0  0  0
   44.2250   31.3400   47.8980 H   0  0  0  0  0  0  0  0  0  0  0  0
   45.0590   32.8660   49.4870 H   0  0  0  0  0  0  0  0  0  0  0  0
   46.0040   31.5480   50.3570 H   0  0  0  0  0  0  0  0  0  0  0  0
   46.5600   31.3350   46.6320 H   0  0  0  0  0  0  0  0  0  0  0  0
   48.2490   30.5920   47.6810 C   0  0  1  0  0  0  0  0  0  0  0  0
   48.9620   31.0070   48.9520 C   0  0  0  0  0  0  0  0  0  0  0  0
   49.7330   29.7620   49.3130 C   0  0  0  0  0  0  0  0  0  0  0  0
   49.6720   28.9250   48.1960 O   0  0  0  0  0  0  0  0  0  0  0  0
   48.3320   29.0670   47.8270 C   0  0  0  0  0  0  0  0  0  0  0  0
   48.7980   30.8630   46.7700 H   0  0  0  0  0  0  0  0  0  0  0  0
   48.2560   31.3180   49.7350 H   0  0  0  0  0  0  0  0  0  0  0  0
   49.6330   31.8650   48.6840 H   0  0  0  0  0  0  0  0  0  0  0  0
   50.7690   30.0580   49.5490 H   0  0  0  0  0  0  0  0  0  0  0  0
   49.2320   29.3010   50.1960 H   0  0  0  0  0  0  0  0  0  0  0  0
   47.7690   28.7470   48.7380 H   0  0  0  0  0  0  0  0  0  0  0  0
   48.0600   28.5320   46.9190 H   0  0  0  0  0  0  0  0  0  0  0  0
   45.0320   29.2900   44.7420 C   0  0  0  0  0  0  0  0  0  0  0  0
   44.8000   29.6970   45.9670 C   0  0  0  0  0  0  0  0  0  0  0  0
   42.5720   30.4120   42.2820 C   0  0  0  0  0  0  0  0  0  0  0  0
   43.3540   31.2520   41.4400 C   0  0  0  0  0  0  0  0  0  0  0  0
   44.6980   31.3900   41.7630 C   0  0  0  0  0  0  0  0  0  0  0  0
   45.1900   30.7380   42.8370 N   0  0  0  0  0  0  0  0  0  0  0  0
   44.4180   29.9450   43.6180 C   0  0  0  0  0  0  0  0  0  0  0  0
   43.1270   29.7820   43.3480 N   0  0  0  0  0  0  0  0  0  0  0  0
   41.5270   30.3050   42.0290 H   0  0  0  0  0  0  0  0  0  0  0  0
   42.9550   31.7640   40.5930 H   0  0  0  0  0  0  0  0  0  0  0  0
   45.6210   32.2120   40.9990 C   0  0  0  0  0  0  0  0  0  0  0  0
   46.3270   33.1900   41.6490 C   0  0  0  0  0  0  0  0  0  0  0  0
   46.2280   33.3810   42.7140 H   0  0  0  0  0  0  0  0  0  0  0  0
   47.2310   34.0290   41.0200 C   0  0  0  0  0  0  0  0  0  0  0  0
   47.4190   33.8530   39.6520 C   0  0  0  0  0  0  0  0  0  0  0  0
   48.3040   34.6660   39.0100 N   0  0  0  0  0  0  0  0  0  0  0  0
   48.5080   34.5190   37.6820 C   0  0  0  0  0  0  0  0  0  0  0  0
   49.2000   35.1360   37.1120 H   0  0  0  0  0  0  0  0  0  0  0  0
   47.8400   33.5590   36.9490 C   0  0  0  0  0  0  0  0  0  0  0  0
   46.9480   32.7460   37.6200 C   0  0  0  0  0  0  0  0  0  0  0  0
   46.7240   32.8800   38.9770 C   0  0  0  0  0  0  0  0  0  0  0  0
   45.8470   32.0840   39.6470 C   0  0  0  0  0  0  0  0  0  0  0  0
  1  3  1  0  0  0  0
  1  4  1  0  0  0  0
  2  1  1  0  0  0  0
  4  5  1  0  0  0  0
  4  9  1  1  0  0  0
  5  6  1  0  0  0  0
  5 10  1  0  0  0  0
  6 12  1  0  0  0  0
  6 13  1  0  0  0  0
  7  6  1  0  0  0  0
  8 14  1  6  0  0  0
  8 15  1  0  0  0  0
  8  4  1  0  0  0  0
  8  7  1  0  0  0  0
 11  5  1  0  0  0  0
 15 20  1  6  0  0  0
 15 19  1  0  0  0  0
 15 16  1  0  0  0  0
 16 17  1  0  0  0  0
 16 21  1  0  0  0  0
 17 23  1  0  0  0  0
 17 24  1  0  0  0  0
 18 17  1  0  0  0  0
 19 18  1  0  0  0  0
 19 25  1  0  0  0  0
 22 16  1  0  0  0  0
 26 19  1  0  0  0  0
 27 28  2  0  0  0  0
 28  1  1  0  0  0  0
 29 34  1  0  0  0  0
 30 31  1  0  0  0  0
 30 29  2  0  0  0  0
 31 32  2  0  0  0  0
 32 33  1  0  0  0  0
 33 27  1  0  0  0  0
 34 33  2  0  0  0  0
 35 29  1  0  0  0  0
 36 30  1  0  0  0  0
 37 38  1  0  0  0  0
 37 31  1  0  0  0  0
 38 39  1  0  0  0  0
 40 38  2  0  0  0  0
 41 40  1  0  0  0  0
 42 41  1  0  0  0  0
 43 42  2  0  0  0  0
 44 43  1  0  0  0  0
 45 46  2  0  0  0  0
 45 43  1  0  0  0  0
 46 47  1  0  0  0  0
 47 48  1  0  0  0  0
 47 41  2  0  0  0  0
 48 37  2  0  0  0  0
M  END
>  <minimizedAffinity>
-4.81257391

>  <minimizedRMSD>
4.82641411

$$$$
