
     RDKit          3D

 32 35  0  0  0  0  0  0  0  0999 V2000
   44.5860   35.7957   44.7245 C   0  0  0  0  0  0  0  0  0  0  0  0
   45.2744   35.5715   43.5046 C   0  0  0  0  0  0  0  0  0  0  0  0
   46.1349   34.4594   43.4255 C   0  0  0  0  0  0  0  0  0  0  0  0
   46.2567   33.6565   44.5364 N   0  0  0  0  0  0  0  0  0  0  0  0
   45.5746   33.9200   45.6732 C   0  0  0  0  0  0  0  0  0  0  0  0
   44.7411   34.9847   45.7715 N   0  0  0  0  0  0  0  0  0  0  0  0
   45.8651   32.9304   46.7102 C   0  0  0  0  0  0  0  0  0  0  0  0
   45.1154   32.7833   47.9047 C   0  0  0  0  0  0  0  0  0  0  0  0
   45.4951   31.8236   48.7800 C   0  0  0  0  0  0  0  0  0  0  0  0
   46.6144   31.0070   48.4798 C   0  0  0  0  0  0  0  0  0  0  0  0
   47.1534   31.6469   46.8566 S   0  0  0  0  0  0  0  0  0  0  0  0
   43.9259   36.6479   44.7867 H   0  0  0  0  0  0  0  0  0  0  0  0
   45.1761   36.1985   42.6446 H   0  0  0  0  0  0  0  0  0  0  0  0
   46.6971   34.2158   42.5342 H   0  0  0  0  0  0  0  0  0  0  0  0
   44.2665   33.4206   48.1068 H   0  0  0  0  0  0  0  0  0  0  0  0
   45.0432   31.5921   49.7033 H   0  0  0  0  0  0  0  0  0  0  0  0
   47.2639   29.9483   49.1427 C   0  0  0  0  0  0  0  0  0  0  0  0
   48.0645   30.2473   50.2236 C   0  0  0  0  0  0  0  0  0  0  0  0
   48.2257   31.2496   50.5963 H   0  0  0  0  0  0  0  0  0  0  0  0
   48.6926   29.1666   50.8554 C   0  0  0  0  0  0  0  0  0  0  0  0
   48.4987   27.8647   50.3911 C   0  0  0  0  0  0  0  0  0  0  0  0
   49.1399   26.8613   51.0524 N   0  0  0  0  0  0  0  0  0  0  0  0
   49.0033   25.5794   50.6653 C   0  0  0  0  0  0  0  0  0  0  0  0
   49.5191   24.8208   51.2053 H   0  0  0  0  0  0  0  0  0  0  0  0
   48.1867   25.3093   49.5684 C   0  0  0  0  0  0  0  0  0  0  0  0
   47.5291   26.3054   48.8849 C   0  0  0  0  0  0  0  0  0  0  0  0
   47.6821   27.6108   49.2970 C   0  0  0  0  0  0  0  0  0  0  0  0
   47.0465   28.6789   48.6536 C   0  0  0  0  0  0  0  0  0  0  0  0
   49.3302   29.3691   51.7104 H   0  0  0  0  0  0  0  0  0  0  0  0
   48.1089   24.2738   49.2978 H   0  0  0  0  0  0  0  0  0  0  0  0
   46.8971   26.0757   48.0325 H   0  0  0  0  0  0  0  0  0  0  0  0
   46.4101   28.4826   47.8011 H   0  0  0  0  0  0  0  0  0  0  0  0
  1  6  2  0
  2  1  1  0
  3  2  2  0
  3  4  1  0
  4  5  2  0
  5  6  1  0
  5  7  1  0
  7 11  1  0
  7  8  2  0
  8  9  1  0
 10  9  2  0
 11 10  1  0
  1 12  1  0
  2 13  1  0
  3 14  1  0
  8 15  1  0
  9 16  1  0
 17 18  2  0
 18 19  1  0
 18 20  1  0
 20 21  2  0
 21 22  1  0
 22 23  2  0
 23 24  1  0
 23 25  1  0
 25 26  2  0
 26 27  1  0
 27 28  2  0
 28 17  1  0
 27 21  1  0
 20 29  1  0
 25 30  1  0
 26 31  1  0
 28 32  1  0
 10 17  1  0
M  ISO  7  12  14  13  14  14  14  15  14  16  14  19  16  24  16
M  END
>  <DihAtoms>  (1) 
8,9,16,17

>  <DihDeg>  (1) 
179.99931870873294

$$$$
