
 OpenBabel03252505133D

 47 51  0  0  1  0  0  0  0  0999 V2000
   32.6490   26.8600   35.9170 C   0  0  0  0  0  0  0  0  0  0  0  0
   33.8430   27.3080   36.5310 C   0  0  0  0  0  0  0  0  0  0  0  0
   33.8230   28.6110   37.1220 C   0  0  0  0  0  0  0  0  0  0  0  0
   32.6870   29.3420   37.0690 N   0  0  0  0  0  0  0  0  0  0  0  0
   31.5800   28.8810   36.4780 C   0  0  0  0  0  0  0  0  0  0  0  0
   31.5510   27.6330   35.8960 N   0  0  0  0  0  0  0  0  0  0  0  0
   32.6700   25.8740   35.4710 H   0  0  0  0  0  0  0  0  0  0  0  0
   34.7320   26.6910   36.5520 H   0  0  0  0  0  0  0  0  0  0  0  0
   30.3510   29.7190   36.4370 C   0  0  2  0  0  0  0  0  0  0  0  0
   30.4760   30.5180   35.1560 C   0  0  0  0  0  0  0  0  0  0  0  0
   30.8410   31.9380   35.3020 C   0  0  0  0  0  0  0  0  0  0  0  0
   29.7770   32.5140   36.2390 C   0  0  0  0  0  0  0  0  0  0  0  0
   29.8670   31.9650   37.6000 C   0  0  0  0  0  0  0  0  0  0  0  0
   30.1700   30.5030   37.6260 C   0  0  0  0  0  0  0  0  0  0  0  0
   29.5130   28.9890   36.3330 H   0  0  0  0  0  0  0  0  0  0  0  0
   31.1800   30.0650   34.4240 H   0  0  0  0  0  0  0  0  0  0  0  0
   29.4870   30.4760   34.6480 H   0  0  0  0  0  0  0  0  0  0  0  0
   31.8480   32.0340   35.7190 H   0  0  0  0  0  0  0  0  0  0  0  0
   30.6920   32.4380   34.3470 H   0  0  0  0  0  0  0  0  0  0  0  0
   28.7880   32.3260   35.7760 H   0  0  0  0  0  0  0  0  0  0  0  0
   30.0210   33.5760   36.3240 H   0  0  0  0  0  0  0  0  0  0  0  0
   29.7610   32.4010   38.5620 H   0  0  0  0  0  0  0  0  0  0  0  0
   30.2920   29.8240   38.8770 N   0  0  0  0  0  0  0  0  0  0  0  0
   29.3700   29.3400   38.9570 H   0  0  0  0  0  0  0  0  0  0  0  0
   31.1940   29.9350   39.4180 H   0  0  0  0  0  0  0  0  0  0  0  0
   35.0350   29.1060   37.7680 C   0  0  0  0  0  0  0  0  0  0  0  0
   36.0280   29.5950   36.9990 C   0  0  0  0  0  0  0  0  0  0  0  0
   37.1680   30.0570   37.6860 C   0  0  0  0  0  0  0  0  0  0  0  0
   37.1520   29.9610   39.0700 C   0  0  0  0  0  0  0  0  0  0  0  0
   36.1340   29.4600   39.8450 C   0  0  0  0  0  0  0  0  0  0  0  0
   35.0630   29.0320   39.1160 N   0  0  0  0  0  0  0  0  0  0  0  0
   35.9570   29.6320   35.9350 H   0  0  0  0  0  0  0  0  0  0  0  0
   37.9980   30.4590   37.1490 H   0  0  0  0  0  0  0  0  0  0  0  0
   38.0530   30.3300   39.5480 H   0  0  0  0  0  0  0  0  0  0  0  0
   36.2070   29.4040   41.2160 O   0  0  0  0  0  0  0  0  0  0  0  0
   37.0500   28.4330   41.7590 C   0  0  0  0  0  0  0  0  0  0  0  0
   37.9090   28.9880   42.7130 C   0  0  0  0  0  0  0  0  0  0  0  0
   37.9510   30.0140   43.0180 H   0  0  0  0  0  0  0  0  0  0  0  0
   38.8110   28.1220   43.3400 C   0  0  0  0  0  3  0  0  0  0  0  0
   38.8800   26.7840   43.0580 C   0  0  0  0  0  0  0  0  0  0  0  0
   39.7550   25.9970   43.6800 N   0  0  0  0  0  0  0  0  0  0  0  0
   39.7580   24.6830   43.3430 C   0  0  0  0  0  0  0  0  0  0  0  0
   40.4760   24.0190   43.8470 H   0  0  0  0  0  0  0  0  0  0  0  0
   38.9030   24.1360   42.3950 C   0  0  0  0  0  3  0  0  0  0  0  0
   37.9920   24.9530   41.7470 C   0  0  0  0  0  3  0  0  0  0  0  0
   38.0090   26.2950   42.1100 C   0  0  0  0  0  0  0  0  0  0  0  0
   37.0940   27.0880   41.4520 C   0  0  0  0  0  3  0  0  0  0  0  0
  1  2  1  0  0  0  0
  2  8  1  0  0  0  0
  2  3  2  0  0  0  0
  3 26  1  0  0  0  0
  4  3  1  0  0  0  0
  5  4  2  0  0  0  0
  6  1  2  0  0  0  0
  6  5  1  0  0  0  0
  7  1  1  0  0  0  0
  9 15  1  6  0  0  0
  9  5  1  0  0  0  0
  9 14  1  0  0  0  0
 10 11  1  0  0  0  0
 10  9  1  0  0  0  0
 11 18  1  0  0  0  0
 11 12  1  0  0  0  0
 12 21  1  0  0  0  0
 12 13  1  0  0  0  0
 13 14  2  0  0  0  0
 13 22  1  0  0  0  0
 14 23  1  0  0  0  0
 16 10  1  0  0  0  0
 17 10  1  0  0  0  0
 19 11  1  0  0  0  0
 20 12  1  0  0  0  0
 23 24  1  0  0  0  0
 23 25  1  0  0  0  0
 26 31  1  0  0  0  0
 27 28  1  0  0  0  0
 27 26  2  0  0  0  0
 28 29  2  0  0  0  0
 29 34  1  0  0  0  0
 29 30  1  0  0  0  0
 30 35  1  0  0  0  0
 31 30  2  0  0  0  0
 32 27  1  0  0  0  0
 33 28  1  0  0  0  0
 35 36  1  0  0  0  0
 36 37  1  0  0  0  0
 37 38  1  0  0  0  0
 37 39  2  0  0  0  0
 40 39  1  0  0  0  0
 40 41  1  0  0  0  0
 42 41  2  0  0  0  0
 42 43  1  0  0  0  0
 44 42  1  0  0  0  0
 45 46  1  0  0  0  0
 45 44  2  0  0  0  0
 46 40  2  0  0  0  0
 47 36  2  0  0  0  0
 47 46  1  0  0  0  0
M  END
>  <minimizedAffinity>
-7.26565647

$$$$

 OpenBabel03252505133D

 47 51  0  0  1  0  0  0  0  0999 V2000
   41.3510   28.9600   36.9410 C   0  0  0  0  0  0  0  0  0  0  0  0
   40.1720   29.3620   37.6140 C   0  0  0  0  0  0  0  0  0  0  0  0
   40.1870   30.6460   38.2450 C   0  0  0  0  0  0  0  0  0  0  0  0
   41.3040   31.4040   38.1720 N   0  0  0  0  0  0  0  0  0  0  0  0
   42.3970   30.9860   37.5260 C   0  0  0  0  0  0  0  0  0  0  0  0
   42.4310   29.7580   36.9030 N   0  0  0  0  0  0  0  0  0  0  0  0
   41.3340   27.9880   36.4660 H   0  0  0  0  0  0  0  0  0  0  0  0
   39.2980   28.7250   37.6490 H   0  0  0  0  0  0  0  0  0  0  0  0
   43.6080   31.8500   37.4730 C   0  0  2  0  0  0  0  0  0  0  0  0
   44.5260   31.2870   38.5390 C   0  0  0  0  0  0  0  0  0  0  0  0
   44.6350   32.0630   39.7860 C   0  0  0  0  0  0  0  0  0  0  0  0
   45.0670   33.4590   39.3340 C   0  0  0  0  0  0  0  0  0  0  0  0
   44.0250   34.1480   38.5570 C   0  0  0  0  0  0  0  0  0  0  0  0
   43.3060   33.2460   37.6090 C   0  0  0  0  0  0  0  0  0  0  0  0
   44.0520   31.6540   36.4670 H   0  0  0  0  0  0  0  0  0  0  0  0
   44.2830   30.2370   38.8170 H   0  0  0  0  0  0  0  0  0  0  0  0
   45.5440   31.2240   38.0930 H   0  0  0  0  0  0  0  0  0  0  0  0
   43.6750   32.0810   40.3110 H   0  0  0  0  0  0  0  0  0  0  0  0
   45.4680   31.6740   40.3690 H   0  0  0  0  0  0  0  0  0  0  0  0
   46.0100   33.3480   38.7630 H   0  0  0  0  0  0  0  0  0  0  0  0
   45.1840   34.0310   40.2580 H   0  0  0  0  0  0  0  0  0  0  0  0
   43.6850   35.1530   38.5400 H   0  0  0  0  0  0  0  0  0  0  0  0
   42.2620   33.7680   36.7850 N   0  0  0  0  0  0  0  0  0  0  0  0
   42.7400   33.8780   35.8630 H   0  0  0  0  0  0  0  0  0  0  0  0
   41.3110   33.9250   37.2240 H   0  0  0  0  0  0  0  0  0  0  0  0
   38.9880   31.0960   38.9460 C   0  0  0  0  0  0  0  0  0  0  0  0
   38.2490   32.0830   38.4040 C   0  0  0  0  0  0  0  0  0  0  0  0
   37.1050   32.4670   39.1320 C   0  0  0  0  0  0  0  0  0  0  0  0
   36.8600   31.7960   40.3210 C   0  0  0  0  0  0  0  0  0  0  0  0
   37.6210   30.7910   40.8660 C   0  0  0  0  0  0  0  0  0  0  0  0
   38.7110   30.4690   40.1100 N   0  0  0  0  0  0  0  0  0  0  0  0
   38.5120   32.5470   37.4800 H   0  0  0  0  0  0  0  0  0  0  0  0
   36.4670   33.2430   38.7690 H   0  0  0  0  0  0  0  0  0  0  0  0
   35.9690   32.1310   40.8400 H   0  0  0  0  0  0  0  0  0  0  0  0
   37.3000   30.1820   42.0550 O   0  0  0  0  0  0  0  0  0  0  0  0
   37.7910   28.8900   42.2500 C   0  0  0  0  0  0  0  0  0  0  0  0
   38.9910   28.9080   42.9670 C   0  0  0  0  0  0  0  0  0  0  0  0
   39.5030   29.7720   43.3380 H   0  0  0  0  0  0  0  0  0  0  0  0
   39.5940   27.6750   43.2340 C   0  0  0  0  0  3  0  0  0  0  0  0
   39.0630   26.4800   42.8260 C   0  0  0  0  0  0  0  0  0  0  0  0
   39.6720   25.3300   43.1030 N   0  0  0  0  0  0  0  0  0  0  0  0
   39.0790   24.1910   42.6640 C   0  0  0  0  0  0  0  0  0  0  0  0
   39.5700   23.2320   42.8830 H   0  0  0  0  0  0  0  0  0  0  0  0
   37.8870   24.1770   41.9520 C   0  0  0  0  0  3  0  0  0  0  0  0
   37.2520   25.3740   41.6630 C   0  0  0  0  0  3  0  0  0  0  0  0
   37.8790   26.5250   42.1240 C   0  0  0  0  0  0  0  0  0  0  0  0
   37.2280   27.7030   41.8250 C   0  0  0  0  0  3  0  0  0  0  0  0
  1  2  1  0  0  0  0
  2  8  1  0  0  0  0
  2  3  2  0  0  0  0
  3 26  1  0  0  0  0
  4  3  1  0  0  0  0
  5  4  2  0  0  0  0
  6  1  2  0  0  0  0
  6  5  1  0  0  0  0
  7  1  1  0  0  0  0
  9 15  1  6  0  0  0
  9  5  1  0  0  0  0
  9 14  1  0  0  0  0
  9 10  1  0  0  0  0
 10 16  1  0  0  0  0
 10 11  1  0  0  0  0
 11 18  1  0  0  0  0
 11 19  1  0  0  0  0
 12 11  1  0  0  0  0
 12 21  1  0  0  0  0
 13 12  1  0  0  0  0
 14 13  2  0  0  0  0
 17 10  1  0  0  0  0
 20 12  1  0  0  0  0
 22 13  1  0  0  0  0
 23 25  1  0  0  0  0
 23 14  1  0  0  0  0
 24 23  1  0  0  0  0
 26 31  1  0  0  0  0
 27 26  2  0  0  0  0
 27 28  1  0  0  0  0
 28 29  2  0  0  0  0
 29 34  1  0  0  0  0
 29 30  1  0  0  0  0
 30 35  1  0  0  0  0
 31 30  2  0  0  0  0
 32 27  1  0  0  0  0
 33 28  1  0  0  0  0
 35 36  1  0  0  0  0
 36 37  1  0  0  0  0
 37 39  2  0  0  0  0
 37 38  1  0  0  0  0
 40 41  1  0  0  0  0
 40 39  1  0  0  0  0
 42 43  1  0  0  0  0
 42 41  2  0  0  0  0
 44 42  1  0  0  0  0
 45 44  2  0  0  0  0
 45 46  1  0  0  0  0
 46 40  2  0  0  0  0
 47 46  1  0  0  0  0
 47 36  2  0  0  0  0
M  END
>  <minimizedAffinity>
-7.07427311

$$$$

 OpenBabel03252505133D

 47 51  0  0  1  0  0  0  0  0999 V2000
   40.3880   33.0070   40.5860 C   0  0  0  0  0  0  0  0  0  0  0  0
   40.7120   31.8910   41.3960 C   0  0  0  0  0  0  0  0  0  0  0  0
   39.9010   30.7230   41.2510 C   0  0  0  0  0  0  0  0  0  0  0  0
   38.8790   30.7340   40.3650 N   0  0  0  0  0  0  0  0  0  0  0  0
   38.6070   31.8090   39.6200 C   0  0  0  0  0  0  0  0  0  0  0  0
   39.3600   32.9580   39.7230 N   0  0  0  0  0  0  0  0  0  0  0  0
   41.0050   33.8880   40.7010 H   0  0  0  0  0  0  0  0  0  0  0  0
   41.5390   31.9230   42.0940 H   0  0  0  0  0  0  0  0  0  0  0  0
   37.4700   31.7820   38.6590 C   0  0  2  0  0  0  0  0  0  0  0  0
   36.4610   30.8430   39.2870 C   0  0  0  0  0  0  0  0  0  0  0  0
   36.3520   29.5030   38.6870 C   0  0  0  0  0  0  0  0  0  0  0  0
   36.0520   29.7650   37.2100 C   0  0  0  0  0  0  0  0  0  0  0  0
   37.1810   30.3960   36.5090 C   0  0  0  0  0  0  0  0  0  0  0  0
   37.8730   31.4370   37.3260 C   0  0  0  0  0  0  0  0  0  0  0  0
   37.0620   32.8220   38.6740 H   0  0  0  0  0  0  0  0  0  0  0  0
   36.6080   30.7100   40.3820 H   0  0  0  0  0  0  0  0  0  0  0  0
   35.4640   31.3320   39.2020 H   0  0  0  0  0  0  0  0  0  0  0  0
   37.2830   28.9450   38.8230 H   0  0  0  0  0  0  0  0  0  0  0  0
   35.4640   29.0130   39.0830 H   0  0  0  0  0  0  0  0  0  0  0  0
   35.1320   30.3810   37.1610 H   0  0  0  0  0  0  0  0  0  0  0  0
   35.9350   28.7730   36.7650 H   0  0  0  0  0  0  0  0  0  0  0  0
   37.5980   30.2560   35.5440 H   0  0  0  0  0  0  0  0  0  0  0  0
   38.9930   32.1370   36.7830 N   0  0  0  0  0  0  0  0  0  0  0  0
   38.5700   33.0510   36.5050 H   0  0  0  0  0  0  0  0  0  0  0  0
   39.9300   31.6460   36.7690 H   0  0  0  0  0  0  0  0  0  0  0  0
   40.2070   29.5520   42.0670 C   0  0  0  0  0  0  0  0  0  0  0  0
   41.4570   29.4030   42.5490 C   0  0  0  0  0  0  0  0  0  0  0  0
   41.6830   28.2520   43.3290 C   0  0  0  0  0  0  0  0  0  0  0  0
   40.6070   27.3980   43.5190 C   0  0  0  0  0  0  0  0  0  0  0  0
   39.3360   27.5580   43.0230 C   0  0  0  0  0  0  0  0  0  0  0  0
   39.1870   28.6910   42.2780 N   0  0  0  0  0  0  0  0  0  0  0  0
   42.2290   30.1130   42.3530 H   0  0  0  0  0  0  0  0  0  0  0  0
   42.6470   28.0620   43.7470 H   0  0  0  0  0  0  0  0  0  0  0  0
   40.8360   26.5290   44.1260 H   0  0  0  0  0  0  0  0  0  0  0  0
   38.3290   26.6550   43.2640 O   0  0  0  0  0  0  0  0  0  0  0  0
   37.9110   25.8790   42.1810 C   0  0  0  0  0  0  0  0  0  0  0  0
   38.2980   24.5440   42.3380 C   0  0  0  0  0  0  0  0  0  0  0  0
   38.8430   24.1270   43.1590 H   0  0  0  0  0  0  0  0  0  0  0  0
   37.9420   23.6530   41.3200 C   0  0  0  0  0  3  0  0  0  0  0  0
   37.2450   24.0340   40.2050 C   0  0  0  0  0  0  0  0  0  0  0  0
   36.9270   23.1500   39.2620 N   0  0  0  0  0  0  0  0  0  0  0  0
   36.2340   23.6090   38.1880 C   0  0  0  0  0  0  0  0  0  0  0  0
   35.9650   22.8920   37.3990 H   0  0  0  0  0  0  0  0  0  0  0  0
   35.8520   24.9360   38.0370 C   0  0  0  0  0  3  0  0  0  0  0  0
   36.1820   25.8560   39.0180 C   0  0  0  0  0  3  0  0  0  0  0  0
   36.8900   25.3610   40.1060 C   0  0  0  0  0  0  0  0  0  0  0  0
   37.2080   26.2950   41.0690 C   0  0  0  0  0  3  0  0  0  0  0  0
  1  7  1  0  0  0  0
  1  2  1  0  0  0  0
  2  8  1  0  0  0  0
  3  2  2  0  0  0  0
  3 26  1  0  0  0  0
  4  3  1  0  0  0  0
  5  6  1  0  0  0  0
  5  4  2  0  0  0  0
  6  1  2  0  0  0  0
  9 15  1  6  0  0  0
  9 10  1  0  0  0  0
  9  5  1  0  0  0  0
 10 16  1  0  0  0  0
 11 18  1  0  0  0  0
 11 19  1  0  0  0  0
 11 10  1  0  0  0  0
 12 11  1  0  0  0  0
 13 12  1  0  0  0  0
 13 14  2  0  0  0  0
 14  9  1  0  0  0  0
 17 10  1  0  0  0  0
 20 12  1  0  0  0  0
 21 12  1  0  0  0  0
 22 13  1  0  0  0  0
 23 14  1  0  0  0  0
 24 23  1  0  0  0  0
 25 23  1  0  0  0  0
 26 31  2  0  0  0  0
 26 27  1  0  0  0  0
 27 28  2  0  0  0  0
 28 29  1  0  0  0  0
 28 33  1  0  0  0  0
 29 34  1  0  0  0  0
 30 35  1  0  0  0  0
 30 29  2  0  0  0  0
 31 30  1  0  0  0  0
 32 27  1  0  0  0  0
 36 37  1  0  0  0  0
 36 35  1  0  0  0  0
 37 38  1  0  0  0  0
 39 37  2  0  0  0  0
 40 39  1  0  0  0  0
 41 40  2  0  0  0  0
 42 41  1  0  0  0  0
 43 42  1  0  0  0  0
 44 42  2  0  0  0  0
 44 45  1  0  0  0  0
 45 46  2  0  0  0  0
 46 40  1  0  0  0  0
 46 47  1  0  0  0  0
 47 36  2  0  0  0  0
M  END
>  <minimizedAffinity>
-6.93449402

$$$$

 OpenBabel03252505133D

 47 51  0  0  1  0  0  0  0  0999 V2000
   35.3030   28.3550   36.9990 C   0  0  0  0  0  0  0  0  0  0  0  0
   35.6150   27.2960   37.8850 C   0  0  0  0  0  0  0  0  0  0  0  0
   36.3340   27.6320   39.0750 C   0  0  0  0  0  0  0  0  0  0  0  0
   36.6770   28.9210   39.2960 N   0  0  0  0  0  0  0  0  0  0  0  0
   36.3620   29.8910   38.4330 C   0  0  0  0  0  0  0  0  0  0  0  0
   35.6700   29.6170   37.2740 N   0  0  0  0  0  0  0  0  0  0  0  0
   34.7590   28.0940   36.1000 H   0  0  0  0  0  0  0  0  0  0  0  0
   35.3220   26.2760   37.6700 H   0  0  0  0  0  0  0  0  0  0  0  0
   36.7620   31.2980   38.7120 C   0  0  2  0  0  0  0  0  0  0  0  0
   38.0200   31.5070   37.8940 C   0  0  0  0  0  0  0  0  0  0  0  0
   39.2910   31.5210   38.6390 C   0  0  0  0  0  0  0  0  0  0  0  0
   39.1050   32.6100   39.6970 C   0  0  0  0  0  0  0  0  0  0  0  0
   38.0890   32.2540   40.7010 C   0  0  0  0  0  0  0  0  0  0  0  0
   36.8970   31.5720   40.1140 C   0  0  0  0  0  0  0  0  0  0  0  0
   35.9390   31.9170   38.2810 H   0  0  0  0  0  0  0  0  0  0  0  0
   38.1280   30.7780   37.0610 H   0  0  0  0  0  0  0  0  0  0  0  0
   37.9180   32.4910   37.3860 H   0  0  0  0  0  0  0  0  0  0  0  0
   39.4830   30.5420   39.0890 H   0  0  0  0  0  0  0  0  0  0  0  0
   40.0780   31.8840   37.9810 H   0  0  0  0  0  0  0  0  0  0  0  0
   38.8580   33.5510   39.1670 H   0  0  0  0  0  0  0  0  0  0  0  0
   40.0570   32.6500   40.2320 H   0  0  0  0  0  0  0  0  0  0  0  0
   38.0390   32.3840   41.7520 H   0  0  0  0  0  0  0  0  0  0  0  0
   35.8250   31.1610   40.9630 N   0  0  0  0  0  0  0  0  0  0  0  0
   35.1140   31.9090   40.8020 H   0  0  0  0  0  0  0  0  0  0  0  0
   35.9480   30.2750   41.5290 H   0  0  0  0  0  0  0  0  0  0  0  0
   36.6720   26.5670   40.0140 C   0  0  0  0  0  0  0  0  0  0  0  0
   36.4170   25.2900   39.6690 C   0  0  0  0  0  0  0  0  0  0  0  0
   36.7680   24.3120   40.6210 C   0  0  0  0  0  0  0  0  0  0  0  0
   37.3350   24.7610   41.8050 C   0  0  0  0  0  0  0  0  0  0  0  0
   37.5900   26.0660   42.1480 C   0  0  0  0  0  0  0  0  0  0  0  0
   37.2260   26.9580   41.1820 N   0  0  0  0  0  0  0  0  0  0  0  0
   35.9760   25.0320   38.7320 H   0  0  0  0  0  0  0  0  0  0  0  0
   36.5980   23.2770   40.4220 H   0  0  0  0  0  0  0  0  0  0  0  0
   37.5850   23.9680   42.5010 H   0  0  0  0  0  0  0  0  0  0  0  0
   38.1550   26.4180   43.3500 O   0  0  0  0  0  0  0  0  0  0  0  0
   39.2900   27.2280   43.2950 C   0  0  0  0  0  0  0  0  0  0  0  0
   40.4350   26.5210   43.6760 C   0  0  0  0  0  0  0  0  0  0  0  0
   40.4830   25.4950   43.9780 H   0  0  0  0  0  0  0  0  0  0  0  0
   41.6480   27.2170   43.6660 C   0  0  0  0  0  3  0  0  0  0  0  0
   41.7500   28.5340   43.3050 C   0  0  0  0  0  0  0  0  0  0  0  0
   42.9260   29.1560   43.3100 N   0  0  0  0  0  0  0  0  0  0  0  0
   42.9410   30.4620   42.9370 C   0  0  0  0  0  0  0  0  0  0  0  0
   43.9050   30.9900   42.9370 H   0  0  0  0  0  0  0  0  0  0  0  0
   41.8020   31.1600   42.5590 C   0  0  0  0  0  3  0  0  0  0  0  0
   40.5770   30.5130   42.5530 C   0  0  0  0  0  3  0  0  0  0  0  0
   40.5890   29.1780   42.9380 C   0  0  0  0  0  0  0  0  0  0  0  0
   39.3590   28.5560   42.9240 C   0  0  0  0  0  3  0  0  0  0  0  0
  1  6  2  0  0  0  0
  1  2  1  0  0  0  0
  2  3  2  0  0  0  0
  3  4  1  0  0  0  0
  3 26  1  0  0  0  0
  5  9  1  0  0  0  0
  5  4  2  0  0  0  0
  6  5  1  0  0  0  0
  7  1  1  0  0  0  0
  8  2  1  0  0  0  0
  9 15  1  6  0  0  0
  9 14  1  0  0  0  0
 10 11  1  0  0  0  0
 10  9  1  0  0  0  0
 11 18  1  0  0  0  0
 11 12  1  0  0  0  0
 12 21  1  0  0  0  0
 12 13  1  0  0  0  0
 13 22  1  0  0  0  0
 14 13  2  0  0  0  0
 14 23  1  0  0  0  0
 16 10  1  0  0  0  0
 17 10  1  0  0  0  0
 19 11  1  0  0  0  0
 20 12  1  0  0  0  0
 23 25  1  0  0  0  0
 24 23  1  0  0  0  0
 26 31  1  0  0  0  0
 27 26  2  0  0  0  0
 27 28  1  0  0  0  0
 28 29  2  0  0  0  0
 29 30  1  0  0  0  0
 29 34  1  0  0  0  0
 30 35  1  0  0  0  0
 31 30  2  0  0  0  0
 32 27  1  0  0  0  0
 33 28  1  0  0  0  0
 36 35  1  0  0  0  0
 36 37  1  0  0  0  0
 37 38  1  0  0  0  0
 39 37  2  0  0  0  0
 40 41  1  0  0  0  0
 40 39  1  0  0  0  0
 42 43  1  0  0  0  0
 42 41  2  0  0  0  0
 44 42  1  0  0  0  0
 45 44  2  0  0  0  0
 45 46  1  0  0  0  0
 46 40  2  0  0  0  0
 47 46  1  0  0  0  0
 47 36  2  0  0  0  0
M  END
>  <minimizedAffinity>
-6.89890289

$$$$

 OpenBabel03252505133D

 47 51  0  0  1  0  0  0  0  0999 V2000
   36.1180   29.0780   37.7640 C   0  0  0  0  0  0  0  0  0  0  0  0
   36.2140   28.4220   39.0140 C   0  0  0  0  0  0  0  0  0  0  0  0
   36.9820   29.0690   40.0330 C   0  0  0  0  0  0  0  0  0  0  0  0
   37.5710   30.2560   39.7610 N   0  0  0  0  0  0  0  0  0  0  0  0
   37.4550   30.8410   38.5660 C   0  0  0  0  0  0  0  0  0  0  0  0
   36.7260   30.2570   37.5530 N   0  0  0  0  0  0  0  0  0  0  0  0
   35.5360   28.5830   36.9970 H   0  0  0  0  0  0  0  0  0  0  0  0
   35.7270   27.4720   39.1910 H   0  0  0  0  0  0  0  0  0  0  0  0
   38.1230   32.1460   38.3060 C   0  0  2  0  0  0  0  0  0  0  0  0
   39.4850   31.7750   37.7560 C   0  0  0  0  0  0  0  0  0  0  0  0
   40.6270   31.9370   38.6720 C   0  0  0  0  0  0  0  0  0  0  0  0
   40.5640   33.4010   39.1120 C   0  0  0  0  0  0  0  0  0  0  0  0
   39.3810   33.6900   39.9380 C   0  0  0  0  0  0  0  0  0  0  0  0
   38.1460   33.0010   39.4580 C   0  0  0  0  0  0  0  0  0  0  0  0
   37.5170   32.6180   37.4950 H   0  0  0  0  0  0  0  0  0  0  0  0
   39.5270   30.7420   37.3480 H   0  0  0  0  0  0  0  0  0  0  0  0
   39.6680   32.4270   36.8730 H   0  0  0  0  0  0  0  0  0  0  0  0
   40.5400   31.2500   39.5190 H   0  0  0  0  0  0  0  0  0  0  0  0
   41.5500   31.8440   38.1010 H   0  0  0  0  0  0  0  0  0  0  0  0
   40.5990   34.0260   38.1980 H   0  0  0  0  0  0  0  0  0  0  0  0
   41.4300   33.5370   39.7650 H   0  0  0  0  0  0  0  0  0  0  0  0
   39.2340   34.2870   40.8020 H   0  0  0  0  0  0  0  0  0  0  0  0
   36.9140   33.1810   40.1590 N   0  0  0  0  0  0  0  0  0  0  0  0
   36.4140   33.8710   39.5560 H   0  0  0  0  0  0  0  0  0  0  0  0
   36.7670   32.6380   41.0560 H   0  0  0  0  0  0  0  0  0  0  0  0
   37.1010   28.4240   41.3370 C   0  0  0  0  0  0  0  0  0  0  0  0
   37.4110   29.1780   42.4100 C   0  0  0  0  0  0  0  0  0  0  0  0
   37.5090   28.4920   43.6370 C   0  0  0  0  0  0  0  0  0  0  0  0
   37.2780   27.1240   43.6140 C   0  0  0  0  0  0  0  0  0  0  0  0
   36.9630   26.3640   42.5150 C   0  0  0  0  0  0  0  0  0  0  0  0
   36.8840   27.0910   41.3620 N   0  0  0  0  0  0  0  0  0  0  0  0
   37.5730   30.2300   42.3370 H   0  0  0  0  0  0  0  0  0  0  0  0
   37.7510   29.0180   44.5340 H   0  0  0  0  0  0  0  0  0  0  0  0
   37.3660   26.6460   44.5840 H   0  0  0  0  0  0  0  0  0  0  0  0
   36.7520   25.0090   42.5870 O   0  0  0  0  0  0  0  0  0  0  0  0
   36.9670   24.2770   41.4180 C   0  0  0  0  0  0  0  0  0  0  0  0
   38.3010   23.8730   41.3140 C   0  0  0  0  0  0  0  0  0  0  0  0
   39.0880   24.0730   42.0110 H   0  0  0  0  0  0  0  0  0  0  0  0
   38.6560   23.1280   40.1840 C   0  0  0  0  0  3  0  0  0  0  0  0
   37.7630   22.7900   39.2020 C   0  0  0  0  0  0  0  0  0  0  0  0
   38.1450   22.0790   38.1440 N   0  0  0  0  0  0  0  0  0  0  0  0
   37.1980   21.7870   37.2160 C   0  0  0  0  0  0  0  0  0  0  0  0
   37.4980   21.2010   36.3360 H   0  0  0  0  0  0  0  0  0  0  0  0
   35.8740   22.1900   37.3240 C   0  0  0  0  0  3  0  0  0  0  0  0
   35.4750   22.9300   38.4250 C   0  0  0  0  0  3  0  0  0  0  0  0
   36.4620   23.2170   39.3600 C   0  0  0  0  0  0  0  0  0  0  0  0
   36.0420   23.9540   40.4460 C   0  0  0  0  0  3  0  0  0  0  0  0
  1  2  1  0  0  0  0
  2  8  1  0  0  0  0
  2  3  2  0  0  0  0
  3 26  1  0  0  0  0
  4  3  1  0  0  0  0
  5  4  2  0  0  0  0
  6  1  2  0  0  0  0
  6  5  1  0  0  0  0
  7  1  1  0  0  0  0
  9 15  1  6  0  0  0
  9  5  1  0  0  0  0
  9 14  1  0  0  0  0
 10  9  1  0  0  0  0
 10 11  1  0  0  0  0
 11 12  1  0  0  0  0
 11 18  1  0  0  0  0
 12 21  1  0  0  0  0
 12 13  1  0  0  0  0
 13 22  1  0  0  0  0
 14 13  2  0  0  0  0
 14 23  1  0  0  0  0
 16 10  1  0  0  0  0
 17 10  1  0  0  0  0
 19 11  1  0  0  0  0
 20 12  1  0  0  0  0
 23 25  1  0  0  0  0
 24 23  1  0  0  0  0
 26 31  2  0  0  0  0
 26 27  1  0  0  0  0
 27 28  2  0  0  0  0
 28 33  1  0  0  0  0
 29 28  1  0  0  0  0
 29 34  1  0  0  0  0
 30 35  1  0  0  0  0
 30 29  2  0  0  0  0
 31 30  1  0  0  0  0
 32 27  1  0  0  0  0
 36 35  1  0  0  0  0
 37 36  1  0  0  0  0
 37 38  1  0  0  0  0
 39 37  2  0  0  0  0
 40 46  1  0  0  0  0
 40 39  1  0  0  0  0
 41 40  2  0  0  0  0
 42 44  2  0  0  0  0
 42 41  1  0  0  0  0
 43 42  1  0  0  0  0
 44 45  1  0  0  0  0
 45 46  2  0  0  0  0
 46 47  1  0  0  0  0
 47 36  2  0  0  0  0
M  END
>  <minimizedAffinity>
-6.82493305

$$$$

 OpenBabel03252505133D

 47 51  0  0  1  0  0  0  0  0999 V2000
   35.8110   24.5200   38.8610 C   0  0  0  0  0  0  0  0  0  0  0  0
   35.9280   25.7740   38.2150 C   0  0  0  0  0  0  0  0  0  0  0  0
   36.5580   26.8290   38.9480 C   0  0  0  0  0  0  0  0  0  0  0  0
   37.0040   26.5860   40.2010 N   0  0  0  0  0  0  0  0  0  0  0  0
   36.8730   25.3860   40.7750 C   0  0  0  0  0  0  0  0  0  0  0  0
   36.2740   24.3390   40.1090 N   0  0  0  0  0  0  0  0  0  0  0  0
   35.3330   23.7260   38.3020 H   0  0  0  0  0  0  0  0  0  0  0  0
   35.5570   25.9270   37.2100 H   0  0  0  0  0  0  0  0  0  0  0  0
   37.3740   25.1620   42.1580 C   0  0  2  0  0  0  0  0  0  0  0  0
   37.5430   26.5530   42.7340 C   0  0  0  0  0  0  0  0  0  0  0  0
   38.9240   27.0520   42.8470 C   0  0  0  0  0  0  0  0  0  0  0  0
   39.6500   25.9930   43.6790 C   0  0  0  0  0  0  0  0  0  0  0  0
   39.7750   24.7090   42.9720 C   0  0  0  0  0  0  0  0  0  0  0  0
   38.5500   24.3410   42.2000 C   0  0  0  0  0  0  0  0  0  0  0  0
   36.5340   24.6470   42.6840 H   0  0  0  0  0  0  0  0  0  0  0  0
   36.9500   27.3250   42.1950 H   0  0  0  0  0  0  0  0  0  0  0  0
   37.1070   26.5370   43.7580 H   0  0  0  0  0  0  0  0  0  0  0  0
   39.3710   27.1700   41.8550 H   0  0  0  0  0  0  0  0  0  0  0  0
   38.9220   27.9530   43.4580 H   0  0  0  0  0  0  0  0  0  0  0  0
   39.1040   25.8910   44.6380 H   0  0  0  0  0  0  0  0  0  0  0  0
   40.6670   26.3740   43.7960 H   0  0  0  0  0  0  0  0  0  0  0  0
   40.5590   23.9980   42.9030 H   0  0  0  0  0  0  0  0  0  0  0  0
   38.5190   23.1210   41.4570 N   0  0  0  0  0  0  0  0  0  0  0  0
   37.9610   22.4960   42.0800 H   0  0  0  0  0  0  0  0  0  0  0  0
   39.0150   23.0940   40.5220 H   0  0  0  0  0  0  0  0  0  0  0  0
   36.6990   28.1350   38.3130 C   0  0  0  0  0  0  0  0  0  0  0  0
   36.6810   28.2110   36.9680 C   0  0  0  0  0  0  0  0  0  0  0  0
   36.8220   29.5020   36.4210 C   0  0  0  0  0  0  0  0  0  0  0  0
   36.9630   30.5530   37.3150 C   0  0  0  0  0  0  0  0  0  0  0  0
   36.9810   30.4660   38.6850 C   0  0  0  0  0  0  0  0  0  0  0  0
   36.8400   29.1890   39.1470 N   0  0  0  0  0  0  0  0  0  0  0  0
   36.5680   27.3460   36.3520 H   0  0  0  0  0  0  0  0  0  0  0  0
   36.8170   29.6450   35.3630 H   0  0  0  0  0  0  0  0  0  0  0  0
   37.0670   31.5230   36.8420 H   0  0  0  0  0  0  0  0  0  0  0  0
   37.1270   31.5660   39.4950 O   0  0  0  0  0  0  0  0  0  0  0  0
   38.3930   31.7760   40.0440 C   0  0  0  0  0  0  0  0  0  0  0  0
   39.1040   32.7380   39.3200 C   0  0  0  0  0  0  0  0  0  0  0  0
   38.7650   33.2680   38.4540 H   0  0  0  0  0  0  0  0  0  0  0  0
   40.3940   33.0470   39.7640 C   0  0  0  0  0  3  0  0  0  0  0  0
   40.9690   32.4540   40.8560 C   0  0  0  0  0  0  0  0  0  0  0  0
   42.2000   32.7800   41.2430 N   0  0  0  0  0  0  0  0  0  0  0  0
   42.6960   32.1460   42.3360 C   0  0  0  0  0  0  0  0  0  0  0  0
   43.7130   32.4030   42.6680 H   0  0  0  0  0  0  0  0  0  0  0  0
   41.9860   31.1920   43.0530 C   0  0  0  0  0  3  0  0  0  0  0  0
   40.7050   30.8520   42.6510 C   0  0  0  0  0  3  0  0  0  0  0  0
   40.2200   31.5150   41.5300 C   0  0  0  0  0  0  0  0  0  0  0  0
   38.9430   31.1600   41.1500 C   0  0  0  0  0  3  0  0  0  0  0  0
  1  6  1  0  0  0  0
  2  1  2  0  0  0  0
  2  3  1  0  0  0  0
  3  4  2  0  0  0  0
  4  5  1  0  0  0  0
  5  9  1  0  0  0  0
  6  5  2  0  0  0  0
  7  1  1  0  0  0  0
  8  2  1  0  0  0  0
  9 14  1  0  0  0  0
  9 15  1  1  0  0  0
  9 10  1  0  0  0  0
 10 11  1  0  0  0  0
 10 17  1  0  0  0  0
 11 19  1  0  0  0  0
 11 12  1  0  0  0  0
 12 21  1  0  0  0  0
 12 20  1  0  0  0  0
 13 12  1  0  0  0  0
 14 13  2  0  0  0  0
 16 10  1  0  0  0  0
 18 11  1  0  0  0  0
 22 13  1  0  0  0  0
 23 24  1  0  0  0  0
 23 14  1  0  0  0  0
 25 23  1  0  0  0  0
 26  3  1  0  0  0  0
 26 31  1  0  0  0  0
 27 26  2  0  0  0  0
 28 27  1  0  0  0  0
 28 29  2  0  0  0  0
 29 30  1  0  0  0  0
 30 31  2  0  0  0  0
 30 35  1  0  0  0  0
 32 27  1  0  0  0  0
 33 28  1  0  0  0  0
 34 29  1  0  0  0  0
 35 36  1  0  0  0  0
 36 47  1  0  0  0  0
 37 39  1  0  0  0  0
 37 36  2  0  0  0  0
 38 37  1  0  0  0  0
 39 40  2  0  0  0  0
 40 41  1  0  0  0  0
 40 46  1  0  0  0  0
 41 42  2  0  0  0  0
 42 43  1  0  0  0  0
 42 44  1  0  0  0  0
 45 44  2  0  0  0  0
 46 45  1  0  0  0  0
 47 46  2  0  0  0  0
M  END
>  <minimizedAffinity>
-6.71774006

$$$$

 OpenBabel03252505133D

 47 51  0  0  1  0  0  0  0  0999 V2000
   34.6340   29.0870   34.8790 C   0  0  0  0  0  0  0  0  0  0  0  0
   34.8640   27.8530   35.5330 C   0  0  0  0  0  0  0  0  0  0  0  0
   33.7590   27.2670   36.2270 C   0  0  0  0  0  0  0  0  0  0  0  0
   32.5670   27.9070   36.2280 N   0  0  0  0  0  0  0  0  0  0  0  0
   32.3930   29.0720   35.5980 C   0  0  0  0  0  0  0  0  0  0  0  0
   33.4270   29.6750   34.9150 N   0  0  0  0  0  0  0  0  0  0  0  0
   35.4740   29.5250   34.3550 H   0  0  0  0  0  0  0  0  0  0  0  0
   35.8340   27.3730   35.5070 H   0  0  0  0  0  0  0  0  0  0  0  0
   31.0660   29.7460   35.6280 C   0  0  2  0  0  0  0  0  0  0  0  0
   31.0630   30.6380   34.4030 C   0  0  0  0  0  0  0  0  0  0  0  0
   31.2450   32.0790   34.6420 C   0  0  0  0  0  0  0  0  0  0  0  0
   30.1340   32.4500   35.6270 C   0  0  0  0  0  0  0  0  0  0  0  0
   30.3200   31.8280   36.9470 C   0  0  0  0  0  0  0  0  0  0  0  0
   30.8090   30.4180   36.8690 C   0  0  0  0  0  0  0  0  0  0  0  0
   30.3270   28.9210   35.4830 H   0  0  0  0  0  0  0  0  0  0  0  0
   31.8040   30.3290   33.6340 H   0  0  0  0  0  0  0  0  0  0  0  0
   30.0770   30.5020   33.9050 H   0  0  0  0  0  0  0  0  0  0  0  0
   32.2400   32.2770   35.0540 H   0  0  0  0  0  0  0  0  0  0  0  0
   31.0140   32.6180   33.7250 H   0  0  0  0  0  0  0  0  0  0  0  0
   29.1690   32.1670   35.1640 H   0  0  0  0  0  0  0  0  0  0  0  0
   30.2420   33.5270   35.7820 H   0  0  0  0  0  0  0  0  0  0  0  0
   30.1780   32.1810   37.9370 H   0  0  0  0  0  0  0  0  0  0  0  0
   31.0410   29.6800   38.0700 N   0  0  0  0  0  0  0  0  0  0  0  0
   30.1910   29.0750   38.1270 H   0  0  0  0  0  0  0  0  0  0  0  0
   31.9330   29.8700   38.6080 H   0  0  0  0  0  0  0  0  0  0  0  0
   33.9570   25.9930   36.9110 C   0  0  0  0  0  0  0  0  0  0  0  0
   32.9890   25.0580   36.8370 C   0  0  0  0  0  0  0  0  0  0  0  0
   33.2460   23.8520   37.5190 C   0  0  0  0  0  0  0  0  0  0  0  0
   34.4560   23.7520   38.1890 C   0  0  0  0  0  0  0  0  0  0  0  0
   35.4360   24.7110   38.2590 C   0  0  0  0  0  0  0  0  0  0  0  0
   35.1230   25.8510   37.5780 N   0  0  0  0  0  0  0  0  0  0  0  0
   32.0840   25.2190   36.2970 H   0  0  0  0  0  0  0  0  0  0  0  0
   32.5280   23.0610   37.5090 H   0  0  0  0  0  0  0  0  0  0  0  0
   34.6020   22.8040   38.6960 H   0  0  0  0  0  0  0  0  0  0  0  0
   36.6080   24.5230   38.9500 O   0  0  0  0  0  0  0  0  0  0  0  0
   36.8220   25.3480   40.0560 C   0  0  0  0  0  0  0  0  0  0  0  0
   36.8690   24.6040   41.2390 C   0  0  0  0  0  0  0  0  0  0  0  0
   36.7600   23.5430   41.3340 H   0  0  0  0  0  0  0  0  0  0  0  0
   37.0790   25.3090   42.4290 C   0  0  0  0  0  3  0  0  0  0  0  0
   37.2370   26.6690   42.4720 C   0  0  0  0  0  0  0  0  0  0  0  0
   37.4360   27.2980   43.6280 N   0  0  0  0  0  0  0  0  0  0  0  0
   37.5830   28.6470   43.5840 C   0  0  0  0  0  0  0  0  0  0  0  0
   37.7470   29.1820   44.5310 H   0  0  0  0  0  0  0  0  0  0  0  0
   37.5360   29.3820   42.4070 C   0  0  0  0  0  3  0  0  0  0  0  0
   37.3300   28.7280   41.2030 C   0  0  0  0  0  3  0  0  0  0  0  0
   37.1820   27.3480   41.2750 C   0  0  0  0  0  0  0  0  0  0  0  0
   36.9780   26.7200   40.0650 C   0  0  0  0  0  3  0  0  0  0  0  0
  1  6  2  0  0  0  0
  1  2  1  0  0  0  0
  2  3  2  0  0  0  0
  3  4  1  0  0  0  0
  3 26  1  0  0  0  0
  5  9  1  0  0  0  0
  5  4  2  0  0  0  0
  6  5  1  0  0  0  0
  7  1  1  0  0  0  0
  8  2  1  0  0  0  0
  9 15  1  6  0  0  0
  9 14  1  0  0  0  0
 10 11  1  0  0  0  0
 10  9  1  0  0  0  0
 11 18  1  0  0  0  0
 11 12  1  0  0  0  0
 12 21  1  0  0  0  0
 12 13  1  0  0  0  0
 13 22  1  0  0  0  0
 14 13  2  0  0  0  0
 14 23  1  0  0  0  0
 16 10  1  0  0  0  0
 17 10  1  0  0  0  0
 19 11  1  0  0  0  0
 20 12  1  0  0  0  0
 23 24  1  0  0  0  0
 23 25  1  0  0  0  0
 26 31  1  0  0  0  0
 27 26  2  0  0  0  0
 27 28  1  0  0  0  0
 28 29  2  0  0  0  0
 29 30  1  0  0  0  0
 29 34  1  0  0  0  0
 30 35  1  0  0  0  0
 31 30  2  0  0  0  0
 32 27  1  0  0  0  0
 33 28  1  0  0  0  0
 35 36  1  0  0  0  0
 36 47  2  0  0  0  0
 36 37  1  0  0  0  0
 37 38  1  0  0  0  0
 37 39  2  0  0  0  0
 39 40  1  0  0  0  0
 40 41  1  0  0  0  0
 42 41  2  0  0  0  0
 42 43  1  0  0  0  0
 44 42  1  0  0  0  0
 45 46  1  0  0  0  0
 45 44  2  0  0  0  0
 46 40  2  0  0  0  0
 47 46  1  0  0  0  0
M  END
>  <minimizedAffinity>
-6.71188879

$$$$

 OpenBabel03252505133D

 47 51  0  0  1  0  0  0  0  0999 V2000
   36.4450   29.3590   34.7290 C   0  0  0  0  0  0  0  0  0  0  0  0
   36.5660   30.2370   35.8340 C   0  0  0  0  0  0  0  0  0  0  0  0
   36.8600   29.6490   37.1040 C   0  0  0  0  0  0  0  0  0  0  0  0
   37.0060   28.3080   37.1920 N   0  0  0  0  0  0  0  0  0  0  0  0
   36.8840   27.5150   36.1240 C   0  0  0  0  0  0  0  0  0  0  0  0
   36.6020   28.0340   34.8800 N   0  0  0  0  0  0  0  0  0  0  0  0
   36.2220   29.8090   33.7700 H   0  0  0  0  0  0  0  0  0  0  0  0
   36.4410   31.3060   35.7200 H   0  0  0  0  0  0  0  0  0  0  0  0
   37.0480   26.0420   36.2650 C   0  0  2  0  0  0  0  0  0  0  0  0
   35.7660   25.5760   36.9240 C   0  0  0  0  0  0  0  0  0  0  0  0
   35.8540   25.2220   38.3510 C   0  0  0  0  0  0  0  0  0  0  0  0
   36.9540   24.1610   38.4180 C   0  0  0  0  0  0  0  0  0  0  0  0
   38.2810   24.7030   38.0870 C   0  0  0  0  0  0  0  0  0  0  0  0
   38.2520   25.6780   36.9550 C   0  0  0  0  0  0  0  0  0  0  0  0
   37.0820   25.6590   35.2170 H   0  0  0  0  0  0  0  0  0  0  0  0
   34.9260   26.2960   36.8070 H   0  0  0  0  0  0  0  0  0  0  0  0
   35.4280   24.6690   36.3740 H   0  0  0  0  0  0  0  0  0  0  0  0
   36.0990   26.1050   38.9500 H   0  0  0  0  0  0  0  0  0  0  0  0
   34.9380   24.7120   38.6420 H   0  0  0  0  0  0  0  0  0  0  0  0
   36.6600   23.3330   37.7440 H   0  0  0  0  0  0  0  0  0  0  0  0
   37.0010   23.8690   39.4700 H   0  0  0  0  0  0  0  0  0  0  0  0
   39.2480   24.5400   38.4920 H   0  0  0  0  0  0  0  0  0  0  0  0
   39.4650   26.2940   36.5180 N   0  0  0  0  0  0  0  0  0  0  0  0
   39.6950   25.7470   35.6590 H   0  0  0  0  0  0  0  0  0  0  0  0
   39.8500   27.0980   37.0900 H   0  0  0  0  0  0  0  0  0  0  0  0
   36.9950   30.5230   38.2660 C   0  0  0  0  0  0  0  0  0  0  0  0
   37.3210   31.8160   38.0730 C   0  0  0  0  0  0  0  0  0  0  0  0
   37.4330   32.6030   39.2360 C   0  0  0  0  0  0  0  0  0  0  0  0
   37.1990   31.9720   40.4490 C   0  0  0  0  0  0  0  0  0  0  0  0
   36.8680   30.6520   40.6350 C   0  0  0  0  0  0  0  0  0  0  0  0
   36.7760   29.9500   39.4690 N   0  0  0  0  0  0  0  0  0  0  0  0
   37.4840   32.2210   37.0990 H   0  0  0  0  0  0  0  0  0  0  0  0
   37.6880   33.6380   39.1680 H   0  0  0  0  0  0  0  0  0  0  0  0
   37.2990   32.6230   41.3110 H   0  0  0  0  0  0  0  0  0  0  0  0
   36.6550   30.1110   41.8800 O   0  0  0  0  0  0  0  0  0  0  0  0
   37.3060   28.9090   42.1610 C   0  0  0  0  0  0  0  0  0  0  0  0
   38.5240   29.1340   42.8100 C   0  0  0  0  0  0  0  0  0  0  0  0
   38.9430   30.0830   43.0760 H   0  0  0  0  0  0  0  0  0  0  0  0
   39.2830   28.0100   43.1520 C   0  0  0  0  0  3  0  0  0  0  0  0
   38.8830   26.7290   42.8780 C   0  0  0  0  0  0  0  0  0  0  0  0
   39.6380   25.6880   43.2220 N   0  0  0  0  0  0  0  0  0  0  0  0
   39.1690   24.4520   42.9150 C   0  0  0  0  0  0  0  0  0  0  0  0
   39.7820   23.5810   43.1920 H   0  0  0  0  0  0  0  0  0  0  0  0
   37.9590   24.2330   42.2710 C   0  0  0  0  0  3  0  0  0  0  0  0
   37.1720   25.3150   41.9120 C   0  0  0  0  0  3  0  0  0  0  0  0
   37.6740   26.5690   42.2380 C   0  0  0  0  0  0  0  0  0  0  0  0
   36.8740   27.6310   41.8710 C   0  0  0  0  0  3  0  0  0  0  0  0
  1  6  2  0  0  0  0
  1  2  1  0  0  0  0
  2  3  2  0  0  0  0
  3  4  1  0  0  0  0
  3 26  1  0  0  0  0
  5  9  1  0  0  0  0
  5  4  2  0  0  0  0
  6  5  1  0  0  0  0
  7  1  1  0  0  0  0
  8  2  1  0  0  0  0
  9 15  1  6  0  0  0
  9 10  1  0  0  0  0
  9 14  1  0  0  0  0
 10 11  1  0  0  0  0
 11 12  1  0  0  0  0
 11 19  1  0  0  0  0
 11 18  1  0  0  0  0
 12 21  1  0  0  0  0
 13 12  1  0  0  0  0
 13 22  1  0  0  0  0
 14 13  2  0  0  0  0
 16 10  1  0  0  0  0
 17 10  1  0  0  0  0
 20 12  1  0  0  0  0
 23 14  1  0  0  0  0
 23 25  1  0  0  0  0
 24 23  1  0  0  0  0
 26 31  1  0  0  0  0
 27 26  2  0  0  0  0
 27 28  1  0  0  0  0
 28 29  2  0  0  0  0
 29 30  1  0  0  0  0
 29 34  1  0  0  0  0
 30 35  1  0  0  0  0
 31 30  2  0  0  0  0
 32 27  1  0  0  0  0
 33 28  1  0  0  0  0
 35 36  1  0  0  0  0
 36 37  1  0  0  0  0
 37 38  1  0  0  0  0
 37 39  2  0  0  0  0
 40 39  1  0  0  0  0
 40 41  1  0  0  0  0
 42 43  1  0  0  0  0
 42 41  2  0  0  0  0
 44 42  1  0  0  0  0
 45 46  1  0  0  0  0
 45 44  2  0  0  0  0
 46 40  2  0  0  0  0
 47 36  2  0  0  0  0
 47 46  1  0  0  0  0
M  END
>  <minimizedAffinity>
-6.46903038

$$$$

 OpenBabel03252505133D

 47 51  0  0  1  0  0  0  0  0999 V2000
   42.2250   32.1030   37.3530 C   0  0  0  0  0  0  0  0  0  0  0  0
   40.8560   31.9240   37.6650 C   0  0  0  0  0  0  0  0  0  0  0  0
   40.5150   31.7840   39.0470 C   0  0  0  0  0  0  0  0  0  0  0  0
   41.4970   31.8270   39.9760 N   0  0  0  0  0  0  0  0  0  0  0  0
   42.7790   31.9980   39.6380 C   0  0  0  0  0  0  0  0  0  0  0  0
   43.1560   32.1380   38.3210 N   0  0  0  0  0  0  0  0  0  0  0  0
   42.4760   32.2080   36.3050 H   0  0  0  0  0  0  0  0  0  0  0  0
   40.1000   31.8950   36.8900 H   0  0  0  0  0  0  0  0  0  0  0  0
   43.8290   32.0360   40.6910 C   0  0  2  0  0  0  0  0  0  0  0  0
   44.3830   30.6260   40.7290 C   0  0  0  0  0  0  0  0  0  0  0  0
   43.9710   29.7910   41.8700 C   0  0  0  0  0  0  0  0  0  0  0  0
   44.3720   30.6000   43.1050 C   0  0  0  0  0  0  0  0  0  0  0  0
   43.5880   31.8370   43.2470 C   0  0  0  0  0  0  0  0  0  0  0  0
   43.3440   32.5310   41.9470 C   0  0  0  0  0  0  0  0  0  0  0  0
   44.6100   32.7250   40.2880 H   0  0  0  0  0  0  0  0  0  0  0  0
   44.1800   30.0500   39.8000 H   0  0  0  0  0  0  0  0  0  0  0  0
   45.4930   30.7130   40.7600 H   0  0  0  0  0  0  0  0  0  0  0  0
   42.8940   29.6010   41.8360 H   0  0  0  0  0  0  0  0  0  0  0  0
   44.5920   28.8970   41.8920 H   0  0  0  0  0  0  0  0  0  0  0  0
   45.4590   30.7990   43.0350 H   0  0  0  0  0  0  0  0  0  0  0  0
   44.1000   29.9700   43.9560 H   0  0  0  0  0  0  0  0  0  0  0  0
   43.1640   32.3290   44.0860 H   0  0  0  0  0  0  0  0  0  0  0  0
   42.5940   33.7460   41.9210 N   0  0  0  0  0  0  0  0  0  0  0  0
   43.3430   34.4680   41.8340 H   0  0  0  0  0  0  0  0  0  0  0  0
   41.5390   33.6830   41.9890 H   0  0  0  0  0  0  0  0  0  0  0  0
   39.1130   31.6000   39.4080 C   0  0  0  0  0  0  0  0  0  0  0  0
   38.1600   32.0600   38.5730 C   0  0  0  0  0  0  0  0  0  0  0  0
   36.8290   31.8490   38.9820 C   0  0  0  0  0  0  0  0  0  0  0  0
   36.6370   31.1950   40.1900 C   0  0  0  0  0  0  0  0  0  0  0  0
   37.6140   30.7300   41.0350 C   0  0  0  0  0  0  0  0  0  0  0  0
   38.8780   30.9670   40.5780 N   0  0  0  0  0  0  0  0  0  0  0  0
   38.3980   32.5550   37.6580 H   0  0  0  0  0  0  0  0  0  0  0  0
   36.0160   32.1840   38.3760 H   0  0  0  0  0  0  0  0  0  0  0  0
   35.5940   31.0590   40.4570 H   0  0  0  0  0  0  0  0  0  0  0  0
   37.3290   30.0920   42.2170 O   0  0  0  0  0  0  0  0  0  0  0  0
   37.7410   28.7630   42.3280 C   0  0  0  0  0  0  0  0  0  0  0  0
   36.8690   27.9060   41.6480 C   0  0  0  0  0  0  0  0  0  0  0  0
   35.9910   28.1860   41.1030 H   0  0  0  0  0  0  0  0  0  0  0  0
   37.1650   26.5390   41.6770 C   0  0  0  0  0  3  0  0  0  0  0  0
   38.2520   26.0250   42.3330 C   0  0  0  0  0  0  0  0  0  0  0  0
   38.4950   24.7170   42.3330 N   0  0  0  0  0  0  0  0  0  0  0  0
   39.5940   24.2890   43.0060 C   0  0  0  0  0  0  0  0  0  0  0  0
   39.8080   23.2100   43.0170 H   0  0  0  0  0  0  0  0  0  0  0  0
   40.4570   25.1430   43.6800 C   0  0  0  0  0  3  0  0  0  0  0  0
   40.2050   26.5050   43.6800 C   0  0  0  0  0  3  0  0  0  0  0  0
   39.0750   26.9170   42.9840 C   0  0  0  0  0  0  0  0  0  0  0  0
   38.8450   28.2760   42.9980 C   0  0  0  0  0  3  0  0  0  0  0  0
  1  2  2  0  0  0  0
  1  6  1  0  0  0  0
  2  3  1  0  0  0  0
  3 26  1  0  0  0  0
  3  4  2  0  0  0  0
  5  4  1  0  0  0  0
  5  9  1  0  0  0  0
  6  5  2  0  0  0  0
  7  1  1  0  0  0  0
  8  2  1  0  0  0  0
  9 15  1  6  0  0  0
  9 10  1  0  0  0  0
  9 14  1  0  0  0  0
 10 17  1  0  0  0  0
 10 11  1  0  0  0  0
 11 19  1  0  0  0  0
 11 12  1  0  0  0  0
 12 13  1  0  0  0  0
 12 21  1  0  0  0  0
 13 22  1  0  0  0  0
 14 13  2  0  0  0  0
 16 10  1  0  0  0  0
 18 11  1  0  0  0  0
 20 12  1  0  0  0  0
 23 14  1  0  0  0  0
 23 25  1  0  0  0  0
 24 23  1  0  0  0  0
 26 31  1  0  0  0  0
 27 28  1  0  0  0  0
 27 26  2  0  0  0  0
 28 29  2  0  0  0  0
 29 34  1  0  0  0  0
 29 30  1  0  0  0  0
 30 35  1  0  0  0  0
 31 30  2  0  0  0  0
 32 27  1  0  0  0  0
 33 28  1  0  0  0  0
 35 36  1  0  0  0  0
 36 47  1  0  0  0  0
 37 39  1  0  0  0  0
 37 36  2  0  0  0  0
 38 37  1  0  0  0  0
 39 40  2  0  0  0  0
 40 46  1  0  0  0  0
 41 40  1  0  0  0  0
 41 42  2  0  0  0  0
 42 43  1  0  0  0  0
 42 44  1  0  0  0  0
 44 45  2  0  0  0  0
 46 47  2  0  0  0  0
 46 45  1  0  0  0  0
M  END
>  <minimizedAffinity>
-6.44578743

$$$$
