
 OpenBabel03252506133D

 39 42  0  0  0  0  0  0  0  0999 V2000
   45.2680   33.3500   41.1960 F   0  0  0  0  0  0  0  0  0  0  0  0
   46.4210   33.9990   41.0570 C   0  0  0  0  0  0  0  0  0  0  0  0
   46.8920   34.7640   42.0990 C   0  0  0  0  0  0  0  0  0  0  0  0
   48.0920   35.4770   42.0400 C   0  0  0  0  0  0  0  0  0  0  0  0
   48.8620   35.4190   40.8770 C   0  0  0  0  0  0  0  0  0  0  0  0
   48.3550   34.6380   39.8550 C   0  0  0  0  0  0  0  0  0  0  0  0
   47.1890   33.9410   39.8990 C   0  0  0  0  0  0  0  0  0  0  0  0
   48.3930   36.0580   42.9050 H   0  0  0  0  0  0  0  0  0  0  0  0
   49.7810   35.9820   40.8740 H   0  0  0  0  0  0  0  0  0  0  0  0
   49.0490   34.6720   39.0200 H   0  0  0  0  0  0  0  0  0  0  0  0
   45.6960   34.0540   45.4980 C   0  0  0  0  0  0  0  0  0  0  0  0
   44.6960   35.0390   45.6640 C   0  0  0  0  0  0  0  0  0  0  0  0
   44.4350   35.9480   44.6020 C   0  0  0  0  0  0  0  0  0  0  0  0
   45.1870   35.7990   43.4720 N   0  0  0  0  0  0  0  0  0  0  0  0
   46.1230   34.8590   43.3500 C   0  0  0  0  0  0  0  0  0  0  0  0
   46.3710   33.9980   44.3540 N   0  0  0  0  0  0  0  0  0  0  0  0
   44.1120   35.1400   46.5650 H   0  0  0  0  0  0  0  0  0  0  0  0
   43.6810   36.7080   44.6970 H   0  0  0  0  0  0  0  0  0  0  0  0
   45.9420   33.1590   46.5660 N   0  0  0  0  0  0  0  0  0  0  0  0
   45.9350   33.5790   47.5220 H   0  0  0  0  0  0  0  0  0  0  0  0
   46.1310   32.1310   46.5500 H   0  0  0  0  0  0  0  0  0  0  0  0
   46.7810   33.2000   38.8240 O   0  0  0  0  0  0  0  0  0  0  0  0
   48.0300   34.6980   37.0230 O   0  0  0  0  0  0  0  0  0  0  0  0
   47.2210   33.4350   37.2150 P   0  0  2  0  0  0  0  0  0  0  0  0
   45.8110   33.4810   36.2680 O   0  0  0  0  0  0  0  0  0  0  0  0
   45.8770   33.0080   35.4250 H   0  0  0  0  0  0  0  0  0  0  0  0
   48.1270   32.1390   36.5940 O   0  0  0  0  0  0  0  0  0  0  0  0
   48.1130   31.7790   35.2400 C   0  0  0  0  0  0  0  0  0  0  0  0
   47.5090   30.6120   34.7930 C   0  0  0  0  0  0  0  0  0  0  0  0
   47.0460   29.9760   35.5140 H   0  0  0  0  0  0  0  0  0  0  0  0
   47.5450   30.3390   33.4330 C   0  0  0  0  0  3  0  0  0  0  0  0
   48.1660   31.2180   32.5680 C   0  0  0  0  0  0  0  0  0  0  0  0
   48.2300   31.0020   31.2350 N   0  0  0  0  0  0  0  0  0  0  0  0
   48.8510   31.8890   30.4100 C   0  0  0  0  0  0  0  0  0  0  0  0
   48.8940   31.7010   29.3360 H   0  0  0  0  0  0  0  0  0  0  0  0
   49.4530   33.0520   30.8450 C   0  0  0  0  0  3  0  0  0  0  0  0
   49.4070   33.3080   32.2200 C   0  0  0  0  0  3  0  0  0  0  0  0
   48.7660   32.3780   33.0110 C   0  0  0  0  0  0  0  0  0  0  0  0
   48.7460   32.6790   34.3760 C   0  0  0  0  0  3  0  0  0  0  0  0
  2  1  1  0  0  0  0
  2  3  1  0  0  0  0
  3 15  1  0  0  0  0
  4  3  2  0  0  0  0
  4  8  1  0  0  0  0
  5  4  1  0  0  0  0
  6  7  1  0  0  0  0
  6  5  2  0  0  0  0
  7  2  2  0  0  0  0
  9  5  1  0  0  0  0
 10  6  1  0  0  0  0
 11 12  1  0  0  0  0
 11 19  1  0  0  0  0
 12 17  1  0  0  0  0
 13 18  1  0  0  0  0
 13 12  2  0  0  0  0
 14 13  1  0  0  0  0
 15 14  2  0  0  0  0
 15 16  1  0  0  0  0
 16 11  2  0  0  0  0
 19 20  1  0  0  0  0
 21 19  1  0  0  0  0
 22  7  1  0  0  0  0
 24 23  2  6  0  0  0
 24 22  1  0  0  0  0
 25 24  1  0  0  0  0
 26 25  1  0  0  0  0
 27 24  1  0  0  0  0
 28 27  1  0  0  0  0
 29 28  1  0  0  0  0
 29 30  1  0  0  0  0
 31 29  2  0  0  0  0
 32 38  1  0  0  0  0
 32 31  1  0  0  0  0
 33 32  2  0  0  0  0
 34 36  2  0  0  0  0
 34 33  1  0  0  0  0
 35 34  1  0  0  0  0
 36 37  1  0  0  0  0
 37 38  2  0  0  0  0
 38 39  1  0  0  0  0
 39 28  2  0  0  0  0
M  END
>  <minimizedAffinity>
-7.82765102

>  <minimizedRMSD>
2.918998

$$$$
