
 OpenBabel03252504513D

 37 40  0  0  0  0  0  0  0  0999 V2000
   37.0980   31.4410   40.5490 C   0  0  0  0  0  0  0  0  0  0  0  0
   37.0540   30.4690   39.5370 C   0  0  0  0  0  0  0  0  0  0  0  0
   38.2280   30.2350   38.8360 C   0  0  0  0  0  0  0  0  0  0  0  0
   39.3290   30.9610   39.1780 N   0  0  0  0  0  0  0  0  0  0  0  0
   39.3430   31.8790   40.1450 C   0  0  0  0  0  0  0  0  0  0  0  0
   38.2150   32.1310   40.8480 N   0  0  0  0  0  0  0  0  0  0  0  0
   36.2510   31.7040   41.1570 H   0  0  0  0  0  0  0  0  0  0  0  0
   38.2370   29.5010   38.0540 H   0  0  0  0  0  0  0  0  0  0  0  0
   41.1270   30.5920   42.2640 Cl  0  0  0  0  0  0  0  0  0  0  0  0
   41.4380   32.1080   41.4020 C   0  0  0  0  0  0  0  0  0  0  0  0
   40.5610   32.6130   40.4510 C   0  0  0  0  0  0  0  0  0  0  0  0
   40.8330   33.7900   39.8010 C   0  0  0  0  0  0  0  0  0  0  0  0
   41.9990   34.4790   40.1040 C   0  0  0  0  0  0  0  0  0  0  0  0
   42.8440   33.9460   41.0530 C   0  0  0  0  0  0  0  0  0  0  0  0
   44.2990   34.8520   41.3990 Cl  0  0  0  0  0  0  0  0  0  0  0  0
   42.6070   32.7710   41.7250 C   0  0  0  0  0  0  0  0  0  0  0  0
   40.1520   34.1930   39.0540 H   0  0  0  0  0  0  0  0  0  0  0  0
   42.2260   35.4100   39.5980 H   0  0  0  0  0  0  0  0  0  0  0  0
   43.3230   32.4230   42.4560 H   0  0  0  0  0  0  0  0  0  0  0  0
   35.8080   29.7880   39.2960 C   0  0  0  0  0  0  0  0  0  0  0  0
   35.8790   29.1900   38.3660 H   0  0  0  0  0  0  0  0  0  0  0  0
   34.9810   30.4990   39.1340 H   0  0  0  0  0  0  0  0  0  0  0  0
   35.4440   28.9610   40.4970 C   0  0  0  0  0  0  0  0  0  0  0  0
   35.3320   29.6900   41.3470 H   0  0  0  0  0  0  0  0  0  0  0  0
   34.4020   28.5830   40.3350 H   0  0  0  0  0  0  0  0  0  0  0  0
   36.3900   27.8880   40.8180 C   0  0  0  0  0  0  0  0  0  0  0  0
   36.5920   26.7690   40.0360 C   0  0  0  0  0  0  0  0  0  0  0  0
   36.0260   26.6580   39.1210 H   0  0  0  0  0  0  0  0  0  0  0  0
   37.5250   25.8370   40.4740 C   0  0  0  0  0  3  0  0  0  0  0  0
   38.2320   26.0290   41.6660 C   0  0  0  0  0  0  0  0  0  0  0  0
   39.1350   25.1250   42.0890 N   0  0  0  0  0  0  0  0  0  0  0  0
   39.8300   25.2800   43.2300 C   0  0  0  0  0  0  0  0  0  0  0  0
   40.5580   24.6060   43.6210 H   0  0  0  0  0  0  0  0  0  0  0  0
   39.6190   26.4000   44.0000 C   0  0  0  0  0  3  0  0  0  0  0  0
   38.7060   27.3700   43.6250 C   0  0  0  0  0  3  0  0  0  0  0  0
   38.0150   27.1510   42.4320 C   0  0  0  0  0  0  0  0  0  0  0  0
   37.0870   28.0930   42.0090 C   0  0  0  0  0  3  0  0  0  0  0  0
  1  6  1  0  0  0  0
  1  7  1  0  0  0  0
  2  1  2  0  0  0  0
  3  4  2  0  0  0  0
  3  2  1  0  0  0  0
  4  5  1  0  0  0  0
  5 11  1  0  0  0  0
  5  6  2  0  0  0  0
  8  3  1  0  0  0  0
 10 16  1  0  0  0  0
 10  9  1  0  0  0  0
 11 10  2  0  0  0  0
 12 13  2  0  0  0  0
 12 11  1  0  0  0  0
 13 14  1  0  0  0  0
 14 15  1  0  0  0  0
 14 16  2  0  0  0  0
 16 19  1  0  0  0  0
 17 12  1  0  0  0  0
 18 13  1  0  0  0  0
 20  2  1  0  0  0  0
 20 23  1  0  0  0  0
 21 20  1  0  0  0  0
 22 20  1  0  0  0  0
 23 26  1  0  0  0  0
 23 24  1  0  0  0  0
 25 23  1  0  0  0  0
 26 37  1  0  0  0  0
 27 29  1  0  0  0  0
 27 26  2  0  0  0  0
 28 27  1  0  0  0  0
 29 30  2  0  0  0  0
 30 31  1  0  0  0  0
 30 36  1  0  0  0  0
 31 32  2  0  0  0  0
 32 33  1  0  0  0  0
 32 34  1  0  0  0  0
 35 34  2  0  0  0  0
 36 35  1  0  0  0  0
 37 36  2  0  0  0  0
M  END
>  <minimizedAffinity>
-6.22520208

$$$$

 OpenBabel03252504513D

 37 40  0  0  0  0  0  0  0  0999 V2000
   38.7460   30.7280   38.9020 C   0  0  0  0  0  0  0  0  0  0  0  0
   37.7640   31.3940   39.6510 C   0  0  0  0  0  0  0  0  0  0  0  0
   38.1220   32.6060   40.2230 C   0  0  0  0  0  0  0  0  0  0  0  0
   39.3920   33.0570   40.0180 N   0  0  0  0  0  0  0  0  0  0  0  0
   40.3060   32.4030   39.3010 C   0  0  0  0  0  0  0  0  0  0  0  0
   39.9880   31.2170   38.7290 N   0  0  0  0  0  0  0  0  0  0  0  0
   38.5820   29.7840   38.4130 H   0  0  0  0  0  0  0  0  0  0  0  0
   37.4010   33.1480   40.8040 H   0  0  0  0  0  0  0  0  0  0  0  0
   42.2550   31.7890   41.5700 Cl  0  0  0  0  0  0  0  0  0  0  0  0
   42.6010   32.7250   40.1060 C   0  0  0  0  0  0  0  0  0  0  0  0
   41.6420   32.9500   39.1270 C   0  0  0  0  0  0  0  0  0  0  0  0
   41.9430   33.6790   38.0050 C   0  0  0  0  0  0  0  0  0  0  0  0
   43.2230   34.1940   37.8530 C   0  0  0  0  0  0  0  0  0  0  0  0
   44.1470   33.9500   38.8460 C   0  0  0  0  0  0  0  0  0  0  0  0
   45.7440   34.6210   38.6090 Cl  0  0  0  0  0  0  0  0  0  0  0  0
   43.8840   33.2250   39.9840 C   0  0  0  0  0  0  0  0  0  0  0  0
   41.1990   33.8600   37.2320 H   0  0  0  0  0  0  0  0  0  0  0  0
   43.4740   34.7720   36.9720 H   0  0  0  0  0  0  0  0  0  0  0  0
   44.6670   33.0800   40.7150 H   0  0  0  0  0  0  0  0  0  0  0  0
   36.4650   30.7830   39.7740 C   0  0  0  0  0  0  0  0  0  0  0  0
   36.4000   29.9000   39.1080 H   0  0  0  0  0  0  0  0  0  0  0  0
   35.6630   31.4660   39.4490 H   0  0  0  0  0  0  0  0  0  0  0  0
   36.1980   30.4510   41.2140 C   0  0  0  0  0  0  0  0  0  0  0  0
   36.4220   31.3900   41.7920 H   0  0  0  0  0  0  0  0  0  0  0  0
   35.0900   30.3310   41.3270 H   0  0  0  0  0  0  0  0  0  0  0  0
   36.9450   29.3000   41.7320 C   0  0  0  0  0  0  0  0  0  0  0  0
   37.8920   29.3730   42.7340 C   0  0  0  0  0  0  0  0  0  0  0  0
   38.1120   30.3350   43.1790 H   0  0  0  0  0  0  0  0  0  0  0  0
   38.5160   28.1940   43.1180 C   0  0  0  0  0  3  0  0  0  0  0  0
   38.1930   26.9750   42.5100 C   0  0  0  0  0  0  0  0  0  0  0  0
   38.7990   25.8330   42.8830 N   0  0  0  0  0  0  0  0  0  0  0  0
   38.5110   24.6460   42.3180 C   0  0  0  0  0  0  0  0  0  0  0  0
   38.9510   23.7070   42.5670 H   0  0  0  0  0  0  0  0  0  0  0  0
   37.5660   24.5870   41.3220 C   0  0  0  0  0  3  0  0  0  0  0  0
   36.9040   25.7230   40.8890 C   0  0  0  0  0  3  0  0  0  0  0  0
   37.2460   26.9230   41.5130 C   0  0  0  0  0  0  0  0  0  0  0  0
   36.6130   28.0930   41.1170 C   0  0  0  0  0  3  0  0  0  0  0  0
  1  2  1  0  0  0  0
  2 20  1  0  0  0  0
  2  3  2  0  0  0  0
  3  8  1  0  0  0  0
  4  3  1  0  0  0  0
  5  4  2  0  0  0  0
  6  1  2  0  0  0  0
  6  5  1  0  0  0  0
  7  1  1  0  0  0  0
 10  9  1  0  0  0  0
 11  5  1  0  0  0  0
 11 10  2  0  0  0  0
 12 11  1  0  0  0  0
 13 12  2  0  0  0  0
 13 14  1  0  0  0  0
 14 16  2  0  0  0  0
 15 14  1  0  0  0  0
 16 10  1  0  0  0  0
 16 19  1  0  0  0  0
 17 12  1  0  0  0  0
 18 13  1  0  0  0  0
 20 23  1  0  0  0  0
 21 20  1  0  0  0  0
 22 20  1  0  0  0  0
 23 25  1  0  0  0  0
 23 26  1  0  0  0  0
 23 24  1  0  0  0  0
 26 27  1  0  0  0  0
 27 29  2  0  0  0  0
 27 28  1  0  0  0  0
 30 31  1  0  0  0  0
 30 29  1  0  0  0  0
 32 33  1  0  0  0  0
 32 31  2  0  0  0  0
 34 32  1  0  0  0  0
 35 34  2  0  0  0  0
 35 36  1  0  0  0  0
 36 30  2  0  0  0  0
 37 36  1  0  0  0  0
 37 26  2  0  0  0  0
M  END
>  <minimizedAffinity>
-6.08405733

$$$$

 OpenBabel03252504513D

 37 40  0  0  0  0  0  0  0  0999 V2000
   37.5620   30.7320   38.7590 C   0  0  0  0  0  0  0  0  0  0  0  0
   37.6440   30.6690   40.1590 C   0  0  0  0  0  0  0  0  0  0  0  0
   38.9120   30.5600   40.7110 C   0  0  0  0  0  0  0  0  0  0  0  0
   39.9760   30.5230   39.8610 N   0  0  0  0  0  0  0  0  0  0  0  0
   39.8690   30.5850   38.5340 C   0  0  0  0  0  0  0  0  0  0  0  0
   38.6460   30.6920   37.9630 N   0  0  0  0  0  0  0  0  0  0  0  0
   36.6350   30.8180   38.2210 H   0  0  0  0  0  0  0  0  0  0  0  0
   39.0190   30.5090   41.7780 H   0  0  0  0  0  0  0  0  0  0  0  0
   41.3200   33.2520   38.2030 Cl  0  0  0  0  0  0  0  0  0  0  0  0
   41.7840   31.7020   37.4810 C   0  0  0  0  0  0  0  0  0  0  0  0
   41.0550   30.5390   37.6930 C   0  0  0  0  0  0  0  0  0  0  0  0
   41.4420   29.3540   37.1190 C   0  0  0  0  0  0  0  0  0  0  0  0
   42.5760   29.3260   36.3200 C   0  0  0  0  0  0  0  0  0  0  0  0
   43.2730   30.5000   36.1340 C   0  0  0  0  0  0  0  0  0  0  0  0
   44.6930   30.4120   35.1180 Cl  0  0  0  0  0  0  0  0  0  0  0  0
   42.9170   31.7050   36.6910 C   0  0  0  0  0  0  0  0  0  0  0  0
   40.8780   28.4380   37.2790 H   0  0  0  0  0  0  0  0  0  0  0  0
   42.8930   28.3980   35.8600 H   0  0  0  0  0  0  0  0  0  0  0  0
   43.5200   32.5810   36.4940 H   0  0  0  0  0  0  0  0  0  0  0  0
   36.4210   30.7200   40.9190 C   0  0  0  0  0  0  0  0  0  0  0  0
   35.8800   31.6610   40.6970 H   0  0  0  0  0  0  0  0  0  0  0  0
   36.6180   30.7350   42.0040 H   0  0  0  0  0  0  0  0  0  0  0  0
   35.6010   29.4940   40.6400 C   0  0  0  0  0  0  0  0  0  0  0  0
   34.5870   29.6960   41.0840 H   0  0  0  0  0  0  0  0  0  0  0  0
   35.4050   29.4700   39.5370 H   0  0  0  0  0  0  0  0  0  0  0  0
   36.1750   28.2390   41.1370 C   0  0  0  0  0  0  0  0  0  0  0  0
   36.5020   28.0020   42.4570 C   0  0  0  0  0  0  0  0  0  0  0  0
   36.3310   28.7810   43.1890 H   0  0  0  0  0  0  0  0  0  0  0  0
   37.0380   26.7610   42.7750 C   0  0  0  0  0  3  0  0  0  0  0  0
   37.2390   25.7870   41.7900 C   0  0  0  0  0  0  0  0  0  0  0  0
   37.7600   24.5860   42.1000 N   0  0  0  0  0  0  0  0  0  0  0  0
   37.9650   23.6300   41.1760 C   0  0  0  0  0  0  0  0  0  0  0  0
   38.3700   22.6600   41.3530 H   0  0  0  0  0  0  0  0  0  0  0  0
   37.6340   23.8780   39.8650 C   0  0  0  0  0  3  0  0  0  0  0  0
   37.0950   25.0920   39.4760 C   0  0  0  0  0  3  0  0  0  0  0  0
   36.9070   26.0440   40.4790 C   0  0  0  0  0  0  0  0  0  0  0  0
   36.3690   27.2790   40.1440 C   0  0  0  0  0  3  0  0  0  0  0  0
  1  2  1  0  0  0  0
  2  3  2  0  0  0  0
  2 20  1  0  0  0  0
  3  8  1  0  0  0  0
  4  3  1  0  0  0  0
  5  4  2  0  0  0  0
  6  5  1  0  0  0  0
  6  1  2  0  0  0  0
  7  1  1  0  0  0  0
 10 11  1  0  0  0  0
 10  9  1  0  0  0  0
 11  5  1  0  0  0  0
 12 17  1  0  0  0  0
 12 11  2  0  0  0  0
 13 12  1  0  0  0  0
 14 13  2  0  0  0  0
 14 16  1  0  0  0  0
 15 14  1  0  0  0  0
 16 10  2  0  0  0  0
 18 13  1  0  0  0  0
 19 16  1  0  0  0  0
 20 22  1  0  0  0  0
 21 20  1  0  0  0  0
 23 20  1  0  0  0  0
 23 24  1  0  0  0  0
 23 26  1  0  0  0  0
 25 23  1  0  0  0  0
 26 27  1  0  0  0  0
 27 29  2  0  0  0  0
 27 28  1  0  0  0  0
 30 31  1  0  0  0  0
 30 29  1  0  0  0  0
 32 33  1  0  0  0  0
 32 31  2  0  0  0  0
 34 32  1  0  0  0  0
 35 34  2  0  0  0  0
 35 36  1  0  0  0  0
 36 30  2  0  0  0  0
 37 36  1  0  0  0  0
 37 26  2  0  0  0  0
M  END
>  <minimizedAffinity>
-6.05211782

$$$$

 OpenBabel03252504513D

 37 40  0  0  0  0  0  0  0  0999 V2000
   38.9160   29.4700   40.8410 C   0  0  0  0  0  0  0  0  0  0  0  0
   37.9510   29.7100   41.8320 C   0  0  0  0  0  0  0  0  0  0  0  0
   36.7240   30.2020   41.4110 C   0  0  0  0  0  0  0  0  0  0  0  0
   36.5480   30.4160   40.0770 N   0  0  0  0  0  0  0  0  0  0  0  0
   37.4820   30.1790   39.1570 C   0  0  0  0  0  0  0  0  0  0  0  0
   38.6900   29.6980   39.5340 N   0  0  0  0  0  0  0  0  0  0  0  0
   39.9000   29.0880   41.0490 H   0  0  0  0  0  0  0  0  0  0  0  0
   35.9590   30.3990   42.1370 H   0  0  0  0  0  0  0  0  0  0  0  0
   35.9960   27.9430   37.7000 Cl  0  0  0  0  0  0  0  0  0  0  0  0
   36.5450   29.4760   37.0000 C   0  0  0  0  0  0  0  0  0  0  0  0
   37.2170   30.4330   37.7500 C   0  0  0  0  0  0  0  0  0  0  0  0
   37.6280   31.6100   37.1770 C   0  0  0  0  0  0  0  0  0  0  0  0
   37.3660   31.8380   35.8330 C   0  0  0  0  0  0  0  0  0  0  0  0
   36.6980   30.8650   35.1230 C   0  0  0  0  0  0  0  0  0  0  0  0
   36.3930   31.2000   33.4340 Cl  0  0  0  0  0  0  0  0  0  0  0  0
   36.2700   29.6740   35.6610 C   0  0  0  0  0  0  0  0  0  0  0  0
   38.1540   32.3670   37.7550 H   0  0  0  0  0  0  0  0  0  0  0  0
   37.6860   32.7630   35.3680 H   0  0  0  0  0  0  0  0  0  0  0  0
   35.7520   28.9630   35.0330 H   0  0  0  0  0  0  0  0  0  0  0  0
   38.2950   29.4320   43.2030 C   0  0  0  0  0  0  0  0  0  0  0  0
   38.1010   30.3250   43.8290 H   0  0  0  0  0  0  0  0  0  0  0  0
   39.3700   29.2130   43.3160 H   0  0  0  0  0  0  0  0  0  0  0  0
   37.5500   28.2150   43.6740 C   0  0  0  0  0  0  0  0  0  0  0  0
   37.6320   28.2210   44.7970 H   0  0  0  0  0  0  0  0  0  0  0  0
   36.4610   28.4020   43.4900 H   0  0  0  0  0  0  0  0  0  0  0  0
   38.0100   26.9470   43.1000 C   0  0  0  0  0  0  0  0  0  0  0  0
   39.2470   26.3860   43.3430 C   0  0  0  0  0  0  0  0  0  0  0  0
   39.9380   26.9000   43.9990 H   0  0  0  0  0  0  0  0  0  0  0  0
   39.5380   25.1770   42.7250 C   0  0  0  0  0  3  0  0  0  0  0  0
   38.6090   24.5520   41.8860 C   0  0  0  0  0  0  0  0  0  0  0  0
   38.8930   23.3810   41.2870 N   0  0  0  0  0  0  0  0  0  0  0  0
   38.0210   22.7560   40.4750 C   0  0  0  0  0  0  0  0  0  0  0  0
   38.1820   21.8300   39.9720 H   0  0  0  0  0  0  0  0  0  0  0  0
   36.7920   23.3260   40.2410 C   0  0  0  0  0  3  0  0  0  0  0  0
   36.4340   24.5290   40.8240 C   0  0  0  0  0  3  0  0  0  0  0  0
   37.3810   25.1290   41.6550 C   0  0  0  0  0  0  0  0  0  0  0  0
   37.0730   26.3370   42.2660 C   0  0  0  0  0  3  0  0  0  0  0  0
  1  7  1  0  0  0  0
  1  2  1  0  0  0  0
  2 20  1  0  0  0  0
  3  2  2  0  0  0  0
  3  8  1  0  0  0  0
  4  3  1  0  0  0  0
  5  6  1  0  0  0  0
  5  4  2  0  0  0  0
  6  1  2  0  0  0  0
 10  9  1  0  0  0  0
 10 11  1  0  0  0  0
 11  5  1  0  0  0  0
 12 11  2  0  0  0  0
 12 17  1  0  0  0  0
 13 12  1  0  0  0  0
 14 16  1  0  0  0  0
 14 13  2  0  0  0  0
 15 14  1  0  0  0  0
 16 10  2  0  0  0  0
 18 13  1  0  0  0  0
 19 16  1  0  0  0  0
 20 22  1  0  0  0  0
 20 23  1  0  0  0  0
 20 21  1  0  0  0  0
 23 24  1  0  0  0  0
 25 23  1  0  0  0  0
 26 27  1  0  0  0  0
 26 23  1  0  0  0  0
 27 28  1  0  0  0  0
 29 27  2  0  0  0  0
 30 29  1  0  0  0  0
 31 30  2  0  0  0  0
 32 31  1  0  0  0  0
 33 32  1  0  0  0  0
 34 32  2  0  0  0  0
 34 35  1  0  0  0  0
 35 36  2  0  0  0  0
 36 30  1  0  0  0  0
 36 37  1  0  0  0  0
 37 26  2  0  0  0  0
M  END
>  <minimizedAffinity>
-5.99223375

$$$$

 OpenBabel03252504513D

 37 40  0  0  0  0  0  0  0  0999 V2000
   37.1480   29.0890   39.5940 C   0  0  0  0  0  0  0  0  0  0  0  0
   36.7590   29.7000   40.7970 C   0  0  0  0  0  0  0  0  0  0  0  0
   36.5620   28.8700   41.8910 C   0  0  0  0  0  0  0  0  0  0  0  0
   36.7590   27.5320   41.7190 N   0  0  0  0  0  0  0  0  0  0  0  0
   37.1280   26.9780   40.5640 C   0  0  0  0  0  0  0  0  0  0  0  0
   37.3280   27.7600   39.4770 N   0  0  0  0  0  0  0  0  0  0  0  0
   37.3290   29.6320   38.6840 H   0  0  0  0  0  0  0  0  0  0  0  0
   36.2650   29.2970   42.8290 H   0  0  0  0  0  0  0  0  0  0  0  0
   35.5500   25.6280   38.3240 Cl  0  0  0  0  0  0  0  0  0  0  0  0
   36.6420   24.8350   39.4720 C   0  0  0  0  0  0  0  0  0  0  0  0
   37.3170   25.5400   40.4600 C   0  0  0  0  0  0  0  0  0  0  0  0
   38.1570   24.8950   41.3320 C   0  0  0  0  0  0  0  0  0  0  0  0
   38.3280   23.5220   41.2200 C   0  0  0  0  0  0  0  0  0  0  0  0
   37.6410   22.8580   40.2270 C   0  0  0  0  0  0  0  0  0  0  0  0
   37.8890   21.1300   40.1270 Cl  0  0  0  0  0  0  0  0  0  0  0  0
   36.7920   23.4680   39.3350 C   0  0  0  0  0  0  0  0  0  0  0  0
   38.6910   25.4380   42.1090 H   0  0  0  0  0  0  0  0  0  0  0  0
   38.9870   23.0000   41.9020 H   0  0  0  0  0  0  0  0  0  0  0  0
   36.2910   22.8720   38.5850 H   0  0  0  0  0  0  0  0  0  0  0  0
   36.5930   31.1310   40.8150 C   0  0  0  0  0  0  0  0  0  0  0  0
   37.1770   31.5670   41.6490 H   0  0  0  0  0  0  0  0  0  0  0  0
   35.5430   31.4150   41.0020 H   0  0  0  0  0  0  0  0  0  0  0  0
   36.9680   31.7000   39.4770 C   0  0  0  0  0  0  0  0  0  0  0  0
   37.0470   30.8190   38.7810 H   0  0  0  0  0  0  0  0  0  0  0  0
   36.0760   32.2590   39.0930 H   0  0  0  0  0  0  0  0  0  0  0  0
   38.1880   32.5130   39.4710 C   0  0  0  0  0  0  0  0  0  0  0  0
   38.4220   33.5720   40.3240 C   0  0  0  0  0  0  0  0  0  0  0  0
   37.6680   33.8360   41.0530 H   0  0  0  0  0  0  0  0  0  0  0  0
   39.6290   34.2470   40.1960 C   0  0  0  0  0  3  0  0  0  0  0  0
   40.5730   33.8650   39.2360 C   0  0  0  0  0  0  0  0  0  0  0  0
   41.7420   34.5210   39.1130 N   0  0  0  0  0  0  0  0  0  0  0  0
   42.6680   34.1770   38.2000 C   0  0  0  0  0  0  0  0  0  0  0  0
   43.6110   34.6520   38.0510 H   0  0  0  0  0  0  0  0  0  0  0  0
   42.4230   33.1200   37.3570 C   0  0  0  0  0  3  0  0  0  0  0  0
   41.2420   32.4010   37.4270 C   0  0  0  0  0  3  0  0  0  0  0  0
   40.3200   32.8060   38.3940 C   0  0  0  0  0  0  0  0  0  0  0  0
   39.1190   32.1190   38.5080 C   0  0  0  0  0  3  0  0  0  0  0  0
  1  2  1  0  0  0  0
  2 20  1  0  0  0  0
  2  3  2  0  0  0  0
  3  8  1  0  0  0  0
  4  3  1  0  0  0  0
  5  4  2  0  0  0  0
  6  1  2  0  0  0  0
  6  5  1  0  0  0  0
  7  1  1  0  0  0  0
  9 10  1  0  0  0  0
 10 11  1  0  0  0  0
 11  5  1  0  0  0  0
 11 12  2  0  0  0  0
 12 17  1  0  0  0  0
 13 12  1  0  0  0  0
 13 18  1  0  0  0  0
 14 13  2  0  0  0  0
 15 14  1  0  0  0  0
 16 10  2  0  0  0  0
 16 14  1  0  0  0  0
 19 16  1  0  0  0  0
 20 22  1  0  0  0  0
 20 21  1  0  0  0  0
 23 20  1  0  0  0  0
 24 23  1  0  0  0  0
 25 23  1  0  0  0  0
 26 23  1  0  0  0  0
 26 27  1  0  0  0  0
 27 28  1  0  0  0  0
 29 27  2  0  0  0  0
 30 29  1  0  0  0  0
 31 30  1  0  0  0  0
 32 31  2  0  0  0  0
 33 32  1  0  0  0  0
 34 35  2  0  0  0  0
 34 32  1  0  0  0  0
 35 36  1  0  0  0  0
 36 37  1  0  0  0  0
 36 30  2  0  0  0  0
 37 26  2  0  0  0  0
M  END
>  <minimizedAffinity>
-5.94645977

$$$$

 OpenBabel03252504513D

 37 40  0  0  0  0  0  0  0  0999 V2000
   37.7060   31.8500   39.3470 C   0  0  0  0  0  0  0  0  0  0  0  0
   37.6050   31.1900   40.5820 C   0  0  0  0  0  0  0  0  0  0  0  0
   38.7900   30.9130   41.2480 C   0  0  0  0  0  0  0  0  0  0  0  0
   39.9570   31.2980   40.6580 N   0  0  0  0  0  0  0  0  0  0  0  0
   40.0240   31.9230   39.4820 C   0  0  0  0  0  0  0  0  0  0  0  0
   38.8860   32.2090   38.8070 N   0  0  0  0  0  0  0  0  0  0  0  0
   36.8570   32.1160   38.7440 H   0  0  0  0  0  0  0  0  0  0  0  0
   38.7570   30.4100   42.1950 H   0  0  0  0  0  0  0  0  0  0  0  0
   41.1060   34.6180   40.4300 Cl  0  0  0  0  0  0  0  0  0  0  0  0
   41.8860   33.5100   39.2870 C   0  0  0  0  0  0  0  0  0  0  0  0
   41.3100   32.3020   38.9180 C   0  0  0  0  0  0  0  0  0  0  0  0
   41.9410   31.4670   38.0310 C   0  0  0  0  0  0  0  0  0  0  0  0
   43.1680   31.8420   37.5010 C   0  0  0  0  0  0  0  0  0  0  0  0
   43.7060   33.0480   37.8920 C   0  0  0  0  0  0  0  0  0  0  0  0
   45.2530   33.4750   37.1960 Cl  0  0  0  0  0  0  0  0  0  0  0  0
   43.1060   33.9110   38.7770 C   0  0  0  0  0  0  0  0  0  0  0  0
   41.4980   30.5180   37.7350 H   0  0  0  0  0  0  0  0  0  0  0  0
   43.6770   31.1920   36.7990 H   0  0  0  0  0  0  0  0  0  0  0  0
   43.5970   34.8400   39.0310 H   0  0  0  0  0  0  0  0  0  0  0  0
   36.2930   30.8500   41.0710 C   0  0  0  0  0  0  0  0  0  0  0  0
   35.6110   31.7140   40.9490 H   0  0  0  0  0  0  0  0  0  0  0  0
   36.3080   30.6270   42.1510 H   0  0  0  0  0  0  0  0  0  0  0  0
   35.8010   29.6130   40.3760 C   0  0  0  0  0  0  0  0  0  0  0  0
   34.6780   29.6880   40.3750 H   0  0  0  0  0  0  0  0  0  0  0  0
   36.0720   29.7110   39.2930 H   0  0  0  0  0  0  0  0  0  0  0  0
   36.2630   28.3490   40.9600 C   0  0  0  0  0  0  0  0  0  0  0  0
   36.5210   28.1620   42.3030 C   0  0  0  0  0  0  0  0  0  0  0  0
   36.3800   28.9890   42.9860 H   0  0  0  0  0  0  0  0  0  0  0  0
   36.9530   26.9050   42.7060 C   0  0  0  0  0  3  0  0  0  0  0  0
   37.1190   25.8670   41.7820 C   0  0  0  0  0  0  0  0  0  0  0  0
   37.5380   24.6500   42.1740 N   0  0  0  0  0  0  0  0  0  0  0  0
   37.7070   23.6330   41.3100 C   0  0  0  0  0  0  0  0  0  0  0  0
   38.0340   22.6480   41.5540 H   0  0  0  0  0  0  0  0  0  0  0  0
   37.4460   23.8330   39.9750 C   0  0  0  0  0  3  0  0  0  0  0  0
   37.0120   25.0600   39.5020 C   0  0  0  0  0  3  0  0  0  0  0  0
   36.8560   26.0760   40.4470 C   0  0  0  0  0  0  0  0  0  0  0  0
   36.4230   27.3250   40.0270 C   0  0  0  0  0  3  0  0  0  0  0  0
  1  2  1  0  0  0  0
  2 20  1  0  0  0  0
  2  3  2  0  0  0  0
  3  8  1  0  0  0  0
  4  3  1  0  0  0  0
  5  4  2  0  0  0  0
  6  1  2  0  0  0  0
  6  5  1  0  0  0  0
  7  1  1  0  0  0  0
 10  9  1  0  0  0  0
 11 10  1  0  0  0  0
 11  5  1  0  0  0  0
 12 11  2  0  0  0  0
 13 14  2  0  0  0  0
 13 12  1  0  0  0  0
 14 16  1  0  0  0  0
 15 14  1  0  0  0  0
 16 19  1  0  0  0  0
 16 10  2  0  0  0  0
 17 12  1  0  0  0  0
 18 13  1  0  0  0  0
 20 22  1  0  0  0  0
 21 20  1  0  0  0  0
 23 26  1  0  0  0  0
 23 20  1  0  0  0  0
 24 23  1  0  0  0  0
 25 23  1  0  0  0  0
 26 27  1  0  0  0  0
 27 29  2  0  0  0  0
 27 28  1  0  0  0  0
 30 31  1  0  0  0  0
 30 29  1  0  0  0  0
 32 33  1  0  0  0  0
 32 31  2  0  0  0  0
 34 32  1  0  0  0  0
 35 34  2  0  0  0  0
 35 36  1  0  0  0  0
 36 30  2  0  0  0  0
 37 36  1  0  0  0  0
 37 26  2  0  0  0  0
M  END
>  <minimizedAffinity>
-5.93775702

$$$$

 OpenBabel03252504513D

 37 40  0  0  0  0  0  0  0  0999 V2000
   38.0120   29.1680   39.0850 C   0  0  0  0  0  0  0  0  0  0  0  0
   36.7630   29.7940   39.2230 C   0  0  0  0  0  0  0  0  0  0  0  0
   35.6810   28.9810   39.5260 C   0  0  0  0  0  0  0  0  0  0  0  0
   35.9070   27.6440   39.6660 N   0  0  0  0  0  0  0  0  0  0  0  0
   37.1060   27.0760   39.5290 C   0  0  0  0  0  0  0  0  0  0  0  0
   38.1830   27.8410   39.2340 N   0  0  0  0  0  0  0  0  0  0  0  0
   38.9190   29.6970   38.8530 H   0  0  0  0  0  0  0  0  0  0  0  0
   34.7080   29.4190   39.6400 H   0  0  0  0  0  0  0  0  0  0  0  0
   37.1530   26.1070   42.4250 Cl  0  0  0  0  0  0  0  0  0  0  0  0
   37.3000   25.1020   40.9730 C   0  0  0  0  0  0  0  0  0  0  0  0
   37.2670   25.6400   39.6930 C   0  0  0  0  0  0  0  0  0  0  0  0
   37.3830   24.8330   38.5900 C   0  0  0  0  0  0  0  0  0  0  0  0
   37.5350   23.4640   38.7630 C   0  0  0  0  0  0  0  0  0  0  0  0
   37.5640   22.9680   40.0480 C   0  0  0  0  0  0  0  0  0  0  0  0
   37.7580   21.2380   40.2130 Cl  0  0  0  0  0  0  0  0  0  0  0  0
   37.4510   23.7430   41.1780 C   0  0  0  0  0  0  0  0  0  0  0  0
   37.3580   25.2450   37.5830 H   0  0  0  0  0  0  0  0  0  0  0  0
   37.6290   22.8160   37.9010 H   0  0  0  0  0  0  0  0  0  0  0  0
   37.4830   23.2730   42.1510 H   0  0  0  0  0  0  0  0  0  0  0  0
   36.6890   31.2220   39.0440 C   0  0  0  0  0  0  0  0  0  0  0  0
   35.7110   31.4950   38.6020 H   0  0  0  0  0  0  0  0  0  0  0  0
   37.4520   31.5810   38.3320 H   0  0  0  0  0  0  0  0  0  0  0  0
   36.9540   31.9090   40.3520 C   0  0  0  0  0  0  0  0  0  0  0  0
   36.0070   32.4630   40.6040 H   0  0  0  0  0  0  0  0  0  0  0  0
   37.0100   31.1140   41.1390 H   0  0  0  0  0  0  0  0  0  0  0  0
   38.1230   32.7950   40.3610 C   0  0  0  0  0  0  0  0  0  0  0  0
   38.0830   34.1390   40.0510 C   0  0  0  0  0  0  0  0  0  0  0  0
   37.1360   34.5890   39.7820 H   0  0  0  0  0  0  0  0  0  0  0  0
   39.2750   34.8480   40.1040 C   0  0  0  0  0  3  0  0  0  0  0  0
   40.4740   34.2190   40.4590 C   0  0  0  0  0  0  0  0  0  0  0  0
   41.6300   34.9070   40.5090 N   0  0  0  0  0  0  0  0  0  0  0  0
   42.7980   34.3310   40.8470 C   0  0  0  0  0  0  0  0  0  0  0  0
   43.7450   34.8170   40.9070 H   0  0  0  0  0  0  0  0  0  0  0  0
   42.8240   32.9910   41.1530 C   0  0  0  0  0  3  0  0  0  0  0  0
   41.6730   32.2230   41.1220 C   0  0  0  0  0  3  0  0  0  0  0  0
   40.4930   32.8770   40.7640 C   0  0  0  0  0  0  0  0  0  0  0  0
   39.3090   32.1530   40.7160 C   0  0  0  0  0  3  0  0  0  0  0  0
  1  2  2  0  0  0  0
  1  6  1  0  0  0  0
  2  3  1  0  0  0  0
  3  8  1  0  0  0  0
  3  4  2  0  0  0  0
  5  4  1  0  0  0  0
  5 11  1  0  0  0  0
  6  5  2  0  0  0  0
  7  1  1  0  0  0  0
 10 16  1  0  0  0  0
 10  9  1  0  0  0  0
 11 10  2  0  0  0  0
 12 13  2  0  0  0  0
 12 11  1  0  0  0  0
 13 14  1  0  0  0  0
 14 15  1  0  0  0  0
 14 16  2  0  0  0  0
 16 19  1  0  0  0  0
 17 12  1  0  0  0  0
 18 13  1  0  0  0  0
 20  2  1  0  0  0  0
 20 23  1  0  0  0  0
 21 20  1  0  0  0  0
 22 20  1  0  0  0  0
 23 26  1  0  0  0  0
 23 24  1  0  0  0  0
 23 25  1  0  0  0  0
 26 37  1  0  0  0  0
 27 29  1  0  0  0  0
 27 26  2  0  0  0  0
 28 27  1  0  0  0  0
 29 30  2  0  0  0  0
 30 31  1  0  0  0  0
 30 36  1  0  0  0  0
 31 32  2  0  0  0  0
 32 33  1  0  0  0  0
 32 34  1  0  0  0  0
 35 34  2  0  0  0  0
 36 35  1  0  0  0  0
 37 36  2  0  0  0  0
M  END
>  <minimizedAffinity>
-5.77239037

$$$$

 OpenBabel03252504513D

 37 40  0  0  0  0  0  0  0  0999 V2000
   39.4420   30.4190   38.4840 C   0  0  0  0  0  0  0  0  0  0  0  0
   39.3400   31.7040   39.0400 C   0  0  0  0  0  0  0  0  0  0  0  0
   38.0820   32.2880   39.0530 C   0  0  0  0  0  0  0  0  0  0  0  0
   37.0450   31.5770   38.5290 N   0  0  0  0  0  0  0  0  0  0  0  0
   37.1690   30.3570   38.0070 C   0  0  0  0  0  0  0  0  0  0  0  0
   38.3830   29.7580   37.9790 N   0  0  0  0  0  0  0  0  0  0  0  0
   40.3640   29.8700   38.4210 H   0  0  0  0  0  0  0  0  0  0  0  0
   37.9610   33.2700   39.4690 H   0  0  0  0  0  0  0  0  0  0  0  0
   35.2150   29.2860   40.0960 Cl  0  0  0  0  0  0  0  0  0  0  0  0
   35.0650   29.1380   38.3370 C   0  0  0  0  0  0  0  0  0  0  0  0
   36.0120   29.6610   37.4660 C   0  0  0  0  0  0  0  0  0  0  0  0
   35.8650   29.5300   36.1080 C   0  0  0  0  0  0  0  0  0  0  0  0
   34.7540   28.8640   35.6070 C   0  0  0  0  0  0  0  0  0  0  0  0
   33.8370   28.3590   36.5030 C   0  0  0  0  0  0  0  0  0  0  0  0
   32.4570   27.5280   35.8220 Cl  0  0  0  0  0  0  0  0  0  0  0  0
   33.9490   28.4700   37.8680 C   0  0  0  0  0  0  0  0  0  0  0  0
   36.6000   29.9370   35.4180 H   0  0  0  0  0  0  0  0  0  0  0  0
   34.6260   28.7530   34.5380 H   0  0  0  0  0  0  0  0  0  0  0  0
   33.1840   28.0440   38.5010 H   0  0  0  0  0  0  0  0  0  0  0  0
   40.5360   32.3240   39.5530 C   0  0  0  0  0  0  0  0  0  0  0  0
   40.6450   33.3410   39.1270 H   0  0  0  0  0  0  0  0  0  0  0  0
   41.4410   31.7710   39.2510 H   0  0  0  0  0  0  0  0  0  0  0  0
   40.5020   32.3190   41.0550 C   0  0  0  0  0  0  0  0  0  0  0  0
   41.4030   32.9070   41.3830 H   0  0  0  0  0  0  0  0  0  0  0  0
   39.6400   32.9620   41.3690 H   0  0  0  0  0  0  0  0  0  0  0  0
   40.4650   30.9870   41.6680 C   0  0  0  0  0  0  0  0  0  0  0  0
   41.5590   30.1540   41.7840 C   0  0  0  0  0  0  0  0  0  0  0  0
   42.5160   30.4860   41.4040 H   0  0  0  0  0  0  0  0  0  0  0  0
   41.3660   28.9200   42.3920 C   0  0  0  0  0  3  0  0  0  0  0  0
   40.1070   28.5380   42.8680 C   0  0  0  0  0  0  0  0  0  0  0  0
   39.9220   27.3410   43.4560 N   0  0  0  0  0  0  0  0  0  0  0  0
   38.7240   26.9460   43.9240 C   0  0  0  0  0  0  0  0  0  0  0  0
   38.5100   26.0160   44.3990 H   0  0  0  0  0  0  0  0  0  0  0  0
   37.6430   27.7860   43.8020 C   0  0  0  0  0  3  0  0  0  0  0  0
   37.7610   29.0310   43.2080 C   0  0  0  0  0  3  0  0  0  0  0  0
   39.0290   29.3840   42.7420 C   0  0  0  0  0  0  0  0  0  0  0  0
   39.2030   30.6220   42.1380 C   0  0  0  0  0  3  0  0  0  0  0  0
  1  2  1  0  0  0  0
  2  3  2  0  0  0  0
  2 20  1  0  0  0  0
  3  8  1  0  0  0  0
  4  3  1  0  0  0  0
  5  4  2  0  0  0  0
  6  5  1  0  0  0  0
  6  1  2  0  0  0  0
  7  1  1  0  0  0  0
 10  9  1  0  0  0  0
 11  5  1  0  0  0  0
 11 10  2  0  0  0  0
 12 11  1  0  0  0  0
 13 12  2  0  0  0  0
 13 14  1  0  0  0  0
 14 16  2  0  0  0  0
 15 14  1  0  0  0  0
 16 10  1  0  0  0  0
 16 19  1  0  0  0  0
 17 12  1  0  0  0  0
 18 13  1  0  0  0  0
 20 23  1  0  0  0  0
 21 20  1  0  0  0  0
 22 20  1  0  0  0  0
 23 25  1  0  0  0  0
 23 24  1  0  0  0  0
 23 26  1  0  0  0  0
 26 27  2  0  0  0  0
 26 37  1  0  0  0  0
 27 29  1  0  0  0  0
 28 27  1  0  0  0  0
 29 30  2  0  0  0  0
 30 31  1  0  0  0  0
 31 32  2  0  0  0  0
 32 33  1  0  0  0  0
 34 32  1  0  0  0  0
 35 34  2  0  0  0  0
 36 30  1  0  0  0  0
 36 35  1  0  0  0  0
 37 36  2  0  0  0  0
M  END
>  <minimizedAffinity>
-5.72827625

$$$$

 OpenBabel03252504513D

 37 40  0  0  0  0  0  0  0  0999 V2000
   39.0970   30.2360   38.7300 C   0  0  0  0  0  0  0  0  0  0  0  0
   37.8740   30.9250   38.7080 C   0  0  0  0  0  0  0  0  0  0  0  0
   37.8960   32.2600   39.0850 C   0  0  0  0  0  0  0  0  0  0  0  0
   39.0940   32.8000   39.4480 N   0  0  0  0  0  0  0  0  0  0  0  0
   40.2410   32.1210   39.4600 C   0  0  0  0  0  0  0  0  0  0  0  0
   40.2550   30.8170   39.0970 N   0  0  0  0  0  0  0  0  0  0  0  0
   39.2010   29.2010   38.4580 H   0  0  0  0  0  0  0  0  0  0  0  0
   36.9830   32.8230   39.0820 H   0  0  0  0  0  0  0  0  0  0  0  0
   41.9530   33.1670   37.1570 Cl  0  0  0  0  0  0  0  0  0  0  0  0
   42.3280   33.2780   38.8850 C   0  0  0  0  0  0  0  0  0  0  0  0
   41.4800   32.7690   39.8610 C   0  0  0  0  0  0  0  0  0  0  0  0
   41.8000   32.8720   41.1910 C   0  0  0  0  0  0  0  0  0  0  0  0
   42.9860   33.4940   41.5570 C   0  0  0  0  0  0  0  0  0  0  0  0
   43.8000   33.9860   40.5610 C   0  0  0  0  0  0  0  0  0  0  0  0
   45.2820   34.7600   41.0740 Cl  0  0  0  0  0  0  0  0  0  0  0  0
   43.5150   33.9020   39.2190 C   0  0  0  0  0  0  0  0  0  0  0  0
   41.1430   32.4770   41.9630 H   0  0  0  0  0  0  0  0  0  0  0  0
   43.2510   33.5820   42.6040 H   0  0  0  0  0  0  0  0  0  0  0  0
   44.2090   34.3150   38.5010 H   0  0  0  0  0  0  0  0  0  0  0  0
   36.6930   30.2100   38.2990 C   0  0  0  0  0  0  0  0  0  0  0  0
   36.9800   29.2910   37.7510 H   0  0  0  0  0  0  0  0  0  0  0  0
   36.0830   30.8010   37.5970 H   0  0  0  0  0  0  0  0  0  0  0  0
   35.8320   29.9300   39.4970 C   0  0  0  0  0  0  0  0  0  0  0  0
   35.8030   30.8900   40.0840 H   0  0  0  0  0  0  0  0  0  0  0  0
   34.7790   29.8150   39.1290 H   0  0  0  0  0  0  0  0  0  0  0  0
   36.2670   28.7990   40.3220 C   0  0  0  0  0  0  0  0  0  0  0  0
   36.6350   28.8990   41.6480 C   0  0  0  0  0  0  0  0  0  0  0  0
   36.6070   29.8670   42.1300 H   0  0  0  0  0  0  0  0  0  0  0  0
   37.0250   27.7350   42.2980 C   0  0  0  0  0  3  0  0  0  0  0  0
   37.0430   26.5060   41.6290 C   0  0  0  0  0  0  0  0  0  0  0  0
   37.4220   25.3790   42.2600 N   0  0  0  0  0  0  0  0  0  0  0  0
   37.4500   24.1830   41.6450 C   0  0  0  0  0  0  0  0  0  0  0  0
   37.7380   23.2550   42.0850 H   0  0  0  0  0  0  0  0  0  0  0  0
   37.0810   24.0970   40.3230 C   0  0  0  0  0  3  0  0  0  0  0  0
   36.6810   25.2160   39.6130 C   0  0  0  0  0  3  0  0  0  0  0  0
   36.6730   26.4280   40.3060 C   0  0  0  0  0  0  0  0  0  0  0  0
   36.2800   27.5810   39.6410 C   0  0  0  0  0  3  0  0  0  0  0  0
  1  6  1  0  0  0  0
  2  1  2  0  0  0  0
  2  3  1  0  0  0  0
  3  4  2  0  0  0  0
  4  5  1  0  0  0  0
  5 11  1  0  0  0  0
  6  5  2  0  0  0  0
  7  1  1  0  0  0  0
  8  3  1  0  0  0  0
  9 10  1  0  0  0  0
 10 16  2  0  0  0  0
 10 11  1  0  0  0  0
 11 12  2  0  0  0  0
 12 13  1  0  0  0  0
 12 17  1  0  0  0  0
 13 18  1  0  0  0  0
 14 15  1  0  0  0  0
 14 13  2  0  0  0  0
 16 14  1  0  0  0  0
 19 16  1  0  0  0  0
 20  2  1  0  0  0  0
 20 23  1  0  0  0  0
 21 20  1  0  0  0  0
 22 20  1  0  0  0  0
 23 24  1  0  0  0  0
 23 26  1  0  0  0  0
 25 23  1  0  0  0  0
 26 27  1  0  0  0  0
 27 28  1  0  0  0  0
 27 29  2  0  0  0  0
 30 31  1  0  0  0  0
 30 29  1  0  0  0  0
 32 33  1  0  0  0  0
 32 31  2  0  0  0  0
 34 32  1  0  0  0  0
 35 36  1  0  0  0  0
 35 34  2  0  0  0  0
 36 30  2  0  0  0  0
 37 36  1  0  0  0  0
 37 26  2  0  0  0  0
M  END
>  <minimizedAffinity>
-5.72123671

$$$$
