
 OpenBabel03252509053D

 51 54  0  0  1  0  0  0  0  0999 V2000
   46.8930   34.2860   43.5640 N   0  0  0  0  0  0  0  0  0  0  0  0
   46.5470   34.9960   42.3900 C   0  0  0  0  0  0  0  0  0  0  0  0
   45.0610   35.0220   42.0790 C   0  0  0  0  0  0  0  0  0  0  0  0
   44.1740   35.0580   43.3000 C   0  0  0  0  0  0  0  0  0  0  0  0
   44.9850   35.1420   44.5810 C   0  0  0  0  0  0  0  0  0  0  0  0
   45.9390   33.8970   44.4760 C   0  0  2  0  0  0  0  0  0  0  0  0
   46.8340   36.0740   42.5420 H   0  0  0  0  0  0  0  0  0  0  0  0
   47.0430   34.6970   41.4640 H   0  0  0  0  0  0  0  0  0  0  0  0
   44.8390   35.8320   41.3690 H   0  0  0  0  0  0  0  0  0  0  0  0
   44.8310   34.0590   41.5650 H   0  0  0  0  0  0  0  0  0  0  0  0
   43.5690   35.9880   43.2540 H   0  0  0  0  0  0  0  0  0  0  0  0
   43.4920   34.1940   43.3820 H   0  0  0  0  0  0  0  0  0  0  0  0
   44.3130   34.9740   45.4340 H   0  0  0  0  0  0  0  0  0  0  0  0
   45.6040   36.0410   44.6220 H   0  0  0  0  0  0  0  0  0  0  0  0
   45.2710   33.0520   44.2160 H   0  0  0  0  0  0  0  0  0  0  0  0
   48.1080   33.5130   43.4550 C   0  0  0  0  0  0  0  0  0  0  0  0
   48.8490   34.1660   42.9290 H   0  0  0  0  0  0  0  0  0  0  0  0
   48.4950   33.2590   44.4570 H   0  0  0  0  0  0  0  0  0  0  0  0
   47.8220   32.3050   42.6340 C   0  0  0  0  0  0  0  0  0  0  0  0
   46.9150   32.4340   42.0020 H   0  0  0  0  0  0  0  0  0  0  0  0
   47.6400   31.4010   43.2470 H   0  0  0  0  0  0  0  0  0  0  0  0
   51.3100   32.0680   41.2590 C   0  0  0  0  0  0  0  0  0  0  0  0
   50.2310   32.2940   42.1330 C   0  0  0  0  0  0  0  0  0  0  0  0
   48.9550   32.0620   41.7000 C   0  0  0  0  0  0  0  0  0  0  0  0
   48.7990   31.6280   40.4510 N   0  0  0  0  0  0  0  0  0  0  0  0
   49.8120   31.4090   39.6090 C   0  0  0  0  0  0  0  0  0  0  0  0
   51.0890   31.6270   40.0020 N   0  0  0  0  0  0  0  0  0  0  0  0
   52.3210   32.2390   41.5670 H   0  0  0  0  0  0  0  0  0  0  0  0
   50.4850   32.6420   43.1100 H   0  0  0  0  0  0  0  0  0  0  0  0
   49.4620   31.0600   38.6490 H   0  0  0  0  0  0  0  0  0  0  0  0
   46.4300   33.8190   45.7690 O   0  0  0  0  0  0  0  0  0  0  0  0
   45.7750   31.2590   45.4340 O   0  0  0  0  0  0  0  0  0  0  0  0
   46.2140   32.3160   46.4670 P   0  0  2  0  0  0  0  0  0  0  0  0
   44.8520   32.4480   47.5100 O   0  0  0  0  0  0  0  0  0  0  0  0
   45.2050   32.6950   48.4080 H   0  0  0  0  0  0  0  0  0  0  0  0
   47.4950   31.7960   47.3720 O   0  0  0  0  0  0  0  0  0  0  0  0
   47.8040   30.4760   47.0280 C   0  0  0  0  0  0  0  0  0  0  0  0
   46.9340   29.8240   46.9140 H   0  0  0  0  0  0  0  0  0  0  0  0
   48.3880   30.4670   46.0670 H   0  0  0  0  0  0  0  0  0  0  0  0
   48.7030   29.9880   48.1140 C   0  0  0  0  0  0  0  0  0  0  0  0
   49.0770   28.6790   48.3420 C   0  0  0  0  0  0  0  0  0  0  0  0
   48.6710   27.9470   47.6580 H   0  0  0  0  0  0  0  0  0  0  0  0
   49.9210   28.3700   49.3880 C   0  0  0  0  0  3  0  0  0  0  0  0
   50.3760   29.3960   50.1940 C   0  0  0  0  0  0  0  0  0  0  0  0
   51.1920   29.1590   51.2190 N   0  0  0  0  0  0  0  0  0  0  0  0
   51.6680   30.1140   52.0380 C   0  0  0  0  0  0  0  0  0  0  0  0
   52.3300   29.9420   52.8750 H   0  0  0  0  0  0  0  0  0  0  0  0
   51.3190   31.4400   51.8480 C   0  0  0  0  0  3  0  0  0  0  0  0
   50.4800   31.7500   50.8050 C   0  0  0  0  0  3  0  0  0  0  0  0
   50.0320   30.7160   50.0080 C   0  0  0  0  0  0  0  0  0  0  0  0
   49.1790   31.0090   48.9450 C   0  0  0  0  0  3  0  0  0  0  0  0
  1  6  1  0  0  0  0
  2  7  1  0  0  0  0
  2  1  1  0  0  0  0
  3  2  1  0  0  0  0
  3  4  1  0  0  0  0
  4 12  1  0  0  0  0
  4  5  1  0  0  0  0
  5 14  1  0  0  0  0
  5 13  1  0  0  0  0
  6 15  1  6  0  0  0
  6  5  1  0  0  0  0
  6 31  1  0  0  0  0
  8  2  1  0  0  0  0
  9  3  1  0  0  0  0
 10  3  1  0  0  0  0
 11  4  1  0  0  0  0
 16  1  1  0  0  0  0
 16 18  1  0  0  0  0
 17 16  1  0  0  0  0
 19 21  1  0  0  0  0
 19 16  1  0  0  0  0
 20 19  1  0  0  0  0
 22 28  1  0  0  0  0
 22 23  1  0  0  0  0
 23 29  1  0  0  0  0
 24 23  2  0  0  0  0
 24 19  1  0  0  0  0
 25 24  1  0  0  0  0
 26 27  1  0  0  0  0
 26 25  2  0  0  0  0
 27 22  2  0  0  0  0
 30 26  1  0  0  0  0
 31 33  1  0  0  0  0
 33 32  2  6  0  0  0
 33 36  1  0  0  0  0
 33 34  1  0  0  0  0
 34 35  1  0  0  0  0
 37 36  1  0  0  0  0
 37 40  1  0  0  0  0
 38 37  1  0  0  0  0
 39 37  1  0  0  0  0
 40 41  2  0  0  0  0
 40 51  1  0  0  0  0
 41 43  1  0  0  0  0
 42 41  1  0  0  0  0
 43 44  2  0  0  0  0
 44 45  1  0  0  0  0
 45 46  2  0  0  0  0
 46 47  1  0  0  0  0
 48 46  1  0  0  0  0
 49 48  2  0  0  0  0
 50 44  1  0  0  0  0
 50 49  1  0  0  0  0
 51 50  2  0  0  0  0
M  END
>  <minimizedAffinity>
-5.59382534

>  <minimizedRMSD>
2.85248351

$$$$
