
 OpenBabel03242518403D

 42 46  0  0  1  0  0  0  0  0999 V2000
   48.2590   34.8700   41.3970 C   0  0  0  0  0  0  0  0  0  0  0  0
   49.0430   35.8300   41.2080 O   0  0  0  0  0  0  0  0  0  0  0  0
   47.2100   34.7880   42.3580 C   0  0  0  0  0  0  0  0  0  0  0  0
   46.3170   35.8080   42.3540 C   0  0  0  0  0  0  0  0  0  0  0  0
   45.2660   35.7940   43.2640 C   0  0  0  0  0  0  0  0  0  0  0  0
   45.1770   34.7560   44.1230 N   0  0  0  0  0  0  0  0  0  0  0  0
   46.0660   33.7610   44.1110 C   0  0  0  0  0  0  0  0  0  0  0  0
   47.0650   33.8140   43.2160 N   0  0  0  0  0  0  0  0  0  0  0  0
   46.3370   36.6630   41.6940 H   0  0  0  0  0  0  0  0  0  0  0  0
   44.5340   36.5980   43.2850 H   0  0  0  0  0  0  0  0  0  0  0  0
   45.9130   32.6670   45.0650 C   0  0  0  0  0  0  0  0  0  0  0  0
   45.9000   31.3460   44.6590 C   0  0  0  0  0  0  0  0  0  0  0  0
   46.0010   31.0900   43.6140 H   0  0  0  0  0  0  0  0  0  0  0  0
   45.7490   30.3660   45.6460 C   0  0  0  0  0  0  0  0  0  0  0  0
   45.6160   30.6800   46.9870 C   0  0  0  0  0  0  0  0  0  0  0  0
   45.4710   29.7600   47.9380 N   0  0  0  0  0  0  0  0  0  0  0  0
   45.3420   30.0580   49.2470 C   0  0  0  0  0  0  0  0  0  0  0  0
   45.2260   29.2930   50.0070 H   0  0  0  0  0  0  0  0  0  0  0  0
   45.3530   31.3700   49.6770 C   0  0  0  0  0  0  0  0  0  0  0  0
   45.5030   32.3510   48.7020 C   0  0  0  0  0  0  0  0  0  0  0  0
   45.6350   32.0100   47.3570 C   0  0  0  0  0  0  0  0  0  0  0  0
   45.7830   33.0050   46.4010 C   0  0  0  0  0  0  0  0  0  0  0  0
   48.4280   33.7280   40.5620 O   0  0  0  0  0  0  0  0  0  0  0  0
   48.2670   33.8920   39.1620 C   0  0  0  0  0  0  0  0  0  0  0  0
   48.7120   34.8970   38.2890 C   0  0  0  0  0  0  0  0  0  0  0  0
   48.2870   34.5890   37.0090 C   0  0  0  0  0  0  0  0  0  0  0  0
   47.6100   33.4230   37.1590 C   0  0  0  0  0  0  0  0  0  0  0  0
   47.6030   33.0230   38.4200 O   0  0  0  0  0  0  0  0  0  0  0  0
   49.2870   35.7350   38.6520 H   0  0  0  0  0  0  0  0  0  0  0  0
   48.4700   35.1620   36.1320 H   0  0  0  0  0  0  0  0  0  0  0  0
   46.9570   32.6890   36.0560 C   0  0  2  0  0  0  0  0  0  0  0  0
   47.2410   31.2740   35.8240 C   0  0  0  0  0  0  0  0  0  0  0  0
   47.9460   32.2430   34.9450 C   0  0  1  0  0  0  0  0  0  0  0  0
   46.0320   33.1770   35.6990 H   0  0  0  0  0  0  0  0  0  0  0  0
   47.8340   30.6790   36.5600 H   0  0  0  0  0  0  0  0  0  0  0  0
   46.3970   30.6800   35.3630 H   0  0  0  0  0  0  0  0  0  0  0  0
   48.9900   32.5130   35.0790 H   0  0  0  0  0  0  0  0  0  0  0  0
   48.2060   32.9040   32.5620 C   0  0  0  0  0  0  0  0  0  0  0  0
   49.3960   33.2930   32.7390 O   0  0  0  0  0  0  0  0  0  0  0  0
   47.3870   32.4020   33.6050 N   0  0  0  0  0  0  0  0  0  0  0  0
   47.7670   32.9480   31.5620 H   0  0  0  0  0  0  0  0  0  0  0  0
   46.3930   32.1470   33.4180 H   0  0  0  0  0  0  0  0  0  0  0  0
  1  3  1  0  0  0  0
  2  1  2  0  0  0  0
  3  8  1  0  0  0  0
  4  3  2  0  0  0  0
  4  5  1  0  0  0  0
  5 10  1  0  0  0  0
  5  6  2  0  0  0  0
  7  6  1  0  0  0  0
  7 11  1  0  0  0  0
  8  7  2  0  0  0  0
  9  4  1  0  0  0  0
 11 22  1  0  0  0  0
 12 11  2  0  0  0  0
 12 14  1  0  0  0  0
 13 12  1  0  0  0  0
 14 15  2  0  0  0  0
 15 21  1  0  0  0  0
 15 16  1  0  0  0  0
 16 17  2  0  0  0  0
 17 19  1  0  0  0  0
 17 18  1  0  0  0  0
 20 19  2  0  0  0  0
 21 20  1  0  0  0  0
 22 21  2  0  0  0  0
 23  1  1  0  0  0  0
 24 23  1  0  0  0  0
 25 29  1  0  0  0  0
 25 24  2  0  0  0  0
 26 27  2  0  0  0  0
 26 25  1  0  0  0  0
 27 28  1  0  0  0  0
 28 24  1  0  0  0  0
 30 26  1  0  0  0  0
 31 34  1  6  0  0  0
 31 27  1  0  0  0  0
 32 31  1  0  0  0  0
 32 35  1  0  0  0  0
 33 37  1  1  0  0  0
 33 32  1  0  0  0  0
 33 31  1  0  0  0  0
 36 32  1  0  0  0  0
 38 39  2  0  0  0  0
 38 40  1  0  0  0  0
 40 33  1  0  0  0  0
 41 38  1  0  0  0  0
 42 40  1  0  0  0  0
M  END
>  <minimizedAffinity>
-6.42030621

>  <minimizedRMSD>
1.35298836

$$$$
