
 OpenBabel03252509243D

 30 33  0  0  1  0  0  0  0  0999 V2000
   46.6930   34.7520   42.0300 C   0  0  1  0  0  0  0  0  0  0  0  0
   48.1210   35.3610   42.0730 C   0  0  0  0  0  0  0  0  0  0  0  0
   47.7710   33.8770   41.7440 C   0  0  2  0  0  0  0  0  0  0  0  0
   46.0440   35.2450   41.2770 H   0  0  0  0  0  0  0  0  0  0  0  0
   48.4670   35.9230   41.1970 H   0  0  0  0  0  0  0  0  0  0  0  0
   48.5900   35.5650   43.0290 H   0  0  0  0  0  0  0  0  0  0  0  0
   48.1070   33.1750   42.5460 H   0  0  0  0  0  0  0  0  0  0  0  0
   48.0700   33.4190   40.3480 C   0  0  0  0  0  0  0  0  0  0  0  0
   47.2080   33.9050   39.3670 C   0  0  0  0  0  0  0  0  0  0  0  0
   46.3840   34.5650   39.5980 H   0  0  0  0  0  0  0  0  0  0  0  0
   47.4100   33.5310   38.0460 C   0  0  0  0  0  3  0  0  0  0  0  0
   48.4540   32.6880   37.7250 C   0  0  0  0  0  0  0  0  0  0  0  0
   48.6890   32.2950   36.4430 N   0  0  0  0  0  0  0  0  0  0  0  0
   49.7130   31.4740   36.1510 C   0  0  0  0  0  0  0  0  0  0  0  0
   49.8780   31.1760   35.1210 H   0  0  0  0  0  0  0  0  0  0  0  0
   50.5830   30.9760   37.1000 C   0  0  0  0  0  3  0  0  0  0  0  0
   50.3130   31.3970   38.3980 C   0  0  0  0  0  3  0  0  0  0  0  0
   49.2700   32.2430   38.7500 C   0  0  0  0  0  0  0  0  0  0  0  0
   49.1230   32.5770   40.0810 C   0  0  0  0  0  3  0  0  0  0  0  0
   44.5510   35.5580   45.0060 C   0  0  0  0  0  0  0  0  0  0  0  0
   45.1270   35.6780   43.6970 C   0  0  0  0  0  0  0  0  0  0  0  0
   46.0880   34.7410   43.4150 C   0  0  0  0  0  0  0  0  0  0  0  0
   46.4650   33.7650   44.3300 N   0  0  0  0  0  0  0  0  0  0  0  0
   45.8880   33.7110   45.5330 C   0  0  0  0  0  0  0  0  0  0  0  0
   44.9280   34.6100   45.8750 N   0  0  0  0  0  0  0  0  0  0  0  0
   43.7890   36.2750   45.2740 H   0  0  0  0  0  0  0  0  0  0  0  0
   46.2870   32.9010   46.1260 H   0  0  0  0  0  0  0  0  0  0  0  0
   44.7510   36.7000   42.7780 N   0  0  0  0  0  0  0  0  0  0  0  0
   44.4120   36.5240   41.7950 H   0  0  0  0  0  0  0  0  0  0  0  0
   44.8770   37.6270   43.2650 H   0  0  0  0  0  0  0  0  0  0  0  0
  1  4  1  6  0  0  0
  1  2  1  0  0  0  0
  1 22  1  0  0  0  0
  2  6  1  0  0  0  0
  3  1  1  0  0  0  0
  3  2  1  0  0  0  0
  3  7  1  1  0  0  0
  5  2  1  0  0  0  0
  8  3  1  0  0  0  0
  9 10  1  0  0  0  0
  9  8  2  0  0  0  0
 11  9  1  0  0  0  0
 12 11  2  0  0  0  0
 12 18  1  0  0  0  0
 13 12  1  0  0  0  0
 14 13  2  0  0  0  0
 14 16  1  0  0  0  0
 15 14  1  0  0  0  0
 16 17  2  0  0  0  0
 17 18  1  0  0  0  0
 18 19  2  0  0  0  0
 19  8  1  0  0  0  0
 20 26  1  0  0  0  0
 20 25  1  0  0  0  0
 21 20  2  0  0  0  0
 22 21  1  0  0  0  0
 22 23  2  0  0  0  0
 23 24  1  0  0  0  0
 24 25  2  0  0  0  0
 24 27  1  0  0  0  0
 28 30  1  0  0  0  0
 28 21  1  0  0  0  0
 29 28  1  0  0  0  0
M  END
>  <minimizedAffinity>
-5.42757511

>  <minimizedRMSD>
1.05174685

$$$$
