
     RDKit          3D

 28 30  0  0  0  0  0  0  0  0999 V2000
   47.6744   34.9726   42.3424 C   0  0  0  0  0  0  0  0  0  0  0  0
   47.9109   33.9128   43.2485 C   0  0  0  0  0  0  0  0  0  0  0  0
   46.9027   33.5185   44.1291 C   0  0  0  0  0  0  0  0  0  0  0  0
   45.7309   34.2021   44.0499 N   0  0  0  0  0  0  0  0  0  0  0  0
   45.5196   35.2040   43.1871 C   0  0  0  0  0  0  0  0  0  0  0  0
   46.4839   35.5876   42.3387 N   0  0  0  0  0  0  0  0  0  0  0  0
   48.7935   35.3396   41.4331 C   0  0  0  0  0  0  0  0  0  0  0  0
   48.4219   35.2334   40.1065 F   0  0  0  0  0  0  0  0  0  0  0  0
   49.2062   36.6181   41.7494 F   0  0  0  0  0  0  0  0  0  0  0  0
   49.8880   34.4962   41.6732 F   0  0  0  0  0  0  0  0  0  0  0  0
   48.8626   33.4191   43.2535 H   0  0  0  0  0  0  0  0  0  0  0  0
   44.5443   35.6714   43.2193 H   0  0  0  0  0  0  0  0  0  0  0  0
   47.0855   32.4389   45.0811 C   0  0  0  0  0  0  0  0  0  0  0  0
   46.8104   31.1228   44.8431 C   0  0  0  0  0  0  0  0  0  0  0  0
   46.4284   30.8344   43.8878 H   0  0  0  0  0  0  0  0  0  0  0  0
   47.0119   30.1489   45.8049 C   0  0  0  0  0  0  0  0  0  0  0  0
   47.5062   30.5008   47.0502 C   0  0  0  0  0  0  0  0  0  0  0  0
   47.7089   29.5582   48.0026 N   0  0  0  0  0  0  0  0  0  0  0  0
   48.1905   29.8779   49.2251 C   0  0  0  0  0  0  0  0  0  0  0  0
   48.3552   29.1200   49.9960 H   0  0  0  0  0  0  0  0  0  0  0  0
   48.4797   31.2019   49.4993 C   0  0  0  0  0  0  0  0  0  0  0  0
   48.2861   32.1845   48.5562 C   0  0  0  0  0  0  0  0  0  0  0  0
   47.7958   31.8168   47.3287 C   0  0  0  0  0  0  0  0  0  0  0  0
   47.5748   32.7443   46.3312 C   0  0  0  0  0  0  0  0  0  0  0  0
   46.7788   29.1145   45.5706 H   0  0  0  0  0  0  0  0  0  0  0  0
   48.8675   31.4465   50.4891 H   0  0  0  0  0  0  0  0  0  0  0  0
   48.5135   33.2046   48.7803 H   0  0  0  0  0  0  0  0  0  0  0  0
   47.8137   33.7732   46.5838 H   0  0  0  0  0  0  0  0  0  0  0  0
  1  2  2  0
  2  3  1  0
  4  3  2  0
  5  4  1  0
  6  1  1  0
  6  5  2  0
  7 10  1  0
  7  9  1  0
  7  1  1  0
  8  7  1  0
  2 11  1  0
  5 12  1  0
 13 14  2  0
 14 15  1  0
 14 16  1  0
 16 17  2  0
 17 18  1  0
 18 19  2  0
 19 20  1  0
 19 21  1  0
 21 22  2  0
 22 23  1  0
 23 24  2  0
 24 13  1  0
 23 17  1  0
 16 25  1  0
 21 26  1  0
 22 27  1  0
 24 28  1  0
  3 13  1  0
M  ISO  4  11  14  12  14  15  16  20  16
M  END
>  <DihAtoms>  (1) 
1,2,12,13

>  <DihDeg>  (1) 
-0.001420182439518542

$$$$
