
 OpenBabel03252504513D

 37 40  0  0  0  0  0  0  0  0999 V2000
   47.0130   34.4960   42.8320 C   0  0  0  0  0  0  0  0  0  0  0  0
   48.0750   33.9320   42.1070 C   0  0  0  0  0  0  0  0  0  0  0  0
   48.6390   32.7710   42.6150 C   0  0  0  0  0  0  0  0  0  0  0  0
   48.1260   32.2670   43.7730 N   0  0  0  0  0  0  0  0  0  0  0  0
   47.1160   32.8240   44.4410 C   0  0  0  0  0  0  0  0  0  0  0  0
   46.5420   33.9570   43.9720 N   0  0  0  0  0  0  0  0  0  0  0  0
   46.5000   35.3920   42.5330 H   0  0  0  0  0  0  0  0  0  0  0  0
   49.4530   32.3080   42.0920 H   0  0  0  0  0  0  0  0  0  0  0  0
   45.5650   30.2180   44.0770 Cl  0  0  0  0  0  0  0  0  0  0  0  0
   45.9060   31.0370   45.6110 C   0  0  0  0  0  0  0  0  0  0  0  0
   46.6230   32.2250   45.6720 C   0  0  0  0  0  0  0  0  0  0  0  0
   46.8710   32.8330   46.8760 C   0  0  0  0  0  0  0  0  0  0  0  0
   46.3950   32.2490   48.0420 C   0  0  0  0  0  0  0  0  0  0  0  0
   45.6870   31.0710   47.9400 C   0  0  0  0  0  0  0  0  0  0  0  0
   45.1090   30.3760   49.4370 Cl  0  0  0  0  0  0  0  0  0  0  0  0
   45.4190   30.4320   46.7540 C   0  0  0  0  0  0  0  0  0  0  0  0
   47.4320   33.7640   46.9350 H   0  0  0  0  0  0  0  0  0  0  0  0
   46.5830   32.7190   49.0000 H   0  0  0  0  0  0  0  0  0  0  0  0
   44.8560   29.5090   46.7620 H   0  0  0  0  0  0  0  0  0  0  0  0
   48.5030   34.5880   40.8980 C   0  0  0  0  0  0  0  0  0  0  0  0
   49.5210   34.2480   40.6250 H   0  0  0  0  0  0  0  0  0  0  0  0
   48.5760   35.6800   41.0330 H   0  0  0  0  0  0  0  0  0  0  0  0
   47.4950   34.3490   39.8100 C   0  0  0  0  0  0  0  0  0  0  0  0
   46.4890   34.3710   40.3140 H   0  0  0  0  0  0  0  0  0  0  0  0
   47.4840   35.2640   39.1630 H   0  0  0  0  0  0  0  0  0  0  0  0
   47.6940   33.1170   39.0410 C   0  0  0  0  0  0  0  0  0  0  0  0
   46.6930   32.2120   38.7480 C   0  0  0  0  0  0  0  0  0  0  0  0
   45.6890   32.4080   39.1000 H   0  0  0  0  0  0  0  0  0  0  0  0
   47.0370   31.0880   38.0090 C   0  0  0  0  0  3  0  0  0  0  0  0
   48.3540   30.8830   37.5770 C   0  0  0  0  0  0  0  0  0  0  0  0
   48.6840   29.7930   36.8600 N   0  0  0  0  0  0  0  0  0  0  0  0
   49.9390   29.5670   36.4320 C   0  0  0  0  0  0  0  0  0  0  0  0
   50.2690   28.7280   35.8630 H   0  0  0  0  0  0  0  0  0  0  0  0
   50.9270   30.4750   36.7300 C   0  0  0  0  0  3  0  0  0  0  0  0
   50.6560   31.6190   37.4630 C   0  0  0  0  0  3  0  0  0  0  0  0
   49.3360   31.7970   37.8800 C   0  0  0  0  0  0  0  0  0  0  0  0
   49.0110   32.9260   38.6180 C   0  0  0  0  0  3  0  0  0  0  0  0
  1  6  1  0  0  0  0
  2  3  1  0  0  0  0
  2  1  2  0  0  0  0
  3  4  2  0  0  0  0
  4  5  1  0  0  0  0
  5 11  1  0  0  0  0
  6  5  2  0  0  0  0
  7  1  1  0  0  0  0
  8  3  1  0  0  0  0
  9 10  1  0  0  0  0
 10 11  2  0  0  0  0
 10 16  1  0  0  0  0
 11 12  1  0  0  0  0
 12 17  1  0  0  0  0
 12 13  2  0  0  0  0
 13 18  1  0  0  0  0
 14 13  1  0  0  0  0
 14 15  1  0  0  0  0
 16 19  1  0  0  0  0
 16 14  2  0  0  0  0
 20 22  1  0  0  0  0
 20  2  1  0  0  0  0
 21 20  1  0  0  0  0
 23 24  1  0  0  0  0
 23 20  1  0  0  0  0
 25 23  1  0  0  0  0
 26 23  1  0  0  0  0
 27 26  1  0  0  0  0
 27 28  1  0  0  0  0
 29 27  2  0  0  0  0
 30 36  1  0  0  0  0
 30 29  1  0  0  0  0
 31 30  2  0  0  0  0
 32 34  2  0  0  0  0
 32 31  1  0  0  0  0
 33 32  1  0  0  0  0
 34 35  1  0  0  0  0
 35 36  2  0  0  0  0
 36 37  1  0  0  0  0
 37 26  2  0  0  0  0
M  END
>  <minimizedAffinity>
-4.66851473

>  <minimizedRMSD>
1.81102693

$$$$
