REMARK  Name = 
REMARK  2 active torsions:
REMARK  status: ('A' for Active; 'I' for Inactive)
REMARK    1  A    between atoms: C_5  and  C_9
REMARK    2  A    between atoms: C_13  and  C_20
REMARK                            x       y       z     vdW  Elec       q    Type
REMARK                         _______ _______ _______ _____ _____    ______ ____
ROOT
ATOM      1  F   UNL     1      44.289  33.950  47.673  0.00  0.00    +0.000 F 
ATOM      2  C   UNL     1      45.273  33.032  47.538  0.00  0.00    +0.000 A 
ATOM      3  C   UNL     1      46.014  33.031  46.374  0.00  0.00    +0.000 A 
ATOM      4  C   UNL     1      47.011  32.102  46.233  0.00  0.00    +0.000 A 
ATOM      5  C   UNL     1      47.268  31.187  47.233  0.00  0.00    +0.000 A 
ATOM      6  C   UNL     1      46.543  31.175  48.392  0.00  0.00    +0.000 A 
ATOM      7  C   UNL     1      45.517  32.130  48.537  0.00  0.00    +0.000 A 
ATOM      8  H   UNL     1      47.586  32.110  45.316  0.00  0.00    +0.000 HD
ATOM      9  H   UNL     1      48.060  30.460  47.105  0.00  0.00    +0.000 HD
ATOM     10  H   UNL     1      46.757  30.447  49.173  0.00  0.00    +0.000 HD
ENDROOT
BRANCH   7  11
ATOM     11  C   UNL     1      44.778  32.085  49.768  0.00  0.00    +0.000 A 
ATOM     12  C   UNL     1      43.419  31.874  49.866  0.00  0.00    +0.000 A 
ATOM     13  H   UNL     1      42.893  31.733  48.910  0.00  0.00    +0.000 HD
ATOM     14  C   UNL     1      42.752  31.840  51.087  0.00  0.00    +0.000 A 
ATOM     15  C   UNL     1      43.479  32.025  52.245  0.00  0.00    +0.000 A 
ATOM     16  N   UNL     1      42.857  31.997  53.449  0.00  0.00    +0.000 NA
ATOM     17  C   UNL     1      43.584  32.179  54.566  0.00  0.00    +0.000 A 
ATOM     18  H   UNL     1      43.101  32.160  55.538  0.00  0.00    +0.000 HD
ATOM     19  C   UNL     1      44.958  32.400  54.575  0.00  0.00    +0.000 A 
ATOM     20  C   UNL     1      45.602  32.430  53.354  0.00  0.00    +0.000 A 
ATOM     21  C   UNL     1      44.845  32.241  52.215  0.00  0.00    +0.000 A 
ATOM     22  C   UNL     1      45.460  32.266  50.967  0.00  0.00    +0.000 A 
ENDBRANCH   7  11
BRANCH   3  27
ATOM     23  C   UNL     1      44.556  35.865  44.587  0.00  0.00    +0.000 A 
ATOM     24  C   UNL     1      45.213  35.829  43.330  0.00  0.00    +0.000 A 
ATOM     25  C   UNL     1      46.151  34.816  43.134  0.00  0.00    +0.000 A 
ATOM     26  N   UNL     1      46.378  33.927  44.155  0.00  0.00    +0.000 NA
ATOM     27  C   UNL     1      45.733  33.999  45.327  0.00  0.00    +0.000 A 
ATOM     28  N   UNL     1      44.826  34.965  45.540  0.00  0.00    +0.000 NA
ATOM     29  H   UNL     1      43.836  36.666  44.699  0.00  0.00    +0.000 HD
ATOM     30  H   UNL     1      45.042  36.519  42.529  0.00  0.00    +0.000 HD
ATOM     31  H   UNL     1      46.723  34.666  42.236  0.00  0.00    +0.000 HD
ENDBRANCH   3  27
TORSDOF 2
