
 OpenBabel03242521033D

 30 33  0  0  0  0  0  0  0  0999 V2000
   38.5370   25.2530   41.8130 C   0  0  0  0  0  0  0  0  0  0  0  0
   39.3110   24.8690   42.8800 C   0  0  0  0  0  0  0  0  0  0  0  0
   40.0250   25.7320   43.6790 C   0  0  0  0  0  0  0  0  0  0  0  0
   39.9630   27.0900   43.3880 C   0  0  0  0  0  0  0  0  0  0  0  0
   39.1890   27.4520   42.3220 C   0  0  0  0  0  0  0  0  0  0  0  0
   38.5190   26.5690   41.5840 N   0  0  0  0  0  0  0  0  0  0  0  0
   39.3910   23.8250   43.1480 H   0  0  0  0  0  0  0  0  0  0  0  0
   40.6290   25.4090   44.5170 H   0  0  0  0  0  0  0  0  0  0  0  0
   40.5110   27.7830   43.9950 H   0  0  0  0  0  0  0  0  0  0  0  0
   39.0590   28.8530   41.9340 C   0  0  0  0  0  0  0  0  0  0  0  0
   39.8650   29.8200   42.5230 C   0  0  0  0  0  0  0  0  0  0  0  0
   40.5980   29.5220   43.2790 H   0  0  0  0  0  0  0  0  0  0  0  0
   39.8380   31.1660   42.2440 C   0  0  0  0  0  3  0  0  0  0  0  0
   38.9340   31.6030   41.2980 C   0  0  0  0  0  0  0  0  0  0  0  0
   38.8360   32.9010   40.9600 N   0  0  0  0  0  0  0  0  0  0  0  0
   37.9490   33.3360   40.0310 C   0  0  0  0  0  0  0  0  0  0  0  0
   37.8470   34.3710   39.7390 H   0  0  0  0  0  0  0  0  0  0  0  0
   37.1170   32.4290   39.4070 C   0  0  0  0  0  3  0  0  0  0  0  0
   37.1830   31.0930   39.7200 C   0  0  0  0  0  3  0  0  0  0  0  0
   38.1090   30.6860   40.6820 C   0  0  0  0  0  0  0  0  0  0  0  0
   38.1780   29.3490   40.9980 C   0  0  0  0  0  3  0  0  0  0  0  0
   35.9830   23.5230   39.6310 C   0  0  0  0  0  0  0  0  0  0  0  0
   36.5670   24.5440   40.3900 C   0  0  0  0  0  0  0  0  0  0  0  0
   37.7930   24.3010   40.9880 C   0  0  0  0  0  0  0  0  0  0  0  0
   38.3490   23.0800   40.7940 N   0  0  0  0  0  0  0  0  0  0  0  0
   37.7700   22.1100   40.0580 C   0  0  0  0  0  0  0  0  0  0  0  0
   36.5880   22.3450   39.4810 N   0  0  0  0  0  0  0  0  0  0  0  0
   35.0090   23.7280   39.1600 H   0  0  0  0  0  0  0  0  0  0  0  0
   36.1360   25.5050   40.5470 H   0  0  0  0  0  0  0  0  0  0  0  0
   38.2640   21.1450   39.9360 H   0  0  0  0  0  0  0  0  0  0  0  0
  1  2  1  0  0  0  0
  2  7  1  0  0  0  0
  2  3  2  0  0  0  0
  3  8  1  0  0  0  0
  4  3  1  0  0  0  0
  4  9  1  0  0  0  0
  5  4  2  0  0  0  0
  6  1  2  0  0  0  0
  6  5  1  0  0  0  0
 10  5  1  0  0  0  0
 10 11  1  0  0  0  0
 11 12  1  0  0  0  0
 13 11  2  0  0  0  0
 14 13  1  0  0  0  0
 15 14  1  0  0  0  0
 16 15  2  0  0  0  0
 17 16  1  0  0  0  0
 18 19  2  0  0  0  0
 18 16  1  0  0  0  0
 19 20  1  0  0  0  0
 20 21  1  0  0  0  0
 20 14  2  0  0  0  0
 21 10  2  0  0  0  0
 22 23  1  0  0  0  0
 23 29  1  0  0  0  0
 23 24  2  0  0  0  0
 24  1  1  0  0  0  0
 25 24  1  0  0  0  0
 26 25  2  0  0  0  0
 27 22  2  0  0  0  0
 27 26  1  0  0  0  0
 28 22  1  0  0  0  0
 30 26  1  0  0  0  0
M  END
>  <minimizedAffinity>
-5.81626415

$$$$

 OpenBabel03242521033D

 30 33  0  0  0  0  0  0  0  0999 V2000
   37.8390   29.6500   41.6850 C   0  0  0  0  0  0  0  0  0  0  0  0
   38.1490   29.4540   43.0080 C   0  0  0  0  0  0  0  0  0  0  0  0
   38.0790   28.2440   43.6580 C   0  0  0  0  0  0  0  0  0  0  0  0
   37.6660   27.1360   42.9260 C   0  0  0  0  0  0  0  0  0  0  0  0
   37.3610   27.3510   41.6120 C   0  0  0  0  0  0  0  0  0  0  0  0
   37.4490   28.5490   41.0370 N   0  0  0  0  0  0  0  0  0  0  0  0
   38.4760   30.2840   43.6200 H   0  0  0  0  0  0  0  0  0  0  0  0
   38.3290   28.1110   44.7020 H   0  0  0  0  0  0  0  0  0  0  0  0
   37.6030   26.1810   43.4090 H   0  0  0  0  0  0  0  0  0  0  0  0
   36.9170   26.2530   40.7580 C   0  0  0  0  0  0  0  0  0  0  0  0
   36.9210   24.9490   41.2380 C   0  0  0  0  0  0  0  0  0  0  0  0
   37.2600   24.7520   42.2600 H   0  0  0  0  0  0  0  0  0  0  0  0
   36.5280   23.8340   40.5340 C   0  0  0  0  0  3  0  0  0  0  0  0
   36.0900   24.0190   39.2400 C   0  0  0  0  0  0  0  0  0  0  0  0
   35.6860   22.9880   38.4760 N   0  0  0  0  0  0  0  0  0  0  0  0
   35.2550   23.1640   37.2030 C   0  0  0  0  0  0  0  0  0  0  0  0
   34.9250   22.3560   36.5660 H   0  0  0  0  0  0  0  0  0  0  0  0
   35.2260   24.4340   36.6630 C   0  0  0  0  0  3  0  0  0  0  0  0
   35.6290   25.5160   37.4060 C   0  0  0  0  0  3  0  0  0  0  0  0
   36.0660   25.2930   38.7130 C   0  0  0  0  0  0  0  0  0  0  0  0
   36.4700   26.3740   39.4610 C   0  0  0  0  0  3  0  0  0  0  0  0
   37.2350   32.7410   39.5990 C   0  0  0  0  0  0  0  0  0  0  0  0
   37.0040   31.4700   40.1370 C   0  0  0  0  0  0  0  0  0  0  0  0
   37.9270   30.9570   41.0330 C   0  0  0  0  0  0  0  0  0  0  0  0
   39.0010   31.7280   41.3310 N   0  0  0  0  0  0  0  0  0  0  0  0
   39.2050   32.9510   40.8010 C   0  0  0  0  0  0  0  0  0  0  0  0
   38.3140   33.4460   39.9370 N   0  0  0  0  0  0  0  0  0  0  0  0
   36.4940   33.1400   38.8880 H   0  0  0  0  0  0  0  0  0  0  0  0
   36.1620   30.8590   39.9080 H   0  0  0  0  0  0  0  0  0  0  0  0
   40.0900   33.5280   41.0770 H   0  0  0  0  0  0  0  0  0  0  0  0
  1  2  1  0  0  0  0
  2  7  1  0  0  0  0
  2  3  2  0  0  0  0
  3  8  1  0  0  0  0
  4  9  1  0  0  0  0
  4  3  1  0  0  0  0
  5  4  2  0  0  0  0
  6  5  1  0  0  0  0
  6  1  2  0  0  0  0
 10 11  1  0  0  0  0
 10  5  1  0  0  0  0
 11 12  1  0  0  0  0
 13 11  2  0  0  0  0
 14 13  1  0  0  0  0
 15 14  2  0  0  0  0
 16 15  1  0  0  0  0
 17 16  1  0  0  0  0
 18 16  2  0  0  0  0
 18 19  1  0  0  0  0
 19 20  2  0  0  0  0
 20 14  1  0  0  0  0
 20 21  1  0  0  0  0
 21 10  2  0  0  0  0
 22 27  2  0  0  0  0
 22 23  1  0  0  0  0
 23 24  2  0  0  0  0
 24 25  1  0  0  0  0
 24  1  1  0  0  0  0
 26 30  1  0  0  0  0
 26 25  2  0  0  0  0
 27 26  1  0  0  0  0
 28 22  1  0  0  0  0
 29 23  1  0  0  0  0
M  END
>  <minimizedAffinity>
-5.72976446

$$$$

 OpenBabel03242521033D

 30 33  0  0  0  0  0  0  0  0999 V2000
   39.6470   32.5400   40.3570 C   0  0  0  0  0  0  0  0  0  0  0  0
   38.6390   33.3510   39.8950 C   0  0  0  0  0  0  0  0  0  0  0  0
   37.3170   32.9840   39.8110 C   0  0  0  0  0  0  0  0  0  0  0  0
   36.9700   31.7010   40.2200 C   0  0  0  0  0  0  0  0  0  0  0  0
   37.9860   30.9090   40.6750 C   0  0  0  0  0  0  0  0  0  0  0  0
   39.2510   31.3220   40.7340 N   0  0  0  0  0  0  0  0  0  0  0  0
   38.8570   34.3580   39.5660 H   0  0  0  0  0  0  0  0  0  0  0  0
   36.5370   33.6390   39.4450 H   0  0  0  0  0  0  0  0  0  0  0  0
   35.9460   31.3910   40.1650 H   0  0  0  0  0  0  0  0  0  0  0  0
   37.7270   29.5460   41.1270 C   0  0  0  0  0  0  0  0  0  0  0  0
   37.6740   29.2580   42.4860 C   0  0  0  0  0  0  0  0  0  0  0  0
   37.8280   30.0620   43.2140 H   0  0  0  0  0  0  0  0  0  0  0  0
   37.4380   28.0190   43.0350 C   0  0  0  0  0  3  0  0  0  0  0  0
   37.2360   26.9660   42.1690 C   0  0  0  0  0  0  0  0  0  0  0  0
   36.9980   25.7190   42.6140 N   0  0  0  0  0  0  0  0  0  0  0  0
   36.7990   24.6800   41.7670 C   0  0  0  0  0  0  0  0  0  0  0  0
   36.6060   23.6690   42.0940 H   0  0  0  0  0  0  0  0  0  0  0  0
   36.8380   24.8950   40.4040 C   0  0  0  0  0  3  0  0  0  0  0  0
   37.0770   26.1520   39.9040 C   0  0  0  0  0  3  0  0  0  0  0  0
   37.2780   27.1950   40.8100 C   0  0  0  0  0  0  0  0  0  0  0  0
   37.5170   28.4550   40.3130 C   0  0  0  0  0  3  0  0  0  0  0  0
   43.0220   34.1190   39.7290 C   0  0  0  0  0  0  0  0  0  0  0  0
   41.6750   33.8000   39.5170 C   0  0  0  0  0  0  0  0  0  0  0  0
   41.0430   32.9710   40.4290 C   0  0  0  0  0  0  0  0  0  0  0  0
   41.7780   32.5210   41.4750 N   0  0  0  0  0  0  0  0  0  0  0  0
   43.0760   32.8400   41.6610 C   0  0  0  0  0  0  0  0  0  0  0  0
   43.6850   33.6400   40.7820 N   0  0  0  0  0  0  0  0  0  0  0  0
   43.5140   34.7800   38.9980 H   0  0  0  0  0  0  0  0  0  0  0  0
   41.0920   34.1500   38.6980 H   0  0  0  0  0  0  0  0  0  0  0  0
   43.6190   32.4470   42.5230 H   0  0  0  0  0  0  0  0  0  0  0  0
  1 24  1  0  0  0  0
  1  6  1  0  0  0  0
  2  1  2  0  0  0  0
  3  2  1  0  0  0  0
  3  4  2  0  0  0  0
  4  5  1  0  0  0  0
  5  6  2  0  0  0  0
  5 10  1  0  0  0  0
  7  2  1  0  0  0  0
  8  3  1  0  0  0  0
  9  4  1  0  0  0  0
 10 11  1  0  0  0  0
 11 13  2  0  0  0  0
 11 12  1  0  0  0  0
 14 15  1  0  0  0  0
 14 13  1  0  0  0  0
 16 17  1  0  0  0  0
 16 15  2  0  0  0  0
 18 16  1  0  0  0  0
 19 18  2  0  0  0  0
 19 20  1  0  0  0  0
 20 14  2  0  0  0  0
 21 20  1  0  0  0  0
 21 10  2  0  0  0  0
 22 27  1  0  0  0  0
 23 22  2  0  0  0  0
 23 24  1  0  0  0  0
 24 25  2  0  0  0  0
 25 26  1  0  0  0  0
 26 30  1  0  0  0  0
 27 26  2  0  0  0  0
 28 22  1  0  0  0  0
 29 23  1  0  0  0  0
M  END
>  <minimizedAffinity>
-5.69693756

$$$$

 OpenBabel03242521033D

 30 33  0  0  0  0  0  0  0  0999 V2000
   37.8380   26.4320   41.8820 C   0  0  0  0  0  0  0  0  0  0  0  0
   36.9510   26.4650   42.9290 C   0  0  0  0  0  0  0  0  0  0  0  0
   36.6680   27.5830   43.6800 C   0  0  0  0  0  0  0  0  0  0  0  0
   37.3260   28.7650   43.3590 C   0  0  0  0  0  0  0  0  0  0  0  0
   38.2050   28.7110   42.3140 C   0  0  0  0  0  0  0  0  0  0  0  0
   38.4370   27.5970   41.6230 N   0  0  0  0  0  0  0  0  0  0  0  0
   36.4130   25.5730   43.2180 H   0  0  0  0  0  0  0  0  0  0  0  0
   35.9650   27.5890   44.5020 H   0  0  0  0  0  0  0  0  0  0  0  0
   37.1240   29.6510   43.9280 H   0  0  0  0  0  0  0  0  0  0  0  0
   38.9460   29.8980   41.8980 C   0  0  0  0  0  0  0  0  0  0  0  0
   40.3300   29.9360   42.0180 C   0  0  0  0  0  0  0  0  0  0  0  0
   40.8590   29.0690   42.4270 H   0  0  0  0  0  0  0  0  0  0  0  0
   41.1380   30.9910   41.6630 C   0  0  0  0  0  3  0  0  0  0  0  0
   40.5290   32.1130   41.1420 C   0  0  0  0  0  0  0  0  0  0  0  0
   41.2370   33.1920   40.7660 N   0  0  0  0  0  0  0  0  0  0  0  0
   40.6430   34.2980   40.2530 C   0  0  0  0  0  0  0  0  0  0  0  0
   41.1860   35.1800   39.9430 H   0  0  0  0  0  0  0  0  0  0  0  0
   39.2710   34.3280   40.1060 C   0  0  0  0  0  3  0  0  0  0  0  0
   38.5080   33.2480   40.4750 C   0  0  0  0  0  3  0  0  0  0  0  0
   39.1570   32.1290   41.0010 C   0  0  0  0  0  0  0  0  0  0  0  0
   38.3960   31.0450   41.3710 C   0  0  0  0  0  3  0  0  0  0  0  0
   37.7500   22.9800   40.3470 C   0  0  0  0  0  0  0  0  0  0  0  0
   37.3550   24.0570   41.1490 C   0  0  0  0  0  0  0  0  0  0  0  0
   38.1090   25.2190   41.1090 C   0  0  0  0  0  0  0  0  0  0  0  0
   39.1860   25.2340   40.2870 N   0  0  0  0  0  0  0  0  0  0  0  0
   39.5500   24.1850   39.5220 C   0  0  0  0  0  0  0  0  0  0  0  0
   38.8230   23.0650   39.5600 N   0  0  0  0  0  0  0  0  0  0  0  0
   37.1430   22.0620   40.3860 H   0  0  0  0  0  0  0  0  0  0  0  0
   36.5100   24.0520   41.7970 H   0  0  0  0  0  0  0  0  0  0  0  0
   40.4290   24.2540   38.8780 H   0  0  0  0  0  0  0  0  0  0  0  0
  1  2  1  0  0  0  0
  2  7  1  0  0  0  0
  2  3  2  0  0  0  0
  3  8  1  0  0  0  0
  4  3  1  0  0  0  0
  4  9  1  0  0  0  0
  5  4  2  0  0  0  0
  6  1  2  0  0  0  0
  6  5  1  0  0  0  0
 10 11  1  0  0  0  0
 10  5  1  0  0  0  0
 11 12  1  0  0  0  0
 13 11  2  0  0  0  0
 14 13  1  0  0  0  0
 15 14  2  0  0  0  0
 16 15  1  0  0  0  0
 17 16  1  0  0  0  0
 18 16  2  0  0  0  0
 18 19  1  0  0  0  0
 19 20  2  0  0  0  0
 20 14  1  0  0  0  0
 20 21  1  0  0  0  0
 21 10  2  0  0  0  0
 22 28  1  0  0  0  0
 22 23  1  0  0  0  0
 23 29  1  0  0  0  0
 24 23  2  0  0  0  0
 24  1  1  0  0  0  0
 25 24  1  0  0  0  0
 26 27  1  0  0  0  0
 26 25  2  0  0  0  0
 27 22  2  0  0  0  0
 30 26  1  0  0  0  0
M  END
>  <minimizedAffinity>
-5.69269228

$$$$

 OpenBabel03242521033D

 30 33  0  0  0  0  0  0  0  0999 V2000
   32.7870   29.2470   37.0380 C   0  0  0  0  0  0  0  0  0  0  0  0
   33.4460   29.0150   35.8560 C   0  0  0  0  0  0  0  0  0  0  0  0
   34.7900   28.7430   35.7490 C   0  0  0  0  0  0  0  0  0  0  0  0
   35.5390   28.6980   36.9200 C   0  0  0  0  0  0  0  0  0  0  0  0
   34.8660   28.9320   38.0850 C   0  0  0  0  0  0  0  0  0  0  0  0
   33.5600   29.1910   38.1250 N   0  0  0  0  0  0  0  0  0  0  0  0
   32.9080   29.0380   34.9180 H   0  0  0  0  0  0  0  0  0  0  0  0
   35.2900   28.5620   34.8070 H   0  0  0  0  0  0  0  0  0  0  0  0
   36.5890   28.4880   36.8640 H   0  0  0  0  0  0  0  0  0  0  0  0
   35.5620   28.9090   39.3680 C   0  0  0  0  0  0  0  0  0  0  0  0
   35.7450   30.0850   40.0860 C   0  0  0  0  0  0  0  0  0  0  0  0
   35.3630   31.0280   39.6820 H   0  0  0  0  0  0  0  0  0  0  0  0
   36.3820   30.1920   41.3010 C   0  0  0  0  0  3  0  0  0  0  0  0
   36.8850   29.0370   41.8620 C   0  0  0  0  0  0  0  0  0  0  0  0
   37.5210   29.0450   43.0460 N   0  0  0  0  0  0  0  0  0  0  0  0
   38.0180   27.9130   43.6020 C   0  0  0  0  0  0  0  0  0  0  0  0
   38.5340   27.8880   44.5510 H   0  0  0  0  0  0  0  0  0  0  0  0
   37.8720   26.7100   42.9420 C   0  0  0  0  0  3  0  0  0  0  0  0
   37.2280   26.6540   41.7310 C   0  0  0  0  0  3  0  0  0  0  0  0
   36.7310   27.8420   41.1920 C   0  0  0  0  0  0  0  0  0  0  0  0
   36.0850   27.7900   39.9790 C   0  0  0  0  0  3  0  0  0  0  0  0
   29.1170   29.7300   36.2820 C   0  0  0  0  0  0  0  0  0  0  0  0
   30.4610   29.4150   36.0530 C   0  0  0  0  0  0  0  0  0  0  0  0
   31.3540   29.5340   37.1060 C   0  0  0  0  0  0  0  0  0  0  0  0
   30.8600   29.9520   38.2970 N   0  0  0  0  0  0  0  0  0  0  0  0
   29.5610   30.2510   38.4970 C   0  0  0  0  0  0  0  0  0  0  0  0
   28.7000   30.1350   37.4820 N   0  0  0  0  0  0  0  0  0  0  0  0
   28.4160   29.6310   35.4390 H   0  0  0  0  0  0  0  0  0  0  0  0
   30.8560   29.0860   35.1210 H   0  0  0  0  0  0  0  0  0  0  0  0
   29.2190   30.5840   39.4790 H   0  0  0  0  0  0  0  0  0  0  0  0
  1 24  1  0  0  0  0
  1  6  1  0  0  0  0
  2  1  2  0  0  0  0
  3  2  1  0  0  0  0
  3  4  2  0  0  0  0
  4  5  1  0  0  0  0
  5  6  2  0  0  0  0
  5 10  1  0  0  0  0
  7  2  1  0  0  0  0
  8  3  1  0  0  0  0
  9  4  1  0  0  0  0
 10 21  2  0  0  0  0
 10 11  1  0  0  0  0
 11 13  2  0  0  0  0
 12 11  1  0  0  0  0
 13 14  1  0  0  0  0
 14 15  1  0  0  0  0
 15 16  2  0  0  0  0
 16 17  1  0  0  0  0
 18 16  1  0  0  0  0
 19 18  2  0  0  0  0
 20 19  1  0  0  0  0
 20 14  2  0  0  0  0
 21 20  1  0  0  0  0
 22 27  1  0  0  0  0
 23 22  2  0  0  0  0
 23 24  1  0  0  0  0
 24 25  2  0  0  0  0
 25 26  1  0  0  0  0
 26 30  1  0  0  0  0
 27 26  2  0  0  0  0
 28 22  1  0  0  0  0
 29 23  1  0  0  0  0
M  END
>  <minimizedAffinity>
-5.67844248

$$$$

 OpenBabel03242521033D

 30 33  0  0  0  0  0  0  0  0999 V2000
   37.2960   28.1430   41.1720 C   0  0  0  0  0  0  0  0  0  0  0  0
   35.9500   28.3360   40.9830 C   0  0  0  0  0  0  0  0  0  0  0  0
   35.3900   29.4750   40.4520 C   0  0  0  0  0  0  0  0  0  0  0  0
   36.2450   30.5070   40.0810 C   0  0  0  0  0  0  0  0  0  0  0  0
   37.5800   30.2960   40.2780 C   0  0  0  0  0  0  0  0  0  0  0  0
   38.0630   29.1680   40.7970 N   0  0  0  0  0  0  0  0  0  0  0  0
   35.2430   27.5640   41.2550 H   0  0  0  0  0  0  0  0  0  0  0  0
   34.3260   29.6080   40.3100 H   0  0  0  0  0  0  0  0  0  0  0  0
   35.8350   31.4060   39.6640 H   0  0  0  0  0  0  0  0  0  0  0  0
   38.5600   31.3170   39.9210 C   0  0  0  0  0  0  0  0  0  0  0  0
   38.6600   32.4830   40.6720 C   0  0  0  0  0  0  0  0  0  0  0  0
   37.9990   32.6270   41.5330 H   0  0  0  0  0  0  0  0  0  0  0  0
   39.5390   33.5150   40.4380 C   0  0  0  0  0  3  0  0  0  0  0  0
   40.3980   33.3900   39.3670 C   0  0  0  0  0  0  0  0  0  0  0  0
   41.2920   34.3480   39.0620 N   0  0  0  0  0  0  0  0  0  0  0  0
   42.1380   34.2310   38.0100 C   0  0  0  0  0  0  0  0  0  0  0  0
   42.8660   34.9830   37.7400 H   0  0  0  0  0  0  0  0  0  0  0  0
   42.0930   33.0990   37.2210 C   0  0  0  0  0  3  0  0  0  0  0  0
   41.1970   32.0950   37.4960 C   0  0  0  0  0  3  0  0  0  0  0  0
   40.3410   32.2540   38.5880 C   0  0  0  0  0  0  0  0  0  0  0  0
   39.4430   31.2500   38.8660 C   0  0  0  0  0  3  0  0  0  0  0  0
   37.9770   24.5650   42.1790 C   0  0  0  0  0  0  0  0  0  0  0  0
   37.3280   25.6420   41.5630 C   0  0  0  0  0  0  0  0  0  0  0  0
   37.8490   26.9130   41.7410 C   0  0  0  0  0  0  0  0  0  0  0  0
   38.9620   27.0290   42.5050 N   0  0  0  0  0  0  0  0  0  0  0  0
   39.5720   25.9780   43.0900 C   0  0  0  0  0  0  0  0  0  0  0  0
   39.0700   24.7520   42.9180 N   0  0  0  0  0  0  0  0  0  0  0  0
   37.5540   23.5590   42.0300 H   0  0  0  0  0  0  0  0  0  0  0  0
   36.4530   25.5580   40.9620 H   0  0  0  0  0  0  0  0  0  0  0  0
   40.4670   26.1310   43.6960 H   0  0  0  0  0  0  0  0  0  0  0  0
  1 24  1  0  0  0  0
  2  1  1  0  0  0  0
  2  7  1  0  0  0  0
  3  2  2  0  0  0  0
  4  5  2  0  0  0  0
  4  3  1  0  0  0  0
  5  6  1  0  0  0  0
  6  1  2  0  0  0  0
  8  3  1  0  0  0  0
  9  4  1  0  0  0  0
 10  5  1  0  0  0  0
 10 11  1  0  0  0  0
 11 12  1  0  0  0  0
 13 11  2  0  0  0  0
 14 13  1  0  0  0  0
 15 14  1  0  0  0  0
 16 15  2  0  0  0  0
 17 16  1  0  0  0  0
 18 19  2  0  0  0  0
 18 16  1  0  0  0  0
 19 20  1  0  0  0  0
 20 21  1  0  0  0  0
 20 14  2  0  0  0  0
 21 10  2  0  0  0  0
 22 27  1  0  0  0  0
 23 24  1  0  0  0  0
 23 22  2  0  0  0  0
 24 25  2  0  0  0  0
 25 26  1  0  0  0  0
 26 30  1  0  0  0  0
 27 26  2  0  0  0  0
 28 22  1  0  0  0  0
 29 23  1  0  0  0  0
M  END
>  <minimizedAffinity>
-5.66503906

$$$$

 OpenBabel03242521033D

 30 33  0  0  0  0  0  0  0  0999 V2000
   34.9980   28.3890   38.7650 C   0  0  0  0  0  0  0  0  0  0  0  0
   35.2810   27.2250   38.0930 C   0  0  0  0  0  0  0  0  0  0  0  0
   34.5930   26.7710   36.9920 C   0  0  0  0  0  0  0  0  0  0  0  0
   33.5350   27.5410   36.5220 C   0  0  0  0  0  0  0  0  0  0  0  0
   33.2680   28.6940   37.2050 C   0  0  0  0  0  0  0  0  0  0  0  0
   33.9710   29.0830   38.2670 N   0  0  0  0  0  0  0  0  0  0  0  0
   36.0950   26.5920   38.4170 H   0  0  0  0  0  0  0  0  0  0  0  0
   34.8330   25.8510   36.4750 H   0  0  0  0  0  0  0  0  0  0  0  0
   32.9820   27.2090   35.6660 H   0  0  0  0  0  0  0  0  0  0  0  0
   32.1770   29.5720   36.7920 C   0  0  0  0  0  0  0  0  0  0  0  0
   31.1400   29.8590   37.6720 C   0  0  0  0  0  0  0  0  0  0  0  0
   31.1480   29.4210   38.6760 H   0  0  0  0  0  0  0  0  0  0  0  0
   30.0600   30.6670   37.4030 C   0  0  0  0  0  3  0  0  0  0  0  0
   29.9940   31.2480   36.1540 C   0  0  0  0  0  0  0  0  0  0  0  0
   28.9770   32.0540   35.8020 N   0  0  0  0  0  0  0  0  0  0  0  0
   28.9060   32.6260   34.5750 C   0  0  0  0  0  0  0  0  0  0  0  0
   28.1020   33.2770   34.2630 H   0  0  0  0  0  0  0  0  0  0  0  0
   29.9030   32.3840   33.6520 C   0  0  0  0  0  3  0  0  0  0  0  0
   30.9620   31.5680   33.9680 C   0  0  0  0  0  3  0  0  0  0  0  0
   30.9970   30.9970   35.2420 C   0  0  0  0  0  0  0  0  0  0  0  0
   32.0560   30.1800   35.5620 C   0  0  0  0  0  3  0  0  0  0  0  0
   36.7690   30.4160   41.4160 C   0  0  0  0  0  0  0  0  0  0  0  0
   36.0260   30.1550   40.2590 C   0  0  0  0  0  0  0  0  0  0  0  0
   35.7560   28.8350   39.9330 C   0  0  0  0  0  0  0  0  0  0  0  0
   36.2340   27.8780   40.7660 N   0  0  0  0  0  0  0  0  0  0  0  0
   36.9490   28.1510   41.8770 C   0  0  0  0  0  0  0  0  0  0  0  0
   37.2080   29.4240   42.1900 N   0  0  0  0  0  0  0  0  0  0  0  0
   36.9770   31.4690   41.6650 H   0  0  0  0  0  0  0  0  0  0  0  0
   35.6470   30.9010   39.6010 H   0  0  0  0  0  0  0  0  0  0  0  0
   37.3090   27.3390   42.5110 H   0  0  0  0  0  0  0  0  0  0  0  0
  1 24  1  0  0  0  0
  2  7  1  0  0  0  0
  2  1  2  0  0  0  0
  3  2  1  0  0  0  0
  4  3  2  0  0  0  0
  4  5  1  0  0  0  0
  5  6  2  0  0  0  0
  6  1  1  0  0  0  0
  8  3  1  0  0  0  0
  9  4  1  0  0  0  0
 10  5  1  0  0  0  0
 10 11  1  0  0  0  0
 11 12  1  0  0  0  0
 13 11  2  0  0  0  0
 14 13  1  0  0  0  0
 15 14  1  0  0  0  0
 16 15  2  0  0  0  0
 17 16  1  0  0  0  0
 18 19  2  0  0  0  0
 18 16  1  0  0  0  0
 19 20  1  0  0  0  0
 20 21  1  0  0  0  0
 20 14  2  0  0  0  0
 21 10  2  0  0  0  0
 22 28  1  0  0  0  0
 22 27  1  0  0  0  0
 23 22  2  0  0  0  0
 24 23  1  0  0  0  0
 24 25  2  0  0  0  0
 25 26  1  0  0  0  0
 26 27  2  0  0  0  0
 26 30  1  0  0  0  0
 29 23  1  0  0  0  0
M  END
>  <minimizedAffinity>
-5.6047678

$$$$

 OpenBabel03242521033D

 30 33  0  0  0  0  0  0  0  0999 V2000
   39.2360   31.7820   39.0790 C   0  0  0  0  0  0  0  0  0  0  0  0
   38.3350   32.7850   39.3430 C   0  0  0  0  0  0  0  0  0  0  0  0
   37.1660   32.6210   40.0500 C   0  0  0  0  0  0  0  0  0  0  0  0
   36.8710   31.3500   40.5320 C   0  0  0  0  0  0  0  0  0  0  0  0
   37.7790   30.3660   40.2590 C   0  0  0  0  0  0  0  0  0  0  0  0
   38.8960   30.5870   39.5680 N   0  0  0  0  0  0  0  0  0  0  0  0
   38.5190   33.7900   38.9910 H   0  0  0  0  0  0  0  0  0  0  0  0
   36.4700   33.4240   40.2480 H   0  0  0  0  0  0  0  0  0  0  0  0
   35.9670   31.1950   41.0860 H   0  0  0  0  0  0  0  0  0  0  0  0
   37.5610   28.9990   40.7210 C   0  0  0  0  0  0  0  0  0  0  0  0
   37.5730   28.7100   42.0810 C   0  0  0  0  0  0  0  0  0  0  0  0
   37.7470   29.5160   42.8010 H   0  0  0  0  0  0  0  0  0  0  0  0
   37.3820   27.4670   42.6380 C   0  0  0  0  0  3  0  0  0  0  0  0
   37.1580   26.4110   41.7810 C   0  0  0  0  0  0  0  0  0  0  0  0
   36.9600   25.1610   42.2350 N   0  0  0  0  0  0  0  0  0  0  0  0
   36.7400   24.1190   41.3960 C   0  0  0  0  0  0  0  0  0  0  0  0
   36.5780   23.1040   41.7310 H   0  0  0  0  0  0  0  0  0  0  0  0
   36.7150   24.3350   40.0330 C   0  0  0  0  0  3  0  0  0  0  0  0
   36.9120   25.5950   39.5250 C   0  0  0  0  0  3  0  0  0  0  0  0
   37.1360   26.6410   40.4210 C   0  0  0  0  0  0  0  0  0  0  0  0
   37.3330   27.9050   39.9150 C   0  0  0  0  0  3  0  0  0  0  0  0
   42.3100   33.2520   37.4470 C   0  0  0  0  0  0  0  0  0  0  0  0
   41.1390   33.2080   38.2130 C   0  0  0  0  0  0  0  0  0  0  0  0
   40.4680   32.0010   38.3230 C   0  0  0  0  0  0  0  0  0  0  0  0
   40.9970   30.9340   37.6750 N   0  0  0  0  0  0  0  0  0  0  0  0
   42.1270   30.9980   36.9410 C   0  0  0  0  0  0  0  0  0  0  0  0
   42.7740   32.1620   36.8360 N   0  0  0  0  0  0  0  0  0  0  0  0
   42.8350   34.2170   37.3680 H   0  0  0  0  0  0  0  0  0  0  0  0
   40.7190   34.0420   38.7250 H   0  0  0  0  0  0  0  0  0  0  0  0
   42.5060   30.1050   36.4400 H   0  0  0  0  0  0  0  0  0  0  0  0
  1  2  2  0  0  0  0
  1  6  1  0  0  0  0
  2  3  1  0  0  0  0
  3  8  1  0  0  0  0
  3  4  2  0  0  0  0
  4  9  1  0  0  0  0
  5  4  1  0  0  0  0
  5 10  1  0  0  0  0
  6  5  2  0  0  0  0
  7  2  1  0  0  0  0
 10 11  1  0  0  0  0
 11 13  2  0  0  0  0
 11 12  1  0  0  0  0
 14 15  1  0  0  0  0
 14 13  1  0  0  0  0
 16 17  1  0  0  0  0
 16 15  2  0  0  0  0
 18 16  1  0  0  0  0
 19 18  2  0  0  0  0
 19 20  1  0  0  0  0
 20 14  2  0  0  0  0
 21 20  1  0  0  0  0
 21 10  2  0  0  0  0
 22 23  1  0  0  0  0
 23 24  2  0  0  0  0
 23 29  1  0  0  0  0
 24  1  1  0  0  0  0
 25 24  1  0  0  0  0
 26 25  2  0  0  0  0
 27 26  1  0  0  0  0
 27 22  2  0  0  0  0
 28 22  1  0  0  0  0
 30 26  1  0  0  0  0
M  END
>  <minimizedAffinity>
-5.60427761

$$$$

 OpenBabel03242521033D

 30 33  0  0  0  0  0  0  0  0999 V2000
   38.1210   30.7420   40.9970 C   0  0  0  0  0  0  0  0  0  0  0  0
   36.9970   31.4400   40.6310 C   0  0  0  0  0  0  0  0  0  0  0  0
   36.9980   32.5680   39.8420 C   0  0  0  0  0  0  0  0  0  0  0  0
   38.2230   33.0380   39.3830 C   0  0  0  0  0  0  0  0  0  0  0  0
   39.3300   32.3310   39.7590 C   0  0  0  0  0  0  0  0  0  0  0  0
   39.2650   31.2440   40.5250 N   0  0  0  0  0  0  0  0  0  0  0  0
   36.0200   31.1150   40.9610 H   0  0  0  0  0  0  0  0  0  0  0  0
   36.1000   33.1030   39.5640 H   0  0  0  0  0  0  0  0  0  0  0  0
   38.2520   33.9150   38.7670 H   0  0  0  0  0  0  0  0  0  0  0  0
   40.6620   32.7430   39.3290 C   0  0  0  0  0  0  0  0  0  0  0  0
   40.9740   32.8000   37.9750 C   0  0  0  0  0  0  0  0  0  0  0  0
   40.2120   32.5330   37.2350 H   0  0  0  0  0  0  0  0  0  0  0  0
   42.1890   33.1710   37.4470 C   0  0  0  0  0  3  0  0  0  0  0  0
   43.1890   33.5180   38.3300 C   0  0  0  0  0  0  0  0  0  0  0  0
   44.4080   33.8950   37.9050 N   0  0  0  0  0  0  0  0  0  0  0  0
   45.3950   34.2370   38.7680 C   0  0  0  0  0  0  0  0  0  0  0  0
   46.3840   34.5430   38.4570 H   0  0  0  0  0  0  0  0  0  0  0  0
   45.1540   34.2020   40.1270 C   0  0  0  0  0  3  0  0  0  0  0  0
   43.9240   33.8250   40.6060 C   0  0  0  0  0  3  0  0  0  0  0  0
   42.9340   33.4790   39.6840 C   0  0  0  0  0  0  0  0  0  0  0  0
   41.7000   33.1010   40.1610 C   0  0  0  0  0  3  0  0  0  0  0  0
   38.9320   27.8660   43.3090 C   0  0  0  0  0  0  0  0  0  0  0  0
   39.1420   29.0220   42.5480 C   0  0  0  0  0  0  0  0  0  0  0  0
   38.0740   29.5460   41.8390 C   0  0  0  0  0  0  0  0  0  0  0  0
   36.8870   28.8980   41.9300 N   0  0  0  0  0  0  0  0  0  0  0  0
   36.7060   27.7840   42.6690 C   0  0  0  0  0  0  0  0  0  0  0  0
   37.7360   27.2790   43.3540 N   0  0  0  0  0  0  0  0  0  0  0  0
   39.7880   27.4580   43.8690 H   0  0  0  0  0  0  0  0  0  0  0  0
   40.0710   29.5360   42.4720 H   0  0  0  0  0  0  0  0  0  0  0  0
   35.7260   27.3040   42.7050 H   0  0  0  0  0  0  0  0  0  0  0  0
  1 24  1  0  0  0  0
  2  7  1  0  0  0  0
  2  1  1  0  0  0  0
  3  2  2  0  0  0  0
  4  5  2  0  0  0  0
  4  3  1  0  0  0  0
  5  6  1  0  0  0  0
  6  1  2  0  0  0  0
  8  3  1  0  0  0  0
  9  4  1  0  0  0  0
 10  5  1  0  0  0  0
 10 21  1  0  0  0  0
 11 10  2  0  0  0  0
 12 11  1  0  0  0  0
 13 11  1  0  0  0  0
 13 14  2  0  0  0  0
 14 20  1  0  0  0  0
 15 14  1  0  0  0  0
 15 16  2  0  0  0  0
 16 18  1  0  0  0  0
 17 16  1  0  0  0  0
 18 19  2  0  0  0  0
 20 21  2  0  0  0  0
 20 19  1  0  0  0  0
 22 27  1  0  0  0  0
 22 28  1  0  0  0  0
 23 22  2  0  0  0  0
 24 25  2  0  0  0  0
 24 23  1  0  0  0  0
 25 26  1  0  0  0  0
 26 30  1  0  0  0  0
 26 27  2  0  0  0  0
 29 23  1  0  0  0  0
M  END
>  <minimizedAffinity>
-5.51263857

$$$$
