
 OpenBabel03252500583D

 41 44  0  0  0  0  0  0  0  0999 V2000
   41.8310   35.3400   41.9680 O   0  0  0  0  0  0  0  0  0  0  0  0
   40.7600   34.7170   41.3550 C   0  0  0  0  0  0  0  0  0  0  0  0
   39.9720   35.4650   40.4970 C   0  0  0  0  0  0  0  0  0  0  0  0
   38.8780   34.9280   39.8380 C   0  0  0  0  0  0  0  0  0  0  0  0
   38.5870   33.6230   40.0550 N   0  0  0  0  0  0  0  0  0  0  0  0
   39.3480   32.8940   40.8840 C   0  0  0  0  0  0  0  0  0  0  0  0
   40.3900   33.4390   41.5020 N   0  0  0  0  0  0  0  0  0  0  0  0
   40.1720   36.5090   40.3000 H   0  0  0  0  0  0  0  0  0  0  0  0
   38.2710   35.5190   39.1720 H   0  0  0  0  0  0  0  0  0  0  0  0
   39.0090   31.4910   41.0970 C   0  0  0  0  0  0  0  0  0  0  0  0
   39.6830   30.7270   42.0320 C   0  0  0  0  0  0  0  0  0  0  0  0
   40.4780   31.1450   42.6300 H   0  0  0  0  0  0  0  0  0  0  0  0
   39.3900   29.3780   42.2670 C   0  0  0  0  0  3  0  0  0  0  0  0
   38.3780   28.8170   41.5160 C   0  0  0  0  0  0  0  0  0  0  0  0
   38.0060   27.5110   41.6600 N   0  0  0  0  0  0  0  0  0  0  0  0
   36.9960   27.0180   40.8840 C   0  0  0  0  0  0  0  0  0  0  0  0
   36.7850   25.9610   41.0870 H   0  0  0  0  0  0  0  0  0  0  0  0
   36.2990   27.7470   39.9420 C   0  0  0  0  0  3  0  0  0  0  0  0
   36.6590   29.0890   39.7740 C   0  0  0  0  0  3  0  0  0  0  0  0
   37.6850   29.5480   40.5750 C   0  0  0  0  0  0  0  0  0  0  0  0
   38.0020   30.8890   40.3670 C   0  0  0  0  0  3  0  0  0  0  0  0
   43.6820   35.3800   40.0850 O   0  0  0  0  0  0  0  0  0  0  0  0
   43.3930   34.9100   41.4980 P   0  0  2  0  0  0  0  0  0  0  0  0
   43.4880   33.2230   41.5250 O   0  0  0  0  0  0  0  0  0  0  0  0
   43.1180   32.9350   42.4070 H   0  0  0  0  0  0  0  0  0  0  0  0
   44.5840   35.5090   42.5540 O   0  0  0  0  0  0  0  0  0  0  0  0
   46.6000   34.3620   42.9410 C   0  0  0  0  0  0  0  0  0  0  0  0
   45.3760   34.7600   43.4170 C   0  0  0  0  0  0  0  0  0  0  0  0
   45.0220   34.3850   44.7250 C   0  0  0  0  0  0  0  0  0  0  0  0
   45.9160   33.6550   45.4250 N   0  0  0  0  0  0  0  0  0  0  0  0
   47.1010   33.2810   44.9370 C   0  0  0  0  0  0  0  0  0  0  0  0
   47.4370   33.6360   43.6980 N   0  0  0  0  0  0  0  0  0  0  0  0
   44.0610   34.7160   45.0520 H   0  0  0  0  0  0  0  0  0  0  0  0
   47.7940   32.6910   45.5350 H   0  0  0  0  0  0  0  0  0  0  0  0
   47.0330   34.7210   41.5810 C   0  0  0  0  0  0  0  0  0  0  0  0
   46.3530   35.4110   41.0660 H   0  0  0  0  0  0  0  0  0  0  0  0
   47.0970   33.7790   40.9920 H   0  0  0  0  0  0  0  0  0  0  0  0
   48.3950   35.3470   41.6520 C   0  0  0  0  0  0  0  0  0  0  0  0
   48.4290   36.2950   41.0860 H   0  0  0  0  0  0  0  0  0  0  0  0
   49.1940   34.6930   41.2050 H   0  0  0  0  0  0  0  0  0  0  0  0
   48.6620   35.5870   42.7120 H   0  0  0  0  0  0  0  0  0  0  0  0
  2  7  1  0  0  0  0
  2  1  1  0  0  0  0
  3  2  2  0  0  0  0
  4  5  2  0  0  0  0
  4  3  1  0  0  0  0
  5  6  1  0  0  0  0
  6 10  1  0  0  0  0
  6  7  2  0  0  0  0
  8  3  1  0  0  0  0
  9  4  1  0  0  0  0
 10 11  1  0  0  0  0
 11 13  2  0  0  0  0
 11 12  1  0  0  0  0
 14 15  1  0  0  0  0
 14 13  1  0  0  0  0
 16 17  1  0  0  0  0
 16 15  2  0  0  0  0
 18 16  1  0  0  0  0
 19 18  2  0  0  0  0
 19 20  1  0  0  0  0
 20 14  2  0  0  0  0
 21 20  1  0  0  0  0
 21 10  2  0  0  0  0
 23 22  2  6  0  0  0
 23 24  1  0  0  0  0
 23  1  1  0  0  0  0
 23 26  1  0  0  0  0
 24 25  1  0  0  0  0
 26 28  1  0  0  0  0
 27 28  2  0  0  0  0
 27 32  1  0  0  0  0
 28 29  1  0  0  0  0
 29 33  1  0  0  0  0
 29 30  2  0  0  0  0
 31 30  1  0  0  0  0
 31 34  1  0  0  0  0
 32 31  2  0  0  0  0
 35 38  1  0  0  0  0
 35 27  1  0  0  0  0
 36 35  1  0  0  0  0
 37 35  1  0  0  0  0
 38 41  1  0  0  0  0
 39 38  1  0  0  0  0
 40 38  1  0  0  0  0
M  END
>  <minimizedAffinity>
-6.3349247

>  <minimizedRMSD>
0.987286389

$$$$
