
 OpenBabel03252503513D

 24 26  0  0  0  0  0  0  0  0999 V2000
   47.5890   35.0590   42.2740 C   0  0  0  0  0  0  0  0  0  0  0  0
   47.7870   34.0680   43.2640 C   0  0  0  0  0  0  0  0  0  0  0  0
   46.7440   33.7400   44.1310 C   0  0  0  0  0  0  0  0  0  0  0  0
   45.5780   34.4150   43.9560 N   0  0  0  0  0  0  0  0  0  0  0  0
   45.4040   35.3510   43.0140 C   0  0  0  0  0  0  0  0  0  0  0  0
   46.4020   35.6720   42.1790 N   0  0  0  0  0  0  0  0  0  0  0  0
   48.7370   33.5760   43.3440 H   0  0  0  0  0  0  0  0  0  0  0  0
   44.4290   35.8200   42.9730 H   0  0  0  0  0  0  0  0  0  0  0  0
   46.8860   32.7320   45.1660 C   0  0  0  0  0  0  0  0  0  0  0  0
   46.5650   32.9030   46.4820 C   0  0  0  0  0  0  0  0  0  0  0  0
   46.1750   33.8440   46.8050 H   0  0  0  0  0  0  0  0  0  0  0  0
   46.7280   31.8920   47.4110 C   0  0  0  0  0  3  0  0  0  0  0  0
   47.2320   30.6650   47.0140 C   0  0  0  0  0  0  0  0  0  0  0  0
   47.3990   29.6640   47.9120 N   0  0  0  0  0  0  0  0  0  0  0  0
   47.8890   28.4570   47.5470 C   0  0  0  0  0  0  0  0  0  0  0  0
   48.0250   27.6470   48.2700 H   0  0  0  0  0  0  0  0  0  0  0  0
   48.2240   28.2500   46.2210 C   0  0  0  0  0  3  0  0  0  0  0  0
   48.0690   29.2440   45.2830 C   0  0  0  0  0  3  0  0  0  0  0  0
   47.5680   30.4530   45.6960 C   0  0  0  0  0  0  0  0  0  0  0  0
   47.3830   31.4970   44.8140 C   0  0  0  0  0  3  0  0  0  0  0  0
   48.7450   35.3590   41.3860 C   0  0  0  0  0  0  0  0  0  0  0  0
   48.3970   35.2550   40.0520 F   0  0  0  0  0  0  0  0  0  0  0  0
   49.2150   36.6180   41.6970 F   0  0  0  0  0  0  0  0  0  0  0  0
   49.7900   34.4630   41.6580 F   0  0  0  0  0  0  0  0  0  0  0  0
  1  2  1  0  0  0  0
  2  7  1  0  0  0  0
  2  3  2  0  0  0  0
  3  9  1  0  0  0  0
  4  3  1  0  0  0  0
  5  4  2  0  0  0  0
  6  1  2  0  0  0  0
  6  5  1  0  0  0  0
  8  5  1  0  0  0  0
  9 10  1  0  0  0  0
 10 11  1  0  0  0  0
 10 12  2  0  0  0  0
 13 12  1  0  0  0  0
 13 14  1  0  0  0  0
 15 14  2  0  0  0  0
 15 16  1  0  0  0  0
 17 15  1  0  0  0  0
 18 19  1  0  0  0  0
 18 17  2  0  0  0  0
 19 13  2  0  0  0  0
 20  9  2  0  0  0  0
 20 19  1  0  0  0  0
 21 24  1  0  0  0  0
 21 23  1  0  0  0  0
 21  1  1  0  0  0  0
 22 21  1  0  0  0  0
M  END
>  <minimizedAffinity>
-5.63928366

>  <minimizedRMSD>
0.419849604

$$$$
