
 OpenBabel03252507223D

 50 54  0  0  1  0  0  0  0  0999 V2000
   47.4770   33.6910   42.8330 C   0  0  0  0  0  0  0  0  0  0  0  0
   48.5480   33.5630   43.4960 O   0  0  0  0  0  0  0  0  0  0  0  0
   47.2320   33.1210   41.5310 N   0  0  0  0  0  0  0  0  0  0  0  0
   46.0770   32.4400   40.9930 C   0  0  0  0  0  0  0  0  0  0  0  0
   45.7000   33.1030   39.6600 C   0  0  0  0  0  0  0  0  0  0  0  0
   46.8020   32.9400   38.6630 C   0  0  0  0  0  0  0  0  0  0  0  0
   48.0630   32.4970   39.3610 C   0  0  0  0  0  0  0  0  0  0  0  0
   48.3460   33.2910   40.6200 C   0  0  2  0  0  0  0  0  0  0  0  0
   46.2090   31.3680   40.8280 H   0  0  0  0  0  0  0  0  0  0  0  0
   45.1780   32.6110   41.6490 H   0  0  0  0  0  0  0  0  0  0  0  0
   44.8190   32.5700   39.2960 H   0  0  0  0  0  0  0  0  0  0  0  0
   45.4970   34.1770   39.8830 H   0  0  0  0  0  0  0  0  0  0  0  0
   46.5520   32.1530   37.9170 H   0  0  0  0  0  0  0  0  0  0  0  0
   46.9910   33.9310   38.1800 H   0  0  0  0  0  0  0  0  0  0  0  0
   48.9400   32.6920   38.6840 H   0  0  0  0  0  0  0  0  0  0  0  0
   48.0490   31.4130   39.5600 H   0  0  0  0  0  0  0  0  0  0  0  0
   48.3800   34.3540   40.3310 H   0  0  0  0  0  0  0  0  0  0  0  0
   46.0570   35.7000   42.8260 C   0  0  0  0  0  0  0  0  0  0  0  0
   46.4200   34.4790   43.4450 C   0  0  0  0  0  0  0  0  0  0  0  0
   45.7680   34.0800   44.5900 C   0  0  0  0  0  0  0  0  0  0  0  0
   44.8000   34.8810   45.0810 N   0  0  0  0  0  0  0  0  0  0  0  0
   44.4410   36.0580   44.4960 C   0  0  0  0  0  0  0  0  0  0  0  0
   45.0790   36.4380   43.3820 N   0  0  0  0  0  0  0  0  0  0  0  0
   46.5740   36.0000   41.9320 H   0  0  0  0  0  0  0  0  0  0  0  0
   43.6620   36.6520   44.9330 H   0  0  0  0  0  0  0  0  0  0  0  0
   46.1580   32.8290   45.2040 C   0  0  0  0  0  0  0  0  0  0  0  0
   45.8100   31.6500   44.6240 C   0  0  0  0  0  0  0  0  0  0  0  0
   46.1960   30.4740   45.2320 C   0  0  0  0  0  0  0  0  0  0  0  0
   46.9240   30.4380   46.4130 C   0  0  0  0  0  0  0  0  0  0  0  0
   47.2500   31.6750   46.9600 C   0  0  0  0  0  0  0  0  0  0  0  0
   46.8610   32.7950   46.3440 N   0  0  0  0  0  0  0  0  0  0  0  0
   45.2520   31.5460   43.7170 H   0  0  0  0  0  0  0  0  0  0  0  0
   45.9620   29.4780   44.8390 H   0  0  0  0  0  0  0  0  0  0  0  0
   47.2410   29.5460   46.9140 H   0  0  0  0  0  0  0  0  0  0  0  0
   47.8150   31.6970   47.8780 H   0  0  0  0  0  0  0  0  0  0  0  0
   49.6710   32.8830   41.1290 C   0  0  0  0  0  0  0  0  0  0  0  0
   50.1600   33.6170   41.8150 H   0  0  0  0  0  0  0  0  0  0  0  0
   50.3150   33.0560   40.2250 H   0  0  0  0  0  0  0  0  0  0  0  0
   49.8780   31.4930   41.5120 C   0  0  0  0  0  0  0  0  0  0  0  0
   49.3120   30.2840   41.1930 C   0  0  0  0  0  0  0  0  0  0  0  0
   48.5100   30.3020   40.5080 H   0  0  0  0  0  0  0  0  0  0  0  0
   49.6600   29.0470   41.6670 C   0  0  0  0  0  0  0  0  0  0  0  0
   50.6750   28.9180   42.5610 C   0  0  0  0  0  0  0  0  0  0  0  0
   51.0190   27.7180   43.0280 N   0  0  0  0  0  0  0  0  0  0  0  0
   52.0100   27.5110   43.9120 C   0  0  0  0  0  0  0  0  0  0  0  0
   52.3140   26.5510   44.3090 H   0  0  0  0  0  0  0  0  0  0  0  0
   52.6630   28.6590   44.3150 C   0  0  0  0  0  0  0  0  0  0  0  0
   52.3570   29.9300   43.8730 C   0  0  0  0  0  0  0  0  0  0  0  0
   51.3260   30.0350   42.9680 C   0  0  0  0  0  0  0  0  0  0  0  0
   50.9180   31.2570   42.4440 C   0  0  0  0  0  0  0  0  0  0  0  0
  1 19  1  0  0  0  0
  1  2  2  0  0  0  0
  3  1  1  0  0  0  0
  4  3  1  0  0  0  0
  4 10  1  0  0  0  0
  5 12  1  0  0  0  0
  5  4  1  0  0  0  0
  6  7  1  0  0  0  0
  6  5  1  0  0  0  0
  7 16  1  0  0  0  0
  7  8  1  0  0  0  0
  8 17  1  6  0  0  0
  8 36  1  0  0  0  0
  8  3  1  0  0  0  0
  9  4  1  0  0  0  0
 11  5  1  0  0  0  0
 13  6  1  0  0  0  0
 14  6  1  0  0  0  0
 15  7  1  0  0  0  0
 18 23  2  0  0  0  0
 18 19  1  0  0  0  0
 19 20  2  0  0  0  0
 20 21  1  0  0  0  0
 20 26  1  0  0  0  0
 22 25  1  0  0  0  0
 22 21  2  0  0  0  0
 23 22  1  0  0  0  0
 24 18  1  0  0  0  0
 26 31  1  0  0  0  0
 27 26  2  0  0  0  0
 27 28  1  0  0  0  0
 28 29  2  0  0  0  0
 29 34  1  0  0  0  0
 29 30  1  0  0  0  0
 30 35  1  0  0  0  0
 31 30  2  0  0  0  0
 32 27  1  0  0  0  0
 33 28  1  0  0  0  0
 36 39  1  0  0  0  0
 36 37  1  0  0  0  0
 38 36  1  0  0  0  0
 39 50  1  0  0  0  0
 40 39  2  0  0  0  0
 40 42  1  0  0  0  0
 41 40  1  0  0  0  0
 42 43  2  0  0  0  0
 43 49  1  0  0  0  0
 43 44  1  0  0  0  0
 44 45  2  0  0  0  0
 45 46  1  0  0  0  0
 45 47  1  0  0  0  0
 48 47  2  0  0  0  0
 49 48  1  0  0  0  0
 50 49  2  0  0  0  0
M  END
>  <minimizedAffinity>
-5.24494028

>  <minimizedRMSD>
0.449855864

$$$$
