REMARK  Name = 
REMARK  8 active torsions:
REMARK  status: ('A' for Active; 'I' for Inactive)
REMARK    1  A    between atoms: C_1  and  C_7
REMARK    2  A    between atoms: C_2  and  O_9
REMARK    3  A    between atoms: C_7  and  C_8
REMARK    4  A    between atoms: O_9  and  P_11
REMARK    5  A    between atoms: P_11  and  O_12
REMARK    6  A    between atoms: P_11  and  O_13
REMARK    7  A    between atoms: O_13  and  C_14
REMARK    8  A    between atoms: C_18  and  C_30
REMARK                            x       y       z     vdW  Elec       q    Type
REMARK                         _______ _______ _______ _____ _____    ______ ____
ROOT
ATOM      1  O   UNL     1      41.739  35.412  41.817  0.00  0.00    +0.000 OA
ENDROOT
BRANCH   1   2
ATOM      2  C   UNL     1      40.636  34.760  41.297  0.00  0.00    +0.000 A 
ATOM      3  C   UNL     1      39.990  35.331  40.215  0.00  0.00    +0.000 A 
ATOM      4  C   UNL     1      38.877  34.752  39.627  0.00  0.00    +0.000 A 
ATOM      5  N   UNL     1      38.422  33.586  40.145  0.00  0.00    +0.000 NA
ATOM      6  C   UNL     1      39.045  33.029  41.193  0.00  0.00    +0.000 A 
ATOM      7  N   UNL     1      40.110  33.610  41.735  0.00  0.00    +0.000 NA
ATOM      8  H   UNL     1      40.322  36.261  39.774  0.00  0.00    +0.000 HD
ATOM      9  H   UNL     1      38.381  35.205  38.784  0.00  0.00    +0.000 HD
BRANCH   6  10
ATOM     10  C   UNL     1      38.532  31.773  41.729  0.00  0.00    +0.000 A 
ATOM     11  C   UNL     1      39.181  30.576  41.491  0.00  0.00    +0.000 A 
ATOM     12  H   UNL     1      40.084  30.535  40.902  0.00  0.00    +0.000 HD
ATOM     13  C   UNL     1      38.723  29.349  41.986  0.00  0.00    +0.000 A 
ATOM     14  C   UNL     1      37.569  29.370  42.742  0.00  0.00    +0.000 A 
ATOM     15  N   UNL     1      37.029  28.236  43.276  0.00  0.00    +0.000 NA
ATOM     16  C   UNL     1      35.884  28.328  44.015  0.00  0.00    +0.000 A 
ATOM     17  H   UNL     1      35.545  27.355  44.392  0.00  0.00    +0.000 HD
ATOM     18  C   UNL     1      35.207  29.502  44.275  0.00  0.00    +0.000 A 
ATOM     19  C   UNL     1      35.738  30.681  43.740  0.00  0.00    +0.000 A 
ATOM     20  C   UNL     1      36.894  30.546  43.000  0.00  0.00    +0.000 A 
ATOM     21  C   UNL     1      37.379  31.750  42.491  0.00  0.00    +0.000 A 
ENDBRANCH   6  10
ENDBRANCH   1   2
BRANCH   1  23
ATOM     22  O   UNL     1      43.694  34.846  40.134  0.00  0.00    +0.000 OA
ATOM     23  P   UNL     1      43.264  34.730  41.585  0.00  0.00    +0.000 P 
BRANCH  23  24
ATOM     24  O   UNL     1      43.155  33.089  41.975  0.00  0.00    +0.000 OA
ATOM     25  H   UNL     1      42.699  33.042  42.863  0.00  0.00    +0.000 HD
ENDBRANCH  23  24
BRANCH  23  26
ATOM     26  O   UNL     1      44.451  35.420  42.589  0.00  0.00    +0.000 OA
BRANCH  26  28
ATOM     27  C   UNL     1      46.516  34.374  43.004  0.00  0.00    +0.000 A 
ATOM     28  C   UNL     1      45.280  34.741  43.475  0.00  0.00    +0.000 A 
ATOM     29  C   UNL     1      44.952  34.407  44.801  0.00  0.00    +0.000 A 
ATOM     30  N   UNL     1      45.881  33.745  45.522  0.00  0.00    +0.000 NA
ATOM     31  C   UNL     1      47.077  33.400  45.039  0.00  0.00    +0.000 A 
ATOM     32  N   UNL     1      47.388  33.716  43.783  0.00  0.00    +0.000 NA
ATOM     33  H   UNL     1      43.981  34.712  45.123  0.00  0.00    +0.000 HD
ATOM     34  H   UNL     1      47.799  32.865  45.654  0.00  0.00    +0.000 HD
BRANCH  27  35
ATOM     35  C   UNL     1      46.923  34.693  41.626  0.00  0.00    +0.000 C 
ATOM     36  H   UNL     1      46.229  35.361  41.102  0.00  0.00    +0.000 HD
ATOM     37  H   UNL     1      46.985  33.733  41.067  0.00  0.00    +0.000 HD
BRANCH  35  38
ATOM     38  C   UNL     1      48.281  35.331  41.654  0.00  0.00    +0.000 C 
ATOM     39  H   UNL     1      48.298  36.261  41.058  0.00  0.00    +0.000 HD
ATOM     40  H   UNL     1      49.078  34.670  41.215  0.00  0.00    +0.000 HD
ATOM     41  H   UNL     1      48.564  35.607  42.702  0.00  0.00    +0.000 HD
ENDBRANCH  35  38
ENDBRANCH  27  35
ENDBRANCH  26  28
ENDBRANCH  23  26
ENDBRANCH   1  23
TORSDOF 8
