
 OpenBabel03242523463D

 20 21  0  0  0  0  0  0  0  0999 V2000
   44.8390   35.0980   44.0260 C   0  0  0  0  0  0  0  0  0  0  0  0
   45.3230   35.1280   42.6920 C   0  0  0  0  0  0  0  0  0  0  0  0
   46.4500   34.3500   42.4130 C   0  0  0  0  0  0  0  0  0  0  0  0
   47.0130   33.6230   43.4000 N   0  0  0  0  0  0  0  0  0  0  0  0
   46.5160   33.6270   44.6570 C   0  0  0  0  0  0  0  0  0  0  0  0
   45.4410   34.3570   44.9620 N   0  0  0  0  0  0  0  0  0  0  0  0
   44.8530   35.7110   41.9460 H   0  0  0  0  0  0  0  0  0  0  0  0
   47.0120   33.0270   45.3950 H   0  0  0  0  0  0  0  0  0  0  0  0
   47.0120   34.3110   41.1060 N   0  0  0  0  0  0  0  0  0  0  0  0
   46.4890   33.5830   40.1060 C   0  0  0  0  0  0  0  0  0  0  0  0
   47.0780   33.5860   38.8590 C   0  0  0  0  0  0  0  0  0  0  0  0
   46.6860   33.0060   38.0100 H   0  0  0  0  0  0  0  0  0  0  0  0
   48.2280   34.3300   38.5730 C   0  0  0  0  0  0  0  0  0  0  0  0
   48.7810   34.3480   37.4450 O   0  0  0  0  0  0  0  0  0  0  0  0
   48.6890   35.0330   39.6300 N   0  0  0  0  0  0  0  0  0  0  0  0
   48.1190   35.0350   40.8500 C   0  0  0  0  0  0  0  0  0  0  0  0
   48.6150   35.7260   41.7990 O   0  0  0  0  0  0  0  0  0  0  0  0
   49.5590   35.6150   39.4640 H   0  0  0  0  0  0  0  0  0  0  0  0
   43.7350   35.8610   44.2970 O   0  0  0  0  0  0  0  0  0  0  0  0
   42.8880   35.6520   43.7520 H   0  0  0  0  0  0  0  0  0  0  0  0
  1 19  1  0  0  0  0
  1  6  1  0  0  0  0
  2  1  2  0  0  0  0
  3  2  1  0  0  0  0
  3  4  2  0  0  0  0
  4  5  1  0  0  0  0
  5  6  2  0  0  0  0
  5  8  1  0  0  0  0
  7  2  1  0  0  0  0
  9  3  1  0  0  0  0
 10  9  1  0  0  0  0
 11 10  2  0  0  0  0
 12 11  1  0  0  0  0
 13 11  1  0  0  0  0
 13 15  1  0  0  0  0
 14 13  2  0  0  0  0
 15 16  1  0  0  0  0
 16  9  1  0  0  0  0
 16 17  2  0  0  0  0
 18 15  1  0  0  0  0
 20 19  1  0  0  0  0
M  END
>  <minimizedAffinity>
-5.31942606

>  <minimizedRMSD>
2.90102077

$$$$
