REMARK  Name = 
REMARK  5 active torsions:
REMARK  status: ('A' for Active; 'I' for Inactive)
REMARK    1  A    between atoms: C_1  and  O_12
REMARK    2  A    between atoms: C_4  and  C_6
REMARK    3  A    between atoms: C_8  and  N_11
REMARK    4  A    between atoms: O_12  and  C_13
REMARK    5  A    between atoms: C_13  and  C_15
REMARK                            x       y       z     vdW  Elec       q    Type
REMARK                         _______ _______ _______ _____ _____    ______ ____
ROOT
ATOM      1  O   UNL     1      47.224  33.580  41.170  0.00  0.00    +0.000 OA
ENDROOT
BRANCH   1   2
ATOM      2  C   UNL     1      47.385  33.725  39.768  0.00  0.00    +0.000 A 
ATOM      3  C   UNL     1      48.320  34.440  39.012  0.00  0.00    +0.000 A 
ATOM      4  C   UNL     1      48.039  34.255  37.670  0.00  0.00    +0.000 A 
ATOM      5  C   UNL     1      46.952  33.440  37.672  0.00  0.00    +0.000 A 
ATOM      6  O   UNL     1      46.571  33.132  38.897  0.00  0.00    +0.000 OA
ATOM      7  H   UNL     1      49.092  35.009  39.504  0.00  0.00    +0.000 HD
ATOM      8  H   UNL     1      48.606  34.695  36.861  0.00  0.00    +0.000 HD
BRANCH   5   9
ATOM      9  C   UNL     1      46.264  32.951  36.457  0.00  0.00    +0.000 C 
ATOM     10  C   UNL     1      46.059  31.519  36.240  0.00  0.00    +0.000 C 
ATOM     11  C   UNL     1      47.191  32.145  35.510  0.00  0.00    +0.000 C 
ATOM     12  H   UNL     1      45.642  33.722  35.978  0.00  0.00    +0.000 HD
ATOM     13  H   UNL     1      46.251  30.769  37.041  0.00  0.00    +0.000 HD
ATOM     14  H   UNL     1      45.137  31.264  35.642  0.00  0.00    +0.000 HD
ATOM     15  H   UNL     1      48.224  32.015  35.821  0.00  0.00    +0.000 HD
BRANCH  11  18
ATOM     16  C   UNL     1      48.058  32.642  33.236  0.00  0.00    +0.000 C 
ATOM     17  O   UNL     1      49.261  32.628  33.627  0.00  0.00    +0.000 OA
ATOM     18  N   UNL     1      46.951  32.452  34.102  0.00  0.00    +0.000 N 
ATOM     19  H   UNL     1      47.956  32.814  32.173  0.00  0.00    +0.000 HD
ATOM     20  H   UNL     1      45.977  32.528  33.747  0.00  0.00    +0.000 HD
ENDBRANCH  11  18
ENDBRANCH   5   9
ENDBRANCH   1   2
BRANCH   1  21
ATOM     21  C   UNL     1      47.356  34.739  41.990  0.00  0.00    +0.000 C 
ATOM     22  O   UNL     1      48.229  35.567  41.657  0.00  0.00    +0.000 OA
BRANCH  21  23
ATOM     23  C   UNL     1      46.464  34.810  43.102  0.00  0.00    +0.000 A 
ATOM     24  C   UNL     1      45.561  35.842  43.070  0.00  0.00    +0.000 A 
ATOM     25  C   UNL     1      44.661  35.979  44.113  0.00  0.00    +0.000 A 
ATOM     26  N   UNL     1      44.711  35.081  45.127  0.00  0.00    +0.000 NA
ATOM     27  C   UNL     1      45.603  34.083  45.133  0.00  0.00    +0.000 A 
ATOM     28  N   UNL     1      46.466  33.974  44.107  0.00  0.00    +0.000 NA
ATOM     29  H   UNL     1      45.457  36.595  42.303  0.00  0.00    +0.000 HD
ATOM     30  H   UNL     1      43.924  36.775  44.142  0.00  0.00    +0.000 HD
ATOM     31  N   UNL     1      45.609  33.169  46.227  0.00  0.00    +0.000 N 
ATOM     32  C   UNL     1      44.747  32.152  46.431  0.00  0.00    +0.000 A 
ATOM     33  C   UNL     1      44.867  31.338  47.539  0.00  0.00    +0.000 A 
ATOM     34  H   UNL     1      44.157  30.543  47.658  0.00  0.00    +0.000 HD
ATOM     35  C   UNL     1      45.903  31.625  48.407  0.00  0.00    +0.000 A 
ATOM     36  O   UNL     1      46.026  30.882  49.434  0.00  0.00    +0.000 OA
ATOM     37  N   UNL     1      46.752  32.625  48.208  0.00  0.00    +0.000 N 
ATOM     38  C   UNL     1      46.608  33.413  47.102  0.00  0.00    +0.000 A 
ATOM     39  O   UNL     1      47.465  34.334  47.007  0.00  0.00    +0.000 OA
ATOM     40  H   UNL     1      47.514  32.774  48.920  0.00  0.00    +0.000 HD
ENDBRANCH  21  23
ENDBRANCH   1  21
TORSDOF 5
