REMARK  Name = 
REMARK  3 active torsions:
REMARK  status: ('A' for Active; 'I' for Inactive)
REMARK    1  A    between atoms: C_1  and  C_9
REMARK    2  A    between atoms: C_6  and  C_14
REMARK    3  A    between atoms: C_8  and  N_25
REMARK                            x       y       z     vdW  Elec       q    Type
REMARK                         _______ _______ _______ _____ _____    ______ ____
ROOT
ATOM      1  C   UNL     1      44.414  36.221  44.788  0.00  0.00    +0.000 A 
ATOM      2  C   UNL     1      45.072  36.111  43.540  0.00  0.00    +0.000 A 
ATOM      3  C   UNL     1      45.883  35.021  43.322  0.00  0.00    +0.000 A 
ATOM      4  N   UNL     1      46.006  34.118  44.311  0.00  0.00    +0.000 NA
ATOM      5  C   UNL     1      45.365  34.246  45.503  0.00  0.00    +0.000 A 
ATOM      6  N   UNL     1      44.572  35.294  45.738  0.00  0.00    +0.000 NA
ATOM      7  N   UNL     1      45.533  33.272  46.530  0.00  0.00    +0.000 N 
ATOM      8  H   UNL     1      43.759  37.039  45.053  0.00  0.00    +0.000 HD
ATOM      9  H   UNL     1      46.483  33.569  46.902  0.00  0.00    +0.000 HD
ATOM     10  H   UNL     1      44.695  32.639  46.547  0.00  0.00    +0.000 HD
ENDROOT
BRANCH   3  11
ATOM     11  C   UNL     1      46.592  34.799  42.103  0.00  0.00    +0.000 A 
ATOM     12  C   UNL     1      47.926  35.205  42.044  0.00  0.00    +0.000 A 
ATOM     13  C   UNL     1      48.718  35.030  40.911  0.00  0.00    +0.000 A 
ATOM     14  C   UNL     1      48.172  34.435  39.803  0.00  0.00    +0.000 A 
ATOM     15  C   UNL     1      46.863  34.030  39.844  0.00  0.00    +0.000 A 
ATOM     16  C   UNL     1      46.080  34.208  40.978  0.00  0.00    +0.000 A 
ATOM     17  H   UNL     1      48.383  35.681  42.913  0.00  0.00    +0.000 HD
ATOM     18  H   UNL     1      49.752  35.359  40.905  0.00  0.00    +0.000 HD
ATOM     19  H   UNL     1      48.726  34.265  38.884  0.00  0.00    +0.000 HD
ATOM     20  H   UNL     1      46.392  33.558  38.996  0.00  0.00    +0.000 HD
BRANCH  16  21
ATOM     21  C   UNL     1      44.673  33.758  41.021  0.00  0.00    +0.000 C 
ATOM     22  F   UNL     1      44.466  32.903  39.940  0.00  0.00    +0.000 F 
ATOM     23  F   UNL     1      43.833  34.849  40.933  0.00  0.00    +0.000 F 
ATOM     24  F   UNL     1      44.323  33.094  42.174  0.00  0.00    +0.000 F 
ENDBRANCH  16  21
ENDBRANCH   3  11
BRANCH   2  25
ATOM     25  N   UNL     1      44.790  37.199  42.676  0.00  0.00    +0.000 N 
ATOM     26  C   UNL     1      45.080  37.361  41.376  0.00  0.00    +0.000 A 
ATOM     27  C   UNL     1      44.773  38.453  40.630  0.00  0.00    +0.000 A 
ATOM     28  H   UNL     1      45.054  38.483  39.586  0.00  0.00    +0.000 HD
ATOM     29  C   UNL     1      44.108  39.511  41.212  0.00  0.00    +0.000 A 
ATOM     30  O   UNL     1      43.795  40.548  40.577  0.00  0.00    +0.000 OA
ATOM     31  N   UNL     1      43.800  39.387  42.511  0.00  0.00    +0.000 N 
ATOM     32  C   UNL     1      44.131  38.282  43.192  0.00  0.00    +0.000 A 
ATOM     33  O   UNL     1      43.775  38.301  44.419  0.00  0.00    +0.000 OA
ATOM     34  H   UNL     1      43.300  40.184  42.946  0.00  0.00    +0.000 HD
ENDBRANCH   2  25
TORSDOF 3
