
 OpenBabel03252502443D

 32 34  0  0  1  0  0  0  0  0999 V2000
   49.1360   34.7640   41.5470 C   0  0  1  0  0  0  0  0  0  0  0  0
   50.0490   34.3860   42.6690 C   0  0  0  0  0  0  0  0  0  0  0  0
   49.1780   33.3800   42.0340 C   0  0  2  0  0  0  0  0  0  0  0  0
   49.5740   35.0910   40.5630 H   0  0  0  0  0  0  0  0  0  0  0  0
   49.9250   34.7730   43.6980 H   0  0  0  0  0  0  0  0  0  0  0  0
   51.1250   34.4460   42.3940 H   0  0  0  0  0  0  0  0  0  0  0  0
   48.4130   32.7470   42.4170 H   0  0  0  0  0  0  0  0  0  0  0  0
   49.9050   32.5270   41.0680 N   0  0  0  0  0  0  0  0  0  0  0  0
   51.1920   32.3310   41.4310 C   0  0  0  0  0  0  0  0  0  0  0  0
   51.9970   31.5530   40.6240 C   0  0  0  0  0  0  0  0  0  0  0  0
   53.0350   31.3910   40.9100 H   0  0  0  0  0  0  0  0  0  0  0  0
   51.4390   31.0190   39.4890 C   0  0  0  0  0  0  0  0  0  0  0  0
   52.1990   30.3170   38.7790 O   0  0  0  0  0  0  0  0  0  0  0  0
   50.1410   31.2720   39.2110 N   0  0  0  0  0  0  0  0  0  0  0  0
   49.3440   32.0230   39.9800 C   0  0  0  0  0  0  0  0  0  0  0  0
   48.1550   32.2560   39.7270 O   0  0  0  0  0  0  0  0  0  0  0  0
   49.7720   30.8380   38.3350 H   0  0  0  0  0  0  0  0  0  0  0  0
   47.9370   35.5860   41.8990 C   0  0  0  0  0  0  0  0  0  0  0  0
   47.7950   36.4710   41.2810 H   0  0  0  0  0  0  0  0  0  0  0  0
   48.1210   35.8620   42.9870 H   0  0  0  0  0  0  0  0  0  0  0  0
   46.7700   34.6170   41.8940 C   0  0  0  0  0  0  0  0  0  0  0  0
   46.1810   34.5980   40.9890 H   0  0  0  0  0  0  0  0  0  0  0  0
   47.2170   33.6160   42.1910 H   0  0  0  0  0  0  0  0  0  0  0  0
   44.5360   36.0430   44.5560 C   0  0  0  0  0  0  0  0  0  0  0  0
   45.2000   35.8930   43.3030 C   0  0  0  0  0  0  0  0  0  0  0  0
   46.0050   34.7940   43.1580 C   0  0  0  0  0  0  0  0  0  0  0  0
   46.1350   33.9090   44.1880 N   0  0  0  0  0  0  0  0  0  0  0  0
   45.5080   34.0700   45.3410 C   0  0  0  0  0  0  0  0  0  0  0  0
   44.7150   35.1300   45.5230 N   0  0  0  0  0  0  0  0  0  0  0  0
   43.8830   36.8850   44.7520 H   0  0  0  0  0  0  0  0  0  0  0  0
   44.9590   36.6850   42.6150 H   0  0  0  0  0  0  0  0  0  0  0  0
   45.6320   33.3510   46.1400 H   0  0  0  0  0  0  0  0  0  0  0  0
  1  4  1  6  0  0  0
  1 18  1  0  0  0  0
  1  3  1  0  0  0  0
  1  2  1  0  0  0  0
  2  5  1  0  0  0  0
  3  7  1  1  0  0  0
  3  2  1  0  0  0  0
  6  2  1  0  0  0  0
  8  9  1  0  0  0  0
  8  3  1  0  0  0  0
 10 11  1  0  0  0  0
 10  9  2  0  0  0  0
 12 10  1  0  0  0  0
 13 12  2  0  0  0  0
 14 12  1  0  0  0  0
 14 15  1  0  0  0  0
 15  8  1  0  0  0  0
 16 15  2  0  0  0  0
 17 14  1  0  0  0  0
 18 20  1  0  0  0  0
 19 18  1  0  0  0  0
 21 18  1  0  0  0  0
 21 23  1  0  0  0  0
 21 26  1  0  0  0  0
 22 21  1  0  0  0  0
 24 30  1  0  0  0  0
 24 29  1  0  0  0  0
 25 24  2  0  0  0  0
 26 25  1  0  0  0  0
 26 27  2  0  0  0  0
 27 28  1  0  0  0  0
 28 29  2  0  0  0  0
 28 32  1  0  0  0  0
 31 25  1  0  0  0  0
M  END
>  <minimizedAffinity>
-5.00458717

>  <minimizedRMSD>
1.4351114

$$$$
