
     RDKit          3D

 35 36  0  0  0  0  0  0  0  0999 V2000
   43.3688   35.4364   41.6941 C   0  0  0  0  0  0  0  0  0  0  0  0
   43.2234   35.5391   43.1475 N   0  0  0  0  0  0  0  0  0  0  0  0
   44.7223   35.8233   43.9362 S   0  0  0  0  0  0  0  0  0  0  0  0
   45.8769   35.2423   43.1891 O   0  0  0  0  0  0  0  0  0  0  0  0
   44.8550   37.3336   44.0208 O   0  0  0  0  0  0  0  0  0  0  0  0
   44.6552   35.2568   45.5060 O   0  0  0  0  0  0  0  0  0  0  0  0
   45.3952   34.1019   45.6712 C   0  0  0  0  0  0  0  0  0  0  0  0
   42.8159   33.7925   41.2308 S   0  0  0  0  0  0  0  0  0  0  0  0
   40.1350   33.0945   41.3275 C   0  0  0  0  0  0  0  0  0  0  0  0
   41.0901   33.8741   40.6828 C   0  0  0  0  0  0  0  0  0  0  0  0
   40.7513   34.7151   39.6272 C   0  0  0  0  0  0  0  0  0  0  0  0
   39.4389   34.7384   39.2551 N   0  0  0  0  0  0  0  0  0  0  0  0
   38.5443   33.9817   39.8894 C   0  0  0  0  0  0  0  0  0  0  0  0
   38.8397   33.1662   40.9042 N   0  0  0  0  0  0  0  0  0  0  0  0
   42.7562   36.1760   41.1528 H   0  0  0  0  0  0  0  0  0  0  0  0
   44.4707   35.5518   41.4920 H   0  0  0  0  0  0  0  0  0  0  0  0
   42.5590   36.3227   43.3269 H   0  0  0  0  0  0  0  0  0  0  0  0
   45.9852   34.2712   43.0178 H   0  0  0  0  0  0  0  0  0  0  0  0
   45.3633   37.8540   43.3538 H   0  0  0  0  0  0  0  0  0  0  0  0
   44.7214   33.2503   45.4593 H   0  0  0  0  0  0  0  0  0  0  0  0
   46.3122   34.1093   45.0394 H   0  0  0  0  0  0  0  0  0  0  0  0
   45.7113   34.0259   46.7337 H   0  0  0  0  0  0  0  0  0  0  0  0
   40.4825   32.4738   42.1323 H   0  0  0  0  0  0  0  0  0  0  0  0
   41.4807   35.3243   39.1191 H   0  0  0  0  0  0  0  0  0  0  0  0
   37.1427   33.9389   39.5697 N   0  0  0  0  0  0  0  0  0  0  0  0
   36.8900   33.5119   38.3191 C   0  0  0  0  0  0  0  0  0  0  0  0
   35.5455   33.4465   37.9435 C   0  0  0  0  0  0  0  0  0  0  0  0
   35.2256   33.1118   36.9457 H   0  0  0  0  0  0  0  0  0  0  0  0
   34.5822   33.8238   38.8811 C   0  0  0  0  0  0  0  0  0  0  0  0
   33.3780   33.7621   38.5359 O   0  0  0  0  0  0  0  0  0  0  0  0
   34.8875   34.2475   40.1297 N   0  0  0  0  0  0  0  0  0  0  0  0
   36.1981   34.2977   40.4577 C   0  0  0  0  0  0  0  0  0  0  0  0
   36.5803   34.6764   41.5891 O   0  0  0  0  0  0  0  0  0  0  0  0
   37.6499   33.2253   37.6109 H   0  0  0  0  0  0  0  0  0  0  0  0
   34.1460   34.5221   40.8064 H   0  0  0  0  0  0  0  0  0  0  0  0
  1  2  1  0
  2  3  1  0
  3  5  1  0
  3  6  1  0
  4  3  1  0
  6  7  1  0
  8  1  1  0
 10  8  1  0
 10  9  2  0
 11 10  1  0
 12 11  2  0
 12 13  1  0
 13 14  2  0
 14  9  1  0
  1 15  1  0
  1 16  1  0
  2 17  1  0
  4 18  1  0
  5 19  1  0
  7 20  1  0
  7 21  1  0
  7 22  1  0
  9 23  1  0
 11 24  1  0
 25 26  1  0
 26 27  2  0
 27 28  1  0
 27 29  1  0
 29 30  2  0
 29 31  1  0
 31 32  1  0
 32 33  2  0
 32 25  1  0
 26 34  1  0
 31 35  1  0
 13 25  1  0
M  ISO  8  15   8  16   8  17   5  18   3  19   3  20   8  21   8  22   8
M  ISO  3  23  14  24  14  28  16
M  END
>  <DihAtoms>  (1) 
11,12,24,25

>  <DihDeg>  (1) 
-103.57999527595429

$$$$
