
 OpenBabel03252505533D

 34 36  0  0  0  0  0  0  0  0999 V2000
   46.5530   30.0520   47.4850 C   0  0  0  0  0  0  0  0  0  0  0  0
   46.6810   28.8320   46.8560 C   0  0  0  0  0  0  0  0  0  0  0  0
   47.8020   28.0740   47.0800 C   0  0  0  0  0  0  0  0  0  0  0  0
   48.7870   28.4830   47.8960 N   0  0  0  0  0  0  0  0  0  0  0  0
   48.6490   29.6760   48.5030 C   0  0  0  0  0  0  0  0  0  0  0  0
   47.5570   30.4650   48.3150 N   0  0  0  0  0  0  0  0  0  0  0  0
   45.8420   28.5980   46.2280 H   0  0  0  0  0  0  0  0  0  0  0  0
   47.8000   27.1380   46.5380 H   0  0  0  0  0  0  0  0  0  0  0  0
   49.7250   30.0850   49.3720 N   0  0  0  0  0  0  0  0  0  0  0  0
   50.6650   29.3610   49.9580 C   0  0  0  0  0  3  0  0  0  0  0  0
   51.5960   29.9890   50.7530 C   0  0  0  0  0  0  0  0  0  0  0  0
   52.3460   29.3610   51.2130 H   0  0  0  0  0  0  0  0  0  0  0  0
   51.5420   31.3500   50.9340 C   0  0  0  0  0  0  0  0  0  0  0  0
   52.4030   31.9110   51.6660 O   0  0  0  0  0  0  0  0  0  0  0  0
   50.5760   32.0670   50.3270 N   0  0  0  0  0  0  0  0  0  0  0  0
   49.6720   31.4370   49.5510 C   0  0  0  0  0  0  0  0  0  0  0  0
   48.8320   32.2420   49.0530 O   0  0  0  0  0  0  0  0  0  0  0  0
   50.5990   33.0960   50.5100 H   0  0  0  0  0  0  0  0  0  0  0  0
   45.4810   31.0370   47.4210 C   0  0  0  0  0  0  0  0  0  0  0  0
   44.7350   30.9430   48.2500 H   0  0  0  0  0  0  0  0  0  0  0  0
   44.8900   30.8970   46.4840 H   0  0  0  0  0  0  0  0  0  0  0  0
   46.0680   32.3140   47.3540 O   0  0  0  0  0  0  0  0  0  0  0  0
   45.1610   34.7710   44.9480 C   0  0  0  0  0  0  0  0  0  0  0  0
   46.0460   34.5550   43.8970 C   0  0  0  0  0  0  0  0  0  0  0  0
   46.9900   33.5150   44.0380 C   0  0  0  0  0  0  0  0  0  0  0  0
   46.9720   32.7980   45.1850 N   0  0  0  0  0  0  0  0  0  0  0  0
   46.0920   33.0480   46.1740 C   0  0  0  0  0  0  0  0  0  0  0  0
   45.1970   34.0210   46.0610 N   0  0  0  0  0  0  0  0  0  0  0  0
   44.4130   35.5610   44.8890 H   0  0  0  0  0  0  0  0  0  0  0  0
   47.6650   33.3590   43.2230 H   0  0  0  0  0  0  0  0  0  0  0  0
   45.9470   35.4320   42.6870 C   0  0  0  0  0  0  0  0  0  0  0  0
   45.3440   36.5820   43.1280 F   0  0  0  0  0  0  0  0  0  0  0  0
   45.1160   34.7640   41.7960 F   0  0  0  0  0  0  0  0  0  0  0  0
   47.2050   35.6380   42.1830 F   0  0  0  0  0  0  0  0  0  0  0  0
  1  6  1  0  0  0  0
  2  3  1  0  0  0  0
  2  1  2  0  0  0  0
  3  4  2  0  0  0  0
  4  5  1  0  0  0  0
  5  9  1  0  0  0  0
  6  5  2  0  0  0  0
  7  2  1  0  0  0  0
  8  3  1  0  0  0  0
  9 16  1  0  0  0  0
  9 10  1  0  0  0  0
 10 11  2  0  0  0  0
 11 13  1  0  0  0  0
 11 12  1  0  0  0  0
 13 14  2  0  0  0  0
 15 18  1  0  0  0  0
 15 13  1  0  0  0  0
 16 15  1  0  0  0  0
 17 16  2  0  0  0  0
 19  1  1  0  0  0  0
 19 20  1  0  0  0  0
 21 19  1  0  0  0  0
 22 19  1  0  0  0  0
 23 28  1  0  0  0  0
 24 25  1  0  0  0  0
 24 23  2  0  0  0  0
 25 26  2  0  0  0  0
 26 27  1  0  0  0  0
 27 22  1  0  0  0  0
 28 27  2  0  0  0  0
 29 23  1  0  0  0  0
 30 25  1  0  0  0  0
 31 32  1  0  0  0  0
 31 24  1  0  0  0  0
 33 31  1  0  0  0  0
 34 31  1  0  0  0  0
M  END
>  <minimizedAffinity>
-5.89973354

>  <minimizedRMSD>
1.46706593

$$$$
