
 OpenBabel03252508453D

 46 48  0  0  0  0  0  0  0  0999 V2000
   42.3370   31.7440   42.5210 N   0  0  0  0  0  0  0  0  0  0  0  0
   42.7460   30.8010   42.7070 H   0  0  0  0  0  0  0  0  0  0  0  0
   43.0350   32.5440   41.5700 C   0  0  0  0  0  0  0  0  0  0  0  0
   43.7000   31.9030   40.9200 H   0  0  0  0  0  0  0  0  0  0  0  0
   42.2930   33.0050   40.8950 H   0  0  0  0  0  0  0  0  0  0  0  0
   43.6800   34.9460   41.8920 C   0  0  0  0  0  0  0  0  0  0  0  0
   43.9090   33.5980   42.1590 C   0  0  0  0  0  0  0  0  0  0  0  0
   44.9620   33.2620   42.9840 C   0  0  0  0  0  0  0  0  0  0  0  0
   45.7510   34.2470   43.5150 C   0  0  0  0  0  0  0  0  0  0  0  0
   45.5490   35.5760   43.2690 C   0  0  0  0  0  0  0  0  0  0  0  0
   44.4840   35.8630   42.4390 C   0  0  0  0  0  0  0  0  0  0  0  0
   45.1750   32.2270   43.2180 H   0  0  0  0  0  0  0  0  0  0  0  0
   46.5830   33.9650   44.1680 H   0  0  0  0  0  0  0  0  0  0  0  0
   46.1420   36.3870   43.6620 H   0  0  0  0  0  0  0  0  0  0  0  0
   44.2430   36.8980   42.1840 H   0  0  0  0  0  0  0  0  0  0  0  0
   40.3110   35.9390   40.5100 C   0  0  0  0  0  0  0  0  0  0  0  0
   41.3220   35.6840   41.4450 C   0  0  0  0  0  0  0  0  0  0  0  0
   42.5540   35.2430   41.0150 C   0  0  0  0  0  0  0  0  0  0  0  0
   42.7070   35.0790   39.6690 N   0  0  0  0  0  0  0  0  0  0  0  0
   41.7290   35.3270   38.7720 C   0  0  0  0  0  0  0  0  0  0  0  0
   40.5330   35.7570   39.2080 N   0  0  0  0  0  0  0  0  0  0  0  0
   39.3430   36.2860   40.8510 H   0  0  0  0  0  0  0  0  0  0  0  0
   41.1830   35.8180   42.4900 H   0  0  0  0  0  0  0  0  0  0  0  0
   42.0470   35.1360   37.7420 H   0  0  0  0  0  0  0  0  0  0  0  0
   40.6700   31.5780   42.1450 S   0  0  0  0  0  0  0  0  0  0  0  0
   39.9000   32.8130   42.5510 O   0  0  0  0  0  0  0  0  0  0  0  0
   39.0900   32.8390   43.1160 H   0  0  0  0  0  0  0  0  0  0  0  0
   40.0950   30.3700   42.7980 O   0  0  0  0  0  0  0  0  0  0  0  0
   40.5790   29.4850   42.8300 H   0  0  0  0  0  0  0  0  0  0  0  0
   40.5410   31.4020   40.4780 O   0  0  0  0  0  0  0  0  0  0  0  0
   39.6620   32.3760   40.0150 C   0  0  0  0  0  0  0  0  0  0  0  0
   40.0000   32.6440   38.9770 H   0  0  0  0  0  0  0  0  0  0  0  0
   39.6070   33.2790   40.6150 H   0  0  0  0  0  0  0  0  0  0  0  0
   38.2720   31.7370   39.8310 C   0  0  0  0  0  0  0  0  0  0  0  0
   38.0070   31.2090   40.7680 H   0  0  0  0  0  0  0  0  0  0  0  0
   37.5240   32.5220   39.6710 H   0  0  0  0  0  0  0  0  0  0  0  0
   38.3190   30.8520   38.6870 N   0  0  0  0  0  0  0  0  0  0  0  0
   38.6970   31.3370   37.4810 C   0  0  0  0  0  3  0  0  0  0  0  0
   38.7250   30.4420   36.4180 C   0  0  0  0  0  0  0  0  0  0  0  0
   39.0240   30.7820   35.4160 H   0  0  0  0  0  0  0  0  0  0  0  0
   38.3740   29.1270   36.6360 C   0  0  0  0  0  0  0  0  0  0  0  0
   38.3840   28.2700   35.6930 O   0  0  0  0  0  0  0  0  0  0  0  0
   38.0030   28.6940   37.8660 N   0  0  0  0  0  0  0  0  0  0  0  0
   37.9790   29.5640   38.8880 C   0  0  0  0  0  0  0  0  0  0  0  0
   37.6300   29.1590   40.0490 O   0  0  0  0  0  0  0  0  0  0  0  0
   37.7310   27.7080   38.0700 H   0  0  0  0  0  0  0  0  0  0  0  0
  1  2  1  0  0  0  0
  3  7  1  0  0  0  0
  3  1  1  0  0  0  0
  4  3  1  0  0  0  0
  5  3  1  0  0  0  0
  6  7  2  0  0  0  0
  6 11  1  0  0  0  0
  7  8  1  0  0  0  0
  8 12  1  0  0  0  0
  8  9  2  0  0  0  0
  9 13  1  0  0  0  0
 10  9  1  0  0  0  0
 10 14  1  0  0  0  0
 11 10  2  0  0  0  0
 15 11  1  0  0  0  0
 16 22  1  0  0  0  0
 16 17  1  0  0  0  0
 17 23  1  0  0  0  0
 18 17  2  0  0  0  0
 18  6  1  0  0  0  0
 19 18  1  0  0  0  0
 20 21  1  0  0  0  0
 20 19  2  0  0  0  0
 21 16  2  0  0  0  0
 24 20  1  0  0  0  0
 25  1  1  0  0  0  0
 25 26  1  0  0  0  0
 25 28  1  0  0  0  0
 26 27  1  0  0  0  0
 28 29  1  0  0  0  0
 30 25  1  0  0  0  0
 31 30  1  0  0  0  0
 31 33  1  0  0  0  0
 32 31  1  0  0  0  0
 34 31  1  0  0  0  0
 34 35  1  0  0  0  0
 36 34  1  0  0  0  0
 37 44  1  0  0  0  0
 37 34  1  0  0  0  0
 38 37  1  0  0  0  0
 39 41  1  0  0  0  0
 39 38  2  0  0  0  0
 40 39  1  0  0  0  0
 41 43  1  0  0  0  0
 42 41  2  0  0  0  0
 43 46  1  0  0  0  0
 43 44  1  0  0  0  0
 44 45  2  0  0  0  0
M  END
>  <minimizedAffinity>
-5.53382635

>  <minimizedRMSD>
2.34629011

$$$$
