
 OpenBabel03252503443D

 35 37  0  0  1  0  0  0  0  0999 V2000
   39.7140   28.0910   41.6700 C   0  0  0  0  0  0  0  0  0  0  0  0
   38.8940   27.9790   42.8030 C   0  0  0  0  0  0  0  0  0  0  0  0
   38.1250   29.1010   43.1560 C   0  0  0  0  0  0  0  0  0  0  0  0
   38.2090   30.2110   42.4010 N   0  0  0  0  0  0  0  0  0  0  0  0
   39.0000   30.2900   41.3240 C   0  0  0  0  0  0  0  0  0  0  0  0
   39.7690   29.2270   40.9380 N   0  0  0  0  0  0  0  0  0  0  0  0
   40.3630   27.3320   41.2640 H   0  0  0  0  0  0  0  0  0  0  0  0
   37.5050   28.9820   44.0340 H   0  0  0  0  0  0  0  0  0  0  0  0
   37.6090   31.8110   39.9160 C   0  0  2  0  0  0  0  0  0  0  0  0
   38.9790   31.5510   40.5830 C   0  0  1  0  0  0  0  0  0  0  0  0
   39.0930   32.6750   41.3530 O   0  0  0  0  0  0  0  0  0  0  0  0
   38.7330   33.7400   40.5770 C   0  0  0  0  0  0  0  0  0  0  0  0
   37.9120   33.2330   39.4120 C   0  0  2  0  0  0  0  0  0  0  0  0
   37.4020   31.1100   39.1120 H   0  0  0  0  0  0  0  0  0  0  0  0
   39.7260   31.5150   39.7640 H   0  0  0  0  0  0  0  0  0  0  0  0
   38.1510   34.5170   41.1110 H   0  0  0  0  0  0  0  0  0  0  0  0
   39.6360   34.2650   40.1740 H   0  0  0  0  0  0  0  0  0  0  0  0
   38.5470   33.1100   38.4990 H   0  0  0  0  0  0  0  0  0  0  0  0
   36.6660   31.9500   40.8810 O   0  0  0  0  0  0  0  0  0  0  0  0
   35.7600   31.8240   40.4570 H   0  0  0  0  0  0  0  0  0  0  0  0
   36.7830   33.9650   39.1520 O   0  0  0  0  0  0  0  0  0  0  0  0
   36.0220   33.3560   39.0790 H   0  0  0  0  0  0  0  0  0  0  0  0
   38.9220   26.6820   43.5080 C   0  0  0  0  0  0  0  0  0  0  0  0
   39.9600   26.4420   43.8750 H   0  0  0  0  0  0  0  0  0  0  0  0
   38.3130   26.7660   44.4180 H   0  0  0  0  0  0  0  0  0  0  0  0
   38.4980   25.5830   42.6840 N   0  0  0  0  0  0  0  0  0  0  0  0
   37.2410   25.6580   42.1990 C   0  0  0  0  0  3  0  0  0  0  0  0
   36.8290   24.5890   41.3990 C   0  0  0  0  0  0  0  0  0  0  0  0
   35.8240   24.5980   40.9790 H   0  0  0  0  0  0  0  0  0  0  0  0
   37.6580   23.5210   41.1230 C   0  0  0  0  0  0  0  0  0  0  0  0
   37.3180   22.5480   40.4100 O   0  0  0  0  0  0  0  0  0  0  0  0
   38.8830   23.5800   41.6740 N   0  0  0  0  0  0  0  0  0  0  0  0
   39.3520   24.5730   42.4540 C   0  0  0  0  0  0  0  0  0  0  0  0
   40.5170   24.5450   42.9290 O   0  0  0  0  0  0  0  0  0  0  0  0
   39.5640   22.7880   41.4980 H   0  0  0  0  0  0  0  0  0  0  0  0
  1  2  1  0  0  0  0
  2  3  2  0  0  0  0
  2 23  1  0  0  0  0
  3  8  1  0  0  0  0
  4  3  1  0  0  0  0
  5  4  2  0  0  0  0
  6  5  1  0  0  0  0
  6  1  2  0  0  0  0
  7  1  1  0  0  0  0
  9 14  1  6  0  0  0
  9 10  1  0  0  0  0
  9 19  1  0  0  0  0
 10 15  1  6  0  0  0
 10  5  1  0  0  0  0
 10 11  1  0  0  0  0
 12 16  1  0  0  0  0
 12 11  1  0  0  0  0
 13 18  1  6  0  0  0
 13  9  1  0  0  0  0
 13 12  1  0  0  0  0
 17 12  1  0  0  0  0
 20 19  1  0  0  0  0
 21 13  1  0  0  0  0
 22 21  1  0  0  0  0
 23 24  1  0  0  0  0
 23 25  1  0  0  0  0
 26 23  1  0  0  0  0
 27 26  1  0  0  0  0
 28 27  2  0  0  0  0
 29 28  1  0  0  0  0
 30 28  1  0  0  0  0
 30 32  1  0  0  0  0
 31 30  2  0  0  0  0
 32 33  1  0  0  0  0
 33 26  1  0  0  0  0
 33 34  2  0  0  0  0
 35 32  1  0  0  0  0
M  END
>  <minimizedAffinity>
-6.10413742

$$$$

 OpenBabel03252503443D

 35 37  0  0  1  0  0  0  0  0999 V2000
   38.2730   29.3170   38.9190 C   0  0  0  0  0  0  0  0  0  0  0  0
   37.3330   29.6860   39.8950 C   0  0  0  0  0  0  0  0  0  0  0  0
   37.5640   30.8840   40.5910 C   0  0  0  0  0  0  0  0  0  0  0  0
   38.6560   31.6100   40.2930 N   0  0  0  0  0  0  0  0  0  0  0  0
   39.5360   31.2350   39.3560 C   0  0  0  0  0  0  0  0  0  0  0  0
   39.3580   30.0770   38.6500 N   0  0  0  0  0  0  0  0  0  0  0  0
   38.2470   28.4360   38.2980 H   0  0  0  0  0  0  0  0  0  0  0  0
   36.8230   31.1380   41.3360 H   0  0  0  0  0  0  0  0  0  0  0  0
   41.1140   32.1270   37.6400 C   0  0  2  0  0  0  0  0  0  0  0  0
   40.6680   32.1300   39.1200 C   0  0  1  0  0  0  0  0  0  0  0  0
   40.3980   33.4600   39.2900 O   0  0  0  0  0  0  0  0  0  0  0  0
   41.4270   34.1600   38.7300 C   0  0  0  0  0  0  0  0  0  0  0  0
   42.1510   33.2580   37.7530 C   0  0  2  0  0  0  0  0  0  0  0  0
   41.5520   31.1770   37.3430 H   0  0  0  0  0  0  0  0  0  0  0  0
   41.5420   31.7900   39.7120 H   0  0  0  0  0  0  0  0  0  0  0  0
   41.1160   35.0820   38.1980 H   0  0  0  0  0  0  0  0  0  0  0  0
   42.1570   34.4960   39.5100 H   0  0  0  0  0  0  0  0  0  0  0  0
   43.0570   32.8040   38.2250 H   0  0  0  0  0  0  0  0  0  0  0  0
   40.1080   32.6170   36.8730 O   0  0  0  0  0  0  0  0  0  0  0  0
   40.2790   32.3440   35.9180 H   0  0  0  0  0  0  0  0  0  0  0  0
   42.4430   33.8440   36.5490 O   0  0  0  0  0  0  0  0  0  0  0  0
   42.1440   33.2540   35.8300 H   0  0  0  0  0  0  0  0  0  0  0  0
   36.1910   28.7700   40.0840 C   0  0  0  0  0  0  0  0  0  0  0  0
   35.4050   29.2340   40.7460 H   0  0  0  0  0  0  0  0  0  0  0  0
   35.6940   28.6270   39.1150 H   0  0  0  0  0  0  0  0  0  0  0  0
   36.5640   27.5170   40.6810 N   0  0  0  0  0  0  0  0  0  0  0  0
   36.9000   27.5600   41.9870 C   0  0  0  0  0  3  0  0  0  0  0  0
   37.2640   26.3410   42.5660 C   0  0  0  0  0  0  0  0  0  0  0  0
   37.5440   26.3180   43.6180 H   0  0  0  0  0  0  0  0  0  0  0  0
   37.2790   25.1650   41.8440 C   0  0  0  0  0  0  0  0  0  0  0  0
   37.6000   24.0570   42.3340 O   0  0  0  0  0  0  0  0  0  0  0  0
   36.9210   25.2720   40.5530 N   0  0  0  0  0  0  0  0  0  0  0  0
   36.5590   26.4080   39.9240 C   0  0  0  0  0  0  0  0  0  0  0  0
   36.2390   26.4150   38.7080 O   0  0  0  0  0  0  0  0  0  0  0  0
   36.9140   24.4030   39.9480 H   0  0  0  0  0  0  0  0  0  0  0  0
  1  2  1  0  0  0  0
  2 23  1  0  0  0  0
  2  3  2  0  0  0  0
  3  8  1  0  0  0  0
  4  3  1  0  0  0  0
  5  4  2  0  0  0  0
  6  1  2  0  0  0  0
  6  5  1  0  0  0  0
  7  1  1  0  0  0  0
  9 14  1  6  0  0  0
  9 13  1  0  0  0  0
  9 10  1  0  0  0  0
 10 11  1  0  0  0  0
 10  5  1  0  0  0  0
 10 15  1  1  0  0  0
 12 11  1  0  0  0  0
 12 17  1  0  0  0  0
 13 18  1  1  0  0  0
 13 12  1  0  0  0  0
 16 12  1  0  0  0  0
 19  9  1  0  0  0  0
 20 19  1  0  0  0  0
 21 13  1  0  0  0  0
 22 21  1  0  0  0  0
 23 26  1  0  0  0  0
 23 24  1  0  0  0  0
 25 23  1  0  0  0  0
 26 27  1  0  0  0  0
 27 28  2  0  0  0  0
 28 29  1  0  0  0  0
 30 31  2  0  0  0  0
 30 28  1  0  0  0  0
 32 30  1  0  0  0  0
 33 32  1  0  0  0  0
 33 26  1  0  0  0  0
 34 33  2  0  0  0  0
 35 32  1  0  0  0  0
M  END
>  <minimizedAffinity>
-5.85870409

$$$$

 OpenBabel03252503443D

 35 37  0  0  1  0  0  0  0  0999 V2000
   38.9980   30.3760   40.7220 C   0  0  0  0  0  0  0  0  0  0  0  0
   39.2050   30.3150   42.1090 C   0  0  0  0  0  0  0  0  0  0  0  0
   40.3710   30.9120   42.6140 C   0  0  0  0  0  0  0  0  0  0  0  0
   41.2210   31.5060   41.7570 N   0  0  0  0  0  0  0  0  0  0  0  0
   40.9990   31.5510   40.4380 C   0  0  0  0  0  0  0  0  0  0  0  0
   39.8790   30.9840   39.8950 N   0  0  0  0  0  0  0  0  0  0  0  0
   38.1620   29.9720   40.1750 H   0  0  0  0  0  0  0  0  0  0  0  0
   40.5010   30.8470   43.6850 H   0  0  0  0  0  0  0  0  0  0  0  0
   41.4930   32.5140   38.1890 C   0  0  2  0  0  0  0  0  0  0  0  0
   41.9960   32.2470   39.6250 C   0  0  1  0  0  0  0  0  0  0  0  0
   42.2780   33.5240   40.0260 O   0  0  0  0  0  0  0  0  0  0  0  0
   42.9540   34.1310   39.0070 C   0  0  0  0  0  0  0  0  0  0  0  0
   42.6850   33.3700   37.7270 C   0  0  2  0  0  0  0  0  0  0  0  0
   41.3790   31.5980   37.6140 H   0  0  0  0  0  0  0  0  0  0  0  0
   42.9040   31.6170   39.5280 H   0  0  0  0  0  0  0  0  0  0  0  0
   42.6840   35.1950   38.8510 H   0  0  0  0  0  0  0  0  0  0  0  0
   44.0570   34.1270   39.1980 H   0  0  0  0  0  0  0  0  0  0  0  0
   43.5150   32.6530   37.5070 H   0  0  0  0  0  0  0  0  0  0  0  0
   40.4290   33.3540   38.2410 O   0  0  0  0  0  0  0  0  0  0  0  0
   39.9340   33.2900   37.3650 H   0  0  0  0  0  0  0  0  0  0  0  0
   42.3950   34.1610   36.6460 O   0  0  0  0  0  0  0  0  0  0  0  0
   41.5820   33.8270   36.2200 H   0  0  0  0  0  0  0  0  0  0  0  0
   38.1620   29.6280   42.8970 C   0  0  0  0  0  0  0  0  0  0  0  0
   38.2710   29.8530   43.9970 H   0  0  0  0  0  0  0  0  0  0  0  0
   37.1840   30.0430   42.6190 H   0  0  0  0  0  0  0  0  0  0  0  0
   38.1940   28.1980   42.7510 N   0  0  0  0  0  0  0  0  0  0  0  0
   39.2860   27.5770   43.2440 C   0  0  0  0  0  3  0  0  0  0  0  0
   39.3160   26.1870   43.1000 C   0  0  0  0  0  0  0  0  0  0  0  0
   40.1740   25.6350   43.4810 H   0  0  0  0  0  0  0  0  0  0  0  0
   38.2920   25.4930   42.4900 C   0  0  0  0  0  0  0  0  0  0  0  0
   38.2890   24.2480   42.3470 O   0  0  0  0  0  0  0  0  0  0  0  0
   37.2670   26.2420   42.0470 N   0  0  0  0  0  0  0  0  0  0  0  0
   37.1650   27.5820   42.1470 C   0  0  0  0  0  0  0  0  0  0  0  0
   36.1660   28.2030   41.7010 O   0  0  0  0  0  0  0  0  0  0  0  0
   36.4510   25.7650   41.5690 H   0  0  0  0  0  0  0  0  0  0  0  0
  1  2  1  0  0  0  0
  2  3  2  0  0  0  0
  2 23  1  0  0  0  0
  3  8  1  0  0  0  0
  4  3  1  0  0  0  0
  5  4  2  0  0  0  0
  6  5  1  0  0  0  0
  6  1  2  0  0  0  0
  7  1  1  0  0  0  0
  9 14  1  6  0  0  0
  9 19  1  0  0  0  0
  9 10  1  0  0  0  0
 10 15  1  6  0  0  0
 10 11  1  0  0  0  0
 10  5  1  0  0  0  0
 12 17  1  0  0  0  0
 12 11  1  0  0  0  0
 13 18  1  6  0  0  0
 13  9  1  0  0  0  0
 13 12  1  0  0  0  0
 16 12  1  0  0  0  0
 20 19  1  0  0  0  0
 21 13  1  0  0  0  0
 22 21  1  0  0  0  0
 23 24  1  0  0  0  0
 25 23  1  0  0  0  0
 26 23  1  0  0  0  0
 26 27  1  0  0  0  0
 28 27  2  0  0  0  0
 28 29  1  0  0  0  0
 30 28  1  0  0  0  0
 31 30  2  0  0  0  0
 32 33  1  0  0  0  0
 32 30  1  0  0  0  0
 33 26  1  0  0  0  0
 34 33  2  0  0  0  0
 35 32  1  0  0  0  0
M  END
>  <minimizedAffinity>
-5.67312908

$$$$

 OpenBabel03252503443D

 35 37  0  0  1  0  0  0  0  0999 V2000
   39.7440   30.2300   38.0030 C   0  0  0  0  0  0  0  0  0  0  0  0
   38.8880   30.6940   39.0140 C   0  0  0  0  0  0  0  0  0  0  0  0
   39.4050   31.6430   39.9120 C   0  0  0  0  0  0  0  0  0  0  0  0
   40.6770   32.0550   39.7620 N   0  0  0  0  0  0  0  0  0  0  0  0
   41.4720   31.5950   38.7880 C   0  0  0  0  0  0  0  0  0  0  0  0
   41.0170   30.6710   37.8880 N   0  0  0  0  0  0  0  0  0  0  0  0
   39.5090   29.5080   37.2380 H   0  0  0  0  0  0  0  0  0  0  0  0
   38.7210   31.9790   40.6780 H   0  0  0  0  0  0  0  0  0  0  0  0
   43.2750   32.4320   37.2790 C   0  0  2  0  0  0  0  0  0  0  0  0
   42.8260   32.1440   38.7300 C   0  0  1  0  0  0  0  0  0  0  0  0
   42.9690   33.3880   39.2800 O   0  0  0  0  0  0  0  0  0  0  0  0
   44.1710   33.8830   38.8640 C   0  0  0  0  0  0  0  0  0  0  0  0
   44.6040   33.1260   37.6270 C   0  0  2  0  0  0  0  0  0  0  0  0
   43.4100   31.5220   36.7010 H   0  0  0  0  0  0  0  0  0  0  0  0
   43.5450   31.4080   39.1410 H   0  0  0  0  0  0  0  0  0  0  0  0
   44.1630   34.9670   38.6320 H   0  0  0  0  0  0  0  0  0  0  0  0
   44.9550   33.7510   39.6540 H   0  0  0  0  0  0  0  0  0  0  0  0
   45.3220   32.3090   37.8900 H   0  0  0  0  0  0  0  0  0  0  0  0
   42.4790   33.3950   36.7510 O   0  0  0  0  0  0  0  0  0  0  0  0
   42.5750   33.3680   35.7480 H   0  0  0  0  0  0  0  0  0  0  0  0
   45.0800   33.9180   36.6150 O   0  0  0  0  0  0  0  0  0  0  0  0
   44.6300   33.6720   35.7840 H   0  0  0  0  0  0  0  0  0  0  0  0
   37.5210   30.1370   39.0220 C   0  0  0  0  0  0  0  0  0  0  0  0
   36.7470   30.9570   39.0040 H   0  0  0  0  0  0  0  0  0  0  0  0
   37.3640   29.5810   38.0880 H   0  0  0  0  0  0  0  0  0  0  0  0
   37.2510   29.3230   40.1760 N   0  0  0  0  0  0  0  0  0  0  0  0
   37.7270   28.0610   40.1350 C   0  0  0  0  0  3  0  0  0  0  0  0
   37.4630   27.2700   41.2570 C   0  0  0  0  0  0  0  0  0  0  0  0
   37.8250   26.2430   41.2770 H   0  0  0  0  0  0  0  0  0  0  0  0
   36.7570   27.7520   42.3400 C   0  0  0  0  0  0  0  0  0  0  0  0
   36.5050   27.0680   43.3600 O   0  0  0  0  0  0  0  0  0  0  0  0
   36.3440   29.0270   42.2430 N   0  0  0  0  0  0  0  0  0  0  0  0
   36.5580   29.8500   41.1980 C   0  0  0  0  0  0  0  0  0  0  0  0
   36.1310   31.0340   41.1930 O   0  0  0  0  0  0  0  0  0  0  0  0
   35.7970   29.4520   43.0440 H   0  0  0  0  0  0  0  0  0  0  0  0
  1  2  1  0  0  0  0
  2 23  1  0  0  0  0
  2  3  2  0  0  0  0
  3  8  1  0  0  0  0
  4  3  1  0  0  0  0
  5  4  2  0  0  0  0
  6  1  2  0  0  0  0
  6  5  1  0  0  0  0
  7  1  1  0  0  0  0
  9 14  1  6  0  0  0
  9 13  1  0  0  0  0
  9 10  1  0  0  0  0
 10  5  1  0  0  0  0
 10 15  1  1  0  0  0
 10 11  1  0  0  0  0
 12 11  1  0  0  0  0
 12 17  1  0  0  0  0
 13 18  1  1  0  0  0
 13 12  1  0  0  0  0
 16 12  1  0  0  0  0
 19  9  1  0  0  0  0
 20 19  1  0  0  0  0
 21 13  1  0  0  0  0
 22 21  1  0  0  0  0
 23 26  1  0  0  0  0
 24 23  1  0  0  0  0
 25 23  1  0  0  0  0
 26 33  1  0  0  0  0
 27 26  1  0  0  0  0
 27 28  2  0  0  0  0
 28 29  1  0  0  0  0
 28 30  1  0  0  0  0
 30 31  2  0  0  0  0
 32 30  1  0  0  0  0
 32 35  1  0  0  0  0
 33 32  1  0  0  0  0
 34 33  2  0  0  0  0
M  END
>  <minimizedAffinity>
-5.53228855

$$$$

 OpenBabel03252503443D

 35 37  0  0  1  0  0  0  0  0999 V2000
   37.7910   30.0170   41.5610 C   0  0  0  0  0  0  0  0  0  0  0  0
   37.5560   30.1470   40.1830 C   0  0  0  0  0  0  0  0  0  0  0  0
   37.3870   28.9650   39.4440 C   0  0  0  0  0  0  0  0  0  0  0  0
   37.4560   27.7830   40.0830 N   0  0  0  0  0  0  0  0  0  0  0  0
   37.6810   27.6880   41.4000 C   0  0  0  0  0  0  0  0  0  0  0  0
   37.8530   28.8090   42.1640 N   0  0  0  0  0  0  0  0  0  0  0  0
   37.9420   30.8170   42.2690 H   0  0  0  0  0  0  0  0  0  0  0  0
   37.2090   29.0990   38.3870 H   0  0  0  0  0  0  0  0  0  0  0  0
   37.6760   25.2490   40.8750 C   0  0  2  0  0  0  0  0  0  0  0  0
   37.7110   26.3410   41.9670 C   0  0  1  0  0  0  0  0  0  0  0  0
   38.8740   26.0090   42.6060 O   0  0  0  0  0  0  0  0  0  0  0  0
   38.8710   24.6550   42.7830 C   0  0  0  0  0  0  0  0  0  0  0  0
   37.8900   24.0430   41.8060 C   0  0  2  0  0  0  0  0  0  0  0  0
   36.7230   25.2180   40.3520 H   0  0  0  0  0  0  0  0  0  0  0  0
   36.8140   26.1820   42.5990 H   0  0  0  0  0  0  0  0  0  0  0  0
   39.8590   24.1740   42.6420 H   0  0  0  0  0  0  0  0  0  0  0  0
   38.5520   24.3860   43.8220 H   0  0  0  0  0  0  0  0  0  0  0  0
   36.9040   23.8510   42.2980 H   0  0  0  0  0  0  0  0  0  0  0  0
   38.7980   25.3410   40.1190 O   0  0  0  0  0  0  0  0  0  0  0  0
   38.6400   24.8450   39.2560 H   0  0  0  0  0  0  0  0  0  0  0  0
   38.3580   22.9330   41.1530 O   0  0  0  0  0  0  0  0  0  0  0  0
   38.2050   23.0430   40.1940 H   0  0  0  0  0  0  0  0  0  0  0  0
   37.5060   31.5240   39.6530 C   0  0  0  0  0  0  0  0  0  0  0  0
   36.6390   31.6550   38.9440 H   0  0  0  0  0  0  0  0  0  0  0  0
   37.2970   32.2110   40.4840 H   0  0  0  0  0  0  0  0  0  0  0  0
   38.6980   31.8990   38.9420 N   0  0  0  0  0  0  0  0  0  0  0  0
   39.7500   32.2650   39.7020 C   0  0  0  0  0  3  0  0  0  0  0  0
   40.9080   32.6300   39.0090 C   0  0  0  0  0  0  0  0  0  0  0  0
   41.7890   32.9330   39.5740 H   0  0  0  0  0  0  0  0  0  0  0  0
   40.9690   32.6170   37.6310 C   0  0  0  0  0  0  0  0  0  0  0  0
   41.9920   32.9380   36.9810 O   0  0  0  0  0  0  0  0  0  0  0  0
   39.8450   32.2310   37.0040 N   0  0  0  0  0  0  0  0  0  0  0  0
   38.6930   31.8660   37.5990 C   0  0  0  0  0  0  0  0  0  0  0  0
   37.6860   31.5180   36.9300 O   0  0  0  0  0  0  0  0  0  0  0  0
   39.8310   32.2010   35.9450 H   0  0  0  0  0  0  0  0  0  0  0  0
  1  6  1  0  0  0  0
  1  7  1  0  0  0  0
  2  1  2  0  0  0  0
  3  4  2  0  0  0  0
  3  2  1  0  0  0  0
  4  5  1  0  0  0  0
  5 10  1  0  0  0  0
  5  6  2  0  0  0  0
  8  3  1  0  0  0  0
  9 14  1  6  0  0  0
  9 13  1  0  0  0  0
  9 10  1  0  0  0  0
 10 15  1  1  0  0  0
 10 11  1  0  0  0  0
 11 12  1  0  0  0  0
 12 17  1  0  0  0  0
 13 18  1  1  0  0  0
 13 12  1  0  0  0  0
 16 12  1  0  0  0  0
 19  9  1  0  0  0  0
 20 19  1  0  0  0  0
 21 13  1  0  0  0  0
 22 21  1  0  0  0  0
 23  2  1  0  0  0  0
 23 25  1  0  0  0  0
 24 23  1  0  0  0  0
 26 23  1  0  0  0  0
 26 27  1  0  0  0  0
 28 29  1  0  0  0  0
 28 27  2  0  0  0  0
 30 28  1  0  0  0  0
 31 30  2  0  0  0  0
 32 33  1  0  0  0  0
 32 30  1  0  0  0  0
 33 26  1  0  0  0  0
 34 33  2  0  0  0  0
 35 32  1  0  0  0  0
M  END
>  <minimizedAffinity>
-5.305861

$$$$

 OpenBabel03252503443D

 35 37  0  0  1  0  0  0  0  0999 V2000
   36.8610   30.6030   39.6060 C   0  0  0  0  0  0  0  0  0  0  0  0
   36.3660   29.6800   40.5420 C   0  0  0  0  0  0  0  0  0  0  0  0
   35.5900   28.6180   40.0510 C   0  0  0  0  0  0  0  0  0  0  0  0
   35.3620   28.5350   38.7280 N   0  0  0  0  0  0  0  0  0  0  0  0
   35.8470   29.4300   37.8570 C   0  0  0  0  0  0  0  0  0  0  0  0
   36.6080   30.4830   38.2840 N   0  0  0  0  0  0  0  0  0  0  0  0
   37.4680   31.4690   39.8130 H   0  0  0  0  0  0  0  0  0  0  0  0
   35.2230   27.9260   40.7960 H   0  0  0  0  0  0  0  0  0  0  0  0
   36.5990   29.8360   35.5120 C   0  0  2  0  0  0  0  0  0  0  0  0
   35.5390   29.2070   36.4450 C   0  0  1  0  0  0  0  0  0  0  0  0
   35.6010   27.9030   36.0390 O   0  0  0  0  0  0  0  0  0  0  0  0
   35.6140   27.9010   34.6730 C   0  0  0  0  0  0  0  0  0  0  0  0
   36.0500   29.2680   34.1920 C   0  0  2  0  0  0  0  0  0  0  0  0
   36.5850   30.9230   35.5450 H   0  0  0  0  0  0  0  0  0  0  0  0
   34.5730   29.6900   36.1930 H   0  0  0  0  0  0  0  0  0  0  0  0
   36.2810   27.1370   34.2250 H   0  0  0  0  0  0  0  0  0  0  0  0
   34.5950   27.6870   34.2620 H   0  0  0  0  0  0  0  0  0  0  0  0
   35.1650   29.8980   33.9260 H   0  0  0  0  0  0  0  0  0  0  0  0
   37.7900   29.2210   35.7170 O   0  0  0  0  0  0  0  0  0  0  0  0
   38.5180   29.8100   35.3420 H   0  0  0  0  0  0  0  0  0  0  0  0
   36.9800   29.2450   33.1860 O   0  0  0  0  0  0  0  0  0  0  0  0
   37.7180   29.8400   33.4250 H   0  0  0  0  0  0  0  0  0  0  0  0
   36.7210   29.9240   41.9540 C   0  0  0  0  0  0  0  0  0  0  0  0
   37.0190   30.9980   42.1180 H   0  0  0  0  0  0  0  0  0  0  0  0
   35.8220   29.7830   42.5690 H   0  0  0  0  0  0  0  0  0  0  0  0
   37.8110   29.1050   42.4110 N   0  0  0  0  0  0  0  0  0  0  0  0
   39.0500   29.5480   42.1100 C   0  0  0  0  0  3  0  0  0  0  0  0
   40.1090   28.7510   42.5540 C   0  0  0  0  0  0  0  0  0  0  0  0
   41.1310   29.0610   42.3390 H   0  0  0  0  0  0  0  0  0  0  0  0
   39.8990   27.5820   43.2570 C   0  0  0  0  0  0  0  0  0  0  0  0
   40.8260   26.8470   43.6680 O   0  0  0  0  0  0  0  0  0  0  0  0
   38.6130   27.2650   43.4850 N   0  0  0  0  0  0  0  0  0  0  0  0
   37.5400   27.9790   43.0900 C   0  0  0  0  0  0  0  0  0  0  0  0
   36.3670   27.6040   43.3480 O   0  0  0  0  0  0  0  0  0  0  0  0
   38.3890   26.3780   44.0190 H   0  0  0  0  0  0  0  0  0  0  0  0
  1  7  1  0  0  0  0
  1  2  1  0  0  0  0
  2 23  1  0  0  0  0
  3  2  2  0  0  0  0
  3  8  1  0  0  0  0
  4  3  1  0  0  0  0
  5  6  1  0  0  0  0
  5  4  2  0  0  0  0
  6  1  2  0  0  0  0
  9 14  1  1  0  0  0
  9 19  1  0  0  0  0
  9 10  1  0  0  0  0
 10 15  1  6  0  0  0
 10  5  1  0  0  0  0
 11 10  1  0  0  0  0
 12 11  1  0  0  0  0
 13 18  1  6  0  0  0
 13 12  1  0  0  0  0
 13  9  1  0  0  0  0
 16 12  1  0  0  0  0
 17 12  1  0  0  0  0
 20 19  1  0  0  0  0
 21 22  1  0  0  0  0
 21 13  1  0  0  0  0
 23 24  1  0  0  0  0
 23 26  1  0  0  0  0
 23 25  1  0  0  0  0
 26 33  1  0  0  0  0
 27 26  1  0  0  0  0
 27 28  2  0  0  0  0
 28 30  1  0  0  0  0
 29 28  1  0  0  0  0
 30 32  1  0  0  0  0
 30 31  2  0  0  0  0
 32 35  1  0  0  0  0
 33 34  2  0  0  0  0
 33 32  1  0  0  0  0
M  END
>  <minimizedAffinity>
-5.22824526

$$$$

 OpenBabel03252503443D

 35 37  0  0  1  0  0  0  0  0999 V2000
   38.9650   29.8550   40.4130 C   0  0  0  0  0  0  0  0  0  0  0  0
   37.8740   30.6830   40.7220 C   0  0  0  0  0  0  0  0  0  0  0  0
   37.9990   32.0500   40.4260 C   0  0  0  0  0  0  0  0  0  0  0  0
   39.1400   32.4940   39.8700 N   0  0  0  0  0  0  0  0  0  0  0  0
   40.1660   31.6820   39.5860 C   0  0  0  0  0  0  0  0  0  0  0  0
   40.0950   30.3430   39.8540 N   0  0  0  0  0  0  0  0  0  0  0  0
   39.0340   28.7910   40.5730 H   0  0  0  0  0  0  0  0  0  0  0  0
   37.1420   32.6600   40.6770 H   0  0  0  0  0  0  0  0  0  0  0  0
   42.1150   31.2970   38.0760 C   0  0  2  0  0  0  0  0  0  0  0  0
   41.3380   32.2950   38.9630 C   0  0  1  0  0  0  0  0  0  0  0  0
   41.0610   33.2710   38.0460 O   0  0  0  0  0  0  0  0  0  0  0  0
   42.2050   33.5030   37.3380 C   0  0  0  0  0  0  0  0  0  0  0  0
   43.1180   32.3050   37.4900 C   0  0  2  0  0  0  0  0  0  0  0  0
   42.5920   30.5120   38.6580 H   0  0  0  0  0  0  0  0  0  0  0  0
   42.0440   32.6330   39.7490 H   0  0  0  0  0  0  0  0  0  0  0  0
   42.0430   33.6910   36.2570 H   0  0  0  0  0  0  0  0  0  0  0  0
   42.7400   34.4080   37.7230 H   0  0  0  0  0  0  0  0  0  0  0  0
   43.8820   32.4840   38.2880 H   0  0  0  0  0  0  0  0  0  0  0  0
   41.3250   30.9130   37.0430 O   0  0  0  0  0  0  0  0  0  0  0  0
   41.7070   30.0670   36.6500 H   0  0  0  0  0  0  0  0  0  0  0  0
   43.6930   31.8780   36.3210 O   0  0  0  0  0  0  0  0  0  0  0  0
   43.5590   30.9140   36.2380 H   0  0  0  0  0  0  0  0  0  0  0  0
   36.6990   30.0220   41.3240 C   0  0  0  0  0  0  0  0  0  0  0  0
   36.4580   30.4620   42.3330 H   0  0  0  0  0  0  0  0  0  0  0  0
   35.8200   30.2410   40.7030 H   0  0  0  0  0  0  0  0  0  0  0  0
   36.8800   28.6080   41.5090 N   0  0  0  0  0  0  0  0  0  0  0  0
   36.6150   27.8320   40.4370 C   0  0  0  0  0  3  0  0  0  0  0  0
   36.7900   26.4570   40.6180 C   0  0  0  0  0  0  0  0  0  0  0  0
   36.5910   25.7840   39.7850 H   0  0  0  0  0  0  0  0  0  0  0  0
   37.2080   25.9260   41.8210 C   0  0  0  0  0  0  0  0  0  0  0  0
   37.3750   24.6990   42.0140 O   0  0  0  0  0  0  0  0  0  0  0  0
   37.4350   26.8180   42.8010 N   0  0  0  0  0  0  0  0  0  0  0  0
   37.2880   28.1540   42.7050 C   0  0  0  0  0  0  0  0  0  0  0  0
   37.5230   28.9150   43.6780 O   0  0  0  0  0  0  0  0  0  0  0  0
   37.7570   26.4700   43.7480 H   0  0  0  0  0  0  0  0  0  0  0  0
  1  7  1  0  0  0  0
  1  2  1  0  0  0  0
  2 23  1  0  0  0  0
  3  8  1  0  0  0  0
  3  2  2  0  0  0  0
  4  3  1  0  0  0  0
  5  6  1  0  0  0  0
  5  4  2  0  0  0  0
  6  1  2  0  0  0  0
  9 14  1  1  0  0  0
  9 10  1  0  0  0  0
 10  5  1  0  0  0  0
 10 15  1  1  0  0  0
 11 10  1  0  0  0  0
 12 13  1  0  0  0  0
 12 17  1  0  0  0  0
 12 11  1  0  0  0  0
 13  9  1  0  0  0  0
 13 18  1  1  0  0  0
 16 12  1  0  0  0  0
 19  9  1  0  0  0  0
 20 19  1  0  0  0  0
 21 13  1  0  0  0  0
 22 21  1  0  0  0  0
 23 26  1  0  0  0  0
 23 24  1  0  0  0  0
 25 23  1  0  0  0  0
 26 33  1  0  0  0  0
 27 28  2  0  0  0  0
 27 26  1  0  0  0  0
 28 30  1  0  0  0  0
 29 28  1  0  0  0  0
 30 31  2  0  0  0  0
 30 32  1  0  0  0  0
 32 35  1  0  0  0  0
 33 32  1  0  0  0  0
 33 34  2  0  0  0  0
M  END
>  <minimizedAffinity>
-5.20646477

$$$$

 OpenBabel03252503443D

 35 37  0  0  1  0  0  0  0  0999 V2000
   38.6930   28.9920   38.8400 C   0  0  0  0  0  0  0  0  0  0  0  0
   37.9610   29.0340   40.0370 C   0  0  0  0  0  0  0  0  0  0  0  0
   38.2290   30.0940   40.9190 C   0  0  0  0  0  0  0  0  0  0  0  0
   39.1600   31.0040   40.5800 N   0  0  0  0  0  0  0  0  0  0  0  0
   39.8440   30.9390   39.4300 C   0  0  0  0  0  0  0  0  0  0  0  0
   39.6210   29.9280   38.5370 N   0  0  0  0  0  0  0  0  0  0  0  0
   38.6120   28.2530   38.0580 H   0  0  0  0  0  0  0  0  0  0  0  0
   37.6500   30.0970   41.8320 H   0  0  0  0  0  0  0  0  0  0  0  0
   41.2030   32.0980   37.6870 C   0  0  2  0  0  0  0  0  0  0  0  0
   40.8110   32.0060   39.1790 C   0  0  1  0  0  0  0  0  0  0  0  0
   40.3410   33.2740   39.3860 O   0  0  0  0  0  0  0  0  0  0  0  0
   41.2270   34.1380   38.8100 C   0  0  0  0  0  0  0  0  0  0  0  0
   42.0500   33.3780   37.7920 C   0  0  2  0  0  0  0  0  0  0  0  0
   41.7750   31.2350   37.3560 H   0  0  0  0  0  0  0  0  0  0  0  0
   41.7470   31.8000   39.7370 H   0  0  0  0  0  0  0  0  0  0  0  0
   40.7560   35.0070   38.3080 H   0  0  0  0  0  0  0  0  0  0  0  0
   41.9200   34.5720   39.5750 H   0  0  0  0  0  0  0  0  0  0  0  0
   43.0330   33.0650   38.2270 H   0  0  0  0  0  0  0  0  0  0  0  0
   40.1070   32.4350   36.9620 O   0  0  0  0  0  0  0  0  0  0  0  0
   40.2860   32.2080   35.9960 H   0  0  0  0  0  0  0  0  0  0  0  0
   42.2060   34.0220   36.5930 O   0  0  0  0  0  0  0  0  0  0  0  0
   41.9810   33.4040   35.8710 H   0  0  0  0  0  0  0  0  0  0  0  0
   36.9750   27.9550   40.2410 C   0  0  0  0  0  0  0  0  0  0  0  0
   37.4690   26.9420   40.2110 H   0  0  0  0  0  0  0  0  0  0  0  0
   36.5690   28.0410   41.2580 H   0  0  0  0  0  0  0  0  0  0  0  0
   35.9320   27.9490   39.2510 N   0  0  0  0  0  0  0  0  0  0  0  0
   35.0480   28.9670   39.3180 C   0  0  0  0  0  3  0  0  0  0  0  0
   34.0340   28.9600   38.3560 C   0  0  0  0  0  0  0  0  0  0  0  0
   33.2930   29.7580   38.3620 H   0  0  0  0  0  0  0  0  0  0  0  0
   33.9420   27.9710   37.3970 C   0  0  0  0  0  0  0  0  0  0  0  0
   33.0460   27.9370   36.5220 O   0  0  0  0  0  0  0  0  0  0  0  0
   34.8910   27.0210   37.4520 N   0  0  0  0  0  0  0  0  0  0  0  0
   35.8980   26.9580   38.3460 C   0  0  0  0  0  0  0  0  0  0  0  0
   36.7440   26.0280   38.3220 O   0  0  0  0  0  0  0  0  0  0  0  0
   34.8730   26.2350   36.7420 H   0  0  0  0  0  0  0  0  0  0  0  0
  1  2  1  0  0  0  0
  2 23  1  0  0  0  0
  2  3  2  0  0  0  0
  3  8  1  0  0  0  0
  4  3  1  0  0  0  0
  5  4  2  0  0  0  0
  6  1  2  0  0  0  0
  6  5  1  0  0  0  0
  7  1  1  0  0  0  0
  9 14  1  6  0  0  0
  9 13  1  0  0  0  0
  9 10  1  0  0  0  0
 10 11  1  0  0  0  0
 10  5  1  0  0  0  0
 10 15  1  1  0  0  0
 12 11  1  0  0  0  0
 12 17  1  0  0  0  0
 13 18  1  1  0  0  0
 13 12  1  0  0  0  0
 16 12  1  0  0  0  0
 19  9  1  0  0  0  0
 20 19  1  0  0  0  0
 21 13  1  0  0  0  0
 22 21  1  0  0  0  0
 23 25  1  0  0  0  0
 24 23  1  0  0  0  0
 26 27  1  0  0  0  0
 26 23  1  0  0  0  0
 28 29  1  0  0  0  0
 28 27  2  0  0  0  0
 30 32  1  0  0  0  0
 30 28  1  0  0  0  0
 31 30  2  0  0  0  0
 32 33  1  0  0  0  0
 33 26  1  0  0  0  0
 34 33  2  0  0  0  0
 35 32  1  0  0  0  0
M  END
>  <minimizedAffinity>
-5.17568254

$$$$

 OpenBabel03252503443D

 35 37  0  0  1  0  0  0  0  0999 V2000
   39.8670   30.2660   38.7330 C   0  0  0  0  0  0  0  0  0  0  0  0
   40.0440   31.6590   38.7240 C   0  0  0  0  0  0  0  0  0  0  0  0
   39.7670   32.3510   39.9150 C   0  0  0  0  0  0  0  0  0  0  0  0
   39.3510   31.6580   40.9900 N   0  0  0  0  0  0  0  0  0  0  0  0
   39.1910   30.3280   40.9700 C   0  0  0  0  0  0  0  0  0  0  0  0
   39.4470   29.6070   39.8370 N   0  0  0  0  0  0  0  0  0  0  0  0
   40.0340   29.5880   37.9120 H   0  0  0  0  0  0  0  0  0  0  0  0
   39.9120   33.4210   39.8740 H   0  0  0  0  0  0  0  0  0  0  0  0
   37.2750   29.2570   42.1560 C   0  0  2  0  0  0  0  0  0  0  0  0
   38.7540   29.7000   42.2160 C   0  0  1  0  0  0  0  0  0  0  0  0
   39.3550   28.5050   42.5030 O   0  0  0  0  0  0  0  0  0  0  0  0
   38.6240   27.9070   43.4890 C   0  0  0  0  0  0  0  0  0  0  0  0
   37.2420   28.5230   43.5080 C   0  0  2  0  0  0  0  0  0  0  0  0
   36.5920   30.1020   42.1150 H   0  0  0  0  0  0  0  0  0  0  0  0
   38.8300   30.4290   43.0480 H   0  0  0  0  0  0  0  0  0  0  0  0
   38.5220   26.8080   43.3790 H   0  0  0  0  0  0  0  0  0  0  0  0
   39.0980   28.0650   44.4910 H   0  0  0  0  0  0  0  0  0  0  0  0
   37.1700   29.3180   44.2920 H   0  0  0  0  0  0  0  0  0  0  0  0
   37.1380   28.2970   41.2070 O   0  0  0  0  0  0  0  0  0  0  0  0
   36.1610   28.2270   40.9680 H   0  0  0  0  0  0  0  0  0  0  0  0
   36.2190   27.6170   43.6060 O   0  0  0  0  0  0  0  0  0  0  0  0
   35.5580   27.8110   42.9130 H   0  0  0  0  0  0  0  0  0  0  0  0
   40.5130   32.2520   37.4560 C   0  0  0  0  0  0  0  0  0  0  0  0
   40.4030   31.5240   36.6020 H   0  0  0  0  0  0  0  0  0  0  0  0
   39.8530   33.0910   37.1990 H   0  0  0  0  0  0  0  0  0  0  0  0
   41.8920   32.6550   37.4980 N   0  0  0  0  0  0  0  0  0  0  0  0
   42.1620   33.7690   38.2090 C   0  0  0  0  0  3  0  0  0  0  0  0
   43.5030   34.1600   38.2480 C   0  0  0  0  0  0  0  0  0  0  0  0
   43.7780   35.0530   38.8080 H   0  0  0  0  0  0  0  0  0  0  0  0
   44.4910   33.4500   37.5970 C   0  0  0  0  0  0  0  0  0  0  0  0
   45.7010   33.7740   37.6130 O   0  0  0  0  0  0  0  0  0  0  0  0
   44.0760   32.3600   36.9270 N   0  0  0  0  0  0  0  0  0  0  0  0
   42.8060   31.9200   36.8430 C   0  0  0  0  0  0  0  0  0  0  0  0
   42.5080   30.8870   36.1900 O   0  0  0  0  0  0  0  0  0  0  0  0
   44.7890   31.7740   36.4080 H   0  0  0  0  0  0  0  0  0  0  0  0
  1  6  1  0  0  0  0
  2  1  2  0  0  0  0
  2  3  1  0  0  0  0
  3  4  2  0  0  0  0
  5  4  1  0  0  0  0
  5 10  1  0  0  0  0
  6  5  2  0  0  0  0
  7  1  1  0  0  0  0
  8  3  1  0  0  0  0
  9 14  1  6  0  0  0
  9 10  1  0  0  0  0
  9 13  1  0  0  0  0
 10 11  1  0  0  0  0
 10 15  1  1  0  0  0
 11 12  1  0  0  0  0
 12 13  1  0  0  0  0
 12 17  1  0  0  0  0
 13 21  1  0  0  0  0
 13 18  1  1  0  0  0
 16 12  1  0  0  0  0
 19  9  1  0  0  0  0
 20 19  1  0  0  0  0
 22 21  1  0  0  0  0
 23 26  1  0  0  0  0
 23  2  1  0  0  0  0
 24 23  1  0  0  0  0
 25 23  1  0  0  0  0
 26 27  1  0  0  0  0
 27 28  2  0  0  0  0
 28 29  1  0  0  0  0
 30 31  2  0  0  0  0
 30 28  1  0  0  0  0
 32 30  1  0  0  0  0
 33 32  1  0  0  0  0
 33 26  1  0  0  0  0
 34 33  2  0  0  0  0
 35 32  1  0  0  0  0
M  END
>  <minimizedAffinity>
-5.1751585

$$$$
