
 OpenBabel03252504103D

 26 27  0  0  0  0  0  0  0  0999 V2000
   44.7490   32.5610   43.0120 C   0  0  0  0  0  0  0  0  0  0  0  0
   45.2370   33.5260   43.9030 C   0  0  0  0  0  0  0  0  0  0  0  0
   44.9260   34.8730   43.6520 C   0  0  0  0  0  0  0  0  0  0  0  0
   44.1750   35.1700   42.5640 N   0  0  0  0  0  0  0  0  0  0  0  0
   43.7210   34.2020   41.7210 C   0  0  0  0  0  0  0  0  0  0  0  0
   44.0080   32.9140   41.9480 N   0  0  0  0  0  0  0  0  0  0  0  0
   45.2910   35.6200   44.3250 H   0  0  0  0  0  0  0  0  0  0  0  0
   42.9350   34.5740   40.5940 N   0  0  0  0  0  0  0  0  0  0  0  0
   41.7530   35.1920   40.7640 C   0  0  0  0  0  3  0  0  0  0  0  0
   40.9440   35.5790   39.7000 C   0  0  0  0  0  0  0  0  0  0  0  0
   39.9920   36.0760   39.8570 H   0  0  0  0  0  0  0  0  0  0  0  0
   41.4560   35.2750   38.4550 C   0  0  0  0  0  0  0  0  0  0  0  0
   40.7500   35.6110   37.4490 O   0  0  0  0  0  0  0  0  0  0  0  0
   42.6350   34.6580   38.2640 N   0  0  0  0  0  0  0  0  0  0  0  0
   43.3680   34.3120   39.3610 C   0  0  0  0  0  0  0  0  0  0  0  0
   44.4750   33.7340   39.2040 O   0  0  0  0  0  0  0  0  0  0  0  0
   42.9590   34.4610   37.2960 H   0  0  0  0  0  0  0  0  0  0  0  0
   46.0530   33.0900   45.0670 C   0  0  0  0  0  0  0  0  0  0  0  0
   45.5580   31.9100   45.5810 F   0  0  0  0  0  0  0  0  0  0  0  0
   47.3430   32.8370   44.6200 F   0  0  0  0  0  0  0  0  0  0  0  0
   46.1060   33.9960   46.0880 F   0  0  0  0  0  0  0  0  0  0  0  0
   45.0550   31.2740   43.2670 O   0  0  0  0  0  0  0  0  0  0  0  0
   44.2610   30.1480   43.0050 C   0  0  0  0  0  0  0  0  0  0  0  0
   42.9330   30.5280   43.1760 F   0  0  0  0  0  0  0  0  0  0  0  0
   44.5350   29.6650   41.7470 F   0  0  0  0  0  0  0  0  0  0  0  0
   44.4730   29.1880   43.9880 F   0  0  0  0  0  0  0  0  0  0  0  0
  1 22  1  0  0  0  0
  1  2  1  0  0  0  0
  2 18  1  0  0  0  0
  3  2  2  0  0  0  0
  3  7  1  0  0  0  0
  4  3  1  0  0  0  0
  5  6  1  0  0  0  0
  5  4  2  0  0  0  0
  6  1  2  0  0  0  0
  8  9  1  0  0  0  0
  8  5  1  0  0  0  0
 10 11  1  0  0  0  0
 10  9  2  0  0  0  0
 12 10  1  0  0  0  0
 13 12  2  0  0  0  0
 14 12  1  0  0  0  0
 14 15  1  0  0  0  0
 15  8  1  0  0  0  0
 16 15  2  0  0  0  0
 17 14  1  0  0  0  0
 18 19  1  0  0  0  0
 18 21  1  0  0  0  0
 20 18  1  0  0  0  0
 23 24  1  0  0  0  0
 23 22  1  0  0  0  0
 23 26  1  0  0  0  0
 25 23  1  0  0  0  0
M  END
>  <minimizedAffinity>
-4.80568552

>  <minimizedRMSD>
7.57040977

$$$$
