
 OpenBabel03252504103D

 26 27  0  0  0  0  0  0  0  0999 V2000
   46.9990   34.1920   43.0600 C   0  0  0  0  0  0  0  0  0  0  0  0
   45.8600   34.6550   43.7330 C   0  0  0  0  0  0  0  0  0  0  0  0
   45.3620   33.8830   44.7960 C   0  0  0  0  0  0  0  0  0  0  0  0
   46.0050   32.7340   45.1140 N   0  0  0  0  0  0  0  0  0  0  0  0
   47.1090   32.3180   44.4340 C   0  0  0  0  0  0  0  0  0  0  0  0
   47.5950   33.0440   43.4190 N   0  0  0  0  0  0  0  0  0  0  0  0
   44.4950   34.2250   45.3190 H   0  0  0  0  0  0  0  0  0  0  0  0
   47.7420   31.1010   44.8150 N   0  0  0  0  0  0  0  0  0  0  0  0
   47.4810   30.5440   46.0110 C   0  0  0  0  0  3  0  0  0  0  0  0
   48.0700   29.3570   46.4360 C   0  0  0  0  0  0  0  0  0  0  0  0
   47.8470   28.9230   47.4030 H   0  0  0  0  0  0  0  0  0  0  0  0
   48.9450   28.7980   45.5260 C   0  0  0  0  0  0  0  0  0  0  0  0
   49.5080   27.7090   45.8710 O   0  0  0  0  0  0  0  0  0  0  0  0
   49.2200   29.3380   44.3260 N   0  0  0  0  0  0  0  0  0  0  0  0
   48.5990   30.5050   43.9860 C   0  0  0  0  0  0  0  0  0  0  0  0
   48.8420   31.0280   42.8670 O   0  0  0  0  0  0  0  0  0  0  0  0
   49.8900   28.8620   43.6910 H   0  0  0  0  0  0  0  0  0  0  0  0
   45.2330   35.9320   43.3010 C   0  0  0  0  0  0  0  0  0  0  0  0
   46.2040   36.8550   42.9750 F   0  0  0  0  0  0  0  0  0  0  0  0
   44.4970   35.6850   42.1490 F   0  0  0  0  0  0  0  0  0  0  0  0
   44.4170   36.5030   44.2350 F   0  0  0  0  0  0  0  0  0  0  0  0
   47.4640   34.9450   42.0440 O   0  0  0  0  0  0  0  0  0  0  0  0
   48.7970   35.0680   41.6240 C   0  0  0  0  0  0  0  0  0  0  0  0
   49.5560   35.3930   42.7430 F   0  0  0  0  0  0  0  0  0  0  0  0
   49.2010   33.9080   41.0060 F   0  0  0  0  0  0  0  0  0  0  0  0
   48.9230   36.1720   40.7900 F   0  0  0  0  0  0  0  0  0  0  0  0
  1  6  2  0  0  0  0
  1  2  1  0  0  0  0
  2  3  2  0  0  0  0
  3  4  1  0  0  0  0
  3  7  1  0  0  0  0
  5  8  1  0  0  0  0
  5  4  2  0  0  0  0
  6  5  1  0  0  0  0
  8  9  1  0  0  0  0
  9 10  2  0  0  0  0
 10 11  1  0  0  0  0
 12 13  2  0  0  0  0
 12 10  1  0  0  0  0
 14 12  1  0  0  0  0
 15 14  1  0  0  0  0
 15  8  1  0  0  0  0
 16 15  2  0  0  0  0
 17 14  1  0  0  0  0
 18  2  1  0  0  0  0
 18 21  1  0  0  0  0
 19 18  1  0  0  0  0
 20 18  1  0  0  0  0
 22  1  1  0  0  0  0
 23 22  1  0  0  0  0
 23 24  1  0  0  0  0
 25 23  1  0  0  0  0
 26 23  1  0  0  0  0
M  END
>  <minimizedAffinity>
-5.32468748

>  <minimizedRMSD>
0.789661884

$$$$
