
 OpenBabel03252509193D

 44 48  0  0  1  0  0  0  0  0999 V2000
   47.6400   27.1980   47.5500 C   0  0  1  0  0  0  0  0  0  0  0  0
   47.2220   26.1880   46.5290 C   0  0  0  0  0  0  0  0  0  0  0  0
   48.3110   25.2060   46.1570 C   0  0  0  0  0  0  0  0  0  0  0  0
   49.0580   24.6720   47.3390 C   0  0  0  0  0  0  0  0  0  0  0  0
   49.4020   25.7410   48.3260 C   0  0  0  0  0  0  0  0  0  0  0  0
   49.1720   27.1480   47.7060 C   0  0  2  0  0  0  0  0  0  0  0  0
   47.2430   26.9550   48.5560 H   0  0  0  0  0  0  0  0  0  0  0  0
   46.3910   25.5900   46.9680 H   0  0  0  0  0  0  0  0  0  0  0  0
   46.8370   26.6110   45.5910 H   0  0  0  0  0  0  0  0  0  0  0  0
   47.8360   24.3880   45.6330 H   0  0  0  0  0  0  0  0  0  0  0  0
   49.0040   25.7240   45.4640 H   0  0  0  0  0  0  0  0  0  0  0  0
   49.9540   24.1370   46.9620 H   0  0  0  0  0  0  0  0  0  0  0  0
   48.4190   23.9320   47.8720 H   0  0  0  0  0  0  0  0  0  0  0  0
   48.7150   25.7230   49.2130 H   0  0  0  0  0  0  0  0  0  0  0  0
   50.4550   25.6400   48.6330 H   0  0  0  0  0  0  0  0  0  0  0  0
   49.6180   27.1680   46.6850 H   0  0  0  0  0  0  0  0  0  0  0  0
   46.7600   30.8990   46.0180 C   0  0  0  0  0  0  0  0  0  0  0  0
   46.1610   30.6600   47.2490 C   0  0  0  0  0  0  0  0  0  0  0  0
   46.3760   29.4870   47.8380 C   0  0  0  0  0  0  0  0  0  0  0  0
   47.1950   28.5160   47.2220 C   0  0  0  0  0  0  0  0  0  0  0  0
   47.6960   29.3400   45.6750 S   0  0  0  0  0  0  0  0  0  0  0  0
   45.5380   31.4130   47.7110 H   0  0  0  0  0  0  0  0  0  0  0  0
   45.9890   29.1410   48.7830 H   0  0  0  0  0  0  0  0  0  0  0  0
   45.7490   34.1990   44.6120 C   0  0  0  0  0  0  0  0  0  0  0  0
   46.6710   34.3250   43.5740 C   0  0  0  0  0  0  0  0  0  0  0  0
   47.5970   33.2840   43.4000 C   0  0  0  0  0  0  0  0  0  0  0  0
   47.5430   32.2180   44.2490 N   0  0  0  0  0  0  0  0  0  0  0  0
   46.6400   32.1380   45.2350 C   0  0  0  0  0  0  0  0  0  0  0  0
   45.7390   33.1370   45.4130 N   0  0  0  0  0  0  0  0  0  0  0  0
   45.0160   34.9770   44.7820 H   0  0  0  0  0  0  0  0  0  0  0  0
   46.6960   35.1650   42.9200 H   0  0  0  0  0  0  0  0  0  0  0  0
   48.3460   33.3040   42.6180 H   0  0  0  0  0  0  0  0  0  0  0  0
   49.6630   28.1700   48.5860 C   0  0  1  0  0  3  0  0  0  0  0  0
   49.9420   27.9190   49.7470 O   0  0  0  0  0  0  0  0  0  0  0  0
   49.0250   32.1900   50.7840 H   0  0  0  0  0  0  0  0  0  0  0  0
   49.6020   31.5630   50.1930 N   0  0  0  0  0  0  0  0  0  0  0  0
   49.3680   30.3180   49.7650 C   0  0  0  0  0  2  0  0  0  0  0  0
   50.0810   29.4390   48.9910 C   0  0  2  0  0  0  0  0  0  0  0  0
   51.3030   30.0070   48.5820 C   0  0  0  0  0  0  0  0  0  0  0  0
   52.2440   29.5140   47.8550 O   0  0  0  0  0  0  0  0  0  0  0  0
   51.6420   31.2940   48.9720 N   0  0  0  0  0  0  0  0  0  0  0  0
   50.7870   31.9660   49.7340 C   0  0  0  0  0  0  0  0  0  0  0  0
   51.1900   33.1360   50.0360 O   0  0  0  0  0  0  0  0  0  0  0  0
   52.5500   31.6900   48.6580 H   0  0  0  0  0  0  0  0  0  0  0  0
  1  6  1  0  0  0  0
  1  7  1  1  0  0  0
  2  8  1  0  0  0  0
  2  1  1  0  0  0  0
  3  2  1  0  0  0  0
  3  4  1  0  0  0  0
  4 13  1  0  0  0  0
  4  5  1  0  0  0  0
  5 15  1  0  0  0  0
  5 14  1  0  0  0  0
  6 16  1  6  0  0  0
  6  5  1  0  0  0  0
  6 33  1  0  0  0  0
  9  2  1  0  0  0  0
 10  3  1  0  0  0  0
 11  3  1  0  0  0  0
 12  4  1  0  0  0  0
 17 18  2  0  0  0  0
 18 22  1  0  0  0  0
 18 19  1  0  0  0  0
 19 23  1  0  0  0  0
 20  1  1  0  0  0  0
 20 19  2  0  0  0  0
 21 17  1  0  0  0  0
 21 20  1  0  0  0  0
 24 30  1  0  0  0  0
 24 29  1  0  0  0  0
 25 24  2  0  0  0  0
 26 25  1  0  0  0  0
 26 27  2  0  0  0  0
 27 28  1  0  0  0  0
 28 29  2  0  0  0  0
 28 17  1  0  0  0  0
 31 25  1  0  0  0  0
 32 26  1  0  0  0  0
 33 38  1  0  0  0  0
 33 34  1  6  0  0  0
 36 35  1  0  0  0  0
 37 36  1  0  0  0  0
 38 34  1  0  0  0  0
 38 37  1  1  0  0  0
 39 41  1  0  0  0  0
 39 38  1  0  0  0  0
 40 39  2  0  0  0  0
 41 42  1  0  0  0  0
 42 43  2  0  0  0  0
 42 36  1  0  0  0  0
 44 41  1  0  0  0  0
M  END
>  <minimizedAffinity>
-4.59487629

>  <minimizedRMSD>
3.32328057

$$$$
