
 OpenBabel03252503423D

 22 23  0  0  0  0  0  0  0  0999 V2000
   36.5830   27.3110   42.1990 C   0  0  0  0  0  0  0  0  0  0  0  0
   37.3810   26.2690   41.7360 C   0  0  0  0  0  0  0  0  0  0  0  0
   38.4260   26.5960   40.8870 C   0  0  0  0  0  0  0  0  0  0  0  0
   38.6060   27.8930   40.5630 N   0  0  0  0  0  0  0  0  0  0  0  0
   37.8190   28.8790   41.0260 C   0  0  0  0  0  0  0  0  0  0  0  0
   36.7850   28.5980   41.8600 N   0  0  0  0  0  0  0  0  0  0  0  0
   35.7340   27.1630   42.8710 H   0  0  0  0  0  0  0  0  0  0  0  0
   39.0170   25.7780   40.5530 H   0  0  0  0  0  0  0  0  0  0  0  0
   38.0280   30.2460   40.6690 N   0  0  0  0  0  0  0  0  0  0  0  0
   39.1450   30.8500   40.2310 C   0  0  0  0  0  3  0  0  0  0  0  0
   39.1120   32.2000   39.9440 C   0  0  0  0  0  0  0  0  0  0  0  0
   40.0650   32.6260   39.5910 H   0  0  0  0  0  0  0  0  0  0  0  0
   37.9490   32.9310   40.1020 C   0  0  0  0  0  0  0  0  0  0  0  0
   37.9660   34.1610   39.8290 O   0  0  0  0  0  0  0  0  0  0  0  0
   36.8540   32.2860   40.5440 N   0  0  0  0  0  0  0  0  0  0  0  0
   36.8830   30.9520   40.8270 C   0  0  0  0  0  0  0  0  0  0  0  0
   35.7650   30.5360   41.2260 O   0  0  0  0  0  0  0  0  0  0  0  0
   36.0140   32.8980   40.6390 H   0  0  0  0  0  0  0  0  0  0  0  0
   37.0120   24.9100   42.2150 C   0  0  0  0  0  0  0  0  0  0  0  0
   37.3680   24.7490   43.2740 H   0  0  0  0  0  0  0  0  0  0  0  0
   35.9320   24.7190   42.2120 H   0  0  0  0  0  0  0  0  0  0  0  0
   37.6090   24.1860   41.6130 H   0  0  0  0  0  0  0  0  0  0  0  0
  1  7  1  0  0  0  0
  2  1  2  0  0  0  0
  2 19  1  0  0  0  0
  3  2  1  0  0  0  0
  4  3  2  0  0  0  0
  4  5  1  0  0  0  0
  5  6  2  0  0  0  0
  6  1  1  0  0  0  0
  8  3  1  0  0  0  0
  9 16  1  0  0  0  0
  9  5  1  0  0  0  0
 10  9  1  0  0  0  0
 11 13  1  0  0  0  0
 11 10  2  0  0  0  0
 12 11  1  0  0  0  0
 13 15  1  0  0  0  0
 14 13  2  0  0  0  0
 15 18  1  0  0  0  0
 15 16  1  0  0  0  0
 16 17  2  0  0  0  0
 19 20  1  0  0  0  0
 21 19  1  0  0  0  0
 22 19  1  0  0  0  0
M  END
>  <minimizedAffinity>
-4.85344124

$$$$

 OpenBabel03252503423D

 22 23  0  0  0  0  0  0  0  0999 V2000
   36.9900   27.2240   41.9830 C   0  0  0  0  0  0  0  0  0  0  0  0
   37.0870   26.1420   41.1130 C   0  0  0  0  0  0  0  0  0  0  0  0
   37.2490   26.4200   39.7660 C   0  0  0  0  0  0  0  0  0  0  0  0
   37.3030   27.7110   39.3810 N   0  0  0  0  0  0  0  0  0  0  0  0
   37.2050   28.7370   40.2430 C   0  0  0  0  0  0  0  0  0  0  0  0
   37.0460   28.5040   41.5720 N   0  0  0  0  0  0  0  0  0  0  0  0
   36.8600   27.1160   43.0620 H   0  0  0  0  0  0  0  0  0  0  0  0
   37.3210   25.5710   39.1290 H   0  0  0  0  0  0  0  0  0  0  0  0
   37.2640   30.0970   39.8130 N   0  0  0  0  0  0  0  0  0  0  0  0
   37.8010   30.6140   38.6950 C   0  0  0  0  0  3  0  0  0  0  0  0
   37.7400   31.9770   38.4860 C   0  0  0  0  0  0  0  0  0  0  0  0
   38.2020   32.3280   37.5500 H   0  0  0  0  0  0  0  0  0  0  0  0
   37.1350   32.8100   39.4100 C   0  0  0  0  0  0  0  0  0  0  0  0
   37.1030   34.0480   39.1780 O   0  0  0  0  0  0  0  0  0  0  0  0
   36.6100   32.2500   40.5150 N   0  0  0  0  0  0  0  0  0  0  0  0
   36.6690   30.9040   40.7240 C   0  0  0  0  0  0  0  0  0  0  0  0
   36.1250   30.5760   41.8100 O   0  0  0  0  0  0  0  0  0  0  0  0
   36.1700   32.9360   41.1660 H   0  0  0  0  0  0  0  0  0  0  0  0
   37.0050   24.7970   41.7430 C   0  0  0  0  0  0  0  0  0  0  0  0
   37.9850   24.5250   42.2350 H   0  0  0  0  0  0  0  0  0  0  0  0
   36.2320   24.7170   42.5160 H   0  0  0  0  0  0  0  0  0  0  0  0
   36.9040   24.0600   40.9130 H   0  0  0  0  0  0  0  0  0  0  0  0
  1  7  1  0  0  0  0
  2 19  1  0  0  0  0
  2  1  2  0  0  0  0
  3  2  1  0  0  0  0
  4  3  2  0  0  0  0
  4  5  1  0  0  0  0
  5  6  2  0  0  0  0
  6  1  1  0  0  0  0
  8  3  1  0  0  0  0
  9  5  1  0  0  0  0
  9 16  1  0  0  0  0
 10  9  1  0  0  0  0
 11 10  2  0  0  0  0
 11 13  1  0  0  0  0
 12 11  1  0  0  0  0
 13 15  1  0  0  0  0
 14 13  2  0  0  0  0
 15 16  1  0  0  0  0
 15 18  1  0  0  0  0
 16 17  2  0  0  0  0
 19 20  1  0  0  0  0
 19 21  1  0  0  0  0
 22 19  1  0  0  0  0
M  END
>  <minimizedAffinity>
-4.79455566

$$$$

 OpenBabel03252503423D

 22 23  0  0  0  0  0  0  0  0999 V2000
   36.8740   31.4830   40.8320 C   0  0  0  0  0  0  0  0  0  0  0  0
   37.1450   31.9180   39.5390 C   0  0  0  0  0  0  0  0  0  0  0  0
   37.3960   30.9490   38.5800 C   0  0  0  0  0  0  0  0  0  0  0  0
   37.3640   29.6550   38.9550 N   0  0  0  0  0  0  0  0  0  0  0  0
   37.1000   29.2620   40.2140 C   0  0  0  0  0  0  0  0  0  0  0  0
   36.8480   30.1820   41.1800 N   0  0  0  0  0  0  0  0  0  0  0  0
   36.6630   32.1620   41.6620 H   0  0  0  0  0  0  0  0  0  0  0  0
   37.5980   31.3150   37.6030 H   0  0  0  0  0  0  0  0  0  0  0  0
   37.0710   27.8850   40.5880 N   0  0  0  0  0  0  0  0  0  0  0  0
   36.8760   26.7980   39.8230 C   0  0  0  0  0  3  0  0  0  0  0  0
   36.8900   25.5490   40.4090 C   0  0  0  0  0  0  0  0  0  0  0  0
   36.7230   24.7060   39.7200 H   0  0  0  0  0  0  0  0  0  0  0  0
   37.1020   25.4060   41.7690 C   0  0  0  0  0  0  0  0  0  0  0  0
   37.1070   24.2470   42.2620 O   0  0  0  0  0  0  0  0  0  0  0  0
   37.2930   26.5210   42.4970 N   0  0  0  0  0  0  0  0  0  0  0  0
   37.2800   27.7570   41.9200 C   0  0  0  0  0  0  0  0  0  0  0  0
   37.4760   28.6680   42.7650 O   0  0  0  0  0  0  0  0  0  0  0  0
   37.4470   26.3390   43.5130 H   0  0  0  0  0  0  0  0  0  0  0  0
   37.1310   33.3910   39.3360 C   0  0  0  0  0  0  0  0  0  0  0  0
   36.0710   33.7770   39.2740 H   0  0  0  0  0  0  0  0  0  0  0  0
   37.6240   33.9520   40.1390 H   0  0  0  0  0  0  0  0  0  0  0  0
   37.5500   33.5780   38.3200 H   0  0  0  0  0  0  0  0  0  0  0  0
  1  6  1  0  0  0  0
  1  7  1  0  0  0  0
  2  1  2  0  0  0  0
  3  4  2  0  0  0  0
  3  2  1  0  0  0  0
  4  5  1  0  0  0  0
  5  9  1  0  0  0  0
  5  6  2  0  0  0  0
  8  3  1  0  0  0  0
  9 16  1  0  0  0  0
 10 11  2  0  0  0  0
 10  9  1  0  0  0  0
 11 13  1  0  0  0  0
 12 11  1  0  0  0  0
 13 14  2  0  0  0  0
 13 15  1  0  0  0  0
 15 18  1  0  0  0  0
 16 15  1  0  0  0  0
 16 17  2  0  0  0  0
 19  2  1  0  0  0  0
 19 21  1  0  0  0  0
 20 19  1  0  0  0  0
 22 19  1  0  0  0  0
M  END
>  <minimizedAffinity>
-4.5069232

$$$$

 OpenBabel03252503423D

 22 23  0  0  0  0  0  0  0  0999 V2000
   38.1650   28.6300   43.2030 C   0  0  0  0  0  0  0  0  0  0  0  0
   36.9370   28.1520   42.7570 C   0  0  0  0  0  0  0  0  0  0  0  0
   36.4200   28.7060   41.5970 C   0  0  0  0  0  0  0  0  0  0  0  0
   37.1320   29.6670   40.9750 N   0  0  0  0  0  0  0  0  0  0  0  0
   38.3170   30.1110   41.4290 C   0  0  0  0  0  0  0  0  0  0  0  0
   38.8560   29.5920   42.5620 N   0  0  0  0  0  0  0  0  0  0  0  0
   38.6600   28.2620   44.1050 H   0  0  0  0  0  0  0  0  0  0  0  0
   35.4810   28.3180   41.2840 H   0  0  0  0  0  0  0  0  0  0  0  0
   39.0550   31.1300   40.7530 N   0  0  0  0  0  0  0  0  0  0  0  0
   38.9920   31.5160   39.4680 C   0  0  0  0  0  3  0  0  0  0  0  0
   39.8100   32.5380   39.0310 C   0  0  0  0  0  0  0  0  0  0  0  0
   39.7050   32.8000   37.9660 H   0  0  0  0  0  0  0  0  0  0  0  0
   40.6870   33.1650   39.8980 C   0  0  0  0  0  0  0  0  0  0  0  0
   41.4150   34.0930   39.4550 O   0  0  0  0  0  0  0  0  0  0  0  0
   40.7160   32.7470   41.1760 N   0  0  0  0  0  0  0  0  0  0  0  0
   39.9090   31.7370   41.6110 C   0  0  0  0  0  0  0  0  0  0  0  0
   40.0840   31.4930   42.8320 O   0  0  0  0  0  0  0  0  0  0  0  0
   41.4000   33.2630   41.7730 H   0  0  0  0  0  0  0  0  0  0  0  0
   36.3160   27.0870   43.5900 C   0  0  0  0  0  0  0  0  0  0  0  0
   36.8070   26.0890   43.3940 H   0  0  0  0  0  0  0  0  0  0  0  0
   36.3920   27.2700   44.6690 H   0  0  0  0  0  0  0  0  0  0  0  0
   35.2740   26.9560   43.2180 H   0  0  0  0  0  0  0  0  0  0  0  0
  1  7  1  0  0  0  0
  2  1  1  0  0  0  0
  2 19  1  0  0  0  0
  3  2  2  0  0  0  0
  4  5  2  0  0  0  0
  4  3  1  0  0  0  0
  5  6  1  0  0  0  0
  6  1  2  0  0  0  0
  8  3  1  0  0  0  0
  9  5  1  0  0  0  0
  9 16  1  0  0  0  0
 10  9  1  0  0  0  0
 11 10  2  0  0  0  0
 11 13  1  0  0  0  0
 12 11  1  0  0  0  0
 13 15  1  0  0  0  0
 14 13  2  0  0  0  0
 15 16  1  0  0  0  0
 15 18  1  0  0  0  0
 16 17  2  0  0  0  0
 19 21  1  0  0  0  0
 20 19  1  0  0  0  0
 22 19  1  0  0  0  0
M  END
>  <minimizedAffinity>
-4.43204212

$$$$

 OpenBabel03252503423D

 22 23  0  0  0  0  0  0  0  0999 V2000
   40.7900   32.3310   37.4330 C   0  0  0  0  0  0  0  0  0  0  0  0
   41.3400   33.4310   38.0840 C   0  0  0  0  0  0  0  0  0  0  0  0
   40.7190   33.8610   39.2460 C   0  0  0  0  0  0  0  0  0  0  0  0
   39.6280   33.1930   39.6720 N   0  0  0  0  0  0  0  0  0  0  0  0
   39.1170   32.1330   39.0220 C   0  0  0  0  0  0  0  0  0  0  0  0
   39.6980   31.6830   37.8800 N   0  0  0  0  0  0  0  0  0  0  0  0
   41.2000   31.9130   36.5110 H   0  0  0  0  0  0  0  0  0  0  0  0
   41.1650   34.7020   39.7180 H   0  0  0  0  0  0  0  0  0  0  0  0
   37.9590   31.4420   39.4920 N   0  0  0  0  0  0  0  0  0  0  0  0
   37.4440   31.3880   40.7310 C   0  0  0  0  0  3  0  0  0  0  0  0
   36.3020   30.6470   40.9550 C   0  0  0  0  0  0  0  0  0  0  0  0
   35.9390   30.6490   41.9950 H   0  0  0  0  0  0  0  0  0  0  0  0
   35.6860   29.9630   39.9220 C   0  0  0  0  0  0  0  0  0  0  0  0
   34.6460   29.2980   40.1730 O   0  0  0  0  0  0  0  0  0  0  0  0
   36.2360   30.0440   38.6970 N   0  0  0  0  0  0  0  0  0  0  0  0
   37.3650   30.7770   38.4730 C   0  0  0  0  0  0  0  0  0  0  0  0
   37.7210   30.7270   37.2680 O   0  0  0  0  0  0  0  0  0  0  0  0
   35.7200   29.5050   37.9680 H   0  0  0  0  0  0  0  0  0  0  0  0
   42.5470   34.0220   37.4470 C   0  0  0  0  0  0  0  0  0  0  0  0
   43.4620   33.3980   37.6670 H   0  0  0  0  0  0  0  0  0  0  0  0
   42.4760   34.1030   36.3550 H   0  0  0  0  0  0  0  0  0  0  0  0
   42.7440   34.9880   37.9670 H   0  0  0  0  0  0  0  0  0  0  0  0
  1  6  2  0  0  0  0
  1  2  1  0  0  0  0
  2  3  2  0  0  0  0
  3  4  1  0  0  0  0
  3  8  1  0  0  0  0
  5  9  1  0  0  0  0
  5  4  2  0  0  0  0
  6  5  1  0  0  0  0
  7  1  1  0  0  0  0
  9 10  1  0  0  0  0
 10 11  2  0  0  0  0
 11 12  1  0  0  0  0
 13 14  2  0  0  0  0
 13 11  1  0  0  0  0
 15 13  1  0  0  0  0
 16 15  1  0  0  0  0
 16  9  1  0  0  0  0
 17 16  2  0  0  0  0
 18 15  1  0  0  0  0
 19 20  1  0  0  0  0
 19 22  1  0  0  0  0
 19  2  1  0  0  0  0
 21 19  1  0  0  0  0
M  END
>  <minimizedAffinity>
-4.37936783

$$$$

 OpenBabel03252503423D

 22 23  0  0  0  0  0  0  0  0999 V2000
   37.1070   31.4910   40.2680 C   0  0  0  0  0  0  0  0  0  0  0  0
   37.9170   32.6220   40.2370 C   0  0  0  0  0  0  0  0  0  0  0  0
   39.1740   32.5210   40.8100 C   0  0  0  0  0  0  0  0  0  0  0  0
   39.5350   31.3440   41.3590 N   0  0  0  0  0  0  0  0  0  0  0  0
   38.7310   30.2660   41.3760 C   0  0  0  0  0  0  0  0  0  0  0  0
   37.4920   30.3260   40.8240 N   0  0  0  0  0  0  0  0  0  0  0  0
   36.0990   31.4620   39.8460 H   0  0  0  0  0  0  0  0  0  0  0  0
   39.7680   33.4020   40.7680 H   0  0  0  0  0  0  0  0  0  0  0  0
   39.1340   29.0290   41.9640 N   0  0  0  0  0  0  0  0  0  0  0  0
   40.3710   28.5600   42.1980 C   0  0  0  0  0  3  0  0  0  0  0  0
   40.5220   27.3200   42.7840 C   0  0  0  0  0  0  0  0  0  0  0  0
   41.5640   27.0020   42.9450 H   0  0  0  0  0  0  0  0  0  0  0  0
   39.4190   26.5600   43.1310 C   0  0  0  0  0  0  0  0  0  0  0  0
   39.6050   25.4340   43.6640 O   0  0  0  0  0  0  0  0  0  0  0  0
   38.1990   27.0680   42.8790 N   0  0  0  0  0  0  0  0  0  0  0  0
   38.0470   28.2940   42.2990 C   0  0  0  0  0  0  0  0  0  0  0  0
   36.8340   28.5890   42.1460 O   0  0  0  0  0  0  0  0  0  0  0  0
   37.4150   26.4420   43.1660 H   0  0  0  0  0  0  0  0  0  0  0  0
   37.3280   33.8200   39.5820 C   0  0  0  0  0  0  0  0  0  0  0  0
   37.3720   33.7240   38.4580 H   0  0  0  0  0  0  0  0  0  0  0  0
   36.2780   33.9950   39.8430 H   0  0  0  0  0  0  0  0  0  0  0  0
   38.0070   34.6750   39.8090 H   0  0  0  0  0  0  0  0  0  0  0  0
  1  6  1  0  0  0  0
  2  1  2  0  0  0  0
  2  3  1  0  0  0  0
  3  4  2  0  0  0  0
  4  5  1  0  0  0  0
  5  9  1  0  0  0  0
  6  5  2  0  0  0  0
  7  1  1  0  0  0  0
  8  3  1  0  0  0  0
  9 10  1  0  0  0  0
  9 16  1  0  0  0  0
 10 11  2  0  0  0  0
 11 12  1  0  0  0  0
 11 13  1  0  0  0  0
 13 14  2  0  0  0  0
 15 13  1  0  0  0  0
 15 18  1  0  0  0  0
 16 15  1  0  0  0  0
 17 16  2  0  0  0  0
 19 22  1  0  0  0  0
 19 21  1  0  0  0  0
 19  2  1  0  0  0  0
 20 19  1  0  0  0  0
M  END
>  <minimizedAffinity>
-4.30585003

$$$$

 OpenBabel03252503423D

 22 23  0  0  0  0  0  0  0  0999 V2000
   38.9050   31.5850   40.7170 C   0  0  0  0  0  0  0  0  0  0  0  0
   37.7190   32.2370   40.3910 C   0  0  0  0  0  0  0  0  0  0  0  0
   36.5440   31.5100   40.4940 C   0  0  0  0  0  0  0  0  0  0  0  0
   36.6190   30.2270   40.9000 N   0  0  0  0  0  0  0  0  0  0  0  0
   37.7790   29.6220   41.2080 C   0  0  0  0  0  0  0  0  0  0  0  0
   38.9510   30.3010   41.1200 N   0  0  0  0  0  0  0  0  0  0  0  0
   39.8850   32.0650   40.6690 H   0  0  0  0  0  0  0  0  0  0  0  0
   35.6570   32.0370   40.2390 H   0  0  0  0  0  0  0  0  0  0  0  0
   37.8340   28.2610   41.6360 N   0  0  0  0  0  0  0  0  0  0  0  0
   36.8740   27.5030   42.1910 C   0  0  0  0  0  3  0  0  0  0  0  0
   37.1570   26.1950   42.5280 C   0  0  0  0  0  0  0  0  0  0  0  0
   36.3220   25.6360   42.9780 H   0  0  0  0  0  0  0  0  0  0  0  0
   38.4130   25.6610   42.3020 C   0  0  0  0  0  0  0  0  0  0  0  0
   38.6280   24.4630   42.6270 O   0  0  0  0  0  0  0  0  0  0  0  0
   39.3450   26.4560   41.7450 N   0  0  0  0  0  0  0  0  0  0  0  0
   39.0670   27.7480   41.4110 C   0  0  0  0  0  0  0  0  0  0  0  0
   40.0650   28.3240   40.9050 O   0  0  0  0  0  0  0  0  0  0  0  0
   40.2670   25.9880   41.6040 H   0  0  0  0  0  0  0  0  0  0  0  0
   37.8570   33.6550   39.9650 C   0  0  0  0  0  0  0  0  0  0  0  0
   38.0130   34.3280   40.8590 H   0  0  0  0  0  0  0  0  0  0  0  0
   38.6990   33.8330   39.2860 H   0  0  0  0  0  0  0  0  0  0  0  0
   36.8660   33.9660   39.5610 H   0  0  0  0  0  0  0  0  0  0  0  0
  1  6  1  0  0  0  0
  2  3  1  0  0  0  0
  2  1  2  0  0  0  0
  3  4  2  0  0  0  0
  4  5  1  0  0  0  0
  5  9  1  0  0  0  0
  6  5  2  0  0  0  0
  7  1  1  0  0  0  0
  8  3  1  0  0  0  0
  9 10  1  0  0  0  0
 10 11  2  0  0  0  0
 11 12  1  0  0  0  0
 13 11  1  0  0  0  0
 13 14  2  0  0  0  0
 15 13  1  0  0  0  0
 16  9  1  0  0  0  0
 16 15  1  0  0  0  0
 17 16  2  0  0  0  0
 18 15  1  0  0  0  0
 19  2  1  0  0  0  0
 19 20  1  0  0  0  0
 21 19  1  0  0  0  0
 22 19  1  0  0  0  0
M  END
>  <minimizedAffinity>
-4.28767157

$$$$

 OpenBabel03252503423D

 22 23  0  0  0  0  0  0  0  0999 V2000
   37.8250   30.5500   39.1270 C   0  0  0  0  0  0  0  0  0  0  0  0
   37.1300   31.5020   39.8670 C   0  0  0  0  0  0  0  0  0  0  0  0
   36.4550   31.0640   40.9950 C   0  0  0  0  0  0  0  0  0  0  0  0
   36.5110   29.7530   41.3050 N   0  0  0  0  0  0  0  0  0  0  0  0
   37.1900   28.8550   40.5710 C   0  0  0  0  0  0  0  0  0  0  0  0
   37.8640   29.2460   39.4590 N   0  0  0  0  0  0  0  0  0  0  0  0
   38.3880   30.7890   38.2220 H   0  0  0  0  0  0  0  0  0  0  0  0
   35.9360   31.8170   41.5380 H   0  0  0  0  0  0  0  0  0  0  0  0
   37.2350   27.4700   40.9180 N   0  0  0  0  0  0  0  0  0  0  0  0
   37.0340   26.8850   42.1100 C   0  0  0  0  0  3  0  0  0  0  0  0
   37.1290   25.5120   42.2110 C   0  0  0  0  0  0  0  0  0  0  0  0
   36.9530   25.1030   43.2190 H   0  0  0  0  0  0  0  0  0  0  0  0
   37.4270   24.7380   41.1040 C   0  0  0  0  0  0  0  0  0  0  0  0
   37.5050   23.4880   41.2430 O   0  0  0  0  0  0  0  0  0  0  0  0
   37.6210   25.3660   39.9300 N   0  0  0  0  0  0  0  0  0  0  0  0
   37.5270   26.7230   39.8270 C   0  0  0  0  0  0  0  0  0  0  0  0
   37.7410   27.1170   38.6520 O   0  0  0  0  0  0  0  0  0  0  0  0
   37.8420   24.7220   39.1400 H   0  0  0  0  0  0  0  0  0  0  0  0
   37.1970   32.8960   39.3520 C   0  0  0  0  0  0  0  0  0  0  0  0
   38.1870   33.3730   39.6160 H   0  0  0  0  0  0  0  0  0  0  0  0
   37.0910   32.9710   38.2640 H   0  0  0  0  0  0  0  0  0  0  0  0
   36.4480   33.4870   39.9290 H   0  0  0  0  0  0  0  0  0  0  0  0
  1  6  2  0  0  0  0
  1  2  1  0  0  0  0
  2  3  2  0  0  0  0
  3  4  1  0  0  0  0
  3  8  1  0  0  0  0
  5  9  1  0  0  0  0
  5  4  2  0  0  0  0
  6  5  1  0  0  0  0
  7  1  1  0  0  0  0
  9 10  1  0  0  0  0
 10 11  2  0  0  0  0
 11 12  1  0  0  0  0
 13 14  2  0  0  0  0
 13 11  1  0  0  0  0
 15 13  1  0  0  0  0
 16 15  1  0  0  0  0
 16  9  1  0  0  0  0
 17 16  2  0  0  0  0
 18 15  1  0  0  0  0
 19 20  1  0  0  0  0
 19  2  1  0  0  0  0
 19 22  1  0  0  0  0
 21 19  1  0  0  0  0
M  END
>  <minimizedAffinity>
-4.28289032

$$$$

 OpenBabel03252503423D

 22 23  0  0  0  0  0  0  0  0999 V2000
   35.4290   27.5360   38.2820 C   0  0  0  0  0  0  0  0  0  0  0  0
   34.5720   28.6050   38.5250 C   0  0  0  0  0  0  0  0  0  0  0  0
   34.6580   29.2230   39.7620 C   0  0  0  0  0  0  0  0  0  0  0  0
   35.5590   28.7560   40.6490 N   0  0  0  0  0  0  0  0  0  0  0  0
   36.3760   27.7210   40.3870 C   0  0  0  0  0  0  0  0  0  0  0  0
   36.3210   27.0900   39.1860 N   0  0  0  0  0  0  0  0  0  0  0  0
   35.4430   26.9790   37.3420 H   0  0  0  0  0  0  0  0  0  0  0  0
   33.9890   30.0360   39.9140 H   0  0  0  0  0  0  0  0  0  0  0  0
   37.3240   27.2430   41.3430 N   0  0  0  0  0  0  0  0  0  0  0  0
   37.8720   27.8810   42.3900 C   0  0  0  0  0  3  0  0  0  0  0  0
   38.7780   27.2110   43.1880 C   0  0  0  0  0  0  0  0  0  0  0  0
   39.1860   27.7970   44.0260 H   0  0  0  0  0  0  0  0  0  0  0  0
   39.1230   25.8980   42.9220 C   0  0  0  0  0  0  0  0  0  0  0  0
   39.9540   25.3260   43.6760 O   0  0  0  0  0  0  0  0  0  0  0  0
   38.5490   25.2980   41.8630 N   0  0  0  0  0  0  0  0  0  0  0  0
   37.6540   25.9570   41.0730 C   0  0  0  0  0  0  0  0  0  0  0  0
   37.2320   25.2290   40.1380 O   0  0  0  0  0  0  0  0  0  0  0  0
   38.8550   24.3100   41.7220 H   0  0  0  0  0  0  0  0  0  0  0  0
   33.6520   28.9610   37.4110 C   0  0  0  0  0  0  0  0  0  0  0  0
   34.1980   29.5450   36.6130 H   0  0  0  0  0  0  0  0  0  0  0  0
   33.2020   28.0930   36.9150 H   0  0  0  0  0  0  0  0  0  0  0  0
   32.9160   29.6880   37.8240 H   0  0  0  0  0  0  0  0  0  0  0  0
  1  2  2  0  0  0  0
  1  6  1  0  0  0  0
  2  3  1  0  0  0  0
  3  8  1  0  0  0  0
  3  4  2  0  0  0  0
  5  4  1  0  0  0  0
  5  9  1  0  0  0  0
  6  5  2  0  0  0  0
  7  1  1  0  0  0  0
  9 10  1  0  0  0  0
 10 11  2  0  0  0  0
 11 12  1  0  0  0  0
 13 11  1  0  0  0  0
 13 14  2  0  0  0  0
 15 13  1  0  0  0  0
 16  9  1  0  0  0  0
 16 15  1  0  0  0  0
 17 16  2  0  0  0  0
 18 15  1  0  0  0  0
 19 22  1  0  0  0  0
 19  2  1  0  0  0  0
 20 19  1  0  0  0  0
 21 19  1  0  0  0  0
M  END
>  <minimizedAffinity>
-4.22576666

$$$$
