
 OpenBabel03242514453D

 22 23  0  0  0  0  0  0  0  0999 V2000
   38.1870   28.0150   41.0030 C   0  0  0  0  0  0  0  0  0  0  0  0
   37.9220   29.1040   41.8310 C   0  0  0  0  0  0  0  0  0  0  0  0
   37.8160   28.9050   43.2200 C   0  0  0  0  0  0  0  0  0  0  0  0
   37.9810   27.6280   43.6790 N   0  0  0  0  0  0  0  0  0  0  0  0
   38.2370   26.5920   42.8480 C   0  0  0  0  0  0  0  0  0  0  0  0
   38.3390   26.7970   41.5060 N   0  0  0  0  0  0  0  0  0  0  0  0
   37.6110   29.7390   43.8760 H   0  0  0  0  0  0  0  0  0  0  0  0
   38.3670   25.5840   43.2200 H   0  0  0  0  0  0  0  0  0  0  0  0
   37.7590   30.4140   41.2930 N   0  0  0  0  0  0  0  0  0  0  0  0
   38.9350   31.1030   41.2960 C   0  0  0  0  0  3  0  0  0  0  0  0
   39.0330   32.3990   40.8230 C   0  0  0  0  0  0  0  0  0  0  0  0
   39.9350   32.9640   40.8100 H   0  0  0  0  0  0  0  0  0  0  0  0
   37.8600   32.9750   40.3370 C   0  0  0  0  0  0  0  0  0  0  0  0
   37.8570   34.1600   39.8840 O   0  0  0  0  0  0  0  0  0  0  0  0
   36.7230   32.2660   40.3520 N   0  0  0  0  0  0  0  0  0  0  0  0
   36.6480   31.0060   40.8170 C   0  0  0  0  0  0  0  0  0  0  0  0
   35.6350   30.2780   40.8650 O   0  0  0  0  0  0  0  0  0  0  0  0
   35.8230   32.6730   39.9930 H   0  0  0  0  0  0  0  0  0  0  0  0
   38.2940   28.2620   39.5360 C   0  0  0  0  0  0  0  0  0  0  0  0
   37.7980   29.1800   39.2020 H   0  0  0  0  0  0  0  0  0  0  0  0
   39.3680   28.1850   39.2460 H   0  0  0  0  0  0  0  0  0  0  0  0
   37.7930   27.3900   39.0200 H   0  0  0  0  0  0  0  0  0  0  0  0
  1  6  2  0  0  0  0
  1  2  1  0  0  0  0
  2  3  2  0  0  0  0
  3  4  1  0  0  0  0
  3  7  1  0  0  0  0
  5  8  1  0  0  0  0
  5  4  2  0  0  0  0
  6  5  1  0  0  0  0
  9 10  1  0  0  0  0
  9  2  1  0  0  0  0
 11 10  2  0  0  0  0
 12 11  1  0  0  0  0
 13 15  1  0  0  0  0
 13 11  1  0  0  0  0
 14 13  2  0  0  0  0
 15 16  1  0  0  0  0
 16 17  2  0  0  0  0
 16  9  1  0  0  0  0
 18 15  1  0  0  0  0
 19  1  1  0  0  0  0
 20 19  1  0  0  0  0
 21 19  1  0  0  0  0
 22 19  1  0  0  0  0
M  END
>  <minimizedAffinity>
-4.70878124

$$$$

 OpenBabel03242514453D

 22 23  0  0  0  0  0  0  0  0999 V2000
   38.2420   25.4880   41.8930 C   0  0  0  0  0  0  0  0  0  0  0  0
   38.6880   26.6740   42.4700 C   0  0  0  0  0  0  0  0  0  0  0  0
   39.7740   26.6420   43.3650 C   0  0  0  0  0  0  0  0  0  0  0  0
   40.3340   25.4210   43.6170 N   0  0  0  0  0  0  0  0  0  0  0  0
   39.8770   24.2860   43.0410 C   0  0  0  0  0  0  0  0  0  0  0  0
   38.8260   24.3300   42.1760 N   0  0  0  0  0  0  0  0  0  0  0  0
   40.1320   27.5530   43.8220 H   0  0  0  0  0  0  0  0  0  0  0  0
   40.3250   23.3230   43.2460 H   0  0  0  0  0  0  0  0  0  0  0  0
   38.0620   27.9190   42.1680 N   0  0  0  0  0  0  0  0  0  0  0  0
   38.6900   28.5550   41.1390 C   0  0  0  0  0  3  0  0  0  0  0  0
   38.2680   29.7820   40.6610 C   0  0  0  0  0  0  0  0  0  0  0  0
   38.7350   30.3040   39.8590 H   0  0  0  0  0  0  0  0  0  0  0  0
   37.1590   30.3470   41.2880 C   0  0  0  0  0  0  0  0  0  0  0  0
   36.7030   31.4710   40.9160 O   0  0  0  0  0  0  0  0  0  0  0  0
   36.5690   29.6920   42.2980 N   0  0  0  0  0  0  0  0  0  0  0  0
   36.9950   28.4990   42.7490 C   0  0  0  0  0  0  0  0  0  0  0  0
   36.5050   27.8230   43.6790 O   0  0  0  0  0  0  0  0  0  0  0  0
   35.7320   30.0920   42.7910 H   0  0  0  0  0  0  0  0  0  0  0  0
   37.0890   25.5590   40.9500 C   0  0  0  0  0  0  0  0  0  0  0  0
   36.4670   26.4520   41.0750 H   0  0  0  0  0  0  0  0  0  0  0  0
   37.4740   25.4050   39.9140 H   0  0  0  0  0  0  0  0  0  0  0  0
   36.4420   24.6550   41.1540 H   0  0  0  0  0  0  0  0  0  0  0  0
  1  6  2  0  0  0  0
  1  2  1  0  0  0  0
  2  3  2  0  0  0  0
  3  4  1  0  0  0  0
  3  7  1  0  0  0  0
  5  8  1  0  0  0  0
  5  4  2  0  0  0  0
  6  5  1  0  0  0  0
  9  2  1  0  0  0  0
  9 16  1  0  0  0  0
 10  9  1  0  0  0  0
 11 10  2  0  0  0  0
 11 13  1  0  0  0  0
 12 11  1  0  0  0  0
 13 15  1  0  0  0  0
 14 13  2  0  0  0  0
 15 16  1  0  0  0  0
 15 18  1  0  0  0  0
 16 17  2  0  0  0  0
 19 20  1  0  0  0  0
 19 22  1  0  0  0  0
 19  1  1  0  0  0  0
 21 19  1  0  0  0  0
M  END
>  <minimizedAffinity>
-4.51034594

$$$$

 OpenBabel03242514453D

 22 23  0  0  0  0  0  0  0  0999 V2000
   36.9470   26.8540   42.3510 C   0  0  0  0  0  0  0  0  0  0  0  0
   36.9480   27.4230   41.0800 C   0  0  0  0  0  0  0  0  0  0  0  0
   36.9940   26.5870   39.9480 C   0  0  0  0  0  0  0  0  0  0  0  0
   37.0370   25.2390   40.1750 N   0  0  0  0  0  0  0  0  0  0  0  0
   37.0360   24.7180   41.4230 C   0  0  0  0  0  0  0  0  0  0  0  0
   36.9910   25.5370   42.5090 N   0  0  0  0  0  0  0  0  0  0  0  0
   36.9950   27.0120   38.9550 H   0  0  0  0  0  0  0  0  0  0  0  0
   37.0710   23.6500   41.5930 H   0  0  0  0  0  0  0  0  0  0  0  0
   36.9010   28.8370   40.9070 N   0  0  0  0  0  0  0  0  0  0  0  0
   38.1490   29.3850   40.9420 C   0  0  0  0  0  3  0  0  0  0  0  0
   38.3650   30.7430   40.7970 C   0  0  0  0  0  0  0  0  0  0  0  0
   39.3250   31.2000   40.8190 H   0  0  0  0  0  0  0  0  0  0  0  0
   37.2340   31.5370   40.6120 C   0  0  0  0  0  0  0  0  0  0  0  0
   37.3380   32.7930   40.4710 O   0  0  0  0  0  0  0  0  0  0  0  0
   36.0230   30.9620   40.5850 N   0  0  0  0  0  0  0  0  0  0  0  0
   35.8350   29.6380   40.7280 C   0  0  0  0  0  0  0  0  0  0  0  0
   34.7470   29.0240   40.7140 O   0  0  0  0  0  0  0  0  0  0  0  0
   35.1530   31.5340   40.4470 H   0  0  0  0  0  0  0  0  0  0  0  0
   36.8970   27.7700   43.5270 C   0  0  0  0  0  0  0  0  0  0  0  0
   37.2360   28.7890   43.3110 H   0  0  0  0  0  0  0  0  0  0  0  0
   35.8790   27.7070   43.9770 H   0  0  0  0  0  0  0  0  0  0  0  0
   37.5860   27.3350   44.3100 H   0  0  0  0  0  0  0  0  0  0  0  0
  1  6  1  0  0  0  0
  1 19  1  0  0  0  0
  2  1  2  0  0  0  0
  3  4  2  0  0  0  0
  3  2  1  0  0  0  0
  4  5  1  0  0  0  0
  5  8  1  0  0  0  0
  5  6  2  0  0  0  0
  7  3  1  0  0  0  0
  9 10  1  0  0  0  0
  9  2  1  0  0  0  0
 11 12  1  0  0  0  0
 11 10  2  0  0  0  0
 13 11  1  0  0  0  0
 14 13  2  0  0  0  0
 15 13  1  0  0  0  0
 15 16  1  0  0  0  0
 16  9  1  0  0  0  0
 17 16  2  0  0  0  0
 18 15  1  0  0  0  0
 19 21  1  0  0  0  0
 19 22  1  0  0  0  0
 20 19  1  0  0  0  0
M  END
>  <minimizedAffinity>
-4.50993443

$$$$

 OpenBabel03242514453D

 22 23  0  0  0  0  0  0  0  0999 V2000
   39.5750   31.3530   39.3240 C   0  0  0  0  0  0  0  0  0  0  0  0
   39.0120   31.6880   40.5530 C   0  0  0  0  0  0  0  0  0  0  0  0
   39.1620   32.9960   41.0490 C   0  0  0  0  0  0  0  0  0  0  0  0
   39.8690   33.8750   40.2760 N   0  0  0  0  0  0  0  0  0  0  0  0
   40.4050   33.5190   39.0870 C   0  0  0  0  0  0  0  0  0  0  0  0
   40.2520   32.2500   38.6170 N   0  0  0  0  0  0  0  0  0  0  0  0
   38.7310   33.2720   42.0010 H   0  0  0  0  0  0  0  0  0  0  0  0
   40.9630   34.2210   38.4820 H   0  0  0  0  0  0  0  0  0  0  0  0
   38.2850   30.7260   41.3140 N   0  0  0  0  0  0  0  0  0  0  0  0
   39.1100   30.0100   42.1290 C   0  0  0  0  0  3  0  0  0  0  0  0
   38.6390   29.0160   42.9680 C   0  0  0  0  0  0  0  0  0  0  0  0
   39.2560   28.4400   43.6160 H   0  0  0  0  0  0  0  0  0  0  0  0
   37.2670   28.7760   42.9400 C   0  0  0  0  0  0  0  0  0  0  0  0
   36.7480   27.8820   43.6750 O   0  0  0  0  0  0  0  0  0  0  0  0
   36.4880   29.5000   42.1240 N   0  0  0  0  0  0  0  0  0  0  0  0
   36.9650   30.4630   41.3160 C   0  0  0  0  0  0  0  0  0  0  0  0
   36.3120   31.1820   40.5300 O   0  0  0  0  0  0  0  0  0  0  0  0
   35.4500   29.3420   42.0810 H   0  0  0  0  0  0  0  0  0  0  0  0
   39.3960   29.9580   38.8280 C   0  0  0  0  0  0  0  0  0  0  0  0
   39.1690   29.2320   39.6170 H   0  0  0  0  0  0  0  0  0  0  0  0
   38.6600   29.9760   37.9910 H   0  0  0  0  0  0  0  0  0  0  0  0
   40.3720   29.6540   38.3470 H   0  0  0  0  0  0  0  0  0  0  0  0
  1  2  1  0  0  0  0
  2  3  2  0  0  0  0
  2  9  1  0  0  0  0
  3  7  1  0  0  0  0
  4  3  1  0  0  0  0
  5  4  2  0  0  0  0
  6  5  1  0  0  0  0
  6  1  2  0  0  0  0
  8  5  1  0  0  0  0
  9 16  1  0  0  0  0
  9 10  1  0  0  0  0
 10 11  2  0  0  0  0
 11 12  1  0  0  0  0
 13 11  1  0  0  0  0
 13 14  2  0  0  0  0
 15 13  1  0  0  0  0
 16 15  1  0  0  0  0
 17 16  2  0  0  0  0
 18 15  1  0  0  0  0
 19  1  1  0  0  0  0
 19 20  1  0  0  0  0
 21 19  1  0  0  0  0
 22 19  1  0  0  0  0
M  END
>  <minimizedAffinity>
-4.36434174

$$$$

 OpenBabel03242514453D

 22 23  0  0  0  0  0  0  0  0999 V2000
   37.7870   27.9960   42.8840 C   0  0  0  0  0  0  0  0  0  0  0  0
   38.7350   27.3040   42.1340 C   0  0  0  0  0  0  0  0  0  0  0  0
   39.8740   27.9820   41.6630 C   0  0  0  0  0  0  0  0  0  0  0  0
   39.9810   29.3080   41.9780 N   0  0  0  0  0  0  0  0  0  0  0  0
   39.0420   29.9530   42.7080 C   0  0  0  0  0  0  0  0  0  0  0  0
   37.9450   29.2850   43.1590 N   0  0  0  0  0  0  0  0  0  0  0  0
   40.6180   27.4600   41.0800 H   0  0  0  0  0  0  0  0  0  0  0  0
   39.1350   31.0030   42.9530 H   0  0  0  0  0  0  0  0  0  0  0  0
   38.5680   25.9190   41.8380 N   0  0  0  0  0  0  0  0  0  0  0  0
   37.8570   25.7380   40.6890 C   0  0  0  0  0  3  0  0  0  0  0  0
   37.5640   24.4820   40.1910 C   0  0  0  0  0  0  0  0  0  0  0  0
   37.0130   24.3070   39.2980 H   0  0  0  0  0  0  0  0  0  0  0  0
   38.0340   23.3950   40.9270 C   0  0  0  0  0  0  0  0  0  0  0  0
   37.8120   22.2060   40.5460 O   0  0  0  0  0  0  0  0  0  0  0  0
   38.7290   23.6130   42.0530 N   0  0  0  0  0  0  0  0  0  0  0  0
   39.0030   24.8440   42.5200 C   0  0  0  0  0  0  0  0  0  0  0  0
   39.6410   25.1350   43.5540 O   0  0  0  0  0  0  0  0  0  0  0  0
   39.0960   22.8150   42.6290 H   0  0  0  0  0  0  0  0  0  0  0  0
   36.5930   27.2460   43.3670 C   0  0  0  0  0  0  0  0  0  0  0  0
   36.3760   26.3380   42.7940 H   0  0  0  0  0  0  0  0  0  0  0  0
   36.7020   27.0840   44.4660 H   0  0  0  0  0  0  0  0  0  0  0  0
   35.7070   27.9400   43.2650 H   0  0  0  0  0  0  0  0  0  0  0  0
  1  6  1  0  0  0  0
  1 19  1  0  0  0  0
  2  1  2  0  0  0  0
  3  4  2  0  0  0  0
  3  2  1  0  0  0  0
  4  5  1  0  0  0  0
  5  8  1  0  0  0  0
  5  6  2  0  0  0  0
  7  3  1  0  0  0  0
  9  2  1  0  0  0  0
  9 16  1  0  0  0  0
 10  9  1  0  0  0  0
 11 10  2  0  0  0  0
 11 13  1  0  0  0  0
 12 11  1  0  0  0  0
 13 15  1  0  0  0  0
 14 13  2  0  0  0  0
 15 16  1  0  0  0  0
 15 18  1  0  0  0  0
 16 17  2  0  0  0  0
 19 21  1  0  0  0  0
 20 19  1  0  0  0  0
 22 19  1  0  0  0  0
M  END
>  <minimizedAffinity>
-4.35673094

$$$$

 OpenBabel03242514453D

 22 23  0  0  0  0  0  0  0  0999 V2000
   37.6210   29.1950   39.3820 C   0  0  0  0  0  0  0  0  0  0  0  0
   37.7870   30.5750   39.4600 C   0  0  0  0  0  0  0  0  0  0  0  0
   36.9380   31.3280   40.2930 C   0  0  0  0  0  0  0  0  0  0  0  0
   35.9830   30.6400   40.9880 N   0  0  0  0  0  0  0  0  0  0  0  0
   35.8460   29.2980   40.8900 C   0  0  0  0  0  0  0  0  0  0  0  0
   36.6740   28.5810   40.0810 N   0  0  0  0  0  0  0  0  0  0  0  0
   37.0540   32.3990   40.3650 H   0  0  0  0  0  0  0  0  0  0  0  0
   35.0870   28.7620   41.4430 H   0  0  0  0  0  0  0  0  0  0  0  0
   38.8030   31.2370   38.7100 N   0  0  0  0  0  0  0  0  0  0  0  0
   39.9530   31.3620   39.4310 C   0  0  0  0  0  3  0  0  0  0  0  0
   41.0850   31.9700   38.9200 C   0  0  0  0  0  0  0  0  0  0  0  0
   41.9970   32.0820   39.4560 H   0  0  0  0  0  0  0  0  0  0  0  0
   40.9940   32.4570   37.6170 C   0  0  0  0  0  0  0  0  0  0  0  0
   41.9830   33.0300   37.0670 O   0  0  0  0  0  0  0  0  0  0  0  0
   39.8460   32.3170   36.9390 N   0  0  0  0  0  0  0  0  0  0  0  0
   38.7560   31.7220   37.4550 C   0  0  0  0  0  0  0  0  0  0  0  0
   37.6530   31.5500   36.8960 O   0  0  0  0  0  0  0  0  0  0  0  0
   39.7470   32.6740   35.9560 H   0  0  0  0  0  0  0  0  0  0  0  0
   38.5380   28.4290   38.4890 C   0  0  0  0  0  0  0  0  0  0  0  0
   39.0050   29.0360   37.7060 H   0  0  0  0  0  0  0  0  0  0  0  0
   39.2580   27.8660   39.1280 H   0  0  0  0  0  0  0  0  0  0  0  0
   37.9150   27.6320   37.9860 H   0  0  0  0  0  0  0  0  0  0  0  0
  1  2  2  0  0  0  0
  1  6  1  0  0  0  0
  2  3  1  0  0  0  0
  3  7  1  0  0  0  0
  3  4  2  0  0  0  0
  5  4  1  0  0  0  0
  5  8  1  0  0  0  0
  6  5  2  0  0  0  0
  9 10  1  0  0  0  0
  9  2  1  0  0  0  0
 11 10  2  0  0  0  0
 11 12  1  0  0  0  0
 13 11  1  0  0  0  0
 14 13  2  0  0  0  0
 15 16  1  0  0  0  0
 15 13  1  0  0  0  0
 16  9  1  0  0  0  0
 17 16  2  0  0  0  0
 18 15  1  0  0  0  0
 19 21  1  0  0  0  0
 19  1  1  0  0  0  0
 20 19  1  0  0  0  0
 22 19  1  0  0  0  0
M  END
>  <minimizedAffinity>
-4.23579645

$$$$

 OpenBabel03242514453D

 22 23  0  0  0  0  0  0  0  0999 V2000
   39.7320   26.7210   42.8210 C   0  0  0  0  0  0  0  0  0  0  0  0
   38.4890   26.7530   42.1940 C   0  0  0  0  0  0  0  0  0  0  0  0
   37.8050   25.5460   41.9540 C   0  0  0  0  0  0  0  0  0  0  0  0
   38.4180   24.3950   42.3610 N   0  0  0  0  0  0  0  0  0  0  0  0
   39.6270   24.3970   42.9680 C   0  0  0  0  0  0  0  0  0  0  0  0
   40.2790   25.5710   43.1940 N   0  0  0  0  0  0  0  0  0  0  0  0
   36.8400   25.5540   41.4690 H   0  0  0  0  0  0  0  0  0  0  0  0
   40.1050   23.4810   43.2860 H   0  0  0  0  0  0  0  0  0  0  0  0
   37.9000   27.9870   41.7920 N   0  0  0  0  0  0  0  0  0  0  0  0
   38.1980   28.2820   40.4950 C   0  0  0  0  0  3  0  0  0  0  0  0
   37.7400   29.4300   39.8730 C   0  0  0  0  0  0  0  0  0  0  0  0
   37.9530   29.6880   38.8630 H   0  0  0  0  0  0  0  0  0  0  0  0
   36.9510   30.2820   40.6440 C   0  0  0  0  0  0  0  0  0  0  0  0
   36.4880   31.3580   40.1560 O   0  0  0  0  0  0  0  0  0  0  0  0
   36.6810   29.9590   41.9170 N   0  0  0  0  0  0  0  0  0  0  0  0
   37.1360   28.8370   42.5020 C   0  0  0  0  0  0  0  0  0  0  0  0
   36.9320   28.4610   43.6760 O   0  0  0  0  0  0  0  0  0  0  0  0
   36.0900   30.5810   42.5220 H   0  0  0  0  0  0  0  0  0  0  0  0
   40.4290   28.0180   43.0590 C   0  0  0  0  0  0  0  0  0  0  0  0
   40.0930   28.8300   42.4050 H   0  0  0  0  0  0  0  0  0  0  0  0
   40.3750   28.2500   44.1490 H   0  0  0  0  0  0  0  0  0  0  0  0
   41.5270   27.8420   42.8560 H   0  0  0  0  0  0  0  0  0  0  0  0
  1 19  1  0  0  0  0
  1  6  1  0  0  0  0
  2  1  2  0  0  0  0
  3  2  1  0  0  0  0
  3  4  2  0  0  0  0
  4  5  1  0  0  0  0
  5  6  2  0  0  0  0
  5  8  1  0  0  0  0
  7  3  1  0  0  0  0
  9  2  1  0  0  0  0
  9 16  1  0  0  0  0
 10  9  1  0  0  0  0
 11 10  2  0  0  0  0
 11 13  1  0  0  0  0
 12 11  1  0  0  0  0
 13 15  1  0  0  0  0
 14 13  2  0  0  0  0
 15 16  1  0  0  0  0
 15 18  1  0  0  0  0
 16 17  2  0  0  0  0
 19 21  1  0  0  0  0
 20 19  1  0  0  0  0
 22 19  1  0  0  0  0
M  END
>  <minimizedAffinity>
-4.22161818

$$$$

 OpenBabel03242514453D

 22 23  0  0  0  0  0  0  0  0999 V2000
   37.1100   30.9110   40.6360 C   0  0  0  0  0  0  0  0  0  0  0  0
   38.0440   30.0820   41.2520 C   0  0  0  0  0  0  0  0  0  0  0  0
   39.2630   30.6260   41.6980 C   0  0  0  0  0  0  0  0  0  0  0  0
   39.4580   31.9630   41.4930 N   0  0  0  0  0  0  0  0  0  0  0  0
   38.5310   32.7420   40.8900 C   0  0  0  0  0  0  0  0  0  0  0  0
   37.3550   32.2040   40.4640 N   0  0  0  0  0  0  0  0  0  0  0  0
   39.9980   29.9960   42.1780 H   0  0  0  0  0  0  0  0  0  0  0  0
   38.6930   33.8000   40.7320 H   0  0  0  0  0  0  0  0  0  0  0  0
   37.7840   28.6930   41.4380 N   0  0  0  0  0  0  0  0  0  0  0  0
   37.1910   28.4540   42.6420 C   0  0  0  0  0  3  0  0  0  0  0  0
   36.8390   27.1810   43.0530 C   0  0  0  0  0  0  0  0  0  0  0  0
   36.3750   26.9620   43.9850 H   0  0  0  0  0  0  0  0  0  0  0  0
   37.1240   26.1410   42.1700 C   0  0  0  0  0  0  0  0  0  0  0  0
   36.8370   24.9410   42.4650 O   0  0  0  0  0  0  0  0  0  0  0  0
   37.7090   26.4150   40.9960 N   0  0  0  0  0  0  0  0  0  0  0  0
   38.0420   27.6600   40.6140 C   0  0  0  0  0  0  0  0  0  0  0  0
   38.5860   28.0020   39.5420 O   0  0  0  0  0  0  0  0  0  0  0  0
   37.9350   25.6520   40.3100 H   0  0  0  0  0  0  0  0  0  0  0  0
   35.8290   30.3020   40.1750 C   0  0  0  0  0  0  0  0  0  0  0  0
   35.8820   29.2190   40.0230 H   0  0  0  0  0  0  0  0  0  0  0  0
   35.0170   30.6330   40.8640 H   0  0  0  0  0  0  0  0  0  0  0  0
   35.5780   30.7800   39.1830 H   0  0  0  0  0  0  0  0  0  0  0  0
  1  2  1  0  0  0  0
  2  9  1  0  0  0  0
  2  3  2  0  0  0  0
  3  7  1  0  0  0  0
  4  3  1  0  0  0  0
  5  4  2  0  0  0  0
  6  1  2  0  0  0  0
  6  5  1  0  0  0  0
  8  5  1  0  0  0  0
  9 10  1  0  0  0  0
 10 11  2  0  0  0  0
 11 12  1  0  0  0  0
 13 14  2  0  0  0  0
 13 11  1  0  0  0  0
 15 13  1  0  0  0  0
 16 15  1  0  0  0  0
 16  9  1  0  0  0  0
 17 16  2  0  0  0  0
 18 15  1  0  0  0  0
 19  1  1  0  0  0  0
 19 21  1  0  0  0  0
 20 19  1  0  0  0  0
 22 19  1  0  0  0  0
M  END
>  <minimizedAffinity>
-4.21971655

$$$$

 OpenBabel03242514453D

 22 23  0  0  0  0  0  0  0  0999 V2000
   38.5560   25.0470   42.1910 C   0  0  0  0  0  0  0  0  0  0  0  0
   37.9430   26.1760   41.6550 C   0  0  0  0  0  0  0  0  0  0  0  0
   36.9640   26.0220   40.6550 C   0  0  0  0  0  0  0  0  0  0  0  0
   36.6710   24.7450   40.2650 N   0  0  0  0  0  0  0  0  0  0  0  0
   37.2860   23.6680   40.8060 C   0  0  0  0  0  0  0  0  0  0  0  0
   38.2310   23.8300   41.7720 N   0  0  0  0  0  0  0  0  0  0  0  0
   36.4790   26.8880   40.2280 H   0  0  0  0  0  0  0  0  0  0  0  0
   37.0480   22.6610   40.4920 H   0  0  0  0  0  0  0  0  0  0  0  0
   38.2910   27.4840   42.1020 N   0  0  0  0  0  0  0  0  0  0  0  0
   39.3280   27.9980   41.3830 C   0  0  0  0  0  3  0  0  0  0  0  0
   39.8480   29.2550   41.6280 C   0  0  0  0  0  0  0  0  0  0  0  0
   40.6550   29.6850   41.0840 H   0  0  0  0  0  0  0  0  0  0  0  0
   39.2560   29.9830   42.6590 C   0  0  0  0  0  0  0  0  0  0  0  0
   39.6680   31.1450   42.9550 O   0  0  0  0  0  0  0  0  0  0  0  0
   38.2380   29.4440   43.3460 N   0  0  0  0  0  0  0  0  0  0  0  0
   37.7470   28.2180   43.0910 C   0  0  0  0  0  0  0  0  0  0  0  0
   36.8060   27.6440   43.6780 O   0  0  0  0  0  0  0  0  0  0  0  0
   37.7720   29.9670   44.1290 H   0  0  0  0  0  0  0  0  0  0  0  0
   39.5890   25.2470   43.2480 C   0  0  0  0  0  0  0  0  0  0  0  0
   40.0370   26.2470   43.2480 H   0  0  0  0  0  0  0  0  0  0  0  0
   39.1530   24.9360   44.2270 H   0  0  0  0  0  0  0  0  0  0  0  0
   40.4110   24.4980   43.0490 H   0  0  0  0  0  0  0  0  0  0  0  0
  1 19  1  0  0  0  0
  2  9  1  0  0  0  0
  2  1  2  0  0  0  0
  3  2  1  0  0  0  0
  4  3  2  0  0  0  0
  4  5  1  0  0  0  0
  5  6  2  0  0  0  0
  6  1  1  0  0  0  0
  7  3  1  0  0  0  0
  8  5  1  0  0  0  0
  9 16  1  0  0  0  0
 10 11  2  0  0  0  0
 10  9  1  0  0  0  0
 11 13  1  0  0  0  0
 12 11  1  0  0  0  0
 13 14  2  0  0  0  0
 13 15  1  0  0  0  0
 15 18  1  0  0  0  0
 16 15  1  0  0  0  0
 16 17  2  0  0  0  0
 19 20  1  0  0  0  0
 19 21  1  0  0  0  0
 22 19  1  0  0  0  0
M  END
>  <minimizedAffinity>
-4.17533588

$$$$
