
 OpenBabel03252505533D

 34 36  0  0  0  0  0  0  0  0999 V2000
   46.8150   30.3690   47.7250 C   0  0  0  0  0  0  0  0  0  0  0  0
   47.1470   29.3570   46.8510 C   0  0  0  0  0  0  0  0  0  0  0  0
   48.3020   28.6460   47.0510 C   0  0  0  0  0  0  0  0  0  0  0  0
   49.1280   28.9060   48.0780 N   0  0  0  0  0  0  0  0  0  0  0  0
   48.7930   29.8970   48.9230 C   0  0  0  0  0  0  0  0  0  0  0  0
   47.6580   30.6310   48.7690 N   0  0  0  0  0  0  0  0  0  0  0  0
   46.4220   29.2290   46.0670 H   0  0  0  0  0  0  0  0  0  0  0  0
   48.4660   27.8770   46.3080 H   0  0  0  0  0  0  0  0  0  0  0  0
   49.7020   30.1500   50.0150 N   0  0  0  0  0  0  0  0  0  0  0  0
   50.2360   29.3090   50.8860 C   0  0  0  0  0  3  0  0  0  0  0  0
   51.0880   29.7960   51.8500 C   0  0  0  0  0  0  0  0  0  0  0  0
   51.5020   29.0770   52.5420 H   0  0  0  0  0  0  0  0  0  0  0  0
   51.3760   31.1390   51.9010 C   0  0  0  0  0  0  0  0  0  0  0  0
   52.1590   31.5710   52.7910 O   0  0  0  0  0  0  0  0  0  0  0  0
   50.8200   31.9760   51.0030 N   0  0  0  0  0  0  0  0  0  0  0  0
   49.9880   31.4830   50.0640 C   0  0  0  0  0  0  0  0  0  0  0  0
   49.5490   32.3880   49.2980 O   0  0  0  0  0  0  0  0  0  0  0  0
   51.0860   32.9820   51.1030 H   0  0  0  0  0  0  0  0  0  0  0  0
   45.6630   31.2630   47.7380 C   0  0  0  0  0  0  0  0  0  0  0  0
   45.0130   31.1430   48.6410 H   0  0  0  0  0  0  0  0  0  0  0  0
   44.9970   31.0400   46.8710 H   0  0  0  0  0  0  0  0  0  0  0  0
   46.1330   32.5790   47.5730 O   0  0  0  0  0  0  0  0  0  0  0  0
   44.9760   34.8410   45.0830 C   0  0  0  0  0  0  0  0  0  0  0  0
   45.8040   34.5910   43.9930 C   0  0  0  0  0  0  0  0  0  0  0  0
   46.7980   33.6010   44.1370 C   0  0  0  0  0  0  0  0  0  0  0  0
   46.8810   32.9580   45.3240 N   0  0  0  0  0  0  0  0  0  0  0  0
   46.0540   33.2360   46.3500 C   0  0  0  0  0  0  0  0  0  0  0  0
   45.1130   34.1640   46.2360 N   0  0  0  0  0  0  0  0  0  0  0  0
   44.1940   35.5950   45.0240 H   0  0  0  0  0  0  0  0  0  0  0  0
   47.4280   33.4190   43.2920 H   0  0  0  0  0  0  0  0  0  0  0  0
   45.5940   35.3850   42.7400 C   0  0  0  0  0  0  0  0  0  0  0  0
   45.2290   36.6370   43.1660 F   0  0  0  0  0  0  0  0  0  0  0  0
   44.5370   34.7770   42.0740 F   0  0  0  0  0  0  0  0  0  0  0  0
   46.7530   35.3780   42.0090 F   0  0  0  0  0  0  0  0  0  0  0  0
  1 19  1  0  0  0  0
  1  6  1  0  0  0  0
  2  3  1  0  0  0  0
  2  1  2  0  0  0  0
  3  4  2  0  0  0  0
  4  5  1  0  0  0  0
  5  9  1  0  0  0  0
  6  5  2  0  0  0  0
  7  2  1  0  0  0  0
  8  3  1  0  0  0  0
  9 16  1  0  0  0  0
  9 10  1  0  0  0  0
 10 11  2  0  0  0  0
 11 13  1  0  0  0  0
 11 12  1  0  0  0  0
 13 14  2  0  0  0  0
 15 18  1  0  0  0  0
 15 13  1  0  0  0  0
 16 15  1  0  0  0  0
 17 16  2  0  0  0  0
 19 20  1  0  0  0  0
 21 19  1  0  0  0  0
 22 19  1  0  0  0  0
 23 28  1  0  0  0  0
 24 25  1  0  0  0  0
 24 23  2  0  0  0  0
 25 26  2  0  0  0  0
 26 27  1  0  0  0  0
 27 22  1  0  0  0  0
 28 27  2  0  0  0  0
 29 23  1  0  0  0  0
 30 25  1  0  0  0  0
 31 32  1  0  0  0  0
 31 24  1  0  0  0  0
 33 31  1  0  0  0  0
 34 31  1  0  0  0  0
M  END
>  <minimizedAffinity>
-6.20452452

>  <minimizedRMSD>
1.2468338

$$$$
