
     RDKit          3D

 27 28  0  0  0  0  0  0  0  0999 V2000
   47.0994   34.3867   43.0899 C   0  0  0  0  0  0  0  0  0  0  0  0
   45.7773   34.6002   43.5042 C   0  0  0  0  0  0  0  0  0  0  0  0
   45.2562   33.7631   44.5050 C   0  0  0  0  0  0  0  0  0  0  0  0
   46.0538   32.7960   45.0171 N   0  0  0  0  0  0  0  0  0  0  0  0
   47.3344   32.6212   44.5868 C   0  0  0  0  0  0  0  0  0  0  0  0
   47.8451   33.4106   43.6341 N   0  0  0  0  0  0  0  0  0  0  0  0
   44.9886   35.6923   42.8743 C   0  0  0  0  0  0  0  0  0  0  0  0
   45.6164   36.9054   43.0650 F   0  0  0  0  0  0  0  0  0  0  0  0
   44.9464   35.4608   41.5050 F   0  0  0  0  0  0  0  0  0  0  0  0
   43.7124   35.8084   43.3454 F   0  0  0  0  0  0  0  0  0  0  0  0
   47.5842   35.1976   42.1297 O   0  0  0  0  0  0  0  0  0  0  0  0
   48.8761   35.1835   41.5844 C   0  0  0  0  0  0  0  0  0  0  0  0
   49.7632   35.5008   42.6081 F   0  0  0  0  0  0  0  0  0  0  0  0
   49.1245   33.9631   41.0032 F   0  0  0  0  0  0  0  0  0  0  0  0
   49.0108   36.2285   40.6767 F   0  0  0  0  0  0  0  0  0  0  0  0
   44.2492   33.9148   44.8305 H   0  0  0  0  0  0  0  0  0  0  0  0
   48.1262   31.5871   45.1625 N   0  0  0  0  0  0  0  0  0  0  0  0
   47.7581   31.0169   46.3238 C   0  0  0  0  0  0  0  0  0  0  0  0
   48.4924   30.0028   46.9328 C   0  0  0  0  0  0  0  0  0  0  0  0
   48.1801   29.5550   47.8693 H   0  0  0  0  0  0  0  0  0  0  0  0
   49.6297   29.6316   46.2446 C   0  0  0  0  0  0  0  0  0  0  0  0
   50.3345   28.7064   46.7635 O   0  0  0  0  0  0  0  0  0  0  0  0
   50.0147   30.1887   45.0833 N   0  0  0  0  0  0  0  0  0  0  0  0
   49.2379   31.1781   44.5527 C   0  0  0  0  0  0  0  0  0  0  0  0
   49.5802   31.7129   43.4664 O   0  0  0  0  0  0  0  0  0  0  0  0
   46.8352   31.3769   46.8023 H   0  0  0  0  0  0  0  0  0  0  0  0
   50.8843   29.8591   44.6195 H   0  0  0  0  0  0  0  0  0  0  0  0
  1  2  2  0
  1  6  1  0
  2  3  1  0
  3  4  2  0
  5  4  1  0
  6  5  2  0
  7  8  1  0
  7 10  1  0
  7  2  1  0
  9  7  1  0
 11  1  1  0
 12 11  1  0
 12 13  1  0
 14 12  1  0
 15 12  1  0
  3 16  1  0
 17 18  1  0
 18 19  2  0
 19 20  1  0
 19 21  1  0
 21 22  2  0
 21 23  1  0
 23 24  1  0
 24 25  2  0
 24 17  1  0
 18 26  1  0
 23 27  1  0
  5 17  1  0
M  ISO  2  16  14  20  16
M  END
>  <DihAtoms>  (1) 
3,4,16,17

>  <DihDeg>  (1) 
-1.6028368806352158

$$$$
