
 OpenBabel03252509043D

 49 51  0  0  1  0  0  0  0  0999 V2000
   47.0700   34.3280   43.2450 N   0  0  0  0  0  0  0  0  0  0  0  0
   46.7300   34.9090   42.0030 C   0  0  0  0  0  0  0  0  0  0  0  0
   45.2900   34.6680   41.5830 C   0  0  0  0  0  0  0  0  0  0  0  0
   44.3100   34.6420   42.7300 C   0  0  0  0  0  0  0  0  0  0  0  0
   44.9970   34.9720   44.0430 C   0  0  0  0  0  0  0  0  0  0  0  0
   46.1310   33.8700   44.1330 C   0  0  2  0  0  0  0  0  0  0  0  0
   46.8600   36.0140   42.1010 H   0  0  0  0  0  0  0  0  0  0  0  0
   47.3460   34.6120   41.1470 H   0  0  0  0  0  0  0  0  0  0  0  0
   45.2020   33.7580   40.9430 H   0  0  0  0  0  0  0  0  0  0  0  0
   44.9860   35.5060   40.9180 H   0  0  0  0  0  0  0  0  0  0  0  0
   43.9410   33.5960   42.8240 H   0  0  0  0  0  0  0  0  0  0  0  0
   43.4180   35.2670   42.5610 H   0  0  0  0  0  0  0  0  0  0  0  0
   44.2930   34.8290   44.8700 H   0  0  0  0  0  0  0  0  0  0  0  0
   45.4690   35.9540   44.0070 H   0  0  0  0  0  0  0  0  0  0  0  0
   45.6580   32.8990   43.8820 H   0  0  0  0  0  0  0  0  0  0  0  0
   48.3990   33.7780   43.2930 C   0  0  0  0  0  0  0  0  0  0  0  0
   48.7500   33.9000   44.3380 H   0  0  0  0  0  0  0  0  0  0  0  0
   49.0260   34.3940   42.6150 H   0  0  0  0  0  0  0  0  0  0  0  0
   48.3210   32.3520   42.8810 C   0  0  0  0  0  0  0  0  0  0  0  0
   47.3170   32.0890   42.4620 H   0  0  0  0  0  0  0  0  0  0  0  0
   48.5130   31.6720   43.7170 H   0  0  0  0  0  0  0  0  0  0  0  0
   51.5600   31.8810   41.0380 C   0  0  0  0  0  0  0  0  0  0  0  0
   50.6270   32.1140   42.0660 C   0  0  0  0  0  0  0  0  0  0  0  0
   49.2860   32.1030   41.7820 C   0  0  0  0  0  0  0  0  0  0  0  0
   48.9270   31.8640   40.5160 N   0  0  0  0  0  0  0  0  0  0  0  0
   49.8050   31.6410   39.5320 C   0  0  0  0  0  0  0  0  0  0  0  0
   51.1340   31.6460   39.7770 N   0  0  0  0  0  0  0  0  0  0  0  0
   52.5950   31.9070   41.3450 H   0  0  0  0  0  0  0  0  0  0  0  0
   50.9400   32.3080   43.0890 H   0  0  0  0  0  0  0  0  0  0  0  0
   49.5290   31.4460   38.5030 H   0  0  0  0  0  0  0  0  0  0  0  0
   46.5100   33.9990   45.4560 O   0  0  0  0  0  0  0  0  0  0  0  0
   45.7550   31.4430   45.4710 O   0  0  0  0  0  0  0  0  0  0  0  0
   46.2310   32.6090   46.3500 P   0  0  2  0  0  0  0  0  0  0  0  0
   44.8600   32.9620   47.3290 O   0  0  0  0  0  0  0  0  0  0  0  0
   45.1370   33.3650   48.1750 H   0  0  0  0  0  0  0  0  0  0  0  0
   47.4880   32.1910   47.3570 O   0  0  0  0  0  0  0  0  0  0  0  0
   47.6710   30.8170   47.3000 C   0  0  0  0  0  0  0  0  0  0  0  0
   46.7370   30.2740   47.6070 H   0  0  0  0  0  0  0  0  0  0  0  0
   47.9700   30.4880   46.2940 H   0  0  0  0  0  0  0  0  0  0  0  0
   48.6960   30.4730   48.2680 N   0  0  0  0  0  0  0  0  0  0  0  0
   48.7710   30.8910   49.5450 C   0  0  0  0  0  3  0  0  0  0  0  0
   49.8130   30.4800   50.3590 C   0  0  0  0  0  0  0  0  0  0  0  0
   49.8480   30.8310   51.3790 H   0  0  0  0  0  0  0  0  0  0  0  0
   50.8010   29.6310   49.8810 C   0  0  0  0  0  0  0  0  0  0  0  0
   51.7500   29.2530   50.6100 O   0  0  0  0  0  0  0  0  0  0  0  0
   50.6870   29.2390   48.6030 N   0  0  0  0  0  0  0  0  0  0  0  0
   49.6710   29.6430   47.8170 C   0  0  0  0  0  0  0  0  0  0  0  0
   49.6960   29.1980   46.6490 O   0  0  0  0  0  0  0  0  0  0  0  0
   51.4490   28.6000   48.2750 H   0  0  0  0  0  0  0  0  0  0  0  0
  1 16  1  0  0  0  0
  1  6  1  0  0  0  0
  2  7  1  0  0  0  0
  2  1  1  0  0  0  0
  3  2  1  0  0  0  0
  3  4  1  0  0  0  0
  4 11  1  0  0  0  0
  4  5  1  0  0  0  0
  5  6  1  0  0  0  0
  5 13  1  0  0  0  0
  6 15  1  6  0  0  0
  6 31  1  0  0  0  0
  8  2  1  0  0  0  0
  9  3  1  0  0  0  0
 10  3  1  0  0  0  0
 12  4  1  0  0  0  0
 14  5  1  0  0  0  0
 16 17  1  0  0  0  0
 18 16  1  0  0  0  0
 19 16  1  0  0  0  0
 19 21  1  0  0  0  0
 20 19  1  0  0  0  0
 22 28  1  0  0  0  0
 22 23  1  0  0  0  0
 23 29  1  0  0  0  0
 24 23  2  0  0  0  0
 24 19  1  0  0  0  0
 25 24  1  0  0  0  0
 26 27  1  0  0  0  0
 26 25  2  0  0  0  0
 27 22  2  0  0  0  0
 30 26  1  0  0  0  0
 31 33  1  0  0  0  0
 33 32  2  6  0  0  0
 33 34  1  0  0  0  0
 33 36  1  0  0  0  0
 34 35  1  0  0  0  0
 37 36  1  0  0  0  0
 37 38  1  0  0  0  0
 37 40  1  0  0  0  0
 39 37  1  0  0  0  0
 40 41  1  0  0  0  0
 41 42  2  0  0  0  0
 42 43  1  0  0  0  0
 44 42  1  0  0  0  0
 44 45  2  0  0  0  0
 46 44  1  0  0  0  0
 47 40  1  0  0  0  0
 47 46  1  0  0  0  0
 48 47  2  0  0  0  0
 49 46  1  0  0  0  0
M  END
>  <minimizedAffinity>
-4.96975088

>  <minimizedRMSD>
2.94148612

$$$$
