
     RDKit          3D

 49 52  0  0  0  0  0  0  0  0999 V2000
   45.6759   32.9373   46.7364 C   0  0  0  0  0  0  0  0  0  0  0  0
   46.4021   32.1618   47.7883 C   0  0  0  0  0  0  0  0  0  0  0  0
   45.9353   31.8355   49.0342 C   0  0  0  0  0  0  0  0  0  0  0  0
   46.9063   31.1482   49.6259 N   0  0  0  0  0  0  0  0  0  0  0  0
   47.9650   31.0165   48.8317 C   0  0  0  0  0  0  0  0  0  0  0  0
   47.6414   31.6564   47.6768 N   0  0  0  0  0  0  0  0  0  0  0  0
   49.2202   30.3792   49.0111 N   0  0  0  0  0  0  0  0  0  0  0  0
   50.3189   31.1446   49.6011 C   0  0  0  0  0  0  0  0  0  0  0  0
   50.4193   30.6371   51.0363 C   0  0  0  0  0  0  0  0  0  0  0  0
   50.4214   29.1258   51.0527 C   0  0  0  0  0  0  0  0  0  0  0  0
   50.7497   28.6083   49.6604 C   0  0  0  0  0  0  0  0  0  0  0  0
   49.6564   29.0342   48.7060 C   0  0  0  0  0  0  0  0  0  0  0  0
   46.1368   33.8464   44.4997 C   0  0  0  0  0  0  0  0  0  0  0  0
   46.5389   33.1799   45.5716 C   0  0  0  0  0  0  0  0  0  0  0  0
   47.0987   34.0197   43.4027 C   0  0  0  0  0  0  0  0  0  0  0  0
   46.8900   34.9722   42.3837 C   0  0  0  0  0  0  0  0  0  0  0  0
   47.8497   35.0651   41.3908 C   0  0  0  0  0  0  0  0  0  0  0  0
   48.9218   34.2662   41.4276 N   0  0  0  0  0  0  0  0  0  0  0  0
   49.1078   33.3522   42.4183 C   0  0  0  0  0  0  0  0  0  0  0  0
   48.2034   33.2483   43.3747 N   0  0  0  0  0  0  0  0  0  0  0  0
   45.3345   33.8780   47.2191 H   0  0  0  0  0  0  0  0  0  0  0  0
   44.7696   32.3570   46.4709 H   0  0  0  0  0  0  0  0  0  0  0  0
   44.9580   32.0866   49.4658 H   0  0  0  0  0  0  0  0  0  0  0  0
   46.8617   30.7507   50.5988 H   0  0  0  0  0  0  0  0  0  0  0  0
   50.0911   32.2230   49.5988 H   0  0  0  0  0  0  0  0  0  0  0  0
   51.2698   31.0056   49.0671 H   0  0  0  0  0  0  0  0  0  0  0  0
   49.5593   31.0496   51.5932 H   0  0  0  0  0  0  0  0  0  0  0  0
   51.3784   31.0057   51.4508 H   0  0  0  0  0  0  0  0  0  0  0  0
   51.0680   28.6978   51.8160 H   0  0  0  0  0  0  0  0  0  0  0  0
   49.3768   28.8014   51.2427 H   0  0  0  0  0  0  0  0  0  0  0  0
   50.6866   27.4908   49.7361 H   0  0  0  0  0  0  0  0  0  0  0  0
   51.7473   28.9282   49.3124 H   0  0  0  0  0  0  0  0  0  0  0  0
   48.8285   28.3185   48.6419 H   0  0  0  0  0  0  0  0  0  0  0  0
   50.1100   29.0912   47.6735 H   0  0  0  0  0  0  0  0  0  0  0  0
   45.1350   34.2455   44.4416 H   0  0  0  0  0  0  0  0  0  0  0  0
   47.5686   32.7889   45.5916 H   0  0  0  0  0  0  0  0  0  0  0  0
   45.9941   35.5481   42.4693 H   0  0  0  0  0  0  0  0  0  0  0  0
   47.6538   35.8002   40.6362 H   0  0  0  0  0  0  0  0  0  0  0  0
   50.2897   32.5548   42.3531 N   0  0  0  0  0  0  0  0  0  0  0  0
   51.1832   32.5076   43.3561 C   0  0  0  0  0  0  0  0  0  0  0  0
   52.3415   31.7347   43.3086 C   0  0  0  0  0  0  0  0  0  0  0  0
   53.0554   31.7019   44.1192 H   0  0  0  0  0  0  0  0  0  0  0  0
   52.4978   31.0175   42.1412 C   0  0  0  0  0  0  0  0  0  0  0  0
   53.5352   30.2842   42.0208 O   0  0  0  0  0  0  0  0  0  0  0  0
   51.6444   31.0220   41.1063 N   0  0  0  0  0  0  0  0  0  0  0  0
   50.5641   31.8074   41.2731 C   0  0  0  0  0  0  0  0  0  0  0  0
   49.7229   31.8463   40.3181 O   0  0  0  0  0  0  0  0  0  0  0  0
   51.0046   33.0965   44.2532 H   0  0  0  0  0  0  0  0  0  0  0  0
   51.7985   30.4643   40.2384 H   0  0  0  0  0  0  0  0  0  0  0  0
  1  2  1  0
  2  3  2  0
  3  4  1  0
  5  7  1  0
  5  4  1  0
  6  2  1  0
  6  5  2  0
  7  8  1  0
  8  9  1  0
  9 10  1  0
 11 10  1  0
 12  7  1  0
 12 11  1  0
 13 14  2  0
 14  1  1  0
 15 13  1  0
 16 15  2  0
 17 18  2  0
 17 16  1  0
 18 19  1  0
 19 20  2  0
 20 15  1  0
  1 21  1  0
  1 22  1  0
  3 23  1  0
  4 24  1  0
  8 25  1  0
  8 26  1  0
  9 27  1  0
  9 28  1  0
 10 29  1  0
 10 30  1  0
 11 31  1  0
 11 32  1  0
 12 33  1  0
 12 34  1  0
 13 35  1  0
 14 36  1  0
 16 37  1  0
 17 38  1  0
 39 40  1  0
 40 41  2  0
 41 42  1  0
 41 43  1  0
 43 44  2  0
 43 45  1  0
 45 46  1  0
 46 47  2  0
 46 39  1  0
 40 48  1  0
 45 49  1  0
 19 39  1  0
M  ISO  8  21   8  22   8  23  14  24   9  25  13  26  13  27  13  28  13
M  ISO  8  29  13  30  13  31  13  32  13  33  13  34  13  37  14  38  14
M  ISO  1  42  16
M  END
>  <DihAtoms>  (1) 
17,18,38,39

>  <DihDeg>  (1) 
-161.6008924173483

$$$$
