
 OpenBabel03252504103D

 26 27  0  0  0  0  0  0  0  0999 V2000
   47.0730   34.2930   43.0560 C   0  0  0  0  0  0  0  0  0  0  0  0
   45.7320   34.4950   43.4110 C   0  0  0  0  0  0  0  0  0  0  0  0
   45.1060   33.5210   44.2070 C   0  0  0  0  0  0  0  0  0  0  0  0
   45.8270   32.4390   44.5880 N   0  0  0  0  0  0  0  0  0  0  0  0
   47.1280   32.2790   44.2210 C   0  0  0  0  0  0  0  0  0  0  0  0
   47.7390   33.2000   43.4630 N   0  0  0  0  0  0  0  0  0  0  0  0
   44.0840   33.6630   44.4860 H   0  0  0  0  0  0  0  0  0  0  0  0
   47.8350   31.1210   44.6520 N   0  0  0  0  0  0  0  0  0  0  0  0
   48.5780   30.4160   43.7800 C   0  0  0  0  0  3  0  0  0  0  0  0
   49.2900   29.2760   44.1440 C   0  0  0  0  0  0  0  0  0  0  0  0
   49.8830   28.7200   43.4270 H   0  0  0  0  0  0  0  0  0  0  0  0
   49.1690   28.9310   45.4760 C   0  0  0  0  0  0  0  0  0  0  0  0
   49.8030   27.8930   45.8560 O   0  0  0  0  0  0  0  0  0  0  0  0
   48.4320   29.6220   46.3620 N   0  0  0  0  0  0  0  0  0  0  0  0
   47.7640   30.7290   45.9230 C   0  0  0  0  0  0  0  0  0  0  0  0
   47.0690   31.3900   46.7360 O   0  0  0  0  0  0  0  0  0  0  0  0
   48.3870   29.3040   47.3500 H   0  0  0  0  0  0  0  0  0  0  0  0
   45.0360   35.7200   42.9380 C   0  0  0  0  0  0  0  0  0  0  0  0
   45.8450   36.8240   43.1020 F   0  0  0  0  0  0  0  0  0  0  0  0
   44.7960   35.5840   41.5770 F   0  0  0  0  0  0  0  0  0  0  0  0
   43.8540   35.9770   43.5730 F   0  0  0  0  0  0  0  0  0  0  0  0
   47.6590   35.2370   42.2940 O   0  0  0  0  0  0  0  0  0  0  0  0
   48.9690   35.2260   41.7930 C   0  0  0  0  0  0  0  0  0  0  0  0
   49.8310   35.2920   42.8840 F   0  0  0  0  0  0  0  0  0  0  0  0
   49.1610   34.1120   41.0100 F   0  0  0  0  0  0  0  0  0  0  0  0
   49.2110   36.4010   41.0930 F   0  0  0  0  0  0  0  0  0  0  0  0
  1  2  2  0  0  0  0
  1  6  1  0  0  0  0
  2  3  1  0  0  0  0
  3  7  1  0  0  0  0
  3  4  2  0  0  0  0
  5  4  1  0  0  0  0
  5  8  1  0  0  0  0
  6  5  2  0  0  0  0
  8 15  1  0  0  0  0
  9 10  2  0  0  0  0
  9  8  1  0  0  0  0
 10 12  1  0  0  0  0
 11 10  1  0  0  0  0
 12 13  2  0  0  0  0
 12 14  1  0  0  0  0
 14 17  1  0  0  0  0
 15 14  1  0  0  0  0
 15 16  2  0  0  0  0
 18 19  1  0  0  0  0
 18  2  1  0  0  0  0
 18 21  1  0  0  0  0
 20 18  1  0  0  0  0
 22  1  1  0  0  0  0
 23 22  1  0  0  0  0
 23 24  1  0  0  0  0
 25 23  1  0  0  0  0
 26 23  1  0  0  0  0
M  END
>  <minimizedAffinity>
-5.3833766

>  <minimizedRMSD>
0.664043128

$$$$
