
 OpenBabel03252509033D

 49 51  0  0  1  0  0  0  0  0999 V2000
   47.1030   34.2720   43.2040 N   0  0  0  0  0  0  0  0  0  0  0  0
   46.5410   35.3770   42.5270 C   0  0  0  0  0  0  0  0  0  0  0  0
   45.0300   35.4780   42.6570 C   0  0  0  0  0  0  0  0  0  0  0  0
   44.4960   35.0240   43.9940 C   0  0  0  0  0  0  0  0  0  0  0  0
   45.6270   34.6670   44.9410 C   0  0  0  0  0  0  0  0  0  0  0  0
   46.4140   33.5480   44.1430 C   0  0  2  0  0  0  0  0  0  0  0  0
   46.9690   36.3040   42.9800 H   0  0  0  0  0  0  0  0  0  0  0  0
   46.7540   35.4440   41.4540 H   0  0  0  0  0  0  0  0  0  0  0  0
   44.5160   34.9650   41.8100 H   0  0  0  0  0  0  0  0  0  0  0  0
   44.7510   36.5480   42.5450 H   0  0  0  0  0  0  0  0  0  0  0  0
   43.9260   34.0850   43.8180 H   0  0  0  0  0  0  0  0  0  0  0  0
   43.7850   35.7330   44.4470 H   0  0  0  0  0  0  0  0  0  0  0  0
   45.2140   34.2290   45.8560 H   0  0  0  0  0  0  0  0  0  0  0  0
   46.2940   35.5140   45.0990 H   0  0  0  0  0  0  0  0  0  0  0  0
   45.6570   32.8390   43.7490 H   0  0  0  0  0  0  0  0  0  0  0  0
   48.1930   33.6460   42.5040 C   0  0  0  0  0  0  0  0  0  0  0  0
   48.8470   33.2000   43.2800 H   0  0  0  0  0  0  0  0  0  0  0  0
   48.7400   34.4530   41.9740 H   0  0  0  0  0  0  0  0  0  0  0  0
   47.6230   32.6260   41.5850 C   0  0  0  0  0  0  0  0  0  0  0  0
   46.5060   32.6790   41.5370 H   0  0  0  0  0  0  0  0  0  0  0  0
   47.8880   31.6070   41.8870 H   0  0  0  0  0  0  0  0  0  0  0  0
   49.3970   32.2270   38.2980 C   0  0  0  0  0  0  0  0  0  0  0  0
   48.9400   31.9940   39.6090 C   0  0  0  0  0  0  0  0  0  0  0  0
   48.0920   32.8920   40.2020 C   0  0  0  0  0  0  0  0  0  0  0  0
   47.7340   33.9650   39.4890 N   0  0  0  0  0  0  0  0  0  0  0  0
   48.1620   34.1960   38.2430 C   0  0  0  0  0  0  0  0  0  0  0  0
   49.0000   33.3310   37.6280 N   0  0  0  0  0  0  0  0  0  0  0  0
   50.0620   31.4720   37.9040 H   0  0  0  0  0  0  0  0  0  0  0  0
   49.2440   31.1150   40.1730 H   0  0  0  0  0  0  0  0  0  0  0  0
   47.8810   35.0590   37.6530 H   0  0  0  0  0  0  0  0  0  0  0  0
   47.2160   33.0340   45.1440 O   0  0  0  0  0  0  0  0  0  0  0  0
   46.7820   30.5590   44.2540 O   0  0  0  0  0  0  0  0  0  0  0  0
   46.8550   31.4390   45.5100 P   0  0  2  0  0  0  0  0  0  0  0  0
   45.2330   31.4570   46.0860 O   0  0  0  0  0  0  0  0  0  0  0  0
   45.2120   31.6090   47.0500 H   0  0  0  0  0  0  0  0  0  0  0  0
   47.8160   30.7860   46.7030 O   0  0  0  0  0  0  0  0  0  0  0  0
   48.4490   29.6590   46.2030 C   0  0  0  0  0  0  0  0  0  0  0  0
   47.7020   28.9220   45.8040 H   0  0  0  0  0  0  0  0  0  0  0  0
   49.1680   29.9140   45.4100 H   0  0  0  0  0  0  0  0  0  0  0  0
   49.1280   29.0130   47.3110 N   0  0  0  0  0  0  0  0  0  0  0  0
   50.2990   29.3780   47.8600 C   0  0  0  0  0  3  0  0  0  0  0  0
   50.8320   28.6640   48.9200 C   0  0  0  0  0  0  0  0  0  0  0  0
   51.7740   28.9790   49.3420 H   0  0  0  0  0  0  0  0  0  0  0  0
   50.1730   27.5590   49.4410 C   0  0  0  0  0  0  0  0  0  0  0  0
   50.6460   26.9050   50.4010 O   0  0  0  0  0  0  0  0  0  0  0  0
   49.0080   27.2300   48.8620 N   0  0  0  0  0  0  0  0  0  0  0  0
   48.4960   27.9280   47.8320 C   0  0  0  0  0  0  0  0  0  0  0  0
   47.4030   27.5070   47.3960 O   0  0  0  0  0  0  0  0  0  0  0  0
   48.5380   26.3920   49.2790 H   0  0  0  0  0  0  0  0  0  0  0  0
  1  6  1  0  0  0  0
  2  3  1  0  0  0  0
  2  7  1  0  0  0  0
  2  1  1  0  0  0  0
  3  4  1  0  0  0  0
  4 12  1  0  0  0  0
  4  5  1  0  0  0  0
  5 14  1  0  0  0  0
  5 13  1  0  0  0  0
  6 15  1  6  0  0  0
  6  5  1  0  0  0  0
  6 31  1  0  0  0  0
  8  2  1  0  0  0  0
  9  3  1  0  0  0  0
 10  3  1  0  0  0  0
 11  4  1  0  0  0  0
 16  1  1  0  0  0  0
 16 17  1  0  0  0  0
 18 16  1  0  0  0  0
 19 21  1  0  0  0  0
 19 16  1  0  0  0  0
 20 19  1  0  0  0  0
 22 23  1  0  0  0  0
 23 29  1  0  0  0  0
 23 24  2  0  0  0  0
 24 19  1  0  0  0  0
 25 24  1  0  0  0  0
 26 25  2  0  0  0  0
 27 26  1  0  0  0  0
 27 22  2  0  0  0  0
 28 22  1  0  0  0  0
 30 26  1  0  0  0  0
 31 33  1  0  0  0  0
 33 32  2  6  0  0  0
 33 34  1  0  0  0  0
 33 36  1  0  0  0  0
 34 35  1  0  0  0  0
 37 36  1  0  0  0  0
 37 40  1  0  0  0  0
 38 37  1  0  0  0  0
 39 37  1  0  0  0  0
 40 47  1  0  0  0  0
 40 41  1  0  0  0  0
 41 42  2  0  0  0  0
 42 43  1  0  0  0  0
 42 44  1  0  0  0  0
 44 45  2  0  0  0  0
 46 49  1  0  0  0  0
 46 44  1  0  0  0  0
 47 46  1  0  0  0  0
 48 47  2  0  0  0  0
M  END
>  <minimizedAffinity>
-4.40026617

>  <minimizedRMSD>
1.31086528

$$$$
