
     RDKit          3D

 37 39  0  0  0  0  0  0  0  0999 V2000
   43.9819   34.5732   41.2847 C   0  0  0  0  0  0  0  0  0  0  0  0
   42.8273   35.2721   40.8834 C   0  0  0  0  0  0  0  0  0  0  0  0
   42.2926   35.0285   39.6279 C   0  0  0  0  0  0  0  0  0  0  0  0
   42.9304   34.1082   38.8404 N   0  0  0  0  0  0  0  0  0  0  0  0
   44.0513   33.4542   39.2760 C   0  0  0  0  0  0  0  0  0  0  0  0
   44.5568   33.6893   40.4737 N   0  0  0  0  0  0  0  0  0  0  0  0
   44.5519   34.8526   42.6310 C   0  0  0  0  0  0  0  0  0  0  0  0
   46.0577   35.2819   42.5460 C   0  0  0  0  0  0  0  0  0  0  0  0
   44.9820   36.1354   43.0606 C   0  0  0  0  0  0  0  0  0  0  0  0
   41.0717   35.7380   39.1772 C   0  0  0  0  0  0  0  0  0  0  0  0
   39.9784   35.6509   40.1994 C   0  0  0  0  0  0  0  0  0  0  0  0
   39.0489   33.4068   40.7212 C   0  0  0  0  0  0  0  0  0  0  0  0
   39.7648   33.3021   41.7639 O   0  0  0  0  0  0  0  0  0  0  0  0
   39.0271   34.5829   39.9402 N   0  0  0  0  0  0  0  0  0  0  0  0
   42.3928   35.9805   41.5719 H   0  0  0  0  0  0  0  0  0  0  0  0
   44.4996   32.7388   38.5931 H   0  0  0  0  0  0  0  0  0  0  0  0
   44.3777   34.0115   43.3569 H   0  0  0  0  0  0  0  0  0  0  0  0
   46.4890   35.4104   41.5430 H   0  0  0  0  0  0  0  0  0  0  0  0
   46.7040   34.8108   43.3137 H   0  0  0  0  0  0  0  0  0  0  0  0
   44.7244   37.0063   42.3869 H   0  0  0  0  0  0  0  0  0  0  0  0
   44.9341   36.4633   44.1198 H   0  0  0  0  0  0  0  0  0  0  0  0
   41.2602   36.8085   38.9444 H   0  0  0  0  0  0  0  0  0  0  0  0
   40.7350   35.2386   38.2339 H   0  0  0  0  0  0  0  0  0  0  0  0
   40.4313   35.5555   41.2055 H   0  0  0  0  0  0  0  0  0  0  0  0
   39.3718   36.5949   40.2559 H   0  0  0  0  0  0  0  0  0  0  0  0
   38.3799   34.7595   39.1846 H   0  0  0  0  0  0  0  0  0  0  0  0
   38.6778   28.9084   40.2209 H   0  0  0  0  0  0  0  0  0  0  0  0
   38.1883   29.8252   40.1586 N   0  0  0  0  0  0  0  0  0  0  0  0
   38.8396   30.9632   40.4458 C   0  0  0  0  0  0  0  0  0  0  0  0
   38.2521   32.2320   40.3857 C   0  0  0  0  0  0  0  0  0  0  0  0
   36.9565   32.1492   40.0034 C   0  0  0  0  0  0  0  0  0  0  0  0
   36.3015   33.2047   39.9048 O   0  0  0  0  0  0  0  0  0  0  0  0
   36.2803   31.0431   39.7116 N   0  0  0  0  0  0  0  0  0  0  0  0
   36.8979   29.8521   39.7872 C   0  0  0  0  0  0  0  0  0  0  0  0
   36.3382   28.7762   39.5319 O   0  0  0  0  0  0  0  0  0  0  0  0
   39.8942   30.8395   40.7405 H   0  0  0  0  0  0  0  0  0  0  0  0
   35.2894   31.0444   39.4249 H   0  0  0  0  0  0  0  0  0  0  0  0
  1  7  1  0
  2  1  2  0
  3  2  1  0
  4  5  1  0
  4  3  2  0
  5  6  2  0
  6  1  1  0
  7  9  1  0
  8  7  1  0
  8  9  1  0
 10  3  1  0
 10 11  1  0
 12 13  2  0
 14 11  1  0
 14 12  1  0
  2 15  1  0
  5 16  1  0
  7 17  1  0
  8 18  1  0
  8 19  1  0
  9 20  1  0
  9 21  1  0
 10 22  1  0
 10 23  1  0
 11 24  1  0
 11 25  1  0
 14 26  1  0
 27 28  1  0
 28 29  1  0
 29 30  2  0
 30 31  1  0
 31 32  2  0
 31 33  1  0
 33 34  1  0
 34 35  2  0
 34 28  1  0
 29 36  1  0
 33 37  1  0
 12 30  1  0
M  ISO  8  15  14  16  14  17  13  18  13  19  13  20  13  21  13  22   8
M  ISO  4  23   8  24   8  25   8  27   9
M  END
>  <DihAtoms>  (1) 
12,11,29,28

>  <DihDeg>  (1) 
0.24536658283367183

$$$$
