
 OpenBabel03252504013D

 35 38  0  0  1  0  0  0  0  0999 V2000
   41.2050   33.0950   40.3170 C   0  0  0  0  0  0  0  0  0  0  0  0
   40.3320   34.1610   40.0750 C   0  0  0  0  0  0  0  0  0  0  0  0
   39.0050   33.9890   40.4200 C   0  0  0  0  0  0  0  0  0  0  0  0
   38.6110   32.8160   40.9690 N   0  0  0  0  0  0  0  0  0  0  0  0
   39.4730   31.8090   41.1900 C   0  0  0  0  0  0  0  0  0  0  0  0
   40.7810   31.9480   40.8630 N   0  0  0  0  0  0  0  0  0  0  0  0
   40.6570   35.0900   39.6380 H   0  0  0  0  0  0  0  0  0  0  0  0
   38.3240   34.8100   40.2350 H   0  0  0  0  0  0  0  0  0  0  0  0
   40.0370   29.7340   42.3580 C   0  0  0  0  0  0  0  0  0  0  0  0
   39.0590   30.5340   41.7850 C   0  0  0  0  0  0  0  0  0  0  0  0
   37.7310   30.1270   41.7830 C   0  0  0  0  0  0  0  0  0  0  0  0
   37.3910   28.9190   42.3550 C   0  0  0  0  0  0  0  0  0  0  0  0
   36.2430   28.2610   42.5140 N   0  0  0  0  0  0  0  0  0  0  0  0
   36.4590   27.0920   43.1570 C   0  0  0  0  0  0  0  0  0  0  0  0
   37.7920   26.9600   43.4390 C   0  0  0  0  0  0  0  0  0  0  0  0
   38.3790   28.1070   42.9360 C   0  0  0  0  0  0  0  0  0  0  0  0
   39.7050   28.5240   42.9320 C   0  0  0  0  0  0  0  0  0  0  0  0
   41.0430   30.0690   42.3450 H   0  0  0  0  0  0  0  0  0  0  0  0
   37.0010   30.7700   41.3320 H   0  0  0  0  0  0  0  0  0  0  0  0
   35.3170   28.6040   42.1870 H   0  0  0  0  0  0  0  0  0  0  0  0
   35.7520   26.3180   43.4470 H   0  0  0  0  0  0  0  0  0  0  0  0
   38.2900   26.1500   43.9400 H   0  0  0  0  0  0  0  0  0  0  0  0
   40.5090   27.9430   43.3640 H   0  0  0  0  0  0  0  0  0  0  0  0
   42.5840   33.3130   39.9430 C   0  0  1  0  0  3  0  0  0  0  0  0
   43.3530   34.1600   40.5310 O   0  0  0  0  0  1  0  0  0  0  0  0
   44.1390   29.4560   38.0340 H   0  0  0  0  0  0  0  0  0  0  0  0
   43.7960   30.4180   37.9220 N   0  0  0  0  0  0  0  0  0  0  0  0
   43.4420   31.1660   38.9850 C   0  0  0  0  0  3  0  0  0  0  0  0
   42.9860   32.4460   38.8140 C   0  0  0  0  0  0  0  0  0  0  0  0
   42.8760   33.0000   37.5480 C   0  0  0  0  0  0  0  0  0  0  0  0
   42.4720   34.1610   37.2750 O   0  0  0  0  0  0  0  0  0  0  0  0
   43.2530   32.1730   36.5520 N   0  0  0  0  0  0  0  0  0  0  0  0
   43.7070   30.9160   36.6550 C   0  0  0  0  0  0  0  0  0  0  0  0
   44.0240   30.2570   35.6330 O   0  0  0  0  0  0  0  0  0  0  0  0
   43.1870   32.5510   35.5720 H   0  0  0  0  0  0  0  0  0  0  0  0
  1  6  1  0  0  0  0
  2  1  2  0  0  0  0
  2  3  1  0  0  0  0
  3  4  2  0  0  0  0
  4  5  1  0  0  0  0
  5 10  1  0  0  0  0
  6  5  2  0  0  0  0
  7  2  1  0  0  0  0
  8  3  1  0  0  0  0
  9 17  1  0  0  0  0
 10  9  2  0  0  0  0
 11 10  1  0  0  0  0
 11 12  2  0  0  0  0
 12 13  1  0  0  0  0
 12 16  1  0  0  0  0
 13 14  1  0  0  0  0
 14 15  2  0  0  0  0
 14 21  1  0  0  0  0
 15 22  1  0  0  0  0
 16 15  1  0  0  0  0
 17 16  2  0  0  0  0
 17 23  1  0  0  0  0
 18  9  1  0  0  0  0
 19 11  1  0  0  0  0
 20 13  1  0  0  0  0
 24  1  1  0  0  0  0
 24 25  1  1  0  0  0
 27 26  1  0  0  0  0
 27 28  1  0  0  0  0
 29 28  2  0  0  0  0
 29 24  1  0  0  0  0
 30 29  1  0  0  0  0
 31 30  2  0  0  0  0
 32 33  1  0  0  0  0
 32 30  1  0  0  0  0
 33 27  1  0  0  0  0
 34 33  2  0  0  0  0
 35 32  1  0  0  0  0
M  END
>  <minimizedAffinity>
-6.18141079

$$$$

 OpenBabel03252504013D

 35 38  0  0  1  0  0  0  0  0999 V2000
   38.2360   26.4700   41.5180 C   0  0  0  0  0  0  0  0  0  0  0  0
   37.2960   26.0920   42.4830 C   0  0  0  0  0  0  0  0  0  0  0  0
   36.5120   27.0880   43.0340 C   0  0  0  0  0  0  0  0  0  0  0  0
   36.6830   28.3670   42.6230 N   0  0  0  0  0  0  0  0  0  0  0  0
   37.5950   28.7010   41.6940 C   0  0  0  0  0  0  0  0  0  0  0  0
   38.3780   27.7460   41.1360 N   0  0  0  0  0  0  0  0  0  0  0  0
   37.1690   25.0710   42.8010 H   0  0  0  0  0  0  0  0  0  0  0  0
   35.7830   26.8020   43.7810 H   0  0  0  0  0  0  0  0  0  0  0  0
   36.7940   30.6610   40.4670 C   0  0  0  0  0  0  0  0  0  0  0  0
   37.7890   30.0820   41.2410 C   0  0  0  0  0  0  0  0  0  0  0  0
   38.9300   30.8020   41.5710 C   0  0  0  0  0  0  0  0  0  0  0  0
   39.0680   32.0980   41.1210 C   0  0  0  0  0  0  0  0  0  0  0  0
   40.0100   33.0310   41.2590 N   0  0  0  0  0  0  0  0  0  0  0  0
   39.6500   34.1590   40.6080 C   0  0  0  0  0  0  0  0  0  0  0  0
   38.4290   33.9800   40.0160 C   0  0  0  0  0  0  0  0  0  0  0  0
   38.0610   32.6860   40.3370 C   0  0  0  0  0  0  0  0  0  0  0  0
   36.9240   31.9570   40.0130 C   0  0  0  0  0  0  0  0  0  0  0  0
   35.9340   30.0870   40.2300 H   0  0  0  0  0  0  0  0  0  0  0  0
   39.6790   30.3240   42.1710 H   0  0  0  0  0  0  0  0  0  0  0  0
   40.8940   32.9010   41.7920 H   0  0  0  0  0  0  0  0  0  0  0  0
   40.1780   35.1060   40.5150 H   0  0  0  0  0  0  0  0  0  0  0  0
   37.8660   34.6810   39.4270 H   0  0  0  0  0  0  0  0  0  0  0  0
   36.1160   32.3550   39.4130 H   0  0  0  0  0  0  0  0  0  0  0  0
   39.0370   25.4010   40.9660 C   0  0  2  0  0  3  0  0  0  0  0  0
   38.5750   24.5130   40.1590 O   0  0  0  0  0  1  0  0  0  0  0  0
   43.4080   26.7480   40.8200 H   0  0  0  0  0  0  0  0  0  0  0  0
   42.6670   26.2100   41.2860 N   0  0  0  0  0  0  0  0  0  0  0  0
   41.4080   26.1860   40.8080 C   0  0  0  0  0  3  0  0  0  0  0  0
   40.4350   25.4640   41.4460 C   0  0  0  0  0  0  0  0  0  0  0  0
   40.7210   24.7430   42.5960 C   0  0  0  0  0  0  0  0  0  0  0  0
   39.9080   24.0470   43.2600 O   0  0  0  0  0  0  0  0  0  0  0  0
   42.0050   24.8310   42.9930 N   0  0  0  0  0  0  0  0  0  0  0  0
   43.0010   25.5180   42.4140 C   0  0  0  0  0  0  0  0  0  0  0  0
   44.1610   25.5100   42.8990 O   0  0  0  0  0  0  0  0  0  0  0  0
   42.2700   24.2990   43.8620 H   0  0  0  0  0  0  0  0  0  0  0  0
  1  2  1  0  0  0  0
  2  7  1  0  0  0  0
  2  3  2  0  0  0  0
  3  8  1  0  0  0  0
  4  3  1  0  0  0  0
  5  4  2  0  0  0  0
  6  1  2  0  0  0  0
  6  5  1  0  0  0  0
  9 10  1  0  0  0  0
 10 11  2  0  0  0  0
 10  5  1  0  0  0  0
 11 19  1  0  0  0  0
 12 13  1  0  0  0  0
 12 11  1  0  0  0  0
 13 20  1  0  0  0  0
 14 13  1  0  0  0  0
 15 16  1  0  0  0  0
 15 14  2  0  0  0  0
 16 12  2  0  0  0  0
 17 16  1  0  0  0  0
 17  9  2  0  0  0  0
 18  9  1  0  0  0  0
 21 14  1  0  0  0  0
 22 15  1  0  0  0  0
 23 17  1  0  0  0  0
 24 25  1  1  0  0  0
 24 29  1  0  0  0  0
 24  1  1  0  0  0  0
 26 27  1  0  0  0  0
 27 33  1  0  0  0  0
 28 27  1  0  0  0  0
 28 29  2  0  0  0  0
 29 30  1  0  0  0  0
 30 32  1  0  0  0  0
 30 31  2  0  0  0  0
 32 35  1  0  0  0  0
 33 34  2  0  0  0  0
 33 32  1  0  0  0  0
M  END
>  <minimizedAffinity>
-6.17589378

$$$$

 OpenBabel03252504013D

 35 38  0  0  1  0  0  0  0  0999 V2000
   38.2630   31.8250   40.5010 C   0  0  0  0  0  0  0  0  0  0  0  0
   36.8810   31.9170   40.3030 C   0  0  0  0  0  0  0  0  0  0  0  0
   36.1080   30.8410   40.6960 C   0  0  0  0  0  0  0  0  0  0  0  0
   36.7090   29.7610   41.2480 N   0  0  0  0  0  0  0  0  0  0  0  0
   38.0400   29.7000   41.4270 C   0  0  0  0  0  0  0  0  0  0  0  0
   38.8250   30.7390   41.0510 N   0  0  0  0  0  0  0  0  0  0  0  0
   36.4140   32.7820   39.8630 H   0  0  0  0  0  0  0  0  0  0  0  0
   35.0380   30.9060   40.5450 H   0  0  0  0  0  0  0  0  0  0  0  0
   39.8840   28.7450   42.7200 C   0  0  0  0  0  0  0  0  0  0  0  0
   38.7030   28.5370   42.0240 C   0  0  0  0  0  0  0  0  0  0  0  0
   38.1740   27.2580   41.9050 C   0  0  0  0  0  0  0  0  0  0  0  0
   38.8350   26.1940   42.4840 C   0  0  0  0  0  0  0  0  0  0  0  0
   38.5990   24.8850   42.5520 N   0  0  0  0  0  0  0  0  0  0  0  0
   39.5750   24.2700   43.2560 C   0  0  0  0  0  0  0  0  0  0  0  0
   40.4940   25.1940   43.6740 C   0  0  0  0  0  0  0  0  0  0  0  0
   40.0310   26.4040   43.1900 C   0  0  0  0  0  0  0  0  0  0  0  0
   40.5510   27.6870   43.3030 C   0  0  0  0  0  0  0  0  0  0  0  0
   40.2650   29.7330   42.7950 H   0  0  0  0  0  0  0  0  0  0  0  0
   37.2600   27.1320   41.3600 H   0  0  0  0  0  0  0  0  0  0  0  0
   37.7790   24.4100   42.1230 H   0  0  0  0  0  0  0  0  0  0  0  0
   39.6950   23.2170   43.5030 H   0  0  0  0  0  0  0  0  0  0  0  0
   41.3860   25.0310   44.2510 H   0  0  0  0  0  0  0  0  0  0  0  0
   41.4670   27.9100   43.8340 H   0  0  0  0  0  0  0  0  0  0  0  0
   39.0380   32.9690   40.0770 C   0  0  1  0  0  3  0  0  0  0  0  0
   38.8420   34.1610   40.5180 O   0  0  0  0  0  1  0  0  0  0  0  0
   40.5340   31.6320   35.9650 H   0  0  0  0  0  0  0  0  0  0  0  0
   40.7440   31.9010   36.9340 N   0  0  0  0  0  0  0  0  0  0  0  0
   39.7670   32.2350   37.7980 C   0  0  0  0  0  3  0  0  0  0  0  0
   40.0690   32.5920   39.0860 C   0  0  0  0  0  0  0  0  0  0  0  0
   41.3830   32.6160   39.5290 C   0  0  0  0  0  0  0  0  0  0  0  0
   41.7730   32.9260   40.6860 O   0  0  0  0  0  0  0  0  0  0  0  0
   42.2850   32.2660   38.5920 N   0  0  0  0  0  0  0  0  0  0  0  0
   42.0540   31.9080   37.3200 C   0  0  0  0  0  0  0  0  0  0  0  0
   42.9990   31.6040   36.5510 O   0  0  0  0  0  0  0  0  0  0  0  0
   43.2960   32.2700   38.8830 H   0  0  0  0  0  0  0  0  0  0  0  0
  1  6  1  0  0  0  0
  2  1  2  0  0  0  0
  2  3  1  0  0  0  0
  3  4  2  0  0  0  0
  4  5  1  0  0  0  0
  5 10  1  0  0  0  0
  6  5  2  0  0  0  0
  7  2  1  0  0  0  0
  8  3  1  0  0  0  0
  9 18  1  0  0  0  0
  9 17  1  0  0  0  0
 10  9  2  0  0  0  0
 11 10  1  0  0  0  0
 11 12  2  0  0  0  0
 12 13  1  0  0  0  0
 12 16  1  0  0  0  0
 13 14  1  0  0  0  0
 14 21  1  0  0  0  0
 14 15  2  0  0  0  0
 15 22  1  0  0  0  0
 16 17  2  0  0  0  0
 16 15  1  0  0  0  0
 17 23  1  0  0  0  0
 19 11  1  0  0  0  0
 20 13  1  0  0  0  0
 24  1  1  0  0  0  0
 24 25  1  1  0  0  0
 26 27  1  0  0  0  0
 27 33  1  0  0  0  0
 27 28  1  0  0  0  0
 28 29  2  0  0  0  0
 29 30  1  0  0  0  0
 29 24  1  0  0  0  0
 30 31  2  0  0  0  0
 32 35  1  0  0  0  0
 32 30  1  0  0  0  0
 33 32  1  0  0  0  0
 34 33  2  0  0  0  0
M  END
>  <minimizedAffinity>
-6.16483402

$$$$

 OpenBabel03252504013D

 35 38  0  0  1  0  0  0  0  0999 V2000
   38.2080   30.5010   40.8350 C   0  0  0  0  0  0  0  0  0  0  0  0
   39.0580   30.6960   41.9280 C   0  0  0  0  0  0  0  0  0  0  0  0
   39.3650   29.5930   42.7020 C   0  0  0  0  0  0  0  0  0  0  0  0
   38.8400   28.3890   42.3740 N   0  0  0  0  0  0  0  0  0  0  0  0
   38.0260   28.2300   41.3170 C   0  0  0  0  0  0  0  0  0  0  0  0
   37.7070   29.2930   40.5390 N   0  0  0  0  0  0  0  0  0  0  0  0
   39.4690   31.6590   42.1790 H   0  0  0  0  0  0  0  0  0  0  0  0
   40.0220   29.7370   43.5500 H   0  0  0  0  0  0  0  0  0  0  0  0
   37.4740   25.9190   41.8990 C   0  0  0  0  0  0  0  0  0  0  0  0
   37.4520   26.9320   40.9510 C   0  0  0  0  0  0  0  0  0  0  0  0
   36.8970   26.7090   39.6970 C   0  0  0  0  0  0  0  0  0  0  0  0
   36.3690   25.4700   39.4000 C   0  0  0  0  0  0  0  0  0  0  0  0
   35.7810   24.9490   38.3240 N   0  0  0  0  0  0  0  0  0  0  0  0
   35.4370   23.6620   38.5560 C   0  0  0  0  0  0  0  0  0  0  0  0
   35.8050   23.3080   39.8260 C   0  0  0  0  0  0  0  0  0  0  0  0
   36.3900   24.4430   40.3580 C   0  0  0  0  0  0  0  0  0  0  0  0
   36.9470   24.6770   41.6090 C   0  0  0  0  0  0  0  0  0  0  0  0
   37.9040   26.1180   42.8480 H   0  0  0  0  0  0  0  0  0  0  0  0
   36.8970   27.5130   38.9890 H   0  0  0  0  0  0  0  0  0  0  0  0
   35.6140   25.4640   37.4350 H   0  0  0  0  0  0  0  0  0  0  0  0
   34.9450   22.9460   37.9000 H   0  0  0  0  0  0  0  0  0  0  0  0
   35.6740   22.3610   40.3160 H   0  0  0  0  0  0  0  0  0  0  0  0
   36.9920   23.9260   42.3870 H   0  0  0  0  0  0  0  0  0  0  0  0
   37.9100   31.6780   40.0500 C   0  0  1  0  0  3  0  0  0  0  0  0
   36.7880   32.3040   40.1100 O   0  0  0  0  0  1  0  0  0  0  0  0
   40.7880   31.1630   36.5310 H   0  0  0  0  0  0  0  0  0  0  0  0
   40.4820   31.7080   37.3460 N   0  0  0  0  0  0  0  0  0  0  0  0
   39.4390   31.3170   38.1020 C   0  0  0  0  0  3  0  0  0  0  0  0
   39.0470   32.0590   39.1850 C   0  0  0  0  0  0  0  0  0  0  0  0
   39.7120   33.2270   39.5270 C   0  0  0  0  0  0  0  0  0  0  0  0
   39.4390   33.9820   40.4960 O   0  0  0  0  0  0  0  0  0  0  0  0
   40.7390   33.5320   38.7100 N   0  0  0  0  0  0  0  0  0  0  0  0
   41.1710   32.8500   37.6400 C   0  0  0  0  0  0  0  0  0  0  0  0
   42.1500   33.2560   36.9640 O   0  0  0  0  0  0  0  0  0  0  0  0
   41.2740   34.4110   38.9310 H   0  0  0  0  0  0  0  0  0  0  0  0
  1  2  1  0  0  0  0
  2  7  1  0  0  0  0
  2  3  2  0  0  0  0
  3  8  1  0  0  0  0
  4  3  1  0  0  0  0
  5  4  2  0  0  0  0
  6  1  2  0  0  0  0
  6  5  1  0  0  0  0
  9 18  1  0  0  0  0
 10  5  1  0  0  0  0
 10  9  2  0  0  0  0
 11 10  1  0  0  0  0
 12 11  2  0  0  0  0
 12 16  1  0  0  0  0
 13 14  1  0  0  0  0
 13 12  1  0  0  0  0
 14 15  2  0  0  0  0
 15 22  1  0  0  0  0
 15 16  1  0  0  0  0
 16 17  2  0  0  0  0
 17  9  1  0  0  0  0
 17 23  1  0  0  0  0
 19 11  1  0  0  0  0
 20 13  1  0  0  0  0
 21 14  1  0  0  0  0
 24 25  1  1  0  0  0
 24  1  1  0  0  0  0
 26 27  1  0  0  0  0
 27 33  1  0  0  0  0
 27 28  1  0  0  0  0
 28 29  2  0  0  0  0
 29 30  1  0  0  0  0
 29 24  1  0  0  0  0
 30 31  2  0  0  0  0
 32 35  1  0  0  0  0
 32 30  1  0  0  0  0
 33 32  1  0  0  0  0
 34 33  2  0  0  0  0
M  END
>  <minimizedAffinity>
-6.03672504

$$$$

 OpenBabel03252504013D

 35 38  0  0  1  0  0  0  0  0999 V2000
   38.2720   29.9560   41.6960 C   0  0  0  0  0  0  0  0  0  0  0  0
   38.0210   29.0900   42.7650 C   0  0  0  0  0  0  0  0  0  0  0  0
   36.9710   28.2000   42.6320 C   0  0  0  0  0  0  0  0  0  0  0  0
   36.2440   28.2030   41.4910 N   0  0  0  0  0  0  0  0  0  0  0  0
   36.5080   29.0470   40.4790 C   0  0  0  0  0  0  0  0  0  0  0  0
   37.5310   29.9310   40.5800 N   0  0  0  0  0  0  0  0  0  0  0  0
   38.6070   29.0970   43.6690 H   0  0  0  0  0  0  0  0  0  0  0  0
   36.7710   27.5270   43.4560 H   0  0  0  0  0  0  0  0  0  0  0  0
   36.4130   29.1700   38.0370 C   0  0  0  0  0  0  0  0  0  0  0  0
   35.7270   29.0600   39.2380 C   0  0  0  0  0  0  0  0  0  0  0  0
   34.3420   28.9640   39.2490 C   0  0  0  0  0  0  0  0  0  0  0  0
   33.6510   28.9800   38.0550 C   0  0  0  0  0  0  0  0  0  0  0  0
   32.3610   28.9070   37.7320 N   0  0  0  0  0  0  0  0  0  0  0  0
   32.2110   28.9660   36.3900 C   0  0  0  0  0  0  0  0  0  0  0  0
   33.4370   29.0830   35.7940 C   0  0  0  0  0  0  0  0  0  0  0  0
   34.3440   29.0910   36.8380 C   0  0  0  0  0  0  0  0  0  0  0  0
   35.7300   29.1870   36.8390 C   0  0  0  0  0  0  0  0  0  0  0  0
   37.4720   29.2420   38.0590 H   0  0  0  0  0  0  0  0  0  0  0  0
   33.8440   28.8800   40.1950 H   0  0  0  0  0  0  0  0  0  0  0  0
   31.5850   28.8170   38.4190 H   0  0  0  0  0  0  0  0  0  0  0  0
   31.3030   28.9340   35.7910 H   0  0  0  0  0  0  0  0  0  0  0  0
   33.6630   29.1540   34.7450 H   0  0  0  0  0  0  0  0  0  0  0  0
   36.3170   29.2750   35.9340 H   0  0  0  0  0  0  0  0  0  0  0  0
   39.3770   30.8720   41.8730 C   0  0  1  0  0  3  0  0  0  0  0  0
   39.8450   31.2040   43.0240 O   0  0  0  0  0  1  0  0  0  0  0  0
   41.8210   30.6090   38.0140 H   0  0  0  0  0  0  0  0  0  0  0  0
   41.1790   31.1390   38.6160 N   0  0  0  0  0  0  0  0  0  0  0  0
   40.7430   30.6420   39.7900 C   0  0  0  0  0  3  0  0  0  0  0  0
   39.8880   31.3670   40.5770 C   0  0  0  0  0  0  0  0  0  0  0  0
   39.4510   32.6240   40.1860 C   0  0  0  0  0  0  0  0  0  0  0  0
   38.6690   33.3730   40.8280 O   0  0  0  0  0  0  0  0  0  0  0  0
   39.9430   33.0310   38.9990 N   0  0  0  0  0  0  0  0  0  0  0  0
   40.7810   32.3720   38.1860 C   0  0  0  0  0  0  0  0  0  0  0  0
   41.1600   32.8770   37.0990 O   0  0  0  0  0  0  0  0  0  0  0  0
   39.6390   33.9800   38.6620 H   0  0  0  0  0  0  0  0  0  0  0  0
  1 24  1  0  0  0  0
  1  2  1  0  0  0  0
  2  7  1  0  0  0  0
  3  2  2  0  0  0  0
  3  8  1  0  0  0  0
  4  3  1  0  0  0  0
  5  6  1  0  0  0  0
  5  4  2  0  0  0  0
  6  1  2  0  0  0  0
  9 18  1  0  0  0  0
  9 10  1  0  0  0  0
 10 11  2  0  0  0  0
 10  5  1  0  0  0  0
 11 19  1  0  0  0  0
 12 11  1  0  0  0  0
 13 12  1  0  0  0  0
 13 20  1  0  0  0  0
 14 13  1  0  0  0  0
 15 14  2  0  0  0  0
 15 16  1  0  0  0  0
 16 17  1  0  0  0  0
 16 12  2  0  0  0  0
 17  9  2  0  0  0  0
 21 14  1  0  0  0  0
 22 15  1  0  0  0  0
 23 17  1  0  0  0  0
 24 25  1  6  0  0  0
 26 27  1  0  0  0  0
 27 28  1  0  0  0  0
 28 29  2  0  0  0  0
 29 24  1  0  0  0  0
 30 29  1  0  0  0  0
 30 31  2  0  0  0  0
 32 30  1  0  0  0  0
 33 27  1  0  0  0  0
 33 32  1  0  0  0  0
 34 33  2  0  0  0  0
 35 32  1  0  0  0  0
M  END
>  <minimizedAffinity>
-5.85805321

$$$$

 OpenBabel03252504013D

 35 38  0  0  1  0  0  0  0  0999 V2000
   38.4590   31.0860   41.0150 C   0  0  0  0  0  0  0  0  0  0  0  0
   38.5490   32.4810   41.0330 C   0  0  0  0  0  0  0  0  0  0  0  0
   38.0020   33.1690   39.9660 C   0  0  0  0  0  0  0  0  0  0  0  0
   37.4120   32.4750   38.9650 N   0  0  0  0  0  0  0  0  0  0  0  0
   37.3400   31.1330   38.9750 C   0  0  0  0  0  0  0  0  0  0  0  0
   37.8670   30.4310   40.0070 N   0  0  0  0  0  0  0  0  0  0  0  0
   39.0210   33.0230   41.8360 H   0  0  0  0  0  0  0  0  0  0  0  0
   38.0690   34.2500   39.9740 H   0  0  0  0  0  0  0  0  0  0  0  0
   35.5480   29.6610   38.1940 C   0  0  0  0  0  0  0  0  0  0  0  0
   36.7030   30.3700   37.8970 C   0  0  0  0  0  0  0  0  0  0  0  0
   37.2280   30.3490   36.6110 C   0  0  0  0  0  0  0  0  0  0  0  0
   36.5920   29.6170   35.6300 C   0  0  0  0  0  0  0  0  0  0  0  0
   36.8310   29.3980   34.3380 N   0  0  0  0  0  0  0  0  0  0  0  0
   35.8820   28.5880   33.8180 C   0  0  0  0  0  0  0  0  0  0  0  0
   34.9790   28.2530   34.7900 C   0  0  0  0  0  0  0  0  0  0  0  0
   35.4230   28.8990   35.9290 C   0  0  0  0  0  0  0  0  0  0  0  0
   34.9060   28.9260   37.2190 C   0  0  0  0  0  0  0  0  0  0  0  0
   35.1690   29.6950   39.1850 H   0  0  0  0  0  0  0  0  0  0  0  0
   38.1220   30.9080   36.4160 H   0  0  0  0  0  0  0  0  0  0  0  0
   37.6350   29.7960   33.8110 H   0  0  0  0  0  0  0  0  0  0  0  0
   35.7720   28.2100   32.8030 H   0  0  0  0  0  0  0  0  0  0  0  0
   34.1090   27.6270   34.7030 H   0  0  0  0  0  0  0  0  0  0  0  0
   34.0100   28.3940   37.5090 H   0  0  0  0  0  0  0  0  0  0  0  0
   39.0420   30.4020   42.1480 C   0  0  2  0  0  3  0  0  0  0  0  0
   39.9110   30.9390   42.9300 O   0  0  0  0  0  1  0  0  0  0  0  0
   35.9990   27.2450   43.4530 H   0  0  0  0  0  0  0  0  0  0  0  0
   36.8900   27.4730   42.9960 N   0  0  0  0  0  0  0  0  0  0  0  0
   37.3240   28.7440   42.8980 C   0  0  0  0  0  3  0  0  0  0  0  0
   38.5160   29.0270   42.2840 C   0  0  0  0  0  0  0  0  0  0  0  0
   39.3000   28.0150   41.7500 C   0  0  0  0  0  0  0  0  0  0  0  0
   40.4070   28.1600   41.1680 O   0  0  0  0  0  0  0  0  0  0  0  0
   38.7790   26.7810   41.8990 N   0  0  0  0  0  0  0  0  0  0  0  0
   37.6240   26.4410   42.4880 C   0  0  0  0  0  0  0  0  0  0  0  0
   37.2600   25.2400   42.5550 O   0  0  0  0  0  0  0  0  0  0  0  0
   39.3400   25.9810   41.5090 H   0  0  0  0  0  0  0  0  0  0  0  0
  1  2  1  0  0  0  0
  1 24  1  0  0  0  0
  2  7  1  0  0  0  0
  3  8  1  0  0  0  0
  3  2  2  0  0  0  0
  4  5  2  0  0  0  0
  4  3  1  0  0  0  0
  5  6  1  0  0  0  0
  6  1  2  0  0  0  0
  9 18  1  0  0  0  0
 10  9  1  0  0  0  0
 10  5  1  0  0  0  0
 11 10  2  0  0  0  0
 12 16  2  0  0  0  0
 12 11  1  0  0  0  0
 13 12  1  0  0  0  0
 14 13  1  0  0  0  0
 14 15  2  0  0  0  0
 15 16  1  0  0  0  0
 16 17  1  0  0  0  0
 17 23  1  0  0  0  0
 17  9  2  0  0  0  0
 19 11  1  0  0  0  0
 20 13  1  0  0  0  0
 21 14  1  0  0  0  0
 22 15  1  0  0  0  0
 24 29  1  0  0  0  0
 24 25  1  6  0  0  0
 27 26  1  0  0  0  0
 28 27  1  0  0  0  0
 29 28  2  0  0  0  0
 30 32  1  0  0  0  0
 30 29  1  0  0  0  0
 31 30  2  0  0  0  0
 32 33  1  0  0  0  0
 33 34  2  0  0  0  0
 33 27  1  0  0  0  0
 35 32  1  0  0  0  0
M  END
>  <minimizedAffinity>
-5.85508633

$$$$

 OpenBabel03252504013D

 35 38  0  0  1  0  0  0  0  0999 V2000
   35.1380   27.7110   38.4390 C   0  0  0  0  0  0  0  0  0  0  0  0
   35.2810   26.5000   37.7530 C   0  0  0  0  0  0  0  0  0  0  0  0
   34.4280   26.2620   36.6930 C   0  0  0  0  0  0  0  0  0  0  0  0
   33.5050   27.1960   36.3650 N   0  0  0  0  0  0  0  0  0  0  0  0
   33.3900   28.3520   37.0420 C   0  0  0  0  0  0  0  0  0  0  0  0
   34.2120   28.6130   38.0870 N   0  0  0  0  0  0  0  0  0  0  0  0
   36.0200   25.7640   38.0230 H   0  0  0  0  0  0  0  0  0  0  0  0
   34.5340   25.3270   36.1590 H   0  0  0  0  0  0  0  0  0  0  0  0
   31.5280   29.8010   37.6920 C   0  0  0  0  0  0  0  0  0  0  0  0
   32.3940   29.3720   36.6970 C   0  0  0  0  0  0  0  0  0  0  0  0
   32.3100   29.9030   35.4170 C   0  0  0  0  0  0  0  0  0  0  0  0
   31.3570   30.8610   35.1410 C   0  0  0  0  0  0  0  0  0  0  0  0
   31.0260   31.5490   34.0490 N   0  0  0  0  0  0  0  0  0  0  0  0
   29.9970   32.3840   34.3170 C   0  0  0  0  0  0  0  0  0  0  0  0
   29.6260   32.2530   35.6270 C   0  0  0  0  0  0  0  0  0  0  0  0
   30.4790   31.2960   36.1470 C   0  0  0  0  0  0  0  0  0  0  0  0
   30.5720   30.7590   37.4250 C   0  0  0  0  0  0  0  0  0  0  0  0
   31.6150   29.3780   38.6610 H   0  0  0  0  0  0  0  0  0  0  0  0
   32.9940   29.5490   34.6710 H   0  0  0  0  0  0  0  0  0  0  0  0
   31.4960   31.4520   33.1260 H   0  0  0  0  0  0  0  0  0  0  0  0
   29.4820   33.0840   33.6610 H   0  0  0  0  0  0  0  0  0  0  0  0
   28.8450   32.7720   36.1530 H   0  0  0  0  0  0  0  0  0  0  0  0
   29.9240   31.0540   38.2400 H   0  0  0  0  0  0  0  0  0  0  0  0
   36.0480   27.9220   39.5420 C   0  0  2  0  0  3  0  0  0  0  0  0
   36.5090   26.9700   40.2730 O   0  0  0  0  0  1  0  0  0  0  0  0
   35.6580   32.0510   41.4750 H   0  0  0  0  0  0  0  0  0  0  0  0
   36.1000   31.4450   40.7730 N   0  0  0  0  0  0  0  0  0  0  0  0
   35.7690   30.1450   40.6570 C   0  0  0  0  0  3  0  0  0  0  0  0
   36.3710   29.3550   39.7140 C   0  0  0  0  0  0  0  0  0  0  0  0
   37.3340   29.8720   38.8600 C   0  0  0  0  0  0  0  0  0  0  0  0
   37.9490   29.2400   37.9620 O   0  0  0  0  0  0  0  0  0  0  0  0
   37.5950   31.1800   39.0560 N   0  0  0  0  0  0  0  0  0  0  0  0
   37.0410   32.0040   39.9570 C   0  0  0  0  0  0  0  0  0  0  0  0
   37.3840   33.2110   40.0270 O   0  0  0  0  0  0  0  0  0  0  0  0
   38.3190   31.6160   38.4300 H   0  0  0  0  0  0  0  0  0  0  0  0
  1 24  1  0  0  0  0
  2  7  1  0  0  0  0
  2  1  2  0  0  0  0
  3  2  1  0  0  0  0
  4  3  2  0  0  0  0
  4  5  1  0  0  0  0
  5  6  2  0  0  0  0
  6  1  1  0  0  0  0
  8  3  1  0  0  0  0
  9 18  1  0  0  0  0
 10  5  1  0  0  0  0
 10  9  2  0  0  0  0
 11 10  1  0  0  0  0
 12 11  2  0  0  0  0
 12 16  1  0  0  0  0
 13 14  1  0  0  0  0
 13 12  1  0  0  0  0
 14 15  2  0  0  0  0
 15 16  1  0  0  0  0
 15 22  1  0  0  0  0
 16 17  2  0  0  0  0
 17  9  1  0  0  0  0
 17 23  1  0  0  0  0
 19 11  1  0  0  0  0
 20 13  1  0  0  0  0
 21 14  1  0  0  0  0
 24 29  1  0  0  0  0
 24 25  1  1  0  0  0
 27 26  1  0  0  0  0
 28 27  1  0  0  0  0
 29 28  2  0  0  0  0
 30 32  1  0  0  0  0
 30 29  1  0  0  0  0
 31 30  2  0  0  0  0
 32 33  1  0  0  0  0
 33 34  2  0  0  0  0
 33 27  1  0  0  0  0
 35 32  1  0  0  0  0
M  END
>  <minimizedAffinity>
-5.84482813

$$$$

 OpenBabel03252504013D

 35 38  0  0  1  0  0  0  0  0999 V2000
   40.0400   33.0060   40.2710 C   0  0  0  0  0  0  0  0  0  0  0  0
   39.1180   33.9970   39.9170 C   0  0  0  0  0  0  0  0  0  0  0  0
   37.7770   33.6650   39.9580 C   0  0  0  0  0  0  0  0  0  0  0  0
   37.4170   32.4150   40.3340 N   0  0  0  0  0  0  0  0  0  0  0  0
   38.3250   31.4820   40.6690 C   0  0  0  0  0  0  0  0  0  0  0  0
   39.6470   31.7780   40.6380 N   0  0  0  0  0  0  0  0  0  0  0  0
   39.4170   34.9880   39.6200 H   0  0  0  0  0  0  0  0  0  0  0  0
   37.0590   34.4270   39.6850 H   0  0  0  0  0  0  0  0  0  0  0  0
   36.6040   29.7830   41.0410 C   0  0  0  0  0  0  0  0  0  0  0  0
   37.9480   30.1260   41.0780 C   0  0  0  0  0  0  0  0  0  0  0  0
   38.8970   29.2000   41.4900 C   0  0  0  0  0  0  0  0  0  0  0  0
   38.4940   27.9350   41.8650 C   0  0  0  0  0  0  0  0  0  0  0  0
   39.1340   26.8490   42.2950 N   0  0  0  0  0  0  0  0  0  0  0  0
   38.2550   25.8490   42.5280 C   0  0  0  0  0  0  0  0  0  0  0  0
   36.9860   26.2760   42.2460 C   0  0  0  0  0  0  0  0  0  0  0  0
   37.1330   27.5870   41.8290 C   0  0  0  0  0  0  0  0  0  0  0  0
   36.1920   28.5210   41.4150 C   0  0  0  0  0  0  0  0  0  0  0  0
   35.9010   30.5110   40.7220 H   0  0  0  0  0  0  0  0  0  0  0  0
   39.9270   29.4970   41.5060 H   0  0  0  0  0  0  0  0  0  0  0  0
   40.1640   26.7860   42.4300 H   0  0  0  0  0  0  0  0  0  0  0  0
   38.4340   24.8360   42.8820 H   0  0  0  0  0  0  0  0  0  0  0  0
   36.0650   25.7260   42.3260 H   0  0  0  0  0  0  0  0  0  0  0  0
   35.1320   28.3110   41.3660 H   0  0  0  0  0  0  0  0  0  0  0  0
   41.4320   33.3910   40.2150 C   0  0  1  0  0  3  0  0  0  0  0  0
   41.9900   34.1610   41.0810 O   0  0  0  0  0  1  0  0  0  0  0  0
   42.5690   33.0710   35.7940 H   0  0  0  0  0  0  0  0  0  0  0  0
   42.6450   32.7070   36.7520 N   0  0  0  0  0  0  0  0  0  0  0  0
   42.0000   33.2910   37.7800 C   0  0  0  0  0  3  0  0  0  0  0  0
   42.1170   32.7910   39.0490 C   0  0  0  0  0  0  0  0  0  0  0  0
   42.9000   31.6750   39.3060 C   0  0  0  0  0  0  0  0  0  0  0  0
   43.0770   31.1330   40.4290 O   0  0  0  0  0  0  0  0  0  0  0  0
   43.5030   31.1650   38.2150 N   0  0  0  0  0  0  0  0  0  0  0  0
   43.4280   31.6070   36.9510 C   0  0  0  0  0  0  0  0  0  0  0  0
   44.0500   31.0280   36.0250 O   0  0  0  0  0  0  0  0  0  0  0  0
   44.1080   30.3170   38.3610 H   0  0  0  0  0  0  0  0  0  0  0  0
  1  6  1  0  0  0  0
  2  3  1  0  0  0  0
  2  1  2  0  0  0  0
  3  4  2  0  0  0  0
  4  5  1  0  0  0  0
  5 10  1  0  0  0  0
  6  5  2  0  0  0  0
  7  2  1  0  0  0  0
  8  3  1  0  0  0  0
  9 10  2  0  0  0  0
  9 17  1  0  0  0  0
 10 11  1  0  0  0  0
 11 19  1  0  0  0  0
 11 12  2  0  0  0  0
 12 13  1  0  0  0  0
 13 20  1  0  0  0  0
 13 14  1  0  0  0  0
 14 21  1  0  0  0  0
 15 22  1  0  0  0  0
 15 14  2  0  0  0  0
 16 12  1  0  0  0  0
 16 15  1  0  0  0  0
 17 16  2  0  0  0  0
 18  9  1  0  0  0  0
 23 17  1  0  0  0  0
 24  1  1  0  0  0  0
 24 25  1  1  0  0  0
 26 27  1  0  0  0  0
 27 33  1  0  0  0  0
 27 28  1  0  0  0  0
 28 29  2  0  0  0  0
 29 30  1  0  0  0  0
 29 24  1  0  0  0  0
 30 31  2  0  0  0  0
 32 35  1  0  0  0  0
 32 30  1  0  0  0  0
 33 32  1  0  0  0  0
 34 33  2  0  0  0  0
M  END
>  <minimizedAffinity>
-5.78970957

$$$$

 OpenBabel03252504013D

 35 38  0  0  1  0  0  0  0  0999 V2000
   36.7130   29.5800   37.9920 C   0  0  0  0  0  0  0  0  0  0  0  0
   35.4590   29.1960   37.5050 C   0  0  0  0  0  0  0  0  0  0  0  0
   34.9100   28.0310   38.0050 C   0  0  0  0  0  0  0  0  0  0  0  0
   35.5960   27.3220   38.9320 N   0  0  0  0  0  0  0  0  0  0  0  0
   36.8000   27.7140   39.3810 C   0  0  0  0  0  0  0  0  0  0  0  0
   37.3650   28.8530   38.9100 N   0  0  0  0  0  0  0  0  0  0  0  0
   34.9220   29.7700   36.7680 H   0  0  0  0  0  0  0  0  0  0  0  0
   33.9400   27.7290   37.6320 H   0  0  0  0  0  0  0  0  0  0  0  0
   37.0220   25.7530   40.8280 C   0  0  0  0  0  0  0  0  0  0  0  0
   37.5540   26.9550   40.3840 C   0  0  0  0  0  0  0  0  0  0  0  0
   38.7660   27.4120   40.8840 C   0  0  0  0  0  0  0  0  0  0  0  0
   39.4380   26.6620   41.8260 C   0  0  0  0  0  0  0  0  0  0  0  0
   40.5880   26.8160   42.4830 N   0  0  0  0  0  0  0  0  0  0  0  0
   40.7950   25.7690   43.3120 C   0  0  0  0  0  0  0  0  0  0  0  0
   39.7550   24.8860   43.2100 C   0  0  0  0  0  0  0  0  0  0  0  0
   38.9010   25.4450   42.2760 C   0  0  0  0  0  0  0  0  0  0  0  0
   37.6880   24.9960   41.7700 C   0  0  0  0  0  0  0  0  0  0  0  0
   36.0940   25.4280   40.4290 H   0  0  0  0  0  0  0  0  0  0  0  0
   39.1490   28.3450   40.5190 H   0  0  0  0  0  0  0  0  0  0  0  0
   41.2280   27.6280   42.3690 H   0  0  0  0  0  0  0  0  0  0  0  0
   41.6250   25.5730   43.9890 H   0  0  0  0  0  0  0  0  0  0  0  0
   39.6160   23.9570   43.7330 H   0  0  0  0  0  0  0  0  0  0  0  0
   37.2250   24.0680   42.0780 H   0  0  0  0  0  0  0  0  0  0  0  0
   37.2540   30.8030   37.4450 C   0  0  2  0  0  3  0  0  0  0  0  0
   37.3100   31.0530   36.1840 O   0  0  0  0  0  1  0  0  0  0  0  0
   36.7500   33.5630   41.0600 H   0  0  0  0  0  0  0  0  0  0  0  0
   37.3680   33.1190   40.3700 N   0  0  0  0  0  0  0  0  0  0  0  0
   36.8850   32.2960   39.4190 C   0  0  0  0  0  3  0  0  0  0  0  0
   37.7280   31.7140   38.5090 C   0  0  0  0  0  0  0  0  0  0  0  0
   39.0930   31.9570   38.5450 C   0  0  0  0  0  0  0  0  0  0  0  0
   39.9550   31.4780   37.7620 O   0  0  0  0  0  0  0  0  0  0  0  0
   39.4760   32.7910   39.5310 N   0  0  0  0  0  0  0  0  0  0  0  0
   38.7040   33.3910   40.4490 C   0  0  0  0  0  0  0  0  0  0  0  0
   39.2010   34.1510   41.3170 O   0  0  0  0  0  0  0  0  0  0  0  0
   40.5040   33.0050   39.5980 H   0  0  0  0  0  0  0  0  0  0  0  0
  1  6  1  0  0  0  0
  2  1  2  0  0  0  0
  2  3  1  0  0  0  0
  3  4  2  0  0  0  0
  4  5  1  0  0  0  0
  5 10  1  0  0  0  0
  6  5  2  0  0  0  0
  7  2  1  0  0  0  0
  8  3  1  0  0  0  0
  9 17  1  0  0  0  0
 10  9  2  0  0  0  0
 10 11  1  0  0  0  0
 11 12  2  0  0  0  0
 12 16  1  0  0  0  0
 12 13  1  0  0  0  0
 13 14  1  0  0  0  0
 14 21  1  0  0  0  0
 15 14  2  0  0  0  0
 15 22  1  0  0  0  0
 16 15  1  0  0  0  0
 17 23  1  0  0  0  0
 17 16  2  0  0  0  0
 18  9  1  0  0  0  0
 19 11  1  0  0  0  0
 20 13  1  0  0  0  0
 24 25  1  6  0  0  0
 24  1  1  0  0  0  0
 24 29  1  0  0  0  0
 27 33  1  0  0  0  0
 27 26  1  0  0  0  0
 28 27  1  0  0  0  0
 29 30  1  0  0  0  0
 29 28  2  0  0  0  0
 30 32  1  0  0  0  0
 31 30  2  0  0  0  0
 32 35  1  0  0  0  0
 32 33  1  0  0  0  0
 33 34  2  0  0  0  0
M  END
>  <minimizedAffinity>
-5.72172308

$$$$
