REMARK  Name = 
REMARK  8 active torsions:
REMARK  status: ('A' for Active; 'I' for Inactive)
REMARK    1  A    between atoms: O_1  and  C_2
REMARK    2  A    between atoms: O_1  and  P_10
REMARK    3  A    between atoms: C_6  and  C_7
REMARK    4  A    between atoms: C_7  and  O_8
REMARK    5  A    between atoms: P_10  and  O_11
REMARK    6  A    between atoms: P_10  and  O_12
REMARK    7  A    between atoms: O_12  and  C_13
REMARK    8  A    between atoms: C_13  and  C_16
REMARK                            x       y       z     vdW  Elec       q    Type
REMARK                         _______ _______ _______ _____ _____    ______ ____
ROOT
ATOM      1  O   UNL     1      44.722  35.351  44.990  0.00  0.00    +0.000 OA
ATOM      2  P   UNL     1      45.575  34.241  44.411  0.00  0.00    +0.000 P 
ENDROOT
BRANCH   2   3
ATOM      3  O   UNL     1      44.604  33.038  43.715  0.00  0.00    +0.000 OA
ATOM      4  H   UNL     1      43.757  33.473  43.402  0.00  0.00    +0.000 HD
ENDBRANCH   2   3
BRANCH   2   5
ATOM      5  O   UNL     1      46.575  34.908  43.250  0.00  0.00    +0.000 OA
BRANCH   5   6
ATOM      6  C   UNL     1      46.803  33.976  42.230  0.00  0.00    +0.000 C 
ATOM      7  C   UNL     1      46.076  34.419  40.956  0.00  0.00    +0.000 C 
ATOM      8  C   UNL     1      46.690  33.481  39.946  0.00  0.00    +0.000 C 
ATOM      9  C   UNL     1      48.073  33.140  40.474  0.00  0.00    +0.000 C 
ATOM     10  C   UNL     1      48.218  33.959  41.745  0.00  0.00    +0.000 C 
ATOM     11  H   UNL     1      46.449  32.970  42.452  0.00  0.00    +0.000 HD
ATOM     12  H   UNL     1      44.979  34.215  41.052  0.00  0.00    +0.000 HD
ATOM     13  H   UNL     1      46.185  35.475  40.732  0.00  0.00    +0.000 HD
ATOM     14  H   UNL     1      46.058  32.553  39.967  0.00  0.00    +0.000 HD
ATOM     15  H   UNL     1      46.699  33.896  38.932  0.00  0.00    +0.000 HD
ATOM     16  H   UNL     1      48.869  33.343  39.757  0.00  0.00    +0.000 HD
ATOM     17  H   UNL     1      48.116  32.065  40.755  0.00  0.00    +0.000 HD
ATOM     18  H   UNL     1      48.831  33.381  42.479  0.00  0.00    +0.000 HD
BRANCH  10  19
ATOM     19  C   UNL     1      48.762  35.334  41.463  0.00  0.00    +0.000 C 
ATOM     20  H   UNL     1      49.326  35.238  40.495  0.00  0.00    +0.000 HD
ATOM     21  H   UNL     1      48.015  36.121  41.361  0.00  0.00    +0.000 HD
BRANCH  19  22
ATOM     22  O   UNL     1      49.662  35.743  42.423  0.00  0.00    +0.000 OA
ATOM     23  H   UNL     1      50.276  36.439  42.123  0.00  0.00    +0.000 HD
ENDBRANCH  19  22
ENDBRANCH  10  19
ENDBRANCH   5   6
ENDBRANCH   2   5
BRANCH   2  24
ATOM     24  O   UNL     1      46.468  33.493  45.603  0.00  0.00    +0.000 OA
BRANCH  24  25
ATOM     25  C   UNL     1      46.226  32.157  45.570  0.00  0.00    +0.000 C 
ATOM     26  H   UNL     1      47.207  31.666  45.303  0.00  0.00    +0.000 HD
ATOM     27  H   UNL     1      45.519  31.775  44.840  0.00  0.00    +0.000 HD
BRANCH  25  30
ATOM     28  C   UNL     1      45.650  31.904  49.238  0.00  0.00    +0.000 A 
ATOM     29  C   UNL     1      45.981  32.454  47.990  0.00  0.00    +0.000 A 
ATOM     30  C   UNL     1      45.883  31.613  46.895  0.00  0.00    +0.000 A 
ATOM     31  N   UNL     1      45.477  30.315  47.078  0.00  0.00    +0.000 NA
ATOM     32  C   UNL     1      45.166  29.815  48.291  0.00  0.00    +0.000 A 
ATOM     33  N   UNL     1      45.254  30.606  49.352  0.00  0.00    +0.000 NA
ATOM     34  H   UNL     1      45.714  32.527  50.110  0.00  0.00    +0.000 HD
ATOM     35  H   UNL     1      46.288  33.476  47.931  0.00  0.00    +0.000 HD
ATOM     36  N   UNL     1      44.753  28.455  48.398  0.00  0.00    +0.000 N 
ATOM     37  C   UNL     1      45.627  27.506  48.773  0.00  0.00    +0.000 A 
ATOM     38  C   UNL     1      45.275  26.183  48.889  0.00  0.00    +0.000 A 
ATOM     39  H   UNL     1      46.003  25.421  49.197  0.00  0.00    +0.000 HD
ATOM     40  C   UNL     1      43.958  25.832  48.604  0.00  0.00    +0.000 A 
ATOM     41  O   UNL     1      43.582  24.631  48.695  0.00  0.00    +0.000 OA
ATOM     42  N   UNL     1      43.111  26.823  48.229  0.00  0.00    +0.000 N 
ATOM     43  C   UNL     1      43.481  28.111  48.123  0.00  0.00    +0.000 A 
ATOM     44  O   UNL     1      42.702  29.032  47.777  0.00  0.00    +0.000 OA
ATOM     45  H   UNL     1      42.106  26.557  48.011  0.00  0.00    +0.000 HD
ENDBRANCH  25  30
ENDBRANCH  24  25
ENDBRANCH   2  24
TORSDOF 8
