
 OpenBabel03242522513D

 27 28  0  0  0  0  0  0  0  0999 V2000
   45.6370   30.6500   47.7030 O   0  0  0  0  0  0  0  0  0  0  0  0
   45.9870   32.0010   48.3720 P   0  0  2  0  0  0  0  0  0  0  0  0
   45.4210   31.8740   49.9530 O   0  0  0  0  0  0  0  0  0  0  0  0
   45.6080   32.6760   50.4760 H   0  0  0  0  0  0  0  0  0  0  0  0
   45.1410   33.2030   47.5430 O   0  0  0  0  0  0  0  0  0  0  0  0
   46.9650   33.2720   44.3960 C   0  0  0  0  0  0  0  0  0  0  0  0
   46.5410   32.8950   45.6940 C   0  0  0  0  0  0  0  0  0  0  0  0
   45.5170   33.5990   46.2770 C   0  0  0  0  0  0  0  0  0  0  0  0
   44.9400   34.6320   45.5950 N   0  0  0  0  0  0  0  0  0  0  0  0
   45.3740   34.9560   44.3610 C   0  0  0  0  0  0  0  0  0  0  0  0
   46.3710   34.2960   43.7580 N   0  0  0  0  0  0  0  0  0  0  0  0
   47.7590   32.7820   43.8530 H   0  0  0  0  0  0  0  0  0  0  0  0
   47.1070   32.0740   46.0510 H   0  0  0  0  0  0  0  0  0  0  0  0
   44.8840   35.7840   43.8620 H   0  0  0  0  0  0  0  0  0  0  0  0
   47.6210   32.2210   48.2950 O   0  0  0  0  0  0  0  0  0  0  0  0
   48.6640   31.6490   48.9290 C   0  0  0  0  0  0  0  0  0  0  0  0
   49.5560   32.5330   49.3410 O   0  0  0  0  0  0  0  0  0  0  0  0
   50.9490   29.0490   51.9850 H   0  0  0  0  0  0  0  0  0  0  0  0
   50.4760   29.0560   51.0770 N   0  0  0  0  0  0  0  0  0  0  0  0
   49.9330   30.1600   50.5840 C   0  0  0  0  0  0  0  0  0  0  0  0
   49.2580   30.3460   49.3760 C   0  0  0  0  0  0  0  0  0  0  0  0
   49.1340   29.2490   48.5890 C   0  0  0  0  0  0  0  0  0  0  0  0
   48.5780   29.1630   47.4730 O   0  0  0  0  0  0  0  0  0  0  0  0
   49.6780   28.0870   49.0560 N   0  0  0  0  0  0  0  0  0  0  0  0
   50.3090   28.0230   50.2360 C   0  0  0  0  0  0  0  0  0  0  0  0
   50.7770   26.9050   50.5810 O   0  0  0  0  0  0  0  0  0  0  0  0
   49.6000   27.2250   48.4730 H   0  0  0  0  0  0  0  0  0  0  0  0
  2  1  2  6  0  0  0
  2  3  1  0  0  0  0
  3  4  1  0  0  0  0
  5  2  1  0  0  0  0
  6  7  1  0  0  0  0
  7 13  1  0  0  0  0
  7  8  2  0  0  0  0
  8  5  1  0  0  0  0
  9  8  1  0  0  0  0
 10  9  2  0  0  0  0
 11 10  1  0  0  0  0
 11  6  2  0  0  0  0
 12  6  1  0  0  0  0
 14 10  1  0  0  0  0
 15  2  1  0  0  0  0
 15 16  1  0  0  0  0
 16 17  2  0  0  0  0
 16 21  1  0  0  0  0
 19 18  1  0  0  0  0
 20 19  1  0  0  0  0
 21 20  2  0  0  0  0
 22 24  1  0  0  0  0
 22 21  1  0  0  0  0
 23 22  2  0  0  0  0
 24 25  1  0  0  0  0
 25 26  2  0  0  0  0
 25 19  1  0  0  0  0
 27 24  1  0  0  0  0
M  END
>  <minimizedAffinity>
-5.26730013

>  <minimizedRMSD>
1.39862609

$$$$
