
     RDKit          3D

 39 41  0  0  0  0  0  0  0  0999 V2000
   46.3195   34.9887   41.9238 C   0  0  0  0  0  0  0  0  0  0  0  0
   44.8538   34.9325   41.6968 C   0  0  0  0  0  0  0  0  0  0  0  0
   43.9657   35.4220   42.7075 C   0  0  0  0  0  0  0  0  0  0  0  0
   42.3099   35.1409   41.9735 S   0  0  0  0  0  0  0  0  0  0  0  0
   43.0990   34.4026   40.4099 C   0  0  0  0  0  0  0  0  0  0  0  0
   44.2107   34.4796   40.6576 N   0  0  0  0  0  0  0  0  0  0  0  0
   42.3537   33.9374   39.3367 O   0  0  0  0  0  0  0  0  0  0  0  0
   40.4165   34.4030   37.5912 O   0  0  0  0  0  0  0  0  0  0  0  0
   41.4978   35.0930   38.4188 P   0  0  0  0  0  0  0  0  0  0  0  0
   40.7597   36.1623   39.4993 O   0  0  0  0  0  0  0  0  0  0  0  0
   42.5658   35.9431   37.4220 O   0  0  0  0  0  0  0  0  0  0  0  0
   47.1312   34.3422   40.8307 C   0  0  0  0  0  0  0  0  0  0  0  0
   48.4711   33.9207   41.2816 C   0  0  0  0  0  0  0  0  0  0  0  0
   48.9344   32.7089   40.8012 C   0  0  0  0  0  0  0  0  0  0  0  0
   50.1777   32.2138   41.1576 C   0  0  0  0  0  0  0  0  0  0  0  0
   50.9232   32.9945   42.0145 N   0  0  0  0  0  0  0  0  0  0  0  0
   50.4358   34.1680   42.4595 C   0  0  0  0  0  0  0  0  0  0  0  0
   49.2388   34.6205   42.1020 N   0  0  0  0  0  0  0  0  0  0  0  0
   47.9157   31.7154   39.6738 S   0  0  0  0  0  0  0  0  0  0  0  0
   46.6355   34.5919   42.9076 H   0  0  0  0  0  0  0  0  0  0  0  0
   46.5749   36.0795   41.9385 H   0  0  0  0  0  0  0  0  0  0  0  0
   44.2316   35.8490   43.6630 H   0  0  0  0  0  0  0  0  0  0  0  0
   40.2900   36.8653   38.9829 H   0  0  0  0  0  0  0  0  0  0  0  0
   42.6548   35.5153   36.5500 H   0  0  0  0  0  0  0  0  0  0  0  0
   47.2454   35.0622   40.0096 H   0  0  0  0  0  0  0  0  0  0  0  0
   46.5325   33.4963   40.4608 H   0  0  0  0  0  0  0  0  0  0  0  0
   50.5575   31.2800   40.7993 H   0  0  0  0  0  0  0  0  0  0  0  0
   50.9974   34.8091   43.1367 H   0  0  0  0  0  0  0  0  0  0  0  0
   49.9678   31.7113   35.2435 H   0  0  0  0  0  0  0  0  0  0  0  0
   49.3653   32.2388   35.9174 N   0  0  0  0  0  0  0  0  0  0  0  0
   49.1503   31.6450   37.0891 C   0  0  0  0  0  0  0  0  0  0  0  0
   48.3707   32.2757   38.0232 C   0  0  0  0  0  0  0  0  0  0  0  0
   47.8173   33.5193   37.7382 C   0  0  0  0  0  0  0  0  0  0  0  0
   47.0771   34.2118   38.5132 O   0  0  0  0  0  0  0  0  0  0  0  0
   48.0542   34.1011   36.5333 N   0  0  0  0  0  0  0  0  0  0  0  0
   48.8289   33.4519   35.6321 C   0  0  0  0  0  0  0  0  0  0  0  0
   49.0838   33.9354   34.5054 O   0  0  0  0  0  0  0  0  0  0  0  0
   49.5152   30.6922   37.4355 H   0  0  0  0  0  0  0  0  0  0  0  0
   47.6535   35.0378   36.2839 H   0  0  0  0  0  0  0  0  0  0  0  0
  2  1  1  0
  2  3  2  0
  4  3  1  0
  5  6  2  0
  5  4  1  0
  6  2  1  0
  7  5  1  0
  8  9  2  0
  9  7  1  0
  9 10  1  0
 11  9  1  0
 12 13  1  0
 12  1  1  0
 13 18  2  0
 14 15  2  0
 14 13  1  0
 15 16  1  0
 16 17  2  0
 18 17  1  0
 19 14  1  0
  1 20  1  0
  1 21  1  0
  3 22  1  0
 10 23  1  0
 11 24  1  0
 12 25  1  0
 12 26  1  0
 15 27  1  0
 17 28  1  0
 29 30  1  0
 30 31  1  0
 31 32  2  0
 32 33  1  0
 33 34  2  0
 33 35  1  0
 35 36  1  0
 36 37  2  0
 36 30  1  0
 31 38  1  0
 35 39  1  0
 19 32  1  0
M  ISO  8  20   8  21   8  22  14  23   3  24   3  25   8  26   8  27  14
M  ISO  2  28  14  29   9
M  END
>  <DihAtoms>  (1) 
13,18,31,30

>  <DihDeg>  (1) 
-90.00053081923487

$$$$
