
 OpenBabel03242518393D

 40 43  0  0  1  0  0  0  0  0999 V2000
   47.4840   33.5720   40.8900 O   0  0  0  0  0  0  0  0  0  0  0  0
   47.5680   33.7420   39.4840 C   0  0  0  0  0  0  0  0  0  0  0  0
   48.4100   34.5340   38.6960 C   0  0  0  0  0  0  0  0  0  0  0  0
   48.0830   34.3400   37.3650 C   0  0  0  0  0  0  0  0  0  0  0  0
   47.0620   33.4450   37.4060 C   0  0  0  0  0  0  0  0  0  0  0  0
   46.7620   33.0970   38.6430 O   0  0  0  0  0  0  0  0  0  0  0  0
   49.1590   35.1550   39.1590 H   0  0  0  0  0  0  0  0  0  0  0  0
   48.5760   34.8300   36.5370 H   0  0  0  0  0  0  0  0  0  0  0  0
   46.3570   32.9160   36.2180 C   0  0  2  0  0  0  0  0  0  0  0  0
   46.2080   31.4740   36.0180 C   0  0  0  0  0  0  0  0  0  0  0  0
   47.2880   32.1420   35.2470 C   0  0  1  0  0  0  0  0  0  0  0  0
   45.6880   33.6550   35.7530 H   0  0  0  0  0  0  0  0  0  0  0  0
   46.4580   30.7400   36.8180 H   0  0  0  0  0  0  0  0  0  0  0  0
   45.2790   31.1750   35.4520 H   0  0  0  0  0  0  0  0  0  0  0  0
   48.3350   32.0600   35.5260 H   0  0  0  0  0  0  0  0  0  0  0  0
   48.0560   32.7250   32.9580 C   0  0  0  0  0  0  0  0  0  0  0  0
   49.2620   32.8280   33.3240 O   0  0  0  0  0  0  0  0  0  0  0  0
   46.9900   32.4260   33.8450 N   0  0  0  0  0  0  0  0  0  0  0  0
   47.9160   32.8880   31.8980 H   0  0  0  0  0  0  0  0  0  0  0  0
   46.0070   32.4070   33.5110 H   0  0  0  0  0  0  0  0  0  0  0  0
   47.5770   34.7290   41.7180 C   0  0  0  0  0  0  0  0  0  0  0  0
   48.4580   35.5620   41.4240 O   0  0  0  0  0  0  0  0  0  0  0  0
   46.6390   34.7920   42.7930 C   0  0  0  0  0  0  0  0  0  0  0  0
   45.7730   35.8550   42.7600 C   0  0  0  0  0  0  0  0  0  0  0  0
   44.8330   35.9870   43.7680 C   0  0  0  0  0  0  0  0  0  0  0  0
   44.8090   35.0530   44.7500 N   0  0  0  0  0  0  0  0  0  0  0  0
   45.6660   34.0250   44.7580 C   0  0  0  0  0  0  0  0  0  0  0  0
   46.5700   33.9220   43.7660 N   0  0  0  0  0  0  0  0  0  0  0  0
   45.7280   36.6380   42.0170 H   0  0  0  0  0  0  0  0  0  0  0  0
   44.1220   36.8060   43.7940 H   0  0  0  0  0  0  0  0  0  0  0  0
   45.5940   33.0730   45.8170 N   0  0  0  0  0  0  0  0  0  0  0  0
   45.4200   33.3400   47.1280 C   0  0  0  0  0  3  0  0  0  0  0  0
   45.3680   32.3170   48.0530 C   0  0  0  0  0  0  0  0  0  0  0  0
   45.2280   32.5790   49.0840 H   0  0  0  0  0  0  0  0  0  0  0  0
   45.5020   31.0320   47.5620 C   0  0  0  0  0  0  0  0  0  0  0  0
   45.4550   30.0780   48.4050 O   0  0  0  0  0  0  0  0  0  0  0  0
   45.6730   30.7680   46.2730 N   0  0  0  0  0  0  0  0  0  0  0  0
   45.7210   31.8010   45.3810 C   0  0  0  0  0  0  0  0  0  0  0  0
   45.8860   31.4440   44.1830 O   0  0  0  0  0  0  0  0  0  0  0  0
   45.7660   29.7600   45.9850 H   0  0  0  0  0  0  0  0  0  0  0  0
  1 21  1  0  0  0  0
  2  1  1  0  0  0  0
  3  7  1  0  0  0  0
  3  2  2  0  0  0  0
  4  5  2  0  0  0  0
  4  3  1  0  0  0  0
  5  6  1  0  0  0  0
  6  2  1  0  0  0  0
  8  4  1  0  0  0  0
  9 12  1  6  0  0  0
  9  5  1  0  0  0  0
 10  9  1  0  0  0  0
 10 13  1  0  0  0  0
 11 15  1  1  0  0  0
 11 10  1  0  0  0  0
 11  9  1  0  0  0  0
 14 10  1  0  0  0  0
 16 17  2  0  0  0  0
 16 18  1  0  0  0  0
 18 11  1  0  0  0  0
 19 16  1  0  0  0  0
 20 18  1  0  0  0  0
 21 23  1  0  0  0  0
 22 21  2  0  0  0  0
 23 28  1  0  0  0  0
 24 23  2  0  0  0  0
 24 25  1  0  0  0  0
 25 30  1  0  0  0  0
 25 26  2  0  0  0  0
 26 27  1  0  0  0  0
 27 31  1  0  0  0  0
 28 27  2  0  0  0  0
 29 24  1  0  0  0  0
 31 32  1  0  0  0  0
 32 33  2  0  0  0  0
 33 34  1  0  0  0  0
 35 33  1  0  0  0  0
 35 36  2  0  0  0  0
 37 35  1  0  0  0  0
 38 31  1  0  0  0  0
 38 37  1  0  0  0  0
 39 38  2  0  0  0  0
 40 37  1  0  0  0  0
M  END
>  <minimizedAffinity>
-6.47983885

>  <minimizedRMSD>
0.386364579

$$$$
