
 OpenBabel03242511543D

 35 37  0  0  1  0  0  0  0  0999 V2000
   47.6950   33.2810   42.4150 C   0  0  2  0  0  0  0  0  0  0  0  0
   49.1600   33.0920   42.4370 C   0  0  0  0  0  0  0  0  0  0  0  0
   49.9200   34.3330   42.7670 C   0  0  0  0  0  0  0  0  0  0  0  0
   49.5690   35.5050   41.8770 C   0  0  0  0  0  0  0  0  0  0  0  0
   48.0980   35.6260   41.6050 C   0  0  0  0  0  0  0  0  0  0  0  0
   47.2550   34.7320   42.4760 C   0  0  1  0  0  0  0  0  0  0  0  0
   47.2810   32.8410   41.4610 H   0  0  0  0  0  0  0  0  0  0  0  0
   49.5440   32.7430   41.4380 H   0  0  0  0  0  0  0  0  0  0  0  0
   49.4830   32.3120   43.1470 H   0  0  0  0  0  0  0  0  0  0  0  0
   51.0020   34.1090   42.5300 H   0  0  0  0  0  0  0  0  0  0  0  0
   49.9230   34.6620   43.7990 H   0  0  0  0  0  0  0  0  0  0  0  0
   50.1590   35.4530   40.9290 H   0  0  0  0  0  0  0  0  0  0  0  0
   49.9310   36.4320   42.3920 H   0  0  0  0  0  0  0  0  0  0  0  0
   47.8740   35.4600   40.5510 H   0  0  0  0  0  0  0  0  0  0  0  0
   47.7530   36.6680   41.8320 H   0  0  0  0  0  0  0  0  0  0  0  0
   47.2610   35.0210   43.5300 H   0  0  0  0  0  0  0  0  0  0  0  0
   45.9040   34.7790   41.9420 N   0  0  0  0  0  0  0  0  0  0  0  0
   44.9100   35.3330   42.6580 C   0  0  0  0  0  0  0  0  0  0  0  0
   43.6010   35.4040   42.1950 C   0  0  0  0  0  0  0  0  0  0  0  0
   42.7970   35.8520   42.7770 H   0  0  0  0  0  0  0  0  0  0  0  0
   43.3340   34.8700   40.9320 C   0  0  0  0  0  0  0  0  0  0  0  0
   42.1700   34.9100   40.4710 O   0  0  0  0  0  0  0  0  0  0  0  0
   44.3450   34.3200   40.2320 N   0  0  0  0  0  0  0  0  0  0  0  0
   45.5960   34.2770   40.7270 C   0  0  0  0  0  0  0  0  0  0  0  0
   46.4730   33.7510   40.0140 O   0  0  0  0  0  0  0  0  0  0  0  0
   44.0830   33.9370   39.2930 H   0  0  0  0  0  0  0  0  0  0  0  0
   47.0160   32.5650   43.5120 C   0  0  0  0  0  0  0  0  0  0  0  0
   47.0950   33.1760   44.7780 C   0  0  0  0  0  0  0  0  0  0  0  0
   46.4870   32.5860   45.8910 C   0  0  0  0  0  0  0  0  0  0  0  0
   45.8260   31.3970   45.6600 N   0  0  0  0  0  0  0  0  0  0  0  0
   45.7670   30.8340   44.4310 C   0  0  0  0  0  0  0  0  0  0  0  0
   46.3600   31.4140   43.3600 N   0  0  0  0  0  0  0  0  0  0  0  0
   47.5880   34.0990   45.0490 H   0  0  0  0  0  0  0  0  0  0  0  0
   46.5050   32.9900   46.8800 H   0  0  0  0  0  0  0  0  0  0  0  0
   45.2280   29.9140   44.3710 H   0  0  0  0  0  0  0  0  0  0  0  0
  1  7  1  6  0  0  0
  1  2  1  0  0  0  0
  1  6  1  0  0  0  0
  1 27  1  0  0  0  0
  2  3  1  0  0  0  0
  2  9  1  0  0  0  0
  3 11  1  0  0  0  0
  4 13  1  0  0  0  0
  4  3  1  0  0  0  0
  5 15  1  0  0  0  0
  5  4  1  0  0  0  0
  5  6  1  0  0  0  0
  6 16  1  1  0  0  0
  8  2  1  0  0  0  0
 10  3  1  0  0  0  0
 12  4  1  0  0  0  0
 14  5  1  0  0  0  0
 17  6  1  0  0  0  0
 17 18  1  0  0  0  0
 19 18  2  0  0  0  0
 19 20  1  0  0  0  0
 21 19  1  0  0  0  0
 22 21  2  0  0  0  0
 23 24  1  0  0  0  0
 23 21  1  0  0  0  0
 24 17  1  0  0  0  0
 25 24  2  0  0  0  0
 26 23  1  0  0  0  0
 27 28  1  0  0  0  0
 28 33  1  0  0  0  0
 28 29  2  0  0  0  0
 29 34  1  0  0  0  0
 30 29  1  0  0  0  0
 31 30  2  0  0  0  0
 32 27  2  0  0  0  0
 32 31  1  0  0  0  0
 35 31  1  0  0  0  0
M  END
>  <minimizedAffinity>
-5.32038307

>  <minimizedRMSD>
5.32878351

$$$$
