
 OpenBabel03242523263D

 46 49  0  0  1  0  0  0  0  0999 V2000
   46.9060   33.0090   42.8160 C   0  0  0  0  0  0  0  0  0  0  0  0
   48.1350   32.5330   42.8770 C   0  0  0  0  0  0  0  0  0  0  0  0
   48.2470   31.2860   43.4700 C   0  0  0  0  0  0  0  0  0  0  0  0
   47.0560   30.6770   43.9390 N   0  0  0  0  0  0  0  0  0  0  0  0
   45.8690   31.2190   43.8420 C   0  0  0  0  0  0  0  0  0  0  0  0
   45.7390   32.4600   43.2520 N   0  0  0  0  0  0  0  0  0  0  0  0
   49.1520   30.7210   43.6170 H   0  0  0  0  0  0  0  0  0  0  0  0
   45.0630   30.6240   44.2500 H   0  0  0  0  0  0  0  0  0  0  0  0
   49.3610   33.2000   42.5130 C   0  0  1  0  0  0  0  0  0  0  0  0
   50.5750   32.6350   42.3230 C   0  0  0  0  0  0  0  0  0  0  0  0
   49.8630   32.8870   41.0290 C   0  0  1  0  0  0  0  0  0  0  0  0
   49.2080   34.3250   42.5710 H   0  0  0  0  0  0  0  0  0  0  0  0
   50.7740   31.5470   42.5560 H   0  0  0  0  0  0  0  0  0  0  0  0
   51.5280   33.1960   42.4310 H   0  0  0  0  0  0  0  0  0  0  0  0
   50.1670   33.7620   40.4340 H   0  0  0  0  0  0  0  0  0  0  0  0
   49.2400   31.7800   40.3960 N   0  0  0  0  0  0  0  0  0  0  0  0
   48.5870   31.1530   40.8690 H   0  0  0  0  0  0  0  0  0  0  0  0
   51.7540   32.2060   36.6280 H   0  0  0  0  0  0  0  0  0  0  0  0
   50.8880   31.7740   37.0610 N   0  0  0  0  0  0  0  0  0  0  0  0
   50.6280   32.0290   38.3580 C   0  0  0  0  0  3  0  0  0  0  0  0
   49.5290   31.5180   39.0220 C   0  0  0  0  0  0  0  0  0  0  0  0
   48.7120   30.7190   38.2460 C   0  0  0  0  0  0  0  0  0  0  0  0
   47.6740   30.1950   38.7490 O   0  0  0  0  0  0  0  0  0  0  0  0
   48.9720   30.4630   36.9500 N   0  0  0  0  0  0  0  0  0  0  0  0
   50.0560   30.9870   36.3520 C   0  0  0  0  0  0  0  0  0  0  0  0
   50.3220   30.7630   35.1410 O   0  0  0  0  0  0  0  0  0  0  0  0
   48.3400   29.8520   36.3710 H   0  0  0  0  0  0  0  0  0  0  0  0
   46.5020   34.2880   42.1640 C   0  0  0  0  0  0  0  0  0  0  0  0
   46.4400   35.4750   42.0600 O   0  0  0  0  0  0  0  0  0  0  0  0
   43.4440   34.7820   42.1090 Cl  0  0  0  0  0  0  0  0  0  0  0  0
   44.3200   34.1040   40.7510 C   0  0  0  0  0  0  0  0  0  0  0  0
   45.7210   33.9450   40.9150 C   0  0  0  0  0  0  0  0  0  0  0  0
   46.2790   33.4150   39.7840 C   0  0  0  0  0  0  0  0  0  0  0  0
   45.7410   33.0520   38.6410 C   0  0  0  0  0  0  0  0  0  0  0  0
   44.3720   33.2280   38.5360 C   0  0  0  0  0  0  0  0  0  0  0  0
   43.6680   33.7440   39.5680 C   0  0  0  0  0  0  0  0  0  0  0  0
   47.3900   33.2640   39.8090 H   0  0  0  0  0  0  0  0  0  0  0  0
   46.2860   32.6330   37.7900 H   0  0  0  0  0  0  0  0  0  0  0  0
   43.8880   32.9320   37.5870 H   0  0  0  0  0  0  0  0  0  0  0  0
   42.3180   33.8770   39.3570 O   0  0  0  0  0  0  0  0  0  0  0  0
   40.3980   34.4410   37.6630 O   0  0  0  0  0  0  0  0  0  0  0  0
   41.4710   35.0700   38.5080 P   0  0  0  0  0  0  0  0  0  0  0  0
   40.8030   36.1560   39.6250 O   0  0  0  0  0  0  0  0  0  0  0  0
   41.3700   36.9680   39.7440 H   0  0  0  0  0  0  0  0  0  0  0  0
   42.4980   35.9900   37.5200 O   0  0  0  0  0  0  0  0  0  0  0  0
   43.0310   35.3450   36.9630 H   0  0  0  0  0  0  0  0  0  0  0  0
  1  2  2  0  0  0  0
  1  6  1  0  0  0  0
  2  3  1  0  0  0  0
  3  7  1  0  0  0  0
  3  4  2  0  0  0  0
  5  4  1  0  0  0  0
  5  8  1  0  0  0  0
  6  5  2  0  0  0  0
  9 12  1  1  0  0  0
  9  2  1  0  0  0  0
 10 14  1  0  0  0  0
 10  9  1  0  0  0  0
 10 13  1  0  0  0  0
 11 15  1  6  0  0  0
 11 10  1  0  0  0  0
 11  9  1  0  0  0  0
 16 17  1  0  0  0  0
 16 11  1  0  0  0  0
 18 19  1  0  0  0  0
 19 20  1  0  0  0  0
 20 21  2  0  0  0  0
 21 16  1  0  0  0  0
 22 23  2  0  0  0  0
 22 21  1  0  0  0  0
 24 22  1  0  0  0  0
 25 24  1  0  0  0  0
 25 19  1  0  0  0  0
 26 25  2  0  0  0  0
 27 24  1  0  0  0  0
 28  1  1  0  0  0  0
 29 28  2  0  0  0  0
 31 32  1  0  0  0  0
 31 30  1  0  0  0  0
 32 28  1  0  0  0  0
 33 37  1  0  0  0  0
 33 32  2  0  0  0  0
 34 33  1  0  0  0  0
 35 34  2  0  0  0  0
 35 36  1  0  0  0  0
 36 31  2  0  0  0  0
 38 34  1  0  0  0  0
 39 35  1  0  0  0  0
 40 36  1  0  0  0  0
 41 42  2  0  0  0  0
 42 40  1  0  0  0  0
 42 43  1  0  0  0  0
 43 44  1  0  0  0  0
 45 42  1  0  0  0  0
 46 45  1  0  0  0  0
M  END
>  <minimizedAffinity>
-5.06633139

>  <minimizedRMSD>
3.84775901

$$$$
