REMARK  Name = 
REMARK  7 active torsions:
REMARK  status: ('A' for Active; 'I' for Inactive)
REMARK    1  A    between atoms: C_1  and  O_13
REMARK    2  A    between atoms: C_2  and  C_10
REMARK    3  A    between atoms: C_5  and  O_14
REMARK    4  A    between atoms: C_6  and  O_12
REMARK    5  A    between atoms: O_14  and  C_15
REMARK    6  A    between atoms: C_15  and  C_16
REMARK    7  A    between atoms: C_16  and  N_30
REMARK                            x       y       z     vdW  Elec       q    Type
REMARK                         _______ _______ _______ _____ _____    ______ ____
ROOT
ATOM      1  C   UNL     1      46.677  32.855  46.645  0.00  0.00    +0.000 C 
ATOM      2  C   UNL     1      47.047  32.740  45.220  0.00  0.00    +0.000 C 
ATOM      3  O   UNL     1      46.535  31.418  44.830  0.00  0.00    +0.000 OA
ATOM      4  C   UNL     1      47.213  30.712  45.862  0.00  0.00    +0.000 C 
ATOM      5  C   UNL     1      46.581  31.406  47.100  0.00  0.00    +0.000 C 
ATOM      6  H   UNL     1      47.391  33.434  47.231  0.00  0.00    +0.000 HD
ATOM      7  H   UNL     1      48.169  32.655  45.127  0.00  0.00    +0.000 HD
ATOM      8  H   UNL     1      47.117  29.656  45.846  0.00  0.00    +0.000 HD
ATOM      9  H   UNL     1      48.298  31.035  45.856  0.00  0.00    +0.000 HD
ATOM     10  H   UNL     1      47.199  31.148  47.973  0.00  0.00    +0.000 HD
ENDROOT
BRANCH   2  15
ATOM     11  C   UNL     1      44.713  35.238  43.975  0.00  0.00    +0.000 A 
ATOM     12  C   UNL     1      45.341  35.733  42.821  0.00  0.00    +0.000 A 
ATOM     13  C   UNL     1      46.586  35.203  42.446  0.00  0.00    +0.000 A 
ATOM     14  N   UNL     1      47.132  34.224  43.226  0.00  0.00    +0.000 NA
ATOM     15  C   UNL     1      46.505  33.767  44.332  0.00  0.00    +0.000 A 
ATOM     16  N   UNL     1      45.300  34.264  44.713  0.00  0.00    +0.000 NA
ATOM     17  H   UNL     1      44.874  36.502  42.240  0.00  0.00    +0.000 HD
ATOM     18  H   UNL     1      47.107  35.552  41.566  0.00  0.00    +0.000 HD
BRANCH  11  19
ATOM     19  O   UNL     1      43.480  35.741  44.381  0.00  0.00    +0.000 OA
ATOM     20  H   UNL     1      43.507  36.692  44.755  0.00  0.00    +0.000 HD
ENDBRANCH  11  19
ENDBRANCH   2  15
BRANCH   1  21
ATOM     21  O   UNL     1      45.361  33.429  46.751  0.00  0.00    +0.000 OA
ATOM     22  H   UNL     1      44.705  32.729  46.504  0.00  0.00    +0.000 HD
ENDBRANCH   1  21
BRANCH   5  23
ATOM     23  O   UNL     1      45.268  30.971  47.163  0.00  0.00    +0.000 OA
BRANCH  23  24
ATOM     24  C   UNL     1      45.000  30.131  48.221  0.00  0.00    +0.000 C 
ATOM     25  H   UNL     1      45.332  30.511  49.183  0.00  0.00    +0.000 HD
ATOM     26  H   UNL     1      43.819  30.305  48.332  0.00  0.00    +0.000 HD
BRANCH  24  27
ATOM     27  C   UNL     1      45.065  28.684  47.928  0.00  0.00    +0.000 C 
ATOM     28  H   UNL     1      46.038  28.349  47.500  0.00  0.00    +0.000 HD
ATOM     29  H   UNL     1      44.971  28.139  48.893  0.00  0.00    +0.000 HD
BRANCH  27  30
ATOM     30  N   UNL     1      44.065  28.229  46.986  0.00  0.00    +0.000 N 
ATOM     31  C   UNL     1      43.224  27.320  47.577  0.00  0.00    +0.000 A 
ATOM     32  C   UNL     1      42.154  26.699  46.962  0.00  0.00    +0.000 A 
ATOM     33  H   UNL     1      41.501  25.986  47.440  0.00  0.00    +0.000 HD
ATOM     34  C   UNL     1      41.883  26.995  45.645  0.00  0.00    +0.000 A 
ATOM     35  O   UNL     1      40.965  26.532  44.939  0.00  0.00    +0.000 OA
ATOM     36  N   UNL     1      42.707  27.879  45.080  0.00  0.00    +0.000 N 
ATOM     37  C   UNL     1      43.724  28.447  45.722  0.00  0.00    +0.000 A 
ATOM     38  O   UNL     1      44.477  29.272  45.160  0.00  0.00    +0.000 OA
ATOM     39  H   UNL     1      42.593  28.175  44.088  0.00  0.00    +0.000 HD
ENDBRANCH  27  30
ENDBRANCH  24  27
ENDBRANCH  23  24
ENDBRANCH   5  23
TORSDOF 7
