REMARK  Name = 
REMARK  4 active torsions:
REMARK  status: ('A' for Active; 'I' for Inactive)
REMARK    1  A    between atoms: C_1  and  C_10
REMARK    2  A    between atoms: C_6  and  C_18
REMARK    3  A    between atoms: C_7  and  C_16
REMARK    4  A    between atoms: C_18  and  C_38
REMARK                            x       y       z     vdW  Elec       q    Type
REMARK                         _______ _______ _______ _____ _____    ______ ____
ROOT
ATOM      1  C   UNL     1      47.555  29.981  48.277  0.00  0.00    +0.000 C 
ATOM      2  C   UNL     1      47.438  28.782  47.390  0.00  0.00    +0.000 C 
ATOM      3  C   UNL     1      48.744  28.049  47.176  0.00  0.00    +0.000 C 
ATOM      4  C   UNL     1      49.531  27.858  48.435  0.00  0.00    +0.000 C 
ATOM      5  C   UNL     1      49.564  29.092  49.279  0.00  0.00    +0.000 C 
ATOM      6  C   UNL     1      49.046  30.316  48.472  0.00  0.00    +0.000 C 
ATOM      7  H   UNL     1      47.173  29.777  49.297  0.00  0.00    +0.000 HD
ATOM      8  H   UNL     1      46.747  28.063  47.886  0.00  0.00    +0.000 HD
ATOM      9  H   UNL     1      47.016  28.982  46.396  0.00  0.00    +0.000 HD
ATOM     10  H   UNL     1      48.500  27.083  46.755  0.00  0.00    +0.000 HD
ATOM     11  H   UNL     1      49.333  28.626  46.436  0.00  0.00    +0.000 HD
ATOM     12  H   UNL     1      50.545  27.508  48.152  0.00  0.00    +0.000 HD
ATOM     13  H   UNL     1      49.054  27.059  49.047  0.00  0.00    +0.000 HD
ATOM     14  H   UNL     1      48.854  29.021  50.145  0.00  0.00    +0.000 HD
ATOM     15  H   UNL     1      50.594  29.282  49.620  0.00  0.00    +0.000 HD
ATOM     16  H   UNL     1      49.529  30.315  47.468  0.00  0.00    +0.000 HD
ENDROOT
BRANCH   1  20
ATOM     17  C   UNL     1      45.913  33.140  46.242  0.00  0.00    +0.000 A 
ATOM     18  C   UNL     1      45.338  32.935  47.491  0.00  0.00    +0.000 A 
ATOM     19  C   UNL     1      45.792  31.933  48.238  0.00  0.00    +0.000 A 
ATOM     20  C   UNL     1      46.834  31.105  47.767  0.00  0.00    +0.000 A 
ATOM     21  S   UNL     1      47.192  31.809  46.124  0.00  0.00    +0.000 S 
ATOM     22  H   UNL     1      44.542  33.578  47.840  0.00  0.00    +0.000 HD
ATOM     23  H   UNL     1      45.459  31.636  49.219  0.00  0.00    +0.000 HD
BRANCH  17  28
ATOM     24  C   UNL     1      44.432  36.107  44.540  0.00  0.00    +0.000 A 
ATOM     25  C   UNL     1      45.053  36.020  43.295  0.00  0.00    +0.000 A 
ATOM     26  C   UNL     1      45.950  34.959  43.091  0.00  0.00    +0.000 A 
ATOM     27  N   UNL     1      46.161  34.081  44.113  0.00  0.00    +0.000 NA
ATOM     28  C   UNL     1      45.543  34.202  45.295  0.00  0.00    +0.000 A 
ATOM     29  N   UNL     1      44.673  35.223  45.505  0.00  0.00    +0.000 NA
ATOM     30  H   UNL     1      43.733  36.908  44.741  0.00  0.00    +0.000 HD
ATOM     31  H   UNL     1      44.874  36.716  42.509  0.00  0.00    +0.000 HD
ATOM     32  H   UNL     1      46.474  34.820  42.153  0.00  0.00    +0.000 HD
ENDBRANCH  17  28
ENDBRANCH   1  20
BRANCH   6  33
ATOM     33  C   UNL     1      49.239  31.526  49.220  0.00  0.00    +0.000 C 
ATOM     34  O   UNL     1      49.959  31.549  50.204  0.00  0.00    +0.000 OA
BRANCH  33  38
ATOM     35  H   UNL     1      47.895  35.863  48.338  0.00  0.00    +0.000 HD
ATOM     36  N   UNL     1      48.350  35.164  48.954  0.00  0.00    +0.000 N 
ATOM     37  C   UNL     1      48.517  33.847  48.794  0.00  0.00    +0.000 A 
ATOM     38  C   UNL     1      49.101  32.873  49.562  0.00  0.00    +0.000 A 
ATOM     39  C   UNL     1      49.623  33.416  50.752  0.00  0.00    +0.000 A 
ATOM     40  O   UNL     1      50.240  32.841  51.724  0.00  0.00    +0.000 OA
ATOM     41  N   UNL     1      49.503  34.772  51.014  0.00  0.00    +0.000 N 
ATOM     42  C   UNL     1      48.888  35.534  50.116  0.00  0.00    +0.000 A 
ATOM     43  O   UNL     1      48.830  36.762  50.450  0.00  0.00    +0.000 OA
ATOM     44  H   UNL     1      49.895  35.148  51.899  0.00  0.00    +0.000 HD
ENDBRANCH  33  38
ENDBRANCH   6  33
TORSDOF 4
