REMARK  Name = 
REMARK  6 active torsions:
REMARK  status: ('A' for Active; 'I' for Inactive)
REMARK    1  A    between atoms: P_2  and  O_3
REMARK    2  A    between atoms: P_2  and  O_4
REMARK    3  A    between atoms: P_2  and  O_14
REMARK    4  A    between atoms: O_4  and  C_6
REMARK    5  A    between atoms: O_14  and  C_15
REMARK    6  A    between atoms: C_20  and  N_34
REMARK                            x       y       z     vdW  Elec       q    Type
REMARK                         _______ _______ _______ _____ _____    ______ ____
ROOT
ATOM      1  C   UNL     1      46.540  35.124  42.098  0.00  0.00    +0.000 C 
ATOM      2  C   UNL     1      45.492  35.610  43.017  0.00  0.00    +0.000 C 
ATOM      3  C   UNL     1      44.186  35.746  42.306  0.00  0.00    +0.000 C 
ATOM      4  O   UNL     1      43.652  34.520  41.921  0.00  0.00    +0.000 OA
ATOM      5  C   UNL     1      44.646  33.584  41.721  0.00  0.00    +0.000 C 
ATOM      6  C   UNL     1      45.867  34.215  41.088  0.00  0.00    +0.000 C 
ATOM      7  H   UNL     1      46.963  36.004  41.551  0.00  0.00    +0.000 HD
ATOM      8  H   UNL     1      45.754  36.552  43.542  0.00  0.00    +0.000 HD
ATOM      9  H   UNL     1      45.309  34.877  43.856  0.00  0.00    +0.000 HD
ATOM     10  H   UNL     1      43.465  36.088  43.115  0.00  0.00    +0.000 HD
ATOM     11  H   UNL     1      44.114  36.540  41.560  0.00  0.00    +0.000 HD
ATOM     12  H   UNL     1      44.996  33.169  42.700  0.00  0.00    +0.000 HD
ATOM     13  H   UNL     1      44.226  32.755  41.159  0.00  0.00    +0.000 HD
ATOM     14  H   UNL     1      46.563  33.339  41.009  0.00  0.00    +0.000 HD
ENDROOT
BRANCH   6  15
ATOM     15  N   UNL     1      45.698  34.666  39.771  0.00  0.00    +0.000 N 
ATOM     16  C   UNL     1      46.591  34.861  38.787  0.00  0.00    +0.000 A 
ATOM     17  C   UNL     1      46.354  35.306  37.516  0.00  0.00    +0.000 A 
ATOM     18  H   UNL     1      47.170  35.420  36.813  0.00  0.00    +0.000 HD
ATOM     19  C   UNL     1      45.054  35.596  37.180  0.00  0.00    +0.000 A 
ATOM     20  O   UNL     1      44.760  36.005  36.043  0.00  0.00    +0.000 OA
ATOM     21  N   UNL     1      44.158  35.404  38.158  0.00  0.00    +0.000 N 
ATOM     22  C   UNL     1      44.411  34.964  39.405  0.00  0.00    +0.000 A 
ATOM     23  O   UNL     1      43.443  34.831  40.231  0.00  0.00    +0.000 OA
ATOM     24  H   UNL     1      43.155  35.615  37.938  0.00  0.00    +0.000 HD
ENDBRANCH   6  15
BRANCH   1  25
ATOM     25  O   UNL     1      47.622  34.555  42.656  0.00  0.00    +0.000 OA
BRANCH  25  27
ATOM     26  O   UNL     1      50.222  34.905  42.708  0.00  0.00    +0.000 OA
ATOM     27  P   UNL     1      49.057  34.618  41.841  0.00  0.00    +0.000 P 
BRANCH  27  28
ATOM     28  O   UNL     1      48.971  35.873  40.692  0.00  0.00    +0.000 OA
ATOM     29  H   UNL     1      48.851  36.714  41.225  0.00  0.00    +0.000 HD
ENDBRANCH  27  28
BRANCH  27  30
ATOM     30  O   UNL     1      49.313  33.158  40.959  0.00  0.00    +0.000 OA
BRANCH  30  32
ATOM     31  C   UNL     1      49.532  31.438  42.558  0.00  0.00    +0.000 A 
ATOM     32  C   UNL     1      50.055  32.119  41.484  0.00  0.00    +0.000 A 
ATOM     33  C   UNL     1      51.318  31.722  40.974  0.00  0.00    +0.000 A 
ATOM     34  N   UNL     1      51.932  30.687  41.586  0.00  0.00    +0.000 NA
ATOM     35  C   UNL     1      51.398  30.057  42.616  0.00  0.00    +0.000 A 
ATOM     36  N   UNL     1      50.190  30.443  43.098  0.00  0.00    +0.000 NA
ATOM     37  C   UNL     1      47.089  31.037  42.831  0.00  0.00    +0.000 C 
ATOM     38  O   UNL     1      46.921  30.698  41.600  0.00  0.00    +0.000 OA
ATOM     39  N   UNL     1      48.385  31.435  43.395  0.00  0.00    +0.000 N 
ATOM     40  H   UNL     1      51.639  32.311  40.139  0.00  0.00    +0.000 HD
ATOM     41  H   UNL     1      51.937  29.241  43.059  0.00  0.00    +0.000 HD
ATOM     42  H   UNL     1      46.171  30.997  43.404  0.00  0.00    +0.000 HD
ATOM     43  H   UNL     1      48.315  31.685  44.387  0.00  0.00    +0.000 HD
ENDBRANCH  30  32
ENDBRANCH  27  30
ENDBRANCH  25  27
ENDBRANCH   1  25
TORSDOF 6
