REMARK  Name = 
REMARK  6 active torsions:
REMARK  status: ('A' for Active; 'I' for Inactive)
REMARK    1  A    between atoms: C_2  and  C_14
REMARK    2  A    between atoms: C_5  and  C_8
REMARK    3  A    between atoms: C_7  and  O_12
REMARK    4  A    between atoms: C_11  and  O_13
REMARK    5  A    between atoms: C_14  and  C_15
REMARK    6  A    between atoms: C_20  and  N_36
REMARK                            x       y       z     vdW  Elec       q    Type
REMARK                         _______ _______ _______ _____ _____    ______ ____
ROOT
ATOM      1  C   UNL     1      45.918  35.611  42.713  0.00  0.00    +0.000 C 
ATOM      2  H   UNL     1      45.618  36.634  43.046  0.00  0.00    +0.000 HD
ATOM      3  H   UNL     1      46.940  35.747  42.306  0.00  0.00    +0.000 HD
ENDROOT
BRANCH   1   4
ATOM      4  C   UNL     1      44.937  35.174  41.713  0.00  0.00    +0.000 A 
ATOM      5  C   UNL     1      43.660  35.672  41.587  0.00  0.00    +0.000 A 
ATOM      6  C   UNL     1      42.773  35.221  40.637  0.00  0.00    +0.000 A 
ATOM      7  C   UNL     1      43.191  34.222  39.775  0.00  0.00    +0.000 A 
ATOM      8  C   UNL     1      44.485  33.708  39.892  0.00  0.00    +0.000 A 
ATOM      9  C   UNL     1      45.371  34.183  40.865  0.00  0.00    +0.000 A 
ATOM     10  H   UNL     1      43.459  36.456  42.330  0.00  0.00    +0.000 HD
ATOM     11  H   UNL     1      41.795  35.689  40.633  0.00  0.00    +0.000 HD
ATOM     12  H   UNL     1      42.422  33.940  39.070  0.00  0.00    +0.000 HD
ATOM     13  H   UNL     1      44.596  32.941  39.122  0.00  0.00    +0.000 HD
BRANCH   9  14
ATOM     14  N   UNL     1      46.563  33.445  40.667  0.00  0.00    +0.000 N 
ATOM     15  C   UNL     1      46.469  32.400  39.787  0.00  0.00    +0.000 A 
ATOM     16  C   UNL     1      47.535  31.562  39.449  0.00  0.00    +0.000 A 
ATOM     17  H   UNL     1      47.377  30.758  38.745  0.00  0.00    +0.000 HD
ATOM     18  C   UNL     1      48.723  31.839  40.055  0.00  0.00    +0.000 A 
ATOM     19  O   UNL     1      49.726  31.115  39.789  0.00  0.00    +0.000 OA
ATOM     20  N   UNL     1      48.838  32.859  40.919  0.00  0.00    +0.000 N 
ATOM     21  C   UNL     1      47.788  33.611  41.193  0.00  0.00    +0.000 A 
ATOM     22  O   UNL     1      47.902  34.566  42.002  0.00  0.00    +0.000 OA
ATOM     23  H   UNL     1      49.745  33.068  41.380  0.00  0.00    +0.000 HD
ENDBRANCH   9  14
ENDBRANCH   1   4
BRANCH   1  25
ATOM     24  C   UNL     1      45.001  34.908  44.907  0.00  0.00    +0.000 A 
ATOM     25  C   UNL     1      45.904  34.723  43.865  0.00  0.00    +0.000 A 
ATOM     26  C   UNL     1      46.788  33.649  43.977  0.00  0.00    +0.000 A 
ATOM     27  N   UNL     1      46.765  32.827  45.047  0.00  0.00    +0.000 NA
ATOM     28  C   UNL     1      45.868  33.042  46.043  0.00  0.00    +0.000 A 
ATOM     29  N   UNL     1      44.991  34.075  45.975  0.00  0.00    +0.000 NA
ATOM     30  H   UNL     1      44.320  35.722  44.839  0.00  0.00    +0.000 HD
ATOM     31  H   UNL     1      47.531  33.423  43.258  0.00  0.00    +0.000 HD
BRANCH  28  33
ATOM     32  C   UNL     1      47.323  31.827  47.653  0.00  0.00    +0.000 C 
ATOM     33  C   UNL     1      45.871  32.125  47.182  0.00  0.00    +0.000 C 
ATOM     34  O   UNL     1      45.369  32.622  48.337  0.00  0.00    +0.000 OA
ATOM     35  C   UNL     1      45.748  31.798  49.353  0.00  0.00    +0.000 C 
ATOM     36  C   UNL     1      46.949  30.992  48.884  0.00  0.00    +0.000 C 
ATOM     37  H   UNL     1      47.848  31.239  46.893  0.00  0.00    +0.000 HD
ATOM     38  H   UNL     1      45.399  31.157  46.900  0.00  0.00    +0.000 HD
ATOM     39  H   UNL     1      46.091  32.417  50.211  0.00  0.00    +0.000 HD
ATOM     40  H   UNL     1      44.943  31.148  49.742  0.00  0.00    +0.000 HD
ATOM     41  H   UNL     1      46.559  29.995  48.587  0.00  0.00    +0.000 HD
BRANCH  32  42
ATOM     42  O   UNL     1      47.914  32.953  48.090  0.00  0.00    +0.000 OA
ATOM     43  H   UNL     1      48.908  32.856  48.025  0.00  0.00    +0.000 HD
ENDBRANCH  32  42
BRANCH  36  44
ATOM     44  O   UNL     1      47.965  30.918  49.805  0.00  0.00    +0.000 OA
ATOM     45  H   UNL     1      47.808  31.521  50.552  0.00  0.00    +0.000 HD
ENDBRANCH  36  44
ENDBRANCH  28  33
ENDBRANCH   1  25
TORSDOF 6
