
 OpenBabel03242522333D

 22 23  0  0  0  0  0  0  0  0999 V2000
   45.9280   31.0320   46.3460 C   0  0  0  0  0  0  0  0  0  0  0  0
   44.9090   31.1500   46.7900 H   0  0  0  0  0  0  0  0  0  0  0  0
   45.9170   30.0770   45.7950 H   0  0  0  0  0  0  0  0  0  0  0  0
   46.9040   30.8970   47.4090 N   0  0  0  0  0  0  0  0  0  0  0  0
   47.9960   30.1370   47.1830 C   0  0  0  0  0  0  0  0  0  0  0  0
   48.9470   29.9960   48.1970 C   0  0  0  0  0  0  0  0  0  0  0  0
   49.8520   29.4070   48.1020 H   0  0  0  0  0  0  0  0  0  0  0  0
   48.7460   30.6440   49.4210 C   0  0  0  0  0  0  0  0  0  0  0  0
   49.5590   30.5510   50.3510 O   0  0  0  0  0  0  0  0  0  0  0  0
   47.6230   31.3620   49.5030 N   0  0  0  0  0  0  0  0  0  0  0  0
   46.6730   31.5410   48.5780 C   0  0  0  0  0  0  0  0  0  0  0  0
   45.6580   32.2470   48.7880 O   0  0  0  0  0  0  0  0  0  0  0  0
   47.4700   31.8520   50.4270 H   0  0  0  0  0  0  0  0  0  0  0  0
   45.9000   34.3090   44.5740 C   0  0  0  0  0  0  0  0  0  0  0  0
   46.9270   34.1380   43.6250 C   0  0  0  0  0  0  0  0  0  0  0  0
   47.5800   32.9140   43.6340 C   0  0  0  0  0  0  0  0  0  0  0  0
   47.2290   31.9500   44.5210 N   0  0  0  0  0  0  0  0  0  0  0  0
   46.2230   32.1650   45.4250 C   0  0  0  0  0  0  0  0  0  0  0  0
   45.5840   33.3380   45.4280 N   0  0  0  0  0  0  0  0  0  0  0  0
   45.3510   35.2590   44.6100 H   0  0  0  0  0  0  0  0  0  0  0  0
   47.1820   34.9220   42.9350 H   0  0  0  0  0  0  0  0  0  0  0  0
   48.3730   32.7500   42.9200 H   0  0  0  0  0  0  0  0  0  0  0  0
  1  2  1  0  0  0  0
  1  4  1  0  0  0  0
  3  1  1  0  0  0  0
  4 11  1  0  0  0  0
  5  4  1  0  0  0  0
  5  6  2  0  0  0  0
  6  8  1  0  0  0  0
  7  6  1  0  0  0  0
  8 10  1  0  0  0  0
  8  9  2  0  0  0  0
 10 13  1  0  0  0  0
 11 12  2  0  0  0  0
 11 10  1  0  0  0  0
 14 20  1  0  0  0  0
 14 19  1  0  0  0  0
 15 16  1  0  0  0  0
 15 14  2  0  0  0  0
 16 17  2  0  0  0  0
 17 18  1  0  0  0  0
 18 19  2  0  0  0  0
 18  1  1  0  0  0  0
 21 15  1  0  0  0  0
 22 16  1  0  0  0  0
M  END
>  <minimizedAffinity>
-4.10433006

>  <minimizedRMSD>
2.98511052

$$$$
