
 OpenBabel03252507133D

 43 45  0  0  1  0  0  0  0  0999 V2000
   45.3570   30.7860   42.5190 C   0  0  2  0  0  0  0  0  0  0  0  0
   44.6570   30.1970   41.3610 C   0  0  0  0  0  0  0  0  0  0  0  0
   44.3610   31.2400   40.3350 C   0  0  0  0  0  0  0  0  0  0  0  0
   45.5090   31.7360   39.7240 O   0  0  0  0  0  0  0  0  0  0  0  0
   46.6010   31.6410   40.5630 C   0  0  0  0  0  0  0  0  0  0  0  0
   46.2100   31.9260   41.9970 C   0  0  1  0  0  0  0  0  0  0  0  0
   44.5900   31.2110   43.2150 H   0  0  0  0  0  0  0  0  0  0  0  0
   43.7370   29.6360   41.6280 H   0  0  0  0  0  0  0  0  0  0  0  0
   45.2980   29.4280   40.8400 H   0  0  0  0  0  0  0  0  0  0  0  0
   43.8600   30.6650   39.4920 H   0  0  0  0  0  0  0  0  0  0  0  0
   43.6130   31.9910   40.5990 H   0  0  0  0  0  0  0  0  0  0  0  0
   47.0040   30.5960   40.5650 H   0  0  0  0  0  0  0  0  0  0  0  0
   47.3860   32.2820   40.1750 H   0  0  0  0  0  0  0  0  0  0  0  0
   47.1880   31.7970   42.5310 H   0  0  0  0  0  0  0  0  0  0  0  0
   45.8200   33.2470   42.2640 N   0  0  0  0  0  0  0  0  0  0  0  0
   44.6710   33.8930   42.0080 C   0  0  0  0  0  3  0  0  0  0  0  0
   44.3580   35.1920   42.2990 C   0  0  0  0  0  0  0  0  0  0  0  0
   43.3870   35.5940   42.0370 H   0  0  0  0  0  0  0  0  0  0  0  0
   45.3160   35.9480   42.9290 C   0  0  0  0  0  0  0  0  0  0  0  0
   45.1040   37.1360   43.2260 O   0  0  0  0  0  0  0  0  0  0  0  0
   46.4650   35.3080   43.1870 N   0  0  0  0  0  0  0  0  0  0  0  0
   46.7560   34.0270   42.8930 C   0  0  0  0  0  0  0  0  0  0  0  0
   47.9040   33.5570   43.2050 O   0  0  0  0  0  0  0  0  0  0  0  0
   47.2210   35.8540   43.6670 H   0  0  0  0  0  0  0  0  0  0  0  0
   46.0540   29.9440   43.3010 O   0  0  0  0  0  0  0  0  0  0  0  0
   45.5890   29.1880   45.7710 O   0  0  0  0  0  0  0  0  0  0  0  0
   46.1470   30.2630   44.9190 P   0  0  2  0  0  0  0  0  0  0  0  0
   45.2480   31.6730   45.2450 O   0  0  0  0  0  0  0  0  0  0  0  0
   44.3020   31.4470   45.0020 H   0  0  0  0  0  0  0  0  0  0  0  0
   47.7770   30.6000   45.3730 O   0  0  0  0  0  0  0  0  0  0  0  0
   49.1400   28.7270   45.8150 C   0  0  0  0  0  0  0  0  0  0  0  0
   48.4470   29.8160   46.2900 C   0  0  0  0  0  0  0  0  0  0  0  0
   48.4580   30.0760   47.6850 C   0  0  0  0  0  0  0  0  0  0  0  0
   49.1570   29.2250   48.4650 N   0  0  0  0  0  0  0  0  0  0  0  0
   49.8110   28.1890   47.9720 C   0  0  0  0  0  0  0  0  0  0  0  0
   49.7950   27.9470   46.6380 N   0  0  0  0  0  0  0  0  0  0  0  0
   50.2930   28.7300   43.6080 C   0  0  0  0  0  0  0  0  0  0  0  0
   50.8030   29.9000   43.7800 O   0  0  0  0  0  0  0  0  0  0  0  0
   49.4300   28.0660   44.5930 N   0  0  0  0  0  0  0  0  0  0  0  0
   47.8920   30.9440   47.9550 H   0  0  0  0  0  0  0  0  0  0  0  0
   50.3490   27.5490   48.6460 H   0  0  0  0  0  0  0  0  0  0  0  0
   50.5710   28.2890   42.6590 H   0  0  0  0  0  0  0  0  0  0  0  0
   49.1090   27.1470   44.2690 H   0  0  0  0  0  0  0  0  0  0  0  0
  1  7  1  1  0  0  0
  1 25  1  0  0  0  0
  2  8  1  0  0  0  0
  2  1  1  0  0  0  0
  3 11  1  0  0  0  0
  3  2  1  0  0  0  0
  4  3  1  0  0  0  0
  4  5  1  0  0  0  0
  5 12  1  0  0  0  0
  5  6  1  0  0  0  0
  6 15  1  0  0  0  0
  6  1  1  0  0  0  0
  6 14  1  1  0  0  0
  9  2  1  0  0  0  0
 10  3  1  0  0  0  0
 13  5  1  0  0  0  0
 15 22  1  0  0  0  0
 16 15  1  0  0  0  0
 16 17  2  0  0  0  0
 17 19  1  0  0  0  0
 18 17  1  0  0  0  0
 19 21  1  0  0  0  0
 19 20  2  0  0  0  0
 21 24  1  0  0  0  0
 22 21  1  0  0  0  0
 22 23  2  0  0  0  0
 25 27  1  0  0  0  0
 27 28  1  0  0  0  0
 27 30  1  0  0  0  0
 27 26  2  1  0  0  0
 29 28  1  0  0  0  0
 30 32  1  0  0  0  0
 31 32  2  0  0  0  0
 31 36  1  0  0  0  0
 32 33  1  0  0  0  0
 33 40  1  0  0  0  0
 33 34  2  0  0  0  0
 35 34  1  0  0  0  0
 35 41  1  0  0  0  0
 36 35  2  0  0  0  0
 37 38  2  0  0  0  0
 37 39  1  0  0  0  0
 39 31  1  0  0  0  0
 42 37  1  0  0  0  0
 43 39  1  0  0  0  0
M  END
>  <minimizedAffinity>
-3.57357478

>  <minimizedRMSD>
5.331532

$$$$
