
 OpenBabel03252504413D

 46 49  0  0  0  0  0  0  0  0999 V2000
   45.2910   32.8440   47.3830 C   0  0  0  0  0  0  0  0  0  0  0  0
   44.8810   33.6250   48.0590 H   0  0  0  0  0  0  0  0  0  0  0  0
   44.4610   32.1510   47.1400 H   0  0  0  0  0  0  0  0  0  0  0  0
   46.2880   32.0710   48.1860 C   0  0  0  0  0  0  0  0  0  0  0  0
   46.0180   31.1990   49.2070 C   0  0  0  0  0  0  0  0  0  0  0  0
   47.1940   30.7460   49.6290 N   0  0  0  0  0  0  0  0  0  0  0  0
   48.1980   31.2780   48.9380 C   0  0  0  0  0  0  0  0  0  0  0  0
   47.6210   32.1100   48.0310 N   0  0  0  0  0  0  0  0  0  0  0  0
   49.6050   31.1080   49.0140 N   0  0  0  0  0  0  0  0  0  0  0  0
   50.3670   31.9680   49.9220 C   0  0  0  0  0  0  0  0  0  0  0  0
   50.6980   31.0750   51.1140 C   0  0  0  0  0  0  0  0  0  0  0  0
   51.2540   29.7540   50.6360 C   0  0  0  0  0  0  0  0  0  0  0  0
   51.7000   29.8910   49.1870 C   0  0  0  0  0  0  0  0  0  0  0  0
   50.4920   30.1950   48.3280 C   0  0  0  0  0  0  0  0  0  0  0  0
   45.0330   30.9240   49.6050 H   0  0  0  0  0  0  0  0  0  0  0  0
   47.3330   30.0550   50.4100 H   0  0  0  0  0  0  0  0  0  0  0  0
   49.7600   32.8260   50.2520 H   0  0  0  0  0  0  0  0  0  0  0  0
   51.2830   32.3660   49.4620 H   0  0  0  0  0  0  0  0  0  0  0  0
   49.7670   30.9400   51.6930 H   0  0  0  0  0  0  0  0  0  0  0  0
   51.4690   31.5980   51.7140 H   0  0  0  0  0  0  0  0  0  0  0  0
   52.0390   29.3540   51.2740 H   0  0  0  0  0  0  0  0  0  0  0  0
   50.4090   29.0350   50.6110 H   0  0  0  0  0  0  0  0  0  0  0  0
   52.0530   28.8700   48.8870 H   0  0  0  0  0  0  0  0  0  0  0  0
   52.4970   30.6430   49.0570 H   0  0  0  0  0  0  0  0  0  0  0  0
   49.9820   29.2990   47.9570 H   0  0  0  0  0  0  0  0  0  0  0  0
   50.8570   30.7560   47.4170 H   0  0  0  0  0  0  0  0  0  0  0  0
   45.8710   32.8130   44.9950 C   0  0  0  0  0  3  0  0  0  0  0  0
   45.9120   33.4090   46.1770 C   0  0  0  0  0  3  0  0  0  0  0  0
   46.5320   33.4850   43.8680 C   0  0  0  0  0  0  0  0  0  0  0  0
   46.1060   34.7490   43.4110 C   0  0  0  0  0  0  0  0  0  0  0  0
   46.7890   35.3040   42.3420 C   0  0  0  0  0  0  0  0  0  0  0  0
   47.8090   34.6390   41.7890 N   0  0  0  0  0  0  0  0  0  0  0  0
   48.2070   33.4200   42.2420 C   0  0  0  0  0  0  0  0  0  0  0  0
   47.5680   32.8730   43.2610 N   0  0  0  0  0  0  0  0  0  0  0  0
   45.2790   35.1740   43.9380 H   0  0  0  0  0  0  0  0  0  0  0  0
   46.4340   36.2650   42.0250 H   0  0  0  0  0  0  0  0  0  0  0  0
   49.3080   32.8060   41.5730 N   0  0  0  0  0  0  0  0  0  0  0  0
   50.4220   32.4240   42.2200 C   0  0  0  0  0  3  0  0  0  0  0  0
   51.5060   31.8230   41.5820 C   0  0  0  0  0  0  0  0  0  0  0  0
   52.3980   31.5190   42.1090 H   0  0  0  0  0  0  0  0  0  0  0  0
   51.3400   31.6510   40.2230 C   0  0  0  0  0  0  0  0  0  0  0  0
   52.2890   31.1070   39.5670 O   0  0  0  0  0  0  0  0  0  0  0  0
   50.2540   32.0100   39.5210 N   0  0  0  0  0  0  0  0  0  0  0  0
   49.2770   32.5790   40.2500 C   0  0  0  0  0  0  0  0  0  0  0  0
   48.2250   32.9380   39.6300 O   0  0  0  0  0  0  0  0  0  0  0  0
   50.1670   31.8620   38.4920 H   0  0  0  0  0  0  0  0  0  0  0  0
  1  2  1  0  0  0  0
  1  4  1  0  0  0  0
  3  1  1  0  0  0  0
  4  5  2  0  0  0  0
  5 15  1  0  0  0  0
  5  6  1  0  0  0  0
  6 16  1  0  0  0  0
  7  9  1  0  0  0  0
  7  6  1  0  0  0  0
  8  4  1  0  0  0  0
  8  7  2  0  0  0  0
  9 10  1  0  0  0  0
 10 17  1  0  0  0  0
 10 11  1  0  0  0  0
 11 19  1  0  0  0  0
 11 20  1  0  0  0  0
 12 11  1  0  0  0  0
 12 21  1  0  0  0  0
 13 12  1  0  0  0  0
 14  9  1  0  0  0  0
 14 13  1  0  0  0  0
 18 10  1  0  0  0  0
 22 12  1  0  0  0  0
 23 13  1  0  0  0  0
 24 13  1  0  0  0  0
 25 14  1  0  0  0  0
 26 14  1  0  0  0  0
 27 28  2  0  0  0  0
 28  1  1  0  0  0  0
 29 27  1  0  0  0  0
 30 29  1  0  0  0  0
 30 35  1  0  0  0  0
 31 30  2  0  0  0  0
 32 33  2  0  0  0  0
 32 31  1  0  0  0  0
 33 34  1  0  0  0  0
 34 29  2  0  0  0  0
 36 31  1  0  0  0  0
 37 38  1  0  0  0  0
 37 33  1  0  0  0  0
 39 40  1  0  0  0  0
 39 38  2  0  0  0  0
 41 39  1  0  0  0  0
 42 41  2  0  0  0  0
 43 41  1  0  0  0  0
 43 44  1  0  0  0  0
 44 37  1  0  0  0  0
 45 44  2  0  0  0  0
 46 43  1  0  0  0  0
M  END
>  <minimizedAffinity>
-6.87192631

>  <minimizedRMSD>
1.37720513

$$$$
