
 OpenBabel03252501563D

 22 23  0  0  0  0  0  0  0  0999 V2000
   38.1220   26.9440   41.5460 C   0  0  0  0  0  0  0  0  0  0  0  0
   38.1380   28.2720   41.1030 C   0  0  0  0  0  0  0  0  0  0  0  0
   37.8400   29.2840   42.0030 C   0  0  0  0  0  0  0  0  0  0  0  0
   37.5490   28.9250   43.2690 N   0  0  0  0  0  0  0  0  0  0  0  0
   37.5380   27.6490   43.6800 C   0  0  0  0  0  0  0  0  0  0  0  0
   37.8240   26.6180   42.8290 N   0  0  0  0  0  0  0  0  0  0  0  0
   38.3360   26.0910   40.9350 H   0  0  0  0  0  0  0  0  0  0  0  0
   37.2870   27.5120   44.7190 H   0  0  0  0  0  0  0  0  0  0  0  0
   37.8880   30.5670   41.4460 N   0  0  0  0  0  0  0  0  0  0  0  0
   39.0910   31.2070   41.5250 C   0  0  0  0  0  3  0  0  0  0  0  0
   39.2210   32.4900   40.9940 C   0  0  0  0  0  0  0  0  0  0  0  0
   40.1430   33.0570   41.0210 H   0  0  0  0  0  0  0  0  0  0  0  0
   38.0880   32.9970   40.4250 C   0  0  0  0  0  0  0  0  0  0  0  0
   38.1840   34.1610   39.9350 O   0  0  0  0  0  0  0  0  0  0  0  0
   36.8940   32.4190   40.3190 N   0  0  0  0  0  0  0  0  0  0  0  0
   36.8190   31.1670   40.8540 C   0  0  0  0  0  0  0  0  0  0  0  0
   35.7260   30.5130   40.8140 O   0  0  0  0  0  0  0  0  0  0  0  0
   36.0730   32.8630   39.8720 H   0  0  0  0  0  0  0  0  0  0  0  0
   38.4850   28.4260   39.6730 C   0  0  0  0  0  0  0  0  0  0  0  0
   37.8490   27.8230   38.9900 H   0  0  0  0  0  0  0  0  0  0  0  0
   38.3480   29.4900   39.3230 H   0  0  0  0  0  0  0  0  0  0  0  0
   39.5600   28.1250   39.5460 H   0  0  0  0  0  0  0  0  0  0  0  0
  1  6  1  0  0  0  0
  2  1  2  0  0  0  0
  2  3  1  0  0  0  0
  3  4  2  0  0  0  0
  4  5  1  0  0  0  0
  5  8  1  0  0  0  0
  6  5  2  0  0  0  0
  7  1  1  0  0  0  0
  9 10  1  0  0  0  0
  9  3  1  0  0  0  0
 11 12  1  0  0  0  0
 11 10  2  0  0  0  0
 13 11  1  0  0  0  0
 14 13  2  0  0  0  0
 15 13  1  0  0  0  0
 15 16  1  0  0  0  0
 16  9  1  0  0  0  0
 17 16  2  0  0  0  0
 18 15  1  0  0  0  0
 19  2  1  0  0  0  0
 20 19  1  0  0  0  0
 21 19  1  0  0  0  0
 22 19  1  0  0  0  0
M  END
>  <minimizedAffinity>
-4.76009417

$$$$

 OpenBabel03252501563D

 22 23  0  0  0  0  0  0  0  0999 V2000
   40.2140   32.2640   38.9140 C   0  0  0  0  0  0  0  0  0  0  0  0
   39.5550   31.3020   39.6900 C   0  0  0  0  0  0  0  0  0  0  0  0
   38.8870   31.7060   40.8350 C   0  0  0  0  0  0  0  0  0  0  0  0
   38.9090   33.0180   41.1400 N   0  0  0  0  0  0  0  0  0  0  0  0
   39.5430   33.9290   40.3880 C   0  0  0  0  0  0  0  0  0  0  0  0
   40.2160   33.5790   39.2510 N   0  0  0  0  0  0  0  0  0  0  0  0
   40.7570   32.0610   38.0150 H   0  0  0  0  0  0  0  0  0  0  0  0
   39.4760   34.9410   40.7540 H   0  0  0  0  0  0  0  0  0  0  0  0
   38.2680   30.6570   41.5260 N   0  0  0  0  0  0  0  0  0  0  0  0
   39.0580   29.9740   42.4050 C   0  0  0  0  0  3  0  0  0  0  0  0
   38.5180   28.9140   43.1320 C   0  0  0  0  0  0  0  0  0  0  0  0
   39.0830   28.3290   43.8460 H   0  0  0  0  0  0  0  0  0  0  0  0
   37.1990   28.6560   42.8820 C   0  0  0  0  0  0  0  0  0  0  0  0
   36.6880   27.6970   43.5330 O   0  0  0  0  0  0  0  0  0  0  0  0
   36.3850   29.2870   42.0410 N   0  0  0  0  0  0  0  0  0  0  0  0
   36.9610   30.3140   41.3540 C   0  0  0  0  0  0  0  0  0  0  0  0
   36.2820   30.9940   40.5180 O   0  0  0  0  0  0  0  0  0  0  0  0
   35.3910   29.0380   41.9010 H   0  0  0  0  0  0  0  0  0  0  0  0
   39.6660   29.9250   39.1610 C   0  0  0  0  0  0  0  0  0  0  0  0
   40.7130   29.5950   38.9840 H   0  0  0  0  0  0  0  0  0  0  0  0
   39.2480   29.1660   39.8850 H   0  0  0  0  0  0  0  0  0  0  0  0
   39.0910   29.8800   38.1970 H   0  0  0  0  0  0  0  0  0  0  0  0
  1  6  2  0  0  0  0
  1  2  1  0  0  0  0
  2  3  2  0  0  0  0
  3  4  1  0  0  0  0
  3  9  1  0  0  0  0
  5  8  1  0  0  0  0
  5  4  2  0  0  0  0
  6  5  1  0  0  0  0
  7  1  1  0  0  0  0
  9 10  1  0  0  0  0
 10 11  2  0  0  0  0
 11 12  1  0  0  0  0
 13 11  1  0  0  0  0
 13 14  2  0  0  0  0
 15 13  1  0  0  0  0
 16  9  1  0  0  0  0
 16 15  1  0  0  0  0
 17 16  2  0  0  0  0
 18 15  1  0  0  0  0
 19  2  1  0  0  0  0
 19 21  1  0  0  0  0
 20 19  1  0  0  0  0
 22 19  1  0  0  0  0
M  END
>  <minimizedAffinity>
-4.51588345

$$$$

 OpenBabel03252501563D

 22 23  0  0  0  0  0  0  0  0999 V2000
   37.3100   26.6430   42.5310 C   0  0  0  0  0  0  0  0  0  0  0  0
   37.4780   28.0090   42.2750 C   0  0  0  0  0  0  0  0  0  0  0  0
   37.4510   28.4540   40.9630 C   0  0  0  0  0  0  0  0  0  0  0  0
   37.2620   27.5350   39.9970 N   0  0  0  0  0  0  0  0  0  0  0  0
   37.1020   26.2290   40.2560 C   0  0  0  0  0  0  0  0  0  0  0  0
   37.1210   25.7430   41.5330 N   0  0  0  0  0  0  0  0  0  0  0  0
   37.3140   26.1960   43.5040 H   0  0  0  0  0  0  0  0  0  0  0  0
   36.9600   25.6110   39.3840 H   0  0  0  0  0  0  0  0  0  0  0  0
   37.6300   29.8370   40.8330 N   0  0  0  0  0  0  0  0  0  0  0  0
   38.9230   30.2730   40.8310 C   0  0  0  0  0  3  0  0  0  0  0  0
   39.1860   31.6370   40.7070 C   0  0  0  0  0  0  0  0  0  0  0  0
   40.1850   32.0550   40.6970 H   0  0  0  0  0  0  0  0  0  0  0  0
   38.0790   32.4300   40.5940 C   0  0  0  0  0  0  0  0  0  0  0  0
   38.2950   33.6740   40.4780 O   0  0  0  0  0  0  0  0  0  0  0  0
   36.8010   32.0600   40.5880 N   0  0  0  0  0  0  0  0  0  0  0  0
   36.5980   30.7180   40.7130 C   0  0  0  0  0  0  0  0  0  0  0  0
   35.4160   30.2420   40.7220 O   0  0  0  0  0  0  0  0  0  0  0  0
   36.0080   32.7170   40.4980 H   0  0  0  0  0  0  0  0  0  0  0  0
   37.6710   28.8300   43.4910 C   0  0  0  0  0  0  0  0  0  0  0  0
   38.4990   28.4770   44.1430 H   0  0  0  0  0  0  0  0  0  0  0  0
   37.9440   29.8950   43.2360 H   0  0  0  0  0  0  0  0  0  0  0  0
   36.7080   28.8180   44.0690 H   0  0  0  0  0  0  0  0  0  0  0  0
  1  7  1  0  0  0  0
  2  1  1  0  0  0  0
  2 19  1  0  0  0  0
  3  2  2  0  0  0  0
  4  5  2  0  0  0  0
  4  3  1  0  0  0  0
  5  6  1  0  0  0  0
  6  1  2  0  0  0  0
  8  5  1  0  0  0  0
  9  3  1  0  0  0  0
 10  9  1  0  0  0  0
 11 10  2  0  0  0  0
 12 11  1  0  0  0  0
 13 11  1  0  0  0  0
 14 13  2  0  0  0  0
 15 13  1  0  0  0  0
 15 16  1  0  0  0  0
 16 17  2  0  0  0  0
 16  9  1  0  0  0  0
 18 15  1  0  0  0  0
 19 22  1  0  0  0  0
 19 20  1  0  0  0  0
 21 19  1  0  0  0  0
M  END
>  <minimizedAffinity>
-4.50396061

$$$$

 OpenBabel03252501563D

 22 23  0  0  0  0  0  0  0  0999 V2000
   38.6600   24.4220   42.0310 C   0  0  0  0  0  0  0  0  0  0  0  0
   38.2100   25.7150   41.7370 C   0  0  0  0  0  0  0  0  0  0  0  0
   38.7850   26.7910   42.3950 C   0  0  0  0  0  0  0  0  0  0  0  0
   39.7570   26.5280   43.2900 N   0  0  0  0  0  0  0  0  0  0  0  0
   40.1790   25.2840   43.5620 C   0  0  0  0  0  0  0  0  0  0  0  0
   39.6420   24.1920   42.9390 N   0  0  0  0  0  0  0  0  0  0  0  0
   38.2850   23.5250   41.5830 H   0  0  0  0  0  0  0  0  0  0  0  0
   40.9620   25.2250   44.2990 H   0  0  0  0  0  0  0  0  0  0  0  0
   38.2540   28.0310   42.0180 N   0  0  0  0  0  0  0  0  0  0  0  0
   38.8360   28.6240   40.9360 C   0  0  0  0  0  3  0  0  0  0  0  0
   38.3650   29.8620   40.4970 C   0  0  0  0  0  0  0  0  0  0  0  0
   38.7770   30.3910   39.6470 H   0  0  0  0  0  0  0  0  0  0  0  0
   37.3280   30.3750   41.2240 C   0  0  0  0  0  0  0  0  0  0  0  0
   36.8840   31.4990   40.8420 O   0  0  0  0  0  0  0  0  0  0  0  0
   36.7240   29.8420   42.2820 N   0  0  0  0  0  0  0  0  0  0  0  0
   37.2220   28.6330   42.6710 C   0  0  0  0  0  0  0  0  0  0  0  0
   36.7260   28.0230   43.6740 O   0  0  0  0  0  0  0  0  0  0  0  0
   35.9400   30.2870   42.7870 H   0  0  0  0  0  0  0  0  0  0  0  0
   37.1350   25.7620   40.7220 C   0  0  0  0  0  0  0  0  0  0  0  0
   36.2610   25.1180   40.9640 H   0  0  0  0  0  0  0  0  0  0  0  0
   36.7040   26.7990   40.6190 H   0  0  0  0  0  0  0  0  0  0  0  0
   37.5760   25.4390   39.7400 H   0  0  0  0  0  0  0  0  0  0  0  0
  1  6  1  0  0  0  0
  2  1  2  0  0  0  0
  2  3  1  0  0  0  0
  3  4  2  0  0  0  0
  4  5  1  0  0  0  0
  5  8  1  0  0  0  0
  6  5  2  0  0  0  0
  7  1  1  0  0  0  0
  9  3  1  0  0  0  0
  9 16  1  0  0  0  0
 10  9  1  0  0  0  0
 11 10  2  0  0  0  0
 11 13  1  0  0  0  0
 12 11  1  0  0  0  0
 13 15  1  0  0  0  0
 14 13  2  0  0  0  0
 15 16  1  0  0  0  0
 15 18  1  0  0  0  0
 16 17  2  0  0  0  0
 19 20  1  0  0  0  0
 19  2  1  0  0  0  0
 21 19  1  0  0  0  0
 22 19  1  0  0  0  0
M  END
>  <minimizedAffinity>
-4.49217558

$$$$

 OpenBabel03252501563D

 22 23  0  0  0  0  0  0  0  0999 V2000
   38.0160   29.2130   43.2360 C   0  0  0  0  0  0  0  0  0  0  0  0
   37.8430   27.8840   42.8300 C   0  0  0  0  0  0  0  0  0  0  0  0
   38.8210   27.2890   42.0480 C   0  0  0  0  0  0  0  0  0  0  0  0
   39.8940   28.0330   41.7200 N   0  0  0  0  0  0  0  0  0  0  0  0
   40.0480   29.3050   42.1160 C   0  0  0  0  0  0  0  0  0  0  0  0
   39.1110   29.9340   42.8870 N   0  0  0  0  0  0  0  0  0  0  0  0
   37.3250   29.7660   43.8390 H   0  0  0  0  0  0  0  0  0  0  0  0
   40.9560   29.7750   41.7780 H   0  0  0  0  0  0  0  0  0  0  0  0
   38.5370   25.9610   41.7060 N   0  0  0  0  0  0  0  0  0  0  0  0
   37.7750   25.7830   40.5880 C   0  0  0  0  0  3  0  0  0  0  0  0
   37.4470   24.4900   40.1800 C   0  0  0  0  0  0  0  0  0  0  0  0
   36.8480   24.2740   39.3050 H   0  0  0  0  0  0  0  0  0  0  0  0
   37.9430   23.4930   40.9710 C   0  0  0  0  0  0  0  0  0  0  0  0
   37.6580   22.3100   40.6180 O   0  0  0  0  0  0  0  0  0  0  0  0
   38.6890   23.6080   42.0670 N   0  0  0  0  0  0  0  0  0  0  0  0
   38.9810   24.8920   42.4230 C   0  0  0  0  0  0  0  0  0  0  0  0
   39.6880   25.1300   43.4560 O   0  0  0  0  0  0  0  0  0  0  0  0
   39.0320   22.8060   42.6210 H   0  0  0  0  0  0  0  0  0  0  0  0
   36.5870   27.2670   43.3100 C   0  0  0  0  0  0  0  0  0  0  0  0
   35.6750   27.8480   43.0520 H   0  0  0  0  0  0  0  0  0  0  0  0
   36.4180   26.2520   42.8470 H   0  0  0  0  0  0  0  0  0  0  0  0
   36.6610   27.1620   44.4260 H   0  0  0  0  0  0  0  0  0  0  0  0
  1  7  1  0  0  0  0
  2  1  2  0  0  0  0
  2 19  1  0  0  0  0
  3  2  1  0  0  0  0
  4  3  2  0  0  0  0
  4  5  1  0  0  0  0
  5  6  2  0  0  0  0
  6  1  1  0  0  0  0
  8  5  1  0  0  0  0
  9  3  1  0  0  0  0
  9 16  1  0  0  0  0
 10  9  1  0  0  0  0
 11 10  2  0  0  0  0
 11 13  1  0  0  0  0
 12 11  1  0  0  0  0
 13 15  1  0  0  0  0
 14 13  2  0  0  0  0
 15 16  1  0  0  0  0
 15 18  1  0  0  0  0
 16 17  2  0  0  0  0
 19 22  1  0  0  0  0
 20 19  1  0  0  0  0
 21 19  1  0  0  0  0
M  END
>  <minimizedAffinity>
-4.40817404

$$$$

 OpenBabel03252501563D

 22 23  0  0  0  0  0  0  0  0999 V2000
   37.2530   32.1000   40.3950 C   0  0  0  0  0  0  0  0  0  0  0  0
   37.0710   30.7450   40.6950 C   0  0  0  0  0  0  0  0  0  0  0  0
   38.0910   30.0550   41.3300 C   0  0  0  0  0  0  0  0  0  0  0  0
   39.2140   30.7370   41.6270 N   0  0  0  0  0  0  0  0  0  0  0  0
   39.3760   32.0360   41.3340 C   0  0  0  0  0  0  0  0  0  0  0  0
   38.3980   32.7570   40.7080 N   0  0  0  0  0  0  0  0  0  0  0  0
   36.5320   32.7230   39.9080 H   0  0  0  0  0  0  0  0  0  0  0  0
   40.3250   32.4500   41.6310 H   0  0  0  0  0  0  0  0  0  0  0  0
   37.7940   28.7090   41.5780 N   0  0  0  0  0  0  0  0  0  0  0  0
   37.1330   28.4490   42.7430 C   0  0  0  0  0  3  0  0  0  0  0  0
   36.8010   27.1330   43.0640 C   0  0  0  0  0  0  0  0  0  0  0  0
   36.2770   26.8520   43.9690 H   0  0  0  0  0  0  0  0  0  0  0  0
   37.1840   26.2000   42.1420 C   0  0  0  0  0  0  0  0  0  0  0  0
   36.8900   24.9980   42.4130 O   0  0  0  0  0  0  0  0  0  0  0  0
   37.8260   26.3960   40.9940 N   0  0  0  0  0  0  0  0  0  0  0  0
   38.1290   27.6990   40.7270 C   0  0  0  0  0  0  0  0  0  0  0  0
   38.7450   28.0130   39.6570 O   0  0  0  0  0  0  0  0  0  0  0  0
   38.0870   25.6400   40.3390 H   0  0  0  0  0  0  0  0  0  0  0  0
   35.7580   30.2060   40.2750 C   0  0  0  0  0  0  0  0  0  0  0  0
   35.5270   30.3760   39.2010 H   0  0  0  0  0  0  0  0  0  0  0  0
   35.7060   29.0870   40.4040 H   0  0  0  0  0  0  0  0  0  0  0  0
   34.9690   30.6940   40.9090 H   0  0  0  0  0  0  0  0  0  0  0  0
  1  2  2  0  0  0  0
  1  6  1  0  0  0  0
  2  3  1  0  0  0  0
  3  9  1  0  0  0  0
  3  4  2  0  0  0  0
  5  4  1  0  0  0  0
  5  8  1  0  0  0  0
  6  5  2  0  0  0  0
  7  1  1  0  0  0  0
  9 10  1  0  0  0  0
 10 11  2  0  0  0  0
 11 12  1  0  0  0  0
 13 14  2  0  0  0  0
 13 11  1  0  0  0  0
 15 13  1  0  0  0  0
 16 15  1  0  0  0  0
 16  9  1  0  0  0  0
 17 16  2  0  0  0  0
 18 15  1  0  0  0  0
 19 21  1  0  0  0  0
 19  2  1  0  0  0  0
 19 22  1  0  0  0  0
 20 19  1  0  0  0  0
M  END
>  <minimizedAffinity>
-4.31117725

$$$$

 OpenBabel03252501563D

 22 23  0  0  0  0  0  0  0  0999 V2000
   37.3590   30.9740   37.1270 C   0  0  0  0  0  0  0  0  0  0  0  0
   37.0680   30.1740   38.2380 C   0  0  0  0  0  0  0  0  0  0  0  0
   37.9270   30.1980   39.3260 C   0  0  0  0  0  0  0  0  0  0  0  0
   39.0060   31.0010   39.2500 N   0  0  0  0  0  0  0  0  0  0  0  0
   39.2720   31.7630   38.1800 C   0  0  0  0  0  0  0  0  0  0  0  0
   38.4560   31.7720   37.0840 N   0  0  0  0  0  0  0  0  0  0  0  0
   36.7640   31.0300   36.2380 H   0  0  0  0  0  0  0  0  0  0  0  0
   40.1700   32.3540   38.2600 H   0  0  0  0  0  0  0  0  0  0  0  0
   37.5320   29.3580   40.3750 N   0  0  0  0  0  0  0  0  0  0  0  0
   38.0300   28.0880   40.3410 C   0  0  0  0  0  3  0  0  0  0  0  0
   37.6830   27.1890   41.3490 C   0  0  0  0  0  0  0  0  0  0  0  0
   38.0400   26.1670   41.3880 H   0  0  0  0  0  0  0  0  0  0  0  0
   36.8480   27.6900   42.3070 C   0  0  0  0  0  0  0  0  0  0  0  0
   36.5210   26.8900   43.2340 O   0  0  0  0  0  0  0  0  0  0  0  0
   36.3350   28.9150   42.3900 N   0  0  0  0  0  0  0  0  0  0  0  0
   36.7040   29.7550   41.3810 C   0  0  0  0  0  0  0  0  0  0  0  0
   36.2760   30.9540   41.3500 O   0  0  0  0  0  0  0  0  0  0  0  0
   35.7060   29.2290   43.1470 H   0  0  0  0  0  0  0  0  0  0  0  0
   35.8300   29.3750   38.0980 C   0  0  0  0  0  0  0  0  0  0  0  0
   35.8040   28.7470   37.1800 H   0  0  0  0  0  0  0  0  0  0  0  0
   35.7090   28.6420   38.9470 H   0  0  0  0  0  0  0  0  0  0  0  0
   34.9610   30.0870   38.0890 H   0  0  0  0  0  0  0  0  0  0  0  0
  1  2  1  0  0  0  0
  2  3  2  0  0  0  0
  3  9  1  0  0  0  0
  4  3  1  0  0  0  0
  5  8  1  0  0  0  0
  5  4  2  0  0  0  0
  6  1  2  0  0  0  0
  6  5  1  0  0  0  0
  7  1  1  0  0  0  0
  9 16  1  0  0  0  0
 10  9  1  0  0  0  0
 10 11  2  0  0  0  0
 11 12  1  0  0  0  0
 11 13  1  0  0  0  0
 13 15  1  0  0  0  0
 13 14  2  0  0  0  0
 15 18  1  0  0  0  0
 16 15  1  0  0  0  0
 17 16  2  0  0  0  0
 19  2  1  0  0  0  0
 19 21  1  0  0  0  0
 20 19  1  0  0  0  0
 22 19  1  0  0  0  0
M  END
>  <minimizedAffinity>
-4.2148304

$$$$

 OpenBabel03252501563D

 22 23  0  0  0  0  0  0  0  0999 V2000
   36.8590   28.6360   40.1080 C   0  0  0  0  0  0  0  0  0  0  0  0
   37.8800   29.3220   39.4390 C   0  0  0  0  0  0  0  0  0  0  0  0
   37.9610   30.7000   39.5700 C   0  0  0  0  0  0  0  0  0  0  0  0
   37.0410   31.3070   40.3440 N   0  0  0  0  0  0  0  0  0  0  0  0
   36.0690   30.6380   40.9810 C   0  0  0  0  0  0  0  0  0  0  0  0
   35.9480   29.2800   40.8810 N   0  0  0  0  0  0  0  0  0  0  0  0
   36.7070   27.5770   40.0740 H   0  0  0  0  0  0  0  0  0  0  0  0
   35.4050   31.2540   41.5640 H   0  0  0  0  0  0  0  0  0  0  0  0
   39.0200   31.2730   38.8560 N   0  0  0  0  0  0  0  0  0  0  0  0
   40.2050   31.3740   39.5260 C   0  0  0  0  0  3  0  0  0  0  0  0
   41.3090   31.9350   38.8850 C   0  0  0  0  0  0  0  0  0  0  0  0
   42.2790   32.0460   39.3530 H   0  0  0  0  0  0  0  0  0  0  0  0
   41.0850   32.3410   37.6000 C   0  0  0  0  0  0  0  0  0  0  0  0
   42.0760   32.8530   36.9980 O   0  0  0  0  0  0  0  0  0  0  0  0
   39.9570   32.2670   36.9000 N   0  0  0  0  0  0  0  0  0  0  0  0
   38.9070   31.7120   37.5720 C   0  0  0  0  0  0  0  0  0  0  0  0
   37.7720   31.5870   37.0070 O   0  0  0  0  0  0  0  0  0  0  0  0
   39.8560   32.5960   35.9250 H   0  0  0  0  0  0  0  0  0  0  0  0
   38.7730   28.4480   38.6470 C   0  0  0  0  0  0  0  0  0  0  0  0
   38.2370   27.7970   37.9230 H   0  0  0  0  0  0  0  0  0  0  0  0
   39.4890   29.0490   38.0130 H   0  0  0  0  0  0  0  0  0  0  0  0
   39.3540   27.8100   39.3660 H   0  0  0  0  0  0  0  0  0  0  0  0
  1  6  1  0  0  0  0
  2  3  1  0  0  0  0
  2  1  2  0  0  0  0
  3  4  2  0  0  0  0
  4  5  1  0  0  0  0
  5  8  1  0  0  0  0
  6  5  2  0  0  0  0
  7  1  1  0  0  0  0
  9 10  1  0  0  0  0
  9  3  1  0  0  0  0
 11 12  1  0  0  0  0
 11 10  2  0  0  0  0
 13 11  1  0  0  0  0
 14 13  2  0  0  0  0
 15 16  1  0  0  0  0
 15 13  1  0  0  0  0
 16  9  1  0  0  0  0
 17 16  2  0  0  0  0
 18 15  1  0  0  0  0
 19 22  1  0  0  0  0
 19  2  1  0  0  0  0
 20 19  1  0  0  0  0
 21 19  1  0  0  0  0
M  END
>  <minimizedAffinity>
-4.20697212

$$$$

 OpenBabel03252501563D

 22 23  0  0  0  0  0  0  0  0999 V2000
   40.7730   26.5380   43.5080 C   0  0  0  0  0  0  0  0  0  0  0  0
   39.7550   27.2360   42.8470 C   0  0  0  0  0  0  0  0  0  0  0  0
   38.6970   26.5250   42.3020 C   0  0  0  0  0  0  0  0  0  0  0  0
   38.7090   25.1860   42.4410 N   0  0  0  0  0  0  0  0  0  0  0  0
   39.6900   24.5290   43.0770 C   0  0  0  0  0  0  0  0  0  0  0  0
   40.7530   25.1860   43.6300 N   0  0  0  0  0  0  0  0  0  0  0  0
   41.6310   26.9880   43.9620 H   0  0  0  0  0  0  0  0  0  0  0  0
   39.5670   23.4590   43.1120 H   0  0  0  0  0  0  0  0  0  0  0  0
   37.7440   27.3310   41.6680 N   0  0  0  0  0  0  0  0  0  0  0  0
   37.9610   27.5820   40.3440 C   0  0  0  0  0  3  0  0  0  0  0  0
   37.0570   28.3780   39.6400 C   0  0  0  0  0  0  0  0  0  0  0  0
   37.1650   28.6190   38.5900 H   0  0  0  0  0  0  0  0  0  0  0  0
   36.0040   28.8440   40.3750 C   0  0  0  0  0  0  0  0  0  0  0  0
   35.1700   29.5680   39.7550 O   0  0  0  0  0  0  0  0  0  0  0  0
   35.7430   28.6300   41.6620 N   0  0  0  0  0  0  0  0  0  0  0  0
   36.6560   27.8470   42.3050 C   0  0  0  0  0  0  0  0  0  0  0  0
   36.5150   27.5730   43.5410 O   0  0  0  0  0  0  0  0  0  0  0  0
   34.9220   29.0150   42.1580 H   0  0  0  0  0  0  0  0  0  0  0  0
   39.9530   28.7020   42.8170 C   0  0  0  0  0  0  0  0  0  0  0  0
   40.9370   29.0130   42.4020 H   0  0  0  0  0  0  0  0  0  0  0  0
   39.1930   29.2120   42.1570 H   0  0  0  0  0  0  0  0  0  0  0  0
   39.8530   29.0840   43.8690 H   0  0  0  0  0  0  0  0  0  0  0  0
  1  6  1  0  0  0  0
  1  7  1  0  0  0  0
  2  1  2  0  0  0  0
  3  4  2  0  0  0  0
  3  2  1  0  0  0  0
  4  5  1  0  0  0  0
  5  8  1  0  0  0  0
  5  6  2  0  0  0  0
  9  3  1  0  0  0  0
  9 16  1  0  0  0  0
 10  9  1  0  0  0  0
 11 10  2  0  0  0  0
 11 13  1  0  0  0  0
 12 11  1  0  0  0  0
 13 15  1  0  0  0  0
 14 13  2  0  0  0  0
 15 18  1  0  0  0  0
 15 16  1  0  0  0  0
 16 17  2  0  0  0  0
 19  2  1  0  0  0  0
 19 22  1  0  0  0  0
 20 19  1  0  0  0  0
 21 19  1  0  0  0  0
M  END
>  <minimizedAffinity>
-4.19452

$$$$
