
     RDKit          3D

 47 51  0  0  0  0  0  0  0  0999 V2000
   47.3307   30.2145   47.6467 C   0  0  0  0  0  0  0  0  0  0  0  0
   46.5588   32.6547   45.1555 C   0  0  0  0  0  0  0  0  0  0  0  0
   47.2755   31.7075   44.4173 C   0  0  0  0  0  0  0  0  0  0  0  0
   47.6459   30.6963   45.2430 C   0  0  0  0  0  0  0  0  0  0  0  0
   47.1738   31.0098   46.4476 N   0  0  0  0  0  0  0  0  0  0  0  0
   46.5162   32.1856   46.4154 N   0  0  0  0  0  0  0  0  0  0  0  0
   44.5742   35.7034   44.8321 C   0  0  0  0  0  0  0  0  0  0  0  0
   44.9517   36.1922   43.5760 C   0  0  0  0  0  0  0  0  0  0  0  0
   45.8881   35.4645   42.8521 C   0  0  0  0  0  0  0  0  0  0  0  0
   46.3625   34.3396   43.4178 N   0  0  0  0  0  0  0  0  0  0  0  0
   45.9963   33.8816   44.6166 C   0  0  0  0  0  0  0  0  0  0  0  0
   45.0990   34.5728   45.3176 N   0  0  0  0  0  0  0  0  0  0  0  0
   46.0121   29.9362   48.2647 C   0  0  0  0  0  0  0  0  0  0  0  0
   45.1177   27.5493   47.9059 C   0  0  0  0  0  0  0  0  0  0  0  0
   45.1942   28.9072   47.6453 C   0  0  0  0  0  0  0  0  0  0  0  0
   44.3640   29.3817   46.6330 C   0  0  0  0  0  0  0  0  0  0  0  0
   43.5134   28.5631   45.9253 C   0  0  0  0  0  0  0  0  0  0  0  0
   42.6279   28.7302   44.9312 N   0  0  0  0  0  0  0  0  0  0  0  0
   42.0465   27.5694   44.5994 C   0  0  0  0  0  0  0  0  0  0  0  0
   42.5555   26.5655   45.4000 C   0  0  0  0  0  0  0  0  0  0  0  0
   43.4554   27.2146   46.2035 C   0  0  0  0  0  0  0  0  0  0  0  0
   44.2747   26.7314   47.2062 C   0  0  0  0  0  0  0  0  0  0  0  0
   47.9412   30.7803   48.4084 H   0  0  0  0  0  0  0  0  0  0  0  0
   47.8486   29.2846   47.4308 H   0  0  0  0  0  0  0  0  0  0  0  0
   47.5216   31.7323   43.3536 H   0  0  0  0  0  0  0  0  0  0  0  0
   48.2155   29.7976   44.9934 H   0  0  0  0  0  0  0  0  0  0  0  0
   43.8412   36.2953   45.3714 H   0  0  0  0  0  0  0  0  0  0  0  0
   44.5914   37.0803   43.1046 H   0  0  0  0  0  0  0  0  0  0  0  0
   46.2601   35.7366   41.8724 H   0  0  0  0  0  0  0  0  0  0  0  0
   45.4428   30.8840   48.4094 H   0  0  0  0  0  0  0  0  0  0  0  0
   46.2204   29.5987   49.3212 H   0  0  0  0  0  0  0  0  0  0  0  0
   45.7904   27.2353   48.7083 H   0  0  0  0  0  0  0  0  0  0  0  0
   44.3154   30.4173   46.3193 H   0  0  0  0  0  0  0  0  0  0  0  0
   42.4075   29.6535   44.4612 H   0  0  0  0  0  0  0  0  0  0  0  0
   41.2981   27.4507   43.8249 H   0  0  0  0  0  0  0  0  0  0  0  0
   42.3224   25.5109   45.4157 H   0  0  0  0  0  0  0  0  0  0  0  0
   44.2554   25.3444   47.5357 N   0  0  0  0  0  0  0  0  0  0  0  0
   44.0649   24.3128   46.6920 C   0  0  0  0  0  0  0  0  0  0  0  0
   44.0808   23.0206   47.2079 C   0  0  0  0  0  0  0  0  0  0  0  0
   43.9246   22.2117   46.5043 H   0  0  0  0  0  0  0  0  0  0  0  0
   44.2874   22.8016   48.5541 C   0  0  0  0  0  0  0  0  0  0  0  0
   44.3026   21.6353   49.0246 O   0  0  0  0  0  0  0  0  0  0  0  0
   44.4756   23.8792   49.3680 N   0  0  0  0  0  0  0  0  0  0  0  0
   44.4566   25.1214   48.8499 C   0  0  0  0  0  0  0  0  0  0  0  0
   44.6448   26.0371   49.7161 O   0  0  0  0  0  0  0  0  0  0  0  0
   43.9111   24.5844   45.6551 H   0  0  0  0  0  0  0  0  0  0  0  0
   44.6310   23.6728   50.3945 H   0  0  0  0  0  0  0  0  0  0  0  0
  1 13  1  0
  2  6  2  0
  3  2  1  0
  3  4  2  0
  4  5  1  0
  5  1  1  0
  6  5  1  0
  7 12  2  0
  8  7  1  0
  9 10  1  0
  9  8  2  0
 10 11  2  0
 11  2  1  0
 11 12  1  0
 15 14  2  0
 15 13  1  0
 16 15  1  0
 17 21  1  0
 17 16  2  0
 18 17  1  0
 19 18  1  0
 19 20  2  0
 20 21  1  0
 21 22  2  0
 22 14  1  0
  1 23  1  0
  1 24  1  0
  3 25  1  0
  4 26  1  0
  7 27  1  0
  8 28  1  0
  9 29  1  0
 13 30  1  0
 13 31  1  0
 14 32  1  0
 16 33  1  0
 18 34  1  0
 19 35  1  0
 20 36  1  0
 37 38  1  0
 38 39  2  0
 39 40  1  0
 39 41  1  0
 41 42  2  0
 41 43  1  0
 43 44  1  0
 44 45  2  0
 44 37  1  0
 38 46  1  0
 43 47  1  0
 22 37  1  0
M  ISO  8  23   8  24   8  25  14  26  14  27  14  28  14  29  14  30   8
M  ISO  7  31   8  32  14  33  14  34   9  35  14  36  14  40  16
M  END
>  <DihAtoms>  (1) 
20,21,36,37

>  <DihDeg>  (1) 
-115.8104997157386

$$$$
