
 OpenBabel03242513233D

 46 49  0  0  1  0  0  0  0  0999 V2000
   46.0520   30.5140   47.4400 C   0  0  2  0  0  0  0  0  0  0  0  0
   44.8180   31.1940   48.0060 C   0  0  0  0  0  0  0  0  0  0  0  0
   45.4540   31.6970   49.2980 C   0  0  0  0  0  0  0  0  0  0  0  0
   46.7030   32.1410   48.9340 O   0  0  0  0  0  0  0  0  0  0  0  0
   47.0840   31.5290   47.7680 C   0  0  1  0  0  0  0  0  0  0  0  0
   46.1510   29.5480   47.9650 H   0  0  0  0  0  0  0  0  0  0  0  0
   44.4700   32.0090   47.3490 H   0  0  0  0  0  0  0  0  0  0  0  0
   44.0400   30.4320   48.1950 H   0  0  0  0  0  0  0  0  0  0  0  0
   45.5260   30.8300   49.9830 H   0  0  0  0  0  0  0  0  0  0  0  0
   44.7920   32.4910   49.7110 H   0  0  0  0  0  0  0  0  0  0  0  0
   47.1940   32.2260   46.9140 H   0  0  0  0  0  0  0  0  0  0  0  0
   48.4290   30.8910   47.9710 C   0  0  1  0  0  0  0  0  0  0  0  0
   49.0870   31.4000   49.2510 C   0  0  0  0  0  0  0  0  0  0  0  0
   49.6640   30.1350   49.8240 C   0  0  0  0  0  0  0  0  0  0  0  0
   49.5810   29.1690   48.8110 O   0  0  0  0  0  0  0  0  0  0  0  0
   48.3040   29.4120   48.2980 C   0  0  0  0  0  0  0  0  0  0  0  0
   49.1030   30.9780   47.1180 H   0  0  0  0  0  0  0  0  0  0  0  0
   48.3590   31.8720   49.9300 H   0  0  0  0  0  0  0  0  0  0  0  0
   49.9070   32.1150   48.9730 H   0  0  0  0  0  0  0  0  0  0  0  0
   50.7160   30.3020   50.1390 H   0  0  0  0  0  0  0  0  0  0  0  0
   49.0360   29.8370   50.6980 H   0  0  0  0  0  0  0  0  0  0  0  0
   48.0410   28.7880   47.4400 H   0  0  0  0  0  0  0  0  0  0  0  0
   47.6330   29.2390   49.1830 H   0  0  0  0  0  0  0  0  0  0  0  0
   45.9260   30.2010   45.9820 C   0  0  0  0  0  0  0  0  0  0  0  0
   44.8480   30.2020   45.6590 H   0  0  0  0  0  0  0  0  0  0  0  0
   46.3420   29.1950   45.7790 H   0  0  0  0  0  0  0  0  0  0  0  0
   46.0470   31.8380   44.1680 C   0  0  0  0  0  0  0  0  0  0  0  0
   46.6420   31.1590   45.1180 C   0  0  0  0  0  0  0  0  0  0  0  0
   47.0600   34.8940   42.4540 C   0  0  0  0  0  0  0  0  0  0  0  0
   48.2120   34.4630   41.7170 C   0  0  0  0  0  0  0  0  0  0  0  0
   48.5750   33.1260   41.8580 C   0  0  0  0  0  0  0  0  0  0  0  0
   47.8470   32.2960   42.6660 N   0  0  0  0  0  0  0  0  0  0  0  0
   46.7660   32.7640   43.3380 C   0  0  0  0  0  0  0  0  0  0  0  0
   46.3750   34.0310   43.2380 N   0  0  0  0  0  0  0  0  0  0  0  0
   46.7710   35.9270   42.3500 H   0  0  0  0  0  0  0  0  0  0  0  0
   48.7700   35.1150   41.0930 H   0  0  0  0  0  0  0  0  0  0  0  0
   49.7060   32.5940   41.1690 N   0  0  0  0  0  0  0  0  0  0  0  0
   49.4890   31.9490   39.9890 C   0  0  0  0  0  0  0  0  0  0  0  0
   50.5520   31.4220   39.2950 C   0  0  0  0  0  0  0  0  0  0  0  0
   50.4640   30.8970   38.3530 H   0  0  0  0  0  0  0  0  0  0  0  0
   51.7880   31.6010   39.8790 C   0  0  0  0  0  0  0  0  0  0  0  0
   52.7930   31.1310   39.2720 O   0  0  0  0  0  0  0  0  0  0  0  0
   52.0360   32.2320   41.0400 N   0  0  0  0  0  0  0  0  0  0  0  0
   50.9620   32.7300   41.6820 C   0  0  0  0  0  0  0  0  0  0  0  0
   51.0490   33.3390   42.7710 O   0  0  0  0  0  0  0  0  0  0  0  0
   52.9870   32.3350   41.4300 H   0  0  0  0  0  0  0  0  0  0  0  0
  1  5  1  0  0  0  0
  1  6  1  1  0  0  0
  1  2  1  0  0  0  0
  2  8  1  0  0  0  0
  2  3  1  0  0  0  0
  3 10  1  0  0  0  0
  3  9  1  0  0  0  0
  4  3  1  0  0  0  0
  5 11  1  6  0  0  0
  5 12  1  0  0  0  0
  5  4  1  0  0  0  0
  7  2  1  0  0  0  0
 12 17  1  6  0  0  0
 12 16  1  0  0  0  0
 12 13  1  0  0  0  0
 13 14  1  0  0  0  0
 13 18  1  0  0  0  0
 14 20  1  0  0  0  0
 14 21  1  0  0  0  0
 15 14  1  0  0  0  0
 16 15  1  0  0  0  0
 16 23  1  0  0  0  0
 19 13  1  0  0  0  0
 22 16  1  0  0  0  0
 24  1  1  0  0  0  0
 25 24  1  0  0  0  0
 26 24  1  0  0  0  0
 27 28  2  0  0  0  0
 28 24  1  0  0  0  0
 29 34  1  0  0  0  0
 30 31  1  0  0  0  0
 30 29  2  0  0  0  0
 31 32  2  0  0  0  0
 32 33  1  0  0  0  0
 33 27  1  0  0  0  0
 34 33  2  0  0  0  0
 35 29  1  0  0  0  0
 36 30  1  0  0  0  0
 37 44  1  0  0  0  0
 37 31  1  0  0  0  0
 38 37  1  0  0  0  0
 39 41  1  0  0  0  0
 39 38  2  0  0  0  0
 40 39  1  0  0  0  0
 41 43  1  0  0  0  0
 42 41  2  0  0  0  0
 43 46  1  0  0  0  0
 43 44  1  0  0  0  0
 44 45  2  0  0  0  0
M  END
>  <minimizedAffinity>
-5.60337639

>  <minimizedRMSD>
1.98810208

$$$$
