REMARK  Name = 
REMARK  3 active torsions:
REMARK  status: ('A' for Active; 'I' for Inactive)
REMARK    1  A    between atoms: C_2  and  S_7
REMARK    2  A    between atoms: S_7  and  C_8
REMARK    3  A    between atoms: C_8  and  N_14
REMARK                            x       y       z     vdW  Elec       q    Type
REMARK                         _______ _______ _______ _____ _____    ______ ____
ROOT
ATOM      1  C   UNL     1      43.909  34.119  40.347  0.00  0.00    +0.000 C 
ATOM      2  H   UNL     1      44.984  33.842  40.224  0.00  0.00    +0.000 HD
ATOM      3  H   UNL     1      43.334  33.226  40.679  0.00  0.00    +0.000 HD
ENDROOT
BRANCH   1   4
ATOM      4  N   UNL     1      43.376  34.663  39.089  0.00  0.00    +0.000 N 
ATOM      5  C   UNL     1      43.858  34.183  37.936  0.00  0.00    +0.000 A 
ATOM      6  C   UNL     1      43.294  34.757  36.799  0.00  0.00    +0.000 A 
ATOM      7  H   UNL     1      43.625  34.429  35.801  0.00  0.00    +0.000 HD
ATOM      8  C   UNL     1      42.310  35.748  36.898  0.00  0.00    +0.000 A 
ATOM      9  O   UNL     1      41.787  36.279  35.891  0.00  0.00    +0.000 OA
ATOM     10  N   UNL     1      41.897  36.157  38.116  0.00  0.00    +0.000 N 
ATOM     11  C   UNL     1      42.426  35.618  39.227  0.00  0.00    +0.000 A 
ATOM     12  O   UNL     1      42.046  35.995  40.373  0.00  0.00    +0.000 OA
ATOM     13  H   UNL     1      41.160  36.898  38.218  0.00  0.00    +0.000 HD
ENDBRANCH   1   4
BRANCH   1  14
ATOM     14  S   UNL     1      43.788  35.473  41.541  0.00  0.00    +0.000 S 
BRANCH  14  16
ATOM     15  C   UNL     1      44.266  35.751  44.267  0.00  0.00    +0.000 A 
ATOM     16  C   UNL     1      44.413  34.933  43.131  0.00  0.00    +0.000 A 
ATOM     17  C   UNL     1      45.043  33.706  43.246  0.00  0.00    +0.000 A 
ATOM     18  N   UNL     1      45.501  33.342  44.480  0.00  0.00    +0.000 NA
ATOM     19  C   UNL     1      45.343  34.147  45.541  0.00  0.00    +0.000 A 
ATOM     20  N   UNL     1      44.744  35.329  45.467  0.00  0.00    +0.000 NA
ATOM     21  H   UNL     1      43.767  36.693  44.113  0.00  0.00    +0.000 HD
ATOM     22  H   UNL     1      45.182  33.032  42.390  0.00  0.00    +0.000 HD
ATOM     23  H   UNL     1      45.685  33.913  46.545  0.00  0.00    +0.000 HD
ENDBRANCH  14  16
ENDBRANCH   1  14
TORSDOF 3
