
 OpenBabel03252502583D

 23 24  0  0  0  0  0  0  0  0999 V2000
   43.8020   34.1190   40.0920 C   0  0  0  0  0  0  0  0  0  0  0  0
   44.2600   34.6700   39.2360 H   0  0  0  0  0  0  0  0  0  0  0  0
   44.0660   33.0410   40.0200 H   0  0  0  0  0  0  0  0  0  0  0  0
   42.3440   34.3150   40.1030 N   0  0  0  0  0  0  0  0  0  0  0  0
   41.8130   35.0670   41.0740 C   0  0  0  0  0  3  0  0  0  0  0  0
   40.4270   35.1960   41.0020 C   0  0  0  0  0  0  0  0  0  0  0  0
   39.8950   35.7960   41.7570 H   0  0  0  0  0  0  0  0  0  0  0  0
   39.6930   34.5750   39.9860 C   0  0  0  0  0  0  0  0  0  0  0  0
   38.4460   34.6760   39.8980 O   0  0  0  0  0  0  0  0  0  0  0  0
   40.3340   33.8380   39.0550 N   0  0  0  0  0  0  0  0  0  0  0  0
   41.6690   33.6980   39.1030 C   0  0  0  0  0  0  0  0  0  0  0  0
   42.2800   33.0090   38.2360 O   0  0  0  0  0  0  0  0  0  0  0  0
   39.8070   33.3610   38.2820 H   0  0  0  0  0  0  0  0  0  0  0  0
   44.3920   34.8490   41.6390 S   0  0  0  0  0  0  0  0  0  0  0  0
   46.7360   34.5220   43.1010 C   0  0  0  0  0  0  0  0  0  0  0  0
   46.1470   34.5360   41.8230 C   0  0  0  0  0  0  0  0  0  0  0  0
   46.9290   34.3050   40.7050 C   0  0  0  0  0  0  0  0  0  0  0  0
   48.2600   34.0720   40.9000 N   0  0  0  0  0  0  0  0  0  0  0  0
   48.7870   34.0660   42.1330 C   0  0  0  0  0  0  0  0  0  0  0  0
   48.0670   34.2820   43.2270 N   0  0  0  0  0  0  0  0  0  0  0  0
   46.0740   34.7080   43.9310 H   0  0  0  0  0  0  0  0  0  0  0  0
   46.5170   34.3060   39.6860 H   0  0  0  0  0  0  0  0  0  0  0  0
   49.8360   33.8860   42.3510 H   0  0  0  0  0  0  0  0  0  0  0  0
  1  4  1  0  0  0  0
  1 14  1  0  0  0  0
  2  1  1  0  0  0  0
  3  1  1  0  0  0  0
  4  5  1  0  0  0  0
  6  5  2  0  0  0  0
  6  7  1  0  0  0  0
  8  6  1  0  0  0  0
  9  8  2  0  0  0  0
 10 11  1  0  0  0  0
 10  8  1  0  0  0  0
 11  4  1  0  0  0  0
 12 11  2  0  0  0  0
 13 10  1  0  0  0  0
 14 16  1  0  0  0  0
 15 20  1  0  0  0  0
 15 21  1  0  0  0  0
 16 15  2  0  0  0  0
 17 18  2  0  0  0  0
 17 16  1  0  0  0  0
 18 19  1  0  0  0  0
 19 23  1  0  0  0  0
 19 20  2  0  0  0  0
 22 17  1  0  0  0  0
M  END
>  <minimizedAffinity>
-3.9551487

>  <minimizedRMSD>
3.31857324

$$$$
