
 OpenBabel03252509033D

 49 51  0  0  1  0  0  0  0  0999 V2000
   48.0800   34.0830   42.1760 N   0  0  0  0  0  0  0  0  0  0  0  0
   48.0970   34.6090   40.8650 C   0  0  0  0  0  0  0  0  0  0  0  0
   46.8710   34.2520   40.0410 C   0  0  0  0  0  0  0  0  0  0  0  0
   45.5920   34.1790   40.8400 C   0  0  0  0  0  0  0  0  0  0  0  0
   45.8260   34.5900   42.2830 C   0  0  0  0  0  0  0  0  0  0  0  0
   46.9470   33.5770   42.7590 C   0  0  2  0  0  0  0  0  0  0  0  0
   48.1200   35.7230   40.9490 H   0  0  0  0  0  0  0  0  0  0  0  0
   48.9610   34.3390   40.2480 H   0  0  0  0  0  0  0  0  0  0  0  0
   47.0400   33.3240   39.4460 H   0  0  0  0  0  0  0  0  0  0  0  0
   46.7310   35.0500   39.2800 H   0  0  0  0  0  0  0  0  0  0  0  0
   45.2800   33.1120   40.8650 H   0  0  0  0  0  0  0  0  0  0  0  0
   44.7560   34.7330   40.3830 H   0  0  0  0  0  0  0  0  0  0  0  0
   44.9150   34.4140   42.8660 H   0  0  0  0  0  0  0  0  0  0  0  0
   46.2230   35.6030   42.3470 H   0  0  0  0  0  0  0  0  0  0  0  0
   46.6360   32.5680   42.4210 H   0  0  0  0  0  0  0  0  0  0  0  0
   49.3640   33.6340   42.6470 C   0  0  0  0  0  0  0  0  0  0  0  0
   49.4200   33.9150   43.7180 H   0  0  0  0  0  0  0  0  0  0  0  0
   50.1300   34.1970   42.0730 H   0  0  0  0  0  0  0  0  0  0  0  0
   49.4410   32.1650   42.4380 C   0  0  0  0  0  0  0  0  0  0  0  0
   48.4390   31.7170   42.2170 H   0  0  0  0  0  0  0  0  0  0  0  0
   49.8420   31.6460   43.3150 H   0  0  0  0  0  0  0  0  0  0  0  0
   52.4440   31.5150   40.2760 C   0  0  0  0  0  0  0  0  0  0  0  0
   51.6340   31.7850   41.3960 C   0  0  0  0  0  0  0  0  0  0  0  0
   50.2750   31.8790   41.2440 C   0  0  0  0  0  0  0  0  0  0  0  0
   49.7790   31.7040   40.0150 N   0  0  0  0  0  0  0  0  0  0  0  0
   50.5390   31.4470   38.9450 C   0  0  0  0  0  0  0  0  0  0  0  0
   51.8830   31.3490   39.0580 N   0  0  0  0  0  0  0  0  0  0  0  0
   53.5030   31.4580   40.4810 H   0  0  0  0  0  0  0  0  0  0  0  0
   52.0580   31.9250   42.3880 H   0  0  0  0  0  0  0  0  0  0  0  0
   50.1520   31.3030   37.9440 H   0  0  0  0  0  0  0  0  0  0  0  0
   46.8970   33.7640   44.1280 O   0  0  0  0  0  0  0  0  0  0  0  0
   45.2700   31.6530   44.1340 O   0  0  0  0  0  0  0  0  0  0  0  0
   46.3240   32.4180   44.9460 P   0  0  2  0  0  0  0  0  0  0  0  0
   45.4330   33.0390   46.2810 O   0  0  0  0  0  0  0  0  0  0  0  0
   46.0170   33.1720   47.0530 H   0  0  0  0  0  0  0  0  0  0  0  0
   47.5240   31.4310   45.5440 O   0  0  0  0  0  0  0  0  0  0  0  0
   46.9510   30.4820   46.3770 C   0  0  0  0  0  0  0  0  0  0  0  0
   45.9680   30.8430   46.7810 H   0  0  0  0  0  0  0  0  0  0  0  0
   46.8020   29.5230   45.8590 H   0  0  0  0  0  0  0  0  0  0  0  0
   47.8360   30.3090   47.5140 N   0  0  0  0  0  0  0  0  0  0  0  0
   48.9990   29.6360   47.5340 C   0  0  0  0  0  3  0  0  0  0  0  0
   49.7440   29.5530   48.6990 C   0  0  0  0  0  0  0  0  0  0  0  0
   50.6740   29.0060   48.6870 H   0  0  0  0  0  0  0  0  0  0  0  0
   49.3100   30.1590   49.8700 C   0  0  0  0  0  0  0  0  0  0  0  0
   49.9760   30.0900   50.9310 O   0  0  0  0  0  0  0  0  0  0  0  0
   48.1430   30.8190   49.8040 N   0  0  0  0  0  0  0  0  0  0  0  0
   47.4250   30.8960   48.6690 C   0  0  0  0  0  0  0  0  0  0  0  0
   46.3590   31.5440   48.7580 O   0  0  0  0  0  0  0  0  0  0  0  0
   47.8460   31.2640   50.7040 H   0  0  0  0  0  0  0  0  0  0  0  0
  1 16  1  0  0  0  0
  1  6  1  0  0  0  0
  2  7  1  0  0  0  0
  2  1  1  0  0  0  0
  3  4  1  0  0  0  0
  3  2  1  0  0  0  0
  4 11  1  0  0  0  0
  4  5  1  0  0  0  0
  5 14  1  0  0  0  0
  5  6  1  0  0  0  0
  5 13  1  0  0  0  0
  6 15  1  6  0  0  0
  6 31  1  0  0  0  0
  8  2  1  0  0  0  0
  9  3  1  0  0  0  0
 10  3  1  0  0  0  0
 12  4  1  0  0  0  0
 16 17  1  0  0  0  0
 18 16  1  0  0  0  0
 19 16  1  0  0  0  0
 19 21  1  0  0  0  0
 20 19  1  0  0  0  0
 22 28  1  0  0  0  0
 22 23  1  0  0  0  0
 23 29  1  0  0  0  0
 24 23  2  0  0  0  0
 24 19  1  0  0  0  0
 25 24  1  0  0  0  0
 26 27  1  0  0  0  0
 26 25  2  0  0  0  0
 27 22  2  0  0  0  0
 30 26  1  0  0  0  0
 31 33  1  0  0  0  0
 33 32  2  6  0  0  0
 33 36  1  0  0  0  0
 33 34  1  0  0  0  0
 34 35  1  0  0  0  0
 36 37  1  0  0  0  0
 37 38  1  0  0  0  0
 37 40  1  0  0  0  0
 39 37  1  0  0  0  0
 40 41  1  0  0  0  0
 40 47  1  0  0  0  0
 41 42  2  0  0  0  0
 42 44  1  0  0  0  0
 43 42  1  0  0  0  0
 44 45  2  0  0  0  0
 46 44  1  0  0  0  0
 46 49  1  0  0  0  0
 47 48  2  0  0  0  0
 47 46  1  0  0  0  0
M  END
>  <minimizedAffinity>
-5.22142363

>  <minimizedRMSD>
3.1359396

$$$$
