REMARK  Name = 
REMARK  2 active torsions:
REMARK  status: ('A' for Active; 'I' for Inactive)
REMARK    1  A    between atoms: C_2  and  O_7
REMARK    2  A    between atoms: C_3  and  N_11
REMARK                            x       y       z     vdW  Elec       q    Type
REMARK                         _______ _______ _______ _____ _____    ______ ____
ROOT
ATOM      1  C   UNL     1      44.557  35.622  45.067  0.00  0.00    +0.000 A 
ATOM      2  C   UNL     1      45.039  35.881  43.757  0.00  0.00    +0.000 A 
ATOM      3  C   UNL     1      45.976  34.975  43.247  0.00  0.00    +0.000 A 
ATOM      4  N   UNL     1      46.376  33.924  43.988  0.00  0.00    +0.000 NA
ATOM      5  C   UNL     1      45.886  33.712  45.247  0.00  0.00    +0.000 A 
ATOM      6  N   UNL     1      44.983  34.569  45.760  0.00  0.00    +0.000 NA
ATOM      7  H   UNL     1      43.834  36.339  45.434  0.00  0.00    +0.000 HD
ATOM      8  H   UNL     1      46.242  32.848  45.803  0.00  0.00    +0.000 HD
ENDROOT
BRANCH   3   9
ATOM      9  N   UNL     1      46.461  35.233  41.932  0.00  0.00    +0.000 N 
ATOM     10  C   UNL     1      45.581  35.954  41.179  0.00  0.00    +0.000 A 
ATOM     11  C   UNL     1      45.890  36.291  39.888  0.00  0.00    +0.000 A 
ATOM     12  H   UNL     1      45.221  36.867  39.240  0.00  0.00    +0.000 HD
ATOM     13  C   UNL     1      47.089  35.910  39.325  0.00  0.00    +0.000 A 
ATOM     14  O   UNL     1      47.431  36.194  38.129  0.00  0.00    +0.000 OA
ATOM     15  N   UNL     1      47.929  35.192  40.122  0.00  0.00    +0.000 N 
ATOM     16  C   UNL     1      47.624  34.861  41.393  0.00  0.00    +0.000 A 
ATOM     17  O   UNL     1      48.360  34.210  42.150  0.00  0.00    +0.000 OA
ATOM     18  H   UNL     1      48.835  34.887  39.742  0.00  0.00    +0.000 HD
ENDBRANCH   3   9
BRANCH   2  19
ATOM     19  O   UNL     1      44.629  36.955  43.002  0.00  0.00    +0.000 OA
ATOM     20  H   UNL     1      44.246  37.774  43.431  0.00  0.00    +0.000 HD
ENDBRANCH   2  19
TORSDOF 2
