
 OpenBabel03252508463D

 46 48  0  0  0  0  0  0  0  0999 V2000
   42.5750   31.6330   42.5520 N   0  0  0  0  0  0  0  0  0  0  0  0
   43.0630   30.7120   42.6280 H   0  0  0  0  0  0  0  0  0  0  0  0
   43.1080   32.5360   41.5860 C   0  0  0  0  0  0  0  0  0  0  0  0
   43.7590   31.9900   40.8440 H   0  0  0  0  0  0  0  0  0  0  0  0
   42.2670   32.9590   41.0090 H   0  0  0  0  0  0  0  0  0  0  0  0
   43.6890   34.9640   41.8180 C   0  0  0  0  0  0  0  0  0  0  0  0
   43.9400   33.6360   42.1510 C   0  0  0  0  0  0  0  0  0  0  0  0
   44.9780   33.3610   43.0170 C   0  0  0  0  0  0  0  0  0  0  0  0
   45.7300   34.3880   43.5240 C   0  0  0  0  0  0  0  0  0  0  0  0
   45.5050   35.7000   43.2140 C   0  0  0  0  0  0  0  0  0  0  0  0
   44.4560   35.9240   42.3450 C   0  0  0  0  0  0  0  0  0  0  0  0
   45.2090   32.3440   43.3020 H   0  0  0  0  0  0  0  0  0  0  0  0
   46.5500   34.1550   44.2100 H   0  0  0  0  0  0  0  0  0  0  0  0
   46.0680   36.5410   43.5870 H   0  0  0  0  0  0  0  0  0  0  0  0
   44.1980   36.9410   42.0380 H   0  0  0  0  0  0  0  0  0  0  0  0
   40.3280   35.7860   40.3090 C   0  0  0  0  0  0  0  0  0  0  0  0
   41.3170   35.5940   41.2810 C   0  0  0  0  0  0  0  0  0  0  0  0
   42.5800   35.1960   40.9000 C   0  0  0  0  0  0  0  0  0  0  0  0
   42.7830   35.0100   39.5640 N   0  0  0  0  0  0  0  0  0  0  0  0
   41.8250   35.1980   38.6310 C   0  0  0  0  0  0  0  0  0  0  0  0
   40.5990   35.5870   39.0190 N   0  0  0  0  0  0  0  0  0  0  0  0
   39.3360   36.1010   40.6120 H   0  0  0  0  0  0  0  0  0  0  0  0
   41.1400   35.7440   42.3180 H   0  0  0  0  0  0  0  0  0  0  0  0
   42.1840   34.9980   37.6160 H   0  0  0  0  0  0  0  0  0  0  0  0
   40.8910   31.3700   42.3500 S   0  0  0  0  0  0  0  0  0  0  0  0
   40.1200   32.6580   42.5200 O   0  0  0  0  0  0  0  0  0  0  0  0
   39.3510   32.8060   43.1230 H   0  0  0  0  0  0  0  0  0  0  0  0
   40.3950   30.3380   43.3010 O   0  0  0  0  0  0  0  0  0  0  0  0
   40.9030   29.4890   43.4980 H   0  0  0  0  0  0  0  0  0  0  0  0
   40.6490   30.8160   40.7810 O   0  0  0  0  0  0  0  0  0  0  0  0
   39.8080   29.7090   40.8460 C   0  0  0  0  0  0  0  0  0  0  0  0
   38.7870   30.0650   40.5390 H   0  0  0  0  0  0  0  0  0  0  0  0
   39.7400   29.2310   41.8180 H   0  0  0  0  0  0  0  0  0  0  0  0
   40.2280   28.7050   39.7550 C   0  0  0  0  0  0  0  0  0  0  0  0
   41.0380   29.1650   39.1550 H   0  0  0  0  0  0  0  0  0  0  0  0
   40.6350   27.8020   40.2240 H   0  0  0  0  0  0  0  0  0  0  0  0
   39.0650   28.3740   38.9600 N   0  0  0  0  0  0  0  0  0  0  0  0
   38.1220   27.5460   39.4660 C   0  0  0  0  0  3  0  0  0  0  0  0
   37.0270   27.2630   38.6590 C   0  0  0  0  0  0  0  0  0  0  0  0
   36.2300   26.5960   39.0200 H   0  0  0  0  0  0  0  0  0  0  0  0
   36.9530   27.8280   37.4030 C   0  0  0  0  0  0  0  0  0  0  0  0
   35.9690   27.5970   36.6270 O   0  0  0  0  0  0  0  0  0  0  0  0
   37.9280   28.6520   36.9460 N   0  0  0  0  0  0  0  0  0  0  0  0
   38.9830   28.9200   37.7310 C   0  0  0  0  0  0  0  0  0  0  0  0
   39.9020   29.6960   37.3020 O   0  0  0  0  0  0  0  0  0  0  0  0
   37.9070   29.0970   36.0020 H   0  0  0  0  0  0  0  0  0  0  0  0
  1  2  1  0  0  0  0
  3  7  1  0  0  0  0
  3  1  1  0  0  0  0
  4  3  1  0  0  0  0
  5  3  1  0  0  0  0
  6  7  2  0  0  0  0
  6 11  1  0  0  0  0
  7  8  1  0  0  0  0
  8 12  1  0  0  0  0
  8  9  2  0  0  0  0
  9 13  1  0  0  0  0
 10  9  1  0  0  0  0
 10 14  1  0  0  0  0
 11 10  2  0  0  0  0
 15 11  1  0  0  0  0
 16 22  1  0  0  0  0
 16 17  1  0  0  0  0
 17 23  1  0  0  0  0
 18 17  2  0  0  0  0
 18  6  1  0  0  0  0
 19 18  1  0  0  0  0
 20 21  1  0  0  0  0
 20 19  2  0  0  0  0
 21 16  2  0  0  0  0
 24 20  1  0  0  0  0
 25 26  1  0  0  0  0
 25  1  1  0  0  0  0
 25 28  1  0  0  0  0
 26 27  1  0  0  0  0
 28 29  1  0  0  0  0
 30 31  1  0  0  0  0
 30 25  1  0  0  0  0
 31 33  1  0  0  0  0
 32 31  1  0  0  0  0
 34 36  1  0  0  0  0
 34 31  1  0  0  0  0
 35 34  1  0  0  0  0
 37 38  1  0  0  0  0
 37 34  1  0  0  0  0
 39 40  1  0  0  0  0
 39 38  2  0  0  0  0
 41 39  1  0  0  0  0
 42 41  2  0  0  0  0
 43 41  1  0  0  0  0
 43 44  1  0  0  0  0
 44 37  1  0  0  0  0
 45 44  2  0  0  0  0
 46 43  1  0  0  0  0
M  END
>  <minimizedAffinity>
-4.95681715

>  <minimizedRMSD>
2.09546018

$$$$
