
     RDKit          3D

 24 25  0  0  0  0  0  0  0  0999 V2000
   44.2658   35.7508   44.2671 C   0  0  0  0  0  0  0  0  0  0  0  0
   44.4125   34.9333   43.1312 C   0  0  0  0  0  0  0  0  0  0  0  0
   45.0429   33.7064   43.2457 C   0  0  0  0  0  0  0  0  0  0  0  0
   45.5006   33.3421   44.4795 N   0  0  0  0  0  0  0  0  0  0  0  0
   45.3432   34.1474   45.5414 C   0  0  0  0  0  0  0  0  0  0  0  0
   44.7441   35.3289   45.4666 N   0  0  0  0  0  0  0  0  0  0  0  0
   43.7878   35.4733   41.5406 S   0  0  0  0  0  0  0  0  0  0  0  0
   43.9091   34.1189   40.3470 C   0  0  0  0  0  0  0  0  0  0  0  0
   43.7668   36.6927   44.1130 H   0  0  0  0  0  0  0  0  0  0  0  0
   45.1825   33.0316   42.3896 H   0  0  0  0  0  0  0  0  0  0  0  0
   45.6850   33.9129   46.5450 H   0  0  0  0  0  0  0  0  0  0  0  0
   44.9842   33.8417   40.2244 H   0  0  0  0  0  0  0  0  0  0  0  0
   43.3337   33.2259   40.6795 H   0  0  0  0  0  0  0  0  0  0  0  0
   43.3758   34.6627   39.0889 N   0  0  0  0  0  0  0  0  0  0  0  0
   42.2414   35.3718   39.1351 C   0  0  0  0  0  0  0  0  0  0  0  0
   41.8145   35.8452   37.8967 C   0  0  0  0  0  0  0  0  0  0  0  0
   40.8898   36.4404   37.8297 H   0  0  0  0  0  0  0  0  0  0  0  0
   42.5383   35.5799   36.7291 C   0  0  0  0  0  0  0  0  0  0  0  0
   42.1749   35.9948   35.6031 O   0  0  0  0  0  0  0  0  0  0  0  0
   43.6725   34.8520   36.7988 N   0  0  0  0  0  0  0  0  0  0  0  0
   44.1048   34.3843   37.9816 C   0  0  0  0  0  0  0  0  0  0  0  0
   45.1666   33.7009   38.0588 O   0  0  0  0  0  0  0  0  0  0  0  0
   41.7094   35.5588   40.0417 H   0  0  0  0  0  0  0  0  0  0  0  0
   44.2348   34.6383   35.9383 H   0  0  0  0  0  0  0  0  0  0  0  0
  1  6  2  0
  2  3  2  0
  2  1  1  0
  3  4  1  0
  4  5  2  0
  6  5  1  0
  7  2  1  0
  8  7  1  0
  1  9  1  0
  3 10  1  0
  5 11  1  0
  8 12  1  0
  8 13  1  0
 14 15  1  0
 15 16  2  0
 16 17  1  0
 16 18  1  0
 18 19  2  0
 18 20  1  0
 20 21  1  0
 21 22  2  0
 21 14  1  0
 15 23  1  0
 20 24  1  0
  8 14  1  0
M  ISO  6   9  14  10  14  11  14  12   8  13   8  17  16
M  END
>  <DihAtoms>  (1) 
6,7,13,14

>  <DihDeg>  (1) 
-90.00001756954856

$$$$
