
 OpenBabel03242511573D

 42 45  0  0  1  0  0  0  0  0999 V2000
   46.9720   34.0080   42.5490 C   0  0  2  0  0  0  0  0  0  0  0  0
   48.3980   34.3940   42.7070 C   0  0  0  0  0  0  0  0  0  0  0  0
   48.8490   35.3950   41.7080 C   0  0  0  0  0  0  0  0  0  0  0  0
   48.5770   35.0110   40.2840 C   0  0  0  0  0  0  0  0  0  0  0  0
   47.2640   34.2900   40.0910 C   0  0  0  0  0  0  0  0  0  0  0  0
   46.3390   34.4590   41.2660 C   0  0  1  0  0  0  0  0  0  0  0  0
   46.9540   32.8790   42.5780 H   0  0  0  0  0  0  0  0  0  0  0  0
   49.0970   33.5340   42.6790 H   0  0  0  0  0  0  0  0  0  0  0  0
   48.5110   34.8570   43.7090 H   0  0  0  0  0  0  0  0  0  0  0  0
   48.4760   36.4250   41.9600 H   0  0  0  0  0  0  0  0  0  0  0  0
   49.9640   35.4770   41.8090 H   0  0  0  0  0  0  0  0  0  0  0  0
   49.4200   34.4790   39.8100 H   0  0  0  0  0  0  0  0  0  0  0  0
   48.4980   35.9790   39.7240 H   0  0  0  0  0  0  0  0  0  0  0  0
   46.7100   34.6960   39.2040 H   0  0  0  0  0  0  0  0  0  0  0  0
   47.4700   33.2400   39.8520 H   0  0  0  0  0  0  0  0  0  0  0  0
   45.9560   35.4880   41.2600 H   0  0  0  0  0  0  0  0  0  0  0  0
   46.1340   34.4500   43.6830 C   0  0  0  0  0  0  0  0  0  0  0  0
   45.4710   35.6600   43.4700 C   0  0  0  0  0  0  0  0  0  0  0  0
   44.6360   36.1860   44.4670 C   0  0  0  0  0  0  0  0  0  0  0  0
   44.5350   35.4300   45.6280 N   0  0  0  0  0  0  0  0  0  0  0  0
   45.1930   34.2660   45.7970 C   0  0  0  0  0  0  0  0  0  0  0  0
   45.9890   33.7860   44.8170 N   0  0  0  0  0  0  0  0  0  0  0  0
   45.4450   36.3650   42.6560 H   0  0  0  0  0  0  0  0  0  0  0  0
   44.0650   37.0860   44.4620 H   0  0  0  0  0  0  0  0  0  0  0  0
   45.0870   33.7140   46.7130 H   0  0  0  0  0  0  0  0  0  0  0  0
   45.1390   33.5730   41.0260 C   0  0  2  0  0  0  0  0  0  0  0  0
   44.6610   33.4120   39.5980 C   0  0  0  0  0  0  0  0  0  0  0  0
   43.8460   34.1420   40.5970 C   0  0  1  0  0  0  0  0  0  0  0  0
   45.1020   32.6990   41.7130 H   0  0  0  0  0  0  0  0  0  0  0  0
   44.4580   32.3430   39.3340 H   0  0  0  0  0  0  0  0  0  0  0  0
   45.2710   33.9270   38.8550 H   0  0  0  0  0  0  0  0  0  0  0  0
   43.7760   35.2430   40.3940 H   0  0  0  0  0  0  0  0  0  0  0  0
   42.5890   33.5510   40.9110 N   0  0  0  0  0  0  0  0  0  0  0  0
   42.5040   32.2230   40.6010 C   0  0  0  0  0  0  0  0  0  0  0  0
   41.3250   31.5420   40.8630 C   0  0  0  0  0  0  0  0  0  0  0  0
   41.2090   30.4840   40.6330 H   0  0  0  0  0  0  0  0  0  0  0  0
   40.2140   32.1680   41.4370 C   0  0  0  0  0  0  0  0  0  0  0  0
   39.1640   31.5130   41.6570 O   0  0  0  0  0  0  0  0  0  0  0  0
   40.3670   33.4670   41.7150 N   0  0  0  0  0  0  0  0  0  0  0  0
   41.5170   34.1090   41.4530 C   0  0  0  0  0  0  0  0  0  0  0  0
   41.6200   35.3250   41.7280 O   0  0  0  0  0  0  0  0  0  0  0  0
   39.5630   33.9780   42.1450 H   0  0  0  0  0  0  0  0  0  0  0  0
  1  7  1  6  0  0  0
  1  2  1  0  0  0  0
  1 17  1  0  0  0  0
  2  9  1  0  0  0  0
  3 11  1  0  0  0  0
  3 10  1  0  0  0  0
  3  2  1  0  0  0  0
  4  3  1  0  0  0  0
  5  4  1  0  0  0  0
  5  6  1  0  0  0  0
  6 16  1  1  0  0  0
  6  1  1  0  0  0  0
  8  2  1  0  0  0  0
 12  4  1  0  0  0  0
 13  4  1  0  0  0  0
 14  5  1  0  0  0  0
 15  5  1  0  0  0  0
 17 22  1  0  0  0  0
 18 17  2  0  0  0  0
 18 19  1  0  0  0  0
 19 20  2  0  0  0  0
 20 21  1  0  0  0  0
 21 25  1  0  0  0  0
 22 21  2  0  0  0  0
 23 18  1  0  0  0  0
 24 19  1  0  0  0  0
 26  6  1  0  0  0  0
 26 29  1  1  0  0  0
 27 28  1  0  0  0  0
 27 26  1  0  0  0  0
 28 32  1  6  0  0  0
 28 33  1  0  0  0  0
 28 26  1  0  0  0  0
 30 27  1  0  0  0  0
 31 27  1  0  0  0  0
 33 40  1  0  0  0  0
 34 35  2  0  0  0  0
 34 33  1  0  0  0  0
 35 37  1  0  0  0  0
 36 35  1  0  0  0  0
 37 38  2  0  0  0  0
 37 39  1  0  0  0  0
 39 42  1  0  0  0  0
 40 39  1  0  0  0  0
 40 41  2  0  0  0  0
M  END
>  <minimizedAffinity>
-6.58939457

>  <minimizedRMSD>
1.40686214

$$$$
