
 OpenBabel03242520203D

 36 38  0  0  0  0  0  0  0  0999 V2000
   41.7290   35.4720   38.9620 C   0  0  0  0  0  0  0  0  0  0  0  0
   41.9660   36.5580   39.0010 H   0  0  0  0  0  0  0  0  0  0  0  0
   41.8200   35.1420   37.8970 H   0  0  0  0  0  0  0  0  0  0  0  0
   44.1190   34.3320   41.6570 C   0  0  0  0  0  0  0  0  0  0  0  0
   43.2270   35.1410   40.9260 C   0  0  0  0  0  0  0  0  0  0  0  0
   42.6800   34.6520   39.7510 C   0  0  0  0  0  0  0  0  0  0  0  0
   43.0430   33.3900   39.3640 N   0  0  0  0  0  0  0  0  0  0  0  0
   43.9140   32.6420   40.1090 C   0  0  0  0  0  0  0  0  0  0  0  0
   44.4340   33.1120   41.2290 N   0  0  0  0  0  0  0  0  0  0  0  0
   42.9990   36.1240   41.3080 H   0  0  0  0  0  0  0  0  0  0  0  0
   44.1550   31.6510   39.7360 H   0  0  0  0  0  0  0  0  0  0  0  0
   44.7090   34.8740   42.9110 C   0  0  0  0  0  0  0  0  0  0  0  0
   46.2040   35.3020   42.7110 C   0  0  0  0  0  0  0  0  0  0  0  0
   45.1220   36.2220   43.0770 C   0  0  0  0  0  0  0  0  0  0  0  0
   44.5650   34.1850   43.7890 H   0  0  0  0  0  0  0  0  0  0  0  0
   46.6130   35.2410   41.6920 H   0  0  0  0  0  0  0  0  0  0  0  0
   46.8740   34.9980   43.5400 H   0  0  0  0  0  0  0  0  0  0  0  0
   44.8340   36.9420   42.2540 H   0  0  0  0  0  0  0  0  0  0  0  0
   45.0880   36.7460   44.0540 H   0  0  0  0  0  0  0  0  0  0  0  0
   40.3170   35.2700   39.4230 C   0  0  0  0  0  0  0  0  0  0  0  0
   40.1050   35.9670   40.2580 H   0  0  0  0  0  0  0  0  0  0  0  0
   39.5670   35.5470   38.6340 H   0  0  0  0  0  0  0  0  0  0  0  0
   39.9370   33.5240   41.1490 C   0  0  0  0  0  0  0  0  0  0  0  0
   39.9500   34.3810   42.0850 O   0  0  0  0  0  0  0  0  0  0  0  0
   40.0180   33.8950   39.7890 N   0  0  0  0  0  0  0  0  0  0  0  0
   39.8800   33.2660   39.0120 H   0  0  0  0  0  0  0  0  0  0  0  0
   41.6410   29.9340   43.3480 H   0  0  0  0  0  0  0  0  0  0  0  0
   40.8500   30.2990   42.7790 N   0  0  0  0  0  0  0  0  0  0  0  0
   40.8570   31.5680   42.3400 C   0  0  0  0  0  3  0  0  0  0  0  0
   39.8320   32.1320   41.5730 C   0  0  0  0  0  0  0  0  0  0  0  0
   38.8480   31.2310   41.3400 C   0  0  0  0  0  0  0  0  0  0  0  0
   37.8650   31.5930   40.6660 O   0  0  0  0  0  0  0  0  0  0  0  0
   38.8070   29.9710   41.7560 N   0  0  0  0  0  0  0  0  0  0  0  0
   39.8220   29.4830   42.4920 C   0  0  0  0  0  0  0  0  0  0  0  0
   39.8580   28.3210   42.9180 O   0  0  0  0  0  0  0  0  0  0  0  0
   38.0260   29.3300   41.5460 H   0  0  0  0  0  0  0  0  0  0  0  0
  1  2  1  0  0  0  0
  1 20  1  0  0  0  0
  1  6  1  0  0  0  0
  3  1  1  0  0  0  0
  4 12  1  0  0  0  0
  5 10  1  0  0  0  0
  5  4  2  0  0  0  0
  6  5  1  0  0  0  0
  7  6  2  0  0  0  0
  7  8  1  0  0  0  0
  8  9  2  0  0  0  0
  9  4  1  0  0  0  0
 11  8  1  0  0  0  0
 12 14  1  0  0  0  0
 12 15  1  0  0  0  0
 13 12  1  0  0  0  0
 13 14  1  0  0  0  0
 13 17  1  0  0  0  0
 14 19  1  0  0  0  0
 16 13  1  0  0  0  0
 18 14  1  0  0  0  0
 20 25  1  0  0  0  0
 20 21  1  0  0  0  0
 22 20  1  0  0  0  0
 23 30  1  0  0  0  0
 23 24  2  0  0  0  0
 25 23  1  0  0  0  0
 26 25  1  0  0  0  0
 28 27  1  0  0  0  0
 29 28  1  0  0  0  0
 30 29  2  0  0  0  0
 31 30  1  0  0  0  0
 31 33  1  0  0  0  0
 32 31  2  0  0  0  0
 33 34  1  0  0  0  0
 34 28  1  0  0  0  0
 34 35  2  0  0  0  0
 36 33  1  0  0  0  0
M  END
>  <minimizedAffinity>
-4.97344685

>  <minimizedRMSD>
2.11512709

$$$$
