
 OpenBabel03242518383D

 40 43  0  0  1  0  0  0  0  0999 V2000
   48.3320   33.6340   40.6790 O   0  0  0  0  0  0  0  0  0  0  0  0
   48.1950   33.8360   39.2810 C   0  0  0  0  0  0  0  0  0  0  0  0
   48.6820   34.8410   38.4390 C   0  0  0  0  0  0  0  0  0  0  0  0
   48.2620   34.5770   37.1470 C   0  0  0  0  0  0  0  0  0  0  0  0
   47.5430   33.4300   37.2630 C   0  0  0  0  0  0  0  0  0  0  0  0
   47.5050   32.9990   38.5100 O   0  0  0  0  0  0  0  0  0  0  0  0
   49.2780   35.6430   38.8420 H   0  0  0  0  0  0  0  0  0  0  0  0
   48.4960   35.1950   36.2910 H   0  0  0  0  0  0  0  0  0  0  0  0
   46.8750   32.7380   36.1400 C   0  0  2  0  0  0  0  0  0  0  0  0
   47.1110   31.3150   35.8930 C   0  0  0  0  0  0  0  0  0  0  0  0
   47.8590   32.2700   35.0360 C   0  0  1  0  0  0  0  0  0  0  0  0
   45.9740   33.2620   35.7890 H   0  0  0  0  0  0  0  0  0  0  0  0
   47.6520   30.6730   36.6250 H   0  0  0  0  0  0  0  0  0  0  0  0
   46.2420   30.7720   35.4230 H   0  0  0  0  0  0  0  0  0  0  0  0
   48.9140   32.4840   35.1890 H   0  0  0  0  0  0  0  0  0  0  0  0
   48.1980   32.8970   32.6560 C   0  0  0  0  0  0  0  0  0  0  0  0
   49.4180   33.1770   32.8420 O   0  0  0  0  0  0  0  0  0  0  0  0
   47.3260   32.4740   33.6910 N   0  0  0  0  0  0  0  0  0  0  0  0
   47.8850   33.0120   31.6270 H   0  0  0  0  0  0  0  0  0  0  0  0
   46.3160   32.3100   33.5040 H   0  0  0  0  0  0  0  0  0  0  0  0
   48.1520   34.7520   41.5450 C   0  0  0  0  0  0  0  0  0  0  0  0
   48.8710   35.7500   41.3320 O   0  0  0  0  0  0  0  0  0  0  0  0
   47.1610   34.5900   42.5600 C   0  0  0  0  0  0  0  0  0  0  0  0
   46.0750   35.4220   42.4620 C   0  0  0  0  0  0  0  0  0  0  0  0
   45.0690   35.3260   43.4090 C   0  0  0  0  0  0  0  0  0  0  0  0
   45.2020   34.4090   44.3970 N   0  0  0  0  0  0  0  0  0  0  0  0
   46.2740   33.6100   44.4690 C   0  0  0  0  0  0  0  0  0  0  0  0
   47.2360   33.7240   43.5360 N   0  0  0  0  0  0  0  0  0  0  0  0
   45.8940   36.1750   41.7090 H   0  0  0  0  0  0  0  0  0  0  0  0
   44.1860   35.9570   43.3830 H   0  0  0  0  0  0  0  0  0  0  0  0
   46.3600   32.6640   45.5320 N   0  0  0  0  0  0  0  0  0  0  0  0
   46.8720   32.8780   46.7610 C   0  0  0  0  0  3  0  0  0  0  0  0
   46.8940   31.8680   47.7010 C   0  0  0  0  0  0  0  0  0  0  0  0
   47.3120   32.0860   48.6650 H   0  0  0  0  0  0  0  0  0  0  0  0
   46.3670   30.6510   47.3130 C   0  0  0  0  0  0  0  0  0  0  0  0
   46.3800   29.7100   48.1710 O   0  0  0  0  0  0  0  0  0  0  0  0
   45.8620   30.4390   46.1050 N   0  0  0  0  0  0  0  0  0  0  0  0
   45.8560   31.4570   45.1950 C   0  0  0  0  0  0  0  0  0  0  0  0
   45.3540   31.1520   44.0790 O   0  0  0  0  0  0  0  0  0  0  0  0
   45.4810   29.4800   45.8910 H   0  0  0  0  0  0  0  0  0  0  0  0
  1 21  1  0  0  0  0
  2  1  1  0  0  0  0
  3  7  1  0  0  0  0
  3  2  2  0  0  0  0
  4  5  2  0  0  0  0
  4  3  1  0  0  0  0
  5  6  1  0  0  0  0
  6  2  1  0  0  0  0
  8  4  1  0  0  0  0
  9 12  1  6  0  0  0
  9  5  1  0  0  0  0
 10  9  1  0  0  0  0
 10 13  1  0  0  0  0
 11 15  1  1  0  0  0
 11 10  1  0  0  0  0
 11  9  1  0  0  0  0
 14 10  1  0  0  0  0
 16 17  2  0  0  0  0
 16 18  1  0  0  0  0
 18 11  1  0  0  0  0
 19 16  1  0  0  0  0
 20 18  1  0  0  0  0
 21 23  1  0  0  0  0
 22 21  2  0  0  0  0
 23 28  1  0  0  0  0
 24 23  2  0  0  0  0
 24 25  1  0  0  0  0
 25 26  2  0  0  0  0
 26 27  1  0  0  0  0
 27 31  1  0  0  0  0
 28 27  2  0  0  0  0
 29 24  1  0  0  0  0
 30 25  1  0  0  0  0
 31 32  1  0  0  0  0
 32 33  2  0  0  0  0
 33 34  1  0  0  0  0
 35 33  1  0  0  0  0
 35 36  2  0  0  0  0
 37 35  1  0  0  0  0
 38 31  1  0  0  0  0
 38 37  1  0  0  0  0
 39 38  2  0  0  0  0
 40 37  1  0  0  0  0
M  END
>  <minimizedAffinity>
-6.1597023

>  <minimizedRMSD>
1.05533516

$$$$
