
 OpenBabel03252505543D

 34 36  0  0  0  0  0  0  0  0999 V2000
   46.6020   30.3640   47.8040 C   0  0  0  0  0  0  0  0  0  0  0  0
   46.8480   29.1200   47.2640 C   0  0  0  0  0  0  0  0  0  0  0  0
   48.0370   28.4930   47.5320 C   0  0  0  0  0  0  0  0  0  0  0  0
   48.9790   29.0550   48.3070 N   0  0  0  0  0  0  0  0  0  0  0  0
   48.7260   30.2700   48.8270 C   0  0  0  0  0  0  0  0  0  0  0  0
   47.5620   30.9330   48.5930 N   0  0  0  0  0  0  0  0  0  0  0  0
   46.0340   28.7590   46.6610 H   0  0  0  0  0  0  0  0  0  0  0  0
   48.1270   27.5240   47.0590 H   0  0  0  0  0  0  0  0  0  0  0  0
   49.7590   30.8440   49.6560 N   0  0  0  0  0  0  0  0  0  0  0  0
   50.1300   32.1060   49.7940 C   0  0  0  0  0  3  0  0  0  0  0  0
   51.1580   32.4090   50.6590 C   0  0  0  0  0  0  0  0  0  0  0  0
   51.4310   33.4510   50.7430 H   0  0  0  0  0  0  0  0  0  0  0  0
   51.7830   31.4100   51.3640 C   0  0  0  0  0  0  0  0  0  0  0  0
   52.7230   31.7030   52.1530 O   0  0  0  0  0  0  0  0  0  0  0  0
   51.3870   30.1310   51.2070 N   0  0  0  0  0  0  0  0  0  0  0  0
   50.3790   29.8510   50.3560 C   0  0  0  0  0  0  0  0  0  0  0  0
   50.1240   28.6120   50.3170 O   0  0  0  0  0  0  0  0  0  0  0  0
   51.9080   29.4270   51.7750 H   0  0  0  0  0  0  0  0  0  0  0  0
   45.4380   31.2320   47.6780 C   0  0  0  0  0  0  0  0  0  0  0  0
   44.6840   31.0920   48.4930 H   0  0  0  0  0  0  0  0  0  0  0  0
   44.8900   31.0000   46.7330 H   0  0  0  0  0  0  0  0  0  0  0  0
   45.8950   32.5590   47.5770 O   0  0  0  0  0  0  0  0  0  0  0  0
   44.9780   34.9120   45.0720 C   0  0  0  0  0  0  0  0  0  0  0  0
   45.8470   34.6390   44.0210 C   0  0  0  0  0  0  0  0  0  0  0  0
   46.7840   33.5990   44.1970 C   0  0  0  0  0  0  0  0  0  0  0  0
   46.7750   32.9350   45.3760 N   0  0  0  0  0  0  0  0  0  0  0  0
   45.9100   33.2380   46.3630 C   0  0  0  0  0  0  0  0  0  0  0  0
   45.0220   34.2130   46.2180 N   0  0  0  0  0  0  0  0  0  0  0  0
   44.2360   35.7050   44.9870 H   0  0  0  0  0  0  0  0  0  0  0  0
   47.4460   33.3990   43.3820 H   0  0  0  0  0  0  0  0  0  0  0  0
   45.7390   35.4610   42.7730 C   0  0  0  0  0  0  0  0  0  0  0  0
   45.2780   36.6840   43.1890 F   0  0  0  0  0  0  0  0  0  0  0  0
   44.7870   34.8320   41.9800 F   0  0  0  0  0  0  0  0  0  0  0  0
   46.9700   35.5210   42.1730 F   0  0  0  0  0  0  0  0  0  0  0  0
  1  6  1  0  0  0  0
  2  3  1  0  0  0  0
  2  1  2  0  0  0  0
  3  4  2  0  0  0  0
  4  5  1  0  0  0  0
  5  9  1  0  0  0  0
  6  5  2  0  0  0  0
  7  2  1  0  0  0  0
  8  3  1  0  0  0  0
  9 10  1  0  0  0  0
  9 16  1  0  0  0  0
 10 11  2  0  0  0  0
 11 12  1  0  0  0  0
 11 13  1  0  0  0  0
 13 14  2  0  0  0  0
 15 13  1  0  0  0  0
 15 18  1  0  0  0  0
 16 15  1  0  0  0  0
 17 16  2  0  0  0  0
 19  1  1  0  0  0  0
 19 20  1  0  0  0  0
 21 19  1  0  0  0  0
 22 19  1  0  0  0  0
 23 28  1  0  0  0  0
 24 25  1  0  0  0  0
 24 23  2  0  0  0  0
 25 26  2  0  0  0  0
 26 27  1  0  0  0  0
 27 22  1  0  0  0  0
 28 27  2  0  0  0  0
 29 23  1  0  0  0  0
 30 25  1  0  0  0  0
 31 32  1  0  0  0  0
 31 24  1  0  0  0  0
 33 31  1  0  0  0  0
 34 31  1  0  0  0  0
M  END
>  <minimizedAffinity>
-6.19695044

>  <minimizedRMSD>
0.90556407

$$$$
