REMARK  Name = 
REMARK  10 active torsions:
REMARK  status: ('A' for Active; 'I' for Inactive)
REMARK    1  A    between atoms: C_1  and  C_9
REMARK    2  A    between atoms: C_2  and  C_13
REMARK    3  A    between atoms: C_13  and  N_14
REMARK    4  A    between atoms: N_14  and  S_15
REMARK    5  A    between atoms: S_15  and  O_16
REMARK    6  A    between atoms: S_15  and  O_17
REMARK    7  A    between atoms: S_15  and  O_18
REMARK    8  A    between atoms: O_18  and  C_19
REMARK    9  A    between atoms: C_19  and  C_20
REMARK   10  A    between atoms: C_20  and  N_37
REMARK                            x       y       z     vdW  Elec       q    Type
REMARK                         _______ _______ _______ _____ _____    ______ ____
ROOT
ATOM      1  N   UNL     1      42.710  31.517  42.572  0.00  0.00    +0.000 NA
ATOM      2  H   UNL     1      43.264  30.634  42.498  0.00  0.00    +0.000 HD
ENDROOT
BRANCH   1   3
ATOM      3  C   UNL     1      43.050  32.540  41.639  0.00  0.00    +0.000 C 
ATOM      4  H   UNL     1      43.604  32.107  40.756  0.00  0.00    +0.000 HD
ATOM      5  H   UNL     1      42.114  32.967  41.239  0.00  0.00    +0.000 HD
BRANCH   3   7
ATOM      6  C   UNL     1      43.654  34.961  41.884  0.00  0.00    +0.000 A 
ATOM      7  C   UNL     1      43.910  33.626  42.188  0.00  0.00    +0.000 A 
ATOM      8  C   UNL     1      44.978  33.333  43.010  0.00  0.00    +0.000 A 
ATOM      9  C   UNL     1      45.755  34.348  43.503  0.00  0.00    +0.000 A 
ATOM     10  C   UNL     1      45.526  35.665  43.221  0.00  0.00    +0.000 A 
ATOM     11  C   UNL     1      44.447  35.908  42.395  0.00  0.00    +0.000 A 
ATOM     12  H   UNL     1      45.213  32.310  43.271  0.00  0.00    +0.000 HD
ATOM     13  H   UNL     1      46.599  34.100  44.154  0.00  0.00    +0.000 HD
ATOM     14  H   UNL     1      46.108  36.498  43.584  0.00  0.00    +0.000 HD
ATOM     15  H   UNL     1      44.184  36.931  42.113  0.00  0.00    +0.000 HD
BRANCH   6  18
ATOM     16  C   UNL     1      40.237  35.799  40.517  0.00  0.00    +0.000 A 
ATOM     17  C   UNL     1      41.260  35.584  41.448  0.00  0.00    +0.000 A 
ATOM     18  C   UNL     1      42.513  35.212  41.012  0.00  0.00    +0.000 A 
ATOM     19  N   UNL     1      42.673  35.075  39.664  0.00  0.00    +0.000 NA
ATOM     20  C   UNL     1      41.682  35.285  38.771  0.00  0.00    +0.000 A 
ATOM     21  N   UNL     1      40.466  35.647  39.213  0.00  0.00    +0.000 NA
ATOM     22  H   UNL     1      39.253  36.092  40.864  0.00  0.00    +0.000 HD
ATOM     23  H   UNL     1      41.116  35.696  42.495  0.00  0.00    +0.000 HD
ATOM     24  H   UNL     1      42.008  35.124  37.738  0.00  0.00    +0.000 HD
ENDBRANCH   6  18
ENDBRANCH   3   7
ENDBRANCH   1   3
BRANCH   1  25
ATOM     25  S   UNL     1      41.035  31.141  42.556  0.00  0.00    +0.000 S 
BRANCH  25  26
ATOM     26  O   UNL     1      40.201  32.397  42.455  0.00  0.00    +0.000 OA
ATOM     27  H   UNL     1      39.460  32.658  43.054  0.00  0.00    +0.000 HD
ENDBRANCH  25  26
BRANCH  25  28
ATOM     28  O   UNL     1      40.653  30.360  43.764  0.00  0.00    +0.000 OA
ATOM     29  H   UNL     1      41.219  29.609  44.130  0.00  0.00    +0.000 HD
ENDBRANCH  25  28
BRANCH  25  30
ATOM     30  O   UNL     1      40.739  30.202  41.193  0.00  0.00    +0.000 OA
BRANCH  30  31
ATOM     31  C   UNL     1      40.076  29.050  41.606  0.00  0.00    +0.000 C 
ATOM     32  H   UNL     1      39.150  28.971  40.975  0.00  0.00    +0.000 HD
ATOM     33  H   UNL     1      39.795  29.024  42.654  0.00  0.00    +0.000 HD
BRANCH  31  34
ATOM     34  C   UNL     1      40.930  27.826  41.222  0.00  0.00    +0.000 C 
ATOM     35  H   UNL     1      41.892  27.890  41.767  0.00  0.00    +0.000 HD
ATOM     36  H   UNL     1      40.425  26.909  41.547  0.00  0.00    +0.000 HD
BRANCH  34  37
ATOM     37  N   UNL     1      41.103  27.818  39.785  0.00  0.00    +0.000 N 
ATOM     38  C   UNL     1      40.075  27.446  38.989  0.00  0.00    +0.000 A 
ATOM     39  C   UNL     1      40.298  27.457  37.617  0.00  0.00    +0.000 A 
ATOM     40  H   UNL     1      39.497  27.164  36.923  0.00  0.00    +0.000 HD
ATOM     41  C   UNL     1      41.535  27.840  37.140  0.00  0.00    +0.000 A 
ATOM     42  O   UNL     1      41.786  27.866  35.891  0.00  0.00    +0.000 OA
ATOM     43  N   UNL     1      42.531  28.203  37.984  0.00  0.00    +0.000 N 
ATOM     44  C   UNL     1      42.307  28.190  39.308  0.00  0.00    +0.000 A 
ATOM     45  O   UNL     1      43.245  28.532  40.106  0.00  0.00    +0.000 OA
ATOM     46  H   UNL     1      43.478  28.498  37.660  0.00  0.00    +0.000 HD
ENDBRANCH  34  37
ENDBRANCH  31  34
ENDBRANCH  30  31
ENDBRANCH  25  30
ENDBRANCH   1  25
TORSDOF 10
