
 OpenBabel03252506283D

 48 52  0  0  0  0  0  0  0  0999 V2000
   46.6560   32.4100   45.3400 C   0  0  0  0  0  0  0  0  0  0  0  0
   47.5110   31.3470   45.0280 C   0  0  0  0  0  0  0  0  0  0  0  0
   47.6500   30.5540   46.1130 C   0  0  0  0  0  0  0  0  0  0  0  0
   46.9010   31.1090   47.0670 N   0  0  0  0  0  0  0  0  0  0  0  0
   46.3000   32.2180   46.6240 N   0  0  0  0  0  0  0  0  0  0  0  0
   47.9860   31.2010   44.0470 H   0  0  0  0  0  0  0  0  0  0  0  0
   48.2580   29.6620   46.1380 H   0  0  0  0  0  0  0  0  0  0  0  0
   45.0780   35.4170   44.0000 C   0  0  0  0  0  0  0  0  0  0  0  0
   45.5410   35.4690   42.6920 C   0  0  0  0  0  0  0  0  0  0  0  0
   46.4030   34.4560   42.2790 C   0  0  0  0  0  0  0  0  0  0  0  0
   46.7300   33.4900   43.1790 N   0  0  0  0  0  0  0  0  0  0  0  0
   46.2750   33.4650   44.4180 C   0  0  0  0  0  0  0  0  0  0  0  0
   45.4390   34.4420   44.8310 N   0  0  0  0  0  0  0  0  0  0  0  0
   44.4050   36.2300   44.2810 H   0  0  0  0  0  0  0  0  0  0  0  0
   45.3150   36.2060   41.9420 H   0  0  0  0  0  0  0  0  0  0  0  0
   46.9770   34.3540   40.9630 N   0  0  0  0  0  0  0  0  0  0  0  0
   46.4360   33.6280   39.9680 C   0  0  0  0  0  3  0  0  0  0  0  0
   47.0380   33.5710   38.7200 C   0  0  0  0  0  0  0  0  0  0  0  0
   46.5990   32.9860   37.9250 H   0  0  0  0  0  0  0  0  0  0  0  0
   48.2070   34.2750   38.5250 C   0  0  0  0  0  0  0  0  0  0  0  0
   48.8100   34.2700   37.4190 O   0  0  0  0  0  0  0  0  0  0  0  0
   48.7000   34.9850   39.5670 N   0  0  0  0  0  0  0  0  0  0  0  0
   48.1090   35.0440   40.7960 C   0  0  0  0  0  0  0  0  0  0  0  0
   48.7140   35.7550   41.6390 O   0  0  0  0  0  0  0  0  0  0  0  0
   49.5980   35.5110   39.3720 H   0  0  0  0  0  0  0  0  0  0  0  0
   46.7350   30.6030   48.4260 C   0  0  0  0  0  0  0  0  0  0  0  0
   46.9750   31.3930   49.1740 H   0  0  0  0  0  0  0  0  0  0  0  0
   47.4200   29.7760   48.6130 H   0  0  0  0  0  0  0  0  0  0  0  0
   45.3430   30.1650   48.6590 C   0  0  0  0  0  0  0  0  0  0  0  0
   44.6690   31.0440   48.4740 H   0  0  0  0  0  0  0  0  0  0  0  0
   45.2260   29.9680   49.7520 H   0  0  0  0  0  0  0  0  0  0  0  0
   44.9600   27.6610   48.3230 C   0  0  0  0  0  0  0  0  0  0  0  0
   44.8850   28.9820   47.9580 C   0  0  0  0  0  0  0  0  0  0  0  0
   44.2790   29.2530   46.7270 C   0  0  0  0  0  0  0  0  0  0  0  0
   43.7830   28.2430   45.9210 C   0  0  0  0  0  0  0  0  0  0  0  0
   43.1700   28.2000   44.7280 N   0  0  0  0  0  0  0  0  0  0  0  0
   42.8810   26.9520   44.3690 C   0  0  0  0  0  0  0  0  0  0  0  0
   43.3230   26.0950   45.3740 C   0  0  0  0  0  0  0  0  0  0  0  0
   43.8700   26.9350   46.3070 C   0  0  0  0  0  0  0  0  0  0  0  0
   44.4670   26.6620   47.5210 C   0  0  0  0  0  0  0  0  0  0  0  0
   45.4350   27.4920   49.2800 H   0  0  0  0  0  0  0  0  0  0  0  0
   44.1490   30.2460   46.3090 H   0  0  0  0  0  0  0  0  0  0  0  0
   42.9350   29.0360   44.1320 H   0  0  0  0  0  0  0  0  0  0  0  0
   42.3920   26.5710   43.4720 H   0  0  0  0  0  0  0  0  0  0  0  0
   43.2380   25.0160   45.3870 H   0  0  0  0  0  0  0  0  0  0  0  0
   44.5740   25.2690   47.9600 C   0  0  0  0  0  0  0  0  0  0  0  0
   45.1810   24.9820   49.0350 O   0  0  0  0  0  0  0  0  0  0  0  0
   44.1410   24.4660   47.3790 H   0  0  0  0  0  0  0  0  0  0  0  0
  1  5  2  0  0  0  0
  2  1  1  0  0  0  0
  2  3  2  0  0  0  0
  3  7  1  0  0  0  0
  3  4  1  0  0  0  0
  4 26  1  0  0  0  0
  5  4  1  0  0  0  0
  6  2  1  0  0  0  0
  8 14  1  0  0  0  0
  8 13  1  0  0  0  0
  9  8  2  0  0  0  0
 10  9  1  0  0  0  0
 10 11  2  0  0  0  0
 11 12  1  0  0  0  0
 12 13  2  0  0  0  0
 12  1  1  0  0  0  0
 15  9  1  0  0  0  0
 16 10  1  0  0  0  0
 17 16  1  0  0  0  0
 18 17  2  0  0  0  0
 19 18  1  0  0  0  0
 20 18  1  0  0  0  0
 20 22  1  0  0  0  0
 21 20  2  0  0  0  0
 22 23  1  0  0  0  0
 23 16  1  0  0  0  0
 23 24  2  0  0  0  0
 25 22  1  0  0  0  0
 26 28  1  0  0  0  0
 26 29  1  0  0  0  0
 26 27  1  0  0  0  0
 29 31  1  0  0  0  0
 30 29  1  0  0  0  0
 32 41  1  0  0  0  0
 33 32  1  0  0  0  0
 33 29  1  0  0  0  0
 34 33  2  0  0  0  0
 35 39  2  0  0  0  0
 35 34  1  0  0  0  0
 36 35  1  0  0  0  0
 37 36  1  0  0  0  0
 37 38  2  0  0  0  0
 38 45  1  0  0  0  0
 38 39  1  0  0  0  0
 39 40  1  0  0  0  0
 40 46  1  0  0  0  0
 40 32  2  0  0  0  0
 42 34  1  0  0  0  0
 43 36  1  0  0  0  0
 44 37  1  0  0  0  0
 46 47  2  0  0  0  0
 48 46  1  0  0  0  0
M  END
>  <minimizedAffinity>
-6.41316128

>  <minimizedRMSD>
1.2541604

$$$$
