
 OpenBabel03252507463D

 38 40  0  0  0  0  0  0  0  0999 V2000
   47.2600   34.5500   40.9000 C   0  0  0  0  0  0  0  0  0  0  0  0
   47.4420   35.4250   40.2630 H   0  0  0  0  0  0  0  0  0  0  0  0
   46.6630   33.8270   40.3230 H   0  0  0  0  0  0  0  0  0  0  0  0
   48.5590   33.9900   41.3190 C   0  0  0  0  0  0  0  0  0  0  0  0
   48.8540   32.7120   40.8780 C   0  0  0  0  0  0  0  0  0  0  0  0
   50.0450   32.0870   41.2110 C   0  0  0  0  0  0  0  0  0  0  0  0
   50.9140   32.8080   42.0000 N   0  0  0  0  0  0  0  0  0  0  0  0
   50.5890   34.0490   42.4070 C   0  0  0  0  0  0  0  0  0  0  0  0
   49.4390   34.6260   42.0750 N   0  0  0  0  0  0  0  0  0  0  0  0
   50.2950   31.1000   40.8820 H   0  0  0  0  0  0  0  0  0  0  0  0
   51.2510   34.6470   43.0320 H   0  0  0  0  0  0  0  0  0  0  0  0
   47.6770   31.8010   39.8400 S   0  0  0  0  0  0  0  0  0  0  0  0
   50.5020   32.0490   35.8640 H   0  0  0  0  0  0  0  0  0  0  0  0
   49.5600   32.2560   36.2710 N   0  0  0  0  0  0  0  0  0  0  0  0
   49.3910   31.9130   37.5460 C   0  0  0  0  0  3  0  0  0  0  0  0
   48.1840   32.1550   38.1470 C   0  0  0  0  0  0  0  0  0  0  0  0
   47.1550   32.7500   37.4230 C   0  0  0  0  0  0  0  0  0  0  0  0
   45.9890   33.0270   37.8580 O   0  0  0  0  0  0  0  0  0  0  0  0
   47.3570   33.0870   36.1220 N   0  0  0  0  0  0  0  0  0  0  0  0
   48.5620   32.8360   35.5580 C   0  0  0  0  0  0  0  0  0  0  0  0
   48.8090   33.1250   34.3650 O   0  0  0  0  0  0  0  0  0  0  0  0
   46.6050   33.5370   35.5460 H   0  0  0  0  0  0  0  0  0  0  0  0
   46.4010   34.9760   42.0630 C   0  0  0  0  0  0  0  0  0  0  0  0
   46.6980   34.4150   42.9710 H   0  0  0  0  0  0  0  0  0  0  0  0
   46.6300   36.0510   42.2800 H   0  0  0  0  0  0  0  0  0  0  0  0
   44.9450   34.9340   41.7810 C   0  0  0  0  0  0  0  0  0  0  0  0
   44.0260   35.4660   42.7420 C   0  0  0  0  0  0  0  0  0  0  0  0
   42.3960   35.1880   41.9520 S   0  0  0  0  0  0  0  0  0  0  0  0
   43.2330   34.3930   40.4420 C   0  0  0  0  0  0  0  0  0  0  0  0
   44.3350   34.4610   40.7310 N   0  0  0  0  0  0  0  0  0  0  0  0
   44.2620   35.9160   43.6940 H   0  0  0  0  0  0  0  0  0  0  0  0
   42.5230   33.9070   39.3540 O   0  0  0  0  0  0  0  0  0  0  0  0
   40.5320   34.2990   37.6490 O   0  0  0  0  0  0  0  0  0  0  0  0
   41.6040   35.0300   38.4560 P   0  0  0  0  0  0  0  0  0  0  0  0
   40.8480   36.0690   39.5520 O   0  0  0  0  0  0  0  0  0  0  0  0
   40.3410   36.7540   39.0470 H   0  0  0  0  0  0  0  0  0  0  0  0
   42.6180   35.9210   37.4380 O   0  0  0  0  0  0  0  0  0  0  0  0
   42.7050   35.4970   36.5640 H   0  0  0  0  0  0  0  0  0  0  0  0
  1  4  1  0  0  0  0
  1 23  1  0  0  0  0
  2  1  1  0  0  0  0
  3  1  1  0  0  0  0
  4  9  1  0  0  0  0
  5  6  1  0  0  0  0
  5  4  2  0  0  0  0
  6  7  2  0  0  0  0
  7  8  1  0  0  0  0
  8 11  1  0  0  0  0
  9  8  2  0  0  0  0
 10  6  1  0  0  0  0
 12  5  1  0  0  0  0
 13 14  1  0  0  0  0
 14 15  1  0  0  0  0
 15 16  2  0  0  0  0
 16 12  1  0  0  0  0
 17 18  2  0  0  0  0
 17 16  1  0  0  0  0
 19 17  1  0  0  0  0
 20 19  1  0  0  0  0
 20 14  1  0  0  0  0
 21 20  2  0  0  0  0
 22 19  1  0  0  0  0
 23 25  1  0  0  0  0
 23 24  1  0  0  0  0
 26 23  1  0  0  0  0
 26 27  2  0  0  0  0
 27 31  1  0  0  0  0
 28 27  1  0  0  0  0
 29 30  2  0  0  0  0
 29 28  1  0  0  0  0
 30 26  1  0  0  0  0
 32 29  1  0  0  0  0
 33 34  2  0  0  0  0
 34 32  1  0  0  0  0
 34 35  1  0  0  0  0
 36 35  1  0  0  0  0
 37 34  1  0  0  0  0
 38 37  1  0  0  0  0
M  END
>  <minimizedAffinity>
-5.63924885

>  <minimizedRMSD>
0.580393076

$$$$
