
 OpenBabel03242519573D

 29 31  0  0  0  0  0  0  0  0999 V2000
   44.8960   33.1650   40.9650 Br  0  0  0  0  0  0  0  0  0  0  0  0
   46.5660   34.1090   40.8960 C   0  0  0  0  0  0  0  0  0  0  0  0
   47.0340   34.8670   41.9510 C   0  0  0  0  0  0  0  0  0  0  0  0
   48.2530   35.5090   41.8000 C   0  0  0  0  0  0  0  0  0  0  0  0
   48.9990   35.4140   40.6430 C   0  0  0  0  0  0  0  0  0  0  0  0
   48.5350   34.6520   39.5780 C   0  0  0  0  0  0  0  0  0  0  0  0
   47.3140   34.0140   39.7400 C   0  0  0  0  0  0  0  0  0  0  0  0
   48.6150   36.1010   42.6280 H   0  0  0  0  0  0  0  0  0  0  0  0
   49.9490   35.9280   40.5580 H   0  0  0  0  0  0  0  0  0  0  0  0
   49.1300   34.5950   38.6970 H   0  0  0  0  0  0  0  0  0  0  0  0
   46.9050   33.2550   38.6070 N   0  0  0  0  0  0  0  0  0  0  0  0
   46.1760   32.1130   38.7480 C   0  0  0  0  0  0  0  0  0  0  0  0
   45.7750   31.3690   37.6400 C   0  0  0  0  0  0  0  0  0  0  0  0
   45.1980   30.4610   37.7000 H   0  0  0  0  0  0  0  0  0  0  0  0
   46.1360   31.8170   36.3760 C   0  0  0  0  0  0  0  0  0  0  0  0
   45.7890   31.1670   35.3690 O   0  0  0  0  0  0  0  0  0  0  0  0
   46.8550   32.9520   36.3210 N   0  0  0  0  0  0  0  0  0  0  0  0
   47.2540   33.6860   37.3740 C   0  0  0  0  0  0  0  0  0  0  0  0
   47.9260   34.7330   37.1620 O   0  0  0  0  0  0  0  0  0  0  0  0
   47.1320   33.2960   35.3530 H   0  0  0  0  0  0  0  0  0  0  0  0
   44.4740   35.9800   44.5090 C   0  0  0  0  0  0  0  0  0  0  0  0
   45.2640   35.9430   43.3460 C   0  0  0  0  0  0  0  0  0  0  0  0
   46.2050   34.9310   43.1440 C   0  0  0  0  0  0  0  0  0  0  0  0
   46.2900   34.0140   44.1390 N   0  0  0  0  0  0  0  0  0  0  0  0
   45.5320   34.0540   45.2530 C   0  0  0  0  0  0  0  0  0  0  0  0
   44.6300   35.0360   45.4290 N   0  0  0  0  0  0  0  0  0  0  0  0
   43.7440   36.7630   44.6700 H   0  0  0  0  0  0  0  0  0  0  0  0
   45.1380   36.7080   42.5980 H   0  0  0  0  0  0  0  0  0  0  0  0
   45.7020   33.2600   45.9660 H   0  0  0  0  0  0  0  0  0  0  0  0
  2  1  1  0  0  0  0
  2  3  1  0  0  0  0
  3 23  1  0  0  0  0
  4  3  2  0  0  0  0
  4  8  1  0  0  0  0
  5  4  1  0  0  0  0
  6  7  1  0  0  0  0
  6  5  2  0  0  0  0
  7  2  2  0  0  0  0
  9  5  1  0  0  0  0
 10  6  1  0  0  0  0
 11 12  1  0  0  0  0
 11  7  1  0  0  0  0
 13 14  1  0  0  0  0
 13 12  2  0  0  0  0
 15 13  1  0  0  0  0
 16 15  2  0  0  0  0
 17 15  1  0  0  0  0
 17 18  1  0  0  0  0
 18 11  1  0  0  0  0
 19 18  2  0  0  0  0
 20 17  1  0  0  0  0
 21 27  1  0  0  0  0
 21 26  1  0  0  0  0
 22 21  2  0  0  0  0
 23 22  1  0  0  0  0
 23 24  2  0  0  0  0
 24 25  1  0  0  0  0
 25 26  2  0  0  0  0
 25 29  1  0  0  0  0
 28 22  1  0  0  0  0
M  END
>  <minimizedAffinity>
-6.01924801

>  <minimizedRMSD>
0.604864001

$$$$
