
     RDKit          3D

 27 28  0  0  0  0  0  0  0  0999 V2000
   44.2977   35.7905   44.1907 C   0  0  0  0  0  0  0  0  0  0  0  0
   44.4674   34.9317   43.0847 C   0  0  0  0  0  0  0  0  0  0  0  0
   45.0826   33.7108   43.3114 C   0  0  0  0  0  0  0  0  0  0  0  0
   45.4926   33.3945   44.5759 N   0  0  0  0  0  0  0  0  0  0  0  0
   45.3153   34.2351   45.6046 C   0  0  0  0  0  0  0  0  0  0  0  0
   44.7263   35.4059   45.3919 N   0  0  0  0  0  0  0  0  0  0  0  0
   44.0196   35.2972   41.7486 C   0  0  0  0  0  0  0  0  0  0  0  0
   43.0042   34.7352   41.1022 C   0  0  0  0  0  0  0  0  0  0  0  0
   42.6525   35.2171   39.7190 C   0  0  0  0  0  0  0  0  0  0  0  0
   43.8208   36.7502   44.0448 H   0  0  0  0  0  0  0  0  0  0  0  0
   45.2516   32.9952   42.5228 H   0  0  0  0  0  0  0  0  0  0  0  0
   44.6199   36.0999   41.3246 H   0  0  0  0  0  0  0  0  0  0  0  0
   42.5044   33.9497   41.6560 H   0  0  0  0  0  0  0  0  0  0  0  0
   43.5674   35.5939   39.2390 H   0  0  0  0  0  0  0  0  0  0  0  0
   41.9252   36.0413   39.7990 H   0  0  0  0  0  0  0  0  0  0  0  0
   42.2028   34.3870   39.1414 H   0  0  0  0  0  0  0  0  0  0  0  0
   45.7649   33.8471   46.8989 N   0  0  0  0  0  0  0  0  0  0  0  0
   44.9491   33.9592   47.9686 C   0  0  0  0  0  0  0  0  0  0  0  0
   45.4731   33.5564   49.1916 C   0  0  0  0  0  0  0  0  0  0  0  0
   44.8371   33.6344   50.0796 H   0  0  0  0  0  0  0  0  0  0  0  0
   46.7564   33.0753   49.2687 C   0  0  0  0  0  0  0  0  0  0  0  0
   47.2168   32.7146   50.3827 O   0  0  0  0  0  0  0  0  0  0  0  0
   47.5513   32.9732   48.1854 N   0  0  0  0  0  0  0  0  0  0  0  0
   47.0192   33.3689   47.0205 C   0  0  0  0  0  0  0  0  0  0  0  0
   47.7636   33.2728   46.0086 O   0  0  0  0  0  0  0  0  0  0  0  0
   43.9460   34.3376   47.8955 H   0  0  0  0  0  0  0  0  0  0  0  0
   48.5313   32.6045   48.2521 H   0  0  0  0  0  0  0  0  0  0  0  0
  1  6  2  0
  2  3  2  0
  2  1  1  0
  3  4  1  0
  4  5  2  0
  6  5  1  0
  7  2  1  0
  8  7  2  0
  9  8  1  0
  1 10  1  0
  3 11  1  0
  7 12  1  0
  8 13  1  0
  9 14  1  0
  9 15  1  0
  9 16  1  0
 17 18  1  0
 18 19  2  0
 19 20  1  0
 19 21  1  0
 21 22  2  0
 21 23  1  0
 23 24  1  0
 24 25  2  0
 24 17  1  0
 18 26  1  0
 23 27  1  0
  5 17  1  0
M  ISO  6  10  14  11  14  14   8  15   8  16   8  20  16
M  END
>  <DihAtoms>  (1) 
3,4,16,17

>  <DihDeg>  (1) 
-10.983908049889703

$$$$
