
 OpenBabel03242519413D

 30 31  0  0  0  0  0  0  0  0999 V2000
   48.0290   32.8670   41.8190 O   0  0  0  0  0  0  0  0  0  0  0  0
   47.1870   34.0550   41.3480 P   0  0  2  0  0  0  0  0  0  0  0  0
   45.5960   33.8980   41.9770 O   0  0  0  0  0  0  0  0  0  0  0  0
   44.3740   35.9410   44.6820 C   0  0  0  0  0  0  0  0  0  0  0  0
   44.6710   35.5080   43.3710 C   0  0  0  0  0  0  0  0  0  0  0  0
   45.3160   34.2800   43.2450 C   0  0  0  0  0  0  0  0  0  0  0  0
   45.6190   33.5720   44.3520 N   0  0  0  0  0  0  0  0  0  0  0  0
   45.3200   34.0150   45.5870 C   0  0  0  0  0  0  0  0  0  0  0  0
   44.7010   35.1970   45.7560 N   0  0  0  0  0  0  0  0  0  0  0  0
   43.8750   36.8910   44.8230 H   0  0  0  0  0  0  0  0  0  0  0  0
   44.3700   36.1740   42.5770 H   0  0  0  0  0  0  0  0  0  0  0  0
   45.6100   33.3670   46.3980 H   0  0  0  0  0  0  0  0  0  0  0  0
   46.9640   34.0930   39.6990 O   0  0  0  0  0  0  0  0  0  0  0  0
   46.5220   33.1420   38.8660 C   0  0  0  0  0  0  0  0  0  0  0  0
   47.5100   32.2750   38.5280 O   0  0  0  0  0  0  0  0  0  0  0  0
   45.0370   30.0110   35.9070 H   0  0  0  0  0  0  0  0  0  0  0  0
   44.7490   30.8130   36.5390 N   0  0  0  0  0  0  0  0  0  0  0  0
   45.7310   31.4060   37.2170 C   0  0  0  0  0  3  0  0  0  0  0  0
   45.5470   32.4380   38.0640 C   0  0  0  0  0  0  0  0  0  0  0  0
   44.1600   32.7380   38.0760 C   0  0  0  0  0  0  0  0  0  0  0  0
   43.7780   33.7130   38.8440 O   0  0  0  0  0  0  0  0  0  0  0  0
   43.0940   32.2370   37.4620 N   0  0  0  0  0  0  0  0  0  0  0  0
   43.5060   31.2460   36.6890 C   0  0  0  0  0  0  0  0  0  0  0  0
   42.6670   30.6010   35.9920 O   0  0  0  0  0  0  0  0  0  0  0  0
   42.1170   32.5590   37.5640 H   0  0  0  0  0  0  0  0  0  0  0  0
   47.8020   35.4470   41.9930 O   0  0  0  0  0  0  0  0  0  0  0  0
   49.0340   35.7440   41.4360 C   0  0  0  0  0  0  0  0  0  0  0  0
   49.4520   37.0290   41.7590 F   0  0  0  0  0  0  0  0  0  0  0  0
   49.9520   34.8010   41.7820 F   0  0  0  0  0  0  0  0  0  0  0  0
   48.8600   35.7200   40.0640 F   0  0  0  0  0  0  0  0  0  0  0  0
  2  1  2  1  0  0  0
  2  3  1  0  0  0  0
  2 26  1  0  0  0  0
  3  6  1  0  0  0  0
  4 10  1  0  0  0  0
  4  9  1  0  0  0  0
  5  4  2  0  0  0  0
  6  5  1  0  0  0  0
  6  7  2  0  0  0  0
  7  8  1  0  0  0  0
  8  9  2  0  0  0  0
  8 12  1  0  0  0  0
 11  5  1  0  0  0  0
 13  2  1  0  0  0  0
 14 13  1  0  0  0  0
 15 14  2  0  0  0  0
 16 17  1  0  0  0  0
 17 23  1  0  0  0  0
 17 18  1  0  0  0  0
 18 19  2  0  0  0  0
 19 20  1  0  0  0  0
 19 14  1  0  0  0  0
 20 21  2  0  0  0  0
 22 25  1  0  0  0  0
 22 20  1  0  0  0  0
 23 22  1  0  0  0  0
 24 23  2  0  0  0  0
 27 28  1  0  0  0  0
 27 29  1  0  0  0  0
 27 26  1  0  0  0  0
 30 27  1  0  0  0  0
M  END
>  <minimizedAffinity>
-5.44461536

>  <minimizedRMSD>
1.31739402

$$$$
