
     RDKit          3D

 27 28  0  0  0  0  0  0  0  0999 V2000
   44.6817   35.5248   43.5984 C   0  0  0  0  0  0  0  0  0  0  0  0
   43.9383   35.4168   42.4093 C   0  0  0  0  0  0  0  0  0  0  0  0
   43.7833   34.1650   41.8313 C   0  0  0  0  0  0  0  0  0  0  0  0
   44.3590   33.1069   42.4454 N   0  0  0  0  0  0  0  0  0  0  0  0
   45.0693   33.2336   43.5879 C   0  0  0  0  0  0  0  0  0  0  0  0
   45.2261   34.4284   44.1535 N   0  0  0  0  0  0  0  0  0  0  0  0
   44.8558   36.8471   44.2252 C   0  0  0  0  0  0  0  0  0  0  0  0
   45.2365   37.8395   43.4314 C   0  0  0  0  0  0  0  0  0  0  0  0
   45.4309   39.2039   44.0035 C   0  0  0  0  0  0  0  0  0  0  0  0
   43.5284   36.3270   42.0140 H   0  0  0  0  0  0  0  0  0  0  0  0
   43.2105   34.0813   40.9150 H   0  0  0  0  0  0  0  0  0  0  0  0
   44.7031   37.0929   45.2770 H   0  0  0  0  0  0  0  0  0  0  0  0
   45.4075   37.6581   42.3603 H   0  0  0  0  0  0  0  0  0  0  0  0
   45.3153   39.9255   43.1468 H   0  0  0  0  0  0  0  0  0  0  0  0
   44.7460   39.4218   44.8350 H   0  0  0  0  0  0  0  0  0  0  0  0
   46.4682   39.2800   44.3850 H   0  0  0  0  0  0  0  0  0  0  0  0
   45.6066   32.0218   44.1010 N   0  0  0  0  0  0  0  0  0  0  0  0
   45.0042   30.8142   43.9097 C   0  0  0  0  0  0  0  0  0  0  0  0
   45.5492   29.6516   44.4201 C   0  0  0  0  0  0  0  0  0  0  0  0
   45.0265   28.7094   44.2384 H   0  0  0  0  0  0  0  0  0  0  0  0
   46.7264   29.7086   45.1384 C   0  0  0  0  0  0  0  0  0  0  0  0
   47.1968   28.6421   45.5884 O   0  0  0  0  0  0  0  0  0  0  0  0
   47.2918   30.9348   45.3041 N   0  0  0  0  0  0  0  0  0  0  0  0
   46.7501   32.0585   44.8014 C   0  0  0  0  0  0  0  0  0  0  0  0
   47.3992   33.1256   45.0426 O   0  0  0  0  0  0  0  0  0  0  0  0
   44.0892   30.8615   43.3377 H   0  0  0  0  0  0  0  0  0  0  0  0
   48.1898   30.8742   45.8676 H   0  0  0  0  0  0  0  0  0  0  0  0
  1  6  2  0
  1  7  1  0
  2  1  1  0
  3  2  2  0
  3  4  1  0
  4  5  2  0
  5  6  1  0
  8  9  1  0
  8  7  2  0
  2 10  1  0
  3 11  1  0
  7 12  1  0
  8 13  1  0
  9 14  1  0
  9 15  1  0
  9 16  1  0
 17 18  1  0
 18 19  2  0
 19 20  1  0
 19 21  1  0
 21 22  2  0
 21 23  1  0
 23 24  1  0
 24 25  2  0
 24 17  1  0
 18 26  1  0
 23 27  1  0
  5 17  1  0
M  ISO  6  10  14  11  14  14   8  15   8  16   8  20  16
M  END
>  <DihAtoms>  (1) 
3,4,16,17

>  <DihDeg>  (1) 
60.0963664191827

$$$$
