
 OpenBabel03252506183D

 24 25  0  0  0  0  0  0  0  0999 V2000
   44.8850   35.7900   44.0220 C   0  0  0  0  0  0  0  0  0  0  0  0
   44.5230   35.3660   42.7310 C   0  0  0  0  0  0  0  0  0  0  0  0
   44.6000   34.0140   42.4260 C   0  0  0  0  0  0  0  0  0  0  0  0
   45.0210   33.1690   43.3940 N   0  0  0  0  0  0  0  0  0  0  0  0
   45.3630   33.5980   44.6290 C   0  0  0  0  0  0  0  0  0  0  0  0
   45.2940   34.8920   44.9360 N   0  0  0  0  0  0  0  0  0  0  0  0
   44.2040   36.1290   42.0460 H   0  0  0  0  0  0  0  0  0  0  0  0
   44.3220   33.6870   41.4320 H   0  0  0  0  0  0  0  0  0  0  0  0
   45.7850   32.5790   45.5260 N   0  0  0  0  0  0  0  0  0  0  0  0
   45.8750   32.7780   46.8720 C   0  0  0  0  0  3  0  0  0  0  0  0
   46.2870   31.7690   47.7200 C   0  0  0  0  0  0  0  0  0  0  0  0
   46.3430   31.9800   48.7900 H   0  0  0  0  0  0  0  0  0  0  0  0
   46.6140   30.5320   47.2000 C   0  0  0  0  0  0  0  0  0  0  0  0
   46.9840   29.6380   47.9910 O   0  0  0  0  0  0  0  0  0  0  0  0
   46.5090   30.3790   45.8530 N   0  0  0  0  0  0  0  0  0  0  0  0
   46.1060   31.3710   45.0380 C   0  0  0  0  0  0  0  0  0  0  0  0
   46.0600   31.0700   43.8040 O   0  0  0  0  0  0  0  0  0  0  0  0
   46.7810   29.3980   45.5520 H   0  0  0  0  0  0  0  0  0  0  0  0
   44.8090   37.2220   44.3620 C   0  0  0  0  0  3  0  0  0  0  0  0
   45.4450   38.0620   43.5560 C   0  0  0  0  0  3  0  0  0  0  0  0
   45.4080   39.5250   43.8450 C   0  0  0  0  0  0  0  0  0  0  0  0
   45.6080   40.0450   42.8660 H   0  0  0  0  0  0  0  0  0  0  0  0
   44.4660   39.8470   44.3090 H   0  0  0  0  0  0  0  0  0  0  0  0
   46.2340   39.7670   44.5420 H   0  0  0  0  0  0  0  0  0  0  0  0
  1 19  1  0  0  0  0
  1  6  1  0  0  0  0
  2  1  2  0  0  0  0
  3  2  1  0  0  0  0
  3  4  2  0  0  0  0
  4  5  1  0  0  0  0
  5  6  2  0  0  0  0
  5  9  1  0  0  0  0
  7  2  1  0  0  0  0
  8  3  1  0  0  0  0
  9 10  1  0  0  0  0
 10 11  2  0  0  0  0
 11 12  1  0  0  0  0
 13 11  1  0  0  0  0
 13 14  2  0  0  0  0
 15 13  1  0  0  0  0
 16  9  1  0  0  0  0
 16 15  1  0  0  0  0
 17 16  2  0  0  0  0
 18 15  1  0  0  0  0
 20 21  1  0  0  0  0
 20 19  2  0  0  0  0
 21 23  1  0  0  0  0
 21 24  1  0  0  0  0
 22 21  1  0  0  0  0
M  END
>  <minimizedAffinity>
-3.92356801

>  <minimizedRMSD>
1.54861009

$$$$
