
 OpenBabel03252506183D

 24 25  0  0  0  0  0  0  0  0999 V2000
   44.6530   35.5010   43.4850 C   0  0  0  0  0  0  0  0  0  0  0  0
   43.7950   35.4210   42.3730 C   0  0  0  0  0  0  0  0  0  0  0  0
   43.6470   34.2000   41.7310 C   0  0  0  0  0  0  0  0  0  0  0  0
   44.3410   33.1430   42.2110 N   0  0  0  0  0  0  0  0  0  0  0  0
   45.1590   33.2430   43.2820 C   0  0  0  0  0  0  0  0  0  0  0  0
   45.3110   34.4070   43.9080 N   0  0  0  0  0  0  0  0  0  0  0  0
   43.2970   36.3270   42.0840 H   0  0  0  0  0  0  0  0  0  0  0  0
   42.9870   34.1380   40.8750 H   0  0  0  0  0  0  0  0  0  0  0  0
   45.8130   32.0360   43.6550 N   0  0  0  0  0  0  0  0  0  0  0  0
   45.1590   30.8420   43.7260 C   0  0  0  0  0  3  0  0  0  0  0  0
   45.8190   29.6840   44.0930 C   0  0  0  0  0  0  0  0  0  0  0  0
   45.2500   28.7530   44.1340 H   0  0  0  0  0  0  0  0  0  0  0  0
   47.1660   29.7330   44.3920 C   0  0  0  0  0  0  0  0  0  0  0  0
   47.7380   28.6710   44.7200 O   0  0  0  0  0  0  0  0  0  0  0  0
   47.7760   30.9460   44.3070 N   0  0  0  0  0  0  0  0  0  0  0  0
   47.1200   32.0650   43.9500 C   0  0  0  0  0  0  0  0  0  0  0  0
   47.8310   33.1190   43.9180 O   0  0  0  0  0  0  0  0  0  0  0  0
   48.8060   30.8800   44.5570 H   0  0  0  0  0  0  0  0  0  0  0  0
   44.8210   36.7900   44.1780 C   0  0  0  0  0  3  0  0  0  0  0  0
   45.2270   37.8170   43.4420 C   0  0  0  0  0  3  0  0  0  0  0  0
   45.4170   39.1510   44.0840 C   0  0  0  0  0  0  0  0  0  0  0  0
   45.3260   39.9130   43.2600 H   0  0  0  0  0  0  0  0  0  0  0  0
   44.7140   39.3340   44.9080 H   0  0  0  0  0  0  0  0  0  0  0  0
   46.4450   39.2000   44.4920 H   0  0  0  0  0  0  0  0  0  0  0  0
  1  6  1  0  0  0  0
  1 19  1  0  0  0  0
  2  1  2  0  0  0  0
  3  4  2  0  0  0  0
  3  2  1  0  0  0  0
  4  5  1  0  0  0  0
  5  9  1  0  0  0  0
  5  6  2  0  0  0  0
  7  2  1  0  0  0  0
  8  3  1  0  0  0  0
  9 10  1  0  0  0  0
  9 16  1  0  0  0  0
 10 11  2  0  0  0  0
 11 12  1  0  0  0  0
 11 13  1  0  0  0  0
 13 14  2  0  0  0  0
 15 13  1  0  0  0  0
 15 18  1  0  0  0  0
 16 15  1  0  0  0  0
 17 16  2  0  0  0  0
 20 21  1  0  0  0  0
 20 19  2  0  0  0  0
 21 24  1  0  0  0  0
 21 23  1  0  0  0  0
 22 21  1  0  0  0  0
M  END
>  <minimizedAffinity>
-3.34909773

>  <minimizedRMSD>
0.512880981

$$$$
