
 OpenBabel03242520193D

 36 38  0  0  0  0  0  0  0  0999 V2000
   40.9980   35.8520   39.3820 C   0  0  0  0  0  0  0  0  0  0  0  0
   41.1560   36.9510   39.3110 H   0  0  0  0  0  0  0  0  0  0  0  0
   40.7510   35.4770   38.3580 H   0  0  0  0  0  0  0  0  0  0  0  0
   43.9250   34.6750   41.4600 C   0  0  0  0  0  0  0  0  0  0  0  0
   42.7770   35.3880   41.0640 C   0  0  0  0  0  0  0  0  0  0  0  0
   42.2130   35.1280   39.8260 C   0  0  0  0  0  0  0  0  0  0  0  0
   42.8150   34.1760   39.0470 N   0  0  0  0  0  0  0  0  0  0  0  0
   43.9310   33.5090   39.4760 C   0  0  0  0  0  0  0  0  0  0  0  0
   44.4650   33.7600   40.6590 N   0  0  0  0  0  0  0  0  0  0  0  0
   42.3710   36.1210   41.7450 H   0  0  0  0  0  0  0  0  0  0  0  0
   44.3510   32.7690   38.8020 H   0  0  0  0  0  0  0  0  0  0  0  0
   44.5270   34.9730   42.7870 C   0  0  0  0  0  0  0  0  0  0  0  0
   46.0550   35.3100   42.6700 C   0  0  0  0  0  0  0  0  0  0  0  0
   45.0370   36.2440   43.1610 C   0  0  0  0  0  0  0  0  0  0  0  0
   44.3140   34.1720   43.5480 H   0  0  0  0  0  0  0  0  0  0  0  0
   46.4790   35.3730   41.6580 H   0  0  0  0  0  0  0  0  0  0  0  0
   46.6820   34.8320   43.4490 H   0  0  0  0  0  0  0  0  0  0  0  0
   44.8210   37.1010   42.4560 H   0  0  0  0  0  0  0  0  0  0  0  0
   45.0210   36.6150   44.2070 H   0  0  0  0  0  0  0  0  0  0  0  0
   39.8390   35.5900   40.2970 C   0  0  0  0  0  0  0  0  0  0  0  0
   40.2070   35.5310   41.3400 H   0  0  0  0  0  0  0  0  0  0  0  0
   39.1050   36.4410   40.3100 H   0  0  0  0  0  0  0  0  0  0  0  0
   39.1560   33.2400   40.7210 C   0  0  0  0  0  0  0  0  0  0  0  0
   39.7530   33.2190   41.8410 O   0  0  0  0  0  0  0  0  0  0  0  0
   39.0720   34.4100   39.9350 N   0  0  0  0  0  0  0  0  0  0  0  0
   38.4990   34.5070   39.1090 H   0  0  0  0  0  0  0  0  0  0  0  0
   36.7740   29.4940   41.6830 H   0  0  0  0  0  0  0  0  0  0  0  0
   37.2820   30.0260   40.9470 N   0  0  0  0  0  0  0  0  0  0  0  0
   37.8640   31.2010   41.2370 C   0  0  0  0  0  3  0  0  0  0  0  0
   38.5630   31.9740   40.3030 C   0  0  0  0  0  0  0  0  0  0  0  0
   38.5700   31.3780   39.0880 C   0  0  0  0  0  0  0  0  0  0  0  0
   39.1600   31.9530   38.1520 O   0  0  0  0  0  0  0  0  0  0  0  0
   38.0070   30.2190   38.7640 N   0  0  0  0  0  0  0  0  0  0  0  0
   37.3480   29.5200   39.7040 C   0  0  0  0  0  0  0  0  0  0  0  0
   36.7970   28.4320   39.4830 O   0  0  0  0  0  0  0  0  0  0  0  0
   38.0470   29.8150   37.8160 H   0  0  0  0  0  0  0  0  0  0  0  0
  1  6  1  0  0  0  0
  1 20  1  0  0  0  0
  2  1  1  0  0  0  0
  3  1  1  0  0  0  0
  4 12  1  0  0  0  0
  5  4  1  0  0  0  0
  5 10  1  0  0  0  0
  6  5  2  0  0  0  0
  7  8  2  0  0  0  0
  7  6  1  0  0  0  0
  8  9  1  0  0  0  0
  9  4  2  0  0  0  0
 11  8  1  0  0  0  0
 12 14  1  0  0  0  0
 12 15  1  0  0  0  0
 13 12  1  0  0  0  0
 13 14  1  0  0  0  0
 13 17  1  0  0  0  0
 14 19  1  0  0  0  0
 16 13  1  0  0  0  0
 18 14  1  0  0  0  0
 20 22  1  0  0  0  0
 20 21  1  0  0  0  0
 23 24  2  0  0  0  0
 25 20  1  0  0  0  0
 25 23  1  0  0  0  0
 26 25  1  0  0  0  0
 28 29  1  0  0  0  0
 28 27  1  0  0  0  0
 30 23  1  0  0  0  0
 30 29  2  0  0  0  0
 31 30  1  0  0  0  0
 32 31  2  0  0  0  0
 33 31  1  0  0  0  0
 33 34  1  0  0  0  0
 34 28  1  0  0  0  0
 35 34  2  0  0  0  0
 36 33  1  0  0  0  0
M  END
>  <minimizedAffinity>
-5.25473785

>  <minimizedRMSD>
0.561206162

$$$$
