
 OpenBabel03242516553D

 46 49  0  0  1  0  0  0  0  0999 V2000
   38.3250   25.2150   41.1420 C   0  0  1  0  0  0  0  0  0  0  0  0
   37.3260   24.1550   41.2740 C   0  0  0  0  0  0  0  0  0  0  0  0
   37.8770   22.9600   40.5010 C   0  0  0  0  0  0  0  0  0  0  0  0
   37.8290   23.3300   39.0280 C   0  0  0  0  0  0  0  0  0  0  0  0
   38.5230   24.6160   38.6920 C   0  0  0  0  0  0  0  0  0  0  0  0
   38.4880   25.6900   39.6940 C   0  0  1  0  0  0  0  0  0  0  0  0
   39.3450   24.7710   41.3600 H   0  0  0  0  0  0  0  0  0  0  0  0
   36.3440   24.4050   40.8000 H   0  0  0  0  0  0  0  0  0  0  0  0
   37.2030   23.8870   42.3290 H   0  0  0  0  0  0  0  0  0  0  0  0
   38.9120   22.7200   40.8240 H   0  0  0  0  0  0  0  0  0  0  0  0
   37.1640   22.1290   40.6390 H   0  0  0  0  0  0  0  0  0  0  0  0
   36.7680   23.3280   38.7090 H   0  0  0  0  0  0  0  0  0  0  0  0
   38.3060   22.4760   38.4960 H   0  0  0  0  0  0  0  0  0  0  0  0
   38.0740   24.9990   37.7500 H   0  0  0  0  0  0  0  0  0  0  0  0
   39.5690   24.3450   38.4110 H   0  0  0  0  0  0  0  0  0  0  0  0
   39.4890   26.2120   39.6830 H   0  0  0  0  0  0  0  0  0  0  0  0
   36.7200   27.7650   43.4250 C   0  0  0  0  0  0  0  0  0  0  0  0
   36.9440   26.6690   42.5830 C   0  0  0  0  0  0  0  0  0  0  0  0
   38.1810   26.3640   42.0100 C   0  0  0  0  0  0  0  0  0  0  0  0
   39.1730   27.2010   42.3160 N   0  0  0  0  0  0  0  0  0  0  0  0
   38.9710   28.2700   43.1320 C   0  0  0  0  0  0  0  0  0  0  0  0
   37.7850   28.5560   43.6790 N   0  0  0  0  0  0  0  0  0  0  0  0
   35.7220   27.9050   43.8130 H   0  0  0  0  0  0  0  0  0  0  0  0
   36.1270   25.9980   42.3450 H   0  0  0  0  0  0  0  0  0  0  0  0
   39.7890   28.9470   43.3760 H   0  0  0  0  0  0  0  0  0  0  0  0
   37.5220   26.7370   39.3590 C   0  0  0  0  0  0  0  0  0  0  0  0
   36.2080   26.5310   38.9160 C   0  0  0  0  0  0  0  0  0  0  0  0
   35.4600   27.6850   38.6700 C   0  0  0  0  0  0  0  0  0  0  0  0
   36.0600   28.9060   38.8770 C   0  0  0  0  0  0  0  0  0  0  0  0
   37.3540   29.0860   39.3120 C   0  0  0  0  0  0  0  0  0  0  0  0
   38.0840   27.9600   39.5520 N   0  0  0  0  0  0  0  0  0  0  0  0
   35.8910   25.5360   38.8060 H   0  0  0  0  0  0  0  0  0  0  0  0
   34.4450   27.5490   38.3290 H   0  0  0  0  0  0  0  0  0  0  0  0
   35.4320   29.7570   38.6700 H   0  0  0  0  0  0  0  0  0  0  0  0
   37.9130   30.4250   39.5100 C   0  0  0  0  0  0  0  0  0  0  0  0
   37.4110   31.1460   40.4160 O   0  0  0  0  0  0  0  0  0  0  0  0
   42.2540   31.6930   39.1960 H   0  0  0  0  0  0  0  0  0  0  0  0
   41.3040   31.6920   38.7430 N   0  0  0  0  0  0  0  0  0  0  0  0
   40.2720   31.0930   39.3820 C   0  0  0  0  0  3  0  0  0  0  0  0
   39.0050   31.0810   38.7940 C   0  0  0  0  0  0  0  0  0  0  0  0
   38.8610   31.6890   37.5730 C   0  0  0  0  0  0  0  0  0  0  0  0
   37.6890   31.6280   37.1230 O   0  0  0  0  0  0  0  0  0  0  0  0
   39.8800   32.2860   36.9300 N   0  0  0  0  0  0  0  0  0  0  0  0
   41.1050   32.2810   37.5300 C   0  0  0  0  0  0  0  0  0  0  0  0
   42.0620   32.8400   36.9320 O   0  0  0  0  0  0  0  0  0  0  0  0
   39.7120   32.7330   36.0030 H   0  0  0  0  0  0  0  0  0  0  0  0
  1  2  1  0  0  0  0
  1  7  1  1  0  0  0
  1 19  1  0  0  0  0
  2  9  1  0  0  0  0
  3 11  1  0  0  0  0
  3 10  1  0  0  0  0
  3  2  1  0  0  0  0
  4  3  1  0  0  0  0
  5  4  1  0  0  0  0
  5  6  1  0  0  0  0
  6 16  1  6  0  0  0
  6  1  1  0  0  0  0
  8  2  1  0  0  0  0
 12  4  1  0  0  0  0
 13  4  1  0  0  0  0
 14  5  1  0  0  0  0
 15  5  1  0  0  0  0
 17 22  1  0  0  0  0
 17 23  1  0  0  0  0
 18 17  2  0  0  0  0
 19 20  2  0  0  0  0
 19 18  1  0  0  0  0
 20 21  1  0  0  0  0
 21 25  1  0  0  0  0
 21 22  2  0  0  0  0
 24 18  1  0  0  0  0
 26 31  1  0  0  0  0
 26  6  1  0  0  0  0
 27 26  2  0  0  0  0
 28 29  2  0  0  0  0
 28 27  1  0  0  0  0
 29 30  1  0  0  0  0
 30 35  1  0  0  0  0
 30 31  2  0  0  0  0
 32 27  1  0  0  0  0
 33 28  1  0  0  0  0
 34 29  1  0  0  0  0
 35 36  2  0  0  0  0
 38 37  1  0  0  0  0
 38 39  1  0  0  0  0
 40 39  2  0  0  0  0
 40 35  1  0  0  0  0
 41 40  1  0  0  0  0
 42 41  2  0  0  0  0
 43 44  1  0  0  0  0
 43 41  1  0  0  0  0
 44 38  1  0  0  0  0
 45 44  2  0  0  0  0
 46 43  1  0  0  0  0
M  END
>  <minimizedAffinity>
-6.39527798

$$$$

 OpenBabel03242516553D

 46 49  0  0  1  0  0  0  0  0999 V2000
   38.7290   25.9760   41.7450 C   0  0  1  0  0  0  0  0  0  0  0  0
   39.5760   27.0620   42.2350 C   0  0  0  0  0  0  0  0  0  0  0  0
   39.1460   27.3120   43.6770 C   0  0  0  0  0  0  0  0  0  0  0  0
   37.7570   27.9260   43.6210 C   0  0  0  0  0  0  0  0  0  0  0  0
   36.7590   27.1240   42.8420 C   0  0  0  0  0  0  0  0  0  0  0  0
   37.2490   26.3710   41.6790 C   0  0  1  0  0  0  0  0  0  0  0  0
   38.7170   25.1530   42.5250 H   0  0  0  0  0  0  0  0  0  0  0  0
   39.4230   28.0280   41.6930 H   0  0  0  0  0  0  0  0  0  0  0  0
   40.6280   26.7540   42.2120 H   0  0  0  0  0  0  0  0  0  0  0  0
   39.1470   26.3690   44.2630 H   0  0  0  0  0  0  0  0  0  0  0  0
   39.8150   28.0890   44.0860 H   0  0  0  0  0  0  0  0  0  0  0  0
   37.8560   28.9610   43.2380 H   0  0  0  0  0  0  0  0  0  0  0  0
   37.4370   28.0260   44.6830 H   0  0  0  0  0  0  0  0  0  0  0  0
   35.9650   27.8220   42.5000 H   0  0  0  0  0  0  0  0  0  0  0  0
   36.2450   26.4590   43.5790 H   0  0  0  0  0  0  0  0  0  0  0  0
   36.6990   25.3860   41.6410 H   0  0  0  0  0  0  0  0  0  0  0  0
   40.3550   25.5020   38.3650 C   0  0  0  0  0  0  0  0  0  0  0  0
   39.9430   26.0290   39.5960 C   0  0  0  0  0  0  0  0  0  0  0  0
   39.1150   25.3550   40.4960 C   0  0  0  0  0  0  0  0  0  0  0  0
   38.7200   24.1410   40.1090 N   0  0  0  0  0  0  0  0  0  0  0  0
   39.1100   23.6160   38.9170 C   0  0  0  0  0  0  0  0  0  0  0  0
   39.9050   24.2650   38.0610 N   0  0  0  0  0  0  0  0  0  0  0  0
   40.9980   26.1110   37.7480 H   0  0  0  0  0  0  0  0  0  0  0  0
   40.2740   27.0160   39.8950 H   0  0  0  0  0  0  0  0  0  0  0  0
   38.7830   22.6220   38.6110 H   0  0  0  0  0  0  0  0  0  0  0  0
   36.9220   27.0250   40.4120 C   0  0  0  0  0  0  0  0  0  0  0  0
   36.2900   26.4220   39.3160 C   0  0  0  0  0  0  0  0  0  0  0  0
   36.0640   27.2480   38.2110 C   0  0  0  0  0  0  0  0  0  0  0  0
   36.4730   28.5600   38.2860 C   0  0  0  0  0  0  0  0  0  0  0  0
   37.0940   29.1330   39.3740 C   0  0  0  0  0  0  0  0  0  0  0  0
   37.3140   28.3270   40.4510 N   0  0  0  0  0  0  0  0  0  0  0  0
   36.0370   25.4070   39.4090 H   0  0  0  0  0  0  0  0  0  0  0  0
   35.5780   26.8040   37.3570 H   0  0  0  0  0  0  0  0  0  0  0  0
   36.2710   29.1450   37.4050 H   0  0  0  0  0  0  0  0  0  0  0  0
   37.4930   30.5420   39.3700 C   0  0  0  0  0  0  0  0  0  0  0  0
   36.7650   31.3630   39.9960 O   0  0  0  0  0  0  0  0  0  0  0  0
   41.8210   31.8860   39.4390 H   0  0  0  0  0  0  0  0  0  0  0  0
   40.9280   31.8290   38.8860 N   0  0  0  0  0  0  0  0  0  0  0  0
   39.8400   31.2540   39.4520 C   0  0  0  0  0  3  0  0  0  0  0  0
   38.6470   31.1700   38.7310 C   0  0  0  0  0  0  0  0  0  0  0  0
   38.6300   31.6840   37.4590 C   0  0  0  0  0  0  0  0  0  0  0  0
   37.5160   31.5630   36.8900 O   0  0  0  0  0  0  0  0  0  0  0  0
   39.7040   32.2570   36.8890 N   0  0  0  0  0  0  0  0  0  0  0  0
   40.8550   32.3230   37.6190 C   0  0  0  0  0  0  0  0  0  0  0  0
   41.8640   32.8600   37.0890 O   0  0  0  0  0  0  0  0  0  0  0  0
   39.6330   32.6310   35.9190 H   0  0  0  0  0  0  0  0  0  0  0  0
  1  2  1  0  0  0  0
  1  7  1  1  0  0  0
  2  3  1  0  0  0  0
  3 11  1  0  0  0  0
  3 10  1  0  0  0  0
  4  3  1  0  0  0  0
  4 13  1  0  0  0  0
  5 15  1  0  0  0  0
  5  4  1  0  0  0  0
  6 16  1  1  0  0  0
  6  1  1  0  0  0  0
  6  5  1  0  0  0  0
  8  2  1  0  0  0  0
  9  2  1  0  0  0  0
 12  4  1  0  0  0  0
 14  5  1  0  0  0  0
 17 18  1  0  0  0  0
 18 24  1  0  0  0  0
 18 19  2  0  0  0  0
 19  1  1  0  0  0  0
 20 19  1  0  0  0  0
 21 20  2  0  0  0  0
 22 17  2  0  0  0  0
 22 21  1  0  0  0  0
 23 17  1  0  0  0  0
 25 21  1  0  0  0  0
 26 31  1  0  0  0  0
 26  6  1  0  0  0  0
 27 32  1  0  0  0  0
 27 26  2  0  0  0  0
 28 29  2  0  0  0  0
 28 27  1  0  0  0  0
 29 30  1  0  0  0  0
 30 31  2  0  0  0  0
 33 28  1  0  0  0  0
 34 29  1  0  0  0  0
 35 30  1  0  0  0  0
 35 36  2  0  0  0  0
 38 37  1  0  0  0  0
 38 39  1  0  0  0  0
 40 35  1  0  0  0  0
 40 39  2  0  0  0  0
 41 40  1  0  0  0  0
 42 41  2  0  0  0  0
 43 41  1  0  0  0  0
 43 44  1  0  0  0  0
 44 38  1  0  0  0  0
 45 44  2  0  0  0  0
 46 43  1  0  0  0  0
M  END
>  <minimizedAffinity>
-6.26288128

$$$$

 OpenBabel03242516553D

 46 49  0  0  1  0  0  0  0  0999 V2000
   39.2220   27.0320   41.9950 C   0  0  1  0  0  0  0  0  0  0  0  0
   38.8340   28.3910   42.3680 C   0  0  0  0  0  0  0  0  0  0  0  0
   37.9930   28.2550   43.6340 C   0  0  0  0  0  0  0  0  0  0  0  0
   36.6860   27.5980   43.2250 C   0  0  0  0  0  0  0  0  0  0  0  0
   36.8500   26.3030   42.4870 C   0  0  0  0  0  0  0  0  0  0  0  0
   38.0190   26.1640   41.6090 C   0  0  1  0  0  0  0  0  0  0  0  0
   39.6050   26.5030   42.9220 H   0  0  0  0  0  0  0  0  0  0  0  0
   38.1780   28.8930   41.6130 H   0  0  0  0  0  0  0  0  0  0  0  0
   39.7260   28.9900   42.5820 H   0  0  0  0  0  0  0  0  0  0  0  0
   38.5230   27.6530   44.4020 H   0  0  0  0  0  0  0  0  0  0  0  0
   37.7390   29.2760   43.9670 H   0  0  0  0  0  0  0  0  0  0  0  0
   36.0960   28.3390   42.6480 H   0  0  0  0  0  0  0  0  0  0  0  0
   36.1260   27.4400   44.1740 H   0  0  0  0  0  0  0  0  0  0  0  0
   35.9330   26.1480   41.8790 H   0  0  0  0  0  0  0  0  0  0  0  0
   36.8120   25.4950   43.2580 H   0  0  0  0  0  0  0  0  0  0  0  0
   38.4000   25.1050   41.6960 H   0  0  0  0  0  0  0  0  0  0  0  0
   42.0390   25.5270   39.9720 C   0  0  0  0  0  0  0  0  0  0  0  0
   41.0190   25.7320   40.9100 C   0  0  0  0  0  0  0  0  0  0  0  0
   40.2530   26.8980   40.9880 C   0  0  0  0  0  0  0  0  0  0  0  0
   40.5540   27.8390   40.0930 N   0  0  0  0  0  0  0  0  0  0  0  0
   41.5410   27.6550   39.1760 C   0  0  0  0  0  0  0  0  0  0  0  0
   42.2700   26.5370   39.1060 N   0  0  0  0  0  0  0  0  0  0  0  0
   42.5670   24.5860   40.0020 H   0  0  0  0  0  0  0  0  0  0  0  0
   40.7870   24.9570   41.6300 H   0  0  0  0  0  0  0  0  0  0  0  0
   41.7790   28.4310   38.4490 H   0  0  0  0  0  0  0  0  0  0  0  0
   37.6770   26.3170   40.1940 C   0  0  0  0  0  0  0  0  0  0  0  0
   37.8600   25.3500   39.1960 C   0  0  0  0  0  0  0  0  0  0  0  0
   37.4440   25.7130   37.9120 C   0  0  0  0  0  0  0  0  0  0  0  0
   36.9000   26.9650   37.7330 C   0  0  0  0  0  0  0  0  0  0  0  0
   36.7290   27.9010   38.7290 C   0  0  0  0  0  0  0  0  0  0  0  0
   37.1350   27.5470   39.9810 N   0  0  0  0  0  0  0  0  0  0  0  0
   38.2900   24.4380   39.4870 H   0  0  0  0  0  0  0  0  0  0  0  0
   37.5750   24.9830   37.1280 H   0  0  0  0  0  0  0  0  0  0  0  0
   36.5990   27.1840   36.7230 H   0  0  0  0  0  0  0  0  0  0  0  0
   36.1370   29.2100   38.4520 C   0  0  0  0  0  0  0  0  0  0  0  0
   35.0860   29.2460   37.7520 O   0  0  0  0  0  0  0  0  0  0  0  0
   38.3120   33.1050   37.6480 H   0  0  0  0  0  0  0  0  0  0  0  0
   37.7590   32.5340   38.3370 N   0  0  0  0  0  0  0  0  0  0  0  0
   37.3260   31.3030   37.9740 C   0  0  0  0  0  3  0  0  0  0  0  0
   36.5890   30.5340   38.8760 C   0  0  0  0  0  0  0  0  0  0  0  0
   36.3320   31.0680   40.1130 C   0  0  0  0  0  0  0  0  0  0  0  0
   35.6640   30.3050   40.8550 O   0  0  0  0  0  0  0  0  0  0  0  0
   36.7570   32.2890   40.4830 N   0  0  0  0  0  0  0  0  0  0  0  0
   37.4740   33.0170   39.5790 C   0  0  0  0  0  0  0  0  0  0  0  0
   37.8750   34.1610   39.9210 O   0  0  0  0  0  0  0  0  0  0  0  0
   36.5320   32.6450   41.4370 H   0  0  0  0  0  0  0  0  0  0  0  0
  1  2  1  0  0  0  0
  1  7  1  1  0  0  0
  2  9  1  0  0  0  0
  2  3  1  0  0  0  0
  3 11  1  0  0  0  0
  3 10  1  0  0  0  0
  4  3  1  0  0  0  0
  4 13  1  0  0  0  0
  5  4  1  0  0  0  0
  5 15  1  0  0  0  0
  6 16  1  1  0  0  0
  6  1  1  0  0  0  0
  6  5  1  0  0  0  0
  8  2  1  0  0  0  0
 12  4  1  0  0  0  0
 14  5  1  0  0  0  0
 17 23  1  0  0  0  0
 17 18  1  0  0  0  0
 18 19  2  0  0  0  0
 18 24  1  0  0  0  0
 19  1  1  0  0  0  0
 20 19  1  0  0  0  0
 21 20  2  0  0  0  0
 22 21  1  0  0  0  0
 22 17  2  0  0  0  0
 25 21  1  0  0  0  0
 26  6  1  0  0  0  0
 27 32  1  0  0  0  0
 27 26  2  0  0  0  0
 28 27  1  0  0  0  0
 29 28  2  0  0  0  0
 29 30  1  0  0  0  0
 30 31  2  0  0  0  0
 31 26  1  0  0  0  0
 33 28  1  0  0  0  0
 34 29  1  0  0  0  0
 35 30  1  0  0  0  0
 35 40  1  0  0  0  0
 36 35  2  0  0  0  0
 37 38  1  0  0  0  0
 38 44  1  0  0  0  0
 39 38  1  0  0  0  0
 39 40  2  0  0  0  0
 40 41  1  0  0  0  0
 41 43  1  0  0  0  0
 41 42  2  0  0  0  0
 43 46  1  0  0  0  0
 44 45  2  0  0  0  0
 44 43  1  0  0  0  0
M  END
>  <minimizedAffinity>
-6.26285696

$$$$

 OpenBabel03242516553D

 46 49  0  0  1  0  0  0  0  0999 V2000
   37.8470   26.4270   41.0650 C   0  0  1  0  0  0  0  0  0  0  0  0
   39.2810   26.5590   41.3190 C   0  0  0  0  0  0  0  0  0  0  0  0
   39.5020   26.0630   42.7460 C   0  0  0  0  0  0  0  0  0  0  0  0
   38.8690   27.0880   43.6700 C   0  0  0  0  0  0  0  0  0  0  0  0
   37.4300   27.3860   43.3700 C   0  0  0  0  0  0  0  0  0  0  0  0
   37.0060   27.3420   41.9640 C   0  0  1  0  0  0  0  0  0  0  0  0
   37.5180   25.3970   41.4060 H   0  0  0  0  0  0  0  0  0  0  0  0
   39.6430   27.6170   41.2990 H   0  0  0  0  0  0  0  0  0  0  0  0
   39.8440   25.9320   40.6190 H   0  0  0  0  0  0  0  0  0  0  0  0
   39.0550   25.0570   42.8910 H   0  0  0  0  0  0  0  0  0  0  0  0
   40.5880   26.0980   42.9360 H   0  0  0  0  0  0  0  0  0  0  0  0
   39.4990   28.0000   43.6540 H   0  0  0  0  0  0  0  0  0  0  0  0
   38.9750   26.6660   44.6950 H   0  0  0  0  0  0  0  0  0  0  0  0
   37.2090   28.3980   43.7720 H   0  0  0  0  0  0  0  0  0  0  0  0
   36.8260   26.6950   44.0070 H   0  0  0  0  0  0  0  0  0  0  0  0
   35.9700   26.8950   41.9240 H   0  0  0  0  0  0  0  0  0  0  0  0
   37.8770   27.3630   37.4030 C   0  0  0  0  0  0  0  0  0  0  0  0
   38.2300   27.1810   38.7460 C   0  0  0  0  0  0  0  0  0  0  0  0
   37.4080   26.5680   39.6940 C   0  0  0  0  0  0  0  0  0  0  0  0
   36.2260   26.1500   39.2380 N   0  0  0  0  0  0  0  0  0  0  0  0
   35.8680   26.3200   37.9380 C   0  0  0  0  0  0  0  0  0  0  0  0
   36.6600   26.9070   37.0350 N   0  0  0  0  0  0  0  0  0  0  0  0
   38.5910   27.8500   36.7570 H   0  0  0  0  0  0  0  0  0  0  0  0
   39.1940   27.5260   39.0990 H   0  0  0  0  0  0  0  0  0  0  0  0
   34.8990   25.9740   37.5760 H   0  0  0  0  0  0  0  0  0  0  0  0
   36.8550   28.6760   41.3820 C   0  0  0  0  0  0  0  0  0  0  0  0
   35.6970   29.1820   40.7770 C   0  0  0  0  0  0  0  0  0  0  0  0
   35.7790   30.4940   40.3040 C   0  0  0  0  0  0  0  0  0  0  0  0
   36.9660   31.1710   40.4660 C   0  0  0  0  0  0  0  0  0  0  0  0
   38.0940   30.6540   41.0640 C   0  0  0  0  0  0  0  0  0  0  0  0
   38.0140   29.3740   41.5260 N   0  0  0  0  0  0  0  0  0  0  0  0
   34.8650   28.5420   40.7270 H   0  0  0  0  0  0  0  0  0  0  0  0
   34.8970   30.9040   39.8350 H   0  0  0  0  0  0  0  0  0  0  0  0
   36.9660   32.1770   40.0820 H   0  0  0  0  0  0  0  0  0  0  0  0
   39.3170   31.4480   41.1990 C   0  0  0  0  0  0  0  0  0  0  0  0
   39.8370   31.5400   42.3460 O   0  0  0  0  0  0  0  0  0  0  0  0
   42.4530   31.6070   37.9300 H   0  0  0  0  0  0  0  0  0  0  0  0
   41.7280   32.1370   38.4780 N   0  0  0  0  0  0  0  0  0  0  0  0
   41.0250   31.4890   39.4370 C   0  0  0  0  0  3  0  0  0  0  0  0
   40.0590   32.1770   40.1730 C   0  0  0  0  0  0  0  0  0  0  0  0
   39.8620   33.5050   39.8870 C   0  0  0  0  0  0  0  0  0  0  0  0
   38.9750   34.0400   40.5990 O   0  0  0  0  0  0  0  0  0  0  0  0
   40.5540   34.1570   38.9370 N   0  0  0  0  0  0  0  0  0  0  0  0
   41.4910   33.4570   38.2350 C   0  0  0  0  0  0  0  0  0  0  0  0
   42.1430   34.0640   37.3450 O   0  0  0  0  0  0  0  0  0  0  0  0
   40.3630   35.1670   38.7630 H   0  0  0  0  0  0  0  0  0  0  0  0
  1  2  1  0  0  0  0
  1  7  1  1  0  0  0
  1  6  1  0  0  0  0
  2  3  1  0  0  0  0
  3 10  1  0  0  0  0
  3 11  1  0  0  0  0
  3  4  1  0  0  0  0
  4 13  1  0  0  0  0
  5  4  1  0  0  0  0
  5 14  1  0  0  0  0
  5 15  1  0  0  0  0
  6 16  1  1  0  0  0
  6  5  1  0  0  0  0
  8  2  1  0  0  0  0
  9  2  1  0  0  0  0
 12  4  1  0  0  0  0
 17 18  1  0  0  0  0
 18 24  1  0  0  0  0
 18 19  2  0  0  0  0
 19  1  1  0  0  0  0
 20 19  1  0  0  0  0
 21 20  2  0  0  0  0
 22 17  2  0  0  0  0
 22 21  1  0  0  0  0
 23 17  1  0  0  0  0
 25 21  1  0  0  0  0
 26 31  1  0  0  0  0
 26  6  1  0  0  0  0
 27 26  2  0  0  0  0
 28 29  2  0  0  0  0
 28 27  1  0  0  0  0
 29 30  1  0  0  0  0
 30 35  1  0  0  0  0
 30 31  2  0  0  0  0
 32 27  1  0  0  0  0
 33 28  1  0  0  0  0
 34 29  1  0  0  0  0
 35 36  2  0  0  0  0
 37 38  1  0  0  0  0
 38 39  1  0  0  0  0
 39 40  2  0  0  0  0
 40 35  1  0  0  0  0
 41 40  1  0  0  0  0
 41 42  2  0  0  0  0
 43 41  1  0  0  0  0
 44 38  1  0  0  0  0
 44 43  1  0  0  0  0
 45 44  2  0  0  0  0
 46 43  1  0  0  0  0
M  END
>  <minimizedAffinity>
-6.22717333

$$$$

 OpenBabel03242516553D

 46 49  0  0  1  0  0  0  0  0999 V2000
   38.9390   24.8660   40.9080 C   0  0  1  0  0  0  0  0  0  0  0  0
   38.2640   23.7590   41.5830 C   0  0  0  0  0  0  0  0  0  0  0  0
   37.3250   23.1460   40.5480 C   0  0  0  0  0  0  0  0  0  0  0  0
   36.2190   24.1570   40.3050 C   0  0  0  0  0  0  0  0  0  0  0  0
   36.7040   25.5220   39.9190 C   0  0  0  0  0  0  0  0  0  0  0  0
   37.9710   25.9840   40.5030 C   0  0  1  0  0  0  0  0  0  0  0  0
   39.3060   24.4980   39.8990 H   0  0  0  0  0  0  0  0  0  0  0  0
   37.6170   24.0830   42.4360 H   0  0  0  0  0  0  0  0  0  0  0  0
   39.0000   23.0120   41.9020 H   0  0  0  0  0  0  0  0  0  0  0  0
   37.8680   22.9070   39.6090 H   0  0  0  0  0  0  0  0  0  0  0  0
   36.8500   22.2690   41.0210 H   0  0  0  0  0  0  0  0  0  0  0  0
   35.5710   24.1790   41.2040 H   0  0  0  0  0  0  0  0  0  0  0  0
   35.5940   23.7200   39.4930 H   0  0  0  0  0  0  0  0  0  0  0  0
   35.9070   26.2470   40.1910 H   0  0  0  0  0  0  0  0  0  0  0  0
   36.7300   25.5430   38.8030 H   0  0  0  0  0  0  0  0  0  0  0  0
   38.5300   26.5650   39.7130 H   0  0  0  0  0  0  0  0  0  0  0  0
   41.3260   25.8220   43.6790 C   0  0  0  0  0  0  0  0  0  0  0  0
   40.2510   25.2890   42.9550 C   0  0  0  0  0  0  0  0  0  0  0  0
   40.0850   25.4440   41.5770 C   0  0  0  0  0  0  0  0  0  0  0  0
   41.0330   26.1520   40.9640 N   0  0  0  0  0  0  0  0  0  0  0  0
   42.0820   26.6770   41.6520 C   0  0  0  0  0  0  0  0  0  0  0  0
   42.2370   26.5240   42.9710 N   0  0  0  0  0  0  0  0  0  0  0  0
   41.3550   25.6390   44.7430 H   0  0  0  0  0  0  0  0  0  0  0  0
   39.4900   24.7150   43.4690 H   0  0  0  0  0  0  0  0  0  0  0  0
   42.8520   27.2540   41.1410 H   0  0  0  0  0  0  0  0  0  0  0  0
   37.7690   26.9410   41.5920 C   0  0  0  0  0  0  0  0  0  0  0  0
   36.9850   26.7320   42.7340 C   0  0  0  0  0  0  0  0  0  0  0  0
   36.9510   27.7860   43.6520 C   0  0  0  0  0  0  0  0  0  0  0  0
   37.6750   28.9210   43.3650 C   0  0  0  0  0  0  0  0  0  0  0  0
   38.4400   29.1060   42.2350 C   0  0  0  0  0  0  0  0  0  0  0  0
   38.4720   28.0780   41.3410 N   0  0  0  0  0  0  0  0  0  0  0  0
   36.4890   25.8100   42.8120 H   0  0  0  0  0  0  0  0  0  0  0  0
   36.3530   27.6460   44.5390 H   0  0  0  0  0  0  0  0  0  0  0  0
   37.6090   29.6960   44.1100 H   0  0  0  0  0  0  0  0  0  0  0  0
   39.1830   30.3470   42.0120 C   0  0  0  0  0  0  0  0  0  0  0  0
   39.5750   30.9910   43.0250 O   0  0  0  0  0  0  0  0  0  0  0  0
   42.0880   30.9540   38.5850 H   0  0  0  0  0  0  0  0  0  0  0  0
   41.1610   31.2150   39.0070 N   0  0  0  0  0  0  0  0  0  0  0  0
   40.7860   30.6460   40.1770 C   0  0  0  0  0  3  0  0  0  0  0  0
   39.5570   30.9810   40.7490 C   0  0  0  0  0  0  0  0  0  0  0  0
   38.7710   31.8910   40.0890 C   0  0  0  0  0  0  0  0  0  0  0  0
   37.6870   32.1300   40.6790 O   0  0  0  0  0  0  0  0  0  0  0  0
   39.1330   32.4620   38.9270 N   0  0  0  0  0  0  0  0  0  0  0  0
   40.3390   32.1130   38.3930 C   0  0  0  0  0  0  0  0  0  0  0  0
   40.6840   32.6460   37.3050 O   0  0  0  0  0  0  0  0  0  0  0  0
   38.4950   33.1480   38.4700 H   0  0  0  0  0  0  0  0  0  0  0  0
  1  7  1  6  0  0  0
  1 19  1  0  0  0  0
  1  2  1  0  0  0  0
  2  9  1  0  0  0  0
  2  8  1  0  0  0  0
  3 11  1  0  0  0  0
  3  2  1  0  0  0  0
  4  3  1  0  0  0  0
  4 12  1  0  0  0  0
  5 14  1  0  0  0  0
  5  4  1  0  0  0  0
  5  6  1  0  0  0  0
  6 16  1  6  0  0  0
  6  1  1  0  0  0  0
  6 26  1  0  0  0  0
 10  3  1  0  0  0  0
 13  4  1  0  0  0  0
 15  5  1  0  0  0  0
 17 23  1  0  0  0  0
 18 24  1  0  0  0  0
 18 17  2  0  0  0  0
 19 18  1  0  0  0  0
 20 19  2  0  0  0  0
 20 21  1  0  0  0  0
 21 22  2  0  0  0  0
 22 17  1  0  0  0  0
 25 21  1  0  0  0  0
 26 27  1  0  0  0  0
 27 32  1  0  0  0  0
 27 28  2  0  0  0  0
 28 33  1  0  0  0  0
 29 28  1  0  0  0  0
 29 34  1  0  0  0  0
 30 29  2  0  0  0  0
 31 26  2  0  0  0  0
 31 30  1  0  0  0  0
 35 30  1  0  0  0  0
 35 36  2  0  0  0  0
 37 38  1  0  0  0  0
 38 39  1  0  0  0  0
 39 40  2  0  0  0  0
 40 35  1  0  0  0  0
 41 42  2  0  0  0  0
 41 40  1  0  0  0  0
 43 41  1  0  0  0  0
 44 43  1  0  0  0  0
 44 38  1  0  0  0  0
 45 44  2  0  0  0  0
 46 43  1  0  0  0  0
M  END
>  <minimizedAffinity>
-6.18005228

$$$$

 OpenBabel03242516553D

 46 49  0  0  1  0  0  0  0  0999 V2000
   39.0880   25.0530   40.6350 C   0  0  1  0  0  0  0  0  0  0  0  0
   38.7680   23.9200   41.5020 C   0  0  0  0  0  0  0  0  0  0  0  0
   37.8170   23.0340   40.7010 C   0  0  0  0  0  0  0  0  0  0  0  0
   36.5050   23.7910   40.5850 C   0  0  0  0  0  0  0  0  0  0  0  0
   36.6370   25.1720   40.0180 C   0  0  0  0  0  0  0  0  0  0  0  0
   37.8620   25.9210   40.3280 C   0  0  1  0  0  0  0  0  0  0  0  0
   39.3540   24.6520   39.6070 H   0  0  0  0  0  0  0  0  0  0  0  0
   38.2150   24.2090   42.4300 H   0  0  0  0  0  0  0  0  0  0  0  0
   39.6810   23.3620   41.7380 H   0  0  0  0  0  0  0  0  0  0  0  0
   38.2380   22.8000   39.7010 H   0  0  0  0  0  0  0  0  0  0  0  0
   37.6110   22.1420   41.3160 H   0  0  0  0  0  0  0  0  0  0  0  0
   36.0200   23.7900   41.5820 H   0  0  0  0  0  0  0  0  0  0  0  0
   35.8590   23.1590   39.9340 H   0  0  0  0  0  0  0  0  0  0  0  0
   35.7640   25.7620   40.3720 H   0  0  0  0  0  0  0  0  0  0  0  0
   36.4780   25.0760   38.9160 H   0  0  0  0  0  0  0  0  0  0  0  0
   38.1580   26.5070   39.4090 H   0  0  0  0  0  0  0  0  0  0  0  0
   41.8560   26.5070   42.7590 C   0  0  0  0  0  0  0  0  0  0  0  0
   40.7950   25.7240   42.2870 C   0  0  0  0  0  0  0  0  0  0  0  0
   40.1860   25.9030   41.0430 C   0  0  0  0  0  0  0  0  0  0  0  0
   40.6840   26.8930   40.3010 N   0  0  0  0  0  0  0  0  0  0  0  0
   41.7130   27.6630   40.7450 C   0  0  0  0  0  0  0  0  0  0  0  0
   42.2930   27.4860   41.9370 N   0  0  0  0  0  0  0  0  0  0  0  0
   42.2510   26.2800   43.7380 H   0  0  0  0  0  0  0  0  0  0  0  0
   40.4030   24.9230   42.9020 H   0  0  0  0  0  0  0  0  0  0  0  0
   42.1120   28.4690   40.1300 H   0  0  0  0  0  0  0  0  0  0  0  0
   37.6500   26.9370   41.3600 C   0  0  0  0  0  0  0  0  0  0  0  0
   37.5300   26.6980   42.7360 C   0  0  0  0  0  0  0  0  0  0  0  0
   37.3470   27.8280   43.5380 C   0  0  0  0  0  0  0  0  0  0  0  0
   37.2980   29.0590   42.9250 C   0  0  0  0  0  0  0  0  0  0  0  0
   37.4180   29.2720   41.5700 C   0  0  0  0  0  0  0  0  0  0  0  0
   37.5970   28.1700   40.7880 N   0  0  0  0  0  0  0  0  0  0  0  0
   37.5880   25.6990   43.0540 H   0  0  0  0  0  0  0  0  0  0  0  0
   37.2530   27.6660   44.6000 H   0  0  0  0  0  0  0  0  0  0  0  0
   37.1550   29.8900   43.5960 H   0  0  0  0  0  0  0  0  0  0  0  0
   37.3580   30.6200   41.0010 C   0  0  0  0  0  0  0  0  0  0  0  0
   36.2880   31.2740   41.1460 O   0  0  0  0  0  0  0  0  0  0  0  0
   38.9440   32.4560   37.1720 H   0  0  0  0  0  0  0  0  0  0  0  0
   39.1110   32.2770   38.1950 N   0  0  0  0  0  0  0  0  0  0  0  0
   38.1790   31.5990   38.9050 C   0  0  0  0  0  3  0  0  0  0  0  0
   38.3850   31.3540   40.2640 C   0  0  0  0  0  0  0  0  0  0  0  0
   39.5450   31.8190   40.8300 C   0  0  0  0  0  0  0  0  0  0  0  0
   39.6420   31.5520   42.0540 O   0  0  0  0  0  0  0  0  0  0  0  0
   40.4760   32.4950   40.1340 N   0  0  0  0  0  0  0  0  0  0  0  0
   40.2460   32.7180   38.8080 C   0  0  0  0  0  0  0  0  0  0  0  0
   41.1170   33.3490   38.1520 O   0  0  0  0  0  0  0  0  0  0  0  0
   41.3400   32.8250   40.6160 H   0  0  0  0  0  0  0  0  0  0  0  0
  1  7  1  6  0  0  0
  1 19  1  0  0  0  0
  1  2  1  0  0  0  0
  2  9  1  0  0  0  0
  2  8  1  0  0  0  0
  3 11  1  0  0  0  0
  3  2  1  0  0  0  0
  4  3  1  0  0  0  0
  4 12  1  0  0  0  0
  5  6  1  0  0  0  0
  5 14  1  0  0  0  0
  5  4  1  0  0  0  0
  6 16  1  6  0  0  0
  6  1  1  0  0  0  0
  6 26  1  0  0  0  0
 10  3  1  0  0  0  0
 13  4  1  0  0  0  0
 15  5  1  0  0  0  0
 17 23  1  0  0  0  0
 18 17  1  0  0  0  0
 18 24  1  0  0  0  0
 19 18  2  0  0  0  0
 20 21  2  0  0  0  0
 20 19  1  0  0  0  0
 21 22  1  0  0  0  0
 22 17  2  0  0  0  0
 25 21  1  0  0  0  0
 26 27  1  0  0  0  0
 27 32  1  0  0  0  0
 27 28  2  0  0  0  0
 28 33  1  0  0  0  0
 29 28  1  0  0  0  0
 29 34  1  0  0  0  0
 30 29  2  0  0  0  0
 31 26  2  0  0  0  0
 31 30  1  0  0  0  0
 35 36  2  0  0  0  0
 35 30  1  0  0  0  0
 37 38  1  0  0  0  0
 38 44  1  0  0  0  0
 38 39  1  0  0  0  0
 39 40  2  0  0  0  0
 40 41  1  0  0  0  0
 40 35  1  0  0  0  0
 41 42  2  0  0  0  0
 43 46  1  0  0  0  0
 43 41  1  0  0  0  0
 44 43  1  0  0  0  0
 45 44  2  0  0  0  0
M  END
>  <minimizedAffinity>
-6.17124176

$$$$

 OpenBabel03242516553D

 46 49  0  0  1  0  0  0  0  0999 V2000
   36.6390   30.7630   38.9530 C   0  0  1  0  0  0  0  0  0  0  0  0
   36.8950   29.8390   37.8490 C   0  0  0  0  0  0  0  0  0  0  0  0
   35.5320   29.2860   37.4410 C   0  0  0  0  0  0  0  0  0  0  0  0
   35.0660   28.3870   38.5730 C   0  0  0  0  0  0  0  0  0  0  0  0
   35.0510   29.0460   39.9190 C   0  0  0  0  0  0  0  0  0  0  0  0
   36.0840   30.0550   40.1940 C   0  0  1  0  0  0  0  0  0  0  0  0
   35.7750   31.4370   38.6610 H   0  0  0  0  0  0  0  0  0  0  0  0
   37.5140   28.9540   38.1410 H   0  0  0  0  0  0  0  0  0  0  0  0
   37.3410   30.3780   37.0070 H   0  0  0  0  0  0  0  0  0  0  0  0
   34.8090   30.1070   37.2530 H   0  0  0  0  0  0  0  0  0  0  0  0
   35.6970   28.6310   36.5680 H   0  0  0  0  0  0  0  0  0  0  0  0
   35.6880   27.4700   38.5610 H   0  0  0  0  0  0  0  0  0  0  0  0
   34.0410   28.0600   38.2850 H   0  0  0  0  0  0  0  0  0  0  0  0
   35.1310   28.2440   40.6830 H   0  0  0  0  0  0  0  0  0  0  0  0
   34.0220   29.4590   40.0560 H   0  0  0  0  0  0  0  0  0  0  0  0
   35.6130   30.8830   40.8000 H   0  0  0  0  0  0  0  0  0  0  0  0
   38.4580   33.7870   40.3100 C   0  0  0  0  0  0  0  0  0  0  0  0
   37.4640   32.8830   39.9110 C   0  0  0  0  0  0  0  0  0  0  0  0
   37.7260   31.6340   39.3450 C   0  0  0  0  0  0  0  0  0  0  0  0
   39.0170   31.3350   39.1960 N   0  0  0  0  0  0  0  0  0  0  0  0
   39.9940   32.2010   39.5770 C   0  0  0  0  0  0  0  0  0  0  0  0
   39.7360   33.3960   40.1200 N   0  0  0  0  0  0  0  0  0  0  0  0
   38.1400   34.7260   40.7380 H   0  0  0  0  0  0  0  0  0  0  0  0
   36.4200   33.1420   40.0410 H   0  0  0  0  0  0  0  0  0  0  0  0
   41.0460   31.9460   39.4510 H   0  0  0  0  0  0  0  0  0  0  0  0
   37.1560   29.5390   41.0450 C   0  0  0  0  0  0  0  0  0  0  0  0
   37.6260   30.1320   42.2240 C   0  0  0  0  0  0  0  0  0  0  0  0
   38.6530   29.4500   42.8830 C   0  0  0  0  0  0  0  0  0  0  0  0
   39.1120   28.2760   42.3320 C   0  0  0  0  0  0  0  0  0  0  0  0
   38.6360   27.7100   41.1700 C   0  0  0  0  0  0  0  0  0  0  0  0
   37.6350   28.3750   40.5280 N   0  0  0  0  0  0  0  0  0  0  0  0
   37.1740   31.0330   42.5190 H   0  0  0  0  0  0  0  0  0  0  0  0
   39.0290   29.8900   43.7940 H   0  0  0  0  0  0  0  0  0  0  0  0
   39.9030   27.7980   42.8860 H   0  0  0  0  0  0  0  0  0  0  0  0
   39.1810   26.4520   40.6560 C   0  0  0  0  0  0  0  0  0  0  0  0
   40.4140   26.4070   40.3920 O   0  0  0  0  0  0  0  0  0  0  0  0
   36.9080   23.6810   37.8800 H   0  0  0  0  0  0  0  0  0  0  0  0
   37.3090   23.8250   38.8420 N   0  0  0  0  0  0  0  0  0  0  0  0
   37.9530   24.9840   39.1190 C   0  0  0  0  0  3  0  0  0  0  0  0
   38.4910   25.1910   40.3910 C   0  0  0  0  0  0  0  0  0  0  0  0
   38.3400   24.1930   41.3200 C   0  0  0  0  0  0  0  0  0  0  0  0
   38.8560   24.4690   42.4330 O   0  0  0  0  0  0  0  0  0  0  0  0
   37.7030   23.0390   41.0550 N   0  0  0  0  0  0  0  0  0  0  0  0
   37.1890   22.8670   39.8030 C   0  0  0  0  0  0  0  0  0  0  0  0
   36.5900   21.7880   39.5500 O   0  0  0  0  0  0  0  0  0  0  0  0
   37.6180   22.3160   41.8000 H   0  0  0  0  0  0  0  0  0  0  0  0
  1  7  1  6  0  0  0
  1 19  1  0  0  0  0
  1  6  1  0  0  0  0
  2  8  1  0  0  0  0
  2  1  1  0  0  0  0
  3  2  1  0  0  0  0
  3  4  1  0  0  0  0
  4  5  1  0  0  0  0
  5 15  1  0  0  0  0
  5  6  1  0  0  0  0
  5 14  1  0  0  0  0
  6 16  1  1  0  0  0
  6 26  1  0  0  0  0
  9  2  1  0  0  0  0
 10  3  1  0  0  0  0
 11  3  1  0  0  0  0
 12  4  1  0  0  0  0
 13  4  1  0  0  0  0
 17 23  1  0  0  0  0
 18 24  1  0  0  0  0
 18 17  2  0  0  0  0
 19 18  1  0  0  0  0
 20 19  2  0  0  0  0
 20 21  1  0  0  0  0
 21 22  2  0  0  0  0
 22 17  1  0  0  0  0
 25 21  1  0  0  0  0
 26 27  1  0  0  0  0
 27 32  1  0  0  0  0
 27 28  2  0  0  0  0
 28 33  1  0  0  0  0
 29 28  1  0  0  0  0
 29 34  1  0  0  0  0
 30 29  2  0  0  0  0
 31 26  2  0  0  0  0
 31 30  1  0  0  0  0
 35 30  1  0  0  0  0
 36 35  2  0  0  0  0
 37 38  1  0  0  0  0
 38 39  1  0  0  0  0
 38 44  1  0  0  0  0
 39 40  2  0  0  0  0
 40 35  1  0  0  0  0
 40 41  1  0  0  0  0
 41 42  2  0  0  0  0
 43 41  1  0  0  0  0
 43 46  1  0  0  0  0
 44 43  1  0  0  0  0
 45 44  2  0  0  0  0
M  END
>  <minimizedAffinity>
-6.16853285

$$$$

 OpenBabel03242516553D

 46 49  0  0  1  0  0  0  0  0999 V2000
   39.4310   27.0640   41.0390 C   0  0  1  0  0  0  0  0  0  0  0  0
   40.5040   27.8670   40.4550 C   0  0  0  0  0  0  0  0  0  0  0  0
   41.4470   28.2080   41.6040 C   0  0  0  0  0  0  0  0  0  0  0  0
   40.7080   29.1810   42.5060 C   0  0  0  0  0  0  0  0  0  0  0  0
   39.3680   28.6960   42.9720 C   0  0  0  0  0  0  0  0  0  0  0  0
   38.5930   27.8530   42.0520 C   0  0  1  0  0  0  0  0  0  0  0  0
   39.9000   26.2650   41.6950 H   0  0  0  0  0  0  0  0  0  0  0  0
   40.1540   28.8450   40.0400 H   0  0  0  0  0  0  0  0  0  0  0  0
   41.0390   27.2820   39.6990 H   0  0  0  0  0  0  0  0  0  0  0  0
   41.7470   27.2930   42.1580 H   0  0  0  0  0  0  0  0  0  0  0  0
   42.2970   28.7640   41.1730 H   0  0  0  0  0  0  0  0  0  0  0  0
   40.6440   30.1540   41.9800 H   0  0  0  0  0  0  0  0  0  0  0  0
   41.3860   29.3520   43.3730 H   0  0  0  0  0  0  0  0  0  0  0  0
   38.7610   29.5910   43.2260 H   0  0  0  0  0  0  0  0  0  0  0  0
   39.5410   28.1890   43.9530 H   0  0  0  0  0  0  0  0  0  0  0  0
   38.0700   27.0580   42.6610 H   0  0  0  0  0  0  0  0  0  0  0  0
   36.9840   24.5140   39.6970 C   0  0  0  0  0  0  0  0  0  0  0  0
   37.8490   25.2400   40.5270 C   0  0  0  0  0  0  0  0  0  0  0  0
   38.5500   26.3770   40.1200 C   0  0  0  0  0  0  0  0  0  0  0  0
   38.3480   26.7490   38.8550 N   0  0  0  0  0  0  0  0  0  0  0  0
   37.5120   26.0550   38.0370 C   0  0  0  0  0  0  0  0  0  0  0  0
   36.8420   24.9680   38.4330 N   0  0  0  0  0  0  0  0  0  0  0  0
   36.4920   23.6500   40.1180 H   0  0  0  0  0  0  0  0  0  0  0  0
   38.0000   24.9240   41.5520 H   0  0  0  0  0  0  0  0  0  0  0  0
   37.3540   26.3690   37.0060 H   0  0  0  0  0  0  0  0  0  0  0  0
   37.5100   28.5880   41.3980 C   0  0  0  0  0  0  0  0  0  0  0  0
   36.1670   28.1930   41.3400 C   0  0  0  0  0  0  0  0  0  0  0  0
   35.3020   29.0650   40.6720 C   0  0  0  0  0  0  0  0  0  0  0  0
   35.8290   30.2170   40.1340 C   0  0  0  0  0  0  0  0  0  0  0  0
   37.1540   30.5870   40.2020 C   0  0  0  0  0  0  0  0  0  0  0  0
   37.9960   29.7360   40.8530 N   0  0  0  0  0  0  0  0  0  0  0  0
   35.9160   27.2820   41.7990 H   0  0  0  0  0  0  0  0  0  0  0  0
   34.2630   28.7800   40.6170 H   0  0  0  0  0  0  0  0  0  0  0  0
   35.1130   30.8470   39.6330 H   0  0  0  0  0  0  0  0  0  0  0  0
   37.6290   31.8360   39.6040 C   0  0  0  0  0  0  0  0  0  0  0  0
   36.8690   32.8420   39.6590 O   0  0  0  0  0  0  0  0  0  0  0  0
   40.1480   32.0700   35.8430 H   0  0  0  0  0  0  0  0  0  0  0  0
   40.1150   32.1940   36.8870 N   0  0  0  0  0  0  0  0  0  0  0  0
   38.9560   31.9480   37.5420 C   0  0  0  0  0  3  0  0  0  0  0  0
   38.8950   32.1090   38.9280 C   0  0  0  0  0  0  0  0  0  0  0  0
   40.0340   32.5170   39.5760 C   0  0  0  0  0  0  0  0  0  0  0  0
   39.8840   32.6340   40.8180 O   0  0  0  0  0  0  0  0  0  0  0  0
   41.1890   32.7650   38.9340 N   0  0  0  0  0  0  0  0  0  0  0  0
   41.2160   32.5980   37.5800 C   0  0  0  0  0  0  0  0  0  0  0  0
   42.2970   32.8280   36.9750 O   0  0  0  0  0  0  0  0  0  0  0  0
   42.0240   33.0720   39.4780 H   0  0  0  0  0  0  0  0  0  0  0  0
  1  7  1  1  0  0  0
  1  6  1  0  0  0  0
  2  1  1  0  0  0  0
  2  3  1  0  0  0  0
  3 10  1  0  0  0  0
  3  4  1  0  0  0  0
  4  5  1  0  0  0  0
  4 13  1  0  0  0  0
  5 14  1  0  0  0  0
  5 15  1  0  0  0  0
  6 16  1  1  0  0  0
  6  5  1  0  0  0  0
  8  2  1  0  0  0  0
  9  2  1  0  0  0  0
 11  3  1  0  0  0  0
 12  4  1  0  0  0  0
 17 23  1  0  0  0  0
 17 18  1  0  0  0  0
 18 24  1  0  0  0  0
 19 18  2  0  0  0  0
 19  1  1  0  0  0  0
 20 19  1  0  0  0  0
 21 22  1  0  0  0  0
 21 20  2  0  0  0  0
 22 17  2  0  0  0  0
 25 21  1  0  0  0  0
 26  6  1  0  0  0  0
 27 26  1  0  0  0  0
 27 32  1  0  0  0  0
 28 27  2  0  0  0  0
 29 30  2  0  0  0  0
 29 28  1  0  0  0  0
 30 31  1  0  0  0  0
 31 26  2  0  0  0  0
 33 28  1  0  0  0  0
 34 29  1  0  0  0  0
 35 36  2  0  0  0  0
 35 30  1  0  0  0  0
 37 38  1  0  0  0  0
 38 39  1  0  0  0  0
 38 44  1  0  0  0  0
 39 40  2  0  0  0  0
 40 41  1  0  0  0  0
 40 35  1  0  0  0  0
 41 42  2  0  0  0  0
 43 46  1  0  0  0  0
 43 41  1  0  0  0  0
 44 43  1  0  0  0  0
 45 44  2  0  0  0  0
M  END
>  <minimizedAffinity>
-5.99228621

$$$$

 OpenBabel03242516553D

 46 49  0  0  1  0  0  0  0  0999 V2000
   39.0450   25.5900   39.8480 C   0  0  1  0  0  0  0  0  0  0  0  0
   39.5690   24.5090   40.6820 C   0  0  0  0  0  0  0  0  0  0  0  0
   38.6580   23.3100   40.4380 C   0  0  0  0  0  0  0  0  0  0  0  0
   37.3150   23.6420   41.0660 C   0  0  0  0  0  0  0  0  0  0  0  0
   36.7190   24.9370   40.6000 C   0  0  0  0  0  0  0  0  0  0  0  0
   37.6410   26.0330   40.2760 C   0  0  1  0  0  0  0  0  0  0  0  0
   38.8530   25.1770   38.8090 H   0  0  0  0  0  0  0  0  0  0  0  0
   39.5120   24.7240   41.7790 H   0  0  0  0  0  0  0  0  0  0  0  0
   40.5920   24.2640   40.3770 H   0  0  0  0  0  0  0  0  0  0  0  0
   38.5550   23.1030   39.3510 H   0  0  0  0  0  0  0  0  0  0  0  0
   39.0720   22.4650   41.0130 H   0  0  0  0  0  0  0  0  0  0  0  0
   37.4350   23.6070   42.1670 H   0  0  0  0  0  0  0  0  0  0  0  0
   36.6500   22.7880   40.8070 H   0  0  0  0  0  0  0  0  0  0  0  0
   36.0210   25.2850   41.3920 H   0  0  0  0  0  0  0  0  0  0  0  0
   36.0560   24.6850   39.7370 H   0  0  0  0  0  0  0  0  0  0  0  0
   37.2350   26.5800   39.3760 H   0  0  0  0  0  0  0  0  0  0  0  0
   40.5670   28.6770   38.2850 C   0  0  0  0  0  0  0  0  0  0  0  0
   39.7860   27.5400   38.5280 C   0  0  0  0  0  0  0  0  0  0  0  0
   39.8850   26.7560   39.6790 C   0  0  0  0  0  0  0  0  0  0  0  0
   40.7960   27.1580   40.5670 N   0  0  0  0  0  0  0  0  0  0  0  0
   41.5620   28.2590   40.3460 C   0  0  0  0  0  0  0  0  0  0  0  0
   41.4610   29.0070   39.2430 N   0  0  0  0  0  0  0  0  0  0  0  0
   40.4050   29.2100   37.3610 H   0  0  0  0  0  0  0  0  0  0  0  0
   39.0500   27.2280   37.7970 H   0  0  0  0  0  0  0  0  0  0  0  0
   42.3030   28.5790   41.0780 H   0  0  0  0  0  0  0  0  0  0  0  0
   37.6960   27.0480   41.3300 C   0  0  0  0  0  0  0  0  0  0  0  0
   37.9260   26.8070   42.6910 C   0  0  0  0  0  0  0  0  0  0  0  0
   37.9500   27.9360   43.5150 C   0  0  0  0  0  0  0  0  0  0  0  0
   37.7480   29.1680   42.9360 C   0  0  0  0  0  0  0  0  0  0  0  0
   37.5220   29.3820   41.5940 C   0  0  0  0  0  0  0  0  0  0  0  0
   37.4990   28.2810   40.7910 N   0  0  0  0  0  0  0  0  0  0  0  0
   38.0630   25.8080   42.9830 H   0  0  0  0  0  0  0  0  0  0  0  0
   38.1270   27.7730   44.5660 H   0  0  0  0  0  0  0  0  0  0  0  0
   37.7780   29.9980   43.6220 H   0  0  0  0  0  0  0  0  0  0  0  0
   37.3200   30.7310   41.0610 C   0  0  0  0  0  0  0  0  0  0  0  0
   36.1550   31.2130   41.1020 O   0  0  0  0  0  0  0  0  0  0  0  0
   40.5130   33.9260   41.4420 H   0  0  0  0  0  0  0  0  0  0  0  0
   39.9570   33.3140   40.7920 N   0  0  0  0  0  0  0  0  0  0  0  0
   39.0430   32.4610   41.3140 C   0  0  0  0  0  3  0  0  0  0  0  0
   38.2970   31.6400   40.4650 C   0  0  0  0  0  0  0  0  0  0  0  0
   38.5270   31.7380   39.1160 C   0  0  0  0  0  0  0  0  0  0  0  0
   37.8100   30.9620   38.4330 O   0  0  0  0  0  0  0  0  0  0  0  0
   39.4320   32.5810   38.5890 N   0  0  0  0  0  0  0  0  0  0  0  0
   40.1450   33.3690   39.4440 C   0  0  0  0  0  0  0  0  0  0  0  0
   40.9930   34.1610   38.9540 O   0  0  0  0  0  0  0  0  0  0  0  0
   39.5640   32.6120   37.5550 H   0  0  0  0  0  0  0  0  0  0  0  0
  1  7  1  6  0  0  0
  1  6  1  0  0  0  0
  1  2  1  0  0  0  0
  2  8  1  0  0  0  0
  3  2  1  0  0  0  0
  3 11  1  0  0  0  0
  3  4  1  0  0  0  0
  4 12  1  0  0  0  0
  5  4  1  0  0  0  0
  5 14  1  0  0  0  0
  6 16  1  6  0  0  0
  6  5  1  0  0  0  0
  6 26  1  0  0  0  0
  9  2  1  0  0  0  0
 10  3  1  0  0  0  0
 13  4  1  0  0  0  0
 15  5  1  0  0  0  0
 17 18  2  0  0  0  0
 17 22  1  0  0  0  0
 18 19  1  0  0  0  0
 19  1  1  0  0  0  0
 19 20  2  0  0  0  0
 21 20  1  0  0  0  0
 21 25  1  0  0  0  0
 22 21  2  0  0  0  0
 23 17  1  0  0  0  0
 24 18  1  0  0  0  0
 26 27  1  0  0  0  0
 27 32  1  0  0  0  0
 27 28  2  0  0  0  0
 28 33  1  0  0  0  0
 29 28  1  0  0  0  0
 29 34  1  0  0  0  0
 30 29  2  0  0  0  0
 31 26  2  0  0  0  0
 31 30  1  0  0  0  0
 35 36  2  0  0  0  0
 35 30  1  0  0  0  0
 38 39  1  0  0  0  0
 38 37  1  0  0  0  0
 40 35  1  0  0  0  0
 40 39  2  0  0  0  0
 41 40  1  0  0  0  0
 42 41  2  0  0  0  0
 43 41  1  0  0  0  0
 43 44  1  0  0  0  0
 44 38  1  0  0  0  0
 45 44  2  0  0  0  0
 46 43  1  0  0  0  0
M  END
>  <minimizedAffinity>
-5.96914244

$$$$
