
 OpenBabel03252502173D

 25 26  0  0  0  0  0  0  0  0999 V2000
   38.1570   28.8200   42.6140 C   0  0  0  0  0  0  0  0  0  0  0  0
   37.4260   27.9350   41.8160 C   0  0  0  0  0  0  0  0  0  0  0  0
   38.0630   26.8010   41.2970 C   0  0  0  0  0  0  0  0  0  0  0  0
   39.3780   26.6190   41.6020 N   0  0  0  0  0  0  0  0  0  0  0  0
   40.0470   27.4920   42.3730 C   0  0  0  0  0  0  0  0  0  0  0  0
   39.4590   28.5880   42.8830 N   0  0  0  0  0  0  0  0  0  0  0  0
   37.6670   29.7010   43.0190 H   0  0  0  0  0  0  0  0  0  0  0  0
   41.0930   27.3320   42.6040 H   0  0  0  0  0  0  0  0  0  0  0  0
   37.2910   25.9180   40.4870 N   0  0  0  0  0  0  0  0  0  0  0  0
   36.9990   26.0930   39.1840 C   0  0  0  0  0  3  0  0  0  0  0  0
   36.2410   25.1570   38.5240 C   0  0  0  0  0  0  0  0  0  0  0  0
   36.0180   25.3130   37.4890 H   0  0  0  0  0  0  0  0  0  0  0  0
   35.7730   24.0370   39.1790 C   0  0  0  0  0  0  0  0  0  0  0  0
   35.0730   23.1550   38.6060 O   0  0  0  0  0  0  0  0  0  0  0  0
   36.0910   23.9030   40.4870 N   0  0  0  0  0  0  0  0  0  0  0  0
   36.8430   24.8240   41.1550 C   0  0  0  0  0  0  0  0  0  0  0  0
   37.0800   24.5990   42.3740 O   0  0  0  0  0  0  0  0  0  0  0  0
   35.7430   23.0660   40.9830 H   0  0  0  0  0  0  0  0  0  0  0  0
   36.0900   28.2490   41.5900 O   0  0  0  0  0  0  0  0  0  0  0  0
   36.5420   29.6080   39.3850 O   0  0  0  0  0  0  0  0  0  0  0  0
   35.6270   29.5170   40.5520 P   0  0  0  0  0  0  0  0  0  0  0  0
   34.0450   29.2640   39.9760 O   0  0  0  0  0  0  0  0  0  0  0  0
   34.0760   28.3790   39.5100 H   0  0  0  0  0  0  0  0  0  0  0  0
   35.6590   30.9940   41.3870 O   0  0  0  0  0  0  0  0  0  0  0  0
   35.5660   31.7460   40.7810 H   0  0  0  0  0  0  0  0  0  0  0  0
  1  6  1  0  0  0  0
  1  7  1  0  0  0  0
  2  1  2  0  0  0  0
  3  4  2  0  0  0  0
  3  2  1  0  0  0  0
  4  5  1  0  0  0  0
  5  8  1  0  0  0  0
  5  6  2  0  0  0  0
  9 16  1  0  0  0  0
  9  3  1  0  0  0  0
 10  9  1  0  0  0  0
 11 13  1  0  0  0  0
 11 10  2  0  0  0  0
 12 11  1  0  0  0  0
 13 15  1  0  0  0  0
 14 13  2  0  0  0  0
 15 18  1  0  0  0  0
 15 16  1  0  0  0  0
 16 17  2  0  0  0  0
 19  2  1  0  0  0  0
 20 21  2  0  0  0  0
 21 24  1  0  0  0  0
 21 19  1  0  0  0  0
 22 21  1  0  0  0  0
 23 22  1  0  0  0  0
 25 24  1  0  0  0  0
M  END
>  <minimizedAffinity>
-4.97865295

$$$$

 OpenBabel03252502173D

 25 26  0  0  0  0  0  0  0  0999 V2000
   37.2770   26.6050   40.0550 C   0  0  0  0  0  0  0  0  0  0  0  0
   37.5940   27.9630   40.1490 C   0  0  0  0  0  0  0  0  0  0  0  0
   36.9680   28.8700   39.2850 C   0  0  0  0  0  0  0  0  0  0  0  0
   36.0710   28.3730   38.3880 N   0  0  0  0  0  0  0  0  0  0  0  0
   35.7920   27.0610   38.3280 C   0  0  0  0  0  0  0  0  0  0  0  0
   36.3800   26.1690   39.1460 N   0  0  0  0  0  0  0  0  0  0  0  0
   37.7600   25.8970   40.7220 H   0  0  0  0  0  0  0  0  0  0  0  0
   35.0770   26.6830   37.6080 H   0  0  0  0  0  0  0  0  0  0  0  0
   37.3110   30.2480   39.4060 N   0  0  0  0  0  0  0  0  0  0  0  0
   38.3260   30.8680   38.7720 C   0  0  0  0  0  3  0  0  0  0  0  0
   38.5430   32.2080   38.9830 C   0  0  0  0  0  0  0  0  0  0  0  0
   39.3550   32.6830   38.4710 H   0  0  0  0  0  0  0  0  0  0  0  0
   37.7360   32.9290   39.8360 C   0  0  0  0  0  0  0  0  0  0  0  0
   37.9060   34.1610   40.0550 O   0  0  0  0  0  0  0  0  0  0  0  0
   36.7310   32.2660   40.4510 N   0  0  0  0  0  0  0  0  0  0  0  0
   36.5030   30.9360   40.2510 C   0  0  0  0  0  0  0  0  0  0  0  0
   35.5360   30.4170   40.8760 O   0  0  0  0  0  0  0  0  0  0  0  0
   36.1230   32.8010   41.0930 H   0  0  0  0  0  0  0  0  0  0  0  0
   38.5280   28.3260   41.1130 O   0  0  0  0  0  0  0  0  0  0  0  0
   38.7410   27.4350   43.5780 O   0  0  0  0  0  0  0  0  0  0  0  0
   38.1070   28.4980   42.7540 P   0  0  0  0  0  0  0  0  0  0  0  0
   38.6210   30.0110   43.3420 O   0  0  0  0  0  0  0  0  0  0  0  0
   39.6110   30.0250   43.1970 H   0  0  0  0  0  0  0  0  0  0  0  0
   36.4240   28.3990   42.9380 O   0  0  0  0  0  0  0  0  0  0  0  0
   36.1720   28.3240   43.8720 H   0  0  0  0  0  0  0  0  0  0  0  0
  1  2  1  0  0  0  0
  1  7  1  0  0  0  0
  2 19  1  0  0  0  0
  3  9  1  0  0  0  0
  3  2  2  0  0  0  0
  4  3  1  0  0  0  0
  5  4  2  0  0  0  0
  5  6  1  0  0  0  0
  6  1  2  0  0  0  0
  8  5  1  0  0  0  0
  9 16  1  0  0  0  0
 10 11  2  0  0  0  0
 10  9  1  0  0  0  0
 11 13  1  0  0  0  0
 12 11  1  0  0  0  0
 13 14  2  0  0  0  0
 13 15  1  0  0  0  0
 15 18  1  0  0  0  0
 16 15  1  0  0  0  0
 16 17  2  0  0  0  0
 19 21  1  0  0  0  0
 21 24  1  0  0  0  0
 21 22  1  0  0  0  0
 21 20  2  0  0  0  0
 23 22  1  0  0  0  0
 24 25  1  0  0  0  0
M  END
>  <minimizedAffinity>
-4.97433901

$$$$

 OpenBabel03252502173D

 25 26  0  0  0  0  0  0  0  0999 V2000
   39.2280   31.7850   41.3140 C   0  0  0  0  0  0  0  0  0  0  0  0
   38.6870   30.9240   40.3560 C   0  0  0  0  0  0  0  0  0  0  0  0
   38.6690   31.3240   39.0140 C   0  0  0  0  0  0  0  0  0  0  0  0
   39.1870   32.5460   38.7110 N   0  0  0  0  0  0  0  0  0  0  0  0
   39.6990   33.3470   39.6600 C   0  0  0  0  0  0  0  0  0  0  0  0
   39.7280   32.9860   40.9560 N   0  0  0  0  0  0  0  0  0  0  0  0
   39.2440   31.4800   42.3570 H   0  0  0  0  0  0  0  0  0  0  0  0
   40.1070   34.3160   39.4010 H   0  0  0  0  0  0  0  0  0  0  0  0
   38.1110   30.4230   38.0600 N   0  0  0  0  0  0  0  0  0  0  0  0
   36.8090   30.3320   37.7270 C   0  0  0  0  0  3  0  0  0  0  0  0
   36.4090   29.4140   36.7870 C   0  0  0  0  0  0  0  0  0  0  0  0
   35.3700   29.3550   36.5360 H   0  0  0  0  0  0  0  0  0  0  0  0
   37.3240   28.5830   36.1770 C   0  0  0  0  0  0  0  0  0  0  0  0
   36.9940   27.7270   35.3090 O   0  0  0  0  0  0  0  0  0  0  0  0
   38.6200   28.7090   36.5420 N   0  0  0  0  0  0  0  0  0  0  0  0
   39.0320   29.6160   37.4740 C   0  0  0  0  0  0  0  0  0  0  0  0
   40.2660   29.6500   37.7390 O   0  0  0  0  0  0  0  0  0  0  0  0
   39.3100   28.0890   36.0890 H   0  0  0  0  0  0  0  0  0  0  0  0
   38.1950   29.7060   40.8110 O   0  0  0  0  0  0  0  0  0  0  0  0
   35.9080   28.4310   41.0500 O   0  0  0  0  0  0  0  0  0  0  0  0
   36.6850   29.5790   41.5870 P   0  0  0  0  0  0  0  0  0  0  0  0
   36.8970   29.3480   43.2610 O   0  0  0  0  0  0  0  0  0  0  0  0
   37.4410   28.5120   43.3420 H   0  0  0  0  0  0  0  0  0  0  0  0
   35.7890   31.0000   41.3560 O   0  0  0  0  0  0  0  0  0  0  0  0
   34.8670   30.8890   41.6400 H   0  0  0  0  0  0  0  0  0  0  0  0
  1  7  1  0  0  0  0
  2 19  1  0  0  0  0
  2  1  2  0  0  0  0
  3  2  1  0  0  0  0
  4  3  2  0  0  0  0
  4  5  1  0  0  0  0
  5  6  2  0  0  0  0
  6  1  1  0  0  0  0
  8  5  1  0  0  0  0
  9  3  1  0  0  0  0
 10  9  1  0  0  0  0
 11 10  2  0  0  0  0
 12 11  1  0  0  0  0
 13 15  1  0  0  0  0
 13 11  1  0  0  0  0
 14 13  2  0  0  0  0
 15 16  1  0  0  0  0
 16 17  2  0  0  0  0
 16  9  1  0  0  0  0
 18 15  1  0  0  0  0
 19 21  1  0  0  0  0
 20 21  2  0  0  0  0
 21 22  1  0  0  0  0
 22 23  1  0  0  0  0
 24 21  1  0  0  0  0
 24 25  1  0  0  0  0
M  END
>  <minimizedAffinity>
-4.96576023

$$$$

 OpenBabel03252502173D

 25 26  0  0  0  0  0  0  0  0999 V2000
   37.8870   31.1410   37.1870 C   0  0  0  0  0  0  0  0  0  0  0  0
   37.9320   30.5120   38.4350 C   0  0  0  0  0  0  0  0  0  0  0  0
   37.1220   29.3920   38.6620 C   0  0  0  0  0  0  0  0  0  0  0  0
   36.3240   28.9700   37.6430 N   0  0  0  0  0  0  0  0  0  0  0  0
   36.3080   29.6010   36.4570 C   0  0  0  0  0  0  0  0  0  0  0  0
   37.0760   30.6790   36.2130 N   0  0  0  0  0  0  0  0  0  0  0  0
   38.5130   32.0100   37.0060 H   0  0  0  0  0  0  0  0  0  0  0  0
   35.6660   29.2530   35.6570 H   0  0  0  0  0  0  0  0  0  0  0  0
   37.1920   28.7720   39.9440 N   0  0  0  0  0  0  0  0  0  0  0  0
   38.0510   27.7990   40.3050 C   0  0  0  0  0  3  0  0  0  0  0  0
   38.0070   27.2910   41.5810 C   0  0  0  0  0  0  0  0  0  0  0  0
   38.6970   26.5170   41.8500 H   0  0  0  0  0  0  0  0  0  0  0  0
   37.0930   27.7630   42.4980 C   0  0  0  0  0  0  0  0  0  0  0  0
   37.0220   27.3200   43.6790 O   0  0  0  0  0  0  0  0  0  0  0  0
   36.2500   28.7390   42.0920 N   0  0  0  0  0  0  0  0  0  0  0  0
   36.2830   29.2540   40.8300 C   0  0  0  0  0  0  0  0  0  0  0  0
   35.4510   30.1630   40.5570 O   0  0  0  0  0  0  0  0  0  0  0  0
   35.5630   29.0970   42.7760 H   0  0  0  0  0  0  0  0  0  0  0  0
   38.7960   31.0520   39.3810 O   0  0  0  0  0  0  0  0  0  0  0  0
   39.1110   32.5880   41.4910 O   0  0  0  0  0  0  0  0  0  0  0  0
   38.4730   32.5370   40.1500 P   0  0  0  0  0  0  0  0  0  0  0  0
   39.0750   33.8290   39.2190 O   0  0  0  0  0  0  0  0  0  0  0  0
   40.0550   33.6500   39.1270 H   0  0  0  0  0  0  0  0  0  0  0  0
   36.8000   32.7470   40.3340 O   0  0  0  0  0  0  0  0  0  0  0  0
   36.5980   33.4970   40.9160 H   0  0  0  0  0  0  0  0  0  0  0  0
  1  2  1  0  0  0  0
  2  3  2  0  0  0  0
  2 19  1  0  0  0  0
  3  9  1  0  0  0  0
  4  3  1  0  0  0  0
  5  4  2  0  0  0  0
  6  5  1  0  0  0  0
  6  1  2  0  0  0  0
  7  1  1  0  0  0  0
  8  5  1  0  0  0  0
  9 10  1  0  0  0  0
  9 16  1  0  0  0  0
 10 11  2  0  0  0  0
 11 12  1  0  0  0  0
 11 13  1  0  0  0  0
 13 14  2  0  0  0  0
 15 13  1  0  0  0  0
 15 18  1  0  0  0  0
 16 15  1  0  0  0  0
 17 16  2  0  0  0  0
 19 21  1  0  0  0  0
 21 24  1  0  0  0  0
 21 20  2  0  0  0  0
 22 21  1  0  0  0  0
 23 22  1  0  0  0  0
 24 25  1  0  0  0  0
M  END
>  <minimizedAffinity>
-4.84557247

$$$$

 OpenBabel03252502173D

 25 26  0  0  0  0  0  0  0  0999 V2000
   39.9960   32.1660   38.8690 C   0  0  0  0  0  0  0  0  0  0  0  0
   39.4710   31.1350   39.6530 C   0  0  0  0  0  0  0  0  0  0  0  0
   38.8920   31.4470   40.8890 C   0  0  0  0  0  0  0  0  0  0  0  0
   38.8700   32.7550   41.2660 N   0  0  0  0  0  0  0  0  0  0  0  0
   39.3850   33.7190   40.4860 C   0  0  0  0  0  0  0  0  0  0  0  0
   39.9470   33.4460   39.2940 N   0  0  0  0  0  0  0  0  0  0  0  0
   40.4470   31.9300   37.9100 H   0  0  0  0  0  0  0  0  0  0  0  0
   39.3600   34.7540   40.8020 H   0  0  0  0  0  0  0  0  0  0  0  0
   38.3640   30.3730   41.6650 N   0  0  0  0  0  0  0  0  0  0  0  0
   39.0630   29.5920   42.5110 C   0  0  0  0  0  3  0  0  0  0  0  0
   38.4230   28.5890   43.1980 C   0  0  0  0  0  0  0  0  0  0  0  0
   38.9950   27.9780   43.8660 H   0  0  0  0  0  0  0  0  0  0  0  0
   37.0720   28.3690   43.0320 C   0  0  0  0  0  0  0  0  0  0  0  0
   36.4500   27.4570   43.6450 O   0  0  0  0  0  0  0  0  0  0  0  0
   36.4110   29.1770   42.1720 N   0  0  0  0  0  0  0  0  0  0  0  0
   37.0330   30.1770   41.4840 C   0  0  0  0  0  0  0  0  0  0  0  0
   36.3200   30.8720   40.7080 O   0  0  0  0  0  0  0  0  0  0  0  0
   35.3990   29.0170   42.0440 H   0  0  0  0  0  0  0  0  0  0  0  0
   39.5620   29.8460   39.1390 O   0  0  0  0  0  0  0  0  0  0  0  0
   37.8410   27.9500   38.5450 O   0  0  0  0  0  0  0  0  0  0  0  0
   38.4110   29.2280   38.0470 P   0  0  0  0  0  0  0  0  0  0  0  0
   37.1380   30.3390   37.8370 O   0  0  0  0  0  0  0  0  0  0  0  0
   36.7610   30.4790   38.7530 H   0  0  0  0  0  0  0  0  0  0  0  0
   39.1310   28.9520   36.5360 O   0  0  0  0  0  0  0  0  0  0  0  0
   38.5450   28.4460   35.9510 H   0  0  0  0  0  0  0  0  0  0  0  0
  1  6  2  0  0  0  0
  1  2  1  0  0  0  0
  2  3  2  0  0  0  0
  3  4  1  0  0  0  0
  3  9  1  0  0  0  0
  5  8  1  0  0  0  0
  5  4  2  0  0  0  0
  6  5  1  0  0  0  0
  7  1  1  0  0  0  0
  9 10  1  0  0  0  0
 10 11  2  0  0  0  0
 11 12  1  0  0  0  0
 13 11  1  0  0  0  0
 13 14  2  0  0  0  0
 15 13  1  0  0  0  0
 16  9  1  0  0  0  0
 16 15  1  0  0  0  0
 17 16  2  0  0  0  0
 18 15  1  0  0  0  0
 19  2  1  0  0  0  0
 21 20  2  0  0  0  0
 21 19  1  0  0  0  0
 22 21  1  0  0  0  0
 22 23  1  0  0  0  0
 24 21  1  0  0  0  0
 25 24  1  0  0  0  0
M  END
>  <minimizedAffinity>
-4.8385644

$$$$

 OpenBabel03252502173D

 25 26  0  0  0  0  0  0  0  0999 V2000
   36.9140   29.8320   36.1930 C   0  0  0  0  0  0  0  0  0  0  0  0
   37.2760   29.6600   37.5320 C   0  0  0  0  0  0  0  0  0  0  0  0
   36.3520   29.0950   38.4200 C   0  0  0  0  0  0  0  0  0  0  0  0
   35.1350   28.7380   37.9250 N   0  0  0  0  0  0  0  0  0  0  0  0
   34.8230   28.9190   36.6320 C   0  0  0  0  0  0  0  0  0  0  0  0
   35.6920   29.4600   35.7580 N   0  0  0  0  0  0  0  0  0  0  0  0
   37.6260   30.2700   35.5000 H   0  0  0  0  0  0  0  0  0  0  0  0
   33.8490   28.6310   36.2550 H   0  0  0  0  0  0  0  0  0  0  0  0
   36.7520   28.9320   39.7790 N   0  0  0  0  0  0  0  0  0  0  0  0
   37.3860   27.8590   40.2920 C   0  0  0  0  0  3  0  0  0  0  0  0
   37.7140   27.8350   41.6260 C   0  0  0  0  0  0  0  0  0  0  0  0
   38.2160   26.9740   42.0160 H   0  0  0  0  0  0  0  0  0  0  0  0
   37.4020   28.8970   42.4490 C   0  0  0  0  0  0  0  0  0  0  0  0
   37.6870   28.9110   43.6790 O   0  0  0  0  0  0  0  0  0  0  0  0
   36.7670   29.9520   41.8910 N   0  0  0  0  0  0  0  0  0  0  0  0
   36.4350   29.9890   40.5680 C   0  0  0  0  0  0  0  0  0  0  0  0
   35.8430   31.0240   40.1520 O   0  0  0  0  0  0  0  0  0  0  0  0
   36.5300   30.7490   42.5030 H   0  0  0  0  0  0  0  0  0  0  0  0
   38.5540   30.0700   37.8950 O   0  0  0  0  0  0  0  0  0  0  0  0
   39.9490   31.9220   39.1350 O   0  0  0  0  0  0  0  0  0  0  0  0
   38.9650   31.7160   38.0400 P   0  0  0  0  0  0  0  0  0  0  0  0
   39.6480   32.2860   36.5890 O   0  0  0  0  0  0  0  0  0  0  0  0
   40.4460   31.7040   36.4300 H   0  0  0  0  0  0  0  0  0  0  0  0
   37.5790   32.6350   38.3730 O   0  0  0  0  0  0  0  0  0  0  0  0
   37.8070   33.5430   38.6280 H   0  0  0  0  0  0  0  0  0  0  0  0
  1  2  1  0  0  0  0
  2 19  1  0  0  0  0
  2  3  2  0  0  0  0
  3  9  1  0  0  0  0
  4  3  1  0  0  0  0
  5  4  2  0  0  0  0
  6  1  2  0  0  0  0
  6  5  1  0  0  0  0
  7  1  1  0  0  0  0
  8  5  1  0  0  0  0
  9 10  1  0  0  0  0
  9 16  1  0  0  0  0
 10 11  2  0  0  0  0
 11 12  1  0  0  0  0
 11 13  1  0  0  0  0
 13 14  2  0  0  0  0
 15 13  1  0  0  0  0
 15 18  1  0  0  0  0
 16 15  1  0  0  0  0
 17 16  2  0  0  0  0
 19 21  1  0  0  0  0
 21 24  1  0  0  0  0
 21 20  2  0  0  0  0
 22 21  1  0  0  0  0
 23 22  1  0  0  0  0
 24 25  1  0  0  0  0
M  END
>  <minimizedAffinity>
-4.77698374

$$$$

 OpenBabel03252502173D

 25 26  0  0  0  0  0  0  0  0999 V2000
   36.4320   28.2640   38.7790 C   0  0  0  0  0  0  0  0  0  0  0  0
   37.4020   29.2240   39.0770 C   0  0  0  0  0  0  0  0  0  0  0  0
   37.7430   30.1730   38.1050 C   0  0  0  0  0  0  0  0  0  0  0  0
   37.1020   30.1090   36.9050 N   0  0  0  0  0  0  0  0  0  0  0  0
   36.1740   29.1700   36.6550 C   0  0  0  0  0  0  0  0  0  0  0  0
   35.8290   28.2470   37.5710 N   0  0  0  0  0  0  0  0  0  0  0  0
   36.1650   27.5250   39.5280 H   0  0  0  0  0  0  0  0  0  0  0  0
   35.6750   29.1320   35.6950 H   0  0  0  0  0  0  0  0  0  0  0  0
   38.7340   31.1410   38.4400 N   0  0  0  0  0  0  0  0  0  0  0  0
   40.0670   30.9780   38.3270 C   0  0  0  0  0  3  0  0  0  0  0  0
   40.9110   31.9990   38.6890 C   0  0  0  0  0  0  0  0  0  0  0  0
   41.9670   31.8510   38.5930 H   0  0  0  0  0  0  0  0  0  0  0  0
   40.4130   33.1920   39.1670 C   0  0  0  0  0  0  0  0  0  0  0  0
   41.1570   34.1530   39.5100 O   0  0  0  0  0  0  0  0  0  0  0  0
   39.0690   33.3110   39.2640 N   0  0  0  0  0  0  0  0  0  0  0  0
   38.2190   32.3060   38.9090 C   0  0  0  0  0  0  0  0  0  0  0  0
   36.9820   32.5240   39.0390 O   0  0  0  0  0  0  0  0  0  0  0  0
   38.6900   34.2030   39.6230 H   0  0  0  0  0  0  0  0  0  0  0  0
   37.9720   29.1700   40.3440 O   0  0  0  0  0  0  0  0  0  0  0  0
   37.9990   29.8900   42.8730 O   0  0  0  0  0  0  0  0  0  0  0  0
   37.0880   29.5570   41.7470 P   0  0  0  0  0  0  0  0  0  0  0  0
   36.0780   30.8980   41.4590 O   0  0  0  0  0  0  0  0  0  0  0  0
   36.6950   31.6340   41.1800 H   0  0  0  0  0  0  0  0  0  0  0  0
   36.1140   28.2460   42.2030 O   0  0  0  0  0  0  0  0  0  0  0  0
   35.7330   28.3760   43.0860 H   0  0  0  0  0  0  0  0  0  0  0  0
  1  2  1  0  0  0  0
  1  7  1  0  0  0  0
  2 19  1  0  0  0  0
  3  9  1  0  0  0  0
  3  2  2  0  0  0  0
  4  3  1  0  0  0  0
  5  4  2  0  0  0  0
  5  6  1  0  0  0  0
  6  1  2  0  0  0  0
  8  5  1  0  0  0  0
  9 16  1  0  0  0  0
 10  9  1  0  0  0  0
 10 11  2  0  0  0  0
 11 13  1  0  0  0  0
 12 11  1  0  0  0  0
 13 15  1  0  0  0  0
 13 14  2  0  0  0  0
 15 18  1  0  0  0  0
 16 17  2  0  0  0  0
 16 15  1  0  0  0  0
 19 21  1  0  0  0  0
 21 24  1  0  0  0  0
 21 20  2  0  0  0  0
 22 21  1  0  0  0  0
 23 22  1  0  0  0  0
 24 25  1  0  0  0  0
M  END
>  <minimizedAffinity>
-4.55431938

$$$$

 OpenBabel03252502173D

 25 26  0  0  0  0  0  0  0  0999 V2000
   38.1640   26.7750   41.6790 C   0  0  0  0  0  0  0  0  0  0  0  0
   38.2770   28.0840   41.2020 C   0  0  0  0  0  0  0  0  0  0  0  0
   37.8190   29.1410   41.9990 C   0  0  0  0  0  0  0  0  0  0  0  0
   37.2820   28.8330   43.2120 N   0  0  0  0  0  0  0  0  0  0  0  0
   37.1910   27.5620   43.6360 C   0  0  0  0  0  0  0  0  0  0  0  0
   37.6230   26.5290   42.8900 N   0  0  0  0  0  0  0  0  0  0  0  0
   38.5170   25.9520   41.0650 H   0  0  0  0  0  0  0  0  0  0  0  0
   36.7600   27.3350   44.6030 H   0  0  0  0  0  0  0  0  0  0  0  0
   37.9490   30.4650   41.4850 N   0  0  0  0  0  0  0  0  0  0  0  0
   39.0790   31.1990   41.4710 C   0  0  0  0  0  3  0  0  0  0  0  0
   39.0600   32.4660   40.9420 C   0  0  0  0  0  0  0  0  0  0  0  0
   39.9670   33.0360   40.9400 H   0  0  0  0  0  0  0  0  0  0  0  0
   37.8990   32.9990   40.4230 C   0  0  0  0  0  0  0  0  0  0  0  0
   37.8430   34.1600   39.9290 O   0  0  0  0  0  0  0  0  0  0  0  0
   36.7900   32.2260   40.4580 N   0  0  0  0  0  0  0  0  0  0  0  0
   36.7930   30.9660   40.9800 C   0  0  0  0  0  0  0  0  0  0  0  0
   35.7020   30.3320   40.9620 O   0  0  0  0  0  0  0  0  0  0  0  0
   35.9170   32.6200   40.0720 H   0  0  0  0  0  0  0  0  0  0  0  0
   38.8480   28.2490   39.9440 O   0  0  0  0  0  0  0  0  0  0  0  0
   40.9110   26.8970   39.0350 O   0  0  0  0  0  0  0  0  0  0  0  0
   40.5310   28.1700   39.7020 P   0  0  0  0  0  0  0  0  0  0  0  0
   41.0500   29.4640   38.7260 O   0  0  0  0  0  0  0  0  0  0  0  0
   40.5350   29.3700   37.8730 H   0  0  0  0  0  0  0  0  0  0  0  0
   41.3390   28.2680   41.1900 O   0  0  0  0  0  0  0  0  0  0  0  0
   42.2820   28.0560   41.0970 H   0  0  0  0  0  0  0  0  0  0  0  0
  1  6  1  0  0  0  0
  2  1  2  0  0  0  0
  2  3  1  0  0  0  0
  3  4  2  0  0  0  0
  4  5  1  0  0  0  0
  5  8  1  0  0  0  0
  6  5  2  0  0  0  0
  7  1  1  0  0  0  0
  9  3  1  0  0  0  0
 10  9  1  0  0  0  0
 11 10  2  0  0  0  0
 12 11  1  0  0  0  0
 13 15  1  0  0  0  0
 13 11  1  0  0  0  0
 14 13  2  0  0  0  0
 15 16  1  0  0  0  0
 16  9  1  0  0  0  0
 17 16  2  0  0  0  0
 18 15  1  0  0  0  0
 19  2  1  0  0  0  0
 20 21  2  0  0  0  0
 21 19  1  0  0  0  0
 21 24  1  0  0  0  0
 22 21  1  0  0  0  0
 23 22  1  0  0  0  0
 25 24  1  0  0  0  0
M  END
>  <minimizedAffinity>
-4.55189371

$$$$

 OpenBabel03252502173D

 25 26  0  0  0  0  0  0  0  0999 V2000
   37.9510   32.0880   39.1460 C   0  0  0  0  0  0  0  0  0  0  0  0
   38.1350   30.9200   39.8910 C   0  0  0  0  0  0  0  0  0  0  0  0
   38.8710   30.9800   41.0810 C   0  0  0  0  0  0  0  0  0  0  0  0
   39.3740   32.1900   41.4540 N   0  0  0  0  0  0  0  0  0  0  0  0
   39.1760   33.2910   40.7110 C   0  0  0  0  0  0  0  0  0  0  0  0
   38.4730   33.2590   39.5640 N   0  0  0  0  0  0  0  0  0  0  0  0
   37.3820   32.0460   38.2220 H   0  0  0  0  0  0  0  0  0  0  0  0
   39.5840   34.2450   41.0210 H   0  0  0  0  0  0  0  0  0  0  0  0
   39.0400   29.7720   41.8200 N   0  0  0  0  0  0  0  0  0  0  0  0
   38.1940   29.2910   42.7510 C   0  0  0  0  0  3  0  0  0  0  0  0
   38.4830   28.1080   43.3870 C   0  0  0  0  0  0  0  0  0  0  0  0
   37.7990   27.7410   44.1250 H   0  0  0  0  0  0  0  0  0  0  0  0
   39.6300   27.4060   43.0850 C   0  0  0  0  0  0  0  0  0  0  0  0
   39.9300   26.3160   43.6490 O   0  0  0  0  0  0  0  0  0  0  0  0
   40.4500   27.9260   42.1450 N   0  0  0  0  0  0  0  0  0  0  0  0
   40.1760   29.0990   41.5050 C   0  0  0  0  0  0  0  0  0  0  0  0
   41.0100   29.4940   40.6430 O   0  0  0  0  0  0  0  0  0  0  0  0
   41.3120   27.4050   41.9150 H   0  0  0  0  0  0  0  0  0  0  0  0
   37.5630   29.7560   39.3890 O   0  0  0  0  0  0  0  0  0  0  0  0
   35.9390   27.9050   40.3110 O   0  0  0  0  0  0  0  0  0  0  0  0
   35.9720   29.2930   39.7810 P   0  0  0  0  0  0  0  0  0  0  0  0
   35.3260   30.3350   40.9630 O   0  0  0  0  0  0  0  0  0  0  0  0
   35.9490   30.2630   41.7420 H   0  0  0  0  0  0  0  0  0  0  0  0
   34.9850   29.3750   38.4040 O   0  0  0  0  0  0  0  0  0  0  0  0
   34.1230   28.9580   38.5590 H   0  0  0  0  0  0  0  0  0  0  0  0
  1  6  2  0  0  0  0
  1  2  1  0  0  0  0
  2  3  2  0  0  0  0
  3  4  1  0  0  0  0
  3  9  1  0  0  0  0
  5  8  1  0  0  0  0
  5  4  2  0  0  0  0
  6  5  1  0  0  0  0
  7  1  1  0  0  0  0
  9 10  1  0  0  0  0
 10 11  2  0  0  0  0
 11 12  1  0  0  0  0
 13 11  1  0  0  0  0
 13 14  2  0  0  0  0
 15 13  1  0  0  0  0
 16  9  1  0  0  0  0
 16 15  1  0  0  0  0
 17 16  2  0  0  0  0
 18 15  1  0  0  0  0
 19 21  1  0  0  0  0
 19  2  1  0  0  0  0
 21 20  2  0  0  0  0
 21 22  1  0  0  0  0
 22 23  1  0  0  0  0
 24 25  1  0  0  0  0
 24 21  1  0  0  0  0
M  END
>  <minimizedAffinity>
-4.45994902

$$$$
