
 OpenBabel03252506253D

 46 50  0  0  0  0  0  0  0  0999 V2000
   45.5390   27.8510   47.8060 C   0  0  0  0  0  0  0  0  0  0  0  0
   45.0070   29.1290   47.7910 C   0  0  0  0  0  0  0  0  0  0  0  0
   44.1870   29.4370   46.7080 C   0  0  0  0  0  0  0  0  0  0  0  0
   43.9130   28.5350   45.7050 C   0  0  0  0  0  0  0  0  0  0  0  0
   43.1860   28.5470   44.5770 N   0  0  0  0  0  0  0  0  0  0  0  0
   43.2590   27.3700   43.9410 C   0  0  0  0  0  0  0  0  0  0  0  0
   44.0700   26.5180   44.6630 C   0  0  0  0  0  0  0  0  0  0  0  0
   44.4540   27.2690   45.7420 C   0  0  0  0  0  0  0  0  0  0  0  0
   45.2700   26.9510   46.8120 C   0  0  0  0  0  0  0  0  0  0  0  0
   46.1720   27.6680   48.6770 H   0  0  0  0  0  0  0  0  0  0  0  0
   43.7020   30.3940   46.5620 H   0  0  0  0  0  0  0  0  0  0  0  0
   42.6220   29.3720   44.2250 H   0  0  0  0  0  0  0  0  0  0  0  0
   42.7560   27.1380   43.0100 H   0  0  0  0  0  0  0  0  0  0  0  0
   44.3550   25.4960   44.4560 H   0  0  0  0  0  0  0  0  0  0  0  0
   45.8570   25.6550   46.9010 N   0  0  0  0  0  0  0  0  0  0  0  0
   47.0180   25.2510   46.3530 C   0  0  0  0  0  3  0  0  0  0  0  0
   47.4250   23.9360   46.5530 C   0  0  0  0  0  0  0  0  0  0  0  0
   48.3640   23.6400   46.0990 H   0  0  0  0  0  0  0  0  0  0  0  0
   46.6560   23.0650   47.2960 C   0  0  0  0  0  0  0  0  0  0  0  0
   47.0200   21.8750   47.4800 O   0  0  0  0  0  0  0  0  0  0  0  0
   45.4880   23.5220   47.8310 N   0  0  0  0  0  0  0  0  0  0  0  0
   45.1100   24.7980   47.6260 C   0  0  0  0  0  0  0  0  0  0  0  0
   44.0020   25.0960   48.1780 O   0  0  0  0  0  0  0  0  0  0  0  0
   44.9230   22.8260   48.3950 H   0  0  0  0  0  0  0  0  0  0  0  0
   45.1660   30.2220   48.7360 C   0  0  0  0  0  0  0  0  0  0  0  0
   44.2900   30.9120   48.7200 H   0  0  0  0  0  0  0  0  0  0  0  0
   45.1180   29.7720   49.7690 H   0  0  0  0  0  0  0  0  0  0  0  0
   46.4310   30.9920   48.6730 C   0  0  0  0  0  0  0  0  0  0  0  0
   46.3790   31.7830   49.4750 H   0  0  0  0  0  0  0  0  0  0  0  0
   47.2760   30.3470   48.8980 H   0  0  0  0  0  0  0  0  0  0  0  0
   46.2830   33.0180   45.7350 C   0  0  0  0  0  0  0  0  0  0  0  0
   47.2340   32.0560   45.3730 C   0  0  0  0  0  0  0  0  0  0  0  0
   47.4030   31.1960   46.4090 C   0  0  0  0  0  0  0  0  0  0  0  0
   46.5860   31.6130   47.3740 N   0  0  0  0  0  0  0  0  0  0  0  0
   45.9030   32.7080   46.9870 N   0  0  0  0  0  0  0  0  0  0  0  0
   47.7760   31.9710   44.4300 H   0  0  0  0  0  0  0  0  0  0  0  0
   48.0680   30.3310   46.4630 H   0  0  0  0  0  0  0  0  0  0  0  0
   44.4660   35.9500   44.5370 C   0  0  0  0  0  0  0  0  0  0  0  0
   45.0100   36.1580   43.2640 C   0  0  0  0  0  0  0  0  0  0  0  0
   45.9980   35.2840   42.8300 C   0  0  0  0  0  0  0  0  0  0  0  0
   46.3590   34.2990   43.6730 N   0  0  0  0  0  0  0  0  0  0  0  0
   45.8350   34.1090   44.8860 C   0  0  0  0  0  0  0  0  0  0  0  0
   44.8870   34.9430   45.3100 N   0  0  0  0  0  0  0  0  0  0  0  0
   43.6970   36.6510   44.8450 H   0  0  0  0  0  0  0  0  0  0  0  0
   44.7420   36.9310   42.5770 H   0  0  0  0  0  0  0  0  0  0  0  0
   46.4950   35.3390   41.8700 H   0  0  0  0  0  0  0  0  0  0  0  0
  1 10  1  0  0  0  0
  2  1  1  0  0  0  0
  2 25  1  0  0  0  0
  3  2  2  0  0  0  0
  4  8  2  0  0  0  0
  4  3  1  0  0  0  0
  5  4  1  0  0  0  0
  6  5  1  0  0  0  0
  6  7  2  0  0  0  0
  7  8  1  0  0  0  0
  8  9  1  0  0  0  0
  9 15  1  0  0  0  0
  9  1  2  0  0  0  0
 11  3  1  0  0  0  0
 12  5  1  0  0  0  0
 13  6  1  0  0  0  0
 14  7  1  0  0  0  0
 15 22  1  0  0  0  0
 16 17  2  0  0  0  0
 16 15  1  0  0  0  0
 17 19  1  0  0  0  0
 18 17  1  0  0  0  0
 19 20  2  0  0  0  0
 19 21  1  0  0  0  0
 21 24  1  0  0  0  0
 22 21  1  0  0  0  0
 22 23  2  0  0  0  0
 25 27  1  0  0  0  0
 26 25  1  0  0  0  0
 28 25  1  0  0  0  0
 28 30  1  0  0  0  0
 28 29  1  0  0  0  0
 31 35  2  0  0  0  0
 32 31  1  0  0  0  0
 32 33  2  0  0  0  0
 33 37  1  0  0  0  0
 33 34  1  0  0  0  0
 34 28  1  0  0  0  0
 35 34  1  0  0  0  0
 36 32  1  0  0  0  0
 38 44  1  0  0  0  0
 38 43  1  0  0  0  0
 39 38  2  0  0  0  0
 40 39  1  0  0  0  0
 40 41  2  0  0  0  0
 41 42  1  0  0  0  0
 42 43  2  0  0  0  0
 42 31  1  0  0  0  0
 45 39  1  0  0  0  0
 46 40  1  0  0  0  0
M  END
>  <minimizedAffinity>
-5.47328329

>  <minimizedRMSD>
1.56865883

$$$$
