
     RDKit          3D

 44 46  0  0  0  0  0  0  0  0999 V2000
   50.2217   34.9052   42.7083 O   0  0  0  0  0  0  0  0  0  0  0  0
   49.0566   34.6178   41.8412 P   0  0  1  0  0  0  0  0  0  0  0  0
   48.9710   35.8733   40.6924 O   0  0  0  0  0  0  0  0  0  0  0  0
   49.3133   33.1576   40.9595 O   0  0  0  0  0  0  0  0  0  0  0  0
   49.5321   31.4382   42.5582 C   0  0  0  0  0  0  0  0  0  0  0  0
   50.0552   32.1187   41.4839 C   0  0  0  0  0  0  0  0  0  0  0  0
   51.3178   31.7223   40.9740 C   0  0  0  0  0  0  0  0  0  0  0  0
   51.9323   30.6874   41.5858 N   0  0  0  0  0  0  0  0  0  0  0  0
   51.3982   30.0572   42.6164 C   0  0  0  0  0  0  0  0  0  0  0  0
   50.1898   30.4427   43.0984 N   0  0  0  0  0  0  0  0  0  0  0  0
   47.0888   31.0371   42.8308 C   0  0  0  0  0  0  0  0  0  0  0  0
   46.9208   30.6983   41.5997 O   0  0  0  0  0  0  0  0  0  0  0  0
   48.3847   31.4347   43.3947 N   0  0  0  0  0  0  0  0  0  0  0  0
   47.6216   34.5553   42.6562 O   0  0  0  0  0  0  0  0  0  0  0  0
   46.5404   35.1237   42.0978 C   0  0  2  0  0  0  0  0  0  0  0  0
   45.4923   35.6104   43.0167 C   0  0  0  0  0  0  0  0  0  0  0  0
   44.1863   35.7458   42.3059 C   0  0  0  0  0  0  0  0  0  0  0  0
   43.6522   34.5204   41.9206 O   0  0  0  0  0  0  0  0  0  0  0  0
   44.6462   33.5845   41.7210 C   0  0  0  0  0  0  0  0  0  0  0  0
   45.8667   34.2145   41.0877 C   0  0  1  0  0  0  0  0  0  0  0  0
   48.8510   36.7140   41.2253 H   0  0  0  0  0  0  0  0  0  0  0  0
   51.6392   32.3113   40.1395 H   0  0  0  0  0  0  0  0  0  0  0  0
   51.9373   29.2409   43.0595 H   0  0  0  0  0  0  0  0  0  0  0  0
   46.1711   30.9971   43.4045 H   0  0  0  0  0  0  0  0  0  0  0  0
   48.3154   31.6852   44.3869 H   0  0  0  0  0  0  0  0  0  0  0  0
   46.9627   36.0041   41.5511 H   0  0  0  0  0  0  0  0  0  0  0  0
   45.7537   36.5523   43.5419 H   0  0  0  0  0  0  0  0  0  0  0  0
   45.3089   34.8775   43.8564 H   0  0  0  0  0  0  0  0  0  0  0  0
   43.4650   36.0880   43.1149 H   0  0  0  0  0  0  0  0  0  0  0  0
   44.1137   36.5402   41.5599 H   0  0  0  0  0  0  0  0  0  0  0  0
   44.9959   33.1688   42.7000 H   0  0  0  0  0  0  0  0  0  0  0  0
   44.2256   32.7554   41.1587 H   0  0  0  0  0  0  0  0  0  0  0  0
   46.5633   33.3391   41.0091 H   0  0  0  0  0  0  0  0  0  0  0  0
   45.6982   34.6659   39.7714 N   0  0  0  0  0  0  0  0  0  0  0  0
   46.5912   34.8605   38.7873 C   0  0  0  0  0  0  0  0  0  0  0  0
   46.3544   35.3057   37.5157 C   0  0  0  0  0  0  0  0  0  0  0  0
   47.1696   35.4200   36.8127 H   0  0  0  0  0  0  0  0  0  0  0  0
   45.0542   35.5959   37.1798 C   0  0  0  0  0  0  0  0  0  0  0  0
   44.7601   36.0054   36.0432 O   0  0  0  0  0  0  0  0  0  0  0  0
   44.1581   35.4038   38.1578 N   0  0  0  0  0  0  0  0  0  0  0  0
   44.4107   34.9643   39.4049 C   0  0  0  0  0  0  0  0  0  0  0  0
   43.4426   34.8313   40.2315 O   0  0  0  0  0  0  0  0  0  0  0  0
   47.6086   34.6358   39.0492 H   0  0  0  0  0  0  0  0  0  0  0  0
   43.1547   35.6150   37.9379 H   0  0  0  0  0  0  0  0  0  0  0  0
  2 14  1  1
  2  1  2  0
  3  2  1  0
  4  6  1  0
  4  2  1  0
  5 10  2  0
  5 13  1  0
  6  5  1  0
  7  6  2  0
  7  8  1  0
  8  9  2  0
  9 10  1  0
 11 13  1  0
 12 11  2  0
 15 14  1  0
 15 16  1  0
 17 16  1  0
 18 17  1  0
 19 18  1  0
 20 19  1  0
 20 15  1  0
  3 21  1  0
  7 22  1  0
  9 23  1  0
 11 24  1  0
 13 25  1  0
 15 26  1  6
 16 27  1  0
 16 28  1  0
 17 29  1  0
 17 30  1  0
 19 31  1  0
 19 32  1  0
 20 33  1  6
 34 35  1  0
 35 36  2  0
 36 37  1  0
 36 38  1  0
 38 39  2  0
 38 40  1  0
 40 41  1  0
 41 42  2  0
 41 34  1  0
 35 43  1  0
 40 44  1  0
 20 34  1  0
M  ISO  8  21   3  22  14  23  14  24   6  26  13  27  13  28  13  29  13
M  ISO  5  30  13  31  13  32  13  33  13  37  16
M  END
>  <DihAtoms>  (1) 
18,19,33,34

>  <DihDeg>  (1) 
114.27063451125484

$$$$
