
     RDKit          3D

 21 22  0  0  0  0  0  0  0  0999 V2000
   44.5568   35.6219   45.0671 C   0  0  0  0  0  0  0  0  0  0  0  0
   45.0390   35.8808   43.7568 C   0  0  0  0  0  0  0  0  0  0  0  0
   45.9759   34.9749   43.2469 C   0  0  0  0  0  0  0  0  0  0  0  0
   46.3762   33.9240   43.9884 N   0  0  0  0  0  0  0  0  0  0  0  0
   45.8859   33.7118   45.2470 C   0  0  0  0  0  0  0  0  0  0  0  0
   44.9835   34.5691   45.7602 N   0  0  0  0  0  0  0  0  0  0  0  0
   44.6287   36.9546   43.0016 O   0  0  0  0  0  0  0  0  0  0  0  0
   43.8342   36.3386   45.4344 H   0  0  0  0  0  0  0  0  0  0  0  0
   46.2423   32.8478   45.8035 H   0  0  0  0  0  0  0  0  0  0  0  0
   44.2457   37.7738   43.4312 H   0  0  0  0  0  0  0  0  0  0  0  0
   46.4611   35.2328   41.9323 N   0  0  0  0  0  0  0  0  0  0  0  0
   45.5806   35.9544   41.1789 C   0  0  0  0  0  0  0  0  0  0  0  0
   45.8902   36.2905   39.8876 C   0  0  0  0  0  0  0  0  0  0  0  0
   45.2215   36.8670   39.2398 H   0  0  0  0  0  0  0  0  0  0  0  0
   47.0892   35.9097   39.3253 C   0  0  0  0  0  0  0  0  0  0  0  0
   47.4309   36.1940   38.1288 O   0  0  0  0  0  0  0  0  0  0  0  0
   47.9294   35.1916   40.1222 N   0  0  0  0  0  0  0  0  0  0  0  0
   47.6239   34.8614   41.3930 C   0  0  0  0  0  0  0  0  0  0  0  0
   48.3599   34.2099   42.1503 O   0  0  0  0  0  0  0  0  0  0  0  0
   44.6132   36.3024   41.5248 H   0  0  0  0  0  0  0  0  0  0  0  0
   48.8354   34.8873   39.7416 H   0  0  0  0  0  0  0  0  0  0  0  0
  1  6  2  0
  2  1  1  0
  3  2  2  0
  3  4  1  0
  4  5  2  0
  5  6  1  0
  7  2  1  0
  1  8  1  0
  5  9  1  0
  7 10  1  0
 11 12  1  0
 12 13  2  0
 13 14  1  0
 13 15  1  0
 15 16  2  0
 15 17  1  0
 17 18  1  0
 18 19  2  0
 18 11  1  0
 12 20  1  0
 17 21  1  0
  3 11  1  0
M  ISO  4   8  14   9  14  10   3  14  16
M  END
>  <DihAtoms>  (1) 
1,2,10,11

>  <DihDeg>  (1) 
109.50025936152807

$$$$
