
 OpenBabel03242513463D

 26 28  0  0  1  0  0  0  0  0999 V2000
   44.4200   34.8850   43.8680 C   0  0  1  0  0  0  0  0  0  0  0  0
   45.1430   36.2500   43.8020 C   0  0  0  0  0  0  0  0  0  0  0  0
   44.7550   35.4880   42.5990 C   0  0  1  0  0  0  0  0  0  0  0  0
   43.4090   35.0030   44.3090 H   0  0  0  0  0  0  0  0  0  0  0  0
   46.1520   36.2970   44.1930 H   0  0  0  0  0  0  0  0  0  0  0  0
   44.5440   37.1570   44.1080 H   0  0  0  0  0  0  0  0  0  0  0  0
   43.8730   35.8610   41.9890 H   0  0  0  0  0  0  0  0  0  0  0  0
   45.8450   35.0250   41.7680 N   0  0  0  0  0  0  0  0  0  0  0  0
   47.1710   35.1930   41.9160 C   0  0  0  0  0  0  0  0  0  0  0  0
   48.0900   34.6850   41.0310 C   0  0  0  0  0  0  0  0  0  0  0  0
   49.1450   34.8760   41.2380 H   0  0  0  0  0  0  0  0  0  0  0  0
   47.7100   33.9680   39.9340 C   0  0  0  0  0  0  0  0  0  0  0  0
   48.5960   33.5390   39.1770 O   0  0  0  0  0  0  0  0  0  0  0  0
   46.3940   33.7890   39.7680 N   0  0  0  0  0  0  0  0  0  0  0  0
   45.5310   34.3040   40.6600 C   0  0  0  0  0  0  0  0  0  0  0  0
   44.2960   34.0780   40.4130 O   0  0  0  0  0  0  0  0  0  0  0  0
   46.0610   33.2490   38.9470 H   0  0  0  0  0  0  0  0  0  0  0  0
   45.2230   33.8260   44.5140 C   0  0  0  0  0  0  0  0  0  0  0  0
   45.3620   32.5830   43.8240 C   0  0  0  0  0  0  0  0  0  0  0  0
   46.1240   31.5750   44.4110 C   0  0  0  0  0  0  0  0  0  0  0  0
   46.6980   31.8490   45.6270 N   0  0  0  0  0  0  0  0  0  0  0  0
   46.5420   33.0410   46.2480 C   0  0  0  0  0  0  0  0  0  0  0  0
   45.8060   34.0260   45.6920 N   0  0  0  0  0  0  0  0  0  0  0  0
   44.9170   32.3700   42.8800 H   0  0  0  0  0  0  0  0  0  0  0  0
   46.2790   30.6080   43.9590 H   0  0  0  0  0  0  0  0  0  0  0  0
   47.0240   33.1990   47.2160 H   0  0  0  0  0  0  0  0  0  0  0  0
  1  4  1  1  0  0  0
  1 18  1  0  0  0  0
  2  1  1  0  0  0  0
  2  6  1  0  0  0  0
  2  5  1  0  0  0  0
  3  7  1  6  0  0  0
  3  2  1  0  0  0  0
  3  1  1  0  0  0  0
  8  9  1  0  0  0  0
  8  3  1  0  0  0  0
 10 11  1  0  0  0  0
 10  9  2  0  0  0  0
 12 10  1  0  0  0  0
 13 12  2  0  0  0  0
 14 12  1  0  0  0  0
 14 15  1  0  0  0  0
 15  8  1  0  0  0  0
 16 15  2  0  0  0  0
 17 14  1  0  0  0  0
 18 23  1  0  0  0  0
 19 20  1  0  0  0  0
 19 18  2  0  0  0  0
 20 21  2  0  0  0  0
 21 22  1  0  0  0  0
 22 26  1  0  0  0  0
 23 22  2  0  0  0  0
 24 19  1  0  0  0  0
 25 20  1  0  0  0  0
M  END
>  <minimizedAffinity>
-4.37194061

>  <minimizedRMSD>
2.01241469

$$$$
