
 OpenBabel03252503023D

 34 35  0  0  0  0  0  0  0  0999 V2000
   41.7990   31.9240   40.7880 C   0  0  0  0  0  0  0  0  0  0  0  0
   42.7570   32.8850   40.4820 C   0  0  0  0  0  0  0  0  0  0  0  0
   42.9620   33.3180   39.1750 C   0  0  0  0  0  0  0  0  0  0  0  0
   42.1800   32.7550   38.2100 N   0  0  0  0  0  0  0  0  0  0  0  0
   41.2690   31.8370   38.5290 C   0  0  0  0  0  0  0  0  0  0  0  0
   41.0510   31.4030   39.7730 N   0  0  0  0  0  0  0  0  0  0  0  0
   41.7070   31.6480   41.8210 H   0  0  0  0  0  0  0  0  0  0  0  0
   43.7010   34.0620   38.9240 H   0  0  0  0  0  0  0  0  0  0  0  0
   40.4000   31.1900   37.5850 N   0  0  0  0  0  0  0  0  0  0  0  0
   39.1400   31.6590   37.6040 C   0  0  0  0  0  3  0  0  0  0  0  0
   38.2430   31.0720   36.7090 C   0  0  0  0  0  0  0  0  0  0  0  0
   37.1880   31.3780   36.6400 H   0  0  0  0  0  0  0  0  0  0  0  0
   38.7160   30.0570   35.8740 C   0  0  0  0  0  0  0  0  0  0  0  0
   37.9040   29.5350   35.0730 O   0  0  0  0  0  0  0  0  0  0  0  0
   39.9960   29.6190   35.8920 N   0  0  0  0  0  0  0  0  0  0  0  0
   40.8360   30.2100   36.7710 C   0  0  0  0  0  0  0  0  0  0  0  0
   42.0390   29.8740   36.8620 O   0  0  0  0  0  0  0  0  0  0  0  0
   40.3190   28.8600   35.2570 H   0  0  0  0  0  0  0  0  0  0  0  0
   43.7620   33.5900   41.8160 S   0  0  0  0  0  0  0  0  0  0  0  0
   43.5130   35.3670   41.8690 C   0  0  0  0  0  0  0  0  0  0  0  0
   42.6440   35.6170   41.2390 H   0  0  0  0  0  0  0  0  0  0  0  0
   44.4500   35.9050   41.5520 H   0  0  0  0  0  0  0  0  0  0  0  0
   43.3110   35.7250   43.2750 N   0  0  0  0  0  0  0  0  0  0  0  0
   42.7610   36.6110   43.2820 H   0  0  0  0  0  0  0  0  0  0  0  0
   44.7940   35.9260   44.1180 S   0  0  0  0  0  0  0  0  0  0  0  0
   45.9780   35.5790   43.2770 O   0  0  0  0  0  0  0  0  0  0  0  0
   46.1410   34.6720   42.9100 H   0  0  0  0  0  0  0  0  0  0  0  0
   44.8390   37.3920   44.5130 O   0  0  0  0  0  0  0  0  0  0  0  0
   45.3140   38.0670   43.9720 H   0  0  0  0  0  0  0  0  0  0  0  0
   44.7650   35.0460   45.5370 O   0  0  0  0  0  0  0  0  0  0  0  0
   45.5460   33.9090   45.4560 C   0  0  0  0  0  0  0  0  0  0  0  0
   44.9000   33.0960   45.0750 H   0  0  0  0  0  0  0  0  0  0  0  0
   46.4550   34.0800   44.8350 H   0  0  0  0  0  0  0  0  0  0  0  0
   45.8780   33.6270   46.4790 H   0  0  0  0  0  0  0  0  0  0  0  0
  1  7  1  0  0  0  0
  2  1  1  0  0  0  0
  2 19  1  0  0  0  0
  3  2  2  0  0  0  0
  4  5  2  0  0  0  0
  4  3  1  0  0  0  0
  5  6  1  0  0  0  0
  6  1  2  0  0  0  0
  8  3  1  0  0  0  0
  9 10  1  0  0  0  0
  9  5  1  0  0  0  0
 11 10  2  0  0  0  0
 12 11  1  0  0  0  0
 13 15  1  0  0  0  0
 13 11  1  0  0  0  0
 14 13  2  0  0  0  0
 15 16  1  0  0  0  0
 16 17  2  0  0  0  0
 16  9  1  0  0  0  0
 18 15  1  0  0  0  0
 19 20  1  0  0  0  0
 20 23  1  0  0  0  0
 21 20  1  0  0  0  0
 22 20  1  0  0  0  0
 23 24  1  0  0  0  0
 23 25  1  0  0  0  0
 25 28  1  0  0  0  0
 25 30  1  0  0  0  0
 26 25  1  0  0  0  0
 27 26  1  0  0  0  0
 29 28  1  0  0  0  0
 31 30  1  0  0  0  0
 31 34  1  0  0  0  0
 32 31  1  0  0  0  0
 33 31  1  0  0  0  0
M  END
>  <minimizedAffinity>
-4.61905861

>  <minimizedRMSD>
3.87897658

$$$$
