
 OpenBabel03252509063D

 49 51  0  0  1  0  0  0  0  0999 V2000
   37.9760   27.0440   42.7580 N   0  0  0  0  0  0  0  0  0  0  0  0
   39.1830   26.7710   43.4390 C   0  0  0  0  0  0  0  0  0  0  0  0
   40.3480   27.6460   43.0060 C   0  0  0  0  0  0  0  0  0  0  0  0
   39.9560   29.0570   42.6410 C   0  0  0  0  0  0  0  0  0  0  0  0
   38.4790   29.2980   42.9000 C   0  0  0  0  0  0  0  0  0  0  0  0
   37.7820   28.1820   42.0180 C   0  0  2  0  0  0  0  0  0  0  0  0
   39.0110   26.9730   44.5250 H   0  0  0  0  0  0  0  0  0  0  0  0
   39.5470   25.7390   43.3820 H   0  0  0  0  0  0  0  0  0  0  0  0
   40.9400   27.1590   42.1960 H   0  0  0  0  0  0  0  0  0  0  0  0
   41.0540   27.7180   43.8620 H   0  0  0  0  0  0  0  0  0  0  0  0
   40.1040   29.1670   41.5440 H   0  0  0  0  0  0  0  0  0  0  0  0
   40.5890   29.8260   43.1140 H   0  0  0  0  0  0  0  0  0  0  0  0
   38.1960   30.2840   42.5170 H   0  0  0  0  0  0  0  0  0  0  0  0
   38.2260   29.1220   43.9460 H   0  0  0  0  0  0  0  0  0  0  0  0
   38.2720   28.2030   41.0230 H   0  0  0  0  0  0  0  0  0  0  0  0
   37.1950   25.8750   42.4550 C   0  0  0  0  0  0  0  0  0  0  0  0
   36.5390   26.1500   41.6040 H   0  0  0  0  0  0  0  0  0  0  0  0
   36.5750   25.6620   43.3510 H   0  0  0  0  0  0  0  0  0  0  0  0
   38.1320   24.7710   42.1180 C   0  0  0  0  0  0  0  0  0  0  0  0
   38.3250   24.1000   42.9930 H   0  0  0  0  0  0  0  0  0  0  0  0
   39.1020   25.1460   41.7760 H   0  0  0  0  0  0  0  0  0  0  0  0
   37.6860   22.0200   39.5990 C   0  0  0  0  0  0  0  0  0  0  0  0
   38.2480   22.8550   40.5830 C   0  0  0  0  0  0  0  0  0  0  0  0
   37.5190   23.9030   41.0810 C   0  0  0  0  0  0  0  0  0  0  0  0
   36.2850   24.0800   40.5980 N   0  0  0  0  0  0  0  0  0  0  0  0
   35.7420   23.2920   39.6630 C   0  0  0  0  0  0  0  0  0  0  0  0
   36.4330   22.2510   39.1490 N   0  0  0  0  0  0  0  0  0  0  0  0
   38.3260   21.2180   39.2600 H   0  0  0  0  0  0  0  0  0  0  0  0
   39.2550   22.6950   40.9630 H   0  0  0  0  0  0  0  0  0  0  0  0
   34.7450   23.4230   39.2620 H   0  0  0  0  0  0  0  0  0  0  0  0
   36.4750   28.6300   42.0240 O   0  0  0  0  0  0  0  0  0  0  0  0
   36.1100   31.1360   41.1910 O   0  0  0  0  0  0  0  0  0  0  0  0
   36.1380   29.6660   40.7490 P   0  0  2  0  0  0  0  0  0  0  0  0
   34.5040   29.3440   40.3170 O   0  0  0  0  0  0  0  0  0  0  0  0
   34.4590   28.6280   39.6540 H   0  0  0  0  0  0  0  0  0  0  0  0
   37.0850   29.4110   39.4050 O   0  0  0  0  0  0  0  0  0  0  0  0
   36.9540   30.4960   38.5510 C   0  0  0  0  0  0  0  0  0  0  0  0
   36.5350   30.1790   37.5590 H   0  0  0  0  0  0  0  0  0  0  0  0
   36.3140   31.2790   38.9840 H   0  0  0  0  0  0  0  0  0  0  0  0
   38.2860   31.0160   38.2990 N   0  0  0  0  0  0  0  0  0  0  0  0
   39.3680   30.8720   39.0830 C   0  0  0  0  0  3  0  0  0  0  0  0
   40.5830   31.4250   38.7150 C   0  0  0  0  0  0  0  0  0  0  0  0
   41.4360   31.2950   39.3620 H   0  0  0  0  0  0  0  0  0  0  0  0
   40.7120   32.1410   37.5310 C   0  0  0  0  0  0  0  0  0  0  0  0
   41.8080   32.6460   37.1870 O   0  0  0  0  0  0  0  0  0  0  0  0
   39.6070   32.2600   36.7810 N   0  0  0  0  0  0  0  0  0  0  0  0
   38.4300   31.7190   37.1460 C   0  0  0  0  0  0  0  0  0  0  0  0
   37.4870   31.9110   36.3460 O   0  0  0  0  0  0  0  0  0  0  0  0
   39.7400   32.8040   35.8960 H   0  0  0  0  0  0  0  0  0  0  0  0
  1  2  1  0  0  0  0
  2  7  1  0  0  0  0
  3  2  1  0  0  0  0
  3 10  1  0  0  0  0
  4  5  1  0  0  0  0
  4  3  1  0  0  0  0
  4 12  1  0  0  0  0
  5 14  1  0  0  0  0
  6 15  1  6  0  0  0
  6 31  1  0  0  0  0
  6  1  1  0  0  0  0
  6  5  1  0  0  0  0
  8  2  1  0  0  0  0
  9  3  1  0  0  0  0
 11  4  1  0  0  0  0
 13  5  1  0  0  0  0
 16  1  1  0  0  0  0
 16 18  1  0  0  0  0
 17 16  1  0  0  0  0
 19 16  1  0  0  0  0
 19 20  1  0  0  0  0
 21 19  1  0  0  0  0
 22 23  1  0  0  0  0
 23 29  1  0  0  0  0
 23 24  2  0  0  0  0
 24 19  1  0  0  0  0
 25 24  1  0  0  0  0
 26 25  2  0  0  0  0
 27 22  2  0  0  0  0
 27 26  1  0  0  0  0
 28 22  1  0  0  0  0
 30 26  1  0  0  0  0
 33 32  2  1  0  0  0
 33 31  1  0  0  0  0
 34 33  1  0  0  0  0
 35 34  1  0  0  0  0
 36 33  1  0  0  0  0
 37 39  1  0  0  0  0
 37 36  1  0  0  0  0
 38 37  1  0  0  0  0
 40 37  1  0  0  0  0
 40 41  1  0  0  0  0
 42 41  2  0  0  0  0
 42 43  1  0  0  0  0
 44 42  1  0  0  0  0
 45 44  2  0  0  0  0
 46 47  1  0  0  0  0
 46 44  1  0  0  0  0
 47 40  1  0  0  0  0
 48 47  2  0  0  0  0
 49 46  1  0  0  0  0
M  END
>  <minimizedAffinity>
-5.94096088

$$$$

 OpenBabel03252509063D

 49 51  0  0  1  0  0  0  0  0999 V2000
   37.9200   25.8470   41.9920 N   0  0  0  0  0  0  0  0  0  0  0  0
   38.6500   24.8000   42.5970 C   0  0  0  0  0  0  0  0  0  0  0  0
   39.9460   25.2490   43.2510 C   0  0  0  0  0  0  0  0  0  0  0  0
   39.8780   26.6210   43.8770 C   0  0  0  0  0  0  0  0  0  0  0  0
   38.4720   27.1890   43.7930 C   0  0  0  0  0  0  0  0  0  0  0  0
   38.1790   27.1710   42.2370 C   0  0  2  0  0  0  0  0  0  0  0  0
   38.0120   24.3670   43.4050 H   0  0  0  0  0  0  0  0  0  0  0  0
   38.9180   23.9600   41.9470 H   0  0  0  0  0  0  0  0  0  0  0  0
   40.8070   25.1590   42.5460 H   0  0  0  0  0  0  0  0  0  0  0  0
   40.1800   24.5330   44.0680 H   0  0  0  0  0  0  0  0  0  0  0  0
   40.5240   27.2920   43.2700 H   0  0  0  0  0  0  0  0  0  0  0  0
   40.2770   26.6560   44.9040 H   0  0  0  0  0  0  0  0  0  0  0  0
   38.4760   28.2270   44.1440 H   0  0  0  0  0  0  0  0  0  0  0  0
   37.7520   26.5400   44.2900 H   0  0  0  0  0  0  0  0  0  0  0  0
   39.0730   27.5920   41.7340 H   0  0  0  0  0  0  0  0  0  0  0  0
   37.2800   25.4800   40.7560 C   0  0  0  0  0  0  0  0  0  0  0  0
   38.0880   25.3810   40.0030 H   0  0  0  0  0  0  0  0  0  0  0  0
   36.6120   26.3220   40.4790 H   0  0  0  0  0  0  0  0  0  0  0  0
   36.5500   24.2040   40.9790 C   0  0  0  0  0  0  0  0  0  0  0  0
   35.5740   24.3630   41.5030 H   0  0  0  0  0  0  0  0  0  0  0  0
   37.1310   23.4980   41.5810 H   0  0  0  0  0  0  0  0  0  0  0  0
   34.5820   22.5460   38.2430 C   0  0  0  0  0  0  0  0  0  0  0  0
   34.9320   23.1220   39.4780 C   0  0  0  0  0  0  0  0  0  0  0  0
   36.2030   23.6000   39.6680 C   0  0  0  0  0  0  0  0  0  0  0  0
   37.0600   23.4930   38.6480 N   0  0  0  0  0  0  0  0  0  0  0  0
   36.7370   22.9470   37.4700 C   0  0  0  0  0  0  0  0  0  0  0  0
   35.4930   22.4650   37.2490 N   0  0  0  0  0  0  0  0  0  0  0  0
   33.5630   22.1930   38.1750 H   0  0  0  0  0  0  0  0  0  0  0  0
   34.2200   23.2000   40.2970 H   0  0  0  0  0  0  0  0  0  0  0  0
   37.4200   22.8530   36.6350 H   0  0  0  0  0  0  0  0  0  0  0  0
   37.0560   27.9750   42.1780 O   0  0  0  0  0  0  0  0  0  0  0  0
   38.2710   30.3430   42.3240 O   0  0  0  0  0  0  0  0  0  0  0  0
   37.3580   29.4600   41.4610 P   0  0  2  0  0  0  0  0  0  0  0  0
   35.8520   30.2930   41.4830 O   0  0  0  0  0  0  0  0  0  0  0  0
   35.3360   30.0900   40.6800 H   0  0  0  0  0  0  0  0  0  0  0  0
   37.8640   29.3550   39.8790 O   0  0  0  0  0  0  0  0  0  0  0  0
   37.5540   30.5410   39.2290 C   0  0  0  0  0  0  0  0  0  0  0  0
   36.9020   30.3510   38.3350 H   0  0  0  0  0  0  0  0  0  0  0  0
   37.0530   31.2540   39.9010 H   0  0  0  0  0  0  0  0  0  0  0  0
   38.7970   31.1030   38.7330 N   0  0  0  0  0  0  0  0  0  0  0  0
   39.9930   31.0800   39.3460 C   0  0  0  0  0  3  0  0  0  0  0  0
   41.1010   31.6600   38.7510 C   0  0  0  0  0  0  0  0  0  0  0  0
   42.0490   31.6270   39.2640 H   0  0  0  0  0  0  0  0  0  0  0  0
   41.0020   32.2800   37.5110 C   0  0  0  0  0  0  0  0  0  0  0  0
   42.0000   32.8080   36.9630 O   0  0  0  0  0  0  0  0  0  0  0  0
   39.7910   32.2800   36.9380 N   0  0  0  0  0  0  0  0  0  0  0  0
   38.7190   31.7130   37.5220 C   0  0  0  0  0  0  0  0  0  0  0  0
   37.6560   31.7910   36.8690 O   0  0  0  0  0  0  0  0  0  0  0  0
   39.7530   32.7550   36.0040 H   0  0  0  0  0  0  0  0  0  0  0  0
  1  6  1  0  0  0  0
  1  2  1  0  0  0  0
  2  3  1  0  0  0  0
  2  7  1  0  0  0  0
  3  4  1  0  0  0  0
  3 10  1  0  0  0  0
  4 12  1  0  0  0  0
  5  4  1  0  0  0  0
  5 13  1  0  0  0  0
  5 14  1  0  0  0  0
  6 15  1  6  0  0  0
  6  5  1  0  0  0  0
  8  2  1  0  0  0  0
  9  3  1  0  0  0  0
 11  4  1  0  0  0  0
 16 19  1  0  0  0  0
 16  1  1  0  0  0  0
 17 16  1  0  0  0  0
 18 16  1  0  0  0  0
 19 20  1  0  0  0  0
 19 21  1  0  0  0  0
 22 23  1  0  0  0  0
 23 24  2  0  0  0  0
 23 29  1  0  0  0  0
 24 19  1  0  0  0  0
 25 24  1  0  0  0  0
 26 25  2  0  0  0  0
 27 26  1  0  0  0  0
 27 22  2  0  0  0  0
 28 22  1  0  0  0  0
 30 26  1  0  0  0  0
 31  6  1  0  0  0  0
 33 34  1  0  0  0  0
 33 31  1  0  0  0  0
 33 32  2  1  0  0  0
 35 34  1  0  0  0  0
 36 33  1  0  0  0  0
 37 36  1  0  0  0  0
 37 39  1  0  0  0  0
 38 37  1  0  0  0  0
 40 37  1  0  0  0  0
 40 41  1  0  0  0  0
 42 43  1  0  0  0  0
 42 41  2  0  0  0  0
 44 42  1  0  0  0  0
 45 44  2  0  0  0  0
 46 44  1  0  0  0  0
 46 47  1  0  0  0  0
 47 40  1  0  0  0  0
 48 47  2  0  0  0  0
 49 46  1  0  0  0  0
M  END
>  <minimizedAffinity>
-5.80105257

$$$$

 OpenBabel03252509063D

 49 51  0  0  1  0  0  0  0  0999 V2000
   37.4070   30.3500   41.7590 N   0  0  0  0  0  0  0  0  0  0  0  0
   37.2970   29.1880   42.5550 C   0  0  0  0  0  0  0  0  0  0  0  0
   38.5610   28.3460   42.5970 C   0  0  0  0  0  0  0  0  0  0  0  0
   39.8380   29.1510   42.5560 C   0  0  0  0  0  0  0  0  0  0  0  0
   39.5460   30.6400   42.5890 C   0  0  0  0  0  0  0  0  0  0  0  0
   38.6120   30.8430   41.3270 C   0  0  2  0  0  0  0  0  0  0  0  0
   37.0890   29.5160   43.6020 H   0  0  0  0  0  0  0  0  0  0  0  0
   36.4870   28.4990   42.2920 H   0  0  0  0  0  0  0  0  0  0  0  0
   38.5460   27.5550   41.8110 H   0  0  0  0  0  0  0  0  0  0  0  0
   38.5630   27.7860   43.5570 H   0  0  0  0  0  0  0  0  0  0  0  0
   40.3240   28.9480   41.5760 H   0  0  0  0  0  0  0  0  0  0  0  0
   40.5690   28.8550   43.3270 H   0  0  0  0  0  0  0  0  0  0  0  0
   40.4760   31.1980   42.4390 H   0  0  0  0  0  0  0  0  0  0  0  0
   38.9870   30.9140   43.4840 H   0  0  0  0  0  0  0  0  0  0  0  0
   39.0840   30.2990   40.4840 H   0  0  0  0  0  0  0  0  0  0  0  0
   36.2180   30.6670   41.0130 C   0  0  0  0  0  0  0  0  0  0  0  0
   36.5210   31.4000   40.2380 H   0  0  0  0  0  0  0  0  0  0  0  0
   35.5120   31.1450   41.7240 H   0  0  0  0  0  0  0  0  0  0  0  0
   35.6930   29.4050   40.4280 C   0  0  0  0  0  0  0  0  0  0  0  0
   34.5980   29.2740   40.6230 H   0  0  0  0  0  0  0  0  0  0  0  0
   36.2020   28.5230   40.8300 H   0  0  0  0  0  0  0  0  0  0  0  0
   35.0080   28.8380   36.7780 C   0  0  0  0  0  0  0  0  0  0  0  0
   34.8970   28.8060   38.1810 C   0  0  0  0  0  0  0  0  0  0  0  0
   35.8290   29.4520   38.9510 C   0  0  0  0  0  0  0  0  0  0  0  0
   36.8150   30.0930   38.3150 N   0  0  0  0  0  0  0  0  0  0  0  0
   36.9300   30.1290   36.9830 C   0  0  0  0  0  0  0  0  0  0  0  0
   36.0290   29.5030   36.1940 N   0  0  0  0  0  0  0  0  0  0  0  0
   34.2340   28.3040   36.2460 H   0  0  0  0  0  0  0  0  0  0  0  0
   34.0870   28.2780   38.6790 H   0  0  0  0  0  0  0  0  0  0  0  0
   37.7220   30.6440   36.4540 H   0  0  0  0  0  0  0  0  0  0  0  0
   38.6360   32.2200   41.2080 O   0  0  0  0  0  0  0  0  0  0  0  0
   39.9010   34.0920   39.7940 O   0  0  0  0  0  0  0  0  0  0  0  0
   39.1930   32.7320   39.7130 P   0  0  2  0  0  0  0  0  0  0  0  0
   37.7810   33.0670   38.7880 O   0  0  0  0  0  0  0  0  0  0  0  0
   37.4780   32.2640   38.3210 H   0  0  0  0  0  0  0  0  0  0  0  0
   40.0830   31.5870   38.8950 O   0  0  0  0  0  0  0  0  0  0  0  0
   40.2370   31.9940   37.5790 C   0  0  0  0  0  0  0  0  0  0  0  0
   39.5250   31.4480   36.9030 H   0  0  0  0  0  0  0  0  0  0  0  0
   40.0870   33.0780   37.4680 H   0  0  0  0  0  0  0  0  0  0  0  0
   41.5780   31.6260   37.1630 N   0  0  0  0  0  0  0  0  0  0  0  0
   42.0110   30.3960   36.8370 C   0  0  0  0  0  3  0  0  0  0  0  0
   43.3260   30.1900   36.4560 C   0  0  0  0  0  0  0  0  0  0  0  0
   43.6480   29.1930   36.1990 H   0  0  0  0  0  0  0  0  0  0  0  0
   44.2280   31.2470   36.4040 C   0  0  0  0  0  0  0  0  0  0  0  0
   45.4220   31.0720   36.0600 O   0  0  0  0  0  0  0  0  0  0  0  0
   43.7530   32.4540   36.7380 N   0  0  0  0  0  0  0  0  0  0  0  0
   42.4730   32.6460   37.1070 C   0  0  0  0  0  0  0  0  0  0  0  0
   42.1740   33.8270   37.3900 O   0  0  0  0  0  0  0  0  0  0  0  0
   44.4590   33.2280   36.6880 H   0  0  0  0  0  0  0  0  0  0  0  0
  1  2  1  0  0  0  0
  2  3  1  0  0  0  0
  2  7  1  0  0  0  0
  3 10  1  0  0  0  0
  4  5  1  0  0  0  0
  4  3  1  0  0  0  0
  4 12  1  0  0  0  0
  5 14  1  0  0  0  0
  6 15  1  6  0  0  0
  6  1  1  0  0  0  0
  6  5  1  0  0  0  0
  8  2  1  0  0  0  0
  9  3  1  0  0  0  0
 11  4  1  0  0  0  0
 13  5  1  0  0  0  0
 16 18  1  0  0  0  0
 16  1  1  0  0  0  0
 17 16  1  0  0  0  0
 19 20  1  0  0  0  0
 19 21  1  0  0  0  0
 19 16  1  0  0  0  0
 22 23  1  0  0  0  0
 23 29  1  0  0  0  0
 23 24  2  0  0  0  0
 24 19  1  0  0  0  0
 25 24  1  0  0  0  0
 26 25  2  0  0  0  0
 27 22  2  0  0  0  0
 27 26  1  0  0  0  0
 28 22  1  0  0  0  0
 30 26  1  0  0  0  0
 31  6  1  0  0  0  0
 33 32  2  1  0  0  0
 33 31  1  0  0  0  0
 34 33  1  0  0  0  0
 35 34  1  0  0  0  0
 36 33  1  0  0  0  0
 37 36  1  0  0  0  0
 38 37  1  0  0  0  0
 39 37  1  0  0  0  0
 40 37  1  0  0  0  0
 41 40  1  0  0  0  0
 42 41  2  0  0  0  0
 43 42  1  0  0  0  0
 44 42  1  0  0  0  0
 44 46  1  0  0  0  0
 45 44  2  0  0  0  0
 46 47  1  0  0  0  0
 47 40  1  0  0  0  0
 47 48  2  0  0  0  0
 49 46  1  0  0  0  0
M  END
>  <minimizedAffinity>
-5.66551018

$$$$

 OpenBabel03252509063D

 49 51  0  0  1  0  0  0  0  0999 V2000
   37.0790   28.1410   38.3910 N   0  0  0  0  0  0  0  0  0  0  0  0
   35.9850   27.2540   38.2890 C   0  0  0  0  0  0  0  0  0  0  0  0
   34.6570   27.9400   38.0170 C   0  0  0  0  0  0  0  0  0  0  0  0
   34.7630   29.1580   37.1310 C   0  0  0  0  0  0  0  0  0  0  0  0
   36.1840   29.3470   36.6310 C   0  0  0  0  0  0  0  0  0  0  0  0
   37.0180   29.4460   37.9740 C   0  0  2  0  0  0  0  0  0  0  0  0
   36.1820   26.5720   37.4250 H   0  0  0  0  0  0  0  0  0  0  0  0
   35.8130   26.5990   39.1510 H   0  0  0  0  0  0  0  0  0  0  0  0
   34.1160   28.1650   38.9660 H   0  0  0  0  0  0  0  0  0  0  0  0
   34.0020   27.2130   37.4890 H   0  0  0  0  0  0  0  0  0  0  0  0
   34.5320   30.0440   37.7620 H   0  0  0  0  0  0  0  0  0  0  0  0
   34.0290   29.1680   36.3080 H   0  0  0  0  0  0  0  0  0  0  0  0
   36.2580   30.2980   36.0930 H   0  0  0  0  0  0  0  0  0  0  0  0
   36.5260   28.4760   36.0730 H   0  0  0  0  0  0  0  0  0  0  0  0
   36.4740   30.1440   38.6420 H   0  0  0  0  0  0  0  0  0  0  0  0
   38.0410   27.7760   39.3970 C   0  0  0  0  0  0  0  0  0  0  0  0
   38.0920   28.6290   40.1040 H   0  0  0  0  0  0  0  0  0  0  0  0
   39.0160   27.6610   38.8800 H   0  0  0  0  0  0  0  0  0  0  0  0
   37.5730   26.5240   40.0470 C   0  0  0  0  0  0  0  0  0  0  0  0
   37.3720   25.7130   39.3030 H   0  0  0  0  0  0  0  0  0  0  0  0
   36.6500   26.6780   40.6170 H   0  0  0  0  0  0  0  0  0  0  0  0
   39.3020   24.6190   42.7840 C   0  0  0  0  0  0  0  0  0  0  0  0
   38.3020   25.1310   41.9350 C   0  0  0  0  0  0  0  0  0  0  0  0
   38.6430   25.9970   40.9290 C   0  0  0  0  0  0  0  0  0  0  0  0
   39.9350   26.3160   40.8030 N   0  0  0  0  0  0  0  0  0  0  0  0
   40.8930   25.8350   41.6040 C   0  0  0  0  0  0  0  0  0  0  0  0
   40.5920   24.9800   42.6060 N   0  0  0  0  0  0  0  0  0  0  0  0
   38.9500   23.9440   43.5500 H   0  0  0  0  0  0  0  0  0  0  0  0
   37.2560   24.8590   42.0550 H   0  0  0  0  0  0  0  0  0  0  0  0
   41.9430   26.0850   41.5140 H   0  0  0  0  0  0  0  0  0  0  0  0
   38.2200   29.9310   37.4940 O   0  0  0  0  0  0  0  0  0  0  0  0
   37.3140   32.3580   38.1220 O   0  0  0  0  0  0  0  0  0  0  0  0
   38.5670   31.4730   38.0520 P   0  0  2  0  0  0  0  0  0  0  0  0
   39.5100   32.2070   36.8130 O   0  0  0  0  0  0  0  0  0  0  0  0
   40.4590   32.0210   36.9480 H   0  0  0  0  0  0  0  0  0  0  0  0
   39.4580   31.4970   39.4570 O   0  0  0  0  0  0  0  0  0  0  0  0
   38.6600   31.9750   40.4860 C   0  0  0  0  0  0  0  0  0  0  0  0
   39.1850   32.7860   41.0580 H   0  0  0  0  0  0  0  0  0  0  0  0
   37.6980   32.3560   40.1120 H   0  0  0  0  0  0  0  0  0  0  0  0
   38.4410   30.8790   41.4130 N   0  0  0  0  0  0  0  0  0  0  0  0
   39.3830   30.1820   42.0710 C   0  0  0  0  0  3  0  0  0  0  0  0
   39.0270   29.1550   42.9300 C   0  0  0  0  0  0  0  0  0  0  0  0
   39.8020   28.6110   43.4460 H   0  0  0  0  0  0  0  0  0  0  0  0
   37.6930   28.8220   43.1290 C   0  0  0  0  0  0  0  0  0  0  0  0
   37.3590   27.8930   43.9050 O   0  0  0  0  0  0  0  0  0  0  0  0
   36.7890   29.5430   42.4520 N   0  0  0  0  0  0  0  0  0  0  0  0
   37.1430   30.5400   41.6190 C   0  0  0  0  0  0  0  0  0  0  0  0
   36.1910   31.1240   41.0570 O   0  0  0  0  0  0  0  0  0  0  0  0
   35.7930   29.2660   42.6260 H   0  0  0  0  0  0  0  0  0  0  0  0
  1 16  1  0  0  0  0
  2  1  1  0  0  0  0
  2  8  1  0  0  0  0
  3  2  1  0  0  0  0
  3  9  1  0  0  0  0
  4 11  1  0  0  0  0
  4  3  1  0  0  0  0
  5  4  1  0  0  0  0
  5  6  1  0  0  0  0
  6  1  1  0  0  0  0
  6 15  1  1  0  0  0
  7  2  1  0  0  0  0
 10  3  1  0  0  0  0
 12  4  1  0  0  0  0
 13  5  1  0  0  0  0
 14  5  1  0  0  0  0
 16 19  1  0  0  0  0
 16 17  1  0  0  0  0
 18 16  1  0  0  0  0
 19 21  1  0  0  0  0
 19 24  1  0  0  0  0
 20 19  1  0  0  0  0
 22 28  1  0  0  0  0
 23 29  1  0  0  0  0
 23 22  2  0  0  0  0
 24 23  1  0  0  0  0
 25 24  2  0  0  0  0
 25 26  1  0  0  0  0
 26 27  2  0  0  0  0
 27 22  1  0  0  0  0
 30 26  1  0  0  0  0
 31  6  1  0  0  0  0
 31 33  1  0  0  0  0
 33 32  2  1  0  0  0
 33 36  1  0  0  0  0
 34 35  1  0  0  0  0
 34 33  1  0  0  0  0
 36 37  1  0  0  0  0
 37 38  1  0  0  0  0
 37 40  1  0  0  0  0
 39 37  1  0  0  0  0
 40 47  1  0  0  0  0
 40 41  1  0  0  0  0
 41 42  2  0  0  0  0
 42 44  1  0  0  0  0
 42 43  1  0  0  0  0
 44 45  2  0  0  0  0
 46 49  1  0  0  0  0
 46 44  1  0  0  0  0
 47 46  1  0  0  0  0
 48 47  2  0  0  0  0
M  END
>  <minimizedAffinity>
-5.62247849

$$$$

 OpenBabel03252509063D

 49 51  0  0  1  0  0  0  0  0999 V2000
   38.0950   27.5830   42.9760 N   0  0  0  0  0  0  0  0  0  0  0  0
   39.3020   27.2060   43.6040 C   0  0  0  0  0  0  0  0  0  0  0  0
   40.5370   27.8710   43.0190 C   0  0  0  0  0  0  0  0  0  0  0  0
   40.3070   29.2860   42.5460 C   0  0  0  0  0  0  0  0  0  0  0  0
   38.8980   29.7490   42.8710 C   0  0  0  0  0  0  0  0  0  0  0  0
   37.9970   28.6680   42.1440 C   0  0  2  0  0  0  0  0  0  0  0  0
   39.2390   27.5220   44.6740 H   0  0  0  0  0  0  0  0  0  0  0  0
   39.5220   26.1330   43.6240 H   0  0  0  0  0  0  0  0  0  0  0  0
   40.9980   27.2390   42.2240 H   0  0  0  0  0  0  0  0  0  0  0  0
   41.3070   27.9190   43.8180 H   0  0  0  0  0  0  0  0  0  0  0  0
   40.3870   29.2790   41.4360 H   0  0  0  0  0  0  0  0  0  0  0  0
   41.0690   29.9990   42.9030 H   0  0  0  0  0  0  0  0  0  0  0  0
   38.7210   30.7280   42.4130 H   0  0  0  0  0  0  0  0  0  0  0  0
   38.7030   29.7010   43.9420 H   0  0  0  0  0  0  0  0  0  0  0  0
   38.4110   28.5360   41.1230 H   0  0  0  0  0  0  0  0  0  0  0  0
   37.1460   26.5100   42.8340 C   0  0  0  0  0  0  0  0  0  0  0  0
   36.2620   26.9410   42.3220 H   0  0  0  0  0  0  0  0  0  0  0  0
   36.8650   26.1930   43.8610 H   0  0  0  0  0  0  0  0  0  0  0  0
   37.7910   25.4280   42.0450 C   0  0  0  0  0  0  0  0  0  0  0  0
   37.8210   24.4590   42.6050 H   0  0  0  0  0  0  0  0  0  0  0  0
   38.8210   25.6780   41.7720 H   0  0  0  0  0  0  0  0  0  0  0  0
   35.6830   23.6300   39.5090 C   0  0  0  0  0  0  0  0  0  0  0  0
   36.4510   23.9070   40.6550 C   0  0  0  0  0  0  0  0  0  0  0  0
   36.9850   25.1580   40.8290 C   0  0  0  0  0  0  0  0  0  0  0  0
   36.7420   26.0680   39.8800 N   0  0  0  0  0  0  0  0  0  0  0  0
   36.0130   25.8140   38.7870 C   0  0  0  0  0  0  0  0  0  0  0  0
   35.4730   24.5920   38.5840 N   0  0  0  0  0  0  0  0  0  0  0  0
   35.3000   22.6220   39.4480 H   0  0  0  0  0  0  0  0  0  0  0  0
   36.6380   23.1520   41.4160 H   0  0  0  0  0  0  0  0  0  0  0  0
   35.8090   26.5410   38.0110 H   0  0  0  0  0  0  0  0  0  0  0  0
   36.7640   29.2910   42.1870 O   0  0  0  0  0  0  0  0  0  0  0  0
   34.8590   29.1770   40.3270 O   0  0  0  0  0  0  0  0  0  0  0  0
   36.2290   29.7760   40.6750 P   0  0  2  0  0  0  0  0  0  0  0  0
   37.2950   29.0270   39.5500 O   0  0  0  0  0  0  0  0  0  0  0  0
   38.0700   29.5960   39.3800 H   0  0  0  0  0  0  0  0  0  0  0  0
   36.2980   31.4210   40.4300 O   0  0  0  0  0  0  0  0  0  0  0  0
   37.0690   31.6760   39.3060 C   0  0  0  0  0  0  0  0  0  0  0  0
   37.5600   30.7370   38.9350 H   0  0  0  0  0  0  0  0  0  0  0  0
   36.4720   32.1190   38.4950 H   0  0  0  0  0  0  0  0  0  0  0  0
   38.1330   32.5800   39.7020 N   0  0  0  0  0  0  0  0  0  0  0  0
   38.0020   33.8720   40.0500 C   0  0  0  0  0  3  0  0  0  0  0  0
   39.1120   34.6200   40.4080 C   0  0  0  0  0  0  0  0  0  0  0  0
   38.9800   35.6540   40.6840 H   0  0  0  0  0  0  0  0  0  0  0  0
   40.3820   34.0550   40.4130 C   0  0  0  0  0  0  0  0  0  0  0  0
   41.3940   34.7230   40.7360 O   0  0  0  0  0  0  0  0  0  0  0  0
   40.4640   32.7650   40.0580 N   0  0  0  0  0  0  0  0  0  0  0  0
   39.3810   32.0450   39.7120 C   0  0  0  0  0  0  0  0  0  0  0  0
   39.6110   30.8550   39.4040 O   0  0  0  0  0  0  0  0  0  0  0  0
   41.4350   32.3720   40.0730 H   0  0  0  0  0  0  0  0  0  0  0  0
  1  2  1  0  0  0  0
  2  8  1  0  0  0  0
  2  7  1  0  0  0  0
  3  2  1  0  0  0  0
  3 10  1  0  0  0  0
  4  5  1  0  0  0  0
  4 12  1  0  0  0  0
  4  3  1  0  0  0  0
  5 14  1  0  0  0  0
  6 15  1  6  0  0  0
  6 31  1  0  0  0  0
  6  5  1  0  0  0  0
  6  1  1  0  0  0  0
  9  3  1  0  0  0  0
 11  4  1  0  0  0  0
 13  5  1  0  0  0  0
 16  1  1  0  0  0  0
 16 18  1  0  0  0  0
 17 16  1  0  0  0  0
 19 20  1  0  0  0  0
 19 16  1  0  0  0  0
 21 19  1  0  0  0  0
 22 23  1  0  0  0  0
 23 24  2  0  0  0  0
 23 29  1  0  0  0  0
 24 19  1  0  0  0  0
 25 24  1  0  0  0  0
 26 25  2  0  0  0  0
 27 26  1  0  0  0  0
 27 22  2  0  0  0  0
 28 22  1  0  0  0  0
 30 26  1  0  0  0  0
 33 32  2  6  0  0  0
 33 31  1  0  0  0  0
 34 33  1  0  0  0  0
 35 34  1  0  0  0  0
 36 33  1  0  0  0  0
 37 40  1  0  0  0  0
 37 36  1  0  0  0  0
 38 37  1  0  0  0  0
 39 37  1  0  0  0  0
 40 47  1  0  0  0  0
 40 41  1  0  0  0  0
 41 42  2  0  0  0  0
 42 44  1  0  0  0  0
 42 43  1  0  0  0  0
 44 45  2  0  0  0  0
 46 49  1  0  0  0  0
 46 44  1  0  0  0  0
 47 46  1  0  0  0  0
 48 47  2  0  0  0  0
M  END
>  <minimizedAffinity>
-5.54569626

$$$$

 OpenBabel03252509063D

 49 51  0  0  1  0  0  0  0  0999 V2000
   37.1230   26.6750   41.6790 N   0  0  0  0  0  0  0  0  0  0  0  0
   37.3020   25.3020   41.9570 C   0  0  0  0  0  0  0  0  0  0  0  0
   36.6030   24.3770   40.9740 C   0  0  0  0  0  0  0  0  0  0  0  0
   36.5760   24.8930   39.5560 C   0  0  0  0  0  0  0  0  0  0  0  0
   37.3600   26.1880   39.4310 C   0  0  0  0  0  0  0  0  0  0  0  0
   36.6440   27.1350   40.4790 C   0  0  2  0  0  0  0  0  0  0  0  0
   38.3960   25.0830   41.8870 H   0  0  0  0  0  0  0  0  0  0  0  0
   36.9950   24.9670   42.9540 H   0  0  0  0  0  0  0  0  0  0  0  0
   35.5840   24.1020   41.3340 H   0  0  0  0  0  0  0  0  0  0  0  0
   37.1620   23.4160   40.9570 H   0  0  0  0  0  0  0  0  0  0  0  0
   35.5180   25.1430   39.3170 H   0  0  0  0  0  0  0  0  0  0  0  0
   36.8900   24.1450   38.8090 H   0  0  0  0  0  0  0  0  0  0  0  0
   37.2250   26.6010   38.4250 H   0  0  0  0  0  0  0  0  0  0  0  0
   38.3970   26.0530   39.7350 H   0  0  0  0  0  0  0  0  0  0  0  0
   35.5520   27.0270   40.3200 H   0  0  0  0  0  0  0  0  0  0  0  0
   36.9680   27.4970   42.8510 C   0  0  0  0  0  0  0  0  0  0  0  0
   36.1740   27.0230   43.4620 H   0  0  0  0  0  0  0  0  0  0  0  0
   36.6250   28.4930   42.5000 H   0  0  0  0  0  0  0  0  0  0  0  0
   38.2760   27.5450   43.5550 C   0  0  0  0  0  0  0  0  0  0  0  0
   38.8620   26.6010   43.4190 H   0  0  0  0  0  0  0  0  0  0  0  0
   38.1570   27.7020   44.6320 H   0  0  0  0  0  0  0  0  0  0  0  0
   41.1830   29.3100   41.9590 C   0  0  0  0  0  0  0  0  0  0  0  0
   40.3720   28.3060   42.5210 C   0  0  0  0  0  0  0  0  0  0  0  0
   39.1140   28.6190   42.9660 C   0  0  0  0  0  0  0  0  0  0  0  0
   38.7130   29.8880   42.8380 N   0  0  0  0  0  0  0  0  0  0  0  0
   39.4760   30.8500   42.3050 C   0  0  0  0  0  0  0  0  0  0  0  0
   40.7220   30.5760   41.8580 N   0  0  0  0  0  0  0  0  0  0  0  0
   42.1590   28.9820   41.6350 H   0  0  0  0  0  0  0  0  0  0  0  0
   40.7170   27.2790   42.6170 H   0  0  0  0  0  0  0  0  0  0  0  0
   39.1660   31.8810   42.1950 H   0  0  0  0  0  0  0  0  0  0  0  0
   37.1600   28.3620   40.1100 O   0  0  0  0  0  0  0  0  0  0  0  0
   34.6060   29.1000   40.3030 O   0  0  0  0  0  0  0  0  0  0  0  0
   35.9700   29.4700   39.7030 P   0  0  2  0  0  0  0  0  0  0  0  0
   35.7300   29.2830   38.0090 O   0  0  0  0  0  0  0  0  0  0  0  0
   36.3390   29.8610   37.5100 H   0  0  0  0  0  0  0  0  0  0  0  0
   36.3960   31.0540   39.9900 O   0  0  0  0  0  0  0  0  0  0  0  0
   37.0050   31.5670   38.8540 C   0  0  0  0  0  0  0  0  0  0  0  0
   37.5140   30.7550   38.2700 H   0  0  0  0  0  0  0  0  0  0  0  0
   36.2840   32.0870   38.2060 H   0  0  0  0  0  0  0  0  0  0  0  0
   38.0420   32.4840   39.2920 N   0  0  0  0  0  0  0  0  0  0  0  0
   37.8650   33.6480   39.9410 C   0  0  0  0  0  3  0  0  0  0  0  0
   38.9530   34.4260   40.3000 C   0  0  0  0  0  0  0  0  0  0  0  0
   38.7840   35.3550   40.8200 H   0  0  0  0  0  0  0  0  0  0  0  0
   40.2490   34.0230   39.9980 C   0  0  0  0  0  0  0  0  0  0  0  0
   41.2420   34.7200   40.3190 O   0  0  0  0  0  0  0  0  0  0  0  0
   40.3770   32.8570   39.3510 N   0  0  0  0  0  0  0  0  0  0  0  0
   39.3140   32.1060   39.0060 C   0  0  0  0  0  0  0  0  0  0  0  0
   39.5880   31.0430   38.4060 O   0  0  0  0  0  0  0  0  0  0  0  0
   41.3660   32.5840   39.1400 H   0  0  0  0  0  0  0  0  0  0  0  0
  1  2  1  0  0  0  0
  1 16  1  0  0  0  0
  2  8  1  0  0  0  0
  3  9  1  0  0  0  0
  3  2  1  0  0  0  0
  4  3  1  0  0  0  0
  5  4  1  0  0  0  0
  5 14  1  0  0  0  0
  5  6  1  0  0  0  0
  6 15  1  6  0  0  0
  6  1  1  0  0  0  0
  7  2  1  0  0  0  0
 10  3  1  0  0  0  0
 11  4  1  0  0  0  0
 12  4  1  0  0  0  0
 13  5  1  0  0  0  0
 16 17  1  0  0  0  0
 16 19  1  0  0  0  0
 18 16  1  0  0  0  0
 19 21  1  0  0  0  0
 20 19  1  0  0  0  0
 22 23  1  0  0  0  0
 23 29  1  0  0  0  0
 23 24  2  0  0  0  0
 24 19  1  0  0  0  0
 25 24  1  0  0  0  0
 26 25  2  0  0  0  0
 27 22  2  0  0  0  0
 27 26  1  0  0  0  0
 28 22  1  0  0  0  0
 30 26  1  0  0  0  0
 31  6  1  0  0  0  0
 33 36  1  0  0  0  0
 33 31  1  0  0  0  0
 33 32  2  1  0  0  0
 34 33  1  0  0  0  0
 35 34  1  0  0  0  0
 37 40  1  0  0  0  0
 37 36  1  0  0  0  0
 38 37  1  0  0  0  0
 39 37  1  0  0  0  0
 40 41  1  0  0  0  0
 41 42  2  0  0  0  0
 42 43  1  0  0  0  0
 44 42  1  0  0  0  0
 44 45  2  0  0  0  0
 46 44  1  0  0  0  0
 47 40  1  0  0  0  0
 47 46  1  0  0  0  0
 48 47  2  0  0  0  0
 49 46  1  0  0  0  0
M  END
>  <minimizedAffinity>
-5.5025239

$$$$

 OpenBabel03252509063D

 49 51  0  0  1  0  0  0  0  0999 V2000
   37.3560   28.4800   38.9920 N   0  0  0  0  0  0  0  0  0  0  0  0
   36.2390   27.6180   38.9220 C   0  0  0  0  0  0  0  0  0  0  0  0
   34.9760   28.2840   38.4040 C   0  0  0  0  0  0  0  0  0  0  0  0
   35.2230   29.3340   37.3470 C   0  0  0  0  0  0  0  0  0  0  0  0
   36.6940   29.3980   36.9750 C   0  0  0  0  0  0  0  0  0  0  0  0
   37.3950   29.6980   38.3630 C   0  0  2  0  0  0  0  0  0  0  0  0
   36.4910   26.7970   38.2080 H   0  0  0  0  0  0  0  0  0  0  0  0
   35.9540   27.1220   39.8570 H   0  0  0  0  0  0  0  0  0  0  0  0
   34.3540   28.6800   39.2420 H   0  0  0  0  0  0  0  0  0  0  0  0
   34.3450   27.4980   37.9360 H   0  0  0  0  0  0  0  0  0  0  0  0
   34.9700   30.3190   37.7960 H   0  0  0  0  0  0  0  0  0  0  0  0
   34.5760   29.2260   36.4610 H   0  0  0  0  0  0  0  0  0  0  0  0
   36.8630   30.2430   36.2990 H   0  0  0  0  0  0  0  0  0  0  0  0
   37.0510   28.4370   36.6050 H   0  0  0  0  0  0  0  0  0  0  0  0
   36.8180   30.5120   38.8470 H   0  0  0  0  0  0  0  0  0  0  0  0
   38.1970   28.2630   40.1390 C   0  0  0  0  0  0  0  0  0  0  0  0
   38.5420   29.2640   40.4670 H   0  0  0  0  0  0  0  0  0  0  0  0
   39.0640   27.6640   39.7920 H   0  0  0  0  0  0  0  0  0  0  0  0
   37.3880   27.5720   41.1770 C   0  0  0  0  0  0  0  0  0  0  0  0
   36.6620   26.8460   40.7310 H   0  0  0  0  0  0  0  0  0  0  0  0
   36.8100   28.2760   41.7840 H   0  0  0  0  0  0  0  0  0  0  0  0
   39.7770   26.6170   43.9140 C   0  0  0  0  0  0  0  0  0  0  0  0
   38.9240   27.3700   43.0840 C   0  0  0  0  0  0  0  0  0  0  0  0
   38.2820   26.7590   42.0390 C   0  0  0  0  0  0  0  0  0  0  0  0
   38.5020   25.4530   41.8590 N   0  0  0  0  0  0  0  0  0  0  0  0
   39.3100   24.7280   42.6420 C   0  0  0  0  0  0  0  0  0  0  0  0
   39.9600   25.2990   43.6810 N   0  0  0  0  0  0  0  0  0  0  0  0
   40.2440   27.1730   44.7140 H   0  0  0  0  0  0  0  0  0  0  0  0
   38.7590   28.4320   43.2470 H   0  0  0  0  0  0  0  0  0  0  0  0
   39.4980   23.6710   42.5080 H   0  0  0  0  0  0  0  0  0  0  0  0
   38.6580   30.0630   37.9380 O   0  0  0  0  0  0  0  0  0  0  0  0
   37.7370   32.4900   38.5450 O   0  0  0  0  0  0  0  0  0  0  0  0
   39.0020   31.6760   38.2370 P   0  0  2  0  0  0  0  0  0  0  0  0
   39.5380   32.3160   36.7320 O   0  0  0  0  0  0  0  0  0  0  0  0
   40.5030   32.2020   36.6330 H   0  0  0  0  0  0  0  0  0  0  0  0
   40.2130   31.9120   39.3550 O   0  0  0  0  0  0  0  0  0  0  0  0
   40.3160   33.2680   39.6260 C   0  0  0  0  0  0  0  0  0  0  0  0
   40.0130   33.8800   38.7340 H   0  0  0  0  0  0  0  0  0  0  0  0
   39.7020   33.5570   40.4920 H   0  0  0  0  0  0  0  0  0  0  0  0
   41.7150   33.5570   39.8810 N   0  0  0  0  0  0  0  0  0  0  0  0
   42.3580   33.4510   41.0560 C   0  0  0  0  0  3  0  0  0  0  0  0
   43.7040   33.7620   41.1530 C   0  0  0  0  0  0  0  0  0  0  0  0
   44.1960   33.6680   42.1080 H   0  0  0  0  0  0  0  0  0  0  0  0
   44.4190   34.1920   40.0420 C   0  0  0  0  0  0  0  0  0  0  0  0
   45.6390   34.4770   40.1180 O   0  0  0  0  0  0  0  0  0  0  0  0
   43.7370   34.2840   38.8910 N   0  0  0  0  0  0  0  0  0  0  0  0
   42.4290   33.9790   38.8050 C   0  0  0  0  0  0  0  0  0  0  0  0
   41.9270   34.1120   37.6680 O   0  0  0  0  0  0  0  0  0  0  0  0
   44.3070   34.6100   38.0740 H   0  0  0  0  0  0  0  0  0  0  0  0
  1 16  1  0  0  0  0
  2  1  1  0  0  0  0
  2  8  1  0  0  0  0
  3  2  1  0  0  0  0
  3  9  1  0  0  0  0
  4 11  1  0  0  0  0
  4  3  1  0  0  0  0
  5  4  1  0  0  0  0
  5  6  1  0  0  0  0
  6 15  1  1  0  0  0
  6  1  1  0  0  0  0
  7  2  1  0  0  0  0
 10  3  1  0  0  0  0
 12  4  1  0  0  0  0
 13  5  1  0  0  0  0
 14  5  1  0  0  0  0
 16 17  1  0  0  0  0
 16 19  1  0  0  0  0
 18 16  1  0  0  0  0
 19 21  1  0  0  0  0
 19 24  1  0  0  0  0
 20 19  1  0  0  0  0
 22 28  1  0  0  0  0
 23 29  1  0  0  0  0
 23 22  2  0  0  0  0
 24 23  1  0  0  0  0
 25 24  2  0  0  0  0
 25 26  1  0  0  0  0
 26 27  2  0  0  0  0
 27 22  1  0  0  0  0
 30 26  1  0  0  0  0
 31 33  1  0  0  0  0
 31  6  1  0  0  0  0
 33 32  2  1  0  0  0
 33 36  1  0  0  0  0
 34 33  1  0  0  0  0
 35 34  1  0  0  0  0
 36 37  1  0  0  0  0
 37 40  1  0  0  0  0
 37 39  1  0  0  0  0
 38 37  1  0  0  0  0
 40 41  1  0  0  0  0
 41 42  2  0  0  0  0
 42 43  1  0  0  0  0
 44 45  2  0  0  0  0
 44 42  1  0  0  0  0
 46 44  1  0  0  0  0
 47 46  1  0  0  0  0
 47 40  1  0  0  0  0
 48 47  2  0  0  0  0
 49 46  1  0  0  0  0
M  END
>  <minimizedAffinity>
-5.45813751

$$$$

 OpenBabel03252509063D

 49 51  0  0  1  0  0  0  0  0999 V2000
   37.4150   26.2270   41.6950 N   0  0  0  0  0  0  0  0  0  0  0  0
   38.0360   25.1350   42.3400 C   0  0  0  0  0  0  0  0  0  0  0  0
   39.3080   25.5010   43.0860 C   0  0  0  0  0  0  0  0  0  0  0  0
   39.2780   26.8710   43.7190 C   0  0  0  0  0  0  0  0  0  0  0  0
   37.9180   27.5240   43.5420 C   0  0  0  0  0  0  0  0  0  0  0  0
   37.7340   27.5320   41.9690 C   0  0  2  0  0  0  0  0  0  0  0  0
   37.3180   24.7370   43.0970 H   0  0  0  0  0  0  0  0  0  0  0  0
   38.2980   24.2830   41.7020 H   0  0  0  0  0  0  0  0  0  0  0  0
   40.2090   25.3630   42.4430 H   0  0  0  0  0  0  0  0  0  0  0  0
   39.4400   24.7680   43.9110 H   0  0  0  0  0  0  0  0  0  0  0  0
   40.0050   27.5060   43.1650 H   0  0  0  0  0  0  0  0  0  0  0  0
   39.6060   26.8780   44.7720 H   0  0  0  0  0  0  0  0  0  0  0  0
   37.9600   28.5580   43.9020 H   0  0  0  0  0  0  0  0  0  0  0  0
   37.1270   26.9170   43.9820 H   0  0  0  0  0  0  0  0  0  0  0  0
   38.6860   27.9000   41.5340 H   0  0  0  0  0  0  0  0  0  0  0  0
   36.8420   25.9060   40.4140 C   0  0  0  0  0  0  0  0  0  0  0  0
   36.1500   26.7350   40.1640 H   0  0  0  0  0  0  0  0  0  0  0  0
   36.2670   24.9660   40.5470 H   0  0  0  0  0  0  0  0  0  0  0  0
   37.9530   25.7760   39.4350 C   0  0  0  0  0  0  0  0  0  0  0  0
   38.0540   24.7300   39.0480 H   0  0  0  0  0  0  0  0  0  0  0  0
   38.9180   26.0550   39.8690 H   0  0  0  0  0  0  0  0  0  0  0  0
   36.0560   27.7010   36.8270 C   0  0  0  0  0  0  0  0  0  0  0  0
   36.3550   26.9090   37.9510 C   0  0  0  0  0  0  0  0  0  0  0  0
   37.6610   26.6120   38.2440 C   0  0  0  0  0  0  0  0  0  0  0  0
   38.6010   27.1020   37.4300 N   0  0  0  0  0  0  0  0  0  0  0  0
   38.3270   27.8560   36.3590 C   0  0  0  0  0  0  0  0  0  0  0  0
   37.0510   28.1670   36.0410 N   0  0  0  0  0  0  0  0  0  0  0  0
   35.0040   27.8880   36.6660 H   0  0  0  0  0  0  0  0  0  0  0  0
   35.5740   26.5190   38.6010 H   0  0  0  0  0  0  0  0  0  0  0  0
   39.0780   28.2590   35.6910 H   0  0  0  0  0  0  0  0  0  0  0  0
   36.6690   28.4020   41.8400 O   0  0  0  0  0  0  0  0  0  0  0  0
   38.2610   30.5400   41.8800 O   0  0  0  0  0  0  0  0  0  0  0  0
   37.1030   29.8600   41.1350 P   0  0  2  0  0  0  0  0  0  0  0  0
   35.7720   30.9160   41.4090 O   0  0  0  0  0  0  0  0  0  0  0  0
   35.1200   30.8420   40.6860 H   0  0  0  0  0  0  0  0  0  0  0  0
   37.3550   29.7660   39.4920 O   0  0  0  0  0  0  0  0  0  0  0  0
   37.0530   30.9940   38.9220 C   0  0  0  0  0  0  0  0  0  0  0  0
   36.5660   30.8620   37.9190 H   0  0  0  0  0  0  0  0  0  0  0  0
   36.3970   31.5940   39.5700 H   0  0  0  0  0  0  0  0  0  0  0  0
   38.3070   31.6880   38.6930 N   0  0  0  0  0  0  0  0  0  0  0  0
   39.3160   31.2870   37.9000 C   0  0  0  0  0  3  0  0  0  0  0  0
   40.4620   32.0560   37.7760 C   0  0  0  0  0  0  0  0  0  0  0  0
   41.2560   31.7110   37.1330 H   0  0  0  0  0  0  0  0  0  0  0  0
   40.5950   33.2540   38.4660 C   0  0  0  0  0  0  0  0  0  0  0  0
   41.6290   33.9580   38.3610 O   0  0  0  0  0  0  0  0  0  0  0  0
   39.5650   33.6140   39.2450 N   0  0  0  0  0  0  0  0  0  0  0  0
   38.4550   32.8620   39.3600 C   0  0  0  0  0  0  0  0  0  0  0  0
   37.5780   33.3240   40.1220 O   0  0  0  0  0  0  0  0  0  0  0  0
   39.6990   34.5220   39.7500 H   0  0  0  0  0  0  0  0  0  0  0  0
  1  6  1  0  0  0  0
  1  2  1  0  0  0  0
  2  3  1  0  0  0  0
  2  7  1  0  0  0  0
  3  4  1  0  0  0  0
  3 10  1  0  0  0  0
  4 12  1  0  0  0  0
  5  4  1  0  0  0  0
  5 13  1  0  0  0  0
  5 14  1  0  0  0  0
  6 15  1  6  0  0  0
  6  5  1  0  0  0  0
  8  2  1  0  0  0  0
  9  3  1  0  0  0  0
 11  4  1  0  0  0  0
 16 18  1  0  0  0  0
 16  1  1  0  0  0  0
 17 16  1  0  0  0  0
 19 21  1  0  0  0  0
 19 16  1  0  0  0  0
 20 19  1  0  0  0  0
 22 23  1  0  0  0  0
 23 24  2  0  0  0  0
 23 29  1  0  0  0  0
 24 19  1  0  0  0  0
 25 24  1  0  0  0  0
 26 25  2  0  0  0  0
 27 26  1  0  0  0  0
 27 22  2  0  0  0  0
 28 22  1  0  0  0  0
 30 26  1  0  0  0  0
 31  6  1  0  0  0  0
 33 34  1  0  0  0  0
 33 31  1  0  0  0  0
 33 32  2  1  0  0  0
 35 34  1  0  0  0  0
 36 33  1  0  0  0  0
 37 36  1  0  0  0  0
 37 39  1  0  0  0  0
 38 37  1  0  0  0  0
 40 37  1  0  0  0  0
 40 47  1  0  0  0  0
 41 40  1  0  0  0  0
 42 41  2  0  0  0  0
 42 44  1  0  0  0  0
 43 42  1  0  0  0  0
 44 46  1  0  0  0  0
 45 44  2  0  0  0  0
 46 47  1  0  0  0  0
 46 49  1  0  0  0  0
 47 48  2  0  0  0  0
M  END
>  <minimizedAffinity>
-5.45647955

$$$$

 OpenBabel03252509063D

 49 51  0  0  1  0  0  0  0  0999 V2000
   38.1780   25.9200   40.0060 N   0  0  0  0  0  0  0  0  0  0  0  0
   38.3310   24.6490   39.4080 C   0  0  0  0  0  0  0  0  0  0  0  0
   38.5650   23.5240   40.4010 C   0  0  0  0  0  0  0  0  0  0  0  0
   37.8260   23.6910   41.7070 C   0  0  0  0  0  0  0  0  0  0  0  0
   36.9280   24.9150   41.6730 C   0  0  0  0  0  0  0  0  0  0  0  0
   37.9420   26.0860   41.3470 C   0  0  2  0  0  0  0  0  0  0  0  0
   37.3820   24.4140   38.8670 H   0  0  0  0  0  0  0  0  0  0  0  0
   39.1280   24.5610   38.6620 H   0  0  0  0  0  0  0  0  0  0  0  0
   39.6550   23.3470   40.5630 H   0  0  0  0  0  0  0  0  0  0  0  0
   38.1950   22.5820   39.9400 H   0  0  0  0  0  0  0  0  0  0  0  0
   38.5880   23.8840   42.4940 H   0  0  0  0  0  0  0  0  0  0  0  0
   37.2810   22.7870   42.0230 H   0  0  0  0  0  0  0  0  0  0  0  0
   36.4980   25.0810   42.6660 H   0  0  0  0  0  0  0  0  0  0  0  0
   36.2000   24.8500   40.8630 H   0  0  0  0  0  0  0  0  0  0  0  0
   38.8180   25.9500   42.0130 H   0  0  0  0  0  0  0  0  0  0  0  0
   38.7860   26.9950   39.2670 C   0  0  0  0  0  0  0  0  0  0  0  0
   39.7740   26.6230   38.9300 H   0  0  0  0  0  0  0  0  0  0  0  0
   38.9260   27.8340   39.9810 H   0  0  0  0  0  0  0  0  0  0  0  0
   37.8880   27.3380   38.1330 C   0  0  0  0  0  0  0  0  0  0  0  0
   36.8100   27.1700   38.3830 H   0  0  0  0  0  0  0  0  0  0  0  0
   38.1110   26.7450   37.2400 H   0  0  0  0  0  0  0  0  0  0  0  0
   39.3620   30.7620   37.6700 C   0  0  0  0  0  0  0  0  0  0  0  0
   39.2300   29.3890   37.9500 C   0  0  0  0  0  0  0  0  0  0  0  0
   38.0040   28.7870   37.8330 C   0  0  0  0  0  0  0  0  0  0  0  0
   36.9760   29.5520   37.4510 N   0  0  0  0  0  0  0  0  0  0  0  0
   37.0910   30.8580   37.1830 C   0  0  0  0  0  0  0  0  0  0  0  0
   38.2850   31.4830   37.2890 N   0  0  0  0  0  0  0  0  0  0  0  0
   40.3600   31.1580   37.7860 H   0  0  0  0  0  0  0  0  0  0  0  0
   40.0790   28.7840   38.2600 H   0  0  0  0  0  0  0  0  0  0  0  0
   36.2690   31.4890   36.8730 H   0  0  0  0  0  0  0  0  0  0  0  0
   37.1630   27.1900   41.6390 O   0  0  0  0  0  0  0  0  0  0  0  0
   38.5810   27.0810   43.8940 O   0  0  0  0  0  0  0  0  0  0  0  0
   37.6130   27.9400   43.0690 P   0  0  2  0  0  0  0  0  0  0  0  0
   36.1870   27.9790   44.0330 O   0  0  0  0  0  0  0  0  0  0  0  0
   35.6720   28.7890   43.8530 H   0  0  0  0  0  0  0  0  0  0  0  0
   38.1420   29.5060   42.8720 O   0  0  0  0  0  0  0  0  0  0  0  0
   38.7720   29.6150   41.6410 C   0  0  0  0  0  0  0  0  0  0  0  0
   39.8700   29.4030   41.7320 H   0  0  0  0  0  0  0  0  0  0  0  0
   38.3300   28.9360   40.8970 H   0  0  0  0  0  0  0  0  0  0  0  0
   38.6430   30.9930   41.2060 N   0  0  0  0  0  0  0  0  0  0  0  0
   39.6080   31.9300   41.2010 C   0  0  0  0  0  3  0  0  0  0  0  0
   39.3400   33.2130   40.7550 C   0  0  0  0  0  0  0  0  0  0  0  0
   40.1320   33.9460   40.7610 H   0  0  0  0  0  0  0  0  0  0  0  0
   38.0730   33.5630   40.3060 C   0  0  0  0  0  0  0  0  0  0  0  0
   37.8200   34.7240   39.8990 O   0  0  0  0  0  0  0  0  0  0  0  0
   37.1430   32.5990   40.3290 N   0  0  0  0  0  0  0  0  0  0  0  0
   37.4100   31.3530   40.7640 C   0  0  0  0  0  0  0  0  0  0  0  0
   36.4440   30.5600   40.7280 O   0  0  0  0  0  0  0  0  0  0  0  0
   36.1990   32.8970   39.9840 H   0  0  0  0  0  0  0  0  0  0  0  0
  1  6  1  0  0  0  0
  2  1  1  0  0  0  0
  2  3  1  0  0  0  0
  3  9  1  0  0  0  0
  3  4  1  0  0  0  0
  4 12  1  0  0  0  0
  4 11  1  0  0  0  0
  5  4  1  0  0  0  0
  5 13  1  0  0  0  0
  6 31  1  0  0  0  0
  6  5  1  0  0  0  0
  6 15  1  1  0  0  0
  7  2  1  0  0  0  0
  8  2  1  0  0  0  0
 10  3  1  0  0  0  0
 14  5  1  0  0  0  0
 16 18  1  0  0  0  0
 16  1  1  0  0  0  0
 17 16  1  0  0  0  0
 19 20  1  0  0  0  0
 19 16  1  0  0  0  0
 21 19  1  0  0  0  0
 22 28  1  0  0  0  0
 22 23  1  0  0  0  0
 23 29  1  0  0  0  0
 24 23  2  0  0  0  0
 24 19  1  0  0  0  0
 25 24  1  0  0  0  0
 26 27  1  0  0  0  0
 26 25  2  0  0  0  0
 27 22  2  0  0  0  0
 30 26  1  0  0  0  0
 31 33  1  0  0  0  0
 33 32  2  1  0  0  0
 33 34  1  0  0  0  0
 35 34  1  0  0  0  0
 36 33  1  0  0  0  0
 37 38  1  0  0  0  0
 37 36  1  0  0  0  0
 39 37  1  0  0  0  0
 40 37  1  0  0  0  0
 41 40  1  0  0  0  0
 42 43  1  0  0  0  0
 42 41  2  0  0  0  0
 44 46  1  0  0  0  0
 44 42  1  0  0  0  0
 45 44  2  0  0  0  0
 46 47  1  0  0  0  0
 47 40  1  0  0  0  0
 48 47  2  0  0  0  0
 49 46  1  0  0  0  0
M  END
>  <minimizedAffinity>
-5.4343214

$$$$
