
     RDKit          3D

 49 54  0  0  0  0  0  0  0  0999 V2000
   46.6759   33.4582   43.0925 C   0  0  1  0  0  0  0  0  0  0  0  0
   46.9685   34.8251   42.6713 C   0  0  0  0  0  0  0  0  0  0  0  0
   48.0885   33.8516   42.6858 C   0  0  2  0  0  0  0  0  0  0  0  0
   48.5232   33.2961   41.3782 C   0  0  0  0  0  0  0  0  0  0  0  0
   49.3503   32.2033   41.2288 C   0  0  0  0  0  0  0  0  0  0  0  0
   49.7122   31.7497   39.9740 C   0  0  0  0  0  0  0  0  0  0  0  0
   49.2522   32.3828   38.8488 C   0  0  0  0  0  0  0  0  0  0  0  0
   49.5894   31.9544   37.6028 N   0  0  0  0  0  0  0  0  0  0  0  0
   49.1152   32.6004   36.5029 C   0  0  0  0  0  0  0  0  0  0  0  0
   48.2634   33.7300   36.5599 C   0  0  0  0  0  0  0  0  0  0  0  0
   47.9173   34.1698   37.8136 C   0  0  0  0  0  0  0  0  0  0  0  0
   48.4149   33.4918   38.9415 C   0  0  0  0  0  0  0  0  0  0  0  0
   48.0764   33.9142   40.2096 C   0  0  0  0  0  0  0  0  0  0  0  0
   45.5457   33.9430   45.2942 C   0  0  0  0  0  0  0  0  0  0  0  0
   46.4673   33.1424   44.5373 C   0  0  0  0  0  0  0  0  0  0  0  0
   47.1223   32.1266   45.1842 C   0  0  0  0  0  0  0  0  0  0  0  0
   46.8540   31.9436   46.5086 N   0  0  0  0  0  0  0  0  0  0  0  0
   45.9797   32.7094   47.2119 C   0  0  0  0  0  0  0  0  0  0  0  0
   45.3270   33.7091   46.5993 N   0  0  0  0  0  0  0  0  0  0  0  0
   45.7798   32.3996   48.6502 C   0  0  2  0  0  0  0  0  0  0  0  0
   46.2808   31.1709   49.2451 C   0  0  0  0  0  0  0  0  0  0  0  0
   44.8098   31.2039   48.9005 C   0  0  1  0  0  0  0  0  0  0  0  0
   46.1718   32.7441   42.4182 H   0  0  0  0  0  0  0  0  0  0  0  0
   46.9324   35.5939   43.5125 H   0  0  0  0  0  0  0  0  0  0  0  0
   46.4358   35.1904   41.8028 H   0  0  0  0  0  0  0  0  0  0  0  0
   48.8265   33.9142   43.5193 H   0  0  0  0  0  0  0  0  0  0  0  0
   49.7080   31.7112   42.1080 H   0  0  0  0  0  0  0  0  0  0  0  0
   50.3707   30.8788   39.8732 H   0  0  0  0  0  0  0  0  0  0  0  0
   49.3843   32.2582   35.5125 H   0  0  0  0  0  0  0  0  0  0  0  0
   47.9357   34.1793   35.6383 H   0  0  0  0  0  0  0  0  0  0  0  0
   47.2692   35.0285   37.9163 H   0  0  0  0  0  0  0  0  0  0  0  0
   47.4309   34.7823   40.2015 H   0  0  0  0  0  0  0  0  0  0  0  0
   45.0495   34.7374   44.7377 H   0  0  0  0  0  0  0  0  0  0  0  0
   47.8109   31.5147   44.6543 H   0  0  0  0  0  0  0  0  0  0  0  0
   45.5310   33.3010   49.2497 H   0  0  0  0  0  0  0  0  0  0  0  0
   46.8747   30.4460   48.6589 H   0  0  0  0  0  0  0  0  0  0  0  0
   46.6042   31.2380   50.3090 H   0  0  0  0  0  0  0  0  0  0  0  0
   44.4583   30.6590   48.0251 H   0  0  0  0  0  0  0  0  0  0  0  0
   43.9466   31.2880   50.0627 N   0  0  0  0  0  0  0  0  0  0  0  0
   42.8376   30.5095   50.1779 C   0  0  0  0  0  0  0  0  0  0  0  0
   41.9880   30.5559   51.2651 C   0  0  0  0  0  0  0  0  0  0  0  0
   41.1160   29.9234   51.3240 H   0  0  0  0  0  0  0  0  0  0  0  0
   42.2883   31.4399   52.2800 C   0  0  0  0  0  0  0  0  0  0  0  0
   41.5402   31.5046   53.2745 O   0  0  0  0  0  0  0  0  0  0  0  0
   43.3838   32.2091   52.1666 N   0  0  0  0  0  0  0  0  0  0  0  0
   44.1785   32.1271   51.0894 C   0  0  0  0  0  0  0  0  0  0  0  0
   45.1851   32.8835   51.0622 O   0  0  0  0  0  0  0  0  0  0  0  0
   42.5900   29.8064   49.3809 H   0  0  0  0  0  0  0  0  0  0  0  0
   43.6191   32.8857   52.9368 H   0  0  0  0  0  0  0  0  0  0  0  0
  1 15  1  0
  2  3  1  0
  2  1  1  0
  3  1  1  0
  4  3  1  0
  5  4  2  0
  6  5  1  0
  7 12  1  0
  7  6  2  0
  8  7  1  0
  9 10  1  0
  9  8  2  0
 10 11  2  0
 11 12  1  0
 12 13  2  0
 13  4  1  0
 14 19  2  0
 15 16  2  0
 15 14  1  0
 16 17  1  0
 17 18  2  0
 18 20  1  0
 19 18  1  0
 20 22  1  0
 20 21  1  0
 22 21  1  0
  1 23  1  6
  2 24  1  0
  2 25  1  0
  3 26  1  1
  5 27  1  0
  6 28  1  0
  9 29  1  0
 10 30  1  0
 11 31  1  0
 13 32  1  0
 14 33  1  0
 16 34  1  0
 20 35  1  1
 21 36  1  0
 21 37  1  0
 22 38  1  6
 39 40  1  0
 40 41  2  0
 41 42  1  0
 41 43  1  0
 43 44  2  0
 43 45  1  0
 45 46  1  0
 46 47  2  0
 46 39  1  0
 40 48  1  0
 45 49  1  0
 22 39  1  0
M  ISO  8  23  13  24  13  25  13  26  13  27  14  28  14  29  14  30  14
M  ISO  8  31  14  32  14  33  14  34  14  35  13  36  13  37  13  38  13
M  ISO  1  42  16
M  END
>  <DihAtoms>  (1) 
19,21,38,39

>  <DihDeg>  (1) 
71.9094697167439

$$$$
