
 OpenBabel03242521243D

 43 46  0  0  0  0  0  0  0  0999 V2000
   45.3510   33.7550   45.5960 C   0  0  0  0  0  0  0  0  0  0  0  0
   44.8270   34.9920   45.8440 C   0  0  0  0  0  0  0  0  0  0  0  0
   44.4080   35.8610   44.8640 C   0  0  0  0  0  0  0  0  0  0  0  0
   44.5410   35.4220   43.5920 N   0  0  0  0  0  0  0  0  0  0  0  0
   45.0580   34.2010   43.3430 C   0  0  0  0  0  0  0  0  0  0  0  0
   45.4670   33.3530   44.3170 N   0  0  0  0  0  0  0  0  0  0  0  0
   44.7140   35.3560   46.8640 H   0  0  0  0  0  0  0  0  0  0  0  0
   43.9910   36.8430   45.0430 H   0  0  0  0  0  0  0  0  0  0  0  0
   45.5210   32.1340   48.8700 C   0  0  0  0  0  0  0  0  0  0  0  0
   46.5780   31.2340   48.6880 C   0  0  0  0  0  0  0  0  0  0  0  0
   47.2260   31.1760   47.4680 C   0  0  0  0  0  0  0  0  0  0  0  0
   46.8020   32.0160   46.4700 N   0  0  0  0  0  0  0  0  0  0  0  0
   45.7760   32.8820   46.6690 C   0  0  0  0  0  0  0  0  0  0  0  0
   45.1510   32.9270   47.8640 N   0  0  0  0  0  0  0  0  0  0  0  0
   44.9750   32.2260   49.8020 H   0  0  0  0  0  0  0  0  0  0  0  0
   46.8620   30.5960   49.5250 H   0  0  0  0  0  0  0  0  0  0  0  0
   48.2790   30.2670   47.3150 N   0  0  0  0  0  0  0  0  0  0  0  0
   48.4160   29.8080   46.0370 C   0  0  0  0  0  0  0  0  0  0  0  0
   49.4320   28.8930   45.7490 C   0  0  0  0  0  0  0  0  0  0  0  0
   49.6010   28.4870   44.7640 H   0  0  0  0  0  0  0  0  0  0  0  0
   50.2380   28.5140   46.8010 C   0  0  0  0  0  0  0  0  0  0  0  0
   51.1670   27.6850   46.5680 O   0  0  0  0  0  0  0  0  0  0  0  0
   50.0610   28.9960   48.0480 N   0  0  0  0  0  0  0  0  0  0  0  0
   49.0770   29.8790   48.3090 C   0  0  0  0  0  0  0  0  0  0  0  0
   48.8860   30.3490   49.4640 O   0  0  0  0  0  0  0  0  0  0  0  0
   50.7090   28.6710   48.8140 H   0  0  0  0  0  0  0  0  0  0  0  0
   45.1990   33.7310   41.9440 C   0  0  0  0  0  0  0  0  0  0  0  0
   44.2220   32.9490   41.3920 C   0  0  0  0  0  0  0  0  0  0  0  0
   44.2520   32.4550   40.0940 C   0  0  0  0  0  0  0  0  0  0  0  0
   45.3620   32.7960   39.3330 C   0  0  0  0  0  0  0  0  0  0  0  0
   46.3380   33.5730   39.8740 C   0  0  0  0  0  0  0  0  0  0  0  0
   46.2880   34.0560   41.1710 C   0  0  0  0  0  0  0  0  0  0  0  0
   43.3320   32.6520   41.9420 H   0  0  0  0  0  0  0  0  0  0  0  0
   43.4680   31.8370   39.6770 H   0  0  0  0  0  0  0  0  0  0  0  0
   45.4920   32.4700   38.3160 H   0  0  0  0  0  0  0  0  0  0  0  0
   47.2260   33.8660   39.3160 H   0  0  0  0  0  0  0  0  0  0  0  0
   47.2640   34.8460   41.7460 O   0  0  0  0  0  0  0  0  0  0  0  0
   49.6730   35.5280   42.4970 O   0  0  0  0  0  0  0  0  0  0  0  0
   48.9000   34.8870   41.3470 P   0  0  0  0  0  0  0  0  0  0  0  0
   49.5530   33.3840   40.9790 O   0  0  0  0  0  0  0  0  0  0  0  0
   48.8570   32.7090   40.7290 H   0  0  0  0  0  0  0  0  0  0  0  0
   49.1060   35.8800   39.9920 O   0  0  0  0  0  0  0  0  0  0  0  0
   49.6690   35.4680   39.2930 H   0  0  0  0  0  0  0  0  0  0  0  0
  1  2  1  0  0  0  0
  1 13  1  0  0  0  0
  2  7  1  0  0  0  0
  3  8  1  0  0  0  0
  3  2  2  0  0  0  0
  4  3  1  0  0  0  0
  5  4  2  0  0  0  0
  5  6  1  0  0  0  0
  6  1  2  0  0  0  0
  9 15  1  0  0  0  0
 10  9  1  0  0  0  0
 10 16  1  0  0  0  0
 11 10  2  0  0  0  0
 12 13  2  0  0  0  0
 12 11  1  0  0  0  0
 13 14  1  0  0  0  0
 14  9  2  0  0  0  0
 17 11  1  0  0  0  0
 17 24  1  0  0  0  0
 18 17  1  0  0  0  0
 19 18  2  0  0  0  0
 19 21  1  0  0  0  0
 20 19  1  0  0  0  0
 21 23  1  0  0  0  0
 22 21  2  0  0  0  0
 23 24  1  0  0  0  0
 23 26  1  0  0  0  0
 24 25  2  0  0  0  0
 27  5  1  0  0  0  0
 28 33  1  0  0  0  0
 28 27  1  0  0  0  0
 29 28  2  0  0  0  0
 30 31  2  0  0  0  0
 30 29  1  0  0  0  0
 31 32  1  0  0  0  0
 32 37  1  0  0  0  0
 32 27  2  0  0  0  0
 34 29  1  0  0  0  0
 35 30  1  0  0  0  0
 36 31  1  0  0  0  0
 39 37  1  0  0  0  0
 39 38  2  0  0  0  0
 40 39  1  0  0  0  0
 41 40  1  0  0  0  0
 42 39  1  0  0  0  0
 43 42  1  0  0  0  0
M  END
>  <minimizedAffinity>
-7.02053928

>  <minimizedRMSD>
0.491755366

$$$$
