
 OpenBabel03252505363D

 34 36  0  0  0  0  0  0  0  0999 V2000
   45.9040   32.9350   46.9490 C   0  0  0  0  0  0  0  0  0  0  0  0
   46.2160   32.7380   45.5830 C   0  0  0  0  0  0  0  0  0  0  0  0
   46.7480   31.5270   45.2020 C   0  0  0  0  0  0  0  0  0  0  0  0
   46.9410   30.5950   46.1520 N   0  0  0  0  0  0  0  0  0  0  0  0
   46.6350   30.8090   47.4600 C   0  0  0  0  0  0  0  0  0  0  0  0
   46.1180   31.9740   47.8540 N   0  0  0  0  0  0  0  0  0  0  0  0
   46.8690   29.7980   48.4380 N   0  0  0  0  0  0  0  0  0  0  0  0
   45.4850   33.8500   47.3450 H   0  0  0  0  0  0  0  0  0  0  0  0
   47.9170   29.9160   48.5670 H   0  0  0  0  0  0  0  0  0  0  0  0
   45.9610   29.3220   48.6670 H   0  0  0  0  0  0  0  0  0  0  0  0
   47.0960   31.2100   43.8540 C   0  0  0  0  0  0  0  0  0  0  0  0
   48.4270   31.3800   43.4700 C   0  0  0  0  0  0  0  0  0  0  0  0
   48.8830   31.0940   42.1850 C   0  0  0  0  0  0  0  0  0  0  0  0
   47.9940   30.6240   41.2530 C   0  0  0  0  0  0  0  0  0  0  0  0
   46.6830   30.4500   41.6140 C   0  0  0  0  0  0  0  0  0  0  0  0
   46.2360   30.7390   42.8970 C   0  0  0  0  0  0  0  0  0  0  0  0
   49.1530   31.7530   44.1940 H   0  0  0  0  0  0  0  0  0  0  0  0
   49.9260   31.2390   41.9250 H   0  0  0  0  0  0  0  0  0  0  0  0
   48.2750   30.3790   40.2320 H   0  0  0  0  0  0  0  0  0  0  0  0
   45.9490   30.0840   40.9130 H   0  0  0  0  0  0  0  0  0  0  0  0
   44.8240   30.5380   43.2850 C   0  0  0  0  0  0  0  0  0  0  0  0
   44.2370   29.7010   42.3370 F   0  0  0  0  0  0  0  0  0  0  0  0
   44.1730   31.7540   43.3150 F   0  0  0  0  0  0  0  0  0  0  0  0
   44.6500   29.9750   44.5280 F   0  0  0  0  0  0  0  0  0  0  0  0
   45.9330   33.8770   44.7880 N   0  0  0  0  0  0  0  0  0  0  0  0
   46.4170   34.2280   43.5870 C   0  0  0  0  0  3  0  0  0  0  0  0
   46.0900   35.3540   42.9020 C   0  0  0  0  0  0  0  0  0  0  0  0
   46.5400   35.5430   41.9380 H   0  0  0  0  0  0  0  0  0  0  0  0
   45.1850   36.2420   43.4460 C   0  0  0  0  0  0  0  0  0  0  0  0
   44.8400   37.3000   42.8640 O   0  0  0  0  0  0  0  0  0  0  0  0
   44.6780   35.9260   44.6460 N   0  0  0  0  0  0  0  0  0  0  0  0
   45.0430   34.7980   45.2700 C   0  0  0  0  0  0  0  0  0  0  0  0
   44.4800   34.6260   46.4040 O   0  0  0  0  0  0  0  0  0  0  0  0
   43.9990   36.5950   45.0520 H   0  0  0  0  0  0  0  0  0  0  0  0
  1  8  1  0  0  0  0
  1  6  1  0  0  0  0
  2  1  2  0  0  0  0
  3  2  1  0  0  0  0
  3  4  2  0  0  0  0
  4  5  1  0  0  0  0
  5  6  2  0  0  0  0
  5  7  1  0  0  0  0
  7  9  1  0  0  0  0
  7 10  1  0  0  0  0
 11  3  1  0  0  0  0
 12 11  1  0  0  0  0
 12 17  1  0  0  0  0
 13 12  2  0  0  0  0
 14 15  2  0  0  0  0
 14 13  1  0  0  0  0
 15 16  1  0  0  0  0
 16 21  1  0  0  0  0
 16 11  2  0  0  0  0
 18 13  1  0  0  0  0
 19 14  1  0  0  0  0
 20 15  1  0  0  0  0
 21 23  1  0  0  0  0
 21 24  1  0  0  0  0
 22 21  1  0  0  0  0
 25 32  1  0  0  0  0
 25  2  1  0  0  0  0
 26 25  1  0  0  0  0
 27 29  1  0  0  0  0
 27 26  2  0  0  0  0
 28 27  1  0  0  0  0
 29 31  1  0  0  0  0
 30 29  2  0  0  0  0
 31 34  1  0  0  0  0
 31 32  1  0  0  0  0
 32 33  2  0  0  0  0
M  END
>  <minimizedAffinity>
-5.00835943

>  <minimizedRMSD>
4.12551212

$$$$
