REMARK  Name = 
REMARK  3 active torsions:
REMARK  status: ('A' for Active; 'I' for Inactive)
REMARK    1  A    between atoms: C_1  and  C_2
REMARK    2  A    between atoms: C_1  and  C_14
REMARK    3  A    between atoms: C_13  and  C_15
REMARK                            x       y       z     vdW  Elec       q    Type
REMARK                         _______ _______ _______ _____ _____    ______ ____
ROOT
ATOM      1  C   UNL     1      45.676  32.937  46.736  0.00  0.00    +0.000 C 
ATOM      2  H   UNL     1      45.334  33.878  47.219  0.00  0.00    +0.000 HD
ATOM      3  H   UNL     1      44.770  32.357  46.471  0.00  0.00    +0.000 HD
ENDROOT
BRANCH   1   4
ATOM      4  C   UNL     1      46.402  32.162  47.788  0.00  0.00    +0.000 A 
ATOM      5  C   UNL     1      45.935  31.835  49.034  0.00  0.00    +0.000 A 
ATOM      6  N   UNL     1      46.906  31.148  49.626  0.00  0.00    +0.000 N 
ATOM      7  C   UNL     1      47.965  31.017  48.832  0.00  0.00    +0.000 A 
ATOM      8  N   UNL     1      47.641  31.656  47.677  0.00  0.00    +0.000 NA
ATOM      9  N   UNL     1      49.220  30.379  49.011  0.00  0.00    +0.000 N 
ATOM     10  C   UNL     1      50.319  31.145  49.601  0.00  0.00    +0.000 C 
ATOM     11  C   UNL     1      50.419  30.637  51.036  0.00  0.00    +0.000 C 
ATOM     12  C   UNL     1      50.421  29.126  51.053  0.00  0.00    +0.000 C 
ATOM     13  C   UNL     1      50.750  28.608  49.660  0.00  0.00    +0.000 C 
ATOM     14  C   UNL     1      49.656  29.034  48.706  0.00  0.00    +0.000 C 
ATOM     15  H   UNL     1      44.958  32.087  49.466  0.00  0.00    +0.000 HD
ATOM     16  H   UNL     1      46.862  30.751  50.599  0.00  0.00    +0.000 HD
ATOM     17  H   UNL     1      50.091  32.223  49.599  0.00  0.00    +0.000 HD
ATOM     18  H   UNL     1      51.270  31.006  49.067  0.00  0.00    +0.000 HD
ATOM     19  H   UNL     1      49.559  31.050  51.593  0.00  0.00    +0.000 HD
ATOM     20  H   UNL     1      51.378  31.006  51.451  0.00  0.00    +0.000 HD
ATOM     21  H   UNL     1      51.068  28.698  51.816  0.00  0.00    +0.000 HD
ATOM     22  H   UNL     1      49.377  28.801  51.243  0.00  0.00    +0.000 HD
ATOM     23  H   UNL     1      50.687  27.491  49.736  0.00  0.00    +0.000 HD
ATOM     24  H   UNL     1      51.747  28.928  49.312  0.00  0.00    +0.000 HD
ATOM     25  H   UNL     1      48.828  28.319  48.642  0.00  0.00    +0.000 HD
ATOM     26  H   UNL     1      50.110  29.091  47.673  0.00  0.00    +0.000 HD
ENDBRANCH   1   4
BRANCH   1  28
ATOM     27  C   UNL     1      46.137  33.846  44.500  0.00  0.00    +0.000 C 
ATOM     28  C   UNL     1      46.539  33.180  45.572  0.00  0.00    +0.000 C 
BRANCH  27  29
ATOM     29  C   UNL     1      47.099  34.020  43.403  0.00  0.00    +0.000 A 
ATOM     30  C   UNL     1      46.890  34.972  42.384  0.00  0.00    +0.000 A 
ATOM     31  C   UNL     1      47.850  35.065  41.391  0.00  0.00    +0.000 A 
ATOM     32  N   UNL     1      48.922  34.266  41.428  0.00  0.00    +0.000 NA
ATOM     33  C   UNL     1      49.108  33.352  42.418  0.00  0.00    +0.000 A 
ATOM     34  N   UNL     1      48.203  33.248  43.375  0.00  0.00    +0.000 NA
ATOM     35  H   UNL     1      45.994  35.548  42.469  0.00  0.00    +0.000 HD
ATOM     36  H   UNL     1      47.654  35.800  40.636  0.00  0.00    +0.000 HD
ATOM     37  N   UNL     1      50.290  32.555  42.353  0.00  0.00    +0.000 N 
ATOM     38  C   UNL     1      51.183  32.508  43.356  0.00  0.00    +0.000 A 
ATOM     39  C   UNL     1      52.342  31.735  43.309  0.00  0.00    +0.000 A 
ATOM     40  H   UNL     1      53.055  31.702  44.119  0.00  0.00    +0.000 HD
ATOM     41  C   UNL     1      52.498  31.017  42.141  0.00  0.00    +0.000 A 
ATOM     42  O   UNL     1      53.535  30.284  42.021  0.00  0.00    +0.000 OA
ATOM     43  N   UNL     1      51.644  31.022  41.106  0.00  0.00    +0.000 N 
ATOM     44  C   UNL     1      50.564  31.807  41.273  0.00  0.00    +0.000 A 
ATOM     45  O   UNL     1      49.723  31.846  40.318  0.00  0.00    +0.000 OA
ATOM     46  H   UNL     1      51.798  30.464  40.238  0.00  0.00    +0.000 HD
ENDBRANCH  27  29
ENDBRANCH   1  28
TORSDOF 3
