
 OpenBabel03252503433D

 35 37  0  0  1  0  0  0  0  0999 V2000
   45.2920   34.6740   44.6980 C   0  0  0  0  0  0  0  0  0  0  0  0
   45.4980   34.0510   43.4570 C   0  0  0  0  0  0  0  0  0  0  0  0
   45.8280   32.6860   43.4680 C   0  0  0  0  0  0  0  0  0  0  0  0
   45.9290   32.0510   44.6500 N   0  0  0  0  0  0  0  0  0  0  0  0
   45.7260   32.6700   45.8190 C   0  0  0  0  0  0  0  0  0  0  0  0
   45.4030   33.9980   45.8630 N   0  0  0  0  0  0  0  0  0  0  0  0
   45.0340   35.7080   44.8670 H   0  0  0  0  0  0  0  0  0  0  0  0
   45.9820   32.2370   42.4970 H   0  0  0  0  0  0  0  0  0  0  0  0
   47.3020   31.8010   47.5490 C   0  0  2  0  0  0  0  0  0  0  0  0
   45.8480   31.8540   47.0260 C   0  0  1  0  0  0  0  0  0  0  0  0
   45.2110   32.3530   48.1290 O   0  0  0  0  0  0  0  0  0  0  0  0
   45.6810   31.6730   49.2150 C   0  0  0  0  0  0  0  0  0  0  0  0
   47.0070   31.0390   48.8520 C   0  0  2  0  0  0  0  0  0  0  0  0
   47.9620   31.2560   46.8780 H   0  0  0  0  0  0  0  0  0  0  0  0
   45.5570   30.8080   46.8000 H   0  0  0  0  0  0  0  0  0  0  0  0
   45.8230   32.2990   50.1200 H   0  0  0  0  0  0  0  0  0  0  0  0
   44.9710   30.8620   49.5190 H   0  0  0  0  0  0  0  0  0  0  0  0
   46.8700   29.9670   48.5620 H   0  0  0  0  0  0  0  0  0  0  0  0
   47.6840   33.0470   47.9230 O   0  0  0  0  0  0  0  0  0  0  0  0
   48.6900   33.0660   47.9780 H   0  0  0  0  0  0  0  0  0  0  0  0
   47.9860   31.1900   49.7990 O   0  0  0  0  0  0  0  0  0  0  0  0
   48.7960   31.5230   49.3650 H   0  0  0  0  0  0  0  0  0  0  0  0
   45.3390   34.9020   42.2610 C   0  0  0  0  0  0  0  0  0  0  0  0
   44.2610   34.9450   41.9330 H   0  0  0  0  0  0  0  0  0  0  0  0
   45.5920   35.9360   42.5320 H   0  0  0  0  0  0  0  0  0  0  0  0
   46.1080   34.4450   41.1360 N   0  0  0  0  0  0  0  0  0  0  0  0
   45.4490   33.6810   40.2400 C   0  0  0  0  0  0  0  0  0  0  0  0
   46.1980   33.2350   39.1470 C   0  0  0  0  0  0  0  0  0  0  0  0
   45.7150   32.6160   38.3930 H   0  0  0  0  0  0  0  0  0  0  0  0
   47.5310   33.5570   38.9950 C   0  0  0  0  0  0  0  0  0  0  0  0
   48.2280   33.1740   38.0270 O   0  0  0  0  0  0  0  0  0  0  0  0
   48.0560   34.3260   39.9650 N   0  0  0  0  0  0  0  0  0  0  0  0
   47.4020   34.7920   41.0460 C   0  0  0  0  0  0  0  0  0  0  0  0
   47.9760   35.5070   41.9070 O   0  0  0  0  0  0  0  0  0  0  0  0
   49.0760   34.6050   39.9030 H   0  0  0  0  0  0  0  0  0  0  0  0
  1  7  1  0  0  0  0
  1  6  1  0  0  0  0
  2  3  1  0  0  0  0
  2  1  2  0  0  0  0
  3  4  2  0  0  0  0
  4  5  1  0  0  0  0
  5  6  2  0  0  0  0
  5 10  1  0  0  0  0
  8  3  1  0  0  0  0
  9 14  1  6  0  0  0
  9 19  1  0  0  0  0
  9 13  1  0  0  0  0
 10 15  1  6  0  0  0
 10  9  1  0  0  0  0
 10 11  1  0  0  0  0
 11 12  1  0  0  0  0
 12 17  1  0  0  0  0
 12 16  1  0  0  0  0
 13 18  1  6  0  0  0
 13 12  1  0  0  0  0
 13 21  1  0  0  0  0
 19 20  1  0  0  0  0
 22 21  1  0  0  0  0
 23 25  1  0  0  0  0
 23  2  1  0  0  0  0
 24 23  1  0  0  0  0
 26 23  1  0  0  0  0
 27 26  1  0  0  0  0
 28 27  2  0  0  0  0
 29 28  1  0  0  0  0
 30 28  1  0  0  0  0
 30 32  1  0  0  0  0
 31 30  2  0  0  0  0
 32 33  1  0  0  0  0
 33 26  1  0  0  0  0
 33 34  2  0  0  0  0
 35 32  1  0  0  0  0
M  END
>  <minimizedAffinity>
-6.07840109

>  <minimizedRMSD>
3.7695086

$$$$
