
 OpenBabel03242521183D

 39 42  0  0  1  0  0  0  0  0999 V2000
   46.4770   32.9600   46.4760 C   0  0  0  0  0  0  0  0  0  0  0  0
   47.3470   33.4770   46.9780 H   0  0  0  0  0  0  0  0  0  0  0  0
   46.9360   32.1080   45.9280 H   0  0  0  0  0  0  0  0  0  0  0  0
   44.5210   35.6630   44.7750 C   0  0  0  0  0  0  0  0  0  0  0  0
   45.1170   35.6340   43.4940 C   0  0  0  0  0  0  0  0  0  0  0  0
   46.1300   34.7060   43.3060 C   0  0  0  0  0  0  0  0  0  0  0  0
   46.4990   33.8760   44.3510 N   0  0  0  0  0  0  0  0  0  0  0  0
   45.8960   33.9540   45.5410 C   0  0  0  0  0  0  0  0  0  0  0  0
   44.9040   34.8400   45.7750 N   0  0  0  0  0  0  0  0  0  0  0  0
   43.7310   36.3680   44.9670 H   0  0  0  0  0  0  0  0  0  0  0  0
   44.7530   36.3210   42.7620 H   0  0  0  0  0  0  0  0  0  0  0  0
   46.7500   34.6480   42.0170 N   0  0  0  0  0  0  0  0  0  0  0  0
   47.9630   35.2470   41.8790 C   0  0  0  0  0  0  0  0  0  0  0  0
   48.5680   35.1900   40.6200 C   0  0  0  0  0  0  0  0  0  0  0  0
   47.9250   34.5470   39.6080 C   0  0  0  0  0  0  0  0  0  0  0  0
   48.5030   34.5150   38.4790 O   0  0  0  0  0  0  0  0  0  0  0  0
   46.7340   33.9610   39.7520 N   0  0  0  0  0  0  0  0  0  0  0  0
   46.1620   34.0290   40.9840 C   0  0  0  0  0  0  0  0  0  0  0  0
   45.0570   33.5140   41.2170 O   0  0  0  0  0  0  0  0  0  0  0  0
   48.4450   35.7480   42.7050 H   0  0  0  0  0  0  0  0  0  0  0  0
   49.5330   35.6450   40.4410 H   0  0  0  0  0  0  0  0  0  0  0  0
   46.2360   33.4670   38.9810 H   0  0  0  0  0  0  0  0  0  0  0  0
   45.4520   32.5300   47.5090 C   0  0  0  0  0  0  0  0  0  0  0  0
   45.9180   32.5480   48.4900 H   0  0  0  0  0  0  0  0  0  0  0  0
   44.6520   33.3230   47.5270 H   0  0  0  0  0  0  0  0  0  0  0  0
   45.4740   30.0870   47.5800 C   0  0  1  0  0  0  0  0  0  0  0  0
   46.4650   30.2410   48.3690 O   0  0  0  0  0  0  0  0  0  0  0  0
   44.9240   31.2520   47.1430 N   0  0  0  0  0  0  0  0  0  0  0  0
   44.1260   31.0120   46.5550 H   0  0  0  0  0  0  0  0  0  0  0  0
   49.2320   27.9740   47.8460 H   0  0  0  0  0  0  0  0  0  0  0  0
   48.1620   28.0260   47.8190 N   0  0  0  0  0  0  0  0  0  0  0  0
   47.1100   28.9520   47.7150 C   0  0  1  0  0  0  0  0  0  0  0  0
   45.6260   28.7510   47.6990 C   0  0  1  0  0  0  0  0  0  0  0  0
   45.7700   27.4780   47.8130 C   0  0  0  0  0  0  0  0  0  0  0  0
   44.4500   27.3490   47.7940 O   0  0  0  0  0  0  0  0  0  0  0  0
   46.5070   26.4100   47.9210 N   0  0  0  0  0  0  0  0  0  0  0  0
   47.8380   26.7050   47.9260 C   0  0  0  0  0  0  0  0  0  0  0  0
   48.5180   25.6610   48.0310 O   0  0  0  0  0  0  0  0  0  0  0  0
   45.9990   25.5080   47.9880 H   0  0  0  0  0  0  0  0  0  0  0  0
  1  2  1  0  0  0  0
  1 23  1  0  0  0  0
  3  1  1  0  0  0  0
  4 10  1  0  0  0  0
  4  9  1  0  0  0  0
  5  4  2  0  0  0  0
  6  5  1  0  0  0  0
  6  7  2  0  0  0  0
  7  8  1  0  0  0  0
  8  9  2  0  0  0  0
  8  1  1  0  0  0  0
 11  5  1  0  0  0  0
 12  6  1  0  0  0  0
 13 12  1  0  0  0  0
 13 20  1  0  0  0  0
 14 13  2  0  0  0  0
 15 17  1  0  0  0  0
 15 14  1  0  0  0  0
 16 15  2  0  0  0  0
 17 18  1  0  0  0  0
 18 19  2  0  0  0  0
 18 12  1  0  0  0  0
 21 14  1  0  0  0  0
 22 17  1  0  0  0  0
 23 25  1  0  0  0  0
 23 24  1  0  0  0  0
 26 28  1  6  0  0  0
 26 33  1  0  0  0  0
 26 27  1  0  0  0  0
 28 23  1  0  0  0  0
 29 28  1  0  0  0  0
 31 30  1  0  0  0  0
 31 37  1  0  0  0  0
 32 31  1  0  0  0  0
 32 27  1  1  0  0  0
 33 32  1  0  0  0  0
 33 34  1  1  0  0  0
 34 36  1  0  0  0  0
 35 34  2  0  0  0  0
 36 37  1  0  0  0  0
 36 39  1  0  0  0  0
 37 38  2  0  0  0  0
M  END
>  <minimizedAffinity>
-6.46116924

>  <minimizedRMSD>
1.55898523

$$$$
