REMARK  Name = 
REMARK  2 active torsions:
REMARK  status: ('A' for Active; 'I' for Inactive)
REMARK    1  A    between atoms: C_1  and  C_7
REMARK    2  A    between atoms: C_8  and  C_9
REMARK                            x       y       z     vdW  Elec       q    Type
REMARK                         _______ _______ _______ _____ _____    ______ ____
ROOT
ATOM      1  C   UNL     1      44.682  35.525  43.598  0.00  0.00    +0.000 A 
ATOM      2  C   UNL     1      43.938  35.417  42.409  0.00  0.00    +0.000 A 
ATOM      3  C   UNL     1      43.783  34.165  41.831  0.00  0.00    +0.000 A 
ATOM      4  N   UNL     1      44.359  33.107  42.445  0.00  0.00    +0.000 NA
ATOM      5  C   UNL     1      45.069  33.234  43.588  0.00  0.00    +0.000 A 
ATOM      6  N   UNL     1      45.226  34.428  44.154  0.00  0.00    +0.000 NA
ATOM      7  H   UNL     1      43.528  36.327  42.014  0.00  0.00    +0.000 HD
ATOM      8  H   UNL     1      43.211  34.081  40.915  0.00  0.00    +0.000 HD
ATOM      9  N   UNL     1      45.607  32.022  44.101  0.00  0.00    +0.000 N 
ATOM     10  C   UNL     1      46.888  31.923  44.555  0.00  0.00    +0.000 A 
ATOM     11  C   UNL     1      47.384  30.731  45.048  0.00  0.00    +0.000 A 
ATOM     12  H   UNL     1      48.419  30.705  45.400  0.00  0.00    +0.000 HD
ATOM     13  C   UNL     1      46.571  29.617  45.085  0.00  0.00    +0.000 A 
ATOM     14  O   UNL     1      47.045  28.553  45.537  0.00  0.00    +0.000 OA
ATOM     15  N   UNL     1      45.300  29.763  44.622  0.00  0.00    +0.000 N 
ATOM     16  C   UNL     1      44.830  30.929  44.144  0.00  0.00    +0.000 A 
ATOM     17  O   UNL     1      43.621  30.903  43.749  0.00  0.00    +0.000 OA
ATOM     18  H   UNL     1      44.755  28.854  44.692  0.00  0.00    +0.000 HD
ENDROOT
BRANCH   1  19
ATOM     19  C   UNL     1      44.856  36.847  44.225  0.00  0.00    +0.000 C 
ATOM     20  C   UNL     1      45.236  37.840  43.431  0.00  0.00    +0.000 C 
BRANCH  20  21
ATOM     21  C   UNL     1      45.431  39.204  44.004  0.00  0.00    +0.000 C 
ATOM     22  H   UNL     1      45.315  39.925  43.147  0.00  0.00    +0.000 HD
ATOM     23  H   UNL     1      44.746  39.422  44.835  0.00  0.00    +0.000 HD
ATOM     24  H   UNL     1      46.468  39.280  44.385  0.00  0.00    +0.000 HD
ENDBRANCH  20  21
ENDBRANCH   1  19
TORSDOF 2
