
 OpenBabel03252509033D

 49 51  0  0  1  0  0  0  0  0999 V2000
   47.8090   34.1170   42.2840 N   0  0  0  0  0  0  0  0  0  0  0  0
   47.7540   34.6030   40.9590 C   0  0  0  0  0  0  0  0  0  0  0  0
   46.4960   34.2020   40.2060 C   0  0  0  0  0  0  0  0  0  0  0  0
   45.2590   34.1320   41.0680 C   0  0  0  0  0  0  0  0  0  0  0  0
   45.5540   34.5890   42.4860 C   0  0  0  0  0  0  0  0  0  0  0  0
   46.7140   33.6100   42.9360 C   0  0  2  0  0  0  0  0  0  0  0  0
   47.7610   35.7190   41.0090 H   0  0  0  0  0  0  0  0  0  0  0  0
   48.5920   34.3280   40.3090 H   0  0  0  0  0  0  0  0  0  0  0  0
   46.6530   33.2590   39.6310 H   0  0  0  0  0  0  0  0  0  0  0  0
   46.3060   34.9740   39.4300 H   0  0  0  0  0  0  0  0  0  0  0  0
   44.9670   33.0610   41.1390 H   0  0  0  0  0  0  0  0  0  0  0  0
   44.3920   34.6580   40.6360 H   0  0  0  0  0  0  0  0  0  0  0  0
   44.6750   34.4160   43.1160 H   0  0  0  0  0  0  0  0  0  0  0  0
   45.9350   35.6100   42.5010 H   0  0  0  0  0  0  0  0  0  0  0  0
   46.4050   32.5860   42.6420 H   0  0  0  0  0  0  0  0  0  0  0  0
   49.1220   33.7030   42.7050 C   0  0  0  0  0  0  0  0  0  0  0  0
   49.2190   34.0060   43.7670 H   0  0  0  0  0  0  0  0  0  0  0  0
   49.8490   34.2700   42.0870 H   0  0  0  0  0  0  0  0  0  0  0  0
   49.2200   32.2310   42.5210 C   0  0  0  0  0  0  0  0  0  0  0  0
   48.2290   31.7690   42.2870 H   0  0  0  0  0  0  0  0  0  0  0  0
   49.6090   31.7310   43.4140 H   0  0  0  0  0  0  0  0  0  0  0  0
   52.2710   31.5650   40.4340 C   0  0  0  0  0  0  0  0  0  0  0  0
   51.4370   31.8430   41.5320 C   0  0  0  0  0  0  0  0  0  0  0  0
   50.0820   31.9380   41.3490 C   0  0  0  0  0  0  0  0  0  0  0  0
   49.6140   31.7570   40.1090 N   0  0  0  0  0  0  0  0  0  0  0  0
   50.3990   31.4920   39.0580 C   0  0  0  0  0  0  0  0  0  0  0  0
   51.7390   31.3930   39.2040 N   0  0  0  0  0  0  0  0  0  0  0  0
   53.3260   31.5080   40.6630 H   0  0  0  0  0  0  0  0  0  0  0  0
   51.8370   31.9880   42.5330 H   0  0  0  0  0  0  0  0  0  0  0  0
   50.0350   31.3430   38.0500 H   0  0  0  0  0  0  0  0  0  0  0  0
   46.7270   33.8370   44.2990 O   0  0  0  0  0  0  0  0  0  0  0  0
   45.2460   31.6240   44.4320 O   0  0  0  0  0  0  0  0  0  0  0  0
   46.2650   32.4920   45.1860 P   0  0  2  0  0  0  0  0  0  0  0  0
   45.3640   33.1070   46.5170 O   0  0  0  0  0  0  0  0  0  0  0  0
   45.9550   33.3110   47.2670 H   0  0  0  0  0  0  0  0  0  0  0  0
   47.5420   31.6130   45.7920 O   0  0  0  0  0  0  0  0  0  0  0  0
   47.0440   30.5530   46.5360 C   0  0  0  0  0  0  0  0  0  0  0  0
   46.0370   30.8020   46.9650 H   0  0  0  0  0  0  0  0  0  0  0  0
   46.9680   29.6350   45.9350 H   0  0  0  0  0  0  0  0  0  0  0  0
   47.9420   30.3480   47.6580 N   0  0  0  0  0  0  0  0  0  0  0  0
   49.0780   29.6290   47.6580 C   0  0  0  0  0  3  0  0  0  0  0  0
   49.8410   29.5200   48.8090 C   0  0  0  0  0  0  0  0  0  0  0  0
   50.7480   28.9370   48.7820 H   0  0  0  0  0  0  0  0  0  0  0  0
   49.4530   30.1470   49.9860 C   0  0  0  0  0  0  0  0  0  0  0  0
   50.1350   30.0550   51.0350 O   0  0  0  0  0  0  0  0  0  0  0  0
   48.3120   30.8530   49.9400 N   0  0  0  0  0  0  0  0  0  0  0  0
   47.5760   30.9550   48.8170 C   0  0  0  0  0  0  0  0  0  0  0  0
   46.5400   31.6450   48.9230 O   0  0  0  0  0  0  0  0  0  0  0  0
   48.0490   31.3120   50.8440 H   0  0  0  0  0  0  0  0  0  0  0  0
  1 16  1  0  0  0  0
  1  6  1  0  0  0  0
  2  7  1  0  0  0  0
  2  1  1  0  0  0  0
  3  2  1  0  0  0  0
  3  4  1  0  0  0  0
  4 11  1  0  0  0  0
  4  5  1  0  0  0  0
  5 14  1  0  0  0  0
  5  6  1  0  0  0  0
  5 13  1  0  0  0  0
  6 15  1  6  0  0  0
  6 31  1  0  0  0  0
  8  2  1  0  0  0  0
  9  3  1  0  0  0  0
 10  3  1  0  0  0  0
 12  4  1  0  0  0  0
 16 17  1  0  0  0  0
 18 16  1  0  0  0  0
 19 16  1  0  0  0  0
 19 21  1  0  0  0  0
 20 19  1  0  0  0  0
 22 28  1  0  0  0  0
 22 23  1  0  0  0  0
 23 29  1  0  0  0  0
 24 23  2  0  0  0  0
 24 19  1  0  0  0  0
 25 24  1  0  0  0  0
 26 27  1  0  0  0  0
 26 25  2  0  0  0  0
 27 22  2  0  0  0  0
 30 26  1  0  0  0  0
 31 33  1  0  0  0  0
 33 32  2  6  0  0  0
 33 36  1  0  0  0  0
 33 34  1  0  0  0  0
 34 35  1  0  0  0  0
 36 37  1  0  0  0  0
 37 38  1  0  0  0  0
 37 40  1  0  0  0  0
 39 37  1  0  0  0  0
 40 47  1  0  0  0  0
 41 40  1  0  0  0  0
 41 42  2  0  0  0  0
 42 44  1  0  0  0  0
 43 42  1  0  0  0  0
 44 45  2  0  0  0  0
 46 44  1  0  0  0  0
 46 49  1  0  0  0  0
 47 48  2  0  0  0  0
 47 46  1  0  0  0  0
M  END
>  <minimizedAffinity>
-5.16325235

>  <minimizedRMSD>
3.0438323

$$$$
