
 OpenBabel03252509043D

 49 51  0  0  1  0  0  0  0  0999 V2000
   47.1440   34.1730   43.0780 N   0  0  0  0  0  0  0  0  0  0  0  0
   46.6460   35.1950   42.2390 C   0  0  0  0  0  0  0  0  0  0  0  0
   45.1390   35.3730   42.3110 C   0  0  0  0  0  0  0  0  0  0  0  0
   44.5550   35.1290   43.6820 C   0  0  0  0  0  0  0  0  0  0  0  0
   45.6480   34.8620   44.7010 C   0  0  0  0  0  0  0  0  0  0  0  0
   46.4030   33.6130   44.0870 C   0  0  2  0  0  0  0  0  0  0  0  0
   47.1040   36.1580   42.5730 H   0  0  0  0  0  0  0  0  0  0  0  0
   46.8870   35.1050   41.1740 H   0  0  0  0  0  0  0  0  0  0  0  0
   44.6230   34.7690   41.5280 H   0  0  0  0  0  0  0  0  0  0  0  0
   44.9090   36.4270   42.0460 H   0  0  0  0  0  0  0  0  0  0  0  0
   43.9490   34.1980   43.6210 H   0  0  0  0  0  0  0  0  0  0  0  0
   43.8650   35.9230   44.0130 H   0  0  0  0  0  0  0  0  0  0  0  0
   45.1950   34.5720   45.6550 H   0  0  0  0  0  0  0  0  0  0  0  0
   46.3460   35.6960   44.7610 H   0  0  0  0  0  0  0  0  0  0  0  0
   45.6260   32.8870   43.7730 H   0  0  0  0  0  0  0  0  0  0  0  0
   48.2220   33.4130   42.5020 C   0  0  0  0  0  0  0  0  0  0  0  0
   48.8340   33.0470   43.3510 H   0  0  0  0  0  0  0  0  0  0  0  0
   48.8190   34.1190   41.8880 H   0  0  0  0  0  0  0  0  0  0  0  0
   47.6300   32.3050   41.7080 C   0  0  0  0  0  0  0  0  0  0  0  0
   46.5340   32.4500   41.5340 H   0  0  0  0  0  0  0  0  0  0  0  0
   47.7550   31.3350   42.2000 H   0  0  0  0  0  0  0  0  0  0  0  0
   49.7290   31.2420   38.7800 C   0  0  0  0  0  0  0  0  0  0  0  0
   49.1330   31.2820   40.0540 C   0  0  0  0  0  0  0  0  0  0  0  0
   48.2460   32.2820   40.3580 C   0  0  0  0  0  0  0  0  0  0  0  0
   47.9870   33.1850   39.4070 N   0  0  0  0  0  0  0  0  0  0  0  0
   48.5470   33.1560   38.1920 C   0  0  0  0  0  0  0  0  0  0  0  0
   49.4270   32.1840   37.8600 N   0  0  0  0  0  0  0  0  0  0  0  0
   50.4150   30.4230   38.6210 H   0  0  0  0  0  0  0  0  0  0  0  0
   49.3580   30.5380   40.8150 H   0  0  0  0  0  0  0  0  0  0  0  0
   48.3470   33.8800   37.4130 H   0  0  0  0  0  0  0  0  0  0  0  0
   47.1590   33.2110   45.1720 O   0  0  0  0  0  0  0  0  0  0  0  0
   46.2120   30.7700   44.6730 O   0  0  0  0  0  0  0  0  0  0  0  0
   46.6820   31.7240   45.7800 P   0  0  2  0  0  0  0  0  0  0  0  0
   45.2490   32.0360   46.6800 O   0  0  0  0  0  0  0  0  0  0  0  0
   45.4660   32.2650   47.6040 H   0  0  0  0  0  0  0  0  0  0  0  0
   47.7920   31.0280   46.8080 O   0  0  0  0  0  0  0  0  0  0  0  0
   47.8150   29.6600   46.5830 C   0  0  0  0  0  0  0  0  0  0  0  0
   46.8230   29.1960   46.8280 H   0  0  0  0  0  0  0  0  0  0  0  0
   48.0810   29.4230   45.5420 H   0  0  0  0  0  0  0  0  0  0  0  0
   48.7860   29.0850   47.4950 N   0  0  0  0  0  0  0  0  0  0  0  0
   49.8940   29.6800   47.9720 C   0  0  0  0  0  3  0  0  0  0  0  0
   50.7350   29.0070   48.8420 C   0  0  0  0  0  0  0  0  0  0  0  0
   51.6170   29.5090   49.2100 H   0  0  0  0  0  0  0  0  0  0  0  0
   50.4580   27.7060   49.2410 C   0  0  0  0  0  0  0  0  0  0  0  0
   51.2140   27.0870   50.0280 O   0  0  0  0  0  0  0  0  0  0  0  0
   49.3440   27.1520   48.7400 N   0  0  0  0  0  0  0  0  0  0  0  0
   48.5300   27.8120   47.8950 C   0  0  0  0  0  0  0  0  0  0  0  0
   47.5300   27.1690   47.5120 O   0  0  0  0  0  0  0  0  0  0  0  0
   49.1650   26.1710   49.0620 H   0  0  0  0  0  0  0  0  0  0  0  0
  1  6  1  0  0  0  0
  2  3  1  0  0  0  0
  2  7  1  0  0  0  0
  2  1  1  0  0  0  0
  3  4  1  0  0  0  0
  4 12  1  0  0  0  0
  4  5  1  0  0  0  0
  5 14  1  0  0  0  0
  5 13  1  0  0  0  0
  6 15  1  6  0  0  0
  6  5  1  0  0  0  0
  6 31  1  0  0  0  0
  8  2  1  0  0  0  0
  9  3  1  0  0  0  0
 10  3  1  0  0  0  0
 11  4  1  0  0  0  0
 16  1  1  0  0  0  0
 16 17  1  0  0  0  0
 18 16  1  0  0  0  0
 19 21  1  0  0  0  0
 19 16  1  0  0  0  0
 20 19  1  0  0  0  0
 22 23  1  0  0  0  0
 23 24  2  0  0  0  0
 23 29  1  0  0  0  0
 24 19  1  0  0  0  0
 25 24  1  0  0  0  0
 26 25  2  0  0  0  0
 27 26  1  0  0  0  0
 27 22  2  0  0  0  0
 28 22  1  0  0  0  0
 30 26  1  0  0  0  0
 31 33  1  0  0  0  0
 33 32  2  6  0  0  0
 33 34  1  0  0  0  0
 33 36  1  0  0  0  0
 34 35  1  0  0  0  0
 37 36  1  0  0  0  0
 37 38  1  0  0  0  0
 37 40  1  0  0  0  0
 39 37  1  0  0  0  0
 40 47  1  0  0  0  0
 40 41  1  0  0  0  0
 41 42  2  0  0  0  0
 42 43  1  0  0  0  0
 42 44  1  0  0  0  0
 44 45  2  0  0  0  0
 46 49  1  0  0  0  0
 46 44  1  0  0  0  0
 47 46  1  0  0  0  0
 48 47  2  0  0  0  0
M  END
>  <minimizedAffinity>
-4.03644037

>  <minimizedRMSD>
1.53048277

$$$$
