
 OpenBabel03242519233D

 35 37  0  0  0  0  0  0  0  0999 V2000
   37.1880   28.8070   41.1880 C   0  0  0  0  0  0  0  0  0  0  0  0
   35.8220   29.0140   40.8920 C   0  0  0  0  0  0  0  0  0  0  0  0
   35.4670   29.9550   39.9230 C   0  0  0  0  0  0  0  0  0  0  0  0
   36.5030   30.6330   39.3110 N   0  0  0  0  0  0  0  0  0  0  0  0
   37.7990   30.4110   39.6170 C   0  0  0  0  0  0  0  0  0  0  0  0
   38.1270   29.5090   40.5440 N   0  0  0  0  0  0  0  0  0  0  0  0
   34.9710   28.5390   41.3110 H   0  0  0  0  0  0  0  0  0  0  0  0
   34.4610   30.1810   39.6320 H   0  0  0  0  0  0  0  0  0  0  0  0
   38.8180   31.1480   38.9430 N   0  0  0  0  0  0  0  0  0  0  0  0
   39.8920   31.5210   39.6870 C   0  0  0  0  0  3  0  0  0  0  0  0
   40.9250   32.2460   39.0830 C   0  0  0  0  0  0  0  0  0  0  0  0
   41.8000   32.5650   39.6330 H   0  0  0  0  0  0  0  0  0  0  0  0
   40.7920   32.5520   37.7300 C   0  0  0  0  0  0  0  0  0  0  0  0
   41.7340   33.2020   37.2170 O   0  0  0  0  0  0  0  0  0  0  0  0
   39.6860   32.1430   37.0540 N   0  0  0  0  0  0  0  0  0  0  0  0
   38.6970   31.4470   37.6360 C   0  0  0  0  0  0  0  0  0  0  0  0
   37.7090   31.1030   36.9590 O   0  0  0  0  0  0  0  0  0  0  0  0
   39.7050   32.4320   36.0560 H   0  0  0  0  0  0  0  0  0  0  0  0
   37.4800   27.8060   42.2290 C   0  0  0  0  0  0  0  0  0  0  0  0
   38.3440   28.3250   43.3060 C   0  0  0  0  0  0  0  0  0  0  0  0
   39.7230   27.7280   43.3040 C   0  0  0  0  0  0  0  0  0  0  0  0
   39.6770   26.2130   43.3960 C   0  0  0  0  0  0  0  0  0  0  0  0
   38.6350   25.5930   42.5040 C   0  0  0  0  0  0  0  0  0  0  0  0
   38.0470   26.5790   41.5290 C   0  0  0  0  0  0  0  0  0  0  0  0
   36.4710   27.4580   42.6020 H   0  0  0  0  0  0  0  0  0  0  0  0
   38.4130   29.4120   43.3870 H   0  0  0  0  0  0  0  0  0  0  0  0
   37.8830   27.9900   44.2820 H   0  0  0  0  0  0  0  0  0  0  0  0
   40.2150   28.0580   44.2640 H   0  0  0  0  0  0  0  0  0  0  0  0
   40.3810   28.0270   42.4990 H   0  0  0  0  0  0  0  0  0  0  0  0
   39.5260   25.9050   44.4460 H   0  0  0  0  0  0  0  0  0  0  0  0
   40.6760   25.8150   43.0950 H   0  0  0  0  0  0  0  0  0  0  0  0
   37.7840   25.2590   43.1670 H   0  0  0  0  0  0  0  0  0  0  0  0
   38.9820   24.7270   41.9340 H   0  0  0  0  0  0  0  0  0  0  0  0
   38.8010   26.9300   40.7940 H   0  0  0  0  0  0  0  0  0  0  0  0
   37.2370   26.1080   40.9760 H   0  0  0  0  0  0  0  0  0  0  0  0
  1 19  1  0  0  0  0
  2  1  1  0  0  0  0
  2  7  1  0  0  0  0
  3  2  2  0  0  0  0
  4  5  2  0  0  0  0
  4  3  1  0  0  0  0
  5  6  1  0  0  0  0
  6  1  2  0  0  0  0
  8  3  1  0  0  0  0
  9  5  1  0  0  0  0
  9 10  1  0  0  0  0
 11 12  1  0  0  0  0
 11 10  2  0  0  0  0
 13 11  1  0  0  0  0
 14 13  2  0  0  0  0
 15 16  1  0  0  0  0
 15 13  1  0  0  0  0
 16  9  1  0  0  0  0
 17 16  2  0  0  0  0
 18 15  1  0  0  0  0
 19 25  1  0  0  0  0
 19 20  1  0  0  0  0
 20 26  1  0  0  0  0
 20 27  1  0  0  0  0
 21 20  1  0  0  0  0
 21 22  1  0  0  0  0
 21 28  1  0  0  0  0
 22 30  1  0  0  0  0
 23 32  1  0  0  0  0
 23 22  1  0  0  0  0
 24 19  1  0  0  0  0
 24 23  1  0  0  0  0
 29 21  1  0  0  0  0
 31 22  1  0  0  0  0
 33 23  1  0  0  0  0
 34 24  1  0  0  0  0
 35 24  1  0  0  0  0
M  END
>  <minimizedAffinity>
-5.96475983

$$$$

 OpenBabel03242519233D

 35 37  0  0  0  0  0  0  0  0999 V2000
   37.1360   26.6340   41.9490 C   0  0  0  0  0  0  0  0  0  0  0  0
   37.2610   27.1490   43.2590 C   0  0  0  0  0  0  0  0  0  0  0  0
   37.4420   28.5220   43.4390 C   0  0  0  0  0  0  0  0  0  0  0  0
   37.4880   29.2960   42.2960 N   0  0  0  0  0  0  0  0  0  0  0  0
   37.3660   28.7710   41.0580 C   0  0  0  0  0  0  0  0  0  0  0  0
   37.1920   27.4580   40.8970 N   0  0  0  0  0  0  0  0  0  0  0  0
   37.2360   26.6300   44.1840 H   0  0  0  0  0  0  0  0  0  0  0  0
   37.5470   29.0040   44.3910 H   0  0  0  0  0  0  0  0  0  0  0  0
   37.4230   29.6310   39.9200 N   0  0  0  0  0  0  0  0  0  0  0  0
   38.0570   29.1450   38.8220 C   0  0  0  0  0  3  0  0  0  0  0  0
   38.1450   29.9400   37.6740 C   0  0  0  0  0  0  0  0  0  0  0  0
   38.6400   29.5970   36.7750 H   0  0  0  0  0  0  0  0  0  0  0  0
   37.5700   31.2080   37.7230 C   0  0  0  0  0  0  0  0  0  0  0  0
   37.6660   31.8960   36.6790 O   0  0  0  0  0  0  0  0  0  0  0  0
   36.9520   31.6220   38.8610 N   0  0  0  0  0  0  0  0  0  0  0  0
   36.8690   30.8570   39.9590 C   0  0  0  0  0  0  0  0  0  0  0  0
   36.2880   31.2980   40.9700 O   0  0  0  0  0  0  0  0  0  0  0  0
   36.5660   32.5820   38.7700 H   0  0  0  0  0  0  0  0  0  0  0  0
   36.9600   25.1750   41.8420 C   0  0  0  0  0  0  0  0  0  0  0  0
   38.1330   24.4130   42.3100 C   0  0  0  0  0  0  0  0  0  0  0  0
   38.8750   23.7220   41.2020 C   0  0  0  0  0  0  0  0  0  0  0  0
   37.9670   22.7930   40.4140 C   0  0  0  0  0  0  0  0  0  0  0  0
   36.6260   23.3980   40.0990 C   0  0  0  0  0  0  0  0  0  0  0  0
   36.5710   24.8730   40.4020 C   0  0  0  0  0  0  0  0  0  0  0  0
   36.0200   24.9420   42.4270 H   0  0  0  0  0  0  0  0  0  0  0  0
   38.8380   24.9560   42.9440 H   0  0  0  0  0  0  0  0  0  0  0  0
   37.7390   23.5790   42.9620 H   0  0  0  0  0  0  0  0  0  0  0  0
   39.6230   23.0370   41.6980 H   0  0  0  0  0  0  0  0  0  0  0  0
   39.4340   24.3520   40.5230 H   0  0  0  0  0  0  0  0  0  0  0  0
   37.8470   21.8380   40.9550 H   0  0  0  0  0  0  0  0  0  0  0  0
   38.4750   22.5450   39.4510 H   0  0  0  0  0  0  0  0  0  0  0  0
   35.8700   22.9080   40.7790 H   0  0  0  0  0  0  0  0  0  0  0  0
   36.2960   23.2580   39.0660 H   0  0  0  0  0  0  0  0  0  0  0  0
   37.2470   25.4530   39.7410 H   0  0  0  0  0  0  0  0  0  0  0  0
   35.5580   25.2400   40.2470 H   0  0  0  0  0  0  0  0  0  0  0  0
  1  2  1  0  0  0  0
  2  3  2  0  0  0  0
  2  7  1  0  0  0  0
  3  8  1  0  0  0  0
  4  3  1  0  0  0  0
  5  4  2  0  0  0  0
  6  5  1  0  0  0  0
  6  1  2  0  0  0  0
  9 16  1  0  0  0  0
  9  5  1  0  0  0  0
 10  9  1  0  0  0  0
 11 13  1  0  0  0  0
 11 10  2  0  0  0  0
 12 11  1  0  0  0  0
 13 15  1  0  0  0  0
 14 13  2  0  0  0  0
 15 16  1  0  0  0  0
 16 17  2  0  0  0  0
 18 15  1  0  0  0  0
 19  1  1  0  0  0  0
 19 20  1  0  0  0  0
 19 25  1  0  0  0  0
 20 26  1  0  0  0  0
 20 27  1  0  0  0  0
 21 28  1  0  0  0  0
 21 20  1  0  0  0  0
 22 30  1  0  0  0  0
 22 21  1  0  0  0  0
 23 24  1  0  0  0  0
 23 22  1  0  0  0  0
 23 32  1  0  0  0  0
 24 19  1  0  0  0  0
 29 21  1  0  0  0  0
 31 22  1  0  0  0  0
 33 23  1  0  0  0  0
 34 24  1  0  0  0  0
 35 24  1  0  0  0  0
M  END
>  <minimizedAffinity>
-5.90790462

$$$$

 OpenBabel03242519233D

 35 37  0  0  0  0  0  0  0  0999 V2000
   38.0470   32.2370   39.4330 C   0  0  0  0  0  0  0  0  0  0  0  0
   38.1670   33.3580   40.2850 C   0  0  0  0  0  0  0  0  0  0  0  0
   39.3840   34.0410   40.3480 C   0  0  0  0  0  0  0  0  0  0  0  0
   40.4060   33.5580   39.5550 N   0  0  0  0  0  0  0  0  0  0  0  0
   40.2580   32.4830   38.7520 C   0  0  0  0  0  0  0  0  0  0  0  0
   39.0910   31.8380   38.6980 N   0  0  0  0  0  0  0  0  0  0  0  0
   37.4380   33.7930   40.9210 H   0  0  0  0  0  0  0  0  0  0  0  0
   39.5700   34.8990   40.9630 H   0  0  0  0  0  0  0  0  0  0  0  0
   41.3580   32.0400   37.9600 N   0  0  0  0  0  0  0  0  0  0  0  0
   41.5030   30.6970   37.8170 C   0  0  0  0  0  3  0  0  0  0  0  0
   42.5630   30.1990   37.0500 C   0  0  0  0  0  0  0  0  0  0  0  0
   42.7190   29.1380   36.9080 H   0  0  0  0  0  0  0  0  0  0  0  0
   43.4260   31.1250   36.4680 C   0  0  0  0  0  0  0  0  0  0  0  0
   44.3660   30.6480   35.7880 O   0  0  0  0  0  0  0  0  0  0  0  0
   43.2140   32.4540   36.6580 N   0  0  0  0  0  0  0  0  0  0  0  0
   42.1970   32.9270   37.3930 C   0  0  0  0  0  0  0  0  0  0  0  0
   42.0600   34.1590   37.5280 O   0  0  0  0  0  0  0  0  0  0  0  0
   43.9250   33.0380   36.1740 H   0  0  0  0  0  0  0  0  0  0  0  0
   36.7360   31.5640   39.4310 C   0  0  0  0  0  0  0  0  0  0  0  0
   36.3140   31.1130   40.7700 C   0  0  0  0  0  0  0  0  0  0  0  0
   36.3200   29.6180   40.9260 C   0  0  0  0  0  0  0  0  0  0  0  0
   35.4480   28.9430   39.8810 C   0  0  0  0  0  0  0  0  0  0  0  0
   35.6250   29.5130   38.4990 C   0  0  0  0  0  0  0  0  0  0  0  0
   36.8070   30.4430   38.4030 C   0  0  0  0  0  0  0  0  0  0  0  0
   36.0180   32.3050   38.9690 H   0  0  0  0  0  0  0  0  0  0  0  0
   36.8260   31.5740   41.6170 H   0  0  0  0  0  0  0  0  0  0  0  0
   35.2300   31.4130   40.8880 H   0  0  0  0  0  0  0  0  0  0  0  0
   35.8110   29.3970   41.9080 H   0  0  0  0  0  0  0  0  0  0  0  0
   37.2880   29.1370   40.9620 H   0  0  0  0  0  0  0  0  0  0  0  0
   34.3890   28.9890   40.1900 H   0  0  0  0  0  0  0  0  0  0  0  0
   35.7180   27.8600   39.8490 H   0  0  0  0  0  0  0  0  0  0  0  0
   34.7120   30.1400   38.2760 H   0  0  0  0  0  0  0  0  0  0  0  0
   35.7260   28.7650   37.7080 H   0  0  0  0  0  0  0  0  0  0  0  0
   37.7650   29.9060   38.5560 H   0  0  0  0  0  0  0  0  0  0  0  0
   36.8330   30.8990   37.4160 H   0  0  0  0  0  0  0  0  0  0  0  0
  1  2  1  0  0  0  0
  2  3  2  0  0  0  0
  2  7  1  0  0  0  0
  3  8  1  0  0  0  0
  4  3  1  0  0  0  0
  5  4  2  0  0  0  0
  6  5  1  0  0  0  0
  6  1  2  0  0  0  0
  9  5  1  0  0  0  0
 10  9  1  0  0  0  0
 11 10  2  0  0  0  0
 12 11  1  0  0  0  0
 13 15  1  0  0  0  0
 13 11  1  0  0  0  0
 14 13  2  0  0  0  0
 15 16  1  0  0  0  0
 16 17  2  0  0  0  0
 16  9  1  0  0  0  0
 18 15  1  0  0  0  0
 19  1  1  0  0  0  0
 19 20  1  0  0  0  0
 20 27  1  0  0  0  0
 20 21  1  0  0  0  0
 20 26  1  0  0  0  0
 21 29  1  0  0  0  0
 21 28  1  0  0  0  0
 22 30  1  0  0  0  0
 22 21  1  0  0  0  0
 23 22  1  0  0  0  0
 24 23  1  0  0  0  0
 24 34  1  0  0  0  0
 24 19  1  0  0  0  0
 25 19  1  0  0  0  0
 31 22  1  0  0  0  0
 32 23  1  0  0  0  0
 33 23  1  0  0  0  0
 35 24  1  0  0  0  0
M  END
>  <minimizedAffinity>
-5.79747009

$$$$

 OpenBabel03242519233D

 35 37  0  0  0  0  0  0  0  0999 V2000
   36.9970   29.1590   41.2070 C   0  0  0  0  0  0  0  0  0  0  0  0
   37.3290   29.6040   42.5060 C   0  0  0  0  0  0  0  0  0  0  0  0
   37.7740   28.6800   43.4530 C   0  0  0  0  0  0  0  0  0  0  0  0
   37.8580   27.3640   43.0420 N   0  0  0  0  0  0  0  0  0  0  0  0
   37.5330   26.9710   41.7920 C   0  0  0  0  0  0  0  0  0  0  0  0
   37.1090   27.8630   40.8940 N   0  0  0  0  0  0  0  0  0  0  0  0
   37.2950   30.5880   42.9010 H   0  0  0  0  0  0  0  0  0  0  0  0
   38.0480   28.9230   44.4600 H   0  0  0  0  0  0  0  0  0  0  0  0
   37.6450   25.5940   41.4360 N   0  0  0  0  0  0  0  0  0  0  0  0
   36.6850   25.0990   40.6110 C   0  0  0  0  0  3  0  0  0  0  0  0
   36.7400   23.7550   40.2250 C   0  0  0  0  0  0  0  0  0  0  0  0
   35.9990   23.3160   39.5710 H   0  0  0  0  0  0  0  0  0  0  0  0
   37.7920   22.9860   40.7170 C   0  0  0  0  0  0  0  0  0  0  0  0
   37.8140   21.7860   40.3530 O   0  0  0  0  0  0  0  0  0  0  0  0
   38.7140   23.5550   41.5380 N   0  0  0  0  0  0  0  0  0  0  0  0
   38.6590   24.8450   41.9060 C   0  0  0  0  0  0  0  0  0  0  0  0
   39.5360   25.3040   42.6630 O   0  0  0  0  0  0  0  0  0  0  0  0
   39.4450   22.8800   41.8360 H   0  0  0  0  0  0  0  0  0  0  0  0
   36.5240   30.1920   40.2690 C   0  0  0  0  0  0  0  0  0  0  0  0
   36.6120   29.7780   38.8570 C   0  0  0  0  0  0  0  0  0  0  0  0
   37.6630   30.5190   38.0810 C   0  0  0  0  0  0  0  0  0  0  0  0
   37.4470   32.0220   38.1410 C   0  0  0  0  0  0  0  0  0  0  0  0
   37.0980   32.5190   39.5180 C   0  0  0  0  0  0  0  0  0  0  0  0
   37.2950   31.4680   40.5800 C   0  0  0  0  0  0  0  0  0  0  0  0
   35.4680   30.4330   40.5940 H   0  0  0  0  0  0  0  0  0  0  0  0
   36.7080   28.7050   38.6750 H   0  0  0  0  0  0  0  0  0  0  0  0
   35.6330   30.0680   38.3720 H   0  0  0  0  0  0  0  0  0  0  0  0
   37.5080   30.2520   36.9960 H   0  0  0  0  0  0  0  0  0  0  0  0
   38.6940   30.2880   38.3140 H   0  0  0  0  0  0  0  0  0  0  0  0
   36.6730   32.3190   37.4110 H   0  0  0  0  0  0  0  0  0  0  0  0
   38.3910   32.5230   37.8170 H   0  0  0  0  0  0  0  0  0  0  0  0
   35.9960   32.7640   39.5160 H   0  0  0  0  0  0  0  0  0  0  0  0
   37.6450   33.4130   39.8300 H   0  0  0  0  0  0  0  0  0  0  0  0
   38.3640   31.1960   40.6960 H   0  0  0  0  0  0  0  0  0  0  0  0
   36.9410   31.8460   41.5370 H   0  0  0  0  0  0  0  0  0  0  0  0
  1  2  1  0  0  0  0
  2  7  1  0  0  0  0
  2  3  2  0  0  0  0
  3  8  1  0  0  0  0
  4  3  1  0  0  0  0
  5  4  2  0  0  0  0
  6  1  2  0  0  0  0
  6  5  1  0  0  0  0
  9  5  1  0  0  0  0
  9 16  1  0  0  0  0
 10  9  1  0  0  0  0
 11 10  2  0  0  0  0
 11 13  1  0  0  0  0
 12 11  1  0  0  0  0
 13 15  1  0  0  0  0
 14 13  2  0  0  0  0
 15 18  1  0  0  0  0
 15 16  1  0  0  0  0
 16 17  2  0  0  0  0
 19 24  1  0  0  0  0
 19 25  1  0  0  0  0
 19  1  1  0  0  0  0
 20 19  1  0  0  0  0
 21 22  1  0  0  0  0
 21 29  1  0  0  0  0
 21 20  1  0  0  0  0
 22 23  1  0  0  0  0
 23 33  1  0  0  0  0
 23 24  1  0  0  0  0
 24 34  1  0  0  0  0
 24 35  1  0  0  0  0
 26 20  1  0  0  0  0
 27 20  1  0  0  0  0
 28 21  1  0  0  0  0
 30 22  1  0  0  0  0
 31 22  1  0  0  0  0
 32 23  1  0  0  0  0
M  END
>  <minimizedAffinity>
-5.76287127

$$$$

 OpenBabel03242519233D

 35 37  0  0  0  0  0  0  0  0999 V2000
   37.0070   28.5190   41.5130 C   0  0  0  0  0  0  0  0  0  0  0  0
   35.6830   28.6100   41.0280 C   0  0  0  0  0  0  0  0  0  0  0  0
   35.3310   29.6760   40.1980 C   0  0  0  0  0  0  0  0  0  0  0  0
   36.3260   30.5880   39.9060 N   0  0  0  0  0  0  0  0  0  0  0  0
   37.5830   30.4720   40.3870 C   0  0  0  0  0  0  0  0  0  0  0  0
   37.9090   29.4490   41.1780 N   0  0  0  0  0  0  0  0  0  0  0  0
   34.8640   27.9570   41.2010 H   0  0  0  0  0  0  0  0  0  0  0  0
   34.3550   29.8290   39.7830 H   0  0  0  0  0  0  0  0  0  0  0  0
   38.5610   31.4520   40.0440 N   0  0  0  0  0  0  0  0  0  0  0  0
   39.4440   31.7960   41.0160 C   0  0  0  0  0  3  0  0  0  0  0  0
   40.4290   32.7520   40.7410 C   0  0  0  0  0  0  0  0  0  0  0  0
   41.1530   33.0590   41.4830 H   0  0  0  0  0  0  0  0  0  0  0  0
   40.4470   33.3070   39.4630 C   0  0  0  0  0  0  0  0  0  0  0  0
   41.3410   34.1600   39.2470 O   0  0  0  0  0  0  0  0  0  0  0  0
   39.5290   32.9090   38.5440 N   0  0  0  0  0  0  0  0  0  0  0  0
   38.5860   31.9920   38.8110 C   0  0  0  0  0  0  0  0  0  0  0  0
   37.7730   31.6730   37.9220 O   0  0  0  0  0  0  0  0  0  0  0  0
   39.6480   33.3960   37.6330 H   0  0  0  0  0  0  0  0  0  0  0  0
   37.2970   27.3720   42.3920 C   0  0  0  0  0  0  0  0  0  0  0  0
   38.5700   27.5080   43.1230 C   0  0  0  0  0  0  0  0  0  0  0  0
   39.6310   26.5510   42.6580 C   0  0  0  0  0  0  0  0  0  0  0  0
   39.1620   25.1090   42.7500 C   0  0  0  0  0  0  0  0  0  0  0  0
   37.7560   24.9060   42.2520 C   0  0  0  0  0  0  0  0  0  0  0  0
   37.2170   26.1160   41.5340 C   0  0  0  0  0  0  0  0  0  0  0  0
   36.4010   27.2840   43.0770 H   0  0  0  0  0  0  0  0  0  0  0  0
   38.9850   28.5170   43.1830 H   0  0  0  0  0  0  0  0  0  0  0  0
   38.3620   27.2150   44.1950 H   0  0  0  0  0  0  0  0  0  0  0  0
   40.4760   26.6240   43.4030 H   0  0  0  0  0  0  0  0  0  0  0  0
   40.0590   26.7360   41.6820 H   0  0  0  0  0  0  0  0  0  0  0  0
   39.2640   24.7470   43.7890 H   0  0  0  0  0  0  0  0  0  0  0  0
   39.8470   24.4800   42.1310 H   0  0  0  0  0  0  0  0  0  0  0  0
   37.0990   24.7580   43.1580 H   0  0  0  0  0  0  0  0  0  0  0  0
   37.6280   24.0430   41.5930 H   0  0  0  0  0  0  0  0  0  0  0  0
   37.7700   26.3160   40.5930 H   0  0  0  0  0  0  0  0  0  0  0  0
   36.1720   25.9530   41.2790 H   0  0  0  0  0  0  0  0  0  0  0  0
  1 19  1  0  0  0  0
  2  7  1  0  0  0  0
  2  1  2  0  0  0  0
  3  2  1  0  0  0  0
  4  3  2  0  0  0  0
  4  5  1  0  0  0  0
  5  6  2  0  0  0  0
  6  1  1  0  0  0  0
  8  3  1  0  0  0  0
  9  5  1  0  0  0  0
  9 10  1  0  0  0  0
 11 10  2  0  0  0  0
 11 12  1  0  0  0  0
 13 11  1  0  0  0  0
 14 13  2  0  0  0  0
 15 16  1  0  0  0  0
 15 13  1  0  0  0  0
 16  9  1  0  0  0  0
 17 16  2  0  0  0  0
 18 15  1  0  0  0  0
 19 25  1  0  0  0  0
 19 20  1  0  0  0  0
 20 26  1  0  0  0  0
 20 27  1  0  0  0  0
 21 22  1  0  0  0  0
 21 20  1  0  0  0  0
 21 28  1  0  0  0  0
 22 30  1  0  0  0  0
 23 22  1  0  0  0  0
 23 32  1  0  0  0  0
 24 23  1  0  0  0  0
 24 19  1  0  0  0  0
 29 21  1  0  0  0  0
 31 22  1  0  0  0  0
 33 23  1  0  0  0  0
 34 24  1  0  0  0  0
 35 24  1  0  0  0  0
M  END
>  <minimizedAffinity>
-5.75956154

$$$$

 OpenBabel03242519233D

 35 37  0  0  0  0  0  0  0  0999 V2000
   38.7410   26.9680   41.9510 C   0  0  0  0  0  0  0  0  0  0  0  0
   37.6200   26.4820   42.6610 C   0  0  0  0  0  0  0  0  0  0  0  0
   36.5450   27.3370   42.9120 C   0  0  0  0  0  0  0  0  0  0  0  0
   36.6590   28.6290   42.4370 N   0  0  0  0  0  0  0  0  0  0  0  0
   37.7450   29.0630   41.7620 C   0  0  0  0  0  0  0  0  0  0  0  0
   38.7660   28.2370   41.5270 N   0  0  0  0  0  0  0  0  0  0  0  0
   37.4520   25.5120   43.0570 H   0  0  0  0  0  0  0  0  0  0  0  0
   35.6560   27.0600   43.4410 H   0  0  0  0  0  0  0  0  0  0  0  0
   37.7940   30.4120   41.3000 N   0  0  0  0  0  0  0  0  0  0  0  0
   39.0010   31.0320   41.3620 C   0  0  0  0  0  3  0  0  0  0  0  0
   39.1140   32.3560   40.9230 C   0  0  0  0  0  0  0  0  0  0  0  0
   40.0540   32.8920   40.9540 H   0  0  0  0  0  0  0  0  0  0  0  0
   37.9640   32.9750   40.4410 C   0  0  0  0  0  0  0  0  0  0  0  0
   38.0970   34.1610   40.0550 O   0  0  0  0  0  0  0  0  0  0  0  0
   36.7920   32.2860   40.4100 N   0  0  0  0  0  0  0  0  0  0  0  0
   36.6870   31.0170   40.8310 C   0  0  0  0  0  0  0  0  0  0  0  0
   35.5820   30.4430   40.7770 O   0  0  0  0  0  0  0  0  0  0  0  0
   36.0110   32.8560   40.0300 H   0  0  0  0  0  0  0  0  0  0  0  0
   39.8380   26.0080   41.7370 C   0  0  0  0  0  0  0  0  0  0  0  0
   40.1080   25.1640   42.9160 C   0  0  0  0  0  0  0  0  0  0  0  0
   41.4180   25.4740   43.5830 C   0  0  0  0  0  0  0  0  0  0  0  0
   42.5820   25.3550   42.6150 C   0  0  0  0  0  0  0  0  0  0  0  0
   42.3060   25.9760   41.2720 C   0  0  0  0  0  0  0  0  0  0  0  0
   41.0470   26.8040   41.2660 C   0  0  0  0  0  0  0  0  0  0  0  0
   39.5400   25.4100   40.8250 H   0  0  0  0  0  0  0  0  0  0  0  0
   39.3150   25.1160   43.6650 H   0  0  0  0  0  0  0  0  0  0  0  0
   40.2170   24.1050   42.5390 H   0  0  0  0  0  0  0  0  0  0  0  0
   41.5920   24.6560   44.3410 H   0  0  0  0  0  0  0  0  0  0  0  0
   41.4820   26.4120   44.1190 H   0  0  0  0  0  0  0  0  0  0  0  0
   42.8690   24.2940   42.5020 H   0  0  0  0  0  0  0  0  0  0  0  0
   43.4640   25.8710   43.0640 H   0  0  0  0  0  0  0  0  0  0  0  0
   42.1320   25.1320   40.5420 H   0  0  0  0  0  0  0  0  0  0  0  0
   43.1170   26.6000   40.8850 H   0  0  0  0  0  0  0  0  0  0  0  0
   41.1390   27.6960   41.9190 H   0  0  0  0  0  0  0  0  0  0  0  0
   40.8440   27.1510   40.2550 H   0  0  0  0  0  0  0  0  0  0  0  0
  1  2  1  0  0  0  0
  2  3  2  0  0  0  0
  2  7  1  0  0  0  0
  3  8  1  0  0  0  0
  4  3  1  0  0  0  0
  5  4  2  0  0  0  0
  6  5  1  0  0  0  0
  6  1  2  0  0  0  0
  9 10  1  0  0  0  0
  9  5  1  0  0  0  0
 11 12  1  0  0  0  0
 11 10  2  0  0  0  0
 13 11  1  0  0  0  0
 14 13  2  0  0  0  0
 15 13  1  0  0  0  0
 15 16  1  0  0  0  0
 16  9  1  0  0  0  0
 17 16  2  0  0  0  0
 18 15  1  0  0  0  0
 19  1  1  0  0  0  0
 19 20  1  0  0  0  0
 20 21  1  0  0  0  0
 20 26  1  0  0  0  0
 21 29  1  0  0  0  0
 21 28  1  0  0  0  0
 22 31  1  0  0  0  0
 22 21  1  0  0  0  0
 23 22  1  0  0  0  0
 24 23  1  0  0  0  0
 24 19  1  0  0  0  0
 24 34  1  0  0  0  0
 25 19  1  0  0  0  0
 27 20  1  0  0  0  0
 30 22  1  0  0  0  0
 32 23  1  0  0  0  0
 33 23  1  0  0  0  0
 35 24  1  0  0  0  0
M  END
>  <minimizedAffinity>
-5.75622368

$$$$

 OpenBabel03242519233D

 35 37  0  0  0  0  0  0  0  0999 V2000
   37.6280   28.0850   40.3550 C   0  0  0  0  0  0  0  0  0  0  0  0
   36.3560   28.6140   40.6670 C   0  0  0  0  0  0  0  0  0  0  0  0
   36.0520   29.9270   40.3020 C   0  0  0  0  0  0  0  0  0  0  0  0
   37.0430   30.6320   39.6470 N   0  0  0  0  0  0  0  0  0  0  0  0
   38.2500   30.0960   39.3640 C   0  0  0  0  0  0  0  0  0  0  0  0
   38.5290   28.8400   39.7160 N   0  0  0  0  0  0  0  0  0  0  0  0
   35.5430   28.1450   41.1620 H   0  0  0  0  0  0  0  0  0  0  0  0
   35.1170   30.4130   40.4960 H   0  0  0  0  0  0  0  0  0  0  0  0
   39.2270   30.8830   38.6840 N   0  0  0  0  0  0  0  0  0  0  0  0
   40.5180   30.7170   39.0720 C   0  0  0  0  0  3  0  0  0  0  0  0
   41.5230   31.4610   38.4420 C   0  0  0  0  0  0  0  0  0  0  0  0
   42.5650   31.3630   38.7160 H   0  0  0  0  0  0  0  0  0  0  0  0
   41.1370   32.3450   37.4380 C   0  0  0  0  0  0  0  0  0  0  0  0
   42.0600   32.9960   36.8930 O   0  0  0  0  0  0  0  0  0  0  0  0
   39.8230   32.4540   37.1070 N   0  0  0  0  0  0  0  0  0  0  0  0
   38.8620   31.7390   37.7120 C   0  0  0  0  0  0  0  0  0  0  0  0
   37.6750   31.8880   37.3610 O   0  0  0  0  0  0  0  0  0  0  0  0
   39.6650   33.1440   36.3460 H   0  0  0  0  0  0  0  0  0  0  0  0
   37.8750   26.6970   40.7830 C   0  0  0  0  0  0  0  0  0  0  0  0
   37.6480   25.7100   39.7120 C   0  0  0  0  0  0  0  0  0  0  0  0
   36.4390   24.8480   39.9420 C   0  0  0  0  0  0  0  0  0  0  0  0
   36.5160   24.1200   41.2730 C   0  0  0  0  0  0  0  0  0  0  0  0
   36.9880   24.9940   42.4030 C   0  0  0  0  0  0  0  0  0  0  0  0
   37.0320   26.4530   42.0270 C   0  0  0  0  0  0  0  0  0  0  0  0
   38.9360   26.6880   41.1740 H   0  0  0  0  0  0  0  0  0  0  0  0
   37.6330   26.1010   38.6920 H   0  0  0  0  0  0  0  0  0  0  0  0
   38.5240   24.9960   39.7360 H   0  0  0  0  0  0  0  0  0  0  0  0
   36.4790   24.0280   39.1670 H   0  0  0  0  0  0  0  0  0  0  0  0
   35.4740   25.3250   39.8400 H   0  0  0  0  0  0  0  0  0  0  0  0
   37.1570   23.2270   41.1760 H   0  0  0  0  0  0  0  0  0  0  0  0
   35.4940   23.7450   41.5240 H   0  0  0  0  0  0  0  0  0  0  0  0
   38.0530   24.6960   42.6340 H   0  0  0  0  0  0  0  0  0  0  0  0
   36.4020   24.9050   43.3220 H   0  0  0  0  0  0  0  0  0  0  0  0
   36.0170   26.8570   41.8310 H   0  0  0  0  0  0  0  0  0  0  0  0
   37.4670   27.0270   42.8420 H   0  0  0  0  0  0  0  0  0  0  0  0
  1  2  1  0  0  0  0
  1 19  1  0  0  0  0
  2  7  1  0  0  0  0
  3  8  1  0  0  0  0
  3  2  2  0  0  0  0
  4  3  1  0  0  0  0
  5  4  2  0  0  0  0
  5  6  1  0  0  0  0
  6  1  2  0  0  0  0
  9 10  1  0  0  0  0
  9  5  1  0  0  0  0
 11 12  1  0  0  0  0
 11 10  2  0  0  0  0
 13 11  1  0  0  0  0
 14 13  2  0  0  0  0
 15 13  1  0  0  0  0
 15 16  1  0  0  0  0
 16  9  1  0  0  0  0
 17 16  2  0  0  0  0
 18 15  1  0  0  0  0
 19 25  1  0  0  0  0
 19 24  1  0  0  0  0
 20 27  1  0  0  0  0
 20 21  1  0  0  0  0
 20 19  1  0  0  0  0
 21 22  1  0  0  0  0
 22 31  1  0  0  0  0
 22 23  1  0  0  0  0
 23 32  1  0  0  0  0
 23 33  1  0  0  0  0
 24 23  1  0  0  0  0
 24 35  1  0  0  0  0
 26 20  1  0  0  0  0
 28 21  1  0  0  0  0
 29 21  1  0  0  0  0
 30 22  1  0  0  0  0
 34 24  1  0  0  0  0
M  END
>  <minimizedAffinity>
-5.66756868

$$$$

 OpenBabel03242519233D

 35 37  0  0  0  0  0  0  0  0999 V2000
   37.1010   28.9360   41.5150 C   0  0  0  0  0  0  0  0  0  0  0  0
   36.0660   29.7430   40.9920 C   0  0  0  0  0  0  0  0  0  0  0  0
   36.3350   31.0740   40.6680 C   0  0  0  0  0  0  0  0  0  0  0  0
   37.6250   31.5160   40.8880 N   0  0  0  0  0  0  0  0  0  0  0  0
   38.5920   30.7190   41.3900 C   0  0  0  0  0  0  0  0  0  0  0  0
   38.3240   29.4480   41.6960 N   0  0  0  0  0  0  0  0  0  0  0  0
   35.0570   29.4850   40.7920 H   0  0  0  0  0  0  0  0  0  0  0  0
   35.6170   31.7610   40.2680 H   0  0  0  0  0  0  0  0  0  0  0  0
   39.9030   31.2430   41.5910 N   0  0  0  0  0  0  0  0  0  0  0  0
   40.5660   30.8150   42.6970 C   0  0  0  0  0  3  0  0  0  0  0  0
   41.8570   31.2920   42.9500 C   0  0  0  0  0  0  0  0  0  0  0  0
   42.4240   30.9810   43.8160 H   0  0  0  0  0  0  0  0  0  0  0  0
   42.3980   32.1970   42.0390 C   0  0  0  0  0  0  0  0  0  0  0  0
   43.5560   32.6060   42.2930 O   0  0  0  0  0  0  0  0  0  0  0  0
   41.6710   32.5770   40.9550 N   0  0  0  0  0  0  0  0  0  0  0  0
   40.4340   32.1160   40.7160 C   0  0  0  0  0  0  0  0  0  0  0  0
   39.8210   32.5060   39.7030 O   0  0  0  0  0  0  0  0  0  0  0  0
   42.1840   33.2520   40.3550 H   0  0  0  0  0  0  0  0  0  0  0  0
   36.7350   27.5470   41.8440 C   0  0  0  0  0  0  0  0  0  0  0  0
   37.4250   27.0330   43.0410 C   0  0  0  0  0  0  0  0  0  0  0  0
   38.4450   25.9740   42.7340 C   0  0  0  0  0  0  0  0  0  0  0  0
   37.8300   24.8060   41.9810 C   0  0  0  0  0  0  0  0  0  0  0  0
   36.8970   25.2330   40.8800 C   0  0  0  0  0  0  0  0  0  0  0  0
   36.9760   26.7100   40.5940 C   0  0  0  0  0  0  0  0  0  0  0  0
   35.6090   27.5500   41.9500 H   0  0  0  0  0  0  0  0  0  0  0  0
   37.8610   27.7830   43.7050 H   0  0  0  0  0  0  0  0  0  0  0  0
   36.6430   26.5110   43.6680 H   0  0  0  0  0  0  0  0  0  0  0  0
   38.7630   25.5380   43.7250 H   0  0  0  0  0  0  0  0  0  0  0  0
   39.3480   26.2980   42.2330 H   0  0  0  0  0  0  0  0  0  0  0  0
   37.3170   24.1320   42.6890 H   0  0  0  0  0  0  0  0  0  0  0  0
   38.6580   24.2100   41.5260 H   0  0  0  0  0  0  0  0  0  0  0  0
   35.8440   25.0370   41.2390 H   0  0  0  0  0  0  0  0  0  0  0  0
   37.0380   24.7030   39.9340 H   0  0  0  0  0  0  0  0  0  0  0  0
   37.9650   26.9970   40.1830 H   0  0  0  0  0  0  0  0  0  0  0  0
   36.2190   26.9810   39.8620 H   0  0  0  0  0  0  0  0  0  0  0  0
  1  6  1  0  0  0  0
  1 19  1  0  0  0  0
  2  1  2  0  0  0  0
  3  4  2  0  0  0  0
  3  2  1  0  0  0  0
  4  5  1  0  0  0  0
  5  9  1  0  0  0  0
  5  6  2  0  0  0  0
  7  2  1  0  0  0  0
  8  3  1  0  0  0  0
  9 10  1  0  0  0  0
 10 11  2  0  0  0  0
 11 12  1  0  0  0  0
 13 14  2  0  0  0  0
 13 11  1  0  0  0  0
 15 13  1  0  0  0  0
 16 15  1  0  0  0  0
 16  9  1  0  0  0  0
 17 16  2  0  0  0  0
 18 15  1  0  0  0  0
 19 25  1  0  0  0  0
 19 20  1  0  0  0  0
 20 27  1  0  0  0  0
 20 26  1  0  0  0  0
 21 20  1  0  0  0  0
 21 28  1  0  0  0  0
 22 30  1  0  0  0  0
 22 21  1  0  0  0  0
 23 32  1  0  0  0  0
 23 22  1  0  0  0  0
 24 23  1  0  0  0  0
 24 19  1  0  0  0  0
 29 21  1  0  0  0  0
 31 22  1  0  0  0  0
 33 23  1  0  0  0  0
 34 24  1  0  0  0  0
 35 24  1  0  0  0  0
M  END
>  <minimizedAffinity>
-5.57556772

$$$$

 OpenBabel03242519233D

 35 37  0  0  0  0  0  0  0  0999 V2000
   38.0640   26.9490   41.9010 C   0  0  0  0  0  0  0  0  0  0  0  0
   38.8550   26.5000   42.9820 C   0  0  0  0  0  0  0  0  0  0  0  0
   39.8810   27.3160   43.4640 C   0  0  0  0  0  0  0  0  0  0  0  0
   40.0530   28.5320   42.8320 N   0  0  0  0  0  0  0  0  0  0  0  0
   39.2790   28.9310   41.8000 C   0  0  0  0  0  0  0  0  0  0  0  0
   38.3020   28.1440   41.3480 N   0  0  0  0  0  0  0  0  0  0  0  0
   38.7900   25.5890   43.5220 H   0  0  0  0  0  0  0  0  0  0  0  0
   40.5310   27.0620   44.2770 H   0  0  0  0  0  0  0  0  0  0  0  0
   39.5140   30.2010   41.1950 N   0  0  0  0  0  0  0  0  0  0  0  0
   39.3610   30.2700   39.8470 C   0  0  0  0  0  3  0  0  0  0  0  0
   39.5760   31.4890   39.1940 C   0  0  0  0  0  0  0  0  0  0  0  0
   39.4670   31.5930   38.1230 H   0  0  0  0  0  0  0  0  0  0  0  0
   39.9440   32.5820   39.9760 C   0  0  0  0  0  0  0  0  0  0  0  0
   40.1300   33.6600   39.3620 O   0  0  0  0  0  0  0  0  0  0  0  0
   40.0770   32.4320   41.3200 N   0  0  0  0  0  0  0  0  0  0  0  0
   39.8690   31.2620   41.9430 C   0  0  0  0  0  0  0  0  0  0  0  0
   40.0080   31.1930   43.1800 O   0  0  0  0  0  0  0  0  0  0  0  0
   40.3540   33.3180   41.7890 H   0  0  0  0  0  0  0  0  0  0  0  0
   37.0110   26.0260   41.4430 C   0  0  0  0  0  0  0  0  0  0  0  0
   37.0670   24.7080   42.1020 C   0  0  0  0  0  0  0  0  0  0  0  0
   37.4920   23.5990   41.1820 C   0  0  0  0  0  0  0  0  0  0  0  0
   36.5870   23.5030   39.9660 C   0  0  0  0  0  0  0  0  0  0  0  0
   36.2600   24.8410   39.3590 C   0  0  0  0  0  0  0  0  0  0  0  0
   37.1040   25.9550   39.9250 C   0  0  0  0  0  0  0  0  0  0  0  0
   36.0360   26.5700   41.6250 H   0  0  0  0  0  0  0  0  0  0  0  0
   37.6420   24.6580   43.0290 H   0  0  0  0  0  0  0  0  0  0  0  0
   36.0090   24.4490   42.4010 H   0  0  0  0  0  0  0  0  0  0  0  0
   37.3200   22.6350   41.7430 H   0  0  0  0  0  0  0  0  0  0  0  0
   38.5280   23.5960   40.8690 H   0  0  0  0  0  0  0  0  0  0  0  0
   35.6640   22.9570   40.2280 H   0  0  0  0  0  0  0  0  0  0  0  0
   37.1070   22.8860   39.1930 H   0  0  0  0  0  0  0  0  0  0  0  0
   35.1920   25.0820   39.6370 H   0  0  0  0  0  0  0  0  0  0  0  0
   36.3460   24.8790   38.2700 H   0  0  0  0  0  0  0  0  0  0  0  0
   38.1740   25.8350   39.6580 H   0  0  0  0  0  0  0  0  0  0  0  0
   36.7650   26.9080   39.5250 H   0  0  0  0  0  0  0  0  0  0  0  0
  1  2  1  0  0  0  0
  2  3  2  0  0  0  0
  2  7  1  0  0  0  0
  3  8  1  0  0  0  0
  4  3  1  0  0  0  0
  5  4  2  0  0  0  0
  6  5  1  0  0  0  0
  6  1  2  0  0  0  0
  9  5  1  0  0  0  0
  9 16  1  0  0  0  0
 10  9  1  0  0  0  0
 11 10  2  0  0  0  0
 11 13  1  0  0  0  0
 12 11  1  0  0  0  0
 13 15  1  0  0  0  0
 14 13  2  0  0  0  0
 15 18  1  0  0  0  0
 15 16  1  0  0  0  0
 16 17  2  0  0  0  0
 19 25  1  0  0  0  0
 19  1  1  0  0  0  0
 19 20  1  0  0  0  0
 20 27  1  0  0  0  0
 20 26  1  0  0  0  0
 21 28  1  0  0  0  0
 21 20  1  0  0  0  0
 22 30  1  0  0  0  0
 22 21  1  0  0  0  0
 23 32  1  0  0  0  0
 23 24  1  0  0  0  0
 23 22  1  0  0  0  0
 24 19  1  0  0  0  0
 29 21  1  0  0  0  0
 31 22  1  0  0  0  0
 33 23  1  0  0  0  0
 34 24  1  0  0  0  0
 35 24  1  0  0  0  0
M  END
>  <minimizedAffinity>
-5.47693062

$$$$
