
     RDKit          3D

 35 37  0  0  0  0  0  0  0  0999 V2000
   46.5919   34.7989   42.1031 C   0  0  0  0  0  0  0  0  0  0  0  0
   47.9259   35.2049   42.0441 C   0  0  0  0  0  0  0  0  0  0  0  0
   48.7184   35.0300   40.9111 C   0  0  0  0  0  0  0  0  0  0  0  0
   48.1717   34.4346   39.8027 C   0  0  0  0  0  0  0  0  0  0  0  0
   46.8629   34.0299   39.8438 C   0  0  0  0  0  0  0  0  0  0  0  0
   46.0804   34.2081   40.9779 C   0  0  0  0  0  0  0  0  0  0  0  0
   44.4145   36.2205   44.7885 C   0  0  0  0  0  0  0  0  0  0  0  0
   45.0720   36.1109   43.5402 C   0  0  0  0  0  0  0  0  0  0  0  0
   45.8827   35.0208   43.3217 C   0  0  0  0  0  0  0  0  0  0  0  0
   46.0060   34.1183   44.3109 N   0  0  0  0  0  0  0  0  0  0  0  0
   45.3650   34.2456   45.5026 C   0  0  0  0  0  0  0  0  0  0  0  0
   44.5723   35.2935   45.7380 N   0  0  0  0  0  0  0  0  0  0  0  0
   45.5334   33.2715   46.5303 N   0  0  0  0  0  0  0  0  0  0  0  0
   44.6726   33.7580   41.0208 C   0  0  0  0  0  0  0  0  0  0  0  0
   44.4657   32.9025   39.9402 F   0  0  0  0  0  0  0  0  0  0  0  0
   43.8333   34.8495   40.9327 F   0  0  0  0  0  0  0  0  0  0  0  0
   44.3232   33.0945   42.1744 F   0  0  0  0  0  0  0  0  0  0  0  0
   48.3829   35.6806   42.9126 H   0  0  0  0  0  0  0  0  0  0  0  0
   49.7515   35.3591   40.9046 H   0  0  0  0  0  0  0  0  0  0  0  0
   48.7256   34.2648   38.8843 H   0  0  0  0  0  0  0  0  0  0  0  0
   46.3925   33.5577   38.9960 H   0  0  0  0  0  0  0  0  0  0  0  0
   43.7590   37.0387   45.0526 H   0  0  0  0  0  0  0  0  0  0  0  0
   46.4826   33.5691   46.9023 H   0  0  0  0  0  0  0  0  0  0  0  0
   44.6949   32.6393   46.5472 H   0  0  0  0  0  0  0  0  0  0  0  0
   44.7896   37.1991   42.6759 N   0  0  0  0  0  0  0  0  0  0  0  0
   44.3093   37.1987   41.4229 C   0  0  0  0  0  0  0  0  0  0  0  0
   44.0792   38.3021   40.6665 C   0  0  0  0  0  0  0  0  0  0  0  0
   43.6886   38.1911   39.6638 H   0  0  0  0  0  0  0  0  0  0  0  0
   44.3463   39.5516   41.1854 C   0  0  0  0  0  0  0  0  0  0  0  0
   44.1550   40.6100   40.5368 O   0  0  0  0  0  0  0  0  0  0  0  0
   44.8278   39.5940   42.4350 N   0  0  0  0  0  0  0  0  0  0  0  0
   45.0330   38.4672   43.1301 C   0  0  0  0  0  0  0  0  0  0  0  0
   45.4944   38.6578   44.3067 O   0  0  0  0  0  0  0  0  0  0  0  0
   44.1034   36.2272   41.0059 H   0  0  0  0  0  0  0  0  0  0  0  0
   45.0277   40.5341   42.8226 H   0  0  0  0  0  0  0  0  0  0  0  0
  1  9  1  0
  2  1  2  0
  3  2  1  0
  4  5  1  0
  4  3  2  0
  5  6  2  0
  6 14  1  0
  6  1  1  0
  7 12  2  0
  8  7  1  0
  9  8  2  0
  9 10  1  0
 10 11  2  0
 11 12  1  0
 11 13  1  0
 14 17  1  0
 15 14  1  0
 16 14  1  0
  2 18  1  0
  3 19  1  0
  4 20  1  0
  5 21  1  0
  7 22  1  0
 13 23  1  0
 13 24  1  0
 25 26  1  0
 26 27  2  0
 27 28  1  0
 27 29  1  0
 29 30  2  0
 29 31  1  0
 31 32  1  0
 32 33  2  0
 32 25  1  0
 26 34  1  0
 31 35  1  0
  8 25  1  0
M  ISO  6  18  14  19  14  20  14  21  14  22  14  28  16
M  END
>  <DihAtoms>  (1) 
6,7,24,25

>  <DihDeg>  (1) 
129.6082984573741

$$$$
