
 OpenBabel03252506253D

 46 50  0  0  0  0  0  0  0  0999 V2000
   45.5750   27.9500   47.8420 C   0  0  0  0  0  0  0  0  0  0  0  0
   45.0770   29.2420   47.8780 C   0  0  0  0  0  0  0  0  0  0  0  0
   44.1950   29.5840   46.8560 C   0  0  0  0  0  0  0  0  0  0  0  0
   43.8310   28.7030   45.8630 C   0  0  0  0  0  0  0  0  0  0  0  0
   43.0310   28.7480   44.7870 N   0  0  0  0  0  0  0  0  0  0  0  0
   43.0310   27.5780   44.1330 C   0  0  0  0  0  0  0  0  0  0  0  0
   43.8660   26.6960   44.7900 C   0  0  0  0  0  0  0  0  0  0  0  0
   44.3400   27.4230   45.8490 C   0  0  0  0  0  0  0  0  0  0  0  0
   45.2180   27.0710   46.8580 C   0  0  0  0  0  0  0  0  0  0  0  0
   46.2600   27.7390   48.6670 H   0  0  0  0  0  0  0  0  0  0  0  0
   43.7260   30.5550   46.7540 H   0  0  0  0  0  0  0  0  0  0  0  0
   42.4660   29.5920   44.4830 H   0  0  0  0  0  0  0  0  0  0  0  0
   42.4610   27.3710   43.2350 H   0  0  0  0  0  0  0  0  0  0  0  0
   44.1090   25.6700   44.5520 H   0  0  0  0  0  0  0  0  0  0  0  0
   45.7750   25.7590   46.8930 N   0  0  0  0  0  0  0  0  0  0  0  0
   46.8860   25.3340   46.2630 C   0  0  0  0  0  3  0  0  0  0  0  0
   47.2720   24.0060   46.4210 C   0  0  0  0  0  0  0  0  0  0  0  0
   48.1700   23.6940   45.9020 H   0  0  0  0  0  0  0  0  0  0  0  0
   46.5320   23.1450   47.2050 C   0  0  0  0  0  0  0  0  0  0  0  0
   46.8770   21.9440   47.3490 O   0  0  0  0  0  0  0  0  0  0  0  0
   45.4140   23.6230   47.8210 N   0  0  0  0  0  0  0  0  0  0  0  0
   45.0570   24.9110   47.6570 C   0  0  0  0  0  0  0  0  0  0  0  0
   43.9950   25.2290   48.2850 O   0  0  0  0  0  0  0  0  0  0  0  0
   44.8720   22.9350   48.4130 H   0  0  0  0  0  0  0  0  0  0  0  0
   45.3260   30.3170   48.8230 C   0  0  0  0  0  0  0  0  0  0  0  0
   44.4650   31.0230   48.8820 H   0  0  0  0  0  0  0  0  0  0  0  0
   45.3490   29.8530   49.8510 H   0  0  0  0  0  0  0  0  0  0  0  0
   46.5980   31.0660   48.6740 C   0  0  0  0  0  0  0  0  0  0  0  0
   46.5990   31.8760   49.4580 H   0  0  0  0  0  0  0  0  0  0  0  0
   47.4440   30.4140   48.8700 H   0  0  0  0  0  0  0  0  0  0  0  0
   46.3320   33.0310   45.7030 C   0  0  0  0  0  0  0  0  0  0  0  0
   47.2320   32.0340   45.3090 C   0  0  0  0  0  0  0  0  0  0  0  0
   47.4380   31.1910   46.3530 C   0  0  0  0  0  0  0  0  0  0  0  0
   46.6920   31.6530   47.3550 N   0  0  0  0  0  0  0  0  0  0  0  0
   46.0180   32.7600   46.9820 N   0  0  0  0  0  0  0  0  0  0  0  0
   47.7140   31.9120   44.3370 H   0  0  0  0  0  0  0  0  0  0  0  0
   48.0800   30.3090   46.3880 H   0  0  0  0  0  0  0  0  0  0  0  0
   44.4690   35.9380   44.5140 C   0  0  0  0  0  0  0  0  0  0  0  0
   45.0050   36.1540   43.2390 C   0  0  0  0  0  0  0  0  0  0  0  0
   46.0050   35.2950   42.8020 C   0  0  0  0  0  0  0  0  0  0  0  0
   46.3820   34.3150   43.6420 N   0  0  0  0  0  0  0  0  0  0  0  0
   45.8650   34.1160   44.8570 C   0  0  0  0  0  0  0  0  0  0  0  0
   44.9070   34.9360   45.2850 N   0  0  0  0  0  0  0  0  0  0  0  0
   43.6900   36.6270   44.8250 H   0  0  0  0  0  0  0  0  0  0  0  0
   44.7230   36.9230   42.5540 H   0  0  0  0  0  0  0  0  0  0  0  0
   46.4970   35.3570   41.8390 H   0  0  0  0  0  0  0  0  0  0  0  0
  1  2  1  0  0  0  0
  1 10  1  0  0  0  0
  2 25  1  0  0  0  0
  3  2  2  0  0  0  0
  4  3  1  0  0  0  0
  5  4  1  0  0  0  0
  6  5  1  0  0  0  0
  6  7  2  0  0  0  0
  7  8  1  0  0  0  0
  8  4  2  0  0  0  0
  8  9  1  0  0  0  0
  9 15  1  0  0  0  0
  9  1  2  0  0  0  0
 11  3  1  0  0  0  0
 12  5  1  0  0  0  0
 13  6  1  0  0  0  0
 14  7  1  0  0  0  0
 15 22  1  0  0  0  0
 16 17  2  0  0  0  0
 16 15  1  0  0  0  0
 17 19  1  0  0  0  0
 18 17  1  0  0  0  0
 19 20  2  0  0  0  0
 19 21  1  0  0  0  0
 21 24  1  0  0  0  0
 22 21  1  0  0  0  0
 22 23  2  0  0  0  0
 25 26  1  0  0  0  0
 25 27  1  0  0  0  0
 28 25  1  0  0  0  0
 28 30  1  0  0  0  0
 28 29  1  0  0  0  0
 31 35  2  0  0  0  0
 32 31  1  0  0  0  0
 32 33  2  0  0  0  0
 33 37  1  0  0  0  0
 33 34  1  0  0  0  0
 34 28  1  0  0  0  0
 35 34  1  0  0  0  0
 36 32  1  0  0  0  0
 38 44  1  0  0  0  0
 38 43  1  0  0  0  0
 39 38  2  0  0  0  0
 40 39  1  0  0  0  0
 40 41  2  0  0  0  0
 41 42  1  0  0  0  0
 42 43  2  0  0  0  0
 42 31  1  0  0  0  0
 45 39  1  0  0  0  0
 46 40  1  0  0  0  0
M  END
>  <minimizedAffinity>
-5.51672173

>  <minimizedRMSD>
1.4841938

$$$$
