
 OpenBabel03252501453D

 24 25  0  0  0  0  0  0  0  0999 V2000
   43.5840   32.1090   42.3960 C   0  0  0  0  0  0  0  0  0  0  0  0
   44.4910   33.1480   42.6910 C   0  0  0  0  0  0  0  0  0  0  0  0
   44.3110   34.3580   42.0400 C   0  0  0  0  0  0  0  0  0  0  0  0
   43.2790   34.4930   41.1550 N   0  0  0  0  0  0  0  0  0  0  0  0
   42.4340   33.4840   40.9000 C   0  0  0  0  0  0  0  0  0  0  0  0
   42.6040   32.3230   41.5210 N   0  0  0  0  0  0  0  0  0  0  0  0
   43.7000   31.1530   42.8890 H   0  0  0  0  0  0  0  0  0  0  0  0
   44.9580   35.2050   42.2070 H   0  0  0  0  0  0  0  0  0  0  0  0
   41.3780   33.6870   39.9660 N   0  0  0  0  0  0  0  0  0  0  0  0
   40.1110   33.3400   40.2800 C   0  0  0  0  0  3  0  0  0  0  0  0
   39.1460   33.5750   39.3080 C   0  0  0  0  0  0  0  0  0  0  0  0
   38.1090   33.3040   39.5310 H   0  0  0  0  0  0  0  0  0  0  0  0
   39.4990   34.1330   38.1050 C   0  0  0  0  0  0  0  0  0  0  0  0
   38.6140   34.3390   37.2340 O   0  0  0  0  0  0  0  0  0  0  0  0
   40.7710   34.4710   37.8160 N   0  0  0  0  0  0  0  0  0  0  0  0
   41.6800   34.2330   38.7720 C   0  0  0  0  0  0  0  0  0  0  0  0
   42.8680   34.5500   38.4990 O   0  0  0  0  0  0  0  0  0  0  0  0
   41.0330   34.8970   36.8940 H   0  0  0  0  0  0  0  0  0  0  0  0
   45.5820   32.9740   43.6390 C   0  0  0  0  0  3  0  0  0  0  0  0
   45.5580   33.3580   44.9110 C   0  0  0  0  0  3  0  0  0  0  0  0
   46.7650   33.1120   45.7780 C   0  0  0  0  0  0  0  0  0  0  0  0
   47.6600   33.1200   45.1400 H   0  0  0  0  0  0  0  0  0  0  0  0
   46.6720   32.1200   46.2520 H   0  0  0  0  0  0  0  0  0  0  0  0
   46.8200   33.8880   46.5650 H   0  0  0  0  0  0  0  0  0  0  0  0
  1  2  1  0  0  0  0
  1  7  1  0  0  0  0
  2 19  1  0  0  0  0
  3  8  1  0  0  0  0
  3  2  2  0  0  0  0
  4  3  1  0  0  0  0
  5  4  2  0  0  0  0
  5  6  1  0  0  0  0
  6  1  2  0  0  0  0
  9 10  1  0  0  0  0
  9  5  1  0  0  0  0
 11 12  1  0  0  0  0
 11 10  2  0  0  0  0
 13 11  1  0  0  0  0
 14 13  2  0  0  0  0
 15 13  1  0  0  0  0
 15 16  1  0  0  0  0
 16  9  1  0  0  0  0
 17 16  2  0  0  0  0
 18 15  1  0  0  0  0
 19 20  2  0  0  0  0
 20 21  1  0  0  0  0
 21 23  1  0  0  0  0
 21 24  1  0  0  0  0
 22 21  1  0  0  0  0
M  END
>  <minimizedAffinity>
-4.37980318

>  <minimizedRMSD>
8.55568123

$$$$
