
     RDKit          3D

 39 42  0  0  0  0  0  0  0  0999 V2000
   42.6020   33.7785   41.1216 Cl  0  0  0  0  0  0  0  0  0  0  0  0
   44.1989   33.6334   40.4099 C   0  0  0  0  0  0  0  0  0  0  0  0
   45.3087   33.9773   41.1018 C   0  0  0  0  0  0  0  0  0  0  0  0
   46.5153   33.8245   40.4487 C   0  0  0  0  0  0  0  0  0  0  0  0
   46.6113   33.3539   39.1738 C   0  0  0  0  0  0  0  0  0  0  0  0
   45.4767   33.0081   38.4819 C   0  0  0  0  0  0  0  0  0  0  0  0
   44.2702   33.1544   39.1174 C   0  0  0  0  0  0  0  0  0  0  0  0
   44.7554   36.2404   44.0916 C   0  0  0  0  0  0  0  0  0  0  0  0
   44.8864   35.7813   42.7742 C   0  0  0  0  0  0  0  0  0  0  0  0
   45.1688   34.4743   42.4562 C   0  0  0  0  0  0  0  0  0  0  0  0
   45.3174   33.6299   43.5315 N   0  0  0  0  0  0  0  0  0  0  0  0
   45.1936   34.0611   44.7975 C   0  0  0  0  0  0  0  0  0  0  0  0
   44.9161   35.3480   45.0900 N   0  0  0  0  0  0  0  0  0  0  0  0
   47.7449   34.1905   41.1753 C   0  0  0  0  0  0  0  0  0  0  0  0
   48.4107   33.1466   41.8484 C   0  0  0  0  0  0  0  0  0  0  0  0
   49.5390   33.6014   42.4883 C   0  0  0  0  0  0  0  0  0  0  0  0
   50.0234   34.8705   42.5214 C   0  0  0  0  0  0  0  0  0  0  0  0
   49.2955   35.8269   41.8271 C   0  0  0  0  0  0  0  0  0  0  0  0
   48.1716   35.4371   41.1754 N   0  0  0  0  0  0  0  0  0  0  0  0
   47.5875   33.2554   38.7127 H   0  0  0  0  0  0  0  0  0  0  0  0
   45.5117   32.6318   37.4709 H   0  0  0  0  0  0  0  0  0  0  0  0
   43.3671   32.8862   38.5855 H   0  0  0  0  0  0  0  0  0  0  0  0
   44.5322   37.2831   44.2674 H   0  0  0  0  0  0  0  0  0  0  0  0
   44.7605   36.4841   41.9624 H   0  0  0  0  0  0  0  0  0  0  0  0
   45.3328   33.3002   45.5682 H   0  0  0  0  0  0  0  0  0  0  0  0
   48.0902   32.1168   41.8693 H   0  0  0  0  0  0  0  0  0  0  0  0
   50.1317   32.8550   43.0464 H   0  0  0  0  0  0  0  0  0  0  0  0
   50.9038   35.1666   43.0340 H   0  0  0  0  0  0  0  0  0  0  0  0
   49.7743   37.1694   41.8399 N   0  0  0  0  0  0  0  0  0  0  0  0
   51.0413   37.5851   41.6648 C   0  0  0  0  0  0  0  0  0  0  0  0
   51.3239   38.9367   41.7096 C   0  0  0  0  0  0  0  0  0  0  0  0
   52.3662   39.2115   41.5611 H   0  0  0  0  0  0  0  0  0  0  0  0
   50.3130   39.8562   41.9327 C   0  0  0  0  0  0  0  0  0  0  0  0
   50.6232   41.0874   41.9651 O   0  0  0  0  0  0  0  0  0  0  0  0
   49.0378   39.4155   42.1075 N   0  0  0  0  0  0  0  0  0  0  0  0
   48.7854   38.0815   42.0591 C   0  0  0  0  0  0  0  0  0  0  0  0
   47.5723   37.7899   42.2338 O   0  0  0  0  0  0  0  0  0  0  0  0
   51.7602   36.7894   41.4967 H   0  0  0  0  0  0  0  0  0  0  0  0
   48.2901   40.1244   42.2744 H   0  0  0  0  0  0  0  0  0  0  0  0
  2  3  2  0
  2  1  1  0
  3 10  1  0
  4  3  1  0
  4 14  1  0
  5  4  2  0
  6  7  2  0
  6  5  1  0
  7  2  1  0
  8 13  2  0
  9  8  1  0
 10  9  2  0
 10 11  1  0
 11 12  2  0
 12 13  1  0
 14 19  1  0
 14 15  2  0
 15 16  1  0
 16 17  2  0
 18 17  1  0
 19 18  2  0
  5 20  1  0
  6 21  1  0
  7 22  1  0
  8 23  1  0
  9 24  1  0
 12 25  1  0
 15 26  1  0
 16 27  1  0
 17 28  1  0
 29 30  1  0
 30 31  2  0
 31 32  1  0
 31 33  1  0
 33 34  2  0
 33 35  1  0
 35 36  1  0
 36 37  2  0
 36 29  1  0
 30 38  1  0
 35 39  1  0
 18 29  1  0
M  ISO  8  20  14  21  14  22  14  23  14  24  14  25  14  26  14  27  14
M  ISO  2  28  14  32  16
M  END
>  <DihAtoms>  (1) 
16,17,28,29

>  <DihDeg>  (1) 
-90.3618314716555

$$$$
