REMARK  Name = 
REMARK  4 active torsions:
REMARK  status: ('A' for Active; 'I' for Inactive)
REMARK    1  A    between atoms: C_2  and  C_7
REMARK    2  A    between atoms: C_5  and  O_11
REMARK    3  A    between atoms: O_11  and  C_12
REMARK    4  A    between atoms: C_12  and  C_13
REMARK                            x       y       z     vdW  Elec       q    Type
REMARK                         _______ _______ _______ _____ _____    ______ ____
ROOT
ATOM      1  C   UNL     1      46.514  30.772  48.017  0.00  0.00    +0.000 A 
ATOM      2  C   UNL     1      47.064  29.653  47.429  0.00  0.00    +0.000 A 
ATOM      3  C   UNL     1      48.308  29.230  47.820  0.00  0.00    +0.000 A 
ATOM      4  N   UNL     1      49.015  29.874  48.763  0.00  0.00    +0.000 NA
ATOM      5  C   UNL     1      48.467  30.965  49.328  0.00  0.00    +0.000 A 
ATOM      6  N   UNL     1      47.236  31.425  48.976  0.00  0.00    +0.000 NA
ATOM      7  H   UNL     1      46.420  29.212  46.690  0.00  0.00    +0.000 HD
ATOM      8  H   UNL     1      48.644  28.345  47.296  0.00  0.00    +0.000 HD
ATOM      9  N   UNL     1      49.253  31.633  50.337  0.00  0.00    +0.000 N 
ATOM     10  C   UNL     1      50.078  31.129  51.240  0.00  0.00    +0.000 A 
ATOM     11  C   UNL     1      50.723  31.982  52.107  0.00  0.00    +0.000 A 
ATOM     12  H   UNL     1      51.388  31.532  52.829  0.00  0.00    +0.000 HD
ATOM     13  C   UNL     1      50.507  33.337  52.029  0.00  0.00    +0.000 A 
ATOM     14  O   UNL     1      51.105  34.106  52.830  0.00  0.00    +0.000 OA
ATOM     15  N   UNL     1      49.661  33.827  51.100  0.00  0.00    +0.000 N 
ATOM     16  C   UNL     1      49.039  32.978  50.260  0.00  0.00    +0.000 A 
ATOM     17  O   UNL     1      48.281  33.586  49.449  0.00  0.00    +0.000 OA
ATOM     18  H   UNL     1      49.547  34.866  51.100  0.00  0.00    +0.000 HD
ENDROOT
BRANCH   1  19
ATOM     19  C   UNL     1      45.230  31.422  47.787  0.00  0.00    +0.000 C 
ATOM     20  H   UNL     1      44.452  31.159  48.547  0.00  0.00    +0.000 HD
ATOM     21  H   UNL     1      44.804  31.090  46.810  0.00  0.00    +0.000 HD
BRANCH  19  22
ATOM     22  O   UNL     1      45.456  32.808  47.691  0.00  0.00    +0.000 OA
BRANCH  22  27
ATOM     23  C   UNL     1      44.818  35.150  45.091  0.00  0.00    +0.000 A 
ATOM     24  C   UNL     1      45.703  34.781  44.083  0.00  0.00    +0.000 A 
ATOM     25  C   UNL     1      46.549  33.678  44.324  0.00  0.00    +0.000 A 
ATOM     26  N   UNL     1      46.444  33.051  45.518  0.00  0.00    +0.000 NA
ATOM     27  C   UNL     1      45.569  33.448  46.462  0.00  0.00    +0.000 A 
ATOM     28  N   UNL     1      44.765  34.483  46.256  0.00  0.00    +0.000 NA
ATOM     29  H   UNL     1      44.144  35.994  44.956  0.00  0.00    +0.000 HD
ATOM     30  H   UNL     1      47.224  33.405  43.541  0.00  0.00    +0.000 HD
BRANCH  24  31
ATOM     31  C   UNL     1      45.706  35.572  42.811  0.00  0.00    +0.000 C 
ATOM     32  F   UNL     1      45.222  36.808  43.157  0.00  0.00    +0.000 F 
ATOM     33  F   UNL     1      44.818  34.929  41.957  0.00  0.00    +0.000 F 
ATOM     34  F   UNL     1      46.983  35.610  42.314  0.00  0.00    +0.000 F 
ENDBRANCH  24  31
ENDBRANCH  22  27
ENDBRANCH  19  22
ENDBRANCH   1  19
TORSDOF 4
