
 OpenBabel03252509033D

 49 51  0  0  1  0  0  0  0  0999 V2000
   47.0320   34.3630   43.2360 N   0  0  0  0  0  0  0  0  0  0  0  0
   46.7000   34.9230   41.9830 C   0  0  0  0  0  0  0  0  0  0  0  0
   45.2690   34.6550   41.5470 C   0  0  0  0  0  0  0  0  0  0  0  0
   44.2740   34.6280   42.6820 C   0  0  0  0  0  0  0  0  0  0  0  0
   44.9390   34.9860   43.9990 C   0  0  0  0  0  0  0  0  0  0  0  0
   46.0880   33.9020   44.1180 C   0  0  2  0  0  0  0  0  0  0  0  0
   46.8120   36.0320   42.0680 H   0  0  0  0  0  0  0  0  0  0  0  0
   47.3310   34.6250   41.1390 H   0  0  0  0  0  0  0  0  0  0  0  0
   45.2040   33.7360   40.9170 H   0  0  0  0  0  0  0  0  0  0  0  0
   44.9620   35.4800   40.8680 H   0  0  0  0  0  0  0  0  0  0  0  0
   43.9200   33.5780   42.7840 H   0  0  0  0  0  0  0  0  0  0  0  0
   43.3750   35.2380   42.4930 H   0  0  0  0  0  0  0  0  0  0  0  0
   44.2270   34.8420   44.8190 H   0  0  0  0  0  0  0  0  0  0  0  0
   45.3960   35.9740   43.9560 H   0  0  0  0  0  0  0  0  0  0  0  0
   45.6340   32.9210   43.8730 H   0  0  0  0  0  0  0  0  0  0  0  0
   48.3690   33.8340   43.3090 C   0  0  0  0  0  0  0  0  0  0  0  0
   48.7150   34.0020   44.3480 H   0  0  0  0  0  0  0  0  0  0  0  0
   48.9880   34.4320   42.6070 H   0  0  0  0  0  0  0  0  0  0  0  0
   48.3110   32.3920   42.9530 C   0  0  0  0  0  0  0  0  0  0  0  0
   47.3030   32.0920   42.5700 H   0  0  0  0  0  0  0  0  0  0  0  0
   48.5380   31.7490   43.8100 H   0  0  0  0  0  0  0  0  0  0  0  0
   51.5140   31.9130   41.0500 C   0  0  0  0  0  0  0  0  0  0  0  0
   50.6020   32.1670   42.0910 C   0  0  0  0  0  0  0  0  0  0  0  0
   49.2550   32.1210   41.8400 C   0  0  0  0  0  0  0  0  0  0  0  0
   48.8700   31.8290   40.5930 N   0  0  0  0  0  0  0  0  0  0  0  0
   49.7290   31.5860   39.5960 C   0  0  0  0  0  0  0  0  0  0  0  0
   51.0630   31.6240   39.8090 N   0  0  0  0  0  0  0  0  0  0  0  0
   52.5560   31.9690   41.3300 H   0  0  0  0  0  0  0  0  0  0  0  0
   50.9350   32.4030   43.0990 H   0  0  0  0  0  0  0  0  0  0  0  0
   49.4330   31.3490   38.5830 H   0  0  0  0  0  0  0  0  0  0  0  0
   46.4480   34.0540   45.4440 O   0  0  0  0  0  0  0  0  0  0  0  0
   45.7660   31.4770   45.4710 O   0  0  0  0  0  0  0  0  0  0  0  0
   46.2140   32.6580   46.3430 P   0  0  2  0  0  0  0  0  0  0  0  0
   44.8410   32.9740   47.3300 O   0  0  0  0  0  0  0  0  0  0  0  0
   45.1110   33.3870   48.1730 H   0  0  0  0  0  0  0  0  0  0  0  0
   47.4900   32.2790   47.3430 O   0  0  0  0  0  0  0  0  0  0  0  0
   47.7590   30.9230   47.2320 C   0  0  0  0  0  0  0  0  0  0  0  0
   46.8160   30.3190   47.3020 H   0  0  0  0  0  0  0  0  0  0  0  0
   48.2750   30.6870   46.2890 H   0  0  0  0  0  0  0  0  0  0  0  0
   48.5850   30.5490   48.3660 N   0  0  0  0  0  0  0  0  0  0  0  0
   49.0950   31.3740   49.2970 C   0  0  0  0  0  3  0  0  0  0  0  0
   49.8700   30.8740   50.3300 C   0  0  0  0  0  0  0  0  0  0  0  0
   50.2670   31.5590   51.0640 H   0  0  0  0  0  0  0  0  0  0  0  0
   50.1390   29.5150   50.4290 C   0  0  0  0  0  0  0  0  0  0  0  0
   50.8410   29.0520   51.3610 O   0  0  0  0  0  0  0  0  0  0  0  0
   49.6090   28.7300   49.4790 N   0  0  0  0  0  0  0  0  0  0  0  0
   48.8570   29.2220   48.4780 C   0  0  0  0  0  0  0  0  0  0  0  0
   48.4310   28.3730   47.6660 O   0  0  0  0  0  0  0  0  0  0  0  0
   49.8320   27.7120   49.5840 H   0  0  0  0  0  0  0  0  0  0  0  0
  1 16  1  0  0  0  0
  1  6  1  0  0  0  0
  2  7  1  0  0  0  0
  2  1  1  0  0  0  0
  3  2  1  0  0  0  0
  3  4  1  0  0  0  0
  4 11  1  0  0  0  0
  4  5  1  0  0  0  0
  5  6  1  0  0  0  0
  5 13  1  0  0  0  0
  6 15  1  6  0  0  0
  6 31  1  0  0  0  0
  8  2  1  0  0  0  0
  9  3  1  0  0  0  0
 10  3  1  0  0  0  0
 12  4  1  0  0  0  0
 14  5  1  0  0  0  0
 16 17  1  0  0  0  0
 18 16  1  0  0  0  0
 19 16  1  0  0  0  0
 19 21  1  0  0  0  0
 20 19  1  0  0  0  0
 22 28  1  0  0  0  0
 22 23  1  0  0  0  0
 23 29  1  0  0  0  0
 24 23  2  0  0  0  0
 24 19  1  0  0  0  0
 25 24  1  0  0  0  0
 26 27  1  0  0  0  0
 26 25  2  0  0  0  0
 27 22  2  0  0  0  0
 30 26  1  0  0  0  0
 31 33  1  0  0  0  0
 33 32  2  6  0  0  0
 33 34  1  0  0  0  0
 33 36  1  0  0  0  0
 34 35  1  0  0  0  0
 37 38  1  0  0  0  0
 37 36  1  0  0  0  0
 37 40  1  0  0  0  0
 39 37  1  0  0  0  0
 40 47  1  0  0  0  0
 40 41  1  0  0  0  0
 41 42  2  0  0  0  0
 42 44  1  0  0  0  0
 42 43  1  0  0  0  0
 44 45  2  0  0  0  0
 46 49  1  0  0  0  0
 46 44  1  0  0  0  0
 47 46  1  0  0  0  0
 48 47  2  0  0  0  0
M  END
>  <minimizedAffinity>
-5.28691673

>  <minimizedRMSD>
3.06995678

$$$$
