
 OpenBabel03252502583D

 23 24  0  0  0  0  0  0  0  0999 V2000
   43.5900   34.2760   40.5260 C   0  0  0  0  0  0  0  0  0  0  0  0
   44.1070   34.4870   39.5590 H   0  0  0  0  0  0  0  0  0  0  0  0
   43.9530   33.3060   40.9330 H   0  0  0  0  0  0  0  0  0  0  0  0
   42.1330   34.2660   40.3330 N   0  0  0  0  0  0  0  0  0  0  0  0
   41.5890   35.2160   39.5620 C   0  0  0  0  0  3  0  0  0  0  0  0
   40.2040   35.1260   39.4390 C   0  0  0  0  0  0  0  0  0  0  0  0
   39.6620   35.8630   38.8250 H   0  0  0  0  0  0  0  0  0  0  0  0
   39.4820   34.1140   40.0800 C   0  0  0  0  0  0  0  0  0  0  0  0
   38.2370   34.0110   39.9840 O   0  0  0  0  0  0  0  0  0  0  0  0
   40.1350   33.2050   40.8350 N   0  0  0  0  0  0  0  0  0  0  0  0
   41.4700   33.2720   40.9700 C   0  0  0  0  0  0  0  0  0  0  0  0
   42.0920   32.4260   41.6750 O   0  0  0  0  0  0  0  0  0  0  0  0
   39.6180   32.4360   41.3280 H   0  0  0  0  0  0  0  0  0  0  0  0
   43.9110   35.6410   41.6690 S   0  0  0  0  0  0  0  0  0  0  0  0
   44.3320   35.7430   44.4170 C   0  0  0  0  0  0  0  0  0  0  0  0
   44.4900   34.9930   43.2360 C   0  0  0  0  0  0  0  0  0  0  0  0
   45.0950   33.7500   43.2890 C   0  0  0  0  0  0  0  0  0  0  0  0
   45.5190   33.3020   44.5080 N   0  0  0  0  0  0  0  0  0  0  0  0
   45.3510   34.0440   45.6120 C   0  0  0  0  0  0  0  0  0  0  0  0
   44.7750   35.2390   45.5980 N   0  0  0  0  0  0  0  0  0  0  0  0
   43.8530   36.7020   44.3100 H   0  0  0  0  0  0  0  0  0  0  0  0
   45.2420   33.1270   42.3960 H   0  0  0  0  0  0  0  0  0  0  0  0
   45.6660   33.7420   46.6070 H   0  0  0  0  0  0  0  0  0  0  0  0
  1  3  1  0  0  0  0
  1 14  1  0  0  0  0
  2  1  1  0  0  0  0
  4  1  1  0  0  0  0
  4 11  1  0  0  0  0
  5  4  1  0  0  0  0
  6  5  2  0  0  0  0
  6  8  1  0  0  0  0
  7  6  1  0  0  0  0
  8 10  1  0  0  0  0
  9  8  2  0  0  0  0
 10 11  1  0  0  0  0
 10 13  1  0  0  0  0
 11 12  2  0  0  0  0
 14 16  1  0  0  0  0
 15 20  1  0  0  0  0
 16 17  1  0  0  0  0
 16 15  2  0  0  0  0
 17 18  2  0  0  0  0
 18 19  1  0  0  0  0
 19 23  1  0  0  0  0
 20 19  2  0  0  0  0
 21 15  1  0  0  0  0
 22 17  1  0  0  0  0
M  END
>  <minimizedAffinity>
-4.4863553

>  <minimizedRMSD>
2.88916397

$$$$
