
 OpenBabel03252509033D

 49 51  0  0  1  0  0  0  0  0999 V2000
   46.7170   34.3440   43.4800 N   0  0  0  0  0  0  0  0  0  0  0  0
   46.4680   34.9540   42.2310 C   0  0  0  0  0  0  0  0  0  0  0  0
   44.9990   34.9960   41.8470 C   0  0  0  0  0  0  0  0  0  0  0  0
   44.0620   35.1920   43.0140 C   0  0  0  0  0  0  0  0  0  0  0  0
   44.8340   35.4070   44.3040 C   0  0  0  0  0  0  0  0  0  0  0  0
   45.7280   34.1030   44.4000 C   0  0  2  0  0  0  0  0  0  0  0  0
   46.8180   36.0130   42.2970 H   0  0  0  0  0  0  0  0  0  0  0  0
   46.9900   34.5210   41.3710 H   0  0  0  0  0  0  0  0  0  0  0  0
   44.7150   34.1080   41.2330 H   0  0  0  0  0  0  0  0  0  0  0  0
   44.8510   35.8630   41.1670 H   0  0  0  0  0  0  0  0  0  0  0  0
   43.4950   34.2430   43.1430 H   0  0  0  0  0  0  0  0  0  0  0  0
   43.3080   35.9790   42.8470 H   0  0  0  0  0  0  0  0  0  0  0  0
   44.1380   35.4260   45.1490 H   0  0  0  0  0  0  0  0  0  0  0  0
   45.4910   36.2740   44.2320 H   0  0  0  0  0  0  0  0  0  0  0  0
   45.0650   33.2400   44.1840 H   0  0  0  0  0  0  0  0  0  0  0  0
   47.9100   33.5400   43.5160 C   0  0  0  0  0  0  0  0  0  0  0  0
   48.0930   33.3000   44.5830 H   0  0  0  0  0  0  0  0  0  0  0  0
   48.7350   34.1750   43.1290 H   0  0  0  0  0  0  0  0  0  0  0  0
   47.6710   32.3270   42.6910 C   0  0  0  0  0  0  0  0  0  0  0  0
   46.7920   32.4470   42.0100 H   0  0  0  0  0  0  0  0  0  0  0  0
   47.4860   31.4410   43.3080 H   0  0  0  0  0  0  0  0  0  0  0  0
   51.2090   32.1780   41.4380 C   0  0  0  0  0  0  0  0  0  0  0  0
   50.0920   32.3850   42.2680 C   0  0  0  0  0  0  0  0  0  0  0  0
   48.8350   32.1010   41.7990 C   0  0  0  0  0  0  0  0  0  0  0  0
   48.7360   31.6300   40.5520 N   0  0  0  0  0  0  0  0  0  0  0  0
   49.7920   31.4290   39.7550 C   0  0  0  0  0  0  0  0  0  0  0  0
   51.0440   31.7000   40.1860 N   0  0  0  0  0  0  0  0  0  0  0  0
   52.1620   32.4270   41.8830 H   0  0  0  0  0  0  0  0  0  0  0  0
   50.1940   32.7700   43.2800 H   0  0  0  0  0  0  0  0  0  0  0  0
   49.7270   31.0490   38.7440 H   0  0  0  0  0  0  0  0  0  0  0  0
   46.1580   34.1830   45.7100 O   0  0  0  0  0  0  0  0  0  0  0  0
   45.6030   31.5780   45.5940 O   0  0  0  0  0  0  0  0  0  0  0  0
   46.0500   32.7180   46.5200 P   0  0  2  0  0  0  0  0  0  0  0  0
   44.7290   32.8940   47.6090 O   0  0  0  0  0  0  0  0  0  0  0  0
   45.0330   33.2620   48.4610 H   0  0  0  0  0  0  0  0  0  0  0  0
   47.4030   32.3380   47.4110 O   0  0  0  0  0  0  0  0  0  0  0  0
   47.6810   30.9890   47.2500 C   0  0  0  0  0  0  0  0  0  0  0  0
   46.7440   30.3750   47.3160 H   0  0  0  0  0  0  0  0  0  0  0  0
   48.1830   30.7880   46.2920 H   0  0  0  0  0  0  0  0  0  0  0  0
   48.5280   30.5840   48.3570 N   0  0  0  0  0  0  0  0  0  0  0  0
   49.0650   31.3850   49.2950 C   0  0  0  0  0  3  0  0  0  0  0  0
   49.8590   30.8560   50.3000 C   0  0  0  0  0  0  0  0  0  0  0  0
   50.2760   31.5210   51.0400 H   0  0  0  0  0  0  0  0  0  0  0  0
   50.1200   29.4940   50.3620 C   0  0  0  0  0  0  0  0  0  0  0  0
   50.8380   29.0040   51.2670 O   0  0  0  0  0  0  0  0  0  0  0  0
   49.5650   28.7340   49.4060 N   0  0  0  0  0  0  0  0  0  0  0  0
   48.7940   29.2540   48.4330 C   0  0  0  0  0  0  0  0  0  0  0  0
   48.3460   28.4250   47.6110 O   0  0  0  0  0  0  0  0  0  0  0  0
   49.7830   27.7120   49.4820 H   0  0  0  0  0  0  0  0  0  0  0  0
  1 16  1  0  0  0  0
  1  6  1  0  0  0  0
  2  7  1  0  0  0  0
  2  1  1  0  0  0  0
  3  2  1  0  0  0  0
  3  4  1  0  0  0  0
  4 11  1  0  0  0  0
  4  5  1  0  0  0  0
  5  6  1  0  0  0  0
  5 13  1  0  0  0  0
  6 15  1  6  0  0  0
  6 31  1  0  0  0  0
  8  2  1  0  0  0  0
  9  3  1  0  0  0  0
 10  3  1  0  0  0  0
 12  4  1  0  0  0  0
 14  5  1  0  0  0  0
 16 17  1  0  0  0  0
 18 16  1  0  0  0  0
 19 21  1  0  0  0  0
 19 16  1  0  0  0  0
 20 19  1  0  0  0  0
 22 28  1  0  0  0  0
 22 23  1  0  0  0  0
 23 29  1  0  0  0  0
 24 23  2  0  0  0  0
 24 19  1  0  0  0  0
 25 24  1  0  0  0  0
 26 27  1  0  0  0  0
 26 25  2  0  0  0  0
 27 22  2  0  0  0  0
 30 26  1  0  0  0  0
 31 33  1  0  0  0  0
 33 32  2  6  0  0  0
 33 36  1  0  0  0  0
 33 34  1  0  0  0  0
 34 35  1  0  0  0  0
 37 38  1  0  0  0  0
 37 36  1  0  0  0  0
 37 40  1  0  0  0  0
 39 37  1  0  0  0  0
 40 47  1  0  0  0  0
 40 41  1  0  0  0  0
 41 42  2  0  0  0  0
 42 44  1  0  0  0  0
 42 43  1  0  0  0  0
 44 45  2  0  0  0  0
 46 49  1  0  0  0  0
 46 44  1  0  0  0  0
 47 46  1  0  0  0  0
 48 47  2  0  0  0  0
M  END
>  <minimizedAffinity>
-5.43344116

>  <minimizedRMSD>
3.07611537

$$$$
