
 OpenBabel03242519433D

 30 31  0  0  0  0  0  0  0  0999 V2000
   36.9280   31.5430   40.9750 O   0  0  0  0  0  0  0  0  0  0  0  0
   36.8320   30.0150   40.9910 P   0  0  2  0  0  0  0  0  0  0  0  0
   37.2720   29.4420   42.5490 O   0  0  0  0  0  0  0  0  0  0  0  0
   37.9200   25.8980   42.5690 C   0  0  0  0  0  0  0  0  0  0  0  0
   37.2350   27.1240   42.4240 C   0  0  0  0  0  0  0  0  0  0  0  0
   37.9600   28.2840   42.6870 C   0  0  0  0  0  0  0  0  0  0  0  0
   39.2530   28.1900   43.0580 N   0  0  0  0  0  0  0  0  0  0  0  0
   39.8740   27.0030   43.1860 C   0  0  0  0  0  0  0  0  0  0  0  0
   39.2130   25.8580   42.9440 N   0  0  0  0  0  0  0  0  0  0  0  0
   37.3920   24.9730   42.3750 H   0  0  0  0  0  0  0  0  0  0  0  0
   36.2020   27.0520   42.1190 H   0  0  0  0  0  0  0  0  0  0  0  0
   40.9080   27.0480   43.4880 H   0  0  0  0  0  0  0  0  0  0  0  0
   37.9200   29.2760   39.9700 O   0  0  0  0  0  0  0  0  0  0  0  0
   39.0570   29.7420   39.4380 C   0  0  0  0  0  0  0  0  0  0  0  0
   40.0140   28.7810   39.3830 O   0  0  0  0  0  0  0  0  0  0  0  0
   42.9120   32.1020   38.8710 H   0  0  0  0  0  0  0  0  0  0  0  0
   41.9230   31.9610   38.5180 N   0  0  0  0  0  0  0  0  0  0  0  0
   41.2000   31.0400   39.1560 C   0  0  0  0  0  3  0  0  0  0  0  0
   39.9270   30.7290   38.8400 C   0  0  0  0  0  0  0  0  0  0  0  0
   39.5460   31.5480   37.7450 C   0  0  0  0  0  0  0  0  0  0  0  0
   38.3410   31.3940   37.2890 O   0  0  0  0  0  0  0  0  0  0  0  0
   40.1550   32.4870   37.0290 N   0  0  0  0  0  0  0  0  0  0  0  0
   41.3790   32.6250   37.5090 C   0  0  0  0  0  0  0  0  0  0  0  0
   42.1680   33.4700   36.9880 O   0  0  0  0  0  0  0  0  0  0  0  0
   39.7520   33.0180   36.2390 H   0  0  0  0  0  0  0  0  0  0  0  0
   35.2570   29.5670   40.7620 O   0  0  0  0  0  0  0  0  0  0  0  0
   35.0520   29.1420   39.4610 C   0  0  0  0  0  0  0  0  0  0  0  0
   35.5880   30.0290   38.5360 F   0  0  0  0  0  0  0  0  0  0  0  0
   35.5230   27.8770   39.2940 F   0  0  0  0  0  0  0  0  0  0  0  0
   33.6830   29.1430   39.2590 F   0  0  0  0  0  0  0  0  0  0  0  0
  2  1  2  6  0  0  0
  2  3  1  0  0  0  0
  3  6  1  0  0  0  0
  4  9  1  0  0  0  0
  5  4  2  0  0  0  0
  5  6  1  0  0  0  0
  6  7  2  0  0  0  0
  7  8  1  0  0  0  0
  8 12  1  0  0  0  0
  9  8  2  0  0  0  0
 10  4  1  0  0  0  0
 11  5  1  0  0  0  0
 13  2  1  0  0  0  0
 14 13  1  0  0  0  0
 15 14  2  0  0  0  0
 17 16  1  0  0  0  0
 17 18  1  0  0  0  0
 19 18  2  0  0  0  0
 19 14  1  0  0  0  0
 20 19  1  0  0  0  0
 21 20  2  0  0  0  0
 22 23  1  0  0  0  0
 22 20  1  0  0  0  0
 23 17  1  0  0  0  0
 24 23  2  0  0  0  0
 25 22  1  0  0  0  0
 26  2  1  0  0  0  0
 27 26  1  0  0  0  0
 28 27  1  0  0  0  0
 29 27  1  0  0  0  0
 30 27  1  0  0  0  0
M  END
>  <minimizedAffinity>
-5.30135298

$$$$

 OpenBabel03242519433D

 30 31  0  0  0  0  0  0  0  0999 V2000
   34.9010   29.3820   40.4280 O   0  0  0  0  0  0  0  0  0  0  0  0
   36.3470   29.8710   40.5460 P   0  0  2  0  0  0  0  0  0  0  0  0
   36.8920   29.6290   42.1570 O   0  0  0  0  0  0  0  0  0  0  0  0
   39.6980   27.6570   43.2600 C   0  0  0  0  0  0  0  0  0  0  0  0
   38.3680   28.0360   42.9790 C   0  0  0  0  0  0  0  0  0  0  0  0
   38.1800   29.2910   42.4040 C   0  0  0  0  0  0  0  0  0  0  0  0
   39.2490   30.0700   42.1440 N   0  0  0  0  0  0  0  0  0  0  0  0
   40.5040   29.6760   42.4250 C   0  0  0  0  0  0  0  0  0  0  0  0
   40.7330   28.4740   42.9830 N   0  0  0  0  0  0  0  0  0  0  0  0
   39.8880   26.6900   43.7080 H   0  0  0  0  0  0  0  0  0  0  0  0
   37.6090   27.3140   43.2370 H   0  0  0  0  0  0  0  0  0  0  0  0
   41.2820   30.3800   42.1750 H   0  0  0  0  0  0  0  0  0  0  0  0
   36.5110   31.5100   40.3090 O   0  0  0  0  0  0  0  0  0  0  0  0
   37.4930   32.2020   39.7160 C   0  0  0  0  0  0  0  0  0  0  0  0
   37.2320   33.5330   39.7060 O   0  0  0  0  0  0  0  0  0  0  0  0
   41.9150   33.2340   39.3530 H   0  0  0  0  0  0  0  0  0  0  0  0
   41.0580   32.9030   38.8270 N   0  0  0  0  0  0  0  0  0  0  0  0
   39.9390   32.7910   39.5440 C   0  0  0  0  0  3  0  0  0  0  0  0
   38.7570   32.3830   39.0390 C   0  0  0  0  0  0  0  0  0  0  0  0
   38.9530   32.1140   37.6590 C   0  0  0  0  0  0  0  0  0  0  0  0
   37.9190   31.7030   36.9900 O   0  0  0  0  0  0  0  0  0  0  0  0
   39.9920   32.1820   36.8360 N   0  0  0  0  0  0  0  0  0  0  0  0
   41.0320   32.6010   37.5380 C   0  0  0  0  0  0  0  0  0  0  0  0
   42.1560   32.7480   36.9710 O   0  0  0  0  0  0  0  0  0  0  0  0
   39.9970   31.9530   35.8270 H   0  0  0  0  0  0  0  0  0  0  0  0
   37.3160   28.9350   39.5860 O   0  0  0  0  0  0  0  0  0  0  0  0
   36.6960   28.6640   38.3790 C   0  0  0  0  0  0  0  0  0  0  0  0
   35.9810   27.4740   38.4210 F   0  0  0  0  0  0  0  0  0  0  0  0
   35.9230   29.7160   37.9930 F   0  0  0  0  0  0  0  0  0  0  0  0
   37.7050   28.4840   37.4500 F   0  0  0  0  0  0  0  0  0  0  0  0
  2  1  2  6  0  0  0
  2  3  1  0  0  0  0
  3  6  1  0  0  0  0
  4 10  1  0  0  0  0
  5 11  1  0  0  0  0
  5  4  2  0  0  0  0
  6  5  1  0  0  0  0
  7  6  2  0  0  0  0
  7  8  1  0  0  0  0
  8  9  2  0  0  0  0
  9  4  1  0  0  0  0
 12  8  1  0  0  0  0
 13  2  1  0  0  0  0
 14 13  1  0  0  0  0
 15 14  2  0  0  0  0
 17 16  1  0  0  0  0
 17 18  1  0  0  0  0
 19 18  2  0  0  0  0
 19 14  1  0  0  0  0
 20 19  1  0  0  0  0
 21 20  2  0  0  0  0
 22 23  1  0  0  0  0
 22 20  1  0  0  0  0
 23 17  1  0  0  0  0
 24 23  2  0  0  0  0
 25 22  1  0  0  0  0
 26  2  1  0  0  0  0
 27 28  1  0  0  0  0
 27 26  1  0  0  0  0
 29 27  1  0  0  0  0
 30 27  1  0  0  0  0
M  END
>  <minimizedAffinity>
-5.21875477

$$$$

 OpenBabel03242519433D

 30 31  0  0  0  0  0  0  0  0999 V2000
   38.6970   27.7540   40.8920 O   0  0  0  0  0  0  0  0  0  0  0  0
   38.1640   27.8190   42.3250 P   0  0  2  0  0  0  0  0  0  0  0  0
   37.5870   29.4070   42.6370 O   0  0  0  0  0  0  0  0  0  0  0  0
   36.8870   31.7170   39.9630 C   0  0  0  0  0  0  0  0  0  0  0  0
   36.7050   30.6920   40.9160 C   0  0  0  0  0  0  0  0  0  0  0  0
   37.7900   30.4010   41.7410 C   0  0  0  0  0  0  0  0  0  0  0  0
   38.9370   31.0950   41.6000 N   0  0  0  0  0  0  0  0  0  0  0  0
   39.0740   32.0670   40.6800 C   0  0  0  0  0  0  0  0  0  0  0  0
   38.0550   32.3800   39.8610 N   0  0  0  0  0  0  0  0  0  0  0  0
   36.0690   31.9740   39.3020 H   0  0  0  0  0  0  0  0  0  0  0  0
   35.7350   30.2210   40.9210 H   0  0  0  0  0  0  0  0  0  0  0  0
   40.0360   32.5550   40.6560 H   0  0  0  0  0  0  0  0  0  0  0  0
   39.3420   27.5870   43.4790 O   0  0  0  0  0  0  0  0  0  0  0  0
   40.6750   27.5650   43.3570 C   0  0  0  0  0  0  0  0  0  0  0  0
   41.1580   28.7580   42.9270 O   0  0  0  0  0  0  0  0  0  0  0  0
   45.2090   27.5660   43.8090 H   0  0  0  0  0  0  0  0  0  0  0  0
   44.3530   26.9580   43.6670 N   0  0  0  0  0  0  0  0  0  0  0  0
   43.1850   27.5980   43.5980 C   0  0  0  0  0  3  0  0  0  0  0  0
   41.9980   26.9850   43.4230 C   0  0  0  0  0  0  0  0  0  0  0  0
   42.2470   25.5910   43.3320 C   0  0  0  0  0  0  0  0  0  0  0  0
   41.2150   24.8210   43.1620 O   0  0  0  0  0  0  0  0  0  0  0  0
   43.3370   24.8350   43.3820 N   0  0  0  0  0  0  0  0  0  0  0  0
   44.3730   25.6380   43.5580 C   0  0  0  0  0  0  0  0  0  0  0  0
   45.5400   25.1510   43.6390 O   0  0  0  0  0  0  0  0  0  0  0  0
   43.3790   23.8050   43.3000 H   0  0  0  0  0  0  0  0  0  0  0  0
   36.8560   26.8170   42.4650 O   0  0  0  0  0  0  0  0  0  0  0  0
   37.1410   25.5630   41.9520 C   0  0  0  0  0  0  0  0  0  0  0  0
   38.4780   25.2260   42.1220 F   0  0  0  0  0  0  0  0  0  0  0  0
   36.3030   24.6320   42.4810 F   0  0  0  0  0  0  0  0  0  0  0  0
   36.9250   25.6390   40.5880 F   0  0  0  0  0  0  0  0  0  0  0  0
  2  1  2  6  0  0  0
  2 26  1  0  0  0  0
  2  3  1  0  0  0  0
  2 13  1  0  0  0  0
  4  5  1  0  0  0  0
  5 11  1  0  0  0  0
  5  6  2  0  0  0  0
  6  3  1  0  0  0  0
  7  6  1  0  0  0  0
  8  7  2  0  0  0  0
  9  4  2  0  0  0  0
  9  8  1  0  0  0  0
 10  4  1  0  0  0  0
 12  8  1  0  0  0  0
 14 19  1  0  0  0  0
 14 13  1  0  0  0  0
 15 14  2  0  0  0  0
 17 16  1  0  0  0  0
 18 17  1  0  0  0  0
 19 18  2  0  0  0  0
 20 22  1  0  0  0  0
 20 19  1  0  0  0  0
 21 20  2  0  0  0  0
 22 23  1  0  0  0  0
 23 24  2  0  0  0  0
 23 17  1  0  0  0  0
 25 22  1  0  0  0  0
 27 28  1  0  0  0  0
 27 26  1  0  0  0  0
 27 29  1  0  0  0  0
 30 27  1  0  0  0  0
M  END
>  <minimizedAffinity>
-5.17842531

$$$$

 OpenBabel03242519433D

 30 31  0  0  0  0  0  0  0  0999 V2000
   38.4340   26.7650   39.2970 O   0  0  0  0  0  0  0  0  0  0  0  0
   37.2010   26.8020   40.2040 P   0  0  2  0  0  0  0  0  0  0  0  0
   35.9420   27.6550   39.4050 O   0  0  0  0  0  0  0  0  0  0  0  0
   35.8190   27.7930   35.8070 C   0  0  0  0  0  0  0  0  0  0  0  0
   35.6370   27.3270   37.1270 C   0  0  0  0  0  0  0  0  0  0  0  0
   36.1230   28.1350   38.1520 C   0  0  0  0  0  0  0  0  0  0  0  0
   36.7290   29.3010   37.8500 N   0  0  0  0  0  0  0  0  0  0  0  0
   36.8850   29.7140   36.5780 C   0  0  0  0  0  0  0  0  0  0  0  0
   36.4340   28.9660   35.5570 N   0  0  0  0  0  0  0  0  0  0  0  0
   35.4560   27.1950   34.9820 H   0  0  0  0  0  0  0  0  0  0  0  0
   35.1330   26.3780   37.2250 H   0  0  0  0  0  0  0  0  0  0  0  0
   37.3850   30.6620   36.4540 H   0  0  0  0  0  0  0  0  0  0  0  0
   37.4400   27.6620   41.6090 O   0  0  0  0  0  0  0  0  0  0  0  0
   37.7060   28.9620   41.7880 C   0  0  0  0  0  0  0  0  0  0  0  0
   37.9400   29.2500   43.0940 O   0  0  0  0  0  0  0  0  0  0  0  0
   40.0960   32.7620   41.0120 H   0  0  0  0  0  0  0  0  0  0  0  0
   39.1350   32.3190   40.9640 N   0  0  0  0  0  0  0  0  0  0  0  0
   39.0530   31.0550   41.3800 C   0  0  0  0  0  3  0  0  0  0  0  0
   37.9130   30.3360   41.3860 C   0  0  0  0  0  0  0  0  0  0  0  0
   36.8790   31.1690   40.8840 C   0  0  0  0  0  0  0  0  0  0  0  0
   35.6920   30.6500   40.8100 O   0  0  0  0  0  0  0  0  0  0  0  0
   36.8240   32.4200   40.4440 N   0  0  0  0  0  0  0  0  0  0  0  0
   38.0430   32.9280   40.5260 C   0  0  0  0  0  0  0  0  0  0  0  0
   38.2530   34.1230   40.1610 O   0  0  0  0  0  0  0  0  0  0  0  0
   35.9860   32.9170   40.0990 H   0  0  0  0  0  0  0  0  0  0  0  0
   36.6440   25.2610   40.4260 O   0  0  0  0  0  0  0  0  0  0  0  0
   37.2190   24.6880   41.5470 C   0  0  0  0  0  0  0  0  0  0  0  0
   38.5540   25.0470   41.6850 F   0  0  0  0  0  0  0  0  0  0  0  0
   36.4900   24.9800   42.6580 F   0  0  0  0  0  0  0  0  0  0  0  0
   37.1990   23.3200   41.3440 F   0  0  0  0  0  0  0  0  0  0  0  0
  2  1  2  6  0  0  0
  2 26  1  0  0  0  0
  2 13  1  0  0  0  0
  3  2  1  0  0  0  0
  4  5  1  0  0  0  0
  5 11  1  0  0  0  0
  5  6  2  0  0  0  0
  6  3  1  0  0  0  0
  7  6  1  0  0  0  0
  8  7  2  0  0  0  0
  9  4  2  0  0  0  0
  9  8  1  0  0  0  0
 10  4  1  0  0  0  0
 12  8  1  0  0  0  0
 13 14  1  0  0  0  0
 14 15  2  0  0  0  0
 17 16  1  0  0  0  0
 17 18  1  0  0  0  0
 18 19  2  0  0  0  0
 19 14  1  0  0  0  0
 20 19  1  0  0  0  0
 21 20  2  0  0  0  0
 22 23  1  0  0  0  0
 22 20  1  0  0  0  0
 23 17  1  0  0  0  0
 24 23  2  0  0  0  0
 25 22  1  0  0  0  0
 26 27  1  0  0  0  0
 27 28  1  0  0  0  0
 27 29  1  0  0  0  0
 30 27  1  0  0  0  0
M  END
>  <minimizedAffinity>
-5.11618423

$$$$

 OpenBabel03242519433D

 30 31  0  0  0  0  0  0  0  0999 V2000
   34.3920   28.8880   38.8260 O   0  0  0  0  0  0  0  0  0  0  0  0
   35.6990   29.2030   39.5580 P   0  0  2  0  0  0  0  0  0  0  0  0
   35.5620   28.6960   41.1930 O   0  0  0  0  0  0  0  0  0  0  0  0
   38.5970   28.8860   43.1260 C   0  0  0  0  0  0  0  0  0  0  0  0
   37.4460   29.2880   42.4140 C   0  0  0  0  0  0  0  0  0  0  0  0
   36.6530   28.2770   41.8780 C   0  0  0  0  0  0  0  0  0  0  0  0
   37.0060   26.9880   42.0570 N   0  0  0  0  0  0  0  0  0  0  0  0
   38.1110   26.6410   42.7420 C   0  0  0  0  0  0  0  0  0  0  0  0
   38.9080   27.5830   43.2750 N   0  0  0  0  0  0  0  0  0  0  0  0
   39.2410   29.6400   43.5580 H   0  0  0  0  0  0  0  0  0  0  0  0
   37.2820   30.3530   42.3500 H   0  0  0  0  0  0  0  0  0  0  0  0
   38.2970   25.5810   42.8220 H   0  0  0  0  0  0  0  0  0  0  0  0
   36.0170   30.8340   39.6690 O   0  0  0  0  0  0  0  0  0  0  0  0
   37.1570   31.5050   39.4670 C   0  0  0  0  0  0  0  0  0  0  0  0
   37.2200   32.6250   40.2310 O   0  0  0  0  0  0  0  0  0  0  0  0
   41.6740   32.1000   39.4450 H   0  0  0  0  0  0  0  0  0  0  0  0
   40.8030   32.0590   38.8430 N   0  0  0  0  0  0  0  0  0  0  0  0
   39.6560   31.8420   39.4880 C   0  0  0  0  0  3  0  0  0  0  0  0
   38.4550   31.7580   38.8830 C   0  0  0  0  0  0  0  0  0  0  0  0
   38.6650   31.9400   37.4910 C   0  0  0  0  0  0  0  0  0  0  0  0
   37.6150   31.8900   36.7290 O   0  0  0  0  0  0  0  0  0  0  0  0
   39.7310   32.1600   36.7310 N   0  0  0  0  0  0  0  0  0  0  0  0
   40.7870   32.2040   37.5270 C   0  0  0  0  0  0  0  0  0  0  0  0
   41.9380   32.4040   37.0350 O   0  0  0  0  0  0  0  0  0  0  0  0
   39.7440   32.2770   35.7040 H   0  0  0  0  0  0  0  0  0  0  0  0
   36.9210   28.3060   38.8980 O   0  0  0  0  0  0  0  0  0  0  0  0
   36.9190   28.4130   37.5180 C   0  0  0  0  0  0  0  0  0  0  0  0
   36.0730   29.4230   37.0790 F   0  0  0  0  0  0  0  0  0  0  0  0
   38.1890   28.5650   37.0510 F   0  0  0  0  0  0  0  0  0  0  0  0
   36.4020   27.2260   37.0320 F   0  0  0  0  0  0  0  0  0  0  0  0
  2  1  2  6  0  0  0
  2 13  1  0  0  0  0
  2  3  1  0  0  0  0
  3  6  1  0  0  0  0
  4  9  1  0  0  0  0
  4 10  1  0  0  0  0
  5  4  2  0  0  0  0
  6  7  2  0  0  0  0
  6  5  1  0  0  0  0
  7  8  1  0  0  0  0
  8 12  1  0  0  0  0
  8  9  2  0  0  0  0
 11  5  1  0  0  0  0
 14 13  1  0  0  0  0
 14 15  2  0  0  0  0
 17 16  1  0  0  0  0
 17 18  1  0  0  0  0
 19 14  1  0  0  0  0
 19 18  2  0  0  0  0
 20 19  1  0  0  0  0
 21 20  2  0  0  0  0
 22 20  1  0  0  0  0
 22 23  1  0  0  0  0
 23 17  1  0  0  0  0
 24 23  2  0  0  0  0
 25 22  1  0  0  0  0
 26  2  1  0  0  0  0
 27 26  1  0  0  0  0
 28 27  1  0  0  0  0
 29 27  1  0  0  0  0
 30 27  1  0  0  0  0
M  END
>  <minimizedAffinity>
-5.083354

$$$$

 OpenBabel03242519433D

 30 31  0  0  0  0  0  0  0  0999 V2000
   37.6040   27.8000   39.6700 O   0  0  0  0  0  0  0  0  0  0  0  0
   36.9440   28.8950   40.5120 P   0  0  2  0  0  0  0  0  0  0  0  0
   35.7320   29.6710   39.5730 O   0  0  0  0  0  0  0  0  0  0  0  0
   34.4610   28.5210   36.4040 C   0  0  0  0  0  0  0  0  0  0  0  0
   34.5550   28.7560   37.7930 C   0  0  0  0  0  0  0  0  0  0  0  0
   35.6650   29.4720   38.2360 C   0  0  0  0  0  0  0  0  0  0  0  0
   36.5780   29.9040   37.3420 N   0  0  0  0  0  0  0  0  0  0  0  0
   36.4550   29.6620   36.0240 C   0  0  0  0  0  0  0  0  0  0  0  0
   35.4010   28.9720   35.5520 N   0  0  0  0  0  0  0  0  0  0  0  0
   33.6140   27.9680   36.0190 H   0  0  0  0  0  0  0  0  0  0  0  0
   33.7530   28.3550   38.3930 H   0  0  0  0  0  0  0  0  0  0  0  0
   37.2440   30.0540   35.4020 H   0  0  0  0  0  0  0  0  0  0  0  0
   37.9830   30.1280   40.9230 O   0  0  0  0  0  0  0  0  0  0  0  0
   38.4700   31.1290   40.1790 C   0  0  0  0  0  0  0  0  0  0  0  0
   37.6320   32.1960   40.1640 O   0  0  0  0  0  0  0  0  0  0  0  0
   40.1590   32.7450   36.2680 H   0  0  0  0  0  0  0  0  0  0  0  0
   40.3240   32.6550   37.3110 N   0  0  0  0  0  0  0  0  0  0  0  0
   39.3850   32.0020   37.9970 C   0  0  0  0  0  3  0  0  0  0  0  0
   39.4310   31.7960   39.3280 C   0  0  0  0  0  0  0  0  0  0  0  0
   40.6260   32.3890   39.8120 C   0  0  0  0  0  0  0  0  0  0  0  0
   40.8520   32.2960   41.0860 O   0  0  0  0  0  0  0  0  0  0  0  0
   41.6280   33.0540   39.2500 N   0  0  0  0  0  0  0  0  0  0  0  0
   41.3760   33.1380   37.9540 C   0  0  0  0  0  0  0  0  0  0  0  0
   42.1930   33.7350   37.1910 O   0  0  0  0  0  0  0  0  0  0  0  0
   42.4590   33.4400   39.7290 H   0  0  0  0  0  0  0  0  0  0  0  0
   36.1610   28.1980   41.7910 O   0  0  0  0  0  0  0  0  0  0  0  0
   37.0420   27.9430   42.8270 C   0  0  0  0  0  0  0  0  0  0  0  0
   38.1900   27.2990   42.3820 F   0  0  0  0  0  0  0  0  0  0  0  0
   37.3240   29.0880   43.5050 F   0  0  0  0  0  0  0  0  0  0  0  0
   36.4020   27.0620   43.6800 F   0  0  0  0  0  0  0  0  0  0  0  0
  2  1  2  6  0  0  0
  2 13  1  0  0  0  0
  2 26  1  0  0  0  0
  3  2  1  0  0  0  0
  4  5  1  0  0  0  0
  5  6  2  0  0  0  0
  5 11  1  0  0  0  0
  6  3  1  0  0  0  0
  7  6  1  0  0  0  0
  8  7  2  0  0  0  0
  9  8  1  0  0  0  0
  9  4  2  0  0  0  0
 10  4  1  0  0  0  0
 12  8  1  0  0  0  0
 14 13  1  0  0  0  0
 15 14  2  0  0  0  0
 16 17  1  0  0  0  0
 17 23  1  0  0  0  0
 17 18  1  0  0  0  0
 18 19  2  0  0  0  0
 19 20  1  0  0  0  0
 19 14  1  0  0  0  0
 20 21  2  0  0  0  0
 22 25  1  0  0  0  0
 22 20  1  0  0  0  0
 23 22  1  0  0  0  0
 24 23  2  0  0  0  0
 26 27  1  0  0  0  0
 27 29  1  0  0  0  0
 27 30  1  0  0  0  0
 28 27  1  0  0  0  0
M  END
>  <minimizedAffinity>
-5.06004906

$$$$

 OpenBabel03242519433D

 30 31  0  0  0  0  0  0  0  0999 V2000
   35.5330   25.5070   38.2500 O   0  0  0  0  0  0  0  0  0  0  0  0
   36.4370   26.6150   38.7940 P   0  0  2  0  0  0  0  0  0  0  0  0
   36.9830   26.1750   40.3620 O   0  0  0  0  0  0  0  0  0  0  0  0
   37.3110   28.1790   43.3370 C   0  0  0  0  0  0  0  0  0  0  0  0
   36.8280   27.2060   42.4360 C   0  0  0  0  0  0  0  0  0  0  0  0
   37.4770   27.1110   41.2070 C   0  0  0  0  0  0  0  0  0  0  0  0
   38.5140   27.9290   40.9370 N   0  0  0  0  0  0  0  0  0  0  0  0
   38.9480   28.8460   41.8210 C   0  0  0  0  0  0  0  0  0  0  0  0
   38.3510   28.9750   43.0190 N   0  0  0  0  0  0  0  0  0  0  0  0
   36.8350   28.2870   44.3030 H   0  0  0  0  0  0  0  0  0  0  0  0
   35.9930   26.6180   42.7830 H   0  0  0  0  0  0  0  0  0  0  0  0
   39.7840   29.4460   41.4980 H   0  0  0  0  0  0  0  0  0  0  0  0
   35.6410   28.0570   39.0370 O   0  0  0  0  0  0  0  0  0  0  0  0
   36.0120   29.3080   38.7370 C   0  0  0  0  0  0  0  0  0  0  0  0
   35.5900   29.6710   37.4990 O   0  0  0  0  0  0  0  0  0  0  0  0
   38.3500   33.0640   37.6490 H   0  0  0  0  0  0  0  0  0  0  0  0
   37.8340   32.5590   38.4250 N   0  0  0  0  0  0  0  0  0  0  0  0
   37.3190   31.3700   38.1090 C   0  0  0  0  0  3  0  0  0  0  0  0
   36.6320   30.5930   38.9690 C   0  0  0  0  0  0  0  0  0  0  0  0
   36.5800   31.2750   40.2130 C   0  0  0  0  0  0  0  0  0  0  0  0
   35.9510   30.6810   41.1800 O   0  0  0  0  0  0  0  0  0  0  0  0
   37.0420   32.4380   40.6560 N   0  0  0  0  0  0  0  0  0  0  0  0
   37.6750   33.0250   39.6550 C   0  0  0  0  0  0  0  0  0  0  0  0
   38.2100   34.1610   39.8280 O   0  0  0  0  0  0  0  0  0  0  0  0
   36.9310   32.8230   41.6100 H   0  0  0  0  0  0  0  0  0  0  0  0
   37.7890   26.7260   37.8490 O   0  0  0  0  0  0  0  0  0  0  0  0
   37.4490   26.7650   36.5070 C   0  0  0  0  0  0  0  0  0  0  0  0
   36.0850   26.9470   36.3250 F   0  0  0  0  0  0  0  0  0  0  0  0
   38.1870   27.7060   35.8570 F   0  0  0  0  0  0  0  0  0  0  0  0
   37.7530   25.5190   35.9890 F   0  0  0  0  0  0  0  0  0  0  0  0
  2  1  2  6  0  0  0
  2 13  1  0  0  0  0
  2  3  1  0  0  0  0
  3  6  1  0  0  0  0
  4 10  1  0  0  0  0
  5 11  1  0  0  0  0
  5  4  2  0  0  0  0
  6  5  1  0  0  0  0
  7  6  2  0  0  0  0
  7  8  1  0  0  0  0
  8  9  2  0  0  0  0
  9  4  1  0  0  0  0
 12  8  1  0  0  0  0
 14 19  1  0  0  0  0
 14 13  1  0  0  0  0
 15 14  2  0  0  0  0
 16 17  1  0  0  0  0
 17 23  1  0  0  0  0
 18 17  1  0  0  0  0
 18 19  2  0  0  0  0
 19 20  1  0  0  0  0
 20 22  1  0  0  0  0
 20 21  2  0  0  0  0
 22 25  1  0  0  0  0
 23 24  2  0  0  0  0
 23 22  1  0  0  0  0
 26  2  1  0  0  0  0
 27 26  1  0  0  0  0
 28 27  1  0  0  0  0
 29 27  1  0  0  0  0
 30 27  1  0  0  0  0
M  END
>  <minimizedAffinity>
-4.99792767

$$$$

 OpenBabel03242519433D

 30 31  0  0  0  0  0  0  0  0999 V2000
   38.7620   30.0200   39.9500 O   0  0  0  0  0  0  0  0  0  0  0  0
   37.5180   30.7510   40.4620 P   0  0  2  0  0  0  0  0  0  0  0  0
   37.0590   30.0850   41.9770 O   0  0  0  0  0  0  0  0  0  0  0  0
   37.1810   26.5080   42.3930 C   0  0  0  0  0  0  0  0  0  0  0  0
   36.7320   27.7870   41.9950 C   0  0  0  0  0  0  0  0  0  0  0  0
   37.5220   28.8730   42.3650 C   0  0  0  0  0  0  0  0  0  0  0  0
   38.6550   28.6640   43.0660 N   0  0  0  0  0  0  0  0  0  0  0  0
   39.0520   27.4300   43.4270 C   0  0  0  0  0  0  0  0  0  0  0  0
   38.3200   26.3520   43.0950 N   0  0  0  0  0  0  0  0  0  0  0  0
   36.5950   25.6380   42.1270 H   0  0  0  0  0  0  0  0  0  0  0  0
   35.8100   27.8080   41.4370 H   0  0  0  0  0  0  0  0  0  0  0  0
   39.9730   27.3820   43.9860 H   0  0  0  0  0  0  0  0  0  0  0  0
   36.1770   30.5240   39.5020 O   0  0  0  0  0  0  0  0  0  0  0  0
   35.9940   29.7070   38.4560 C   0  0  0  0  0  0  0  0  0  0  0  0
   35.6210   28.4630   38.8520 O   0  0  0  0  0  0  0  0  0  0  0  0
   34.0230   28.7480   34.4630 H   0  0  0  0  0  0  0  0  0  0  0  0
   34.9470   28.8510   34.9690 N   0  0  0  0  0  0  0  0  0  0  0  0
   34.8740   29.1690   36.2620 C   0  0  0  0  0  3  0  0  0  0  0  0
   35.9470   29.3410   37.0590 C   0  0  0  0  0  0  0  0  0  0  0  0
   37.1060   29.1220   36.2680 C   0  0  0  0  0  0  0  0  0  0  0  0
   38.2530   29.2450   36.8620 O   0  0  0  0  0  0  0  0  0  0  0  0
   37.3170   28.8050   34.9960 N   0  0  0  0  0  0  0  0  0  0  0  0
   36.1370   28.6880   34.4100 C   0  0  0  0  0  0  0  0  0  0  0  0
   36.0710   28.3880   33.1810 O   0  0  0  0  0  0  0  0  0  0  0  0
   38.2350   28.6720   34.5370 H   0  0  0  0  0  0  0  0  0  0  0  0
   37.8990   32.3340   40.7500 O   0  0  0  0  0  0  0  0  0  0  0  0
   37.9270   33.0550   39.5690 C   0  0  0  0  0  0  0  0  0  0  0  0
   38.3330   32.2740   38.4950 F   0  0  0  0  0  0  0  0  0  0  0  0
   36.7230   33.6510   39.3470 F   0  0  0  0  0  0  0  0  0  0  0  0
   38.8900   34.0350   39.7290 F   0  0  0  0  0  0  0  0  0  0  0  0
  2  1  2  6  0  0  0
  2 26  1  0  0  0  0
  2  3  1  0  0  0  0
  3  6  1  0  0  0  0
  4  9  1  0  0  0  0
  5  6  1  0  0  0  0
  5  4  2  0  0  0  0
  6  7  2  0  0  0  0
  7  8  1  0  0  0  0
  8 12  1  0  0  0  0
  9  8  2  0  0  0  0
 10  4  1  0  0  0  0
 11  5  1  0  0  0  0
 13  2  1  0  0  0  0
 14 15  2  0  0  0  0
 14 13  1  0  0  0  0
 16 17  1  0  0  0  0
 17 18  1  0  0  0  0
 18 19  2  0  0  0  0
 19 14  1  0  0  0  0
 20 21  2  0  0  0  0
 20 19  1  0  0  0  0
 22 20  1  0  0  0  0
 23 17  1  0  0  0  0
 23 22  1  0  0  0  0
 24 23  2  0  0  0  0
 25 22  1  0  0  0  0
 27 30  1  0  0  0  0
 27 26  1  0  0  0  0
 28 27  1  0  0  0  0
 29 27  1  0  0  0  0
M  END
>  <minimizedAffinity>
-4.99239111

$$$$

 OpenBabel03242519433D

 30 31  0  0  0  0  0  0  0  0999 V2000
   37.8700   29.3580   43.2000 O   0  0  0  0  0  0  0  0  0  0  0  0
   37.7090   28.9810   41.7250 P   0  0  2  0  0  0  0  0  0  0  0  0
   39.2580   28.6670   41.0530 O   0  0  0  0  0  0  0  0  0  0  0  0
   39.2750   26.8280   37.9550 C   0  0  0  0  0  0  0  0  0  0  0  0
   39.1060   27.8890   38.8710 C   0  0  0  0  0  0  0  0  0  0  0  0
   39.4420   27.6330   40.1990 C   0  0  0  0  0  0  0  0  0  0  0  0
   39.9050   26.4150   40.5450 N   0  0  0  0  0  0  0  0  0  0  0  0
   40.0540   25.4270   39.6440 C   0  0  0  0  0  0  0  0  0  0  0  0
   39.7400   25.6270   38.3520 N   0  0  0  0  0  0  0  0  0  0  0  0
   39.0240   26.9850   36.9140 H   0  0  0  0  0  0  0  0  0  0  0  0
   38.7280   28.8110   38.4570 H   0  0  0  0  0  0  0  0  0  0  0  0
   40.4320   24.4940   40.0320 H   0  0  0  0  0  0  0  0  0  0  0  0
   37.1100   30.2210   40.7890 O   0  0  0  0  0  0  0  0  0  0  0  0
   37.7540   31.1110   40.0230 C   0  0  0  0  0  0  0  0  0  0  0  0
   37.0850   32.2900   39.9560 O   0  0  0  0  0  0  0  0  0  0  0  0
   39.7090   32.3710   36.1050 H   0  0  0  0  0  0  0  0  0  0  0  0
   39.8510   32.2670   37.1500 N   0  0  0  0  0  0  0  0  0  0  0  0
   38.8130   31.7900   37.8370 C   0  0  0  0  0  3  0  0  0  0  0  0
   38.8170   31.5960   39.1710 C   0  0  0  0  0  0  0  0  0  0  0  0
   40.0930   31.9850   39.6560 C   0  0  0  0  0  0  0  0  0  0  0  0
   40.2940   31.8720   40.9330 O   0  0  0  0  0  0  0  0  0  0  0  0
   41.1950   32.4660   39.0930 N   0  0  0  0  0  0  0  0  0  0  0  0
   40.9670   32.5750   37.7950 C   0  0  0  0  0  0  0  0  0  0  0  0
   41.8760   33.0160   37.0300 O   0  0  0  0  0  0  0  0  0  0  0  0
   42.0760   32.7130   39.5740 H   0  0  0  0  0  0  0  0  0  0  0  0
   36.8630   27.5650   41.6160 O   0  0  0  0  0  0  0  0  0  0  0  0
   36.9680   26.8380   42.7890 C   0  0  0  0  0  0  0  0  0  0  0  0
   36.6120   25.5080   42.6080 F   0  0  0  0  0  0  0  0  0  0  0  0
   38.2130   26.9710   43.3210 F   0  0  0  0  0  0  0  0  0  0  0  0
   36.0440   27.3760   43.6680 F   0  0  0  0  0  0  0  0  0  0  0  0
  2  1  2  1  0  0  0
  3  2  1  0  0  0  0
  4  9  2  0  0  0  0
  4  5  1  0  0  0  0
  5  6  2  0  0  0  0
  6  7  1  0  0  0  0
  6  3  1  0  0  0  0
  8 12  1  0  0  0  0
  8  7  2  0  0  0  0
  9  8  1  0  0  0  0
 10  4  1  0  0  0  0
 11  5  1  0  0  0  0
 13  2  1  0  0  0  0
 14 13  1  0  0  0  0
 15 14  2  0  0  0  0
 16 17  1  0  0  0  0
 17 23  1  0  0  0  0
 17 18  1  0  0  0  0
 18 19  2  0  0  0  0
 19 20  1  0  0  0  0
 19 14  1  0  0  0  0
 20 21  2  0  0  0  0
 22 25  1  0  0  0  0
 22 20  1  0  0  0  0
 23 22  1  0  0  0  0
 24 23  2  0  0  0  0
 26  2  1  0  0  0  0
 26 27  1  0  0  0  0
 27 29  1  0  0  0  0
 27 30  1  0  0  0  0
 28 27  1  0  0  0  0
M  END
>  <minimizedAffinity>
-4.93723679

$$$$
