
 OpenBabel03252508453D

 46 48  0  0  0  0  0  0  0  0999 V2000
   42.1610   31.8350   42.5230 N   0  0  0  0  0  0  0  0  0  0  0  0
   42.4360   30.8690   42.8140 H   0  0  0  0  0  0  0  0  0  0  0  0
   43.0210   32.4640   41.5760 C   0  0  0  0  0  0  0  0  0  0  0  0
   43.7210   31.7110   41.1100 H   0  0  0  0  0  0  0  0  0  0  0  0
   42.3990   32.8590   40.7540 H   0  0  0  0  0  0  0  0  0  0  0  0
   43.6120   34.8860   41.8410 C   0  0  0  0  0  0  0  0  0  0  0  0
   43.8760   33.5500   42.1330 C   0  0  0  0  0  0  0  0  0  0  0  0
   44.9470   33.2560   42.9510 C   0  0  0  0  0  0  0  0  0  0  0  0
   45.7190   34.2710   43.4510 C   0  0  0  0  0  0  0  0  0  0  0  0
   45.4820   35.5890   43.1810 C   0  0  0  0  0  0  0  0  0  0  0  0
   44.4010   35.8330   42.3590 C   0  0  0  0  0  0  0  0  0  0  0  0
   45.1880   32.2320   43.2020 H   0  0  0  0  0  0  0  0  0  0  0  0
   46.5660   34.0220   44.0980 H   0  0  0  0  0  0  0  0  0  0  0  0
   46.0600   36.4220   43.5500 H   0  0  0  0  0  0  0  0  0  0  0  0
   44.1320   36.8570   42.0860 H   0  0  0  0  0  0  0  0  0  0  0  0
   40.2260   35.8390   40.4730 C   0  0  0  0  0  0  0  0  0  0  0  0
   41.2560   35.6360   41.3980 C   0  0  0  0  0  0  0  0  0  0  0  0
   42.4680   35.1380   40.9730 C   0  0  0  0  0  0  0  0  0  0  0  0
   42.5820   34.8700   39.6400 N   0  0  0  0  0  0  0  0  0  0  0  0
   41.5850   35.0690   38.7520 C   0  0  0  0  0  0  0  0  0  0  0  0
   40.4090   35.5540   39.1840 N   0  0  0  0  0  0  0  0  0  0  0  0
   39.2740   36.2310   40.8110 H   0  0  0  0  0  0  0  0  0  0  0  0
   41.1480   35.8520   42.4340 H   0  0  0  0  0  0  0  0  0  0  0  0
   41.8710   34.7930   37.7320 H   0  0  0  0  0  0  0  0  0  0  0  0
   40.5190   31.8320   42.0220 S   0  0  0  0  0  0  0  0  0  0  0  0
   39.7690   32.9970   42.6250 O   0  0  0  0  0  0  0  0  0  0  0  0
   38.9230   32.9490   43.1340 H   0  0  0  0  0  0  0  0  0  0  0  0
   39.8560   30.5470   42.3770 O   0  0  0  0  0  0  0  0  0  0  0  0
   40.3030   29.6510   42.2570 H   0  0  0  0  0  0  0  0  0  0  0  0
   40.4990   32.0020   40.3490 O   0  0  0  0  0  0  0  0  0  0  0  0
   39.5250   31.1450   39.8460 C   0  0  0  0  0  0  0  0  0  0  0  0
   38.9500   31.7290   39.0780 H   0  0  0  0  0  0  0  0  0  0  0  0
   38.8320   30.7440   40.5790 H   0  0  0  0  0  0  0  0  0  0  0  0
   40.2210   30.0190   39.0560 C   0  0  0  0  0  0  0  0  0  0  0  0
   41.2220   30.3790   38.7490 H   0  0  0  0  0  0  0  0  0  0  0  0
   40.3660   29.1490   39.7070 H   0  0  0  0  0  0  0  0  0  0  0  0
   39.3860   29.6640   37.9280 N   0  0  0  0  0  0  0  0  0  0  0  0
   39.2890   30.5100   36.8760 C   0  0  0  0  0  3  0  0  0  0  0  0
   38.4740   30.1190   35.8210 C   0  0  0  0  0  0  0  0  0  0  0  0
   38.3580   30.7680   34.9400 H   0  0  0  0  0  0  0  0  0  0  0  0
   37.8130   28.9100   35.8930 C   0  0  0  0  0  0  0  0  0  0  0  0
   37.0550   28.5100   34.9510 O   0  0  0  0  0  0  0  0  0  0  0  0
   37.9460   28.1020   36.9730 N   0  0  0  0  0  0  0  0  0  0  0  0
   38.7360   28.4860   37.9880 C   0  0  0  0  0  0  0  0  0  0  0  0
   38.8640   27.7250   39.0060 O   0  0  0  0  0  0  0  0  0  0  0  0
   37.4630   27.1810   37.0630 H   0  0  0  0  0  0  0  0  0  0  0  0
  1  2  1  0  0  0  0
  3  7  1  0  0  0  0
  3  1  1  0  0  0  0
  4  3  1  0  0  0  0
  5  3  1  0  0  0  0
  6  7  2  0  0  0  0
  6 11  1  0  0  0  0
  7  8  1  0  0  0  0
  8 12  1  0  0  0  0
  8  9  2  0  0  0  0
  9 13  1  0  0  0  0
 10  9  1  0  0  0  0
 10 14  1  0  0  0  0
 11 10  2  0  0  0  0
 15 11  1  0  0  0  0
 16 22  1  0  0  0  0
 16 17  1  0  0  0  0
 17 23  1  0  0  0  0
 18 17  2  0  0  0  0
 18  6  1  0  0  0  0
 19 18  1  0  0  0  0
 20 21  1  0  0  0  0
 20 19  2  0  0  0  0
 21 16  2  0  0  0  0
 24 20  1  0  0  0  0
 25 28  1  0  0  0  0
 25  1  1  0  0  0  0
 25 26  1  0  0  0  0
 26 27  1  0  0  0  0
 29 28  1  0  0  0  0
 30 25  1  0  0  0  0
 31 30  1  0  0  0  0
 31 33  1  0  0  0  0
 32 31  1  0  0  0  0
 34 36  1  0  0  0  0
 34 31  1  0  0  0  0
 35 34  1  0  0  0  0
 37 44  1  0  0  0  0
 37 34  1  0  0  0  0
 38 37  1  0  0  0  0
 39 41  1  0  0  0  0
 39 38  2  0  0  0  0
 40 39  1  0  0  0  0
 41 43  1  0  0  0  0
 42 41  2  0  0  0  0
 43 46  1  0  0  0  0
 43 44  1  0  0  0  0
 44 45  2  0  0  0  0
M  END
>  <minimizedAffinity>
-5.22496176

>  <minimizedRMSD>
2.15248775

$$$$
