
 OpenBabel03252506283D

 48 52  0  0  0  0  0  0  0  0999 V2000
   45.1220   29.9980   47.2980 C   0  0  0  0  0  0  0  0  0  0  0  0
   44.9890   30.8040   48.4350 C   0  0  0  0  0  0  0  0  0  0  0  0
   45.5560   32.0060   48.1970 C   0  0  0  0  0  0  0  0  0  0  0  0
   46.0240   31.9470   46.9490 N   0  0  0  0  0  0  0  0  0  0  0  0
   45.7750   30.7560   46.3970 N   0  0  0  0  0  0  0  0  0  0  0  0
   44.4980   30.4860   49.3660 H   0  0  0  0  0  0  0  0  0  0  0  0
   45.5900   32.8140   48.9140 H   0  0  0  0  0  0  0  0  0  0  0  0
   43.3140   27.0730   46.0750 C   0  0  0  0  0  0  0  0  0  0  0  0
   43.6940   26.0670   46.9550 C   0  0  0  0  0  0  0  0  0  0  0  0
   44.5810   26.4110   47.9720 C   0  0  0  0  0  0  0  0  0  0  0  0
   45.0100   27.6990   48.0360 N   0  0  0  0  0  0  0  0  0  0  0  0
   44.6320   28.6360   47.1850 C   0  0  0  0  0  0  0  0  0  0  0  0
   43.7740   28.3150   46.1940 N   0  0  0  0  0  0  0  0  0  0  0  0
   42.6190   26.7590   45.2930 H   0  0  0  0  0  0  0  0  0  0  0  0
   43.3860   25.0370   46.9500 H   0  0  0  0  0  0  0  0  0  0  0  0
   45.0780   25.4980   48.9680 N   0  0  0  0  0  0  0  0  0  0  0  0
   46.0760   24.6250   48.7470 C   0  0  0  0  0  3  0  0  0  0  0  0
   46.5100   23.7710   49.7500 C   0  0  0  0  0  0  0  0  0  0  0  0
   47.3130   23.0720   49.5660 H   0  0  0  0  0  0  0  0  0  0  0  0
   45.8920   23.8400   50.9810 C   0  0  0  0  0  0  0  0  0  0  0  0
   46.2340   23.0970   51.9380 O   0  0  0  0  0  0  0  0  0  0  0  0
   44.8950   24.7420   51.1380 N   0  0  0  0  0  0  0  0  0  0  0  0
   44.4650   25.5830   50.1540 C   0  0  0  0  0  0  0  0  0  0  0  0
   43.5270   26.3510   50.4880 O   0  0  0  0  0  0  0  0  0  0  0  0
   44.4510   24.7600   52.0990 H   0  0  0  0  0  0  0  0  0  0  0  0
   46.7230   33.0200   46.2470 C   0  0  0  0  0  0  0  0  0  0  0  0
   47.7870   33.0770   46.5720 H   0  0  0  0  0  0  0  0  0  0  0  0
   46.2730   33.9850   46.4770 H   0  0  0  0  0  0  0  0  0  0  0  0
   46.7060   32.7920   44.7870 C   0  0  0  0  0  0  0  0  0  0  0  0
   46.4550   31.7120   44.6090 H   0  0  0  0  0  0  0  0  0  0  0  0
   47.7550   32.8830   44.4150 H   0  0  0  0  0  0  0  0  0  0  0  0
   45.8190   35.0440   43.9670 C   0  0  0  0  0  0  0  0  0  0  0  0
   45.8850   33.6720   43.9800 C   0  0  0  0  0  0  0  0  0  0  0  0
   45.0430   33.0030   43.0860 C   0  0  0  0  0  0  0  0  0  0  0  0
   44.1900   33.6850   42.2380 C   0  0  0  0  0  0  0  0  0  0  0  0
   43.2960   33.3240   41.3040 N   0  0  0  0  0  0  0  0  0  0  0  0
   42.7120   34.3820   40.7470 C   0  0  0  0  0  0  0  0  0  0  0  0
   43.2380   35.5290   41.3350 C   0  0  0  0  0  0  0  0  0  0  0  0
   44.1420   35.0510   42.2440 C   0  0  0  0  0  0  0  0  0  0  0  0
   44.9710   35.7180   43.1240 C   0  0  0  0  0  0  0  0  0  0  0  0
   46.4850   35.5260   44.6710 H   0  0  0  0  0  0  0  0  0  0  0  0
   44.9870   31.9230   42.9840 H   0  0  0  0  0  0  0  0  0  0  0  0
   43.0680   32.3330   41.0290 H   0  0  0  0  0  0  0  0  0  0  0  0
   41.9520   34.4390   39.9690 H   0  0  0  0  0  0  0  0  0  0  0  0
   42.9730   36.5530   41.1040 H   0  0  0  0  0  0  0  0  0  0  0  0
   44.9410   37.1820   43.1530 C   0  0  0  0  0  0  0  0  0  0  0  0
   45.0870   37.8020   44.2490 O   0  0  0  0  0  0  0  0  0  0  0  0
   44.7960   37.7550   42.2480 H   0  0  0  0  0  0  0  0  0  0  0  0
  1  2  1  0  0  0  0
  2  6  1  0  0  0  0
  3  2  2  0  0  0  0
  3  7  1  0  0  0  0
  4  3  1  0  0  0  0
  5  4  1  0  0  0  0
  5  1  2  0  0  0  0
  8 13  2  0  0  0  0
  8  9  1  0  0  0  0
  9 10  2  0  0  0  0
 10 11  1  0  0  0  0
 10 16  1  0  0  0  0
 12  1  1  0  0  0  0
 12 11  2  0  0  0  0
 13 12  1  0  0  0  0
 14  8  1  0  0  0  0
 15  9  1  0  0  0  0
 16 23  1  0  0  0  0
 17 16  1  0  0  0  0
 17 18  2  0  0  0  0
 18 20  1  0  0  0  0
 19 18  1  0  0  0  0
 20 22  1  0  0  0  0
 20 21  2  0  0  0  0
 22 25  1  0  0  0  0
 23 24  2  0  0  0  0
 23 22  1  0  0  0  0
 26 28  1  0  0  0  0
 26 27  1  0  0  0  0
 26  4  1  0  0  0  0
 29 26  1  0  0  0  0
 30 29  1  0  0  0  0
 31 29  1  0  0  0  0
 32 33  1  0  0  0  0
 32 41  1  0  0  0  0
 33 29  1  0  0  0  0
 34 33  2  0  0  0  0
 35 39  2  0  0  0  0
 35 34  1  0  0  0  0
 36 35  1  0  0  0  0
 37 36  1  0  0  0  0
 37 38  2  0  0  0  0
 38 39  1  0  0  0  0
 39 40  1  0  0  0  0
 40 46  1  0  0  0  0
 40 32  2  0  0  0  0
 42 34  1  0  0  0  0
 43 36  1  0  0  0  0
 44 37  1  0  0  0  0
 45 38  1  0  0  0  0
 46 47  2  0  0  0  0
 48 46  1  0  0  0  0
M  END
>  <minimizedAffinity>
-6.82043791

>  <minimizedRMSD>
10.1635303

$$$$
