
 OpenBabel03252507043D

 48 51  0  0  0  0  0  0  0  0999 V2000
   41.7720   31.8710   41.8860 C   0  0  0  0  0  0  0  0  0  0  0  0
   41.3130   32.2970   42.8040 H   0  0  0  0  0  0  0  0  0  0  0  0
   41.7280   32.7450   41.1470 H   0  0  0  0  0  0  0  0  0  0  0  0
   41.1480   30.7720   41.4460 N   0  0  0  0  0  0  0  0  0  0  0  0
   40.8790   29.5770   42.1810 C   0  0  0  0  0  0  0  0  0  0  0  0
   39.3850   29.7650   42.4040 C   0  0  0  0  0  0  0  0  0  0  0  0
   38.6060   29.8710   41.1830 C   0  0  0  0  0  0  0  0  0  0  0  0
   39.2620   30.3090   39.9710 C   0  0  0  0  0  0  0  0  0  0  0  0
   40.6730   30.8460   40.0450 C   0  0  0  0  0  0  0  0  0  0  0  0
   41.1670   28.6260   41.7690 H   0  0  0  0  0  0  0  0  0  0  0  0
   41.3410   29.6590   43.1900 H   0  0  0  0  0  0  0  0  0  0  0  0
   39.0590   28.9140   43.0630 H   0  0  0  0  0  0  0  0  0  0  0  0
   39.2770   30.6630   43.0450 H   0  0  0  0  0  0  0  0  0  0  0  0
   37.7290   30.5420   41.3740 H   0  0  0  0  0  0  0  0  0  0  0  0
   38.1480   28.8610   40.9610 H   0  0  0  0  0  0  0  0  0  0  0  0
   38.8390   30.3140   39.0160 H   0  0  0  0  0  0  0  0  0  0  0  0
   41.5790   31.4130   38.6980 S   0  0  0  0  0  0  0  0  0  0  0  0
   39.3730   35.4100   37.5570 H   0  0  0  0  0  0  0  0  0  0  0  0
   40.2660   34.9160   37.7680 N   0  0  0  0  0  0  0  0  0  0  0  0
   40.4590   33.6060   38.1020 C   0  0  0  0  0  3  0  0  0  0  0  0
   41.7450   33.0940   38.3580 C   0  0  0  0  0  0  0  0  0  0  0  0
   42.7450   34.0240   38.2390 C   0  0  0  0  0  0  0  0  0  0  0  0
   43.8840   33.5610   38.4600 O   0  0  0  0  0  0  0  0  0  0  0  0
   42.5960   35.3150   37.9160 N   0  0  0  0  0  0  0  0  0  0  0  0
   41.3400   35.7180   37.6890 C   0  0  0  0  0  0  0  0  0  0  0  0
   41.2530   36.9400   37.3880 O   0  0  0  0  0  0  0  0  0  0  0  0
   43.4650   35.8840   37.8700 H   0  0  0  0  0  0  0  0  0  0  0  0
   43.2260   31.6830   42.1310 C   0  0  0  0  0  0  0  0  0  0  0  0
   43.4620   31.1610   43.0790 H   0  0  0  0  0  0  0  0  0  0  0  0
   43.6070   30.9970   41.3260 H   0  0  0  0  0  0  0  0  0  0  0  0
   43.8920   32.9920   42.0020 C   0  0  0  0  0  0  0  0  0  0  0  0
   43.1490   34.1320   41.7800 C   0  0  0  0  0  0  0  0  0  0  0  0
   43.8200   35.3410   41.6520 C   0  0  0  0  0  0  0  0  0  0  0  0
   45.1850   35.3350   41.7560 N   0  0  0  0  0  0  0  0  0  0  0  0
   45.8640   34.2130   41.9730 C   0  0  0  0  0  0  0  0  0  0  0  0
   45.2020   33.0570   42.0920 N   0  0  0  0  0  0  0  0  0  0  0  0
   42.0960   34.3420   41.6860 H   0  0  0  0  0  0  0  0  0  0  0  0
   43.4050   36.3360   41.4730 H   0  0  0  0  0  0  0  0  0  0  0  0
   47.3150   34.3080   42.1020 C   0  0  0  0  0  0  0  0  0  0  0  0
   48.0550   33.2180   42.5540 C   0  0  0  0  0  0  0  0  0  0  0  0
   49.4250   33.3250   42.6870 C   0  0  0  0  0  0  0  0  0  0  0  0
   49.9420   34.5540   42.3420 C   0  0  0  0  0  0  0  0  0  0  0  0
   49.2470   35.6620   41.8900 C   0  0  0  0  0  0  0  0  0  0  0  0
   47.9070   35.4790   41.7860 N   0  0  0  0  0  0  0  0  0  0  0  0
   47.5820   32.2710   42.8100 H   0  0  0  0  0  0  0  0  0  0  0  0
   50.0760   32.5350   43.0300 H   0  0  0  0  0  0  0  0  0  0  0  0
   51.0230   34.6800   42.4340 H   0  0  0  0  0  0  0  0  0  0  0  0
   49.7430   36.5870   41.6430 H   0  0  0  0  0  0  0  0  0  0  0  0
  1 28  1  0  0  0  0
  1  2  1  0  0  0  0
  3  1  1  0  0  0  0
  4  1  1  0  0  0  0
  4  5  1  0  0  0  0
  5  6  1  0  0  0  0
  5 11  1  0  0  0  0
  6 13  1  0  0  0  0
  6 12  1  0  0  0  0
  7 14  1  0  0  0  0
  7  6  1  0  0  0  0
  8  9  2  0  0  0  0
  8  7  1  0  0  0  0
  9  4  1  0  0  0  0
 10  5  1  0  0  0  0
 15  7  1  0  0  0  0
 16  8  1  0  0  0  0
 17  9  1  0  0  0  0
 18 19  1  0  0  0  0
 19 20  1  0  0  0  0
 20 21  2  0  0  0  0
 21 17  1  0  0  0  0
 22 21  1  0  0  0  0
 22 23  2  0  0  0  0
 24 22  1  0  0  0  0
 25 19  1  0  0  0  0
 25 24  1  0  0  0  0
 26 25  2  0  0  0  0
 27 24  1  0  0  0  0
 28 29  1  0  0  0  0
 30 28  1  0  0  0  0
 31 36  1  0  0  0  0
 31 28  1  0  0  0  0
 32 31  2  0  0  0  0
 33 34  2  0  0  0  0
 33 32  1  0  0  0  0
 34 35  1  0  0  0  0
 35 36  2  0  0  0  0
 35 39  1  0  0  0  0
 37 32  1  0  0  0  0
 38 33  1  0  0  0  0
 39 40  1  0  0  0  0
 40 41  2  0  0  0  0
 40 45  1  0  0  0  0
 41 46  1  0  0  0  0
 42 47  1  0  0  0  0
 42 41  1  0  0  0  0
 43 42  2  0  0  0  0
 44 43  1  0  0  0  0
 44 39  2  0  0  0  0
 48 43  1  0  0  0  0
M  END
>  <minimizedAffinity>
-5.65535641

>  <minimizedRMSD>
3.08850789

$$$$
