REMARK  Name = 
REMARK  3 active torsions:
REMARK  status: ('A' for Active; 'I' for Inactive)
REMARK    1  A    between atoms: C_2  and  C_7
REMARK    2  A    between atoms: C_7  and  O_8
REMARK    3  A    between atoms: O_8  and  C_17
REMARK                            x       y       z     vdW  Elec       q    Type
REMARK                         _______ _______ _______ _____ _____    ______ ____
ROOT
ATOM      1  C   UNL     1      44.249  35.706  41.993  0.00  0.00    +0.000 C 
ATOM      2  H   UNL     1      44.949  35.350  41.207  0.00  0.00    +0.000 HD
ATOM      3  H   UNL     1      44.423  36.816  42.033  0.00  0.00    +0.000 HD
ENDROOT
BRANCH   1   5
ATOM      4  C   UNL     1      44.386  35.761  44.398  0.00  0.00    +0.000 A 
ATOM      5  C   UNL     1      44.656  35.060  43.243  0.00  0.00    +0.000 A 
ATOM      6  C   UNL     1      45.275  33.833  43.376  0.00  0.00    +0.000 A 
ATOM      7  N   UNL     1      45.575  33.402  44.622  0.00  0.00    +0.000 NA
ATOM      8  C   UNL     1      45.301  34.103  45.732  0.00  0.00    +0.000 A 
ATOM      9  N   UNL     1      44.685  35.333  45.660  0.00  0.00    +0.000 NA
ATOM     10  H   UNL     1      43.895  36.747  44.405  0.00  0.00    +0.000 HD
ATOM     11  H   UNL     1      45.480  33.297  42.464  0.00  0.00    +0.000 HD
ATOM     12  H   UNL     1      45.644  33.534  46.594  0.00  0.00    +0.000 HD
ENDBRANCH   1   5
BRANCH   1  13
ATOM     13  O   UNL     1      42.965  35.386  41.580  0.00  0.00    +0.000 OA
BRANCH  13  17
ATOM     14  H   UNL     1      42.342  38.473  38.345  0.00  0.00    +0.000 HD
ATOM     15  N   UNL     1      42.140  37.540  38.792  0.00  0.00    +0.000 N 
ATOM     16  C   UNL     1      42.736  37.140  39.912  0.00  0.00    +0.000 A 
ATOM     17  C   UNL     1      42.405  35.900  40.420  0.00  0.00    +0.000 A 
ATOM     18  C   UNL     1      41.467  35.148  39.727  0.00  0.00    +0.000 A 
ATOM     19  O   UNL     1      41.164  34.015  40.193  0.00  0.00    +0.000 OA
ATOM     20  N   UNL     1      40.877  35.581  38.590  0.00  0.00    +0.000 N 
ATOM     21  C   UNL     1      41.230  36.809  38.121  0.00  0.00    +0.000 A 
ATOM     22  O   UNL     1      40.645  37.152  37.061  0.00  0.00    +0.000 OA
ATOM     23  H   UNL     1      40.168  34.987  38.087  0.00  0.00    +0.000 HD
ENDBRANCH  13  17
ENDBRANCH   1  13
TORSDOF 3
