
 OpenBabel03252509013D

 46 48  0  0  1  0  0  0  0  0999 V2000
   46.6150   34.6490   43.4670 N   0  0  0  0  0  0  0  0  0  0  0  0
   46.0670   35.6240   42.5830 C   0  0  0  0  0  0  0  0  0  0  0  0
   44.5650   35.7370   42.5960 C   0  0  0  0  0  0  0  0  0  0  0  0
   43.9230   35.4360   43.9190 C   0  0  0  0  0  0  0  0  0  0  0  0
   44.9590   35.2170   44.9980 C   0  0  0  0  0  0  0  0  0  0  0  0
   45.8200   34.0340   44.4200 C   0  0  2  0  0  0  0  0  0  0  0  0
   46.4630   36.6110   42.9440 H   0  0  0  0  0  0  0  0  0  0  0  0
   46.3880   35.5580   41.5420 H   0  0  0  0  0  0  0  0  0  0  0  0
   44.1160   35.1350   41.7730 H   0  0  0  0  0  0  0  0  0  0  0  0
   44.2890   36.7920   42.3610 H   0  0  0  0  0  0  0  0  0  0  0  0
   43.3770   34.4690   43.8000 H   0  0  0  0  0  0  0  0  0  0  0  0
   43.1380   36.1720   44.2110 H   0  0  0  0  0  0  0  0  0  0  0  0
   45.5920   36.1040   45.0930 H   0  0  0  0  0  0  0  0  0  0  0  0
   44.4720   34.8950   45.9260 H   0  0  0  0  0  0  0  0  0  0  0  0
   45.1190   33.2590   44.0750 H   0  0  0  0  0  0  0  0  0  0  0  0
   47.7350   33.9320   42.9340 C   0  0  0  0  0  0  0  0  0  0  0  0
   48.3640   34.6280   42.3650 H   0  0  0  0  0  0  0  0  0  0  0  0
   48.3210   33.5190   43.7840 H   0  0  0  0  0  0  0  0  0  0  0  0
   47.2290   32.7890   42.1090 C   0  0  0  0  0  0  0  0  0  0  0  0
   47.4980   31.8150   42.5360 H   0  0  0  0  0  0  0  0  0  0  0  0
   46.1230   32.8090   42.0390 H   0  0  0  0  0  0  0  0  0  0  0  0
   49.0530   31.9790   38.9210 C   0  0  0  0  0  0  0  0  0  0  0  0
   48.5370   31.8690   40.2310 C   0  0  0  0  0  0  0  0  0  0  0  0
   47.7730   32.9020   40.7300 C   0  0  0  0  0  0  0  0  0  0  0  0
   47.5520   33.9720   39.9410 N   0  0  0  0  0  0  0  0  0  0  0  0
   48.0590   34.0480   38.6940 C   0  0  0  0  0  0  0  0  0  0  0  0
   48.8060   33.0680   38.1720 N   0  0  0  0  0  0  0  0  0  0  0  0
   49.6420   31.1400   38.5900 H   0  0  0  0  0  0  0  0  0  0  0  0
   48.7160   31.0030   40.8680 H   0  0  0  0  0  0  0  0  0  0  0  0
   47.8850   34.9060   38.0540 H   0  0  0  0  0  0  0  0  0  0  0  0
   46.5660   33.6680   45.5410 O   0  0  0  0  0  0  0  0  0  0  0  0
   45.6450   31.2440   44.9450 O   0  0  0  0  0  0  0  0  0  0  0  0
   46.1960   32.1090   46.0760 P   0  0  2  0  0  0  0  0  0  0  0  0
   44.9150   32.2920   47.1960 O   0  0  0  0  0  0  0  0  0  0  0  0
   45.1480   32.9840   47.8590 H   0  0  0  0  0  0  0  0  0  0  0  0
   47.4740   31.4080   46.8730 O   0  0  0  0  0  0  0  0  0  0  0  0
   49.7920   27.7590   46.0180 H   0  0  0  0  0  0  0  0  0  0  0  0
   48.9610   28.1970   46.4910 N   0  0  0  0  0  0  0  0  0  0  0  0
   48.6800   29.5300   46.4250 C   0  0  0  0  0  3  0  0  0  0  0  0
   47.5540   30.0410   47.0790 C   0  0  0  0  0  0  0  0  0  0  0  0
   46.7620   29.1580   47.7740 C   0  0  0  0  0  0  0  0  0  0  0  0
   45.7870   29.7350   48.3160 O   0  0  0  0  0  0  0  0  0  0  0  0
   47.0850   27.8630   47.8050 N   0  0  0  0  0  0  0  0  0  0  0  0
   48.1620   27.3690   47.1800 C   0  0  0  0  0  0  0  0  0  0  0  0
   48.3070   26.1330   47.3170 O   0  0  0  0  0  0  0  0  0  0  0  0
   46.4060   27.2790   48.3680 H   0  0  0  0  0  0  0  0  0  0  0  0
  1  6  1  0  0  0  0
  2  3  1  0  0  0  0
  2  7  1  0  0  0  0
  2  1  1  0  0  0  0
  3  4  1  0  0  0  0
  4 12  1  0  0  0  0
  4  5  1  0  0  0  0
  5 13  1  0  0  0  0
  5 14  1  0  0  0  0
  6 15  1  6  0  0  0
  6  5  1  0  0  0  0
  6 31  1  0  0  0  0
  8  2  1  0  0  0  0
  9  3  1  0  0  0  0
 10  3  1  0  0  0  0
 11  4  1  0  0  0  0
 16  1  1  0  0  0  0
 16 18  1  0  0  0  0
 17 16  1  0  0  0  0
 19 20  1  0  0  0  0
 19 16  1  0  0  0  0
 21 19  1  0  0  0  0
 22 23  1  0  0  0  0
 23 24  2  0  0  0  0
 23 29  1  0  0  0  0
 24 19  1  0  0  0  0
 25 24  1  0  0  0  0
 26 25  2  0  0  0  0
 27 26  1  0  0  0  0
 27 22  2  0  0  0  0
 28 22  1  0  0  0  0
 30 26  1  0  0  0  0
 31 33  1  0  0  0  0
 33 32  2  6  0  0  0
 33 36  1  0  0  0  0
 33 34  1  0  0  0  0
 34 35  1  0  0  0  0
 36 40  1  0  0  0  0
 37 38  1  0  0  0  0
 38 44  1  0  0  0  0
 39 38  1  0  0  0  0
 39 40  2  0  0  0  0
 40 41  1  0  0  0  0
 41 43  1  0  0  0  0
 41 42  2  0  0  0  0
 43 46  1  0  0  0  0
 44 45  2  0  0  0  0
 44 43  1  0  0  0  0
M  END
>  <minimizedAffinity>
-4.54360914

>  <minimizedRMSD>
1.20583844

$$$$
