
 OpenBabel03252505283D

 25 26  0  0  0  0  0  0  0  0999 V2000
   35.7940   29.9920   39.0160 O   0  0  0  0  0  0  0  0  0  0  0  0
   36.5810   30.7640   40.0760 P   0  0  1  0  0  0  0  0  0  0  0  0
   35.6420   31.0810   41.4400 O   0  0  0  0  0  0  0  0  0  0  0  0
   35.6210   32.0170   41.7150 H   0  0  0  0  0  0  0  0  0  0  0  0
   37.9190   29.8240   40.4740 O   0  0  0  0  0  0  0  0  0  0  0  0
   39.4050   27.9210   43.0900 C   0  0  0  0  0  0  0  0  0  0  0  0
   38.3420   27.2300   43.6780 C   0  0  0  0  0  0  0  0  0  0  0  0
   37.0620   27.4530   43.1220 C   0  0  0  0  0  0  0  0  0  0  0  0
   36.9570   28.3050   42.0770 N   0  0  0  0  0  0  0  0  0  0  0  0
   38.0170   28.9480   41.5460 C   0  0  0  0  0  0  0  0  0  0  0  0
   39.2420   28.7620   42.0450 N   0  0  0  0  0  0  0  0  0  0  0  0
   40.3670   27.7180   43.5520 H   0  0  0  0  0  0  0  0  0  0  0  0
   38.4970   26.5570   44.5200 H   0  0  0  0  0  0  0  0  0  0  0  0
   36.2160   26.9370   43.5490 H   0  0  0  0  0  0  0  0  0  0  0  0
   37.0070   32.2460   39.3860 O   0  0  0  0  0  0  0  0  0  0  0  0
   39.9270   31.6760   35.9610 H   0  0  0  0  0  0  0  0  0  0  0  0
   39.7460   32.0290   36.9300 N   0  0  0  0  0  0  0  0  0  0  0  0
   38.5140   31.8760   37.4380 C   0  0  0  0  0  3  0  0  0  0  0  0
   38.2190   32.3220   38.7100 C   0  0  0  0  0  0  0  0  0  0  0  0
   39.2330   32.9350   39.4490 C   0  0  0  0  0  0  0  0  0  0  0  0
   39.1370   33.4020   40.6290 O   0  0  0  0  0  0  0  0  0  0  0  0
   40.4610   33.0850   38.9350 N   0  0  0  0  0  0  0  0  0  0  0  0
   40.7020   32.6330   37.6890 C   0  0  0  0  0  0  0  0  0  0  0  0
   41.8240   32.7170   37.0940 O   0  0  0  0  0  0  0  0  0  0  0  0
   41.2730   33.5260   39.4100 H   0  0  0  0  0  0  0  0  0  0  0  0
  2  1  2  6  0  0  0
  2  5  1  0  0  0  0
  2  3  1  0  0  0  0
  3  4  1  0  0  0  0
  5 10  1  0  0  0  0
  6 12  1  0  0  0  0
  6  7  1  0  0  0  0
  7 13  1  0  0  0  0
  8 14  1  0  0  0  0
  8  7  2  0  0  0  0
  9  8  1  0  0  0  0
 10 11  1  0  0  0  0
 10  9  2  0  0  0  0
 11  6  2  0  0  0  0
 15  2  1  0  0  0  0
 16 17  1  0  0  0  0
 17 18  1  0  0  0  0
 17 23  1  0  0  0  0
 18 19  2  0  0  0  0
 19 15  1  0  0  0  0
 19 20  1  0  0  0  0
 20 21  2  0  0  0  0
 22 25  1  0  0  0  0
 22 20  1  0  0  0  0
 23 22  1  0  0  0  0
 24 23  2  0  0  0  0
M  END
>  <minimizedAffinity>
-5.46507549

$$$$

 OpenBabel03252505283D

 25 26  0  0  0  0  0  0  0  0999 V2000
   36.0480   30.1040   38.9410 O   0  0  0  0  0  0  0  0  0  0  0  0
   36.8160   30.8520   40.0330 P   0  0  1  0  0  0  0  0  0  0  0  0
   35.8430   31.1680   41.3720 O   0  0  0  0  0  0  0  0  0  0  0  0
   35.8280   32.1000   41.6570 H   0  0  0  0  0  0  0  0  0  0  0  0
   38.1270   29.8870   40.4580 O   0  0  0  0  0  0  0  0  0  0  0  0
   37.0130   27.7350   43.0670 C   0  0  0  0  0  0  0  0  0  0  0  0
   38.1840   27.2800   43.6790 C   0  0  0  0  0  0  0  0  0  0  0  0
   39.4020   27.7570   43.1420 C   0  0  0  0  0  0  0  0  0  0  0  0
   39.3500   28.6060   42.0910 N   0  0  0  0  0  0  0  0  0  0  0  0
   38.1900   29.0150   41.5370 C   0  0  0  0  0  0  0  0  0  0  0  0
   37.0200   28.5860   42.0170 N   0  0  0  0  0  0  0  0  0  0  0  0
   36.1050   27.3420   43.5130 H   0  0  0  0  0  0  0  0  0  0  0  0
   38.1550   26.5940   44.5250 H   0  0  0  0  0  0  0  0  0  0  0  0
   40.3270   27.4280   43.5890 H   0  0  0  0  0  0  0  0  0  0  0  0
   37.2840   32.3350   39.3730 O   0  0  0  0  0  0  0  0  0  0  0  0
   41.7510   33.1270   39.3930 H   0  0  0  0  0  0  0  0  0  0  0  0
   40.8970   32.8470   38.8560 N   0  0  0  0  0  0  0  0  0  0  0  0
   39.7270   32.7990   39.5100 C   0  0  0  0  0  3  0  0  0  0  0  0
   38.5690   32.4360   38.8530 C   0  0  0  0  0  0  0  0  0  0  0  0
   38.6500   32.1210   37.4950 C   0  0  0  0  0  0  0  0  0  0  0  0
   37.6890   31.7690   36.7390 O   0  0  0  0  0  0  0  0  0  0  0  0
   39.8210   32.1710   36.8470 N   0  0  0  0  0  0  0  0  0  0  0  0
   40.9240   32.5310   37.5310 C   0  0  0  0  0  0  0  0  0  0  0  0
   42.0920   32.6160   37.0290 O   0  0  0  0  0  0  0  0  0  0  0  0
   39.9750   31.9550   35.8430 H   0  0  0  0  0  0  0  0  0  0  0  0
  2  1  2  6  0  0  0
  2  5  1  0  0  0  0
  2  3  1  0  0  0  0
  3  4  1  0  0  0  0
  5 10  1  0  0  0  0
  6 12  1  0  0  0  0
  6  7  1  0  0  0  0
  7 13  1  0  0  0  0
  8 14  1  0  0  0  0
  8  7  2  0  0  0  0
  9  8  1  0  0  0  0
 10 11  1  0  0  0  0
 10  9  2  0  0  0  0
 11  6  2  0  0  0  0
 15  2  1  0  0  0  0
 17 16  1  0  0  0  0
 17 18  1  0  0  0  0
 19 15  1  0  0  0  0
 19 18  2  0  0  0  0
 20 19  1  0  0  0  0
 21 20  2  0  0  0  0
 22 20  1  0  0  0  0
 22 23  1  0  0  0  0
 23 17  1  0  0  0  0
 24 23  2  0  0  0  0
 25 22  1  0  0  0  0
M  END
>  <minimizedAffinity>
-5.32580471

$$$$

 OpenBabel03252505283D

 25 26  0  0  0  0  0  0  0  0999 V2000
   35.6320   28.5790   40.1030 O   0  0  0  0  0  0  0  0  0  0  0  0
   36.4000   29.4590   41.0900 P   0  0  1  0  0  0  0  0  0  0  0  0
   35.5650   30.8820   41.4340 O   0  0  0  0  0  0  0  0  0  0  0  0
   36.0810   31.7000   41.3130 H   0  0  0  0  0  0  0  0  0  0  0  0
   36.6310   28.5460   42.4840 O   0  0  0  0  0  0  0  0  0  0  0  0
   39.5990   26.9380   43.6150 C   0  0  0  0  0  0  0  0  0  0  0  0
   39.5260   25.6440   43.0920 C   0  0  0  0  0  0  0  0  0  0  0  0
   38.3850   25.3420   42.3140 C   0  0  0  0  0  0  0  0  0  0  0  0
   37.4590   26.3110   42.1340 N   0  0  0  0  0  0  0  0  0  0  0  0
   37.5770   27.5460   42.6630 C   0  0  0  0  0  0  0  0  0  0  0  0
   38.6410   27.8680   43.4030 N   0  0  0  0  0  0  0  0  0  0  0  0
   40.4920   27.1210   44.2050 H   0  0  0  0  0  0  0  0  0  0  0  0
   40.3100   24.9110   43.2750 H   0  0  0  0  0  0  0  0  0  0  0  0
   38.2940   24.3540   41.8920 H   0  0  0  0  0  0  0  0  0  0  0  0
   37.8530   29.8820   40.3390 O   0  0  0  0  0  0  0  0  0  0  0  0
   37.8150   29.9020   35.8020 H   0  0  0  0  0  0  0  0  0  0  0  0
   37.7680   30.4430   36.6970 N   0  0  0  0  0  0  0  0  0  0  0  0
   37.8450   29.7640   37.8510 C   0  0  0  0  0  3  0  0  0  0  0  0
   37.7890   30.4250   39.0610 C   0  0  0  0  0  0  0  0  0  0  0  0
   37.6490   31.8140   39.0500 C   0  0  0  0  0  0  0  0  0  0  0  0
   37.5810   32.5780   40.0660 O   0  0  0  0  0  0  0  0  0  0  0  0
   37.5730   32.4870   37.8950 N   0  0  0  0  0  0  0  0  0  0  0  0
   37.6320   31.7980   36.7390 C   0  0  0  0  0  0  0  0  0  0  0  0
   37.5710   32.3230   35.5800 O   0  0  0  0  0  0  0  0  0  0  0  0
   37.4690   33.5160   37.7910 H   0  0  0  0  0  0  0  0  0  0  0  0
  2  1  2  6  0  0  0
  2  3  1  0  0  0  0
  2  5  1  0  0  0  0
  4  3  1  0  0  0  0
  5 10  1  0  0  0  0
  6 12  1  0  0  0  0
  7 13  1  0  0  0  0
  7  6  2  0  0  0  0
  8  7  1  0  0  0  0
  9  8  2  0  0  0  0
  9 10  1  0  0  0  0
 10 11  2  0  0  0  0
 11  6  1  0  0  0  0
 14  8  1  0  0  0  0
 15  2  1  0  0  0  0
 16 17  1  0  0  0  0
 17 23  1  0  0  0  0
 17 18  1  0  0  0  0
 18 19  2  0  0  0  0
 19 15  1  0  0  0  0
 20 19  1  0  0  0  0
 20 21  2  0  0  0  0
 22 20  1  0  0  0  0
 23 22  1  0  0  0  0
 24 23  2  0  0  0  0
 25 22  1  0  0  0  0
M  END
>  <minimizedAffinity>
-4.96949482

$$$$

 OpenBabel03252505283D

 25 26  0  0  0  0  0  0  0  0999 V2000
   37.0290   32.4030   38.6190 O   0  0  0  0  0  0  0  0  0  0  0  0
   37.6320   31.8680   39.9180 P   0  0  1  0  0  0  0  0  0  0  0  0
   37.9670   33.1100   41.0070 O   0  0  0  0  0  0  0  0  0  0  0  0
   38.8780   33.1170   41.3540 H   0  0  0  0  0  0  0  0  0  0  0  0
   36.5180   30.7860   40.5660 O   0  0  0  0  0  0  0  0  0  0  0  0
   36.4520   27.4960   41.9260 C   0  0  0  0  0  0  0  0  0  0  0  0
   37.2870   27.5550   43.0450 C   0  0  0  0  0  0  0  0  0  0  0  0
   37.8870   28.8060   43.3180 C   0  0  0  0  0  0  0  0  0  0  0  0
   37.6160   29.8400   42.4900 N   0  0  0  0  0  0  0  0  0  0  0  0
   36.8020   29.7290   41.4210 C   0  0  0  0  0  0  0  0  0  0  0  0
   36.2160   28.5640   41.1320 N   0  0  0  0  0  0  0  0  0  0  0  0
   36.0150   26.5160   41.7580 H   0  0  0  0  0  0  0  0  0  0  0  0
   37.4630   26.6820   43.6720 H   0  0  0  0  0  0  0  0  0  0  0  0
   38.5380   28.8900   44.1740 H   0  0  0  0  0  0  0  0  0  0  0  0
   39.0960   31.1310   39.5100 O   0  0  0  0  0  0  0  0  0  0  0  0
   41.2080   32.8870   35.8990 H   0  0  0  0  0  0  0  0  0  0  0  0
   41.1380   32.8080   36.9400 N   0  0  0  0  0  0  0  0  0  0  0  0
   40.1730   32.0300   37.4510 C   0  0  0  0  0  3  0  0  0  0  0  0
   40.0330   31.8890   38.8170 C   0  0  0  0  0  0  0  0  0  0  0  0
   40.9200   32.5750   39.6470 C   0  0  0  0  0  0  0  0  0  0  0  0
   40.9370   32.5600   40.9200 O   0  0  0  0  0  0  0  0  0  0  0  0
   41.8830   33.3510   39.1310 N   0  0  0  0  0  0  0  0  0  0  0  0
   41.9800   33.4570   37.7920 C   0  0  0  0  0  0  0  0  0  0  0  0
   42.8500   34.1610   37.1830 O   0  0  0  0  0  0  0  0  0  0  0  0
   42.5850   33.8960   39.6700 H   0  0  0  0  0  0  0  0  0  0  0  0
  2  1  2  6  0  0  0
  2  5  1  0  0  0  0
  2  3  1  0  0  0  0
  3  4  1  0  0  0  0
  5 10  1  0  0  0  0
  6  7  1  0  0  0  0
  7  8  2  0  0  0  0
  7 13  1  0  0  0  0
  8 14  1  0  0  0  0
  9  8  1  0  0  0  0
 10  9  2  0  0  0  0
 11 10  1  0  0  0  0
 11  6  2  0  0  0  0
 12  6  1  0  0  0  0
 15  2  1  0  0  0  0
 16 17  1  0  0  0  0
 17 18  1  0  0  0  0
 17 23  1  0  0  0  0
 18 19  2  0  0  0  0
 19 15  1  0  0  0  0
 19 20  1  0  0  0  0
 20 21  2  0  0  0  0
 22 20  1  0  0  0  0
 22 25  1  0  0  0  0
 23 22  1  0  0  0  0
 24 23  2  0  0  0  0
M  END
>  <minimizedAffinity>
-4.88162994

$$$$

 OpenBabel03252505283D

 25 26  0  0  0  0  0  0  0  0999 V2000
   37.9010   28.7580   38.5110 O   0  0  0  0  0  0  0  0  0  0  0  0
   36.6640   29.5730   38.8900 P   0  0  1  0  0  0  0  0  0  0  0  0
   35.5430   29.6250   37.6320 O   0  0  0  0  0  0  0  0  0  0  0  0
   35.2500   30.5200   37.3800 H   0  0  0  0  0  0  0  0  0  0  0  0
   36.0000   28.8500   40.2560 O   0  0  0  0  0  0  0  0  0  0  0  0
   37.4390   26.7230   42.7230 C   0  0  0  0  0  0  0  0  0  0  0  0
   38.0330   27.5920   43.6410 C   0  0  0  0  0  0  0  0  0  0  0  0
   37.9150   28.9740   43.3690 C   0  0  0  0  0  0  0  0  0  0  0  0
   37.2450   29.3520   42.2570 N   0  0  0  0  0  0  0  0  0  0  0  0
   36.6890   28.4710   41.4010 C   0  0  0  0  0  0  0  0  0  0  0  0
   36.7800   27.1570   41.6250 N   0  0  0  0  0  0  0  0  0  0  0  0
   37.5570   25.6730   42.9750 H   0  0  0  0  0  0  0  0  0  0  0  0
   38.5590   27.2200   44.5200 H   0  0  0  0  0  0  0  0  0  0  0  0
   38.3610   29.6760   44.0560 H   0  0  0  0  0  0  0  0  0  0  0  0
   37.1890   31.1530   39.1780 O   0  0  0  0  0  0  0  0  0  0  0  0
   41.6450   31.9780   39.4020 H   0  0  0  0  0  0  0  0  0  0  0  0
   40.7720   31.9430   38.8250 N   0  0  0  0  0  0  0  0  0  0  0  0
   39.6320   31.5760   39.4270 C   0  0  0  0  0  3  0  0  0  0  0  0
   38.4510   31.5120   38.7160 C   0  0  0  0  0  0  0  0  0  0  0  0
   38.4770   31.8370   37.3590 C   0  0  0  0  0  0  0  0  0  0  0  0
   37.4880   31.8320   36.5570 O   0  0  0  0  0  0  0  0  0  0  0  0
   39.6190   32.2030   36.7630 N   0  0  0  0  0  0  0  0  0  0  0  0
   40.7470   32.2510   37.4980 C   0  0  0  0  0  0  0  0  0  0  0  0
   41.8910   32.5830   37.0480 O   0  0  0  0  0  0  0  0  0  0  0  0
   39.7330   32.4610   35.7630 H   0  0  0  0  0  0  0  0  0  0  0  0
  2  1  2  6  0  0  0
  2 15  1  0  0  0  0
  2  5  1  0  0  0  0
  3  2  1  0  0  0  0
  4  3  1  0  0  0  0
  5 10  1  0  0  0  0
  6 12  1  0  0  0  0
  6  7  1  0  0  0  0
  7 13  1  0  0  0  0
  8  7  2  0  0  0  0
  8 14  1  0  0  0  0
  9  8  1  0  0  0  0
 10 11  1  0  0  0  0
 10  9  2  0  0  0  0
 11  6  2  0  0  0  0
 17 16  1  0  0  0  0
 17 18  1  0  0  0  0
 19 15  1  0  0  0  0
 19 18  2  0  0  0  0
 20 19  1  0  0  0  0
 21 20  2  0  0  0  0
 22 20  1  0  0  0  0
 22 23  1  0  0  0  0
 23 17  1  0  0  0  0
 24 23  2  0  0  0  0
 25 22  1  0  0  0  0
M  END
>  <minimizedAffinity>
-4.76697588

$$$$

 OpenBabel03252505283D

 25 26  0  0  0  0  0  0  0  0999 V2000
   38.0900   29.4120   38.9410 O   0  0  0  0  0  0  0  0  0  0  0  0
   36.8530   30.3090   39.0150 P   0  0  1  0  0  0  0  0  0  0  0  0
   35.6760   29.8390   37.9030 O   0  0  0  0  0  0  0  0  0  0  0  0
   35.3530   30.5520   37.3220 H   0  0  0  0  0  0  0  0  0  0  0  0
   36.2660   30.2070   40.5890 O   0  0  0  0  0  0  0  0  0  0  0  0
   38.2520   29.0820   43.3210 C   0  0  0  0  0  0  0  0  0  0  0  0
   37.7710   27.8020   43.6090 C   0  0  0  0  0  0  0  0  0  0  0  0
   36.7100   27.3320   42.8030 C   0  0  0  0  0  0  0  0  0  0  0  0
   36.2410   28.1400   41.8260 N   0  0  0  0  0  0  0  0  0  0  0  0
   36.7420   29.3700   41.5890 C   0  0  0  0  0  0  0  0  0  0  0  0
   37.7450   29.8480   42.3300 N   0  0  0  0  0  0  0  0  0  0  0  0
   39.0660   29.3990   43.9670 H   0  0  0  0  0  0  0  0  0  0  0  0
   38.1960   27.2020   44.4130 H   0  0  0  0  0  0  0  0  0  0  0  0
   36.3130   26.3470   42.9950 H   0  0  0  0  0  0  0  0  0  0  0  0
   37.3560   31.8690   38.6060 O   0  0  0  0  0  0  0  0  0  0  0  0
   39.5250   33.7760   42.1040 H   0  0  0  0  0  0  0  0  0  0  0  0
   39.5630   33.4040   41.1270 N   0  0  0  0  0  0  0  0  0  0  0  0
   38.4340   32.9150   40.5930 C   0  0  0  0  0  3  0  0  0  0  0  0
   38.4260   32.4100   39.3080 C   0  0  0  0  0  0  0  0  0  0  0  0
   39.6200   32.4230   38.5840 C   0  0  0  0  0  0  0  0  0  0  0  0
   39.7920   32.0010   37.3960 O   0  0  0  0  0  0  0  0  0  0  0  0
   40.7440   32.9130   39.1230 N   0  0  0  0  0  0  0  0  0  0  0  0
   40.7030   33.3940   40.3810 C   0  0  0  0  0  0  0  0  0  0  0  0
   41.7010   33.8850   41.0010 O   0  0  0  0  0  0  0  0  0  0  0  0
   41.6730   32.9620   38.6610 H   0  0  0  0  0  0  0  0  0  0  0  0
  2  1  2  6  0  0  0
  2  5  1  0  0  0  0
  3  2  1  0  0  0  0
  4  3  1  0  0  0  0
  5 10  1  0  0  0  0
  6  7  1  0  0  0  0
  6 12  1  0  0  0  0
  7 13  1  0  0  0  0
  8 14  1  0  0  0  0
  8  7  2  0  0  0  0
  9  8  1  0  0  0  0
 10  9  2  0  0  0  0
 10 11  1  0  0  0  0
 11  6  2  0  0  0  0
 15  2  1  0  0  0  0
 15 19  1  0  0  0  0
 17 16  1  0  0  0  0
 18 17  1  0  0  0  0
 19 18  2  0  0  0  0
 20 22  1  0  0  0  0
 20 19  1  0  0  0  0
 21 20  2  0  0  0  0
 22 23  1  0  0  0  0
 23 24  2  0  0  0  0
 23 17  1  0  0  0  0
 25 22  1  0  0  0  0
M  END
>  <minimizedAffinity>
-4.75204182

$$$$

 OpenBabel03252505283D

 25 26  0  0  0  0  0  0  0  0999 V2000
   36.5840   31.2880   38.8460 O   0  0  0  0  0  0  0  0  0  0  0  0
   37.0090   31.0990   40.3030 P   0  0  1  0  0  0  0  0  0  0  0  0
   35.6820   31.0720   41.3410 O   0  0  0  0  0  0  0  0  0  0  0  0
   35.7340   31.6930   42.0900 H   0  0  0  0  0  0  0  0  0  0  0  0
   37.8630   29.6510   40.3810 O   0  0  0  0  0  0  0  0  0  0  0  0
   39.3920   27.4850   42.7570 C   0  0  0  0  0  0  0  0  0  0  0  0
   38.3820   27.1940   43.6770 C   0  0  0  0  0  0  0  0  0  0  0  0
   37.1220   27.7890   43.4390 C   0  0  0  0  0  0  0  0  0  0  0  0
   36.9850   28.5850   42.3550 N   0  0  0  0  0  0  0  0  0  0  0  0
   37.9950   28.8340   41.4960 C   0  0  0  0  0  0  0  0  0  0  0  0
   39.1990   28.2900   41.6880 N   0  0  0  0  0  0  0  0  0  0  0  0
   40.3410   27.0060   42.9820 H   0  0  0  0  0  0  0  0  0  0  0  0
   38.5610   26.5420   44.5310 H   0  0  0  0  0  0  0  0  0  0  0  0
   36.3170   27.5870   44.1280 H   0  0  0  0  0  0  0  0  0  0  0  0
   37.9570   32.4370   40.7120 O   0  0  0  0  0  0  0  0  0  0  0  0
   41.4710   31.2190   43.3100 H   0  0  0  0  0  0  0  0  0  0  0  0
   41.1240   31.5790   42.3910 N   0  0  0  0  0  0  0  0  0  0  0  0
   39.8020   31.7410   42.2340 C   0  0  0  0  0  3  0  0  0  0  0  0
   39.2880   32.2120   41.0430 C   0  0  0  0  0  0  0  0  0  0  0  0
   40.1790   32.5120   40.0100 C   0  0  0  0  0  0  0  0  0  0  0  0
   39.8810   32.9530   38.8540 O   0  0  0  0  0  0  0  0  0  0  0  0
   41.4980   32.3490   40.1730 N   0  0  0  0  0  0  0  0  0  0  0  0
   41.9530   31.8860   41.3540 C   0  0  0  0  0  0  0  0  0  0  0  0
   43.1810   31.6890   41.6300 O   0  0  0  0  0  0  0  0  0  0  0  0
   42.2320   32.5450   39.4640 H   0  0  0  0  0  0  0  0  0  0  0  0
  2  1  2  6  0  0  0
  2  5  1  0  0  0  0
  2 15  1  0  0  0  0
  2  3  1  0  0  0  0
  3  4  1  0  0  0  0
  5 10  1  0  0  0  0
  6 12  1  0  0  0  0
  6  7  1  0  0  0  0
  7 13  1  0  0  0  0
  8  7  2  0  0  0  0
  8 14  1  0  0  0  0
  9  8  1  0  0  0  0
 10 11  1  0  0  0  0
 10  9  2  0  0  0  0
 11  6  2  0  0  0  0
 15 19  1  0  0  0  0
 17 16  1  0  0  0  0
 18 17  1  0  0  0  0
 19 18  2  0  0  0  0
 20 22  1  0  0  0  0
 20 19  1  0  0  0  0
 21 20  2  0  0  0  0
 22 23  1  0  0  0  0
 23 24  2  0  0  0  0
 23 17  1  0  0  0  0
 25 22  1  0  0  0  0
M  END
>  <minimizedAffinity>
-4.71855736

$$$$

 OpenBabel03252505283D

 25 26  0  0  0  0  0  0  0  0999 V2000
   35.8440   28.7250   40.9210 O   0  0  0  0  0  0  0  0  0  0  0  0
   37.0040   29.5380   41.4960 P   0  0  1  0  0  0  0  0  0  0  0  0
   36.9190   29.6420   43.1760 O   0  0  0  0  0  0  0  0  0  0  0  0
   36.9660   30.5480   43.5340 H   0  0  0  0  0  0  0  0  0  0  0  0
   38.4240   28.7740   41.0140 O   0  0  0  0  0  0  0  0  0  0  0  0
   39.7210   26.8020   43.6790 C   0  0  0  0  0  0  0  0  0  0  0  0
   41.1090   26.9210   43.5690 C   0  0  0  0  0  0  0  0  0  0  0  0
   41.5900   27.7270   42.5130 C   0  0  0  0  0  0  0  0  0  0  0  0
   40.6890   28.3180   41.6960 N   0  0  0  0  0  0  0  0  0  0  0  0
   39.3570   28.1710   41.8470 C   0  0  0  0  0  0  0  0  0  0  0  0
   38.8650   27.4170   42.8340 N   0  0  0  0  0  0  0  0  0  0  0  0
   39.4000   26.1730   44.5040 H   0  0  0  0  0  0  0  0  0  0  0  0
   41.7810   26.4160   44.2620 H   0  0  0  0  0  0  0  0  0  0  0  0
   42.6560   27.8430   42.3950 H   0  0  0  0  0  0  0  0  0  0  0  0
   36.8610   31.1020   40.8740 O   0  0  0  0  0  0  0  0  0  0  0  0
   40.8790   32.9680   41.8520 H   0  0  0  0  0  0  0  0  0  0  0  0
   40.1240   32.7940   41.1480 N   0  0  0  0  0  0  0  0  0  0  0  0
   39.0560   32.0800   41.5320 C   0  0  0  0  0  3  0  0  0  0  0  0
   38.0300   31.8190   40.6460 C   0  0  0  0  0  0  0  0  0  0  0  0
   38.1360   32.3160   39.3450 C   0  0  0  0  0  0  0  0  0  0  0  0
   37.2900   32.1710   38.4050 O   0  0  0  0  0  0  0  0  0  0  0  0
   39.2060   33.0280   38.9680 N   0  0  0  0  0  0  0  0  0  0  0  0
   40.1810   33.2570   39.8680 C   0  0  0  0  0  0  0  0  0  0  0  0
   41.2440   33.9180   39.6310 O   0  0  0  0  0  0  0  0  0  0  0  0
   39.3690   33.4350   38.0260 H   0  0  0  0  0  0  0  0  0  0  0  0
  2  1  2  6  0  0  0
  2  3  1  0  0  0  0
  3  4  1  0  0  0  0
  5  2  1  0  0  0  0
  5 10  1  0  0  0  0
  6 12  1  0  0  0  0
  7  6  1  0  0  0  0
  7 13  1  0  0  0  0
  8  7  2  0  0  0  0
  9 10  2  0  0  0  0
  9  8  1  0  0  0  0
 10 11  1  0  0  0  0
 11  6  2  0  0  0  0
 14  8  1  0  0  0  0
 15  2  1  0  0  0  0
 17 18  1  0  0  0  0
 17 16  1  0  0  0  0
 19 15  1  0  0  0  0
 19 18  2  0  0  0  0
 20 19  1  0  0  0  0
 21 20  2  0  0  0  0
 22 20  1  0  0  0  0
 22 23  1  0  0  0  0
 23 17  1  0  0  0  0
 24 23  2  0  0  0  0
 25 22  1  0  0  0  0
M  END
>  <minimizedAffinity>
-4.67392969

$$$$

 OpenBabel03252505283D

 25 26  0  0  0  0  0  0  0  0999 V2000
   37.3870   29.0450   43.5980 O   0  0  0  0  0  0  0  0  0  0  0  0
   38.0740   28.1400   42.5740 P   0  0  1  0  0  0  0  0  0  0  0  0
   39.7350   28.0460   42.8420 O   0  0  0  0  0  0  0  0  0  0  0  0
   40.2880   28.2450   42.0640 H   0  0  0  0  0  0  0  0  0  0  0  0
   37.3580   26.6230   42.7020 O   0  0  0  0  0  0  0  0  0  0  0  0
   38.0200   23.5080   41.1100 C   0  0  0  0  0  0  0  0  0  0  0  0
   37.3900   23.6010   39.8670 C   0  0  0  0  0  0  0  0  0  0  0  0
   36.7110   24.8100   39.5930 C   0  0  0  0  0  0  0  0  0  0  0  0
   36.7190   25.7770   40.5390 N   0  0  0  0  0  0  0  0  0  0  0  0
   37.3450   25.6360   41.7260 C   0  0  0  0  0  0  0  0  0  0  0  0
   37.9960   24.5080   42.0190 N   0  0  0  0  0  0  0  0  0  0  0  0
   38.5270   22.5620   41.2730 H   0  0  0  0  0  0  0  0  0  0  0  0
   37.4220   22.7820   39.1490 H   0  0  0  0  0  0  0  0  0  0  0  0
   36.2120   24.9200   38.6430 H   0  0  0  0  0  0  0  0  0  0  0  0
   37.8350   28.8480   41.0590 O   0  0  0  0  0  0  0  0  0  0  0  0
   40.3150   32.6450   40.9200 H   0  0  0  0  0  0  0  0  0  0  0  0
   39.3730   32.1920   40.8580 N   0  0  0  0  0  0  0  0  0  0  0  0
   39.3020   30.8610   41.0050 C   0  0  0  0  0  3  0  0  0  0  0  0
   38.0880   30.2090   40.9320 C   0  0  0  0  0  0  0  0  0  0  0  0
   36.9410   30.9710   40.7010 C   0  0  0  0  0  0  0  0  0  0  0  0
   35.7480   30.5390   40.6050 O   0  0  0  0  0  0  0  0  0  0  0  0
   37.0180   32.3010   40.5550 N   0  0  0  0  0  0  0  0  0  0  0  0
   38.2260   32.8920   40.6350 C   0  0  0  0  0  0  0  0  0  0  0  0
   38.4290   34.1430   40.5140 O   0  0  0  0  0  0  0  0  0  0  0  0
   36.2220   32.9450   40.3820 H   0  0  0  0  0  0  0  0  0  0  0  0
  2  5  1  0  0  0  0
  2  3  1  0  0  0  0
  2  1  2  1  0  0  0
  4  3  1  0  0  0  0
  6 12  1  0  0  0  0
  6 11  1  0  0  0  0
  7  6  2  0  0  0  0
  8  7  1  0  0  0  0
  8  9  2  0  0  0  0
  9 10  1  0  0  0  0
 10 11  2  0  0  0  0
 10  5  1  0  0  0  0
 13  7  1  0  0  0  0
 14  8  1  0  0  0  0
 15  2  1  0  0  0  0
 17 16  1  0  0  0  0
 17 18  1  0  0  0  0
 19 18  2  0  0  0  0
 19 15  1  0  0  0  0
 20 19  1  0  0  0  0
 21 20  2  0  0  0  0
 22 23  1  0  0  0  0
 22 20  1  0  0  0  0
 23 17  1  0  0  0  0
 24 23  2  0  0  0  0
 25 22  1  0  0  0  0
M  END
>  <minimizedAffinity>
-4.64761257

$$$$
