
 OpenBabel03252507553D

 45 48  0  0  1  0  0  0  0  0999 V2000
   49.0090   32.2260   40.4580 C   0  0  2  0  0  0  0  0  0  0  0  0
   49.7830   31.5390   41.4810 C   0  0  0  0  0  0  0  0  0  0  0  0
   50.3930   31.8610   40.1530 C   0  0  1  0  0  0  0  0  0  0  0  0
   48.2120   31.6610   39.9420 H   0  0  0  0  0  0  0  0  0  0  0  0
   49.6360   30.4500   41.7250 H   0  0  0  0  0  0  0  0  0  0  0  0
   50.1120   32.1060   42.3660 H   0  0  0  0  0  0  0  0  0  0  0  0
   51.0430   32.7490   40.0080 H   0  0  0  0  0  0  0  0  0  0  0  0
   47.1140   34.8030   42.1150 C   0  0  2  0  0  0  0  0  0  0  0  0
   46.3170   34.3600   40.8840 C   0  0  0  0  0  0  0  0  0  0  0  0
   47.5110   34.1960   39.9170 C   0  0  0  0  0  0  0  0  0  0  0  0
   48.6210   33.6550   40.7640 C   0  0  1  0  0  0  0  0  0  0  0  0
   48.1130   33.6820   42.1760 C   0  0  0  0  0  0  0  0  0  0  0  0
   47.6090   35.7680   41.8940 H   0  0  0  0  0  0  0  0  0  0  0  0
   45.8860   33.3780   41.1020 H   0  0  0  0  0  0  0  0  0  0  0  0
   45.6290   35.1300   40.5310 H   0  0  0  0  0  0  0  0  0  0  0  0
   47.7970   35.2470   39.6450 H   0  0  0  0  0  0  0  0  0  0  0  0
   47.2340   33.5710   39.0630 H   0  0  0  0  0  0  0  0  0  0  0  0
   49.5410   34.2740   40.7260 H   0  0  0  0  0  0  0  0  0  0  0  0
   47.5890   32.7420   42.4380 H   0  0  0  0  0  0  0  0  0  0  0  0
   48.9210   33.8920   42.9030 H   0  0  0  0  0  0  0  0  0  0  0  0
   44.5400   35.7810   44.6850 C   0  0  0  0  0  0  0  0  0  0  0  0
   45.2690   35.8220   43.5020 C   0  0  0  0  0  0  0  0  0  0  0  0
   46.2480   34.8540   43.3260 C   0  0  0  0  0  0  0  0  0  0  0  0
   46.4740   33.8860   44.3140 N   0  0  0  0  0  0  0  0  0  0  0  0
   45.7300   33.8970   45.4530 C   0  0  0  0  0  0  0  0  0  0  0  0
   44.7700   34.8430   45.6300 N   0  0  0  0  0  0  0  0  0  0  0  0
   43.7620   36.5190   44.8670 H   0  0  0  0  0  0  0  0  0  0  0  0
   45.1030   36.5610   42.7350 H   0  0  0  0  0  0  0  0  0  0  0  0
   45.9380   33.1330   46.1890 H   0  0  0  0  0  0  0  0  0  0  0  0
   50.5960   30.7740   39.2630 O   0  0  0  0  0  0  0  0  0  0  0  0
   51.2170   30.4030   36.7580 O   0  0  0  0  0  0  0  0  0  0  0  0
   51.4230   31.3470   37.9170 P   0  0  1  0  0  0  0  0  0  0  0  0
   50.7930   32.8720   37.4460 O   0  0  0  0  0  0  0  0  0  0  0  0
   51.2350   33.5630   37.9790 H   0  0  0  0  0  0  0  0  0  0  0  0
   53.0520   31.5500   38.1530 O   0  0  0  0  0  0  0  0  0  0  0  0
   54.9390   28.9840   41.3520 H   0  0  0  0  0  0  0  0  0  0  0  0
   54.9920   29.3550   40.3820 N   0  0  0  0  0  0  0  0  0  0  0  0
   53.9930   30.1560   40.0200 C   0  0  0  0  0  3  0  0  0  0  0  0
   53.9600   30.7100   38.7470 C   0  0  0  0  0  0  0  0  0  0  0  0
   55.0090   30.3880   37.8810 C   0  0  0  0  0  0  0  0  0  0  0  0
   55.1840   30.7720   36.6900 O   0  0  0  0  0  0  0  0  0  0  0  0
   56.0100   29.5630   38.2950 N   0  0  0  0  0  0  0  0  0  0  0  0
   55.9890   29.0580   39.5370 C   0  0  0  0  0  0  0  0  0  0  0  0
   56.8900   28.2860   39.9800 O   0  0  0  0  0  0  0  0  0  0  0  0
   56.8250   29.2770   37.7110 H   0  0  0  0  0  0  0  0  0  0  0  0
  1  4  1  6  0  0  0
  1 11  1  0  0  0  0
  1  2  1  0  0  0  0
  2  5  1  0  0  0  0
  2  6  1  0  0  0  0
  3  7  1  6  0  0  0
  3  1  1  0  0  0  0
  3  2  1  0  0  0  0
  8 13  1  6  0  0  0
  8 12  1  0  0  0  0
  8 23  1  0  0  0  0
  9 14  1  0  0  0  0
  9  8  1  0  0  0  0
 10 11  1  0  0  0  0
 10  9  1  0  0  0  0
 11 18  1  6  0  0  0
 11 12  1  0  0  0  0
 12 19  1  0  0  0  0
 12 20  1  0  0  0  0
 15  9  1  0  0  0  0
 16 10  1  0  0  0  0
 17 10  1  0  0  0  0
 21 27  1  0  0  0  0
 21 26  1  0  0  0  0
 22 21  2  0  0  0  0
 23 22  1  0  0  0  0
 23 24  2  0  0  0  0
 24 25  1  0  0  0  0
 25 26  2  0  0  0  0
 25 29  1  0  0  0  0
 28 22  1  0  0  0  0
 30  3  1  0  0  0  0
 32 31  2  6  0  0  0
 32 35  1  0  0  0  0
 32 30  1  0  0  0  0
 33 32  1  0  0  0  0
 33 34  1  0  0  0  0
 35 39  1  0  0  0  0
 37 36  1  0  0  0  0
 38 37  1  0  0  0  0
 39 38  2  0  0  0  0
 40 42  1  0  0  0  0
 40 39  1  0  0  0  0
 41 40  2  0  0  0  0
 42 43  1  0  0  0  0
 43 44  2  0  0  0  0
 43 37  1  0  0  0  0
 45 42  1  0  0  0  0
M  END
>  <minimizedAffinity>
-5.46048737

>  <minimizedRMSD>
1.41948295

$$$$
