REMARK  Name = 
REMARK  7 active torsions:
REMARK  status: ('A' for Active; 'I' for Inactive)
REMARK    1  A    between atoms: C_1  and  C_7
REMARK    2  A    between atoms: C_2  and  O_9
REMARK    3  A    between atoms: C_7  and  C_8
REMARK    4  A    between atoms: O_9  and  P_11
REMARK    5  A    between atoms: P_11  and  O_12
REMARK    6  A    between atoms: P_11  and  O_13
REMARK    7  A    between atoms: O_13  and  C_25
REMARK                            x       y       z     vdW  Elec       q    Type
REMARK                         _______ _______ _______ _____ _____    ______ ____
ROOT
ATOM      1  O   UNL     1      44.656  35.549  42.526  0.00  0.00    +0.000 OA
ENDROOT
BRANCH   1   3
ATOM      2  C   UNL     1      46.646  34.310  42.914  0.00  0.00    +0.000 A 
ATOM      3  C   UNL     1      45.425  34.773  43.394  0.00  0.00    +0.000 A 
ATOM      4  C   UNL     1      45.071  34.417  44.721  0.00  0.00    +0.000 A 
ATOM      5  N   UNL     1      45.942  33.659  45.411  0.00  0.00    +0.000 NA
ATOM      6  C   UNL     1      47.108  33.231  44.916  0.00  0.00    +0.000 A 
ATOM      7  N   UNL     1      47.446  33.560  43.679  0.00  0.00    +0.000 NA
ATOM      8  H   UNL     1      44.132  34.792  45.045  0.00  0.00    +0.000 HD
ATOM      9  H   UNL     1      47.726  32.627  45.567  0.00  0.00    +0.000 HD
BRANCH   2  10
ATOM     10  C   UNL     1      47.075  34.639  41.556  0.00  0.00    +0.000 C 
ATOM     11  H   UNL     1      47.166  33.746  40.881  0.00  0.00    +0.000 HD
ATOM     12  H   UNL     1      46.353  35.337  41.078  0.00  0.00    +0.000 HD
BRANCH  10  13
ATOM     13  C   UNL     1      48.409  35.346  41.617  0.00  0.00    +0.000 C 
ATOM     14  H   UNL     1      49.088  34.697  42.208  0.00  0.00    +0.000 HD
ATOM     15  H   UNL     1      48.283  36.339  42.090  0.00  0.00    +0.000 HD
ATOM     16  H   UNL     1      48.876  35.481  40.631  0.00  0.00    +0.000 HD
ENDBRANCH  10  13
ENDBRANCH   2  10
ENDBRANCH   1   3
BRANCH   1  18
ATOM     17  O   UNL     1      43.237  35.464  40.329  0.00  0.00    +0.000 OA
ATOM     18  P   UNL     1      43.199  35.087  41.807  0.00  0.00    +0.000 P 
BRANCH  18  19
ATOM     19  O   UNL     1      43.056  33.405  41.937  0.00  0.00    +0.000 OA
ATOM     20  H   UNL     1      43.196  33.206  42.917  0.00  0.00    +0.000 HD
ENDBRANCH  18  19
BRANCH  18  21
ATOM     21  O   UNL     1      41.853  35.788  42.562  0.00  0.00    +0.000 OA
BRANCH  21  25
ATOM     22  H   UNL     1      38.039  37.391  40.764  0.00  0.00    +0.000 HD
ATOM     23  N   UNL     1      38.601  36.538  41.021  0.00  0.00    +0.000 N 
ATOM     24  C   UNL     1      39.798  36.811  41.595  0.00  0.00    +0.000 A 
ATOM     25  C   UNL     1      40.601  35.776  41.965  0.00  0.00    +0.000 A 
ATOM     26  C   UNL     1      40.167  34.472  41.742  0.00  0.00    +0.000 A 
ATOM     27  O   UNL     1      40.802  33.420  42.031  0.00  0.00    +0.000 OA
ATOM     28  N   UNL     1      38.954  34.258  41.160  0.00  0.00    +0.000 N 
ATOM     29  C   UNL     1      38.167  35.303  40.798  0.00  0.00    +0.000 A 
ATOM     30  O   UNL     1      37.050  35.207  40.264  0.00  0.00    +0.000 OA
ATOM     31  H   UNL     1      38.596  33.294  40.977  0.00  0.00    +0.000 HD
ENDBRANCH  21  25
ENDBRANCH  18  21
ENDBRANCH   1  18
TORSDOF 7
