
     RDKit          3D

 24 25  0  0  0  0  0  0  0  0999 V2000
   44.3857   35.7608   44.3983 C   0  0  0  0  0  0  0  0  0  0  0  0
   44.6556   35.0599   43.2426 C   0  0  0  0  0  0  0  0  0  0  0  0
   45.2751   33.8333   43.3759 C   0  0  0  0  0  0  0  0  0  0  0  0
   45.5749   33.4018   44.6220 N   0  0  0  0  0  0  0  0  0  0  0  0
   45.3014   34.1035   45.7318 C   0  0  0  0  0  0  0  0  0  0  0  0
   44.6850   35.3325   45.6603 N   0  0  0  0  0  0  0  0  0  0  0  0
   44.2488   35.7058   41.9927 C   0  0  0  0  0  0  0  0  0  0  0  0
   42.9655   35.3856   41.5804 O   0  0  0  0  0  0  0  0  0  0  0  0
   43.8954   36.7471   44.4048 H   0  0  0  0  0  0  0  0  0  0  0  0
   45.4798   33.2967   42.4637 H   0  0  0  0  0  0  0  0  0  0  0  0
   45.6438   33.5338   46.5938 H   0  0  0  0  0  0  0  0  0  0  0  0
   44.9488   35.3500   41.2069 H   0  0  0  0  0  0  0  0  0  0  0  0
   44.4234   36.8163   42.0329 H   0  0  0  0  0  0  0  0  0  0  0  0
   40.2409   38.0715   39.1828 H   0  0  0  0  0  0  0  0  0  0  0  0
   40.9730   37.3171   39.2570 N   0  0  0  0  0  0  0  0  0  0  0  0
   41.4461   36.8938   40.4261 C   0  0  0  0  0  0  0  0  0  0  0  0
   42.4046   35.9003   40.4200 C   0  0  0  0  0  0  0  0  0  0  0  0
   42.8139   35.4057   39.1895 C   0  0  0  0  0  0  0  0  0  0  0  0
   43.6904   34.4973   39.1858 O   0  0  0  0  0  0  0  0  0  0  0  0
   42.3145   35.8560   38.0170 N   0  0  0  0  0  0  0  0  0  0  0  0
   41.3711   36.8363   38.0646 C   0  0  0  0  0  0  0  0  0  0  0  0
   40.9486   37.2096   36.9395 O   0  0  0  0  0  0  0  0  0  0  0  0
   41.1087   37.2967   41.3563 H   0  0  0  0  0  0  0  0  0  0  0  0
   42.6458   35.4602   37.0990 H   0  0  0  0  0  0  0  0  0  0  0  0
  1  6  2  0
  2  3  2  0
  2  1  1  0
  3  4  1  0
  4  5  2  0
  6  5  1  0
  7  2  1  0
  8  7  1  0
  1  9  1  0
  3 10  1  0
  5 11  1  0
  7 12  1  0
  7 13  1  0
 14 15  1  0
 15 16  1  0
 16 17  2  0
 17 18  1  0
 18 19  2  0
 18 20  1  0
 20 21  1  0
 21 22  2  0
 21 15  1  0
 16 23  1  0
 20 24  1  0
  8 17  1  0
M  ISO  6   9  14  10  14  11  14  12   8  13   8  14   9
M  END
>  <DihAtoms>  (1) 
6,7,16,15

>  <DihDeg>  (1) 
0.00016587498371754123

$$$$
