
 OpenBabel03252509313D

 28 29  0  0  0  0  0  0  0  0999 V2000
   50.4550   32.5590   42.4290 O   0  0  0  0  0  0  0  0  0  0  0  0
   49.4960   33.6990   42.2860 P   0  0  2  0  0  0  0  0  0  0  0  0
   50.0040   35.0900   43.0870 O   0  0  0  0  0  0  0  0  0  0  0  0
   49.8190   35.0540   44.0600 H   0  0  0  0  0  0  0  0  0  0  0  0
   47.9900   33.2690   42.9250 O   0  0  0  0  0  0  0  0  0  0  0  0
   47.1500   34.3720   42.7850 C   0  0  0  0  0  0  0  0  0  0  0  0
   46.4910   34.2640   41.8750 H   0  0  0  0  0  0  0  0  0  0  0  0
   47.6950   35.3300   42.6590 H   0  0  0  0  0  0  0  0  0  0  0  0
   45.5120   33.7730   46.0870 C   0  0  0  0  0  0  0  0  0  0  0  0
   46.3820   33.6120   44.9880 C   0  0  0  0  0  0  0  0  0  0  0  0
   46.2570   34.5110   43.9470 C   0  0  0  0  0  0  0  0  0  0  0  0
   45.3100   35.5010   44.0310 N   0  0  0  0  0  0  0  0  0  0  0  0
   44.4940   35.6240   45.0990 C   0  0  0  0  0  0  0  0  0  0  0  0
   44.5990   34.7640   46.1180 N   0  0  0  0  0  0  0  0  0  0  0  0
   45.5840   33.0940   46.9070 H   0  0  0  0  0  0  0  0  0  0  0  0
   47.1230   32.8330   44.9300 H   0  0  0  0  0  0  0  0  0  0  0  0
   43.7860   36.4410   45.0540 H   0  0  0  0  0  0  0  0  0  0  0  0
   49.2780   34.0180   40.6370 O   0  0  0  0  0  0  0  0  0  0  0  0
   45.5260   33.0390   38.5400 H   0  0  0  0  0  0  0  0  0  0  0  0
   46.5280   32.7570   38.6970 N   0  0  0  0  0  0  0  0  0  0  0  0
   47.2010   33.5560   39.5350 C   0  0  0  0  0  3  0  0  0  0  0  0
   48.5370   33.2390   39.7880 C   0  0  0  0  0  0  0  0  0  0  0  0
   49.0830   32.1250   39.1630 C   0  0  0  0  0  0  0  0  0  0  0  0
   50.2840   31.8120   39.3690 O   0  0  0  0  0  0  0  0  0  0  0  0
   48.3070   31.3920   38.3360 N   0  0  0  0  0  0  0  0  0  0  0  0
   47.0010   31.6860   38.0760 C   0  0  0  0  0  0  0  0  0  0  0  0
   46.3340   30.9610   37.2950 O   0  0  0  0  0  0  0  0  0  0  0  0
   48.7780   30.5530   37.8860 H   0  0  0  0  0  0  0  0  0  0  0  0
  2  1  2  1  0  0  0
  2  5  1  0  0  0  0
  2  3  1  0  0  0  0
  3  4  1  0  0  0  0
  6  5  1  0  0  0  0
  6 11  1  0  0  0  0
  7  6  1  0  0  0  0
  8  6  1  0  0  0  0
  9 14  1  0  0  0  0
  9 15  1  0  0  0  0
 10  9  2  0  0  0  0
 11 12  2  0  0  0  0
 11 10  1  0  0  0  0
 12 13  1  0  0  0  0
 13 14  2  0  0  0  0
 16 10  1  0  0  0  0
 17 13  1  0  0  0  0
 18  2  1  0  0  0  0
 19 20  1  0  0  0  0
 20 21  1  0  0  0  0
 21 22  2  0  0  0  0
 22 18  1  0  0  0  0
 23 24  2  0  0  0  0
 23 22  1  0  0  0  0
 25 23  1  0  0  0  0
 26 25  1  0  0  0  0
 26 20  1  0  0  0  0
 27 26  2  0  0  0  0
 28 25  1  0  0  0  0
M  END
>  <minimizedAffinity>
-4.35269403

>  <minimizedRMSD>
0.843344629

$$$$
