
     RDKit          3D

 37 39  0  0  0  0  0  0  0  0999 V2000
   48.1478   33.5147   42.5742 C   0  0  1  0  0  0  0  0  0  0  0  0
   46.6812   33.7309   42.2861 C   0  0  2  0  0  0  0  0  0  0  0  0
   46.4720   34.6317   41.2622 O   0  0  0  0  0  0  0  0  0  0  0  0
   46.8831   33.9948   40.1014 C   0  0  0  0  0  0  0  0  0  0  0  0
   48.3784   33.9238   40.0964 C   0  0  2  0  0  0  0  0  0  0  0  0
   48.9972   33.3745   41.3559 C   0  0  2  0  0  0  0  0  0  0  0  0
   44.5837   35.8070   44.6653 C   0  0  0  0  0  0  0  0  0  0  0  0
   45.2197   35.3906   43.4868 C   0  0  0  0  0  0  0  0  0  0  0  0
   45.9908   34.1938   43.4995 C   0  0  0  0  0  0  0  0  0  0  0  0
   46.0669   33.5173   44.6660 N   0  0  0  0  0  0  0  0  0  0  0  0
   45.4433   33.9419   45.7896 C   0  0  0  0  0  0  0  0  0  0  0  0
   44.6994   35.0870   45.7948 N   0  0  0  0  0  0  0  0  0  0  0  0
   48.6501   34.4586   43.4750 O   0  0  0  0  0  0  0  0  0  0  0  0
   48.8102   35.2401   39.8464 O   0  0  0  0  0  0  0  0  0  0  0  0
   49.4572   32.0681   41.1772 O   0  0  0  0  0  0  0  0  0  0  0  0
   48.2050   32.5365   43.1382 H   0  0  0  0  0  0  0  0  0  0  0  0
   46.3098   32.7226   41.9549 H   0  0  0  0  0  0  0  0  0  0  0  0
   46.4515   32.9800   40.0006 H   0  0  0  0  0  0  0  0  0  0  0  0
   46.5855   34.6322   39.2519 H   0  0  0  0  0  0  0  0  0  0  0  0
   48.6813   33.2725   39.2549 H   0  0  0  0  0  0  0  0  0  0  0  0
   49.9028   34.0095   41.5259 H   0  0  0  0  0  0  0  0  0  0  0  0
   44.0338   36.7267   44.5173 H   0  0  0  0  0  0  0  0  0  0  0  0
   45.1652   35.9242   42.5508 H   0  0  0  0  0  0  0  0  0  0  0  0
   45.5241   33.3724   46.7196 H   0  0  0  0  0  0  0  0  0  0  0  0
   49.3661   34.0862   44.0451 H   0  0  0  0  0  0  0  0  0  0  0  0
   49.7834   35.1395   39.6064 H   0  0  0  0  0  0  0  0  0  0  0  0
   53.1623   29.6442   42.1154 H   0  0  0  0  0  0  0  0  0  0  0  0
   52.7521   30.4731   41.6339 N   0  0  0  0  0  0  0  0  0  0  0  0
   51.4338   30.5960   41.7983 C   0  0  0  0  0  0  0  0  0  0  0  0
   50.7782   31.6556   41.2074 C   0  0  0  0  0  0  0  0  0  0  0  0
   51.5432   32.5573   40.4563 C   0  0  0  0  0  0  0  0  0  0  0  0
   51.1450   33.5935   39.8328 O   0  0  0  0  0  0  0  0  0  0  0  0
   52.8907   32.3927   40.3145 N   0  0  0  0  0  0  0  0  0  0  0  0
   53.4773   31.3432   40.9115 C   0  0  0  0  0  0  0  0  0  0  0  0
   54.7045   31.0683   40.8665 O   0  0  0  0  0  0  0  0  0  0  0  0
   50.7436   29.9812   42.3421 H   0  0  0  0  0  0  0  0  0  0  0  0
   53.5151   33.0111   39.7805 H   0  0  0  0  0  0  0  0  0  0  0  0
  1 13  1  0
  2  1  1  0
  2  9  1  0
  3  2  1  0
  4  3  1  0
  5 14  1  0
  5  4  1  0
  5  6  1  0
  6 15  1  0
  6  1  1  0
  7 12  2  0
  8  9  2  0
  8  7  1  0
  9 10  1  0
 10 11  2  0
 12 11  1  0
  1 16  1  1
  2 17  1  6
  4 18  1  0
  4 19  1  0
  5 20  1  6
  6 21  1  1
  7 22  1  0
  8 23  1  0
 11 24  1  0
 13 25  1  0
 14 26  1  0
 27 28  1  0
 28 29  1  0
 29 30  2  0
 30 31  1  0
 31 32  2  0
 31 33  1  0
 33 34  1  0
 34 35  2  0
 34 28  1  0
 29 36  1  0
 33 37  1  0
 15 30  1  0
M  ISO  8  16  13  17  13  18  13  19  13  20  13  21  13  22  14  23  14
M  ISO  4  24  14  25   3  26   3  27   9
M  END
>  <DihAtoms>  (1) 
5,14,29,28

>  <DihDeg>  (1) 
0.0015345181869313483

$$$$
