
     RDKit          3D

 32 33  0  0  0  0  0  0  0  0999 V2000
   46.6462   34.3096   42.9140 C   0  0  0  0  0  0  0  0  0  0  0  0
   45.4255   34.7733   43.3938 C   0  0  0  0  0  0  0  0  0  0  0  0
   45.0705   34.4170   44.7210 C   0  0  0  0  0  0  0  0  0  0  0  0
   45.9421   33.6591   45.4108 N   0  0  0  0  0  0  0  0  0  0  0  0
   47.1079   33.2315   44.9158 C   0  0  0  0  0  0  0  0  0  0  0  0
   47.4461   33.5596   43.6788 N   0  0  0  0  0  0  0  0  0  0  0  0
   47.0749   34.6387   41.5562 C   0  0  0  0  0  0  0  0  0  0  0  0
   48.4086   35.3465   41.6174 C   0  0  0  0  0  0  0  0  0  0  0  0
   44.6559   35.5493   42.5263 O   0  0  0  0  0  0  0  0  0  0  0  0
   43.2368   35.4640   40.3294 O   0  0  0  0  0  0  0  0  0  0  0  0
   43.1991   35.0868   41.8066 P   0  0  1  0  0  0  0  0  0  0  0  0
   43.0562   33.4046   41.9368 O   0  0  0  0  0  0  0  0  0  0  0  0
   41.8533   35.7880   42.5622 O   0  0  0  0  0  0  0  0  0  0  0  0
   44.1322   34.7918   45.0450 H   0  0  0  0  0  0  0  0  0  0  0  0
   47.7261   32.6272   45.5666 H   0  0  0  0  0  0  0  0  0  0  0  0
   47.1660   33.7462   40.8806 H   0  0  0  0  0  0  0  0  0  0  0  0
   46.3529   35.3367   41.0782 H   0  0  0  0  0  0  0  0  0  0  0  0
   49.0877   34.6968   42.2084 H   0  0  0  0  0  0  0  0  0  0  0  0
   48.2833   36.3394   42.0904 H   0  0  0  0  0  0  0  0  0  0  0  0
   48.8757   35.4811   40.6307 H   0  0  0  0  0  0  0  0  0  0  0  0
   43.1964   33.2062   42.9171 H   0  0  0  0  0  0  0  0  0  0  0  0
   38.0393   37.3909   40.7638 H   0  0  0  0  0  0  0  0  0  0  0  0
   38.6012   36.5375   41.0209 N   0  0  0  0  0  0  0  0  0  0  0  0
   39.7978   36.8106   41.5950 C   0  0  0  0  0  0  0  0  0  0  0  0
   40.6009   35.7758   41.9648 C   0  0  0  0  0  0  0  0  0  0  0  0
   40.1671   34.4719   41.7416 C   0  0  0  0  0  0  0  0  0  0  0  0
   40.8023   33.4202   42.0311 O   0  0  0  0  0  0  0  0  0  0  0  0
   38.9538   34.2581   41.1603 N   0  0  0  0  0  0  0  0  0  0  0  0
   38.1670   35.3028   40.7983 C   0  0  0  0  0  0  0  0  0  0  0  0
   37.0495   35.2066   40.2643 O   0  0  0  0  0  0  0  0  0  0  0  0
   40.2148   37.7799   41.8061 H   0  0  0  0  0  0  0  0  0  0  0  0
   38.5956   33.2937   40.9773 H   0  0  0  0  0  0  0  0  0  0  0  0
  1  2  2  0
  1  6  1  0
  2  3  1  0
  3  4  2  0
  5  4  1  0
  6  5  2  0
  7  8  1  0
  7  1  1  0
  9  2  1  0
 10 11  2  0
 11 12  1  6
 11  9  1  0
 11 13  1  0
  3 14  1  0
  5 15  1  0
  7 16  1  0
  7 17  1  0
  8 18  1  0
  8 19  1  0
  8 20  1  0
 12 21  1  0
 22 23  1  0
 23 24  1  0
 24 25  2  0
 25 26  1  0
 26 27  2  0
 26 28  1  0
 28 29  1  0
 29 30  2  0
 29 23  1  0
 24 31  1  0
 28 32  1  0
 13 25  1  0
M  ISO  8  14  14  15  14  16   8  17   8  18   8  19   8  20   8  21   3
M  ISO  1  22   9
M  END
>  <DihAtoms>  (1) 
10,12,24,23

>  <DihDeg>  (1) 
0.00275444388984106

$$$$
