REMARK  Name = 
REMARK  7 active torsions:
REMARK  status: ('A' for Active; 'I' for Inactive)
REMARK    1  A    between atoms: C_1  and  C_8
REMARK    2  A    between atoms: C_4  and  C_12
REMARK    3  A    between atoms: C_14  and  O_15
REMARK    4  A    between atoms: O_15  and  P_17
REMARK    5  A    between atoms: P_17  and  O_18
REMARK    6  A    between atoms: P_17  and  O_19
REMARK    7  A    between atoms: O_19  and  C_39
REMARK                            x       y       z     vdW  Elec       q    Type
REMARK                         _______ _______ _______ _____ _____    ______ ____
ROOT
ATOM      1  C   UNL     1      49.130  32.207  40.571  0.00  0.00    +0.000 C 
ATOM      2  C   UNL     1      49.770  31.618  41.737  0.00  0.00    +0.000 C 
ATOM      3  C   UNL     1      50.557  31.892  40.494  0.00  0.00    +0.000 C 
ATOM      4  H   UNL     1      48.440  31.575  39.982  0.00  0.00    +0.000 HD
ATOM      5  H   UNL     1      49.631  30.539  42.027  0.00  0.00    +0.000 HD
ATOM      6  H   UNL     1      49.942  32.250  42.623  0.00  0.00    +0.000 HD
ATOM      7  H   UNL     1      51.186  32.800  40.388  0.00  0.00    +0.000 HD
ENDROOT
BRANCH   1  11
ATOM      8  C   UNL     1      47.062  34.812  41.955  0.00  0.00    +0.000 C 
ATOM      9  C   UNL     1      46.299  34.187  40.784  0.00  0.00    +0.000 C 
ATOM     10  C   UNL     1      47.502  34.001  39.832  0.00  0.00    +0.000 C 
ATOM     11  C   UNL     1      48.645  33.631  40.725  0.00  0.00    +0.000 C 
ATOM     12  C   UNL     1      48.135  33.774  42.129  0.00  0.00    +0.000 C 
ATOM     13  H   UNL     1      47.491  35.779  41.629  0.00  0.00    +0.000 HD
ATOM     14  H   UNL     1      45.935  33.207  41.108  0.00  0.00    +0.000 HD
ATOM     15  H   UNL     1      45.560  34.866  40.355  0.00  0.00    +0.000 HD
ATOM     16  H   UNL     1      47.716  35.034  39.448  0.00  0.00    +0.000 HD
ATOM     17  H   UNL     1      47.269  33.271  39.052  0.00  0.00    +0.000 HD
ATOM     18  H   UNL     1      49.521  34.303  40.615  0.00  0.00    +0.000 HD
ATOM     19  H   UNL     1      47.676  32.834  42.494  0.00  0.00    +0.000 HD
ATOM     20  H   UNL     1      48.926  34.115  42.825  0.00  0.00    +0.000 HD
BRANCH   8  23
ATOM     21  C   UNL     1      44.544  35.988  44.497  0.00  0.00    +0.000 A 
ATOM     22  C   UNL     1      45.282  35.967  43.319  0.00  0.00    +0.000 A 
ATOM     23  C   UNL     1      46.194  34.933  43.159  0.00  0.00    +0.000 A 
ATOM     24  N   UNL     1      46.347  33.962  44.158  0.00  0.00    +0.000 NA
ATOM     25  C   UNL     1      45.598  34.035  45.291  0.00  0.00    +0.000 A 
ATOM     26  N   UNL     1      44.703  35.046  45.452  0.00  0.00    +0.000 NA
ATOM     27  H   UNL     1      43.817  36.779  44.666  0.00  0.00    +0.000 HD
ATOM     28  H   UNL     1      45.172  36.708  42.544  0.00  0.00    +0.000 HD
ATOM     29  H   UNL     1      45.748  33.266  46.036  0.00  0.00    +0.000 HD
ENDBRANCH   8  23
ENDBRANCH   1  11
BRANCH   3  30
ATOM     30  O   UNL     1      50.931  30.766  39.715  0.00  0.00    +0.000 OA
BRANCH  30  32
ATOM     31  O   UNL     1      52.021  30.207  37.413  0.00  0.00    +0.000 OA
ATOM     32  P   UNL     1      51.878  31.307  38.436  0.00  0.00    +0.000 P 
BRANCH  32  33
ATOM     33  O   UNL     1      51.111  32.628  37.655  0.00  0.00    +0.000 OA
ATOM     34  H   UNL     1      51.343  33.446  38.138  0.00  0.00    +0.000 HD
ENDBRANCH  32  33
BRANCH  32  35
ATOM     35  O   UNL     1      53.392  31.820  38.877  0.00  0.00    +0.000 OA
BRANCH  35  39
ATOM     36  H   UNL     1      54.775  31.645  43.171  0.00  0.00    +0.000 HD
ATOM     37  N   UNL     1      54.922  31.335  42.189  0.00  0.00    +0.000 N 
ATOM     38  C   UNL     1      54.054  31.811  41.301  0.00  0.00    +0.000 A 
ATOM     39  C   UNL     1      54.155  31.463  39.960  0.00  0.00    +0.000 A 
ATOM     40  C   UNL     1      55.195  30.604  39.598  0.00  0.00    +0.000 A 
ATOM     41  O   UNL     1      55.477  30.158  38.449  0.00  0.00    +0.000 OA
ATOM     42  N   UNL     1      56.061  30.141  40.542  0.00  0.00    +0.000 N 
ATOM     43  C   UNL     1      55.913  30.511  41.822  0.00  0.00    +0.000 A 
ATOM     44  O   UNL     1      56.686  30.115  42.745  0.00  0.00    +0.000 OA
ATOM     45  H   UNL     1      56.860  29.499  40.352  0.00  0.00    +0.000 HD
ENDBRANCH  35  39
ENDBRANCH  32  35
ENDBRANCH  30  32
ENDBRANCH   3  30
TORSDOF 7
