
 OpenBabel03242519403D

 28 29  0  0  0  0  0  0  0  0999 V2000
   37.0660   32.2370   40.5170 O   0  0  0  0  0  0  0  0  0  0  0  0
   37.0660   30.7090   40.4300 P   0  0  2  0  0  0  0  0  0  0  0  0
   37.8010   30.0860   41.8520 O   0  0  0  0  0  0  0  0  0  0  0  0
   37.0910   26.6040   42.7950 C   0  0  0  0  0  0  0  0  0  0  0  0
   36.9350   28.0100   42.6550 C   0  0  0  0  0  0  0  0  0  0  0  0
   37.9470   28.7170   41.9900 C   0  0  0  0  0  0  0  0  0  0  0  0
   39.0160   28.0240   41.5170 N   0  0  0  0  0  0  0  0  0  0  0  0
   39.1350   26.6850   41.6650 C   0  0  0  0  0  0  0  0  0  0  0  0
   38.1760   25.9780   42.3020 N   0  0  0  0  0  0  0  0  0  0  0  0
   36.2760   26.1260   43.3160 H   0  0  0  0  0  0  0  0  0  0  0  0
   36.0600   28.5240   43.0520 H   0  0  0  0  0  0  0  0  0  0  0  0
   39.9820   26.1350   41.2900 H   0  0  0  0  0  0  0  0  0  0  0  0
   37.8920   30.1560   39.1020 O   0  0  0  0  0  0  0  0  0  0  0  0
   42.2130   31.5490   39.0430 H   0  0  0  0  0  0  0  0  0  0  0  0
   41.2600   31.5670   38.6090 N   0  0  0  0  0  0  0  0  0  0  0  0
   40.2790   30.8470   39.1770 C   0  0  0  0  0  3  0  0  0  0  0  0
   39.0100   30.8420   38.6400 C   0  0  0  0  0  0  0  0  0  0  0  0
   38.7670   31.5890   37.5060 C   0  0  0  0  0  0  0  0  0  0  0  0
   37.7000   31.7310   36.8520 O   0  0  0  0  0  0  0  0  0  0  0  0
   39.7780   32.3010   36.9620 N   0  0  0  0  0  0  0  0  0  0  0  0
   41.0250   32.3070   37.4890 C   0  0  0  0  0  0  0  0  0  0  0  0
   41.9920   32.9490   37.0220 O   0  0  0  0  0  0  0  0  0  0  0  0
   39.7140   32.9050   36.1030 H   0  0  0  0  0  0  0  0  0  0  0  0
   35.4520   30.1970   40.4120 O   0  0  0  0  0  0  0  0  0  0  0  0
   35.1870   29.3340   39.3730 C   0  0  0  0  0  0  0  0  0  0  0  0
   35.4260   29.9100   38.1250 F   0  0  0  0  0  0  0  0  0  0  0  0
   35.8520   28.1450   39.5580 F   0  0  0  0  0  0  0  0  0  0  0  0
   33.8100   29.0680   39.4190 F   0  0  0  0  0  0  0  0  0  0  0  0
  2  1  2  1  0  0  0
  2  3  1  0  0  0  0
  3  6  1  0  0  0  0
  4 10  1  0  0  0  0
  5  4  1  0  0  0  0
  5 11  1  0  0  0  0
  6  5  2  0  0  0  0
  7  8  2  0  0  0  0
  7  6  1  0  0  0  0
  8  9  1  0  0  0  0
  9  4  2  0  0  0  0
 12  8  1  0  0  0  0
 13  2  1  0  0  0  0
 15 14  1  0  0  0  0
 15 16  1  0  0  0  0
 17 13  1  0  0  0  0
 17 16  2  0  0  0  0
 18 17  1  0  0  0  0
 19 18  2  0  0  0  0
 20 21  1  0  0  0  0
 20 18  1  0  0  0  0
 21 15  1  0  0  0  0
 22 21  2  0  0  0  0
 23 20  1  0  0  0  0
 24  2  1  0  0  0  0
 25 28  1  0  0  0  0
 25 27  1  0  0  0  0
 25 24  1  0  0  0  0
 26 25  1  0  0  0  0
M  END
>  <minimizedAffinity>
-5.25552225

$$$$

 OpenBabel03242519403D

 28 29  0  0  0  0  0  0  0  0999 V2000
   40.5810   30.6310   39.8950 O   0  0  0  0  0  0  0  0  0  0  0  0
   39.2480   31.3600   39.7070 P   0  0  2  0  0  0  0  0  0  0  0  0
   39.5770   32.9620   39.1820 O   0  0  0  0  0  0  0  0  0  0  0  0
   43.0350   34.1600   39.5260 C   0  0  0  0  0  0  0  0  0  0  0  0
   41.7040   33.8030   39.8700 C   0  0  0  0  0  0  0  0  0  0  0  0
   40.8750   33.3090   38.8520 C   0  0  0  0  0  0  0  0  0  0  0  0
   41.3870   33.1980   37.5980 N   0  0  0  0  0  0  0  0  0  0  0  0
   42.6610   33.5460   37.3030 C   0  0  0  0  0  0  0  0  0  0  0  0
   43.4810   34.0250   38.2630 N   0  0  0  0  0  0  0  0  0  0  0  0
   43.6150   34.5310   40.3580 H   0  0  0  0  0  0  0  0  0  0  0  0
   41.3350   33.9100   40.8900 H   0  0  0  0  0  0  0  0  0  0  0  0
   43.0680   33.4580   36.3080 H   0  0  0  0  0  0  0  0  0  0  0  0
   38.3590   31.4160   41.1060 O   0  0  0  0  0  0  0  0  0  0  0  0
   38.7840   27.7480   43.7490 H   0  0  0  0  0  0  0  0  0  0  0  0
   38.1910   28.3270   43.1090 N   0  0  0  0  0  0  0  0  0  0  0  0
   38.7150   29.4450   42.5790 C   0  0  0  0  0  3  0  0  0  0  0  0
   37.9690   30.2370   41.7330 C   0  0  0  0  0  0  0  0  0  0  0  0
   36.6750   29.8600   41.4400 C   0  0  0  0  0  0  0  0  0  0  0  0
   35.8230   30.4230   40.7030 O   0  0  0  0  0  0  0  0  0  0  0  0
   36.1820   28.7300   41.9910 N   0  0  0  0  0  0  0  0  0  0  0  0
   36.9130   27.9510   42.8230 C   0  0  0  0  0  0  0  0  0  0  0  0
   36.5000   26.8970   43.3570 O   0  0  0  0  0  0  0  0  0  0  0  0
   35.2150   28.3430   41.8430 H   0  0  0  0  0  0  0  0  0  0  0  0
   38.4040   30.5710   38.4690 O   0  0  0  0  0  0  0  0  0  0  0  0
   37.5550   31.4170   37.7910 C   0  0  0  0  0  0  0  0  0  0  0  0
   36.9300   32.3360   38.6340 F   0  0  0  0  0  0  0  0  0  0  0  0
   38.2100   32.0060   36.7360 F   0  0  0  0  0  0  0  0  0  0  0  0
   36.5300   30.6140   37.2660 F   0  0  0  0  0  0  0  0  0  0  0  0
  2  1  2  1  0  0  0
  2 13  1  0  0  0  0
  3  2  1  0  0  0  0
  4  5  1  0  0  0  0
  4 10  1  0  0  0  0
  5 11  1  0  0  0  0
  6  3  1  0  0  0  0
  6  5  2  0  0  0  0
  7  6  1  0  0  0  0
  8  7  2  0  0  0  0
  8  9  1  0  0  0  0
  9  4  2  0  0  0  0
 12  8  1  0  0  0  0
 13 17  1  0  0  0  0
 15 14  1  0  0  0  0
 16 15  1  0  0  0  0
 17 16  2  0  0  0  0
 18 17  1  0  0  0  0
 18 20  1  0  0  0  0
 19 18  2  0  0  0  0
 20 21  1  0  0  0  0
 21 15  1  0  0  0  0
 21 22  2  0  0  0  0
 23 20  1  0  0  0  0
 24  2  1  0  0  0  0
 25 24  1  0  0  0  0
 25 26  1  0  0  0  0
 27 25  1  0  0  0  0
 28 25  1  0  0  0  0
M  END
>  <minimizedAffinity>
-5.0765233

$$$$

 OpenBabel03242519403D

 28 29  0  0  0  0  0  0  0  0999 V2000
   35.0800   29.4880   40.3780 O   0  0  0  0  0  0  0  0  0  0  0  0
   36.5050   29.9320   40.7190 P   0  0  2  0  0  0  0  0  0  0  0  0
   36.9370   29.2500   42.2350 O   0  0  0  0  0  0  0  0  0  0  0  0
   37.6450   25.6430   42.2020 C   0  0  0  0  0  0  0  0  0  0  0  0
   36.9170   26.8620   42.1720 C   0  0  0  0  0  0  0  0  0  0  0  0
   37.6410   28.0600   42.2610 C   0  0  0  0  0  0  0  0  0  0  0  0
   38.9950   27.9900   42.3690 N   0  0  0  0  0  0  0  0  0  0  0  0
   39.6600   26.8120   42.3930 C   0  0  0  0  0  0  0  0  0  0  0  0
   38.9870   25.6440   42.3100 N   0  0  0  0  0  0  0  0  0  0  0  0
   37.0240   24.7630   42.1290 H   0  0  0  0  0  0  0  0  0  0  0  0
   35.8300   26.8700   42.0850 H   0  0  0  0  0  0  0  0  0  0  0  0
   40.7320   26.7560   42.4790 H   0  0  0  0  0  0  0  0  0  0  0  0
   36.6460   31.5830   40.8030 O   0  0  0  0  0  0  0  0  0  0  0  0
   41.0680   32.1600   41.6550 H   0  0  0  0  0  0  0  0  0  0  0  0
   40.2010   32.4810   41.1630 N   0  0  0  0  0  0  0  0  0  0  0  0
   39.0620   31.7940   41.3480 C   0  0  0  0  0  3  0  0  0  0  0  0
   37.8980   32.1820   40.7200 C   0  0  0  0  0  0  0  0  0  0  0  0
   37.9250   33.2890   39.8970 C   0  0  0  0  0  0  0  0  0  0  0  0
   36.9950   33.8170   39.2330 O   0  0  0  0  0  0  0  0  0  0  0  0
   39.0880   33.9560   39.7370 N   0  0  0  0  0  0  0  0  0  0  0  0
   40.2330   33.5770   40.3530 C   0  0  0  0  0  0  0  0  0  0  0  0
   41.3330   34.1610   40.2350 O   0  0  0  0  0  0  0  0  0  0  0  0
   39.2320   34.8100   39.1390 H   0  0  0  0  0  0  0  0  0  0  0  0
   37.5390   29.2830   39.5440 O   0  0  0  0  0  0  0  0  0  0  0  0
   37.0040   29.3550   38.2770 C   0  0  0  0  0  0  0  0  0  0  0  0
   36.0410   28.3720   38.0470 F   0  0  0  0  0  0  0  0  0  0  0  0
   36.5520   30.6280   38.0210 F   0  0  0  0  0  0  0  0  0  0  0  0
   38.0540   29.0840   37.3870 F   0  0  0  0  0  0  0  0  0  0  0  0
  2  1  2  6  0  0  0
  2 13  1  0  0  0  0
  2  3  1  0  0  0  0
  3  6  1  0  0  0  0
  4  9  1  0  0  0  0
  5  4  2  0  0  0  0
  5  6  1  0  0  0  0
  6  7  2  0  0  0  0
  7  8  1  0  0  0  0
  8 12  1  0  0  0  0
  9  8  2  0  0  0  0
 10  4  1  0  0  0  0
 11  5  1  0  0  0  0
 15 16  1  0  0  0  0
 15 14  1  0  0  0  0
 17 13  1  0  0  0  0
 17 16  2  0  0  0  0
 18 17  1  0  0  0  0
 19 18  2  0  0  0  0
 20 18  1  0  0  0  0
 20 21  1  0  0  0  0
 21 15  1  0  0  0  0
 22 21  2  0  0  0  0
 23 20  1  0  0  0  0
 24  2  1  0  0  0  0
 25 24  1  0  0  0  0
 26 25  1  0  0  0  0
 27 25  1  0  0  0  0
 28 25  1  0  0  0  0
M  END
>  <minimizedAffinity>
-5.0339427

$$$$

 OpenBabel03242519403D

 28 29  0  0  0  0  0  0  0  0999 V2000
   37.5110   28.8910   39.6640 O   0  0  0  0  0  0  0  0  0  0  0  0
   36.2230   29.1690   40.4440 P   0  0  2  0  0  0  0  0  0  0  0  0
   36.1970   30.8330   40.8700 O   0  0  0  0  0  0  0  0  0  0  0  0
   38.5160   33.4630   39.7640 C   0  0  0  0  0  0  0  0  0  0  0  0
   37.3240   32.7000   39.8960 C   0  0  0  0  0  0  0  0  0  0  0  0
   37.3540   31.5790   40.7390 C   0  0  0  0  0  0  0  0  0  0  0  0
   38.5150   31.2850   41.3820 N   0  0  0  0  0  0  0  0  0  0  0  0
   39.6330   32.0320   41.2370 C   0  0  0  0  0  0  0  0  0  0  0  0
   39.6330   33.1170   40.4310 N   0  0  0  0  0  0  0  0  0  0  0  0
   38.4200   34.3090   39.1020 H   0  0  0  0  0  0  0  0  0  0  0  0
   36.4160   32.9730   39.3600 H   0  0  0  0  0  0  0  0  0  0  0  0
   40.5540   31.8000   41.7460 H   0  0  0  0  0  0  0  0  0  0  0  0
   36.1120   28.2510   41.8210 O   0  0  0  0  0  0  0  0  0  0  0  0
   38.4850   24.3830   41.6520 H   0  0  0  0  0  0  0  0  0  0  0  0
   38.3610   25.3410   42.0560 N   0  0  0  0  0  0  0  0  0  0  0  0
   37.3260   26.0890   41.6390 C   0  0  0  0  0  3  0  0  0  0  0  0
   37.1250   27.3550   42.1460 C   0  0  0  0  0  0  0  0  0  0  0  0
   38.0080   27.8400   43.0890 C   0  0  0  0  0  0  0  0  0  0  0  0
   38.0190   28.9520   43.6800 O   0  0  0  0  0  0  0  0  0  0  0  0
   39.0360   27.0590   43.4850 N   0  0  0  0  0  0  0  0  0  0  0  0
   39.2350   25.8150   42.9890 C   0  0  0  0  0  0  0  0  0  0  0  0
   40.1720   25.0560   43.3240 O   0  0  0  0  0  0  0  0  0  0  0  0
   39.7690   27.3180   44.1940 H   0  0  0  0  0  0  0  0  0  0  0  0
   34.9200   28.8790   39.4010 O   0  0  0  0  0  0  0  0  0  0  0  0
   35.2380   29.1240   38.0840 C   0  0  0  0  0  0  0  0  0  0  0  0
   35.9450   30.3150   37.9170 F   0  0  0  0  0  0  0  0  0  0  0  0
   35.8710   28.0350   37.5350 F   0  0  0  0  0  0  0  0  0  0  0  0
   34.0200   29.3000   37.4090 F   0  0  0  0  0  0  0  0  0  0  0  0
  2  1  2  6  0  0  0
  2  3  1  0  0  0  0
  2 13  1  0  0  0  0
  4  5  2  0  0  0  0
  4  9  1  0  0  0  0
  5  6  1  0  0  0  0
  6  3  1  0  0  0  0
  6  7  2  0  0  0  0
  8  7  1  0  0  0  0
  8 12  1  0  0  0  0
  9  8  2  0  0  0  0
 10  4  1  0  0  0  0
 11  5  1  0  0  0  0
 13 17  1  0  0  0  0
 14 15  1  0  0  0  0
 15 21  1  0  0  0  0
 16 15  1  0  0  0  0
 16 17  2  0  0  0  0
 17 18  1  0  0  0  0
 18 20  1  0  0  0  0
 18 19  2  0  0  0  0
 20 23  1  0  0  0  0
 21 22  2  0  0  0  0
 21 20  1  0  0  0  0
 24  2  1  0  0  0  0
 25 24  1  0  0  0  0
 26 25  1  0  0  0  0
 27 25  1  0  0  0  0
 28 25  1  0  0  0  0
M  END
>  <minimizedAffinity>
-5.00911093

$$$$

 OpenBabel03242519403D

 28 29  0  0  0  0  0  0  0  0999 V2000
   38.7980   27.2020   41.0790 O   0  0  0  0  0  0  0  0  0  0  0  0
   38.0590   27.0470   42.4100 P   0  0  2  0  0  0  0  0  0  0  0  0
   37.1600   28.4820   42.7000 O   0  0  0  0  0  0  0  0  0  0  0  0
   36.9870   31.4950   40.6000 C   0  0  0  0  0  0  0  0  0  0  0  0
   36.5940   30.2940   41.2500 C   0  0  0  0  0  0  0  0  0  0  0  0
   37.5380   29.6520   42.0660 C   0  0  0  0  0  0  0  0  0  0  0  0
   38.7700   30.2120   42.1920 N   0  0  0  0  0  0  0  0  0  0  0  0
   39.1140   31.3580   41.5610 C   0  0  0  0  0  0  0  0  0  0  0  0
   38.2260   31.9960   40.7680 N   0  0  0  0  0  0  0  0  0  0  0  0
   36.2120   31.9330   39.9900 H   0  0  0  0  0  0  0  0  0  0  0  0
   35.5940   29.8810   41.1190 H   0  0  0  0  0  0  0  0  0  0  0  0
   40.0910   31.8020   41.6600 H   0  0  0  0  0  0  0  0  0  0  0  0
   39.0960   26.7860   43.6780 O   0  0  0  0  0  0  0  0  0  0  0  0
   43.4870   27.7860   43.1030 H   0  0  0  0  0  0  0  0  0  0  0  0
   42.7300   27.0630   43.1390 N   0  0  0  0  0  0  0  0  0  0  0  0
   41.4700   27.4600   43.3810 C   0  0  0  0  0  3  0  0  0  0  0  0
   40.4440   26.5420   43.4380 C   0  0  0  0  0  0  0  0  0  0  0  0
   40.7340   25.2080   43.2420 C   0  0  0  0  0  0  0  0  0  0  0  0
   39.9660   24.2100   43.2500 O   0  0  0  0  0  0  0  0  0  0  0  0
   42.0130   24.8460   43.0000 N   0  0  0  0  0  0  0  0  0  0  0  0
   43.0230   25.7460   42.9440 C   0  0  0  0  0  0  0  0  0  0  0  0
   44.2210   25.4590   42.7240 O   0  0  0  0  0  0  0  0  0  0  0  0
   42.3560   23.8650   42.8360 H   0  0  0  0  0  0  0  0  0  0  0  0
   36.9580   25.7710   42.2380 O   0  0  0  0  0  0  0  0  0  0  0  0
   37.0000   25.2070   40.9830 C   0  0  0  0  0  0  0  0  0  0  0  0
   36.5310   26.0710   39.9930 F   0  0  0  0  0  0  0  0  0  0  0  0
   38.2560   24.7140   40.7220 F   0  0  0  0  0  0  0  0  0  0  0  0
   36.1080   24.1240   41.0050 F   0  0  0  0  0  0  0  0  0  0  0  0
  2  1  2  6  0  0  0
  2  3  1  0  0  0  0
  2 13  1  0  0  0  0
  4  9  2  0  0  0  0
  4  5  1  0  0  0  0
  5  6  2  0  0  0  0
  6  7  1  0  0  0  0
  6  3  1  0  0  0  0
  8 12  1  0  0  0  0
  8  7  2  0  0  0  0
  9  8  1  0  0  0  0
 10  4  1  0  0  0  0
 11  5  1  0  0  0  0
 14 15  1  0  0  0  0
 15 16  1  0  0  0  0
 16 17  2  0  0  0  0
 17 13  1  0  0  0  0
 18 19  2  0  0  0  0
 18 17  1  0  0  0  0
 20 18  1  0  0  0  0
 21 20  1  0  0  0  0
 21 15  1  0  0  0  0
 22 21  2  0  0  0  0
 23 20  1  0  0  0  0
 24  2  1  0  0  0  0
 25 28  1  0  0  0  0
 25 24  1  0  0  0  0
 26 25  1  0  0  0  0
 27 25  1  0  0  0  0
M  END
>  <minimizedAffinity>
-4.99467325

$$$$

 OpenBabel03242519403D

 28 29  0  0  0  0  0  0  0  0999 V2000
   35.1400   29.8460   40.3810 O   0  0  0  0  0  0  0  0  0  0  0  0
   36.2410   30.0180   39.3310 P   0  0  2  0  0  0  0  0  0  0  0  0
   37.5360   28.9620   39.7260 O   0  0  0  0  0  0  0  0  0  0  0  0
   37.5760   26.7520   42.6640 C   0  0  0  0  0  0  0  0  0  0  0  0
   37.4260   27.1850   41.3190 C   0  0  0  0  0  0  0  0  0  0  0  0
   37.6820   28.5350   41.0340 C   0  0  0  0  0  0  0  0  0  0  0  0
   38.0580   29.3510   42.0530 N   0  0  0  0  0  0  0  0  0  0  0  0
   38.1930   28.9080   43.3240 C   0  0  0  0  0  0  0  0  0  0  0  0
   37.9530   27.6140   43.6280 N   0  0  0  0  0  0  0  0  0  0  0  0
   37.3640   25.7040   42.8100 H   0  0  0  0  0  0  0  0  0  0  0  0
   37.1210   26.4950   40.5330 H   0  0  0  0  0  0  0  0  0  0  0  0
   38.4910   29.5540   44.1330 H   0  0  0  0  0  0  0  0  0  0  0  0
   36.8080   31.5760   39.2640 O   0  0  0  0  0  0  0  0  0  0  0  0
   39.6890   32.0390   35.7850 H   0  0  0  0  0  0  0  0  0  0  0  0
   39.5130   32.0950   36.8160 N   0  0  0  0  0  0  0  0  0  0  0  0
   38.2890   31.7930   37.2790 C   0  0  0  0  0  3  0  0  0  0  0  0
   38.0130   31.8530   38.6280 C   0  0  0  0  0  0  0  0  0  0  0  0
   39.0190   32.2290   39.4950 C   0  0  0  0  0  0  0  0  0  0  0  0
   38.9940   32.3500   40.7480 O   0  0  0  0  0  0  0  0  0  0  0  0
   40.2380   32.5230   38.9930 N   0  0  0  0  0  0  0  0  0  0  0  0
   40.5100   32.4650   37.6680 C   0  0  0  0  0  0  0  0  0  0  0  0
   41.6220   32.7290   37.1570 O   0  0  0  0  0  0  0  0  0  0  0  0
   41.0790   32.8200   39.5510 H   0  0  0  0  0  0  0  0  0  0  0  0
   35.6070   29.5270   37.8390 O   0  0  0  0  0  0  0  0  0  0  0  0
   34.7500   28.4560   37.9600 C   0  0  0  0  0  0  0  0  0  0  0  0
   35.2820   27.4310   38.7420 F   0  0  0  0  0  0  0  0  0  0  0  0
   33.5140   28.8790   38.3880 F   0  0  0  0  0  0  0  0  0  0  0  0
   34.5990   27.9210   36.6720 F   0  0  0  0  0  0  0  0  0  0  0  0
  2  3  1  0  0  0  0
  2  1  2  1  0  0  0
  3  6  1  0  0  0  0
  4 10  1  0  0  0  0
  4  9  1  0  0  0  0
  5  4  2  0  0  0  0
  6  5  1  0  0  0  0
  6  7  2  0  0  0  0
  7  8  1  0  0  0  0
  8  9  2  0  0  0  0
  8 12  1  0  0  0  0
 11  5  1  0  0  0  0
 13  2  1  0  0  0  0
 14 15  1  0  0  0  0
 15 16  1  0  0  0  0
 15 21  1  0  0  0  0
 16 17  2  0  0  0  0
 17 13  1  0  0  0  0
 17 18  1  0  0  0  0
 18 19  2  0  0  0  0
 20 18  1  0  0  0  0
 20 23  1  0  0  0  0
 21 20  1  0  0  0  0
 22 21  2  0  0  0  0
 24 25  1  0  0  0  0
 24  2  1  0  0  0  0
 25 27  1  0  0  0  0
 25 26  1  0  0  0  0
 28 25  1  0  0  0  0
M  END
>  <minimizedAffinity>
-4.97731829

$$$$

 OpenBabel03242519403D

 28 29  0  0  0  0  0  0  0  0999 V2000
   38.4130   27.9010   39.6220 O   0  0  0  0  0  0  0  0  0  0  0  0
   37.0680   27.9500   40.3510 P   0  0  2  0  0  0  0  0  0  0  0  0
   35.8360   28.2540   39.1940 O   0  0  0  0  0  0  0  0  0  0  0  0
   36.7120   29.8020   35.9760 C   0  0  0  0  0  0  0  0  0  0  0  0
   36.3580   29.6760   37.3460 C   0  0  0  0  0  0  0  0  0  0  0  0
   36.1820   28.3820   37.8600 C   0  0  0  0  0  0  0  0  0  0  0  0
   36.3580   27.3250   37.0240 N   0  0  0  0  0  0  0  0  0  0  0  0
   36.6960   27.4780   35.7240 C   0  0  0  0  0  0  0  0  0  0  0  0
   36.8720   28.7110   35.2020 N   0  0  0  0  0  0  0  0  0  0  0  0
   36.8320   30.8230   35.6500 H   0  0  0  0  0  0  0  0  0  0  0  0
   36.2260   30.5520   37.9800 H   0  0  0  0  0  0  0  0  0  0  0  0
   36.8360   26.6400   35.0610 H   0  0  0  0  0  0  0  0  0  0  0  0
   37.0270   29.1320   41.5150 O   0  0  0  0  0  0  0  0  0  0  0  0
   36.2900   33.3220   39.9300 H   0  0  0  0  0  0  0  0  0  0  0  0
   36.9480   32.6300   40.3590 N   0  0  0  0  0  0  0  0  0  0  0  0
   36.5000   31.3910   40.6190 C   0  0  0  0  0  3  0  0  0  0  0  0
   37.3330   30.4480   41.1840 C   0  0  0  0  0  0  0  0  0  0  0  0
   38.6340   30.8010   41.4770 C   0  0  0  0  0  0  0  0  0  0  0  0
   39.5560   30.1130   41.9870 O   0  0  0  0  0  0  0  0  0  0  0  0
   39.0480   32.0560   41.2000 N   0  0  0  0  0  0  0  0  0  0  0  0
   38.2330   32.9840   40.6460 C   0  0  0  0  0  0  0  0  0  0  0  0
   38.5700   34.1570   40.3720 O   0  0  0  0  0  0  0  0  0  0  0  0
   40.0110   32.4400   41.3760 H   0  0  0  0  0  0  0  0  0  0  0  0
   36.7900   26.4180   41.0160 O   0  0  0  0  0  0  0  0  0  0  0  0
   37.2680   26.3090   42.3030 C   0  0  0  0  0  0  0  0  0  0  0  0
   38.5680   26.7980   42.4330 F   0  0  0  0  0  0  0  0  0  0  0  0
   36.3840   26.8750   43.1900 F   0  0  0  0  0  0  0  0  0  0  0  0
   37.3410   24.9360   42.5840 F   0  0  0  0  0  0  0  0  0  0  0  0
  2  1  2  6  0  0  0
  2 24  1  0  0  0  0
  2 13  1  0  0  0  0
  3  2  1  0  0  0  0
  4  5  1  0  0  0  0
  5  6  2  0  0  0  0
  5 11  1  0  0  0  0
  6  3  1  0  0  0  0
  7  6  1  0  0  0  0
  8  7  2  0  0  0  0
  9  8  1  0  0  0  0
  9  4  2  0  0  0  0
 10  4  1  0  0  0  0
 12  8  1  0  0  0  0
 14 15  1  0  0  0  0
 15 16  1  0  0  0  0
 15 21  1  0  0  0  0
 16 17  2  0  0  0  0
 17 18  1  0  0  0  0
 17 13  1  0  0  0  0
 18 19  2  0  0  0  0
 20 23  1  0  0  0  0
 20 18  1  0  0  0  0
 21 20  1  0  0  0  0
 22 21  2  0  0  0  0
 24 25  1  0  0  0  0
 25 26  1  0  0  0  0
 25 28  1  0  0  0  0
 25 27  1  0  0  0  0
M  END
>  <minimizedAffinity>
-4.95087624

$$$$

 OpenBabel03242519403D

 28 29  0  0  0  0  0  0  0  0999 V2000
   38.5310   27.5820   39.0760 O   0  0  0  0  0  0  0  0  0  0  0  0
   37.3180   27.7810   39.9880 P   0  0  2  0  0  0  0  0  0  0  0  0
   36.4970   26.2790   40.1340 O   0  0  0  0  0  0  0  0  0  0  0  0
   37.6780   23.1940   38.5210 C   0  0  0  0  0  0  0  0  0  0  0  0
   36.9570   24.4000   38.7340 C   0  0  0  0  0  0  0  0  0  0  0  0
   37.1980   25.1060   39.9220 C   0  0  0  0  0  0  0  0  0  0  0  0
   38.1040   24.6020   40.8000 N   0  0  0  0  0  0  0  0  0  0  0  0
   38.7760   23.4510   40.5680 C   0  0  0  0  0  0  0  0  0  0  0  0
   38.5640   22.7510   39.4330 N   0  0  0  0  0  0  0  0  0  0  0  0
   37.4430   22.7060   37.5880 H   0  0  0  0  0  0  0  0  0  0  0  0
   36.2380   24.7660   38.0010 H   0  0  0  0  0  0  0  0  0  0  0  0
   39.4950   23.0510   41.2640 H   0  0  0  0  0  0  0  0  0  0  0  0
   36.2680   28.9220   39.3970 O   0  0  0  0  0  0  0  0  0  0  0  0
   36.5950   32.9330   41.4990 H   0  0  0  0  0  0  0  0  0  0  0  0
   36.7290   32.3630   40.6310 N   0  0  0  0  0  0  0  0  0  0  0  0
   36.3980   31.0620   40.6560 C   0  0  0  0  0  3  0  0  0  0  0  0
   36.5580   30.2750   39.5350 C   0  0  0  0  0  0  0  0  0  0  0  0
   37.0640   30.8490   38.3880 C   0  0  0  0  0  0  0  0  0  0  0  0
   37.2910   30.3290   37.2640 O   0  0  0  0  0  0  0  0  0  0  0  0
   37.3840   32.1610   38.4000 N   0  0  0  0  0  0  0  0  0  0  0  0
   37.2280   32.9360   39.4990 C   0  0  0  0  0  0  0  0  0  0  0  0
   37.5110   34.1540   39.5590 O   0  0  0  0  0  0  0  0  0  0  0  0
   37.7760   32.7080   37.5910 H   0  0  0  0  0  0  0  0  0  0  0  0
   37.8950   28.2090   41.5220 O   0  0  0  0  0  0  0  0  0  0  0  0
   36.9820   27.9450   42.5180 C   0  0  0  0  0  0  0  0  0  0  0  0
   35.6650   28.1400   42.1020 F   0  0  0  0  0  0  0  0  0  0  0  0
   37.2040   26.6990   43.0530 F   0  0  0  0  0  0  0  0  0  0  0  0
   37.2120   28.8930   43.5280 F   0  0  0  0  0  0  0  0  0  0  0  0
  2  1  2  6  0  0  0
  2  3  1  0  0  0  0
  2 24  1  0  0  0  0
  4  5  2  0  0  0  0
  4  9  1  0  0  0  0
  5  6  1  0  0  0  0
  6  3  1  0  0  0  0
  6  7  2  0  0  0  0
  8  7  1  0  0  0  0
  8 12  1  0  0  0  0
  9  8  2  0  0  0  0
 10  4  1  0  0  0  0
 11  5  1  0  0  0  0
 13 17  1  0  0  0  0
 13  2  1  0  0  0  0
 15 16  1  0  0  0  0
 15 14  1  0  0  0  0
 17 16  2  0  0  0  0
 18 20  1  0  0  0  0
 18 17  1  0  0  0  0
 19 18  2  0  0  0  0
 20 21  1  0  0  0  0
 21 22  2  0  0  0  0
 21 15  1  0  0  0  0
 23 20  1  0  0  0  0
 24 25  1  0  0  0  0
 25 27  1  0  0  0  0
 25 28  1  0  0  0  0
 26 25  1  0  0  0  0
M  END
>  <minimizedAffinity>
-4.89264965

$$$$

 OpenBabel03242519403D

 28 29  0  0  0  0  0  0  0  0999 V2000
   38.1360   28.9440   40.2450 O   0  0  0  0  0  0  0  0  0  0  0  0
   36.8700   29.5030   40.8990 P   0  0  2  0  0  0  0  0  0  0  0  0
   35.5060   28.8490   40.0860 O   0  0  0  0  0  0  0  0  0  0  0  0
   35.6500   26.9970   36.9130 C   0  0  0  0  0  0  0  0  0  0  0  0
   35.5620   27.2550   38.3070 C   0  0  0  0  0  0  0  0  0  0  0  0
   35.5900   28.5920   38.7290 C   0  0  0  0  0  0  0  0  0  0  0  0
   35.6990   29.5650   37.7850 N   0  0  0  0  0  0  0  0  0  0  0  0
   35.7790   29.2870   36.4640 C   0  0  0  0  0  0  0  0  0  0  0  0
   35.7550   28.0090   36.0300 N   0  0  0  0  0  0  0  0  0  0  0  0
   35.6210   25.9480   36.6620 H   0  0  0  0  0  0  0  0  0  0  0  0
   35.4770   26.4420   39.0280 H   0  0  0  0  0  0  0  0  0  0  0  0
   35.8660   30.0580   35.7160 H   0  0  0  0  0  0  0  0  0  0  0  0
   36.8050   31.1590   40.8280 O   0  0  0  0  0  0  0  0  0  0  0  0
   40.9100   32.8250   41.8220 H   0  0  0  0  0  0  0  0  0  0  0  0
   40.1070   32.7610   41.1520 N   0  0  0  0  0  0  0  0  0  0  0  0
   39.0480   32.0070   41.4860 C   0  0  0  0  0  3  0  0  0  0  0  0
   37.9690   31.8950   40.6350 C   0  0  0  0  0  0  0  0  0  0  0  0
   37.9990   32.5730   39.4340 C   0  0  0  0  0  0  0  0  0  0  0  0
   37.1380   32.6150   38.5160 O   0  0  0  0  0  0  0  0  0  0  0  0
   39.0810   33.3230   39.1330 N   0  0  0  0  0  0  0  0  0  0  0  0
   40.1410   33.4340   39.9670 C   0  0  0  0  0  0  0  0  0  0  0  0
   41.1640   34.1150   39.7320 O   0  0  0  0  0  0  0  0  0  0  0  0
   39.2170   33.8830   38.2530 H   0  0  0  0  0  0  0  0  0  0  0  0
   36.8340   28.9510   42.5000 O   0  0  0  0  0  0  0  0  0  0  0  0
   37.0580   27.5950   42.5920 C   0  0  0  0  0  0  0  0  0  0  0  0
   36.5950   26.8990   41.4760 F   0  0  0  0  0  0  0  0  0  0  0  0
   38.3790   27.3480   42.8770 F   0  0  0  0  0  0  0  0  0  0  0  0
   36.2920   27.1400   43.6770 F   0  0  0  0  0  0  0  0  0  0  0  0
  2  1  2  6  0  0  0
  2 24  1  0  0  0  0
  3  2  1  0  0  0  0
  4  5  1  0  0  0  0
  5  6  2  0  0  0  0
  5 11  1  0  0  0  0
  6  3  1  0  0  0  0
  7  6  1  0  0  0  0
  8  7  2  0  0  0  0
  9  8  1  0  0  0  0
  9  4  2  0  0  0  0
 10  4  1  0  0  0  0
 12  8  1  0  0  0  0
 13  2  1  0  0  0  0
 15 16  1  0  0  0  0
 15 14  1  0  0  0  0
 17 13  1  0  0  0  0
 17 16  2  0  0  0  0
 18 17  1  0  0  0  0
 19 18  2  0  0  0  0
 20 18  1  0  0  0  0
 20 21  1  0  0  0  0
 21 15  1  0  0  0  0
 22 21  2  0  0  0  0
 23 20  1  0  0  0  0
 24 25  1  0  0  0  0
 25 27  1  0  0  0  0
 25 28  1  0  0  0  0
 26 25  1  0  0  0  0
M  END
>  <minimizedAffinity>
-4.88559008

$$$$
