
 OpenBabel03252509013D

 46 48  0  0  1  0  0  0  0  0999 V2000
   47.1720   34.1560   43.0920 N   0  0  0  0  0  0  0  0  0  0  0  0
   46.6760   35.3450   42.4820 C   0  0  0  0  0  0  0  0  0  0  0  0
   45.2070   35.6100   42.6830 C   0  0  0  0  0  0  0  0  0  0  0  0
   44.6510   35.1110   43.9850 C   0  0  0  0  0  0  0  0  0  0  0  0
   45.7410   34.5660   44.8780 C   0  0  0  0  0  0  0  0  0  0  0  0
   46.3940   33.4450   43.9880 C   0  0  2  0  0  0  0  0  0  0  0  0
   47.2230   36.1890   42.9820 H   0  0  0  0  0  0  0  0  0  0  0  0
   46.8940   35.4630   41.4190 H   0  0  0  0  0  0  0  0  0  0  0  0
   44.6150   35.2430   41.8130 H   0  0  0  0  0  0  0  0  0  0  0  0
   45.0460   36.7140   42.6910 H   0  0  0  0  0  0  0  0  0  0  0  0
   43.9800   34.2520   43.7410 H   0  0  0  0  0  0  0  0  0  0  0  0
   43.9930   35.8500   44.5010 H   0  0  0  0  0  0  0  0  0  0  0  0
   46.4870   35.3420   45.0740 H   0  0  0  0  0  0  0  0  0  0  0  0
   45.3010   34.1110   45.7740 H   0  0  0  0  0  0  0  0  0  0  0  0
   45.5740   32.8350   43.5790 H   0  0  0  0  0  0  0  0  0  0  0  0
   48.1430   33.4520   42.3070 C   0  0  0  0  0  0  0  0  0  0  0  0
   48.8040   34.1800   41.8220 H   0  0  0  0  0  0  0  0  0  0  0  0
   48.7420   32.8090   42.9900 H   0  0  0  0  0  0  0  0  0  0  0  0
   47.4270   32.5680   41.3330 C   0  0  0  0  0  0  0  0  0  0  0  0
   47.5030   31.5050   41.5990 H   0  0  0  0  0  0  0  0  0  0  0  0
   46.3450   32.8080   41.2990 H   0  0  0  0  0  0  0  0  0  0  0  0
   49.3310   32.0320   38.1340 C   0  0  0  0  0  0  0  0  0  0  0  0
   48.8040   31.8210   39.4280 C   0  0  0  0  0  0  0  0  0  0  0  0
   47.9840   32.7860   39.9730 C   0  0  0  0  0  0  0  0  0  0  0  0
   47.7240   33.8890   39.2430 N   0  0  0  0  0  0  0  0  0  0  0  0
   48.2430   34.0620   38.0110 C   0  0  0  0  0  0  0  0  0  0  0  0
   49.0430   33.1500   37.4460 N   0  0  0  0  0  0  0  0  0  0  0  0
   49.9640   31.2420   37.7650 H   0  0  0  0  0  0  0  0  0  0  0  0
   49.0140   30.9290   40.0160 H   0  0  0  0  0  0  0  0  0  0  0  0
   48.0380   34.9460   37.4190 H   0  0  0  0  0  0  0  0  0  0  0  0
   47.1830   32.7780   44.9260 O   0  0  0  0  0  0  0  0  0  0  0  0
   45.9260   30.5980   44.0610 O   0  0  0  0  0  0  0  0  0  0  0  0
   46.5940   31.2340   45.2770 P   0  0  2  0  0  0  0  0  0  0  0  0
   45.3520   31.4610   46.4330 O   0  0  0  0  0  0  0  0  0  0  0  0
   45.6820   32.0270   47.1700 H   0  0  0  0  0  0  0  0  0  0  0  0
   47.7590   30.2680   45.9640 O   0  0  0  0  0  0  0  0  0  0  0  0
   49.2280   26.9660   48.4870 H   0  0  0  0  0  0  0  0  0  0  0  0
   48.4630   27.3480   47.8750 N   0  0  0  0  0  0  0  0  0  0  0  0
   48.5290   28.5690   47.2700 C   0  0  0  0  0  3  0  0  0  0  0  0
   47.4710   29.0110   46.4690 C   0  0  0  0  0  0  0  0  0  0  0  0
   46.3880   28.1770   46.3220 C   0  0  0  0  0  0  0  0  0  0  0  0
   45.5070   28.6840   45.5820 O   0  0  0  0  0  0  0  0  0  0  0  0
   46.3770   26.9920   46.9380 N   0  0  0  0  0  0  0  0  0  0  0  0
   47.3870   26.5650   47.7060 C   0  0  0  0  0  0  0  0  0  0  0  0
   47.2060   25.4310   48.2030 O   0  0  0  0  0  0  0  0  0  0  0  0
   45.4960   26.4380   46.7540 H   0  0  0  0  0  0  0  0  0  0  0  0
  1  6  1  0  0  0  0
  2  3  1  0  0  0  0
  2  7  1  0  0  0  0
  2  1  1  0  0  0  0
  3 10  1  0  0  0  0
  3  4  1  0  0  0  0
  4 12  1  0  0  0  0
  4  5  1  0  0  0  0
  5 13  1  0  0  0  0
  5 14  1  0  0  0  0
  6 15  1  6  0  0  0
  6  5  1  0  0  0  0
  6 31  1  0  0  0  0
  8  2  1  0  0  0  0
  9  3  1  0  0  0  0
 11  4  1  0  0  0  0
 16 18  1  0  0  0  0
 16  1  1  0  0  0  0
 17 16  1  0  0  0  0
 19 20  1  0  0  0  0
 19 16  1  0  0  0  0
 21 19  1  0  0  0  0
 22 23  1  0  0  0  0
 23 24  2  0  0  0  0
 23 29  1  0  0  0  0
 24 19  1  0  0  0  0
 25 24  1  0  0  0  0
 26 25  2  0  0  0  0
 27 26  1  0  0  0  0
 27 22  2  0  0  0  0
 28 22  1  0  0  0  0
 30 26  1  0  0  0  0
 31 33  1  0  0  0  0
 33 32  2  6  0  0  0
 33 36  1  0  0  0  0
 33 34  1  0  0  0  0
 34 35  1  0  0  0  0
 36 40  1  0  0  0  0
 38 37  1  0  0  0  0
 39 38  1  0  0  0  0
 40 39  2  0  0  0  0
 41 40  1  0  0  0  0
 41 43  1  0  0  0  0
 42 41  2  0  0  0  0
 43 44  1  0  0  0  0
 44 38  1  0  0  0  0
 44 45  2  0  0  0  0
 46 43  1  0  0  0  0
M  END
>  <minimizedAffinity>
-4.22521114

>  <minimizedRMSD>
0.349304944

$$$$
