REMARK  Name = 
REMARK  5 active torsions:
REMARK  status: ('A' for Active; 'I' for Inactive)
REMARK    1  A    between atoms: C_1  and  O_13
REMARK    2  A    between atoms: C_2  and  C_9
REMARK    3  A    between atoms: C_5  and  O_14
REMARK    4  A    between atoms: C_6  and  O_15
REMARK    5  A    between atoms: O_15  and  C_30
REMARK                            x       y       z     vdW  Elec       q    Type
REMARK                         _______ _______ _______ _____ _____    ______ ____
ROOT
ATOM      1  C   UNL     1      48.148  33.515  42.574  0.00  0.00    +0.000 C 
ATOM      2  C   UNL     1      46.681  33.731  42.286  0.00  0.00    +0.000 C 
ATOM      3  O   UNL     1      46.472  34.632  41.262  0.00  0.00    +0.000 OA
ATOM      4  C   UNL     1      46.883  33.995  40.101  0.00  0.00    +0.000 C 
ATOM      5  C   UNL     1      48.378  33.924  40.096  0.00  0.00    +0.000 C 
ATOM      6  C   UNL     1      48.997  33.374  41.356  0.00  0.00    +0.000 C 
ATOM      7  H   UNL     1      48.205  32.536  43.138  0.00  0.00    +0.000 HD
ATOM      8  H   UNL     1      46.310  32.723  41.955  0.00  0.00    +0.000 HD
ATOM      9  H   UNL     1      46.452  32.980  40.001  0.00  0.00    +0.000 HD
ATOM     10  H   UNL     1      46.586  34.632  39.252  0.00  0.00    +0.000 HD
ATOM     11  H   UNL     1      48.681  33.273  39.255  0.00  0.00    +0.000 HD
ATOM     12  H   UNL     1      49.903  34.010  41.526  0.00  0.00    +0.000 HD
ENDROOT
BRANCH   2  15
ATOM     13  C   UNL     1      44.584  35.807  44.665  0.00  0.00    +0.000 A 
ATOM     14  C   UNL     1      45.220  35.391  43.487  0.00  0.00    +0.000 A 
ATOM     15  C   UNL     1      45.991  34.194  43.499  0.00  0.00    +0.000 A 
ATOM     16  N   UNL     1      46.067  33.517  44.666  0.00  0.00    +0.000 NA
ATOM     17  C   UNL     1      45.443  33.942  45.790  0.00  0.00    +0.000 A 
ATOM     18  N   UNL     1      44.699  35.087  45.795  0.00  0.00    +0.000 NA
ATOM     19  H   UNL     1      44.034  36.727  44.517  0.00  0.00    +0.000 HD
ATOM     20  H   UNL     1      45.165  35.924  42.551  0.00  0.00    +0.000 HD
ATOM     21  H   UNL     1      45.524  33.372  46.720  0.00  0.00    +0.000 HD
ENDBRANCH   2  15
BRANCH   1  22
ATOM     22  O   UNL     1      48.650  34.459  43.475  0.00  0.00    +0.000 OA
ATOM     23  H   UNL     1      49.366  34.086  44.045  0.00  0.00    +0.000 HD
ENDBRANCH   1  22
BRANCH   5  24
ATOM     24  O   UNL     1      48.810  35.240  39.846  0.00  0.00    +0.000 OA
ATOM     25  H   UNL     1      49.783  35.139  39.606  0.00  0.00    +0.000 HD
ENDBRANCH   5  24
BRANCH   6  26
ATOM     26  O   UNL     1      49.457  32.068  41.177  0.00  0.00    +0.000 OA
BRANCH  26  30
ATOM     27  H   UNL     1      53.162  29.644  42.115  0.00  0.00    +0.000 HD
ATOM     28  N   UNL     1      52.752  30.473  41.634  0.00  0.00    +0.000 N 
ATOM     29  C   UNL     1      51.434  30.596  41.798  0.00  0.00    +0.000 A 
ATOM     30  C   UNL     1      50.778  31.656  41.207  0.00  0.00    +0.000 A 
ATOM     31  C   UNL     1      51.543  32.557  40.456  0.00  0.00    +0.000 A 
ATOM     32  O   UNL     1      51.145  33.593  39.833  0.00  0.00    +0.000 OA
ATOM     33  N   UNL     1      52.891  32.393  40.315  0.00  0.00    +0.000 N 
ATOM     34  C   UNL     1      53.477  31.343  40.911  0.00  0.00    +0.000 A 
ATOM     35  O   UNL     1      54.705  31.068  40.867  0.00  0.00    +0.000 OA
ATOM     36  H   UNL     1      53.515  33.011  39.781  0.00  0.00    +0.000 HD
ENDBRANCH  26  30
ENDBRANCH   6  26
TORSDOF 5
