
 OpenBabel03242512183D

 34 36  0  0  0  0  0  0  0  0999 V2000
   48.4870   33.0730   41.3960 C   0  0  0  0  0  0  0  0  0  0  0  0
   48.0550   34.3000   41.8310 C   0  0  0  0  0  0  0  0  0  0  0  0
   48.9430   35.1580   42.4510 C   0  0  0  0  0  0  0  0  0  0  0  0
   50.2560   34.7600   42.6220 C   0  0  0  0  0  0  0  0  0  0  0  0
   50.6690   33.5250   42.1780 C   0  0  0  0  0  0  0  0  0  0  0  0
   49.7780   32.6470   41.5480 C   0  0  0  0  0  0  0  0  0  0  0  0
   48.5290   36.1140   42.7700 H   0  0  0  0  0  0  0  0  0  0  0  0
   50.8870   35.4870   43.1150 H   0  0  0  0  0  0  0  0  0  0  0  0
   51.7100   33.2980   42.3530 H   0  0  0  0  0  0  0  0  0  0  0  0
   46.6200   34.5860   41.5760 C   0  0  0  0  0  0  0  0  0  0  0  0
   46.6060   35.5480   40.9850 H   0  0  0  0  0  0  0  0  0  0  0  0
   46.1350   33.8540   40.9580 H   0  0  0  0  0  0  0  0  0  0  0  0
   45.9250   34.8820   42.8760 C   0  0  0  0  0  0  0  0  0  0  0  0
   45.9640   33.8930   43.8670 C   0  0  0  0  0  0  0  0  0  0  0  0
   45.3320   34.1570   45.0720 C   0  0  0  0  0  0  0  0  0  0  0  0
   44.7130   35.3590   45.2190 N   0  0  0  0  0  0  0  0  0  0  0  0
   44.6950   36.2940   44.2410 C   0  0  0  0  0  0  0  0  0  0  0  0
   45.2960   36.0580   43.0760 N   0  0  0  0  0  0  0  0  0  0  0  0
   46.4790   32.9620   43.6670 H   0  0  0  0  0  0  0  0  0  0  0  0
   45.3510   33.4150   45.8420 H   0  0  0  0  0  0  0  0  0  0  0  0
   44.1620   37.1830   44.5250 H   0  0  0  0  0  0  0  0  0  0  0  0
   47.6860   32.1260   40.7590 O   0  0  0  0  0  0  0  0  0  0  0  0
   46.9530   31.6920   41.3160 H   0  0  0  0  0  0  0  0  0  0  0  0
   50.3120   31.4310   41.1410 O   0  0  0  0  0  0  0  0  0  0  0  0
   53.3750   29.2830   43.7280 H   0  0  0  0  0  0  0  0  0  0  0  0
   53.1210   29.7640   42.8500 N   0  0  0  0  0  0  0  0  0  0  0  0
   51.9030   30.2410   42.6480 C   0  0  0  0  0  0  0  0  0  0  0  0
   51.5000   30.8840   41.5190 C   0  0  0  0  0  0  0  0  0  0  0  0
   52.4690   31.0370   40.5170 C   0  0  0  0  0  0  0  0  0  0  0  0
   52.2870   31.6100   39.3920 O   0  0  0  0  0  0  0  0  0  0  0  0
   53.7340   30.5680   40.6710 N   0  0  0  0  0  0  0  0  0  0  0  0
   54.0060   29.9480   41.8370 C   0  0  0  0  0  0  0  0  0  0  0  0
   55.1920   29.5010   41.9940 O   0  0  0  0  0  0  0  0  0  0  0  0
   54.4710   30.6680   39.9430 H   0  0  0  0  0  0  0  0  0  0  0  0
  1  6  2  0  0  0  0
  1  2  1  0  0  0  0
  2  3  2  0  0  0  0
  3  4  1  0  0  0  0
  3  7  1  0  0  0  0
  4  8  1  0  0  0  0
  5  9  1  0  0  0  0
  5  4  2  0  0  0  0
  6  5  1  0  0  0  0
 10  2  1  0  0  0  0
 10 13  1  0  0  0  0
 11 10  1  0  0  0  0
 12 10  1  0  0  0  0
 13 18  2  0  0  0  0
 13 14  1  0  0  0  0
 14 15  2  0  0  0  0
 15 16  1  0  0  0  0
 15 20  1  0  0  0  0
 17 21  1  0  0  0  0
 17 16  2  0  0  0  0
 18 17  1  0  0  0  0
 19 14  1  0  0  0  0
 22 23  1  0  0  0  0
 22  1  1  0  0  0  0
 24 28  1  0  0  0  0
 24  6  1  0  0  0  0
 26 25  1  0  0  0  0
 27 26  1  0  0  0  0
 28 27  2  0  0  0  0
 29 31  1  0  0  0  0
 29 28  1  0  0  0  0
 30 29  2  0  0  0  0
 31 32  1  0  0  0  0
 32 33  2  0  0  0  0
 32 26  1  0  0  0  0
 34 31  1  0  0  0  0
M  END
>  <minimizedAffinity>
-5.42742109

>  <minimizedRMSD>
3.11668205

$$$$
