
 OpenBabel03242521283D

 36 38  0  0  1  0  0  0  0  0999 V2000
   47.9950   33.5070   42.4720 C   0  0  1  0  0  0  0  0  0  0  0  0
   46.5220   33.7430   42.2340 C   0  0  2  0  0  0  0  0  0  0  0  0
   46.2910   34.6540   41.2230 O   0  0  0  0  0  0  0  0  0  0  0  0
   46.6560   34.0200   40.0450 C   0  0  0  0  0  0  0  0  0  0  0  0
   48.1490   33.9300   39.9900 C   0  0  2  0  0  0  0  0  0  0  0  0
   48.8020   33.3640   41.2250 C   0  0  2  0  0  0  0  0  0  0  0  0
   48.0580   32.5230   43.0270 H   0  0  0  0  0  0  0  0  0  0  0  0
   46.1280   32.7420   41.9080 H   0  0  0  0  0  0  0  0  0  0  0  0
   46.2090   33.0110   39.9530 H   0  0  0  0  0  0  0  0  0  0  0  0
   46.3390   34.6670   39.2100 H   0  0  0  0  0  0  0  0  0  0  0  0
   48.4150   33.2810   39.1350 H   0  0  0  0  0  0  0  0  0  0  0  0
   49.7210   33.9870   41.3700 H   0  0  0  0  0  0  0  0  0  0  0  0
   44.5140   35.8180   44.6890 C   0  0  0  0  0  0  0  0  0  0  0  0
   45.1050   35.4020   43.4880 C   0  0  0  0  0  0  0  0  0  0  0  0
   45.8780   34.2070   43.4720 C   0  0  0  0  0  0  0  0  0  0  0  0
   46.0010   33.5310   44.6360 N   0  0  0  0  0  0  0  0  0  0  0  0
   45.4200   33.9570   45.7830 C   0  0  0  0  0  0  0  0  0  0  0  0
   44.6740   35.1000   45.8150 N   0  0  0  0  0  0  0  0  0  0  0  0
   43.9560   36.7360   44.5610 H   0  0  0  0  0  0  0  0  0  0  0  0
   45.0120   35.9330   42.5540 H   0  0  0  0  0  0  0  0  0  0  0  0
   45.5380   33.3880   46.7100 H   0  0  0  0  0  0  0  0  0  0  0  0
   48.5380   34.4380   43.3620 O   0  0  0  0  0  0  0  0  0  0  0  0
   49.2680   34.0520   43.9050 H   0  0  0  0  0  0  0  0  0  0  0  0
   48.5890   35.2420   39.7350 O   0  0  0  0  0  0  0  0  0  0  0  0
   49.5520   35.1310   39.4620 H   0  0  0  0  0  0  0  0  0  0  0  0
   49.2390   32.0530   41.0230 O   0  0  0  0  0  0  0  0  0  0  0  0
   51.9180   30.3270   37.8090 H   0  0  0  0  0  0  0  0  0  0  0  0
   51.8480   30.8040   38.7330 N   0  0  0  0  0  0  0  0  0  0  0  0
   50.5950   31.0410   39.1270 C   0  0  0  0  0  0  0  0  0  0  0  0
   50.3770   31.6690   40.3350 C   0  0  0  0  0  0  0  0  0  0  0  0
   51.4990   32.0290   41.0940 C   0  0  0  0  0  0  0  0  0  0  0  0
   51.5250   32.6110   42.2260 O   0  0  0  0  0  0  0  0  0  0  0  0
   52.7630   31.7680   40.6520 N   0  0  0  0  0  0  0  0  0  0  0  0
   52.9170   31.1540   39.4680 C   0  0  0  0  0  0  0  0  0  0  0  0
   54.0190   30.8520   38.9380 O   0  0  0  0  0  0  0  0  0  0  0  0
   53.6310   32.0010   41.1510 H   0  0  0  0  0  0  0  0  0  0  0  0
  1  7  1  1  0  0  0
  1 22  1  0  0  0  0
  2  8  1  6  0  0  0
  2  1  1  0  0  0  0
  2 15  1  0  0  0  0
  3  2  1  0  0  0  0
  4  3  1  0  0  0  0
  5 11  1  6  0  0  0
  5  4  1  0  0  0  0
  5  6  1  0  0  0  0
  6 12  1  1  0  0  0
  6  1  1  0  0  0  0
  9  4  1  0  0  0  0
 10  4  1  0  0  0  0
 13 18  1  0  0  0  0
 14 13  2  0  0  0  0
 15 14  1  0  0  0  0
 15 16  2  0  0  0  0
 16 17  1  0  0  0  0
 17 18  2  0  0  0  0
 17 21  1  0  0  0  0
 19 13  1  0  0  0  0
 20 14  1  0  0  0  0
 22 23  1  0  0  0  0
 24  5  1  0  0  0  0
 25 24  1  0  0  0  0
 26  6  1  0  0  0  0
 27 28  1  0  0  0  0
 28 29  1  0  0  0  0
 28 34  1  0  0  0  0
 29 30  2  0  0  0  0
 30 26  1  0  0  0  0
 30 31  1  0  0  0  0
 31 32  2  0  0  0  0
 33 31  1  0  0  0  0
 33 36  1  0  0  0  0
 34 33  1  0  0  0  0
 35 34  2  0  0  0  0
M  END
>  <minimizedAffinity>
-6.14099884

>  <minimizedRMSD>
1.1101917

$$$$
