
 OpenBabel03252509013D

 46 48  0  0  1  0  0  0  0  0999 V2000
   46.7220   34.4970   43.5200 N   0  0  0  0  0  0  0  0  0  0  0  0
   46.2210   35.5080   42.6510 C   0  0  0  0  0  0  0  0  0  0  0  0
   44.7250   35.6850   42.6590 C   0  0  0  0  0  0  0  0  0  0  0  0
   44.0640   35.3890   43.9740 C   0  0  0  0  0  0  0  0  0  0  0  0
   45.0840   35.1080   45.0530 C   0  0  0  0  0  0  0  0  0  0  0  0
   45.8980   33.9000   44.4580 C   0  0  2  0  0  0  0  0  0  0  0  0
   46.6560   36.4720   43.0300 H   0  0  0  0  0  0  0  0  0  0  0  0
   46.5440   35.4470   41.6100 H   0  0  0  0  0  0  0  0  0  0  0  0
   44.2540   35.1170   41.8240 H   0  0  0  0  0  0  0  0  0  0  0  0
   44.4940   36.7550   42.4410 H   0  0  0  0  0  0  0  0  0  0  0  0
   43.4790   34.4480   43.8370 H   0  0  0  0  0  0  0  0  0  0  0  0
   43.3100   36.1530   44.2750 H   0  0  0  0  0  0  0  0  0  0  0  0
   45.7540   35.9650   45.1660 H   0  0  0  0  0  0  0  0  0  0  0  0
   44.5800   34.7910   45.9740 H   0  0  0  0  0  0  0  0  0  0  0  0
   45.1670   33.1610   44.0980 H   0  0  0  0  0  0  0  0  0  0  0  0
   47.8140   33.7430   42.9790 C   0  0  0  0  0  0  0  0  0  0  0  0
   48.4830   34.4240   42.4380 H   0  0  0  0  0  0  0  0  0  0  0  0
   48.3680   33.2770   43.8230 H   0  0  0  0  0  0  0  0  0  0  0  0
   47.2650   32.6500   42.1140 C   0  0  0  0  0  0  0  0  0  0  0  0
   47.5010   31.6510   42.5030 H   0  0  0  0  0  0  0  0  0  0  0  0
   46.1590   32.7100   42.0520 H   0  0  0  0  0  0  0  0  0  0  0  0
   49.3000   32.0670   39.0060 C   0  0  0  0  0  0  0  0  0  0  0  0
   48.7880   31.9260   40.3150 C   0  0  0  0  0  0  0  0  0  0  0  0
   47.8060   32.7950   40.7380 C   0  0  0  0  0  0  0  0  0  0  0  0
   47.3790   33.7430   39.8790 N   0  0  0  0  0  0  0  0  0  0  0  0
   47.8880   33.8530   38.6360 C   0  0  0  0  0  0  0  0  0  0  0  0
   48.8420   33.0290   38.1870 N   0  0  0  0  0  0  0  0  0  0  0  0
   50.0650   31.3570   38.7360 H   0  0  0  0  0  0  0  0  0  0  0  0
   49.1340   31.1590   41.0070 H   0  0  0  0  0  0  0  0  0  0  0  0
   47.5490   34.6120   37.9410 H   0  0  0  0  0  0  0  0  0  0  0  0
   46.6230   33.4840   45.5760 O   0  0  0  0  0  0  0  0  0  0  0  0
   45.6380   31.1070   44.8950 O   0  0  0  0  0  0  0  0  0  0  0  0
   46.2180   31.9150   46.0540 P   0  0  2  0  0  0  0  0  0  0  0  0
   44.9490   32.0860   47.1900 O   0  0  0  0  0  0  0  0  0  0  0  0
   45.2040   32.7460   47.8770 H   0  0  0  0  0  0  0  0  0  0  0  0
   47.4840   31.1530   46.8150 O   0  0  0  0  0  0  0  0  0  0  0  0
   45.8620   27.4430   48.5540 H   0  0  0  0  0  0  0  0  0  0  0  0
   46.5630   27.8950   47.9150 N   0  0  0  0  0  0  0  0  0  0  0  0
   46.6360   29.2430   47.7210 C   0  0  0  0  0  3  0  0  0  0  0  0
   47.5980   29.7730   46.8540 C   0  0  0  0  0  0  0  0  0  0  0  0
   48.4450   28.8940   46.2220 C   0  0  0  0  0  0  0  0  0  0  0  0
   49.2590   29.4900   45.4730 O   0  0  0  0  0  0  0  0  0  0  0  0
   48.3280   27.5840   46.4490 N   0  0  0  0  0  0  0  0  0  0  0  0
   47.4100   27.0720   47.2780 C   0  0  0  0  0  0  0  0  0  0  0  0
   47.4450   25.8230   47.3710 O   0  0  0  0  0  0  0  0  0  0  0  0
   49.0310   27.0040   45.9120 H   0  0  0  0  0  0  0  0  0  0  0  0
  1  6  1  0  0  0  0
  2  3  1  0  0  0  0
  2  7  1  0  0  0  0
  2  1  1  0  0  0  0
  3  4  1  0  0  0  0
  4 12  1  0  0  0  0
  4  5  1  0  0  0  0
  5 13  1  0  0  0  0
  5 14  1  0  0  0  0
  6 15  1  6  0  0  0
  6  5  1  0  0  0  0
  6 31  1  0  0  0  0
  8  2  1  0  0  0  0
  9  3  1  0  0  0  0
 10  3  1  0  0  0  0
 11  4  1  0  0  0  0
 16  1  1  0  0  0  0
 16 18  1  0  0  0  0
 17 16  1  0  0  0  0
 19 20  1  0  0  0  0
 19 16  1  0  0  0  0
 21 19  1  0  0  0  0
 22 23  1  0  0  0  0
 23 24  2  0  0  0  0
 23 29  1  0  0  0  0
 24 19  1  0  0  0  0
 25 24  1  0  0  0  0
 26 25  2  0  0  0  0
 27 26  1  0  0  0  0
 27 22  2  0  0  0  0
 28 22  1  0  0  0  0
 30 26  1  0  0  0  0
 31 33  1  0  0  0  0
 33 32  2  6  0  0  0
 33 36  1  0  0  0  0
 33 34  1  0  0  0  0
 34 35  1  0  0  0  0
 36 40  1  0  0  0  0
 38 37  1  0  0  0  0
 39 38  1  0  0  0  0
 40 39  2  0  0  0  0
 41 43  1  0  0  0  0
 41 40  1  0  0  0  0
 42 41  2  0  0  0  0
 43 44  1  0  0  0  0
 44 45  2  0  0  0  0
 44 38  1  0  0  0  0
 46 43  1  0  0  0  0
M  END
>  <minimizedAffinity>
-4.52709341

>  <minimizedRMSD>
1.05014777

$$$$
