
 OpenBabel03252509313D

 28 29  0  0  0  0  0  0  0  0999 V2000
   50.7380   32.6770   42.5390 O   0  0  0  0  0  0  0  0  0  0  0  0
   49.6690   33.7150   42.4030 P   0  0  2  0  0  0  0  0  0  0  0  0
   50.1210   35.2110   43.0280 O   0  0  0  0  0  0  0  0  0  0  0  0
   50.0360   35.2510   44.0140 H   0  0  0  0  0  0  0  0  0  0  0  0
   48.2770   33.2230   43.2300 O   0  0  0  0  0  0  0  0  0  0  0  0
   47.2150   33.9800   42.7420 C   0  0  0  0  0  0  0  0  0  0  0  0
   46.6130   33.3930   41.9900 H   0  0  0  0  0  0  0  0  0  0  0  0
   47.5340   34.9090   42.2250 H   0  0  0  0  0  0  0  0  0  0  0  0
   45.3950   34.0040   46.0030 C   0  0  0  0  0  0  0  0  0  0  0  0
   46.2900   33.6120   44.9850 C   0  0  0  0  0  0  0  0  0  0  0  0
   46.2930   34.3620   43.8250 C   0  0  0  0  0  0  0  0  0  0  0  0
   45.4430   35.4340   43.7210 N   0  0  0  0  0  0  0  0  0  0  0  0
   44.6000   35.7800   44.7170 C   0  0  0  0  0  0  0  0  0  0  0  0
   44.5810   35.0670   45.8490 N   0  0  0  0  0  0  0  0  0  0  0  0
   45.3680   33.4450   46.9110 H   0  0  0  0  0  0  0  0  0  0  0  0
   46.9540   32.7700   45.0740 H   0  0  0  0  0  0  0  0  0  0  0  0
   43.9760   36.6420   44.5230 H   0  0  0  0  0  0  0  0  0  0  0  0
   49.2630   33.8610   40.7650 O   0  0  0  0  0  0  0  0  0  0  0  0
   50.1620   29.9530   38.9360 H   0  0  0  0  0  0  0  0  0  0  0  0
   49.4610   30.7370   39.0010 N   0  0  0  0  0  0  0  0  0  0  0  0
   49.8280   31.7360   39.8150 C   0  0  0  0  0  3  0  0  0  0  0  0
   48.9450   32.8090   39.9490 C   0  0  0  0  0  0  0  0  0  0  0  0
   47.7510   32.7760   39.2390 C   0  0  0  0  0  0  0  0  0  0  0  0
   46.9320   33.7270   39.3360 O   0  0  0  0  0  0  0  0  0  0  0  0
   47.4880   31.7140   38.4480 N   0  0  0  0  0  0  0  0  0  0  0  0
   48.3370   30.6570   38.3050 C   0  0  0  0  0  0  0  0  0  0  0  0
   48.0310   29.6980   37.5510 O   0  0  0  0  0  0  0  0  0  0  0  0
   46.5610   31.7440   37.9300 H   0  0  0  0  0  0  0  0  0  0  0  0
  2  1  2  1  0  0  0
  2  3  1  0  0  0  0
  2  5  1  0  0  0  0
  3  4  1  0  0  0  0
  6  5  1  0  0  0  0
  6 11  1  0  0  0  0
  7  6  1  0  0  0  0
  8  6  1  0  0  0  0
  9 15  1  0  0  0  0
 10 16  1  0  0  0  0
 10  9  2  0  0  0  0
 11 10  1  0  0  0  0
 12 11  2  0  0  0  0
 12 13  1  0  0  0  0
 13 14  2  0  0  0  0
 14  9  1  0  0  0  0
 17 13  1  0  0  0  0
 18  2  1  0  0  0  0
 19 20  1  0  0  0  0
 20 21  1  0  0  0  0
 21 22  2  0  0  0  0
 22 18  1  0  0  0  0
 23 24  2  0  0  0  0
 23 22  1  0  0  0  0
 25 23  1  0  0  0  0
 26 25  1  0  0  0  0
 26 20  1  0  0  0  0
 27 26  2  0  0  0  0
 28 25  1  0  0  0  0
M  END
>  <minimizedAffinity>
-4.52330637

>  <minimizedRMSD>
1.2866596

$$$$
