REMARK  Name = 
REMARK  6 active torsions:
REMARK  status: ('A' for Active; 'I' for Inactive)
REMARK    1  A    between atoms: C_1  and  C_4
REMARK    2  A    between atoms: C_1  and  O_8
REMARK    3  A    between atoms: O_8  and  P_10
REMARK    4  A    between atoms: P_10  and  O_11
REMARK    5  A    between atoms: P_10  and  O_12
REMARK    6  A    between atoms: O_12  and  C_22
REMARK                            x       y       z     vdW  Elec       q    Type
REMARK                         _______ _______ _______ _____ _____    ______ ____
ROOT
ATOM      1  O   UNL     1      50.666  33.115  41.905  0.00  0.00    +0.000 OA
ATOM      2  P   UNL     1      49.632  34.146  42.232  0.00  0.00    +0.000 P 
ENDROOT
BRANCH   2   3
ATOM      3  O   UNL     1      50.211  35.360  43.245  0.00  0.00    +0.000 OA
ATOM      4  H   UNL     1      50.235  35.080  44.195  0.00  0.00    +0.000 HD
ENDBRANCH   2   3
BRANCH   2   5
ATOM      5  O   UNL     1      48.320  33.419  43.015  0.00  0.00    +0.000 OA
BRANCH   5   6
ATOM      6  C   UNL     1      47.159  33.962  42.470  0.00  0.00    +0.000 C 
ATOM      7  H   UNL     1      46.588  33.186  41.882  0.00  0.00    +0.000 HD
ATOM      8  H   UNL     1      47.349  34.801  41.769  0.00  0.00    +0.000 HD
BRANCH   6  11
ATOM      9  C   UNL     1      45.292  34.234  45.692  0.00  0.00    +0.000 A 
ATOM     10  C   UNL     1      46.166  33.737  44.702  0.00  0.00    +0.000 A 
ATOM     11  C   UNL     1      46.256  34.452  43.524  0.00  0.00    +0.000 A 
ATOM     12  N   UNL     1      45.505  35.592  43.376  0.00  0.00    +0.000 NA
ATOM     13  C   UNL     1      44.679  36.037  44.346  0.00  0.00    +0.000 A 
ATOM     14  N   UNL     1      44.577  35.359  45.495  0.00  0.00    +0.000 NA
ATOM     15  H   UNL     1      45.200  33.704  46.614  0.00  0.00    +0.000 HD
ATOM     16  H   UNL     1      46.752  32.843  44.826  0.00  0.00    +0.000 HD
ATOM     17  H   UNL     1      44.137  36.945  44.118  0.00  0.00    +0.000 HD
ENDBRANCH   6  11
ENDBRANCH   5   6
ENDBRANCH   2   5
BRANCH   2  18
ATOM     18  O   UNL     1      49.057  34.813  40.786  0.00  0.00    +0.000 OA
BRANCH  18  22
ATOM     19  H   UNL     1      47.069  31.256  39.104  0.00  0.00    +0.000 HD
ATOM     20  N   UNL     1      47.525  32.179  38.881  0.00  0.00    +0.000 N 
ATOM     21  C   UNL     1      47.968  32.848  39.953  0.00  0.00    +0.000 A 
ATOM     22  C   UNL     1      48.584  34.081  39.729  0.00  0.00    +0.000 A 
ATOM     23  C   UNL     1      48.699  34.535  38.421  0.00  0.00    +0.000 A 
ATOM     24  O   UNL     1      49.249  35.642  38.184  0.00  0.00    +0.000 OA
ATOM     25  N   UNL     1      48.215  33.772  37.418  0.00  0.00    +0.000 N 
ATOM     26  C   UNL     1      47.611  32.566  37.617  0.00  0.00    +0.000 A 
ATOM     27  O   UNL     1      47.181  31.906  36.637  0.00  0.00    +0.000 OA
ATOM     28  H   UNL     1      48.332  34.170  36.440  0.00  0.00    +0.000 HD
ENDBRANCH  18  22
ENDBRANCH   2  18
TORSDOF 6
