
 OpenBabel03252507553D

 45 48  0  0  1  0  0  0  0  0999 V2000
   48.3880   30.4960   40.5070 C   0  0  2  0  0  0  0  0  0  0  0  0
   48.7150   31.3230   41.6580 C   0  0  0  0  0  0  0  0  0  0  0  0
   48.2960   31.9490   40.3660 C   0  0  1  0  0  0  0  0  0  0  0  0
   49.2160   29.9880   39.9790 H   0  0  0  0  0  0  0  0  0  0  0  0
   49.7740   31.5050   41.9950 H   0  0  0  0  0  0  0  0  0  0  0  0
   48.0170   31.3460   42.5100 H   0  0  0  0  0  0  0  0  0  0  0  0
   47.2550   32.2930   40.1930 H   0  0  0  0  0  0  0  0  0  0  0  0
   46.3180   27.9690   42.0280 C   0  0  2  0  0  0  0  0  0  0  0  0
   47.2730   27.2660   41.0590 C   0  0  0  0  0  0  0  0  0  0  0  0
   47.2300   28.3180   39.9290 C   0  0  0  0  0  0  0  0  0  0  0  0
   47.1500   29.6370   40.6340 C   0  0  1  0  0  0  0  0  0  0  0  0
   46.9830   29.3160   42.0900 C   0  0  0  0  0  0  0  0  0  0  0  0
   45.3180   28.0390   41.5590 H   0  0  0  0  0  0  0  0  0  0  0  0
   48.2680   27.2610   41.5160 H   0  0  0  0  0  0  0  0  0  0  0  0
   46.8880   26.3040   40.7160 H   0  0  0  0  0  0  0  0  0  0  0  0
   46.2350   28.1570   39.4360 H   0  0  0  0  0  0  0  0  0  0  0  0
   48.0870   28.2030   39.2600 H   0  0  0  0  0  0  0  0  0  0  0  0
   46.2780   30.2470   40.3210 H   0  0  0  0  0  0  0  0  0  0  0  0
   47.9610   29.2160   42.6010 H   0  0  0  0  0  0  0  0  0  0  0  0
   46.3500   30.0620   42.6090 H   0  0  0  0  0  0  0  0  0  0  0  0
   45.6130   25.5950   44.8650 C   0  0  0  0  0  0  0  0  0  0  0  0
   45.5750   26.1260   43.5810 C   0  0  0  0  0  0  0  0  0  0  0  0
   46.2980   27.2890   43.3520 C   0  0  0  0  0  0  0  0  0  0  0  0
   47.0280   27.8850   44.3890 N   0  0  0  0  0  0  0  0  0  0  0  0
   47.0270   27.3210   45.6270 C   0  0  0  0  0  0  0  0  0  0  0  0
   46.3200   26.1820   45.8560 N   0  0  0  0  0  0  0  0  0  0  0  0
   45.0620   24.6850   45.0910 H   0  0  0  0  0  0  0  0  0  0  0  0
   45.0170   25.6760   42.7760 H   0  0  0  0  0  0  0  0  0  0  0  0
   47.6030   27.8140   46.3980 H   0  0  0  0  0  0  0  0  0  0  0  0
   49.3100   32.5930   39.6100 O   0  0  0  0  0  0  0  0  0  0  0  0
   50.8970   32.0590   37.6110 O   0  0  0  0  0  0  0  0  0  0  0  0
   50.1480   31.4150   38.7510 P   0  0  1  0  0  0  0  0  0  0  0  0
   51.3130   30.6670   39.7640 O   0  0  0  0  0  0  0  0  0  0  0  0
   50.8710   29.9520   40.2630 H   0  0  0  0  0  0  0  0  0  0  0  0
   49.1920   30.2060   38.1410 O   0  0  0  0  0  0  0  0  0  0  0  0
   47.6640   29.6190   33.9340 H   0  0  0  0  0  0  0  0  0  0  0  0
   48.3660   29.3610   34.6550 N   0  0  0  0  0  0  0  0  0  0  0  0
   48.2390   29.9750   35.8270 C   0  0  0  0  0  3  0  0  0  0  0  0
   49.1220   29.7070   36.8650 C   0  0  0  0  0  0  0  0  0  0  0  0
   50.1340   28.7760   36.6180 C   0  0  0  0  0  0  0  0  0  0  0  0
   51.0410   28.3800   37.4060 O   0  0  0  0  0  0  0  0  0  0  0  0
   50.2260   28.1700   35.4020 N   0  0  0  0  0  0  0  0  0  0  0  0
   49.3440   28.4710   34.4380 C   0  0  0  0  0  0  0  0  0  0  0  0
   49.3780   27.9420   33.2870 O   0  0  0  0  0  0  0  0  0  0  0  0
   50.9510   27.4680   35.1410 H   0  0  0  0  0  0  0  0  0  0  0  0
  1  4  1  6  0  0  0
  1 11  1  0  0  0  0
  1  2  1  0  0  0  0
  2  5  1  0  0  0  0
  2  6  1  0  0  0  0
  3  7  1  6  0  0  0
  3  1  1  0  0  0  0
  3  2  1  0  0  0  0
  8 13  1  6  0  0  0
  8 12  1  0  0  0  0
  8 23  1  0  0  0  0
  9 14  1  0  0  0  0
  9  8  1  0  0  0  0
 10 11  1  0  0  0  0
 10  9  1  0  0  0  0
 11 18  1  6  0  0  0
 11 12  1  0  0  0  0
 12 19  1  0  0  0  0
 12 20  1  0  0  0  0
 15  9  1  0  0  0  0
 16 10  1  0  0  0  0
 17 10  1  0  0  0  0
 21 27  1  0  0  0  0
 21 26  1  0  0  0  0
 22 21  2  0  0  0  0
 23 22  1  0  0  0  0
 23 24  2  0  0  0  0
 24 25  1  0  0  0  0
 25 26  2  0  0  0  0
 25 29  1  0  0  0  0
 28 22  1  0  0  0  0
 30  3  1  0  0  0  0
 32 31  2  6  0  0  0
 32 30  1  0  0  0  0
 32 33  1  0  0  0  0
 33 34  1  0  0  0  0
 35 32  1  0  0  0  0
 36 37  1  0  0  0  0
 37 38  1  0  0  0  0
 38 39  2  0  0  0  0
 39 35  1  0  0  0  0
 40 39  1  0  0  0  0
 40 41  2  0  0  0  0
 42 40  1  0  0  0  0
 43 37  1  0  0  0  0
 43 42  1  0  0  0  0
 44 43  2  0  0  0  0
 45 42  1  0  0  0  0
M  END
>  <minimizedAffinity>
-1.50919688

>  <minimizedRMSD>
6.71408272

$$$$
