
 OpenBabel03252502243D

 35 37  0  0  1  0  0  0  0  0999 V2000
   46.7490   34.5600   42.2720 N   0  0  0  0  0  0  0  0  0  0  0  0
   48.2050   34.5520   42.2980 C   0  0  0  0  0  0  0  0  0  0  0  0
   48.5870   35.3300   41.0200 C   0  0  0  0  0  0  0  0  0  0  0  0
   48.1910   34.5260   39.8230 C   0  0  0  0  0  0  0  0  0  0  0  0
   46.8360   33.9110   39.9160 C   0  0  0  0  0  0  0  0  0  0  0  0
   45.9820   34.3620   41.0650 C   0  0  1  0  0  0  0  0  0  0  0  0
   48.5970   33.5180   42.2240 H   0  0  0  0  0  0  0  0  0  0  0  0
   48.5750   35.1210   43.1650 H   0  0  0  0  0  0  0  0  0  0  0  0
   49.6990   35.4140   41.0780 H   0  0  0  0  0  0  0  0  0  0  0  0
   48.0960   36.3200   41.0890 H   0  0  0  0  0  0  0  0  0  0  0  0
   48.9490   33.6980   39.7350 H   0  0  0  0  0  0  0  0  0  0  0  0
   48.3550   35.1460   38.9200 H   0  0  0  0  0  0  0  0  0  0  0  0
   46.2830   34.2030   38.9750 H   0  0  0  0  0  0  0  0  0  0  0  0
   46.8640   32.8000   39.8900 H   0  0  0  0  0  0  0  0  0  0  0  0
   45.5800   35.3560   40.7920 H   0  0  0  0  0  0  0  0  0  0  0  0
   44.4800   36.0240   44.8660 C   0  0  0  0  0  0  0  0  0  0  0  0
   45.1630   35.9020   43.6490 C   0  0  0  0  0  0  0  0  0  0  0  0
   46.0080   34.7720   43.4810 C   0  0  0  0  0  0  0  0  0  0  0  0
   46.1020   33.8780   44.5110 N   0  0  0  0  0  0  0  0  0  0  0  0
   45.4210   34.0420   45.6660 C   0  0  0  0  0  0  0  0  0  0  0  0
   44.6070   35.1240   45.8350 N   0  0  0  0  0  0  0  0  0  0  0  0
   43.8880   36.9260   44.8320 H   0  0  0  0  0  0  0  0  0  0  0  0
   45.1350   36.5620   42.8050 H   0  0  0  0  0  0  0  0  0  0  0  0
   45.4730   33.3620   46.4880 H   0  0  0  0  0  0  0  0  0  0  0  0
   45.0320   33.3840   41.3000 O   0  0  0  0  0  0  0  0  0  0  0  0
   42.4520   30.8780   38.7920 H   0  0  0  0  0  0  0  0  0  0  0  0
   42.5460   31.7150   39.4020 N   0  0  0  0  0  0  0  0  0  0  0  0
   43.7060   32.0990   40.0140 C   0  0  0  0  0  3  0  0  0  0  0  0
   43.7640   33.2420   40.8260 C   0  0  0  0  0  0  0  0  0  0  0  0
   42.5810   33.9380   40.9610 C   0  0  0  0  0  0  0  0  0  0  0  0
   42.7270   34.9430   41.7020 O   0  0  0  0  0  0  0  0  0  0  0  0
   41.4670   33.5170   40.3380 N   0  0  0  0  0  0  0  0  0  0  0  0
   41.4330   32.4330   39.5730 C   0  0  0  0  0  0  0  0  0  0  0  0
   40.3270   32.1340   39.0380 O   0  0  0  0  0  0  0  0  0  0  0  0
   40.6230   34.1370   40.5200 H   0  0  0  0  0  0  0  0  0  0  0  0
  1  2  1  0  0  0  0
  1 18  1  0  0  0  0
  2  8  1  0  0  0  0
  3  9  1  0  0  0  0
  3 10  1  0  0  0  0
  3  2  1  0  0  0  0
  4  5  1  0  0  0  0
  4  3  1  0  0  0  0
  5  6  1  0  0  0  0
  6 15  1  6  0  0  0
  6 25  1  0  0  0  0
  6  1  1  0  0  0  0
  7  2  1  0  0  0  0
 11  4  1  0  0  0  0
 12  4  1  0  0  0  0
 13  5  1  0  0  0  0
 14  5  1  0  0  0  0
 16 21  1  0  0  0  0
 17 16  2  0  0  0  0
 18 17  1  0  0  0  0
 18 19  2  0  0  0  0
 19 20  1  0  0  0  0
 20 21  2  0  0  0  0
 20 24  1  0  0  0  0
 22 16  1  0  0  0  0
 23 17  1  0  0  0  0
 26 27  1  0  0  0  0
 27 33  1  0  0  0  0
 27 28  1  0  0  0  0
 28 29  2  0  0  0  0
 29 30  1  0  0  0  0
 29 25  1  0  0  0  0
 30 31  2  0  0  0  0
 32 35  1  0  0  0  0
 32 30  1  0  0  0  0
 33 32  1  0  0  0  0
 34 33  2  0  0  0  0
M  END
>  <minimizedAffinity>
-5.57439899

>  <minimizedRMSD>
0.646640122

$$$$
