
     RDKit          3D

 49 52  0  0  0  0  0  0  0  0999 V2000
   43.2038   33.2303   41.1493 C   0  0  0  0  0  0  0  0  0  0  0  0
   44.2343   34.0758   41.7787 C   0  0  0  0  0  0  0  0  0  0  0  0
   43.8800   35.2532   42.4035 C   0  0  0  0  0  0  0  0  0  0  0  0
   44.8850   36.0242   42.9726 C   0  0  0  0  0  0  0  0  0  0  0  0
   46.1737   35.5716   42.8838 N   0  0  0  0  0  0  0  0  0  0  0  0
   46.4724   34.4287   42.2739 C   0  0  0  0  0  0  0  0  0  0  0  0
   45.4923   33.6993   41.7295 N   0  0  0  0  0  0  0  0  0  0  0  0
   47.8713   34.0104   42.2556 C   0  0  0  0  0  0  0  0  0  0  0  0
   48.2043   32.6781   42.0250 C   0  0  0  0  0  0  0  0  0  0  0  0
   49.5303   32.2912   42.0265 C   0  0  0  0  0  0  0  0  0  0  0  0
   50.4262   33.3087   42.2664 C   0  0  0  0  0  0  0  0  0  0  0  0
   50.1405   34.6434   42.4997 C   0  0  0  0  0  0  0  0  0  0  0  0
   48.8177   34.9452   42.4825 N   0  0  0  0  0  0  0  0  0  0  0  0
   41.9052   33.9501   41.2089 C   0  0  0  0  0  0  0  0  0  0  0  0
   41.0004   33.5116   40.3259 N   0  0  0  0  0  0  0  0  0  0  0  0
   40.3294   32.2509   40.3278 C   0  0  0  0  0  0  0  0  0  0  0  0
   38.9558   32.7117   40.7958 C   0  0  0  0  0  0  0  0  0  0  0  0
   38.3247   33.6918   39.9300 C   0  0  0  0  0  0  0  0  0  0  0  0
   39.1580   34.5088   39.0764 C   0  0  0  0  0  0  0  0  0  0  0  0
   40.6592   34.4766   39.2557 C   0  0  0  0  0  0  0  0  0  0  0  0
   41.7778   35.3974   38.3275 S   0  0  0  0  0  0  0  0  0  0  0  0
   43.1711   32.2005   41.5566 H   0  0  0  0  0  0  0  0  0  0  0  0
   43.4536   33.0975   40.0612 H   0  0  0  0  0  0  0  0  0  0  0  0
   42.9484   35.7596   42.5896 H   0  0  0  0  0  0  0  0  0  0  0  0
   44.7979   36.9765   43.5020 H   0  0  0  0  0  0  0  0  0  0  0  0
   47.4437   31.9199   41.8410 H   0  0  0  0  0  0  0  0  0  0  0  0
   49.8791   31.2839   41.8577 H   0  0  0  0  0  0  0  0  0  0  0  0
   51.4852   33.0439   42.2759 H   0  0  0  0  0  0  0  0  0  0  0  0
   50.9160   35.3709   42.6785 H   0  0  0  0  0  0  0  0  0  0  0  0
   41.5393   33.9276   42.2581 H   0  0  0  0  0  0  0  0  0  0  0  0
   42.1919   35.0478   41.0594 H   0  0  0  0  0  0  0  0  0  0  0  0
   40.3329   31.6485   39.4369 H   0  0  0  0  0  0  0  0  0  0  0  0
   40.7295   31.6265   41.1567 H   0  0  0  0  0  0  0  0  0  0  0  0
   38.3421   31.7785   40.9270 H   0  0  0  0  0  0  0  0  0  0  0  0
   39.0915   33.0946   41.8282 H   0  0  0  0  0  0  0  0  0  0  0  0
   37.6891   34.3692   40.5576 H   0  0  0  0  0  0  0  0  0  0  0  0
   37.5911   33.1574   39.2573 H   0  0  0  0  0  0  0  0  0  0  0  0
   38.8181   35.1595   38.3340 H   0  0  0  0  0  0  0  0  0  0  0  0
   39.0735   39.2372   38.6105 H   0  0  0  0  0  0  0  0  0  0  0  0
   39.7962   38.6927   38.0910 N   0  0  0  0  0  0  0  0  0  0  0  0
   40.3672   37.4977   38.4222 C   0  0  0  0  0  0  0  0  0  0  0  0
   41.3379   36.8946   37.6005 C   0  0  0  0  0  0  0  0  0  0  0  0
   41.6331   37.6144   36.4714 C   0  0  0  0  0  0  0  0  0  0  0  0
   42.4890   37.0693   35.7437 O   0  0  0  0  0  0  0  0  0  0  0  0
   41.0958   38.7880   36.1138 N   0  0  0  0  0  0  0  0  0  0  0  0
   40.1816   39.2909   36.9526 C   0  0  0  0  0  0  0  0  0  0  0  0
   39.7066   40.3961   36.5708 O   0  0  0  0  0  0  0  0  0  0  0  0
   39.9119   37.1892   39.3812 H   0  0  0  0  0  0  0  0  0  0  0  0
   41.4359   39.2001   35.2210 H   0  0  0  0  0  0  0  0  0  0  0  0
  1 14  1  0
  1  2  1  0
  2  3  2  0
  3  4  1  0
  5  4  2  0
  6  5  1  0
  7  2  1  0
  7  6  2  0
  8  6  1  0
  8 13  1  0
  9  8  2  0
 10  9  1  0
 10 11  2  0
 11 12  1  0
 13 12  2  0
 15 14  1  0
 16 15  1  0
 16 17  1  0
 18 17  1  0
 19 20  2  0
 19 18  1  0
 20 15  1  0
 21 20  1  0
  1 22  1  0
  1 23  1  0
  3 24  1  0
  4 25  1  0
  9 26  1  0
 10 27  1  0
 11 28  1  0
 12 29  1  0
 14 30  1  0
 14 31  1  0
 16 32  1  0
 16 33  1  0
 17 34  1  0
 17 35  1  0
 18 36  1  0
 18 37  1  0
 19 38  1  0
 39 40  1  0
 40 41  1  0
 41 42  2  0
 42 43  1  0
 43 44  2  0
 43 45  1  0
 45 46  1  0
 46 47  2  0
 46 40  1  0
 41 48  1  0
 45 49  1  0
 21 42  1  0
M  ISO  8  22   8  23   8  24  14  25  14  26  14  27  14  28  14  29  14
M  ISO  8  30   8  31   8  32  13  33  13  34  13  35  13  36  13  37  13
M  ISO  2  38  13  39   9
M  END
>  <DihAtoms>  (1) 
19,20,41,40

>  <DihDeg>  (1) 
-163.8584460602051

$$$$
