
 OpenBabel03252501033D

 32 34  0  0  1  0  0  0  0  0999 V2000
   48.1920   35.5900   42.0470 C   0  0  1  0  0  0  0  0  0  0  0  0
   49.4550   34.8280   41.8800 C   0  0  0  0  0  0  0  0  0  0  0  0
   48.5850   35.2040   40.6870 C   0  0  1  0  0  0  0  0  0  0  0  0
   48.2230   36.6470   42.3700 H   0  0  0  0  0  0  0  0  0  0  0  0
   49.5290   33.7340   41.9940 H   0  0  0  0  0  0  0  0  0  0  0  0
   50.4400   35.3360   41.9770 H   0  0  0  0  0  0  0  0  0  0  0  0
   49.0650   35.9680   40.0440 H   0  0  0  0  0  0  0  0  0  0  0  0
   46.2470   32.9760   43.9650 C   0  0  0  0  0  0  0  0  0  0  0  0
   47.3390   33.6610   43.4160 C   0  0  0  0  0  0  0  0  0  0  0  0
   47.0760   34.8180   42.6690 C   0  0  0  0  0  0  0  0  0  0  0  0
   45.7850   35.2250   42.5120 N   0  0  0  0  0  0  0  0  0  0  0  0
   44.7510   34.5400   43.0560 C   0  0  0  0  0  0  0  0  0  0  0  0
   44.9880   33.4130   43.7840 N   0  0  0  0  0  0  0  0  0  0  0  0
   46.3440   32.0780   44.5530 H   0  0  0  0  0  0  0  0  0  0  0  0
   48.3160   33.2770   43.5880 H   0  0  0  0  0  0  0  0  0  0  0  0
   43.7630   34.9570   42.8650 H   0  0  0  0  0  0  0  0  0  0  0  0
   47.8220   34.3080   40.0380 O   0  0  0  0  0  0  0  0  0  0  0  0
   49.0480   32.5180   38.5090 O   0  0  0  0  0  0  0  0  0  0  0  0
   48.2710   33.8140   38.5400 P   0  0  2  0  0  0  0  0  0  0  0  0
   49.2090   34.9420   37.6900 O   0  0  0  0  0  0  0  0  0  0  0  0
   49.9760   35.1580   38.2740 H   0  0  0  0  0  0  0  0  0  0  0  0
   46.8890   33.5370   37.6020 O   0  0  0  0  0  0  0  0  0  0  0  0
   48.9190   32.0100   33.8350 H   0  0  0  0  0  0  0  0  0  0  0  0
   48.0840   32.0270   34.4630 N   0  0  0  0  0  0  0  0  0  0  0  0
   48.0950   32.7820   35.5930 C   0  0  0  0  0  0  0  0  0  0  0  0
   46.9950   32.8080   36.4240 C   0  0  0  0  0  0  0  0  0  0  0  0
   45.8740   32.0640   36.1110 C   0  0  0  0  0  0  0  0  0  0  0  0
   44.7890   31.9610   36.7380 O   0  0  0  0  0  0  0  0  0  0  0  0
   45.8660   31.3070   34.9750 N   0  0  0  0  0  0  0  0  0  0  0  0
   46.9650   31.3100   34.1870 C   0  0  0  0  0  0  0  0  0  0  0  0
   47.0340   30.6320   33.1150 O   0  0  0  0  0  0  0  0  0  0  0  0
   45.0930   30.7040   34.6230 H   0  0  0  0  0  0  0  0  0  0  0  0
  1  4  1  1  0  0  0
  1 10  1  0  0  0  0
  2  6  1  0  0  0  0
  2  5  1  0  0  0  0
  2  1  1  0  0  0  0
  3  7  1  6  0  0  0
  3  2  1  0  0  0  0
  3  1  1  0  0  0  0
  8 14  1  0  0  0  0
  9 15  1  0  0  0  0
  9  8  2  0  0  0  0
 10  9  1  0  0  0  0
 11 10  2  0  0  0  0
 11 12  1  0  0  0  0
 12 13  2  0  0  0  0
 13  8  1  0  0  0  0
 16 12  1  0  0  0  0
 17  3  1  0  0  0  0
 19 18  2  1  0  0  0
 19 17  1  0  0  0  0
 20 21  1  0  0  0  0
 20 19  1  0  0  0  0
 22 19  1  0  0  0  0
 23 24  1  0  0  0  0
 24 25  1  0  0  0  0
 25 26  2  0  0  0  0
 26 22  1  0  0  0  0
 27 26  1  0  0  0  0
 27 28  2  0  0  0  0
 29 27  1  0  0  0  0
 30 24  1  0  0  0  0
 30 29  1  0  0  0  0
 31 30  2  0  0  0  0
 32 29  1  0  0  0  0
M  END
>  <minimizedAffinity>
-4.89674854

>  <minimizedRMSD>
1.2698257

$$$$
