
 OpenBabel03252507043D

 48 51  0  0  0  0  0  0  0  0999 V2000
   42.0690   31.6760   42.0110 C   0  0  0  0  0  0  0  0  0  0  0  0
   42.2690   32.0540   43.0360 H   0  0  0  0  0  0  0  0  0  0  0  0
   41.4090   32.4940   41.5580 H   0  0  0  0  0  0  0  0  0  0  0  0
   41.4980   30.4660   41.9980 N   0  0  0  0  0  0  0  0  0  0  0  0
   41.9560   29.2860   42.6590 C   0  0  0  0  0  0  0  0  0  0  0  0
   40.9380   29.2350   43.7900 C   0  0  0  0  0  0  0  0  0  0  0  0
   39.5580   29.1420   43.3500 C   0  0  0  0  0  0  0  0  0  0  0  0
   39.2120   29.6150   42.0280 C   0  0  0  0  0  0  0  0  0  0  0  0
   40.2380   30.3820   41.2240 C   0  0  0  0  0  0  0  0  0  0  0  0
   42.0670   28.3740   42.0990 H   0  0  0  0  0  0  0  0  0  0  0  0
   42.9320   29.4990   43.1490 H   0  0  0  0  0  0  0  0  0  0  0  0
   41.2490   28.3800   44.4510 H   0  0  0  0  0  0  0  0  0  0  0  0
   41.1180   30.1370   44.4100 H   0  0  0  0  0  0  0  0  0  0  0  0
   38.9070   29.6680   44.0960 H   0  0  0  0  0  0  0  0  0  0  0  0
   39.2350   28.0600   43.4060 H   0  0  0  0  0  0  0  0  0  0  0  0
   38.2860   29.4960   41.5610 H   0  0  0  0  0  0  0  0  0  0  0  0
   39.9740   31.0160   39.6470 S   0  0  0  0  0  0  0  0  0  0  0  0
   42.2110   34.1990   37.0000 H   0  0  0  0  0  0  0  0  0  0  0  0
   41.5300   33.9950   37.7630 N   0  0  0  0  0  0  0  0  0  0  0  0
   41.1260   32.7850   38.2490 C   0  0  0  0  0  3  0  0  0  0  0  0
   40.1890   32.6880   39.2930 C   0  0  0  0  0  0  0  0  0  0  0  0
   39.7440   33.9000   39.7540 C   0  0  0  0  0  0  0  0  0  0  0  0
   38.9190   33.8060   40.6870 O   0  0  0  0  0  0  0  0  0  0  0  0
   40.1150   35.1060   39.3040 N   0  0  0  0  0  0  0  0  0  0  0  0
   41.0100   35.1070   38.3080 C   0  0  0  0  0  0  0  0  0  0  0  0
   41.3270   36.2660   37.9210 O   0  0  0  0  0  0  0  0  0  0  0  0
   39.6780   35.9280   39.7680 H   0  0  0  0  0  0  0  0  0  0  0  0
   43.3280   31.7570   41.2250 C   0  0  0  0  0  0  0  0  0  0  0  0
   44.0240   30.9120   41.3950 H   0  0  0  0  0  0  0  0  0  0  0  0
   43.0420   31.6760   40.1400 H   0  0  0  0  0  0  0  0  0  0  0  0
   43.9400   33.0770   41.4630 C   0  0  0  0  0  0  0  0  0  0  0  0
   43.1530   34.2090   41.5180 C   0  0  0  0  0  0  0  0  0  0  0  0
   43.7740   35.4320   41.7320 C   0  0  0  0  0  0  0  0  0  0  0  0
   45.1350   35.4480   41.8800 N   0  0  0  0  0  0  0  0  0  0  0  0
   45.8560   34.3330   41.8230 C   0  0  0  0  0  0  0  0  0  0  0  0
   45.2420   33.1630   41.6140 N   0  0  0  0  0  0  0  0  0  0  0  0
   42.0960   34.3990   41.4440 H   0  0  0  0  0  0  0  0  0  0  0  0
   43.3220   36.4250   41.8020 H   0  0  0  0  0  0  0  0  0  0  0  0
   47.2990   34.4420   42.0240 C   0  0  0  0  0  0  0  0  0  0  0  0
   48.0100   33.3950   42.6040 C   0  0  0  0  0  0  0  0  0  0  0  0
   49.3720   33.5170   42.8030 C   0  0  0  0  0  0  0  0  0  0  0  0
   49.9090   34.7150   42.3880 C   0  0  0  0  0  0  0  0  0  0  0  0
   49.2420   35.7800   41.8080 C   0  0  0  0  0  0  0  0  0  0  0  0
   47.9090   35.5850   41.6450 N   0  0  0  0  0  0  0  0  0  0  0  0
   47.5230   32.4710   42.9110 H   0  0  0  0  0  0  0  0  0  0  0  0
   50.0000   32.7600   43.2460 H   0  0  0  0  0  0  0  0  0  0  0  0
   50.9830   34.8510   42.5290 H   0  0  0  0  0  0  0  0  0  0  0  0
   49.7530   36.6830   41.5130 H   0  0  0  0  0  0  0  0  0  0  0  0
  1  2  1  0  0  0  0
  3  1  1  0  0  0  0
  4  1  1  0  0  0  0
  4  5  1  0  0  0  0
  5 11  1  0  0  0  0
  5  6  1  0  0  0  0
  6 13  1  0  0  0  0
  6 12  1  0  0  0  0
  7 15  1  0  0  0  0
  7  6  1  0  0  0  0
  7 14  1  0  0  0  0
  8  7  1  0  0  0  0
  9  4  1  0  0  0  0
  9  8  2  0  0  0  0
 10  5  1  0  0  0  0
 16  8  1  0  0  0  0
 17  9  1  0  0  0  0
 18 19  1  0  0  0  0
 19 20  1  0  0  0  0
 19 25  1  0  0  0  0
 20 21  2  0  0  0  0
 21 17  1  0  0  0  0
 21 22  1  0  0  0  0
 22 23  2  0  0  0  0
 24 22  1  0  0  0  0
 24 27  1  0  0  0  0
 25 24  1  0  0  0  0
 26 25  2  0  0  0  0
 28 29  1  0  0  0  0
 28 31  1  0  0  0  0
 28  1  1  0  0  0  0
 30 28  1  0  0  0  0
 31 32  2  0  0  0  0
 31 36  1  0  0  0  0
 32 33  1  0  0  0  0
 33 38  1  0  0  0  0
 33 34  2  0  0  0  0
 35 34  1  0  0  0  0
 35 39  1  0  0  0  0
 36 35  2  0  0  0  0
 37 32  1  0  0  0  0
 39 40  1  0  0  0  0
 40 41  2  0  0  0  0
 40 45  1  0  0  0  0
 41 46  1  0  0  0  0
 42 47  1  0  0  0  0
 42 41  1  0  0  0  0
 43 42  2  0  0  0  0
 44 43  1  0  0  0  0
 44 39  2  0  0  0  0
 48 43  1  0  0  0  0
M  END
>  <minimizedAffinity>
-5.67480993

>  <minimizedRMSD>
3.56455326

$$$$
