REMARK  Name = 
REMARK  6 active torsions:
REMARK  status: ('A' for Active; 'I' for Inactive)
REMARK    1  A    between atoms: C_1  and  C_2
REMARK    2  A    between atoms: C_1  and  C_14
REMARK    3  A    between atoms: C_6  and  C_8
REMARK    4  A    between atoms: C_14  and  N_15
REMARK    5  A    between atoms: C_20  and  S_21
REMARK    6  A    between atoms: S_21  and  C_42
REMARK                            x       y       z     vdW  Elec       q    Type
REMARK                         _______ _______ _______ _____ _____    ______ ____
ROOT
ATOM      1  C   UNL     1      41.905  33.950  41.209  0.00  0.00    +0.000 C 
ATOM      2  H   UNL     1      41.539  33.928  42.258  0.00  0.00    +0.000 HD
ATOM      3  H   UNL     1      42.192  35.048  41.059  0.00  0.00    +0.000 HD
ENDROOT
BRANCH   1   4
ATOM      4  N   UNL     1      41.000  33.512  40.326  0.00  0.00    +0.000 N 
ATOM      5  C   UNL     1      40.329  32.251  40.328  0.00  0.00    +0.000 C 
ATOM      6  C   UNL     1      38.956  32.712  40.796  0.00  0.00    +0.000 C 
ATOM      7  C   UNL     1      38.325  33.692  39.930  0.00  0.00    +0.000 C 
ATOM      8  C   UNL     1      39.158  34.509  39.076  0.00  0.00    +0.000 C 
ATOM      9  C   UNL     1      40.659  34.477  39.256  0.00  0.00    +0.000 C 
ATOM     10  H   UNL     1      40.333  31.648  39.437  0.00  0.00    +0.000 HD
ATOM     11  H   UNL     1      40.730  31.627  41.157  0.00  0.00    +0.000 HD
ATOM     12  H   UNL     1      38.342  31.779  40.927  0.00  0.00    +0.000 HD
ATOM     13  H   UNL     1      39.092  33.095  41.828  0.00  0.00    +0.000 HD
ATOM     14  H   UNL     1      37.689  34.369  40.558  0.00  0.00    +0.000 HD
ATOM     15  H   UNL     1      37.591  33.157  39.257  0.00  0.00    +0.000 HD
ATOM     16  H   UNL     1      38.818  35.160  38.334  0.00  0.00    +0.000 HD
BRANCH   9  17
ATOM     17  S   UNL     1      41.778  35.397  38.328  0.00  0.00    +0.000 S 
BRANCH  17  21
ATOM     18  H   UNL     1      42.483  38.360  34.741  0.00  0.00    +0.000 HD
ATOM     19  N   UNL     1      41.985  38.142  35.631  0.00  0.00    +0.000 N 
ATOM     20  C   UNL     1      42.091  37.032  36.419  0.00  0.00    +0.000 A 
ATOM     21  C   UNL     1      41.338  36.895  37.600  0.00  0.00    +0.000 A 
ATOM     22  C   UNL     1      40.518  37.962  37.862  0.00  0.00    +0.000 A 
ATOM     23  O   UNL     1      39.859  37.837  38.915  0.00  0.00    +0.000 OA
ATOM     24  N   UNL     1      40.386  39.065  37.114  0.00  0.00    +0.000 N 
ATOM     25  C   UNL     1      41.138  39.113  36.008  0.00  0.00    +0.000 A 
ATOM     26  O   UNL     1      40.978  40.171  35.339  0.00  0.00    +0.000 OA
ATOM     27  H   UNL     1      39.715  39.781  37.459  0.00  0.00    +0.000 HD
ENDBRANCH  17  21
ENDBRANCH   9  17
ENDBRANCH   1   4
BRANCH   1  28
ATOM     28  C   UNL     1      43.204  33.230  41.149  0.00  0.00    +0.000 C 
ATOM     29  H   UNL     1      43.171  32.200  41.557  0.00  0.00    +0.000 HD
ATOM     30  H   UNL     1      43.454  33.097  40.061  0.00  0.00    +0.000 HD
BRANCH  28  31
ATOM     31  C   UNL     1      44.234  34.076  41.779  0.00  0.00    +0.000 A 
ATOM     32  C   UNL     1      43.880  35.253  42.404  0.00  0.00    +0.000 A 
ATOM     33  C   UNL     1      44.885  36.024  42.973  0.00  0.00    +0.000 A 
ATOM     34  N   UNL     1      46.174  35.572  42.884  0.00  0.00    +0.000 NA
ATOM     35  C   UNL     1      46.472  34.429  42.274  0.00  0.00    +0.000 A 
ATOM     36  N   UNL     1      45.492  33.699  41.730  0.00  0.00    +0.000 NA
ATOM     37  H   UNL     1      42.948  35.760  42.590  0.00  0.00    +0.000 HD
ATOM     38  H   UNL     1      44.798  36.977  43.502  0.00  0.00    +0.000 HD
BRANCH  35  39
ATOM     39  C   UNL     1      47.871  34.010  42.256  0.00  0.00    +0.000 A 
ATOM     40  C   UNL     1      48.204  32.678  42.025  0.00  0.00    +0.000 A 
ATOM     41  C   UNL     1      49.530  32.291  42.026  0.00  0.00    +0.000 A 
ATOM     42  C   UNL     1      50.426  33.309  42.266  0.00  0.00    +0.000 A 
ATOM     43  C   UNL     1      50.141  34.643  42.500  0.00  0.00    +0.000 A 
ATOM     44  N   UNL     1      48.818  34.945  42.483  0.00  0.00    +0.000 NA
ATOM     45  H   UNL     1      47.444  31.920  41.841  0.00  0.00    +0.000 HD
ATOM     46  H   UNL     1      49.879  31.284  41.858  0.00  0.00    +0.000 HD
ATOM     47  H   UNL     1      51.485  33.044  42.276  0.00  0.00    +0.000 HD
ATOM     48  H   UNL     1      50.916  35.371  42.678  0.00  0.00    +0.000 HD
ENDBRANCH  35  39
ENDBRANCH  28  31
ENDBRANCH   1  28
TORSDOF 6
