
 OpenBabel03252507053D

 48 51  0  0  0  0  0  0  0  0999 V2000
   39.0880   27.3950   39.8460 C   0  0  0  0  0  0  0  0  0  0  0  0
   38.9430   28.2850   39.1960 H   0  0  0  0  0  0  0  0  0  0  0  0
   39.5430   26.6260   39.1310 H   0  0  0  0  0  0  0  0  0  0  0  0
   37.9580   26.9770   40.4270 N   0  0  0  0  0  0  0  0  0  0  0  0
   37.6940   25.6860   40.9790 C   0  0  0  0  0  0  0  0  0  0  0  0
   37.7690   26.0390   42.4580 C   0  0  0  0  0  0  0  0  0  0  0  0
   36.8130   27.0460   42.8830 C   0  0  0  0  0  0  0  0  0  0  0  0
   36.2850   27.9670   41.9010 C   0  0  0  0  0  0  0  0  0  0  0  0
   36.8900   28.0000   40.5150 C   0  0  0  0  0  0  0  0  0  0  0  0
   36.8110   25.1520   40.6770 H   0  0  0  0  0  0  0  0  0  0  0  0
   38.5680   25.0240   40.7880 H   0  0  0  0  0  0  0  0  0  0  0  0
   37.6640   25.0680   43.0150 H   0  0  0  0  0  0  0  0  0  0  0  0
   38.8160   26.3510   42.6500 H   0  0  0  0  0  0  0  0  0  0  0  0
   37.2660   27.6410   43.7180 H   0  0  0  0  0  0  0  0  0  0  0  0
   35.9270   26.5250   43.3530 H   0  0  0  0  0  0  0  0  0  0  0  0
   35.5130   28.6520   42.0600 H   0  0  0  0  0  0  0  0  0  0  0  0
   36.3800   29.0430   39.2460 S   0  0  0  0  0  0  0  0  0  0  0  0
   36.9030   33.1400   41.5000 H   0  0  0  0  0  0  0  0  0  0  0  0
   37.0090   32.5860   40.6230 N   0  0  0  0  0  0  0  0  0  0  0  0
   36.7080   31.2740   40.3990 C   0  0  0  0  0  3  0  0  0  0  0  0
   36.9170   30.6760   39.1420 C   0  0  0  0  0  0  0  0  0  0  0  0
   37.4370   31.5280   38.2030 C   0  0  0  0  0  0  0  0  0  0  0  0
   37.6120   30.9920   37.0880 O   0  0  0  0  0  0  0  0  0  0  0  0
   37.7460   32.8180   38.3840 N   0  0  0  0  0  0  0  0  0  0  0  0
   37.5170   33.3060   39.6100 C   0  0  0  0  0  0  0  0  0  0  0  0
   37.8240   34.5240   39.7290 O   0  0  0  0  0  0  0  0  0  0  0  0
   38.1350   33.3220   37.5610 H   0  0  0  0  0  0  0  0  0  0  0  0
   40.1870   27.6860   40.8040 C   0  0  0  0  0  0  0  0  0  0  0  0
   40.1840   27.0430   41.7060 H   0  0  0  0  0  0  0  0  0  0  0  0
   41.1510   27.4390   40.2810 H   0  0  0  0  0  0  0  0  0  0  0  0
   40.1640   29.1280   41.1130 C   0  0  0  0  0  0  0  0  0  0  0  0
   39.6930   29.5700   42.3320 C   0  0  0  0  0  0  0  0  0  0  0  0
   39.6790   30.9370   42.5750 C   0  0  0  0  0  0  0  0  0  0  0  0
   40.1350   31.7720   41.5920 N   0  0  0  0  0  0  0  0  0  0  0  0
   40.5830   31.3040   40.4310 C   0  0  0  0  0  0  0  0  0  0  0  0
   40.5890   29.9840   40.2120 N   0  0  0  0  0  0  0  0  0  0  0  0
   39.3170   29.0860   43.2180 H   0  0  0  0  0  0  0  0  0  0  0  0
   39.3430   31.4670   43.4700 H   0  0  0  0  0  0  0  0  0  0  0  0
   41.0810   32.2680   39.4530 C   0  0  0  0  0  0  0  0  0  0  0  0
   41.4160   31.8560   38.1660 C   0  0  0  0  0  0  0  0  0  0  0  0
   41.9010   32.7740   37.2550 C   0  0  0  0  0  0  0  0  0  0  0  0
   42.0060   34.0610   37.7350 C   0  0  0  0  0  0  0  0  0  0  0  0
   41.6850   34.5140   39.0030 C   0  0  0  0  0  0  0  0  0  0  0  0
   41.2160   33.5540   39.8400 N   0  0  0  0  0  0  0  0  0  0  0  0
   41.3090   30.8200   37.8490 H   0  0  0  0  0  0  0  0  0  0  0  0
   42.1860   32.5450   36.2400 H   0  0  0  0  0  0  0  0  0  0  0  0
   42.3860   34.8170   37.0460 H   0  0  0  0  0  0  0  0  0  0  0  0
   41.8020   35.5470   39.2880 H   0  0  0  0  0  0  0  0  0  0  0  0
  1  4  1  0  0  0  0
  1 28  1  0  0  0  0
  2  1  1  0  0  0  0
  3  1  1  0  0  0  0
  4  9  1  0  0  0  0
  4  5  1  0  0  0  0
  5  6  1  0  0  0  0
  6 13  1  0  0  0  0
  6  7  1  0  0  0  0
  6 12  1  0  0  0  0
  7 15  1  0  0  0  0
  7 14  1  0  0  0  0
  8 16  1  0  0  0  0
  8  7  1  0  0  0  0
  9  8  2  0  0  0  0
 10  5  1  0  0  0  0
 11  5  1  0  0  0  0
 17  9  1  0  0  0  0
 19 18  1  0  0  0  0
 20 19  1  0  0  0  0
 21 17  1  0  0  0  0
 21 20  2  0  0  0  0
 22 24  1  0  0  0  0
 22 21  1  0  0  0  0
 23 22  2  0  0  0  0
 24 25  1  0  0  0  0
 25 26  2  0  0  0  0
 25 19  1  0  0  0  0
 27 24  1  0  0  0  0
 28 31  1  0  0  0  0
 28 29  1  0  0  0  0
 30 28  1  0  0  0  0
 31 32  1  0  0  0  0
 32 33  2  0  0  0  0
 32 37  1  0  0  0  0
 33 38  1  0  0  0  0
 34 33  1  0  0  0  0
 35 34  2  0  0  0  0
 36 35  1  0  0  0  0
 36 31  2  0  0  0  0
 39 44  1  0  0  0  0
 39 35  1  0  0  0  0
 40 39  2  0  0  0  0
 41 42  2  0  0  0  0
 41 40  1  0  0  0  0
 42 43  1  0  0  0  0
 43 48  1  0  0  0  0
 43 44  2  0  0  0  0
 45 40  1  0  0  0  0
 46 41  1  0  0  0  0
 47 42  1  0  0  0  0
M  END
>  <minimizedAffinity>
-6.25101471

$$$$

 OpenBabel03252507053D

 48 51  0  0  0  0  0  0  0  0999 V2000
   36.0980   28.6060   40.7560 C   0  0  0  0  0  0  0  0  0  0  0  0
   35.2710   28.0240   41.2160 H   0  0  0  0  0  0  0  0  0  0  0  0
   36.1710   28.1630   39.7030 H   0  0  0  0  0  0  0  0  0  0  0  0
   37.2430   28.5300   41.4440 N   0  0  0  0  0  0  0  0  0  0  0  0
   37.6500   29.3530   42.5390 C   0  0  0  0  0  0  0  0  0  0  0  0
   37.4500   28.3580   43.6730 C   0  0  0  0  0  0  0  0  0  0  0  0
   38.2350   27.1430   43.5500 C   0  0  0  0  0  0  0  0  0  0  0  0
   38.6840   26.7300   42.2390 C   0  0  0  0  0  0  0  0  0  0  0  0
   38.1540   27.4450   41.0160 C   0  0  0  0  0  0  0  0  0  0  0  0
   38.6140   29.8320   42.5110 H   0  0  0  0  0  0  0  0  0  0  0  0
   36.8870   30.1460   42.7020 H   0  0  0  0  0  0  0  0  0  0  0  0
   37.6580   28.9230   44.6230 H   0  0  0  0  0  0  0  0  0  0  0  0
   36.3620   28.1480   43.7140 H   0  0  0  0  0  0  0  0  0  0  0  0
   37.6620   26.2970   44.0110 H   0  0  0  0  0  0  0  0  0  0  0  0
   39.1580   27.2450   44.1950 H   0  0  0  0  0  0  0  0  0  0  0  0
   39.3450   25.9470   42.0390 H   0  0  0  0  0  0  0  0  0  0  0  0
   38.5830   27.0640   39.3950 S   0  0  0  0  0  0  0  0  0  0  0  0
   41.2310   30.9540   39.3470 H   0  0  0  0  0  0  0  0  0  0  0  0
   40.8420   30.1350   38.8310 N   0  0  0  0  0  0  0  0  0  0  0  0
   40.0390   29.1340   39.2980 C   0  0  0  0  0  3  0  0  0  0  0  0
   39.6000   28.0930   38.4590 C   0  0  0  0  0  0  0  0  0  0  0  0
   40.0520   28.1920   37.1690 C   0  0  0  0  0  0  0  0  0  0  0  0
   39.6510   27.2690   36.4290 O   0  0  0  0  0  0  0  0  0  0  0  0
   40.8400   29.1560   36.6740 N   0  0  0  0  0  0  0  0  0  0  0  0
   41.2110   30.1070   37.5410 C   0  0  0  0  0  0  0  0  0  0  0  0
   41.9520   30.9900   37.0270 O   0  0  0  0  0  0  0  0  0  0  0  0
   41.0910   29.0780   35.6680 H   0  0  0  0  0  0  0  0  0  0  0  0
   35.6230   29.9960   40.5260 C   0  0  0  0  0  0  0  0  0  0  0  0
   34.5450   30.0720   40.2780 H   0  0  0  0  0  0  0  0  0  0  0  0
   35.7290   30.5430   41.5030 H   0  0  0  0  0  0  0  0  0  0  0  0
   36.5000   30.6270   39.5240 C   0  0  0  0  0  0  0  0  0  0  0  0
   36.5000   30.1810   38.2190 C   0  0  0  0  0  0  0  0  0  0  0  0
   37.3510   30.7970   37.3120 C   0  0  0  0  0  0  0  0  0  0  0  0
   38.1450   31.8170   37.7630 N   0  0  0  0  0  0  0  0  0  0  0  0
   38.1130   32.2190   39.0290 C   0  0  0  0  0  0  0  0  0  0  0  0
   37.2870   31.6140   39.8910 N   0  0  0  0  0  0  0  0  0  0  0  0
   35.9540   29.4250   37.6790 H   0  0  0  0  0  0  0  0  0  0  0  0
   37.4890   30.5800   36.2490 H   0  0  0  0  0  0  0  0  0  0  0  0
   38.9710   33.3370   39.4120 C   0  0  0  0  0  0  0  0  0  0  0  0
   38.4490   34.4150   40.1220 C   0  0  0  0  0  0  0  0  0  0  0  0
   39.2670   35.4730   40.4650 C   0  0  0  0  0  0  0  0  0  0  0  0
   40.5750   35.3470   40.0510 C   0  0  0  0  0  0  0  0  0  0  0  0
   41.1360   34.2970   39.3450 C   0  0  0  0  0  0  0  0  0  0  0  0
   40.2700   33.2960   39.0460 N   0  0  0  0  0  0  0  0  0  0  0  0
   37.4020   34.4520   40.4210 H   0  0  0  0  0  0  0  0  0  0  0  0
   38.9490   36.3480   41.0120 H   0  0  0  0  0  0  0  0  0  0  0  0
   41.2540   36.1640   40.3010 H   0  0  0  0  0  0  0  0  0  0  0  0
   42.1770   34.2880   39.0650 H   0  0  0  0  0  0  0  0  0  0  0  0
  1  2  1  0  0  0  0
  1  4  1  0  0  0  0
  3  1  1  0  0  0  0
  4  5  1  0  0  0  0
  5 11  1  0  0  0  0
  5  6  1  0  0  0  0
  6 13  1  0  0  0  0
  6 12  1  0  0  0  0
  7  6  1  0  0  0  0
  7 14  1  0  0  0  0
  7 15  1  0  0  0  0
  8  7  1  0  0  0  0
  9  4  1  0  0  0  0
  9  8  2  0  0  0  0
 10  5  1  0  0  0  0
 16  8  1  0  0  0  0
 17  9  1  0  0  0  0
 19 20  1  0  0  0  0
 19 18  1  0  0  0  0
 21 20  2  0  0  0  0
 21 17  1  0  0  0  0
 22 21  1  0  0  0  0
 23 22  2  0  0  0  0
 24 22  1  0  0  0  0
 24 25  1  0  0  0  0
 25 19  1  0  0  0  0
 26 25  2  0  0  0  0
 27 24  1  0  0  0  0
 28  1  1  0  0  0  0
 28 30  1  0  0  0  0
 29 28  1  0  0  0  0
 31 36  1  0  0  0  0
 31 28  1  0  0  0  0
 32 31  2  0  0  0  0
 33 34  2  0  0  0  0
 33 32  1  0  0  0  0
 34 35  1  0  0  0  0
 35 39  1  0  0  0  0
 35 36  2  0  0  0  0
 37 32  1  0  0  0  0
 38 33  1  0  0  0  0
 39 40  1  0  0  0  0
 40 45  1  0  0  0  0
 40 41  2  0  0  0  0
 41 46  1  0  0  0  0
 42 47  1  0  0  0  0
 42 41  1  0  0  0  0
 43 42  2  0  0  0  0
 44 43  1  0  0  0  0
 44 39  2  0  0  0  0
 48 43  1  0  0  0  0
M  END
>  <minimizedAffinity>
-6.19276524

$$$$

 OpenBabel03252507053D

 48 51  0  0  0  0  0  0  0  0999 V2000
   39.5480   30.5320   40.6080 C   0  0  0  0  0  0  0  0  0  0  0  0
   40.5560   30.6220   41.0660 H   0  0  0  0  0  0  0  0  0  0  0  0
   39.5990   29.5240   40.0690 H   0  0  0  0  0  0  0  0  0  0  0  0
   39.2440   31.5530   39.7980 N   0  0  0  0  0  0  0  0  0  0  0  0
   38.0560   31.7180   39.0220 C   0  0  0  0  0  0  0  0  0  0  0  0
   37.3720   32.7910   39.8570 C   0  0  0  0  0  0  0  0  0  0  0  0
   38.1350   34.0180   39.9980 C   0  0  0  0  0  0  0  0  0  0  0  0
   39.5720   33.9700   39.8400 C   0  0  0  0  0  0  0  0  0  0  0  0
   40.2620   32.6280   39.7450 C   0  0  0  0  0  0  0  0  0  0  0  0
   38.1370   31.9340   37.9710 H   0  0  0  0  0  0  0  0  0  0  0  0
   37.4220   30.8100   39.1300 H   0  0  0  0  0  0  0  0  0  0  0  0
   36.3620   32.9510   39.3910 H   0  0  0  0  0  0  0  0  0  0  0  0
   37.1480   32.3250   40.8380 H   0  0  0  0  0  0  0  0  0  0  0  0
   37.9040   34.4720   40.9970 H   0  0  0  0  0  0  0  0  0  0  0  0
   37.7480   34.7700   39.2490 H   0  0  0  0  0  0  0  0  0  0  0  0
   40.2100   34.7950   39.8040 H   0  0  0  0  0  0  0  0  0  0  0  0
   41.9580   32.4070   39.5670 S   0  0  0  0  0  0  0  0  0  0  0  0
   43.2510   34.1440   43.7440 H   0  0  0  0  0  0  0  0  0  0  0  0
   43.4220   34.0720   42.7180 N   0  0  0  0  0  0  0  0  0  0  0  0
   42.7250   33.3630   41.7830 C   0  0  0  0  0  3  0  0  0  0  0  0
   43.0950   33.3760   40.4250 C   0  0  0  0  0  0  0  0  0  0  0  0
   44.1940   34.1500   40.1570 C   0  0  0  0  0  0  0  0  0  0  0  0
   44.5110   34.1620   38.9490 O   0  0  0  0  0  0  0  0  0  0  0  0
   44.9030   34.8580   41.0450 N   0  0  0  0  0  0  0  0  0  0  0  0
   44.4830   34.7900   42.3150 C   0  0  0  0  0  0  0  0  0  0  0  0
   45.1840   35.4730   43.1110 O   0  0  0  0  0  0  0  0  0  0  0  0
   45.7130   35.3930   40.6710 H   0  0  0  0  0  0  0  0  0  0  0  0
   38.5570   30.3070   41.6930 C   0  0  0  0  0  0  0  0  0  0  0  0
   38.6990   30.9580   42.5790 H   0  0  0  0  0  0  0  0  0  0  0  0
   37.5520   30.6000   41.2830 H   0  0  0  0  0  0  0  0  0  0  0  0
   38.5430   28.8690   42.0190 C   0  0  0  0  0  0  0  0  0  0  0  0
   39.2220   28.4010   43.1250 C   0  0  0  0  0  0  0  0  0  0  0  0
   39.1910   27.0370   43.3860 C   0  0  0  0  0  0  0  0  0  0  0  0
   38.4870   26.2320   42.5320 N   0  0  0  0  0  0  0  0  0  0  0  0
   37.8450   26.7250   41.4780 C   0  0  0  0  0  0  0  0  0  0  0  0
   37.8850   28.0410   41.2400 N   0  0  0  0  0  0  0  0  0  0  0  0
   39.8030   28.8600   43.9060 H   0  0  0  0  0  0  0  0  0  0  0  0
   39.6650   26.4880   44.2040 H   0  0  0  0  0  0  0  0  0  0  0  0
   37.0920   25.7950   40.6410 C   0  0  0  0  0  0  0  0  0  0  0  0
   36.8080   24.5100   41.0960 C   0  0  0  0  0  0  0  0  0  0  0  0
   36.1090   23.6340   40.2890 C   0  0  0  0  0  0  0  0  0  0  0  0
   35.7500   24.1440   39.0610 C   0  0  0  0  0  0  0  0  0  0  0  0
   36.0110   25.4110   38.5680 C   0  0  0  0  0  0  0  0  0  0  0  0
   36.7000   26.2130   39.4190 N   0  0  0  0  0  0  0  0  0  0  0  0
   37.1220   24.1680   42.0810 H   0  0  0  0  0  0  0  0  0  0  0  0
   35.8470   22.6220   40.5580 H   0  0  0  0  0  0  0  0  0  0  0  0
   35.1970   23.4820   38.3920 H   0  0  0  0  0  0  0  0  0  0  0  0
   35.6860   25.7220   37.5880 H   0  0  0  0  0  0  0  0  0  0  0  0
  1  2  1  0  0  0  0
  1 28  1  0  0  0  0
  3  1  1  0  0  0  0
  4  1  1  0  0  0  0
  5 11  1  0  0  0  0
  5  4  1  0  0  0  0
  5  6  1  0  0  0  0
  6  7  1  0  0  0  0
  6 13  1  0  0  0  0
  7 14  1  0  0  0  0
  8  7  1  0  0  0  0
  9  4  1  0  0  0  0
  9  8  2  0  0  0  0
 10  5  1  0  0  0  0
 12  6  1  0  0  0  0
 15  7  1  0  0  0  0
 16  8  1  0  0  0  0
 17  9  1  0  0  0  0
 17 21  1  0  0  0  0
 19 18  1  0  0  0  0
 20 19  1  0  0  0  0
 21 20  2  0  0  0  0
 22 21  1  0  0  0  0
 22 24  1  0  0  0  0
 23 22  2  0  0  0  0
 24 25  1  0  0  0  0
 25 19  1  0  0  0  0
 25 26  2  0  0  0  0
 27 24  1  0  0  0  0
 28 31  1  0  0  0  0
 28 29  1  0  0  0  0
 30 28  1  0  0  0  0
 31 32  1  0  0  0  0
 32 33  2  0  0  0  0
 32 37  1  0  0  0  0
 33 38  1  0  0  0  0
 34 33  1  0  0  0  0
 35 34  2  0  0  0  0
 36 35  1  0  0  0  0
 36 31  2  0  0  0  0
 39 40  1  0  0  0  0
 39 35  1  0  0  0  0
 40 45  1  0  0  0  0
 41 46  1  0  0  0  0
 41 40  2  0  0  0  0
 42 41  1  0  0  0  0
 43 42  2  0  0  0  0
 43 44  1  0  0  0  0
 44 39  2  0  0  0  0
 47 42  1  0  0  0  0
 48 43  1  0  0  0  0
M  END
>  <minimizedAffinity>
-6.16967344

$$$$

 OpenBabel03252507053D

 48 51  0  0  0  0  0  0  0  0999 V2000
   37.9430   27.7740   42.6440 C   0  0  0  0  0  0  0  0  0  0  0  0
   37.2710   27.3840   43.4380 H   0  0  0  0  0  0  0  0  0  0  0  0
   37.2240   27.9830   41.7780 H   0  0  0  0  0  0  0  0  0  0  0  0
   38.9290   26.9270   42.3250 N   0  0  0  0  0  0  0  0  0  0  0  0
   40.2500   26.8940   42.8650 C   0  0  0  0  0  0  0  0  0  0  0  0
   40.1160   25.6640   43.7500 C   0  0  0  0  0  0  0  0  0  0  0  0
   39.7610   24.4490   43.0390 C   0  0  0  0  0  0  0  0  0  0  0  0
   39.0790   24.5570   41.7680 C   0  0  0  0  0  0  0  0  0  0  0  0
   38.5670   25.9060   41.3160 C   0  0  0  0  0  0  0  0  0  0  0  0
   41.0950   26.8920   42.1980 H   0  0  0  0  0  0  0  0  0  0  0  0
   40.3790   27.7500   43.5650 H   0  0  0  0  0  0  0  0  0  0  0  0
   41.0860   25.5780   44.3140 H   0  0  0  0  0  0  0  0  0  0  0  0
   39.3710   25.9220   44.5300 H   0  0  0  0  0  0  0  0  0  0  0  0
   39.1450   23.8020   43.7170 H   0  0  0  0  0  0  0  0  0  0  0  0
   40.7030   23.8510   42.8550 H   0  0  0  0  0  0  0  0  0  0  0  0
   38.8770   23.7680   41.1150 H   0  0  0  0  0  0  0  0  0  0  0  0
   37.7300   26.1920   39.8400 S   0  0  0  0  0  0  0  0  0  0  0  0
   35.6400   29.2240   36.9100 H   0  0  0  0  0  0  0  0  0  0  0  0
   36.4710   28.9730   37.4880 N   0  0  0  0  0  0  0  0  0  0  0  0
   36.6610   27.8790   38.2820 C   0  0  0  0  0  3  0  0  0  0  0  0
   37.8560   27.6920   39.0020 C   0  0  0  0  0  0  0  0  0  0  0  0
   38.7740   28.6940   38.8230 C   0  0  0  0  0  0  0  0  0  0  0  0
   39.8340   28.5170   39.4580 O   0  0  0  0  0  0  0  0  0  0  0  0
   38.6250   29.7810   38.0540 N   0  0  0  0  0  0  0  0  0  0  0  0
   37.4580   29.8800   37.4050 C   0  0  0  0  0  0  0  0  0  0  0  0
   37.3670   30.9200   36.6960 O   0  0  0  0  0  0  0  0  0  0  0  0
   39.4240   30.4460   38.0320 H   0  0  0  0  0  0  0  0  0  0  0  0
   38.4160   29.1240   43.0490 C   0  0  0  0  0  0  0  0  0  0  0  0
   38.1730   29.3950   44.0960 H   0  0  0  0  0  0  0  0  0  0  0  0
   39.5390   29.1010   43.0140 H   0  0  0  0  0  0  0  0  0  0  0  0
   37.9240   30.1040   42.0630 C   0  0  0  0  0  0  0  0  0  0  0  0
   36.6480   29.9950   41.5520 C   0  0  0  0  0  0  0  0  0  0  0  0
   36.2310   30.9330   40.6170 C   0  0  0  0  0  0  0  0  0  0  0  0
   37.1110   31.9170   40.2530 N   0  0  0  0  0  0  0  0  0  0  0  0
   38.3330   31.9870   40.7730 C   0  0  0  0  0  0  0  0  0  0  0  0
   38.7180   31.0750   41.6720 N   0  0  0  0  0  0  0  0  0  0  0  0
   35.8220   29.3240   41.7160 H   0  0  0  0  0  0  0  0  0  0  0  0
   35.2680   31.0060   40.1050 H   0  0  0  0  0  0  0  0  0  0  0  0
   39.1910   33.0910   40.3500 C   0  0  0  0  0  0  0  0  0  0  0  0
   38.8720   34.4020   40.6910 C   0  0  0  0  0  0  0  0  0  0  0  0
   39.6830   35.4380   40.2720 C   0  0  0  0  0  0  0  0  0  0  0  0
   40.7740   35.0490   39.5270 C   0  0  0  0  0  0  0  0  0  0  0  0
   41.1300   33.7620   39.1650 C   0  0  0  0  0  0  0  0  0  0  0  0
   40.2850   32.7990   39.6130 N   0  0  0  0  0  0  0  0  0  0  0  0
   37.9910   34.6420   41.2850 H   0  0  0  0  0  0  0  0  0  0  0  0
   39.5120   36.4820   40.4880 H   0  0  0  0  0  0  0  0  0  0  0  0
   41.4400   35.8400   39.1750 H   0  0  0  0  0  0  0  0  0  0  0  0
   42.0090   33.5550   38.5760 H   0  0  0  0  0  0  0  0  0  0  0  0
  1 28  1  0  0  0  0
  1  2  1  0  0  0  0
  3  1  1  0  0  0  0
  4  1  1  0  0  0  0
  4  5  1  0  0  0  0
  5 11  1  0  0  0  0
  5  6  1  0  0  0  0
  6 12  1  0  0  0  0
  6 13  1  0  0  0  0
  7 14  1  0  0  0  0
  7  6  1  0  0  0  0
  8  7  1  0  0  0  0
  9  8  2  0  0  0  0
  9  4  1  0  0  0  0
 10  5  1  0  0  0  0
 15  7  1  0  0  0  0
 16  8  1  0  0  0  0
 17  9  1  0  0  0  0
 18 19  1  0  0  0  0
 19 20  1  0  0  0  0
 20 21  2  0  0  0  0
 21 17  1  0  0  0  0
 22 21  1  0  0  0  0
 22 23  2  0  0  0  0
 24 22  1  0  0  0  0
 25 19  1  0  0  0  0
 25 24  1  0  0  0  0
 26 25  2  0  0  0  0
 27 24  1  0  0  0  0
 28 29  1  0  0  0  0
 30 28  1  0  0  0  0
 31 28  1  0  0  0  0
 32 37  1  0  0  0  0
 32 31  2  0  0  0  0
 33 32  1  0  0  0  0
 34 33  2  0  0  0  0
 34 35  1  0  0  0  0
 35 36  2  0  0  0  0
 36 31  1  0  0  0  0
 38 33  1  0  0  0  0
 39 40  1  0  0  0  0
 39 35  1  0  0  0  0
 40 45  1  0  0  0  0
 41 46  1  0  0  0  0
 41 40  2  0  0  0  0
 42 41  1  0  0  0  0
 43 42  2  0  0  0  0
 43 44  1  0  0  0  0
 44 39  2  0  0  0  0
 47 42  1  0  0  0  0
 48 43  1  0  0  0  0
M  END
>  <minimizedAffinity>
-6.11335468

$$$$

 OpenBabel03252507053D

 48 51  0  0  0  0  0  0  0  0999 V2000
   39.2330   27.7550   39.6190 C   0  0  0  0  0  0  0  0  0  0  0  0
   39.7970   26.8010   39.7020 H   0  0  0  0  0  0  0  0  0  0  0  0
   40.0410   28.5480   39.7860 H   0  0  0  0  0  0  0  0  0  0  0  0
   38.2160   27.8420   40.4840 N   0  0  0  0  0  0  0  0  0  0  0  0
   36.8860   27.3490   40.3090 C   0  0  0  0  0  0  0  0  0  0  0  0
   36.9550   26.1440   41.2360 C   0  0  0  0  0  0  0  0  0  0  0  0
   37.2660   26.4660   42.6170 C   0  0  0  0  0  0  0  0  0  0  0  0
   37.9690   27.6960   42.9060 C   0  0  0  0  0  0  0  0  0  0  0  0
   38.5460   28.5040   41.7670 C   0  0  0  0  0  0  0  0  0  0  0  0
   36.0520   28.0090   40.4730 H   0  0  0  0  0  0  0  0  0  0  0  0
   36.7860   26.9290   39.2840 H   0  0  0  0  0  0  0  0  0  0  0  0
   35.9740   25.6050   41.1190 H   0  0  0  0  0  0  0  0  0  0  0  0
   37.7000   25.4520   40.7920 H   0  0  0  0  0  0  0  0  0  0  0  0
   37.8430   25.6140   43.0630 H   0  0  0  0  0  0  0  0  0  0  0  0
   36.3010   26.4930   43.2060 H   0  0  0  0  0  0  0  0  0  0  0  0
   38.1450   28.0880   43.8580 H   0  0  0  0  0  0  0  0  0  0  0  0
   39.4150   29.9770   41.9510 S   0  0  0  0  0  0  0  0  0  0  0  0
   40.5060   34.3760   40.6830 H   0  0  0  0  0  0  0  0  0  0  0  0
   39.7860   33.6260   40.7690 N   0  0  0  0  0  0  0  0  0  0  0  0
   39.9320   32.3490   41.2290 C   0  0  0  0  0  3  0  0  0  0  0  0
   38.8450   31.4570   41.2790 C   0  0  0  0  0  0  0  0  0  0  0  0
   37.6660   31.9940   40.8300 C   0  0  0  0  0  0  0  0  0  0  0  0
   36.7050   31.1990   40.8850 O   0  0  0  0  0  0  0  0  0  0  0  0
   37.4830   33.2390   40.3710 N   0  0  0  0  0  0  0  0  0  0  0  0
   38.5700   34.0210   40.3580 C   0  0  0  0  0  0  0  0  0  0  0  0
   38.3460   35.1820   39.9170 O   0  0  0  0  0  0  0  0  0  0  0  0
   36.5190   33.4850   40.0680 H   0  0  0  0  0  0  0  0  0  0  0  0
   38.8350   27.9440   38.1990 C   0  0  0  0  0  0  0  0  0  0  0  0
   39.4400   27.3610   37.4770 H   0  0  0  0  0  0  0  0  0  0  0  0
   37.7930   27.5350   38.0940 H   0  0  0  0  0  0  0  0  0  0  0  0
   38.8150   29.3900   37.9110 C   0  0  0  0  0  0  0  0  0  0  0  0
   37.6210   30.0310   37.6540 C   0  0  0  0  0  0  0  0  0  0  0  0
   37.6510   31.3910   37.3750 C   0  0  0  0  0  0  0  0  0  0  0  0
   38.8660   32.0230   37.3740 N   0  0  0  0  0  0  0  0  0  0  0  0
   39.9940   31.3680   37.6300 C   0  0  0  0  0  0  0  0  0  0  0  0
   39.9470   30.0570   37.8950 N   0  0  0  0  0  0  0  0  0  0  0  0
   36.5890   29.7240   37.6240 H   0  0  0  0  0  0  0  0  0  0  0  0
   36.8170   32.0600   37.1470 H   0  0  0  0  0  0  0  0  0  0  0  0
   41.2390   32.1300   37.6390 C   0  0  0  0  0  0  0  0  0  0  0  0
   42.4470   31.5100   37.3300 C   0  0  0  0  0  0  0  0  0  0  0  0
   43.6200   32.2390   37.3570 C   0  0  0  0  0  0  0  0  0  0  0  0
   43.4670   33.5630   37.7020 C   0  0  0  0  0  0  0  0  0  0  0  0
   42.2900   34.2200   38.0150 C   0  0  0  0  0  0  0  0  0  0  0  0
   41.1810   33.4390   37.9670 N   0  0  0  0  0  0  0  0  0  0  0  0
   42.4990   30.4550   37.0650 H   0  0  0  0  0  0  0  0  0  0  0  0
   44.5980   31.8410   37.1340 H   0  0  0  0  0  0  0  0  0  0  0  0
   44.3710   34.1740   37.7350 H   0  0  0  0  0  0  0  0  0  0  0  0
   42.2700   35.2670   38.2740 H   0  0  0  0  0  0  0  0  0  0  0  0
  1  2  1  0  0  0  0
  1  3  1  0  0  0  0
  1  4  1  0  0  0  0
  4  9  1  0  0  0  0
  5 10  1  0  0  0  0
  5  4  1  0  0  0  0
  5  6  1  0  0  0  0
  6  7  1  0  0  0  0
  7  8  1  0  0  0  0
  7 14  1  0  0  0  0
  7 15  1  0  0  0  0
  8 16  1  0  0  0  0
  9 17  1  0  0  0  0
  9  8  2  0  0  0  0
 11  5  1  0  0  0  0
 12  6  1  0  0  0  0
 13  6  1  0  0  0  0
 18 19  1  0  0  0  0
 19 20  1  0  0  0  0
 20 21  2  0  0  0  0
 21 17  1  0  0  0  0
 22 23  2  0  0  0  0
 22 21  1  0  0  0  0
 24 22  1  0  0  0  0
 25 24  1  0  0  0  0
 25 19  1  0  0  0  0
 26 25  2  0  0  0  0
 27 24  1  0  0  0  0
 28  1  1  0  0  0  0
 29 28  1  0  0  0  0
 30 28  1  0  0  0  0
 31 28  1  0  0  0  0
 32 31  2  0  0  0  0
 33 32  1  0  0  0  0
 34 33  2  0  0  0  0
 34 35  1  0  0  0  0
 35 39  1  0  0  0  0
 35 36  2  0  0  0  0
 36 31  1  0  0  0  0
 37 32  1  0  0  0  0
 38 33  1  0  0  0  0
 39 44  1  0  0  0  0
 40 41  1  0  0  0  0
 40 39  2  0  0  0  0
 41 42  2  0  0  0  0
 42 47  1  0  0  0  0
 42 43  1  0  0  0  0
 43 48  1  0  0  0  0
 44 43  2  0  0  0  0
 45 40  1  0  0  0  0
 46 41  1  0  0  0  0
M  END
>  <minimizedAffinity>
-6.06351089

$$$$

 OpenBabel03252507053D

 48 51  0  0  0  0  0  0  0  0999 V2000
   39.5010   27.7560   41.8710 C   0  0  0  0  0  0  0  0  0  0  0  0
   39.8790   28.5120   41.1490 H   0  0  0  0  0  0  0  0  0  0  0  0
   40.3700   27.6480   42.6090 H   0  0  0  0  0  0  0  0  0  0  0  0
   39.1520   26.6020   41.2900 N   0  0  0  0  0  0  0  0  0  0  0  0
   39.4370   25.2800   41.7500 C   0  0  0  0  0  0  0  0  0  0  0  0
   38.0520   24.9010   42.2560 C   0  0  0  0  0  0  0  0  0  0  0  0
   37.0120   24.9400   41.2440 C   0  0  0  0  0  0  0  0  0  0  0  0
   37.2000   25.7790   40.0810 C   0  0  0  0  0  0  0  0  0  0  0  0
   38.3600   26.7480   40.0470 C   0  0  0  0  0  0  0  0  0  0  0  0
   39.8920   24.5730   41.0800 H   0  0  0  0  0  0  0  0  0  0  0  0
   40.0770   25.3410   42.6580 H   0  0  0  0  0  0  0  0  0  0  0  0
   38.1620   23.8900   42.7360 H   0  0  0  0  0  0  0  0  0  0  0  0
   37.8340   25.5820   43.1040 H   0  0  0  0  0  0  0  0  0  0  0  0
   36.0450   25.2250   41.7340 H   0  0  0  0  0  0  0  0  0  0  0  0
   36.8400   23.8890   40.8650 H   0  0  0  0  0  0  0  0  0  0  0  0
   36.5830   25.8020   39.2390 H   0  0  0  0  0  0  0  0  0  0  0  0
   38.7090   27.8160   38.7440 S   0  0  0  0  0  0  0  0  0  0  0  0
   38.0490   28.5640   34.1450 H   0  0  0  0  0  0  0  0  0  0  0  0
   37.6410   28.4770   35.1010 N   0  0  0  0  0  0  0  0  0  0  0  0
   38.2740   28.2070   36.2800 C   0  0  0  0  0  3  0  0  0  0  0  0
   37.5660   28.1230   37.4920 C   0  0  0  0  0  0  0  0  0  0  0  0
   36.2170   28.3340   37.3620 C   0  0  0  0  0  0  0  0  0  0  0  0
   35.5970   28.2650   38.4440 O   0  0  0  0  0  0  0  0  0  0  0  0
   35.5600   28.5990   36.2260 N   0  0  0  0  0  0  0  0  0  0  0  0
   36.3110   28.6610   35.1190 C   0  0  0  0  0  0  0  0  0  0  0  0
   35.6450   28.9120   34.0770 O   0  0  0  0  0  0  0  0  0  0  0  0
   34.5310   28.7310   36.3050 H   0  0  0  0  0  0  0  0  0  0  0  0
   38.4190   28.3760   42.6800 C   0  0  0  0  0  0  0  0  0  0  0  0
   37.6190   27.6710   42.9830 H   0  0  0  0  0  0  0  0  0  0  0  0
   38.8850   28.7100   43.6470 H   0  0  0  0  0  0  0  0  0  0  0  0
   37.9150   29.5560   41.9550 C   0  0  0  0  0  0  0  0  0  0  0  0
   36.5990   29.6130   41.5480 C   0  0  0  0  0  0  0  0  0  0  0  0
   36.1710   30.7390   40.8580 C   0  0  0  0  0  0  0  0  0  0  0  0
   37.0810   31.7340   40.6200 N   0  0  0  0  0  0  0  0  0  0  0  0
   38.3410   31.6410   41.0320 C   0  0  0  0  0  0  0  0  0  0  0  0
   38.7370   30.5480   41.6940 N   0  0  0  0  0  0  0  0  0  0  0  0
   35.7480   28.9610   41.6490 H   0  0  0  0  0  0  0  0  0  0  0  0
   35.1770   30.9590   40.4580 H   0  0  0  0  0  0  0  0  0  0  0  0
   39.2320   32.7660   40.7610 C   0  0  0  0  0  0  0  0  0  0  0  0
   38.7110   34.0120   40.4260 C   0  0  0  0  0  0  0  0  0  0  0  0
   39.5640   35.0650   40.1570 C   0  0  0  0  0  0  0  0  0  0  0  0
   40.9040   34.7580   40.2530 C   0  0  0  0  0  0  0  0  0  0  0  0
   41.4660   33.5370   40.5820 C   0  0  0  0  0  0  0  0  0  0  0  0
   40.5640   32.5540   40.8320 N   0  0  0  0  0  0  0  0  0  0  0  0
   37.6380   34.1890   40.3680 H   0  0  0  0  0  0  0  0  0  0  0  0
   39.2500   36.0610   39.8890 H   0  0  0  0  0  0  0  0  0  0  0  0
   41.6120   35.5630   40.0460 H   0  0  0  0  0  0  0  0  0  0  0  0
   42.5330   33.3930   40.6320 H   0  0  0  0  0  0  0  0  0  0  0  0
  1  3  1  0  0  0  0
  1 28  1  0  0  0  0
  2  1  1  0  0  0  0
  4  5  1  0  0  0  0
  4  1  1  0  0  0  0
  5  6  1  0  0  0  0
  5 11  1  0  0  0  0
  6 12  1  0  0  0  0
  6 13  1  0  0  0  0
  7 14  1  0  0  0  0
  7  6  1  0  0  0  0
  8  7  1  0  0  0  0
  9  8  2  0  0  0  0
  9  4  1  0  0  0  0
 10  5  1  0  0  0  0
 15  7  1  0  0  0  0
 16  8  1  0  0  0  0
 17  9  1  0  0  0  0
 18 19  1  0  0  0  0
 19 25  1  0  0  0  0
 19 20  1  0  0  0  0
 20 21  2  0  0  0  0
 21 17  1  0  0  0  0
 22 21  1  0  0  0  0
 22 23  2  0  0  0  0
 24 27  1  0  0  0  0
 24 22  1  0  0  0  0
 25 24  1  0  0  0  0
 26 25  2  0  0  0  0
 28 29  1  0  0  0  0
 28 30  1  0  0  0  0
 31 28  1  0  0  0  0
 32 37  1  0  0  0  0
 32 31  2  0  0  0  0
 33 32  1  0  0  0  0
 34 33  2  0  0  0  0
 34 35  1  0  0  0  0
 35 36  2  0  0  0  0
 36 31  1  0  0  0  0
 38 33  1  0  0  0  0
 39 44  1  0  0  0  0
 39 35  1  0  0  0  0
 40 39  2  0  0  0  0
 41 42  2  0  0  0  0
 41 40  1  0  0  0  0
 42 43  1  0  0  0  0
 43 48  1  0  0  0  0
 43 44  2  0  0  0  0
 45 40  1  0  0  0  0
 46 41  1  0  0  0  0
 47 42  1  0  0  0  0
M  END
>  <minimizedAffinity>
-6.05955839

$$$$

 OpenBabel03252507053D

 48 51  0  0  0  0  0  0  0  0999 V2000
   35.6000   29.3250   38.2630 C   0  0  0  0  0  0  0  0  0  0  0  0
   34.6730   29.9370   38.2660 H   0  0  0  0  0  0  0  0  0  0  0  0
   35.3210   28.4320   38.9230 H   0  0  0  0  0  0  0  0  0  0  0  0
   36.6740   29.9930   38.7000 N   0  0  0  0  0  0  0  0  0  0  0  0
   37.7350   30.5360   37.9120 C   0  0  0  0  0  0  0  0  0  0  0  0
   37.3660   32.0100   37.9990 C   0  0  0  0  0  0  0  0  0  0  0  0
   37.3310   32.5410   39.3500 C   0  0  0  0  0  0  0  0  0  0  0  0
   37.1150   31.6310   40.4530 C   0  0  0  0  0  0  0  0  0  0  0  0
   36.7230   30.1990   40.1660 C   0  0  0  0  0  0  0  0  0  0  0  0
   38.7540   30.3000   38.1640 H   0  0  0  0  0  0  0  0  0  0  0  0
   37.5780   30.2540   36.8480 H   0  0  0  0  0  0  0  0  0  0  0  0
   38.0910   32.5520   37.3310 H   0  0  0  0  0  0  0  0  0  0  0  0
   36.3900   32.1170   37.4840 H   0  0  0  0  0  0  0  0  0  0  0  0
   36.5530   33.3470   39.3980 H   0  0  0  0  0  0  0  0  0  0  0  0
   38.3060   33.0750   39.5520 H   0  0  0  0  0  0  0  0  0  0  0  0
   37.1840   31.8730   41.4660 H   0  0  0  0  0  0  0  0  0  0  0  0
   36.4230   29.0040   41.3670 S   0  0  0  0  0  0  0  0  0  0  0  0
   38.2470   24.8490   42.6120 H   0  0  0  0  0  0  0  0  0  0  0  0
   38.3100   25.8900   42.6280 N   0  0  0  0  0  0  0  0  0  0  0  0
   37.4730   26.8060   42.0570 C   0  0  0  0  0  3  0  0  0  0  0  0
   37.7060   28.1880   42.1760 C   0  0  0  0  0  0  0  0  0  0  0  0
   38.8260   28.5020   42.9020 C   0  0  0  0  0  0  0  0  0  0  0  0
   39.0210   29.7300   43.0100 O   0  0  0  0  0  0  0  0  0  0  0  0
   39.6700   27.6340   43.4760 N   0  0  0  0  0  0  0  0  0  0  0  0
   39.3740   26.3380   43.3130 C   0  0  0  0  0  0  0  0  0  0  0  0
   40.1980   25.5630   43.8710 O   0  0  0  0  0  0  0  0  0  0  0  0
   40.4740   28.0430   43.9920 H   0  0  0  0  0  0  0  0  0  0  0  0
   35.7680   28.7310   36.9110 C   0  0  0  0  0  0  0  0  0  0  0  0
   36.5440   29.2240   36.2920 H   0  0  0  0  0  0  0  0  0  0  0  0
   36.1460   27.6830   37.0590 H   0  0  0  0  0  0  0  0  0  0  0  0
   34.4470   28.6770   36.2590 C   0  0  0  0  0  0  0  0  0  0  0  0
   34.2390   27.8520   35.1750 C   0  0  0  0  0  0  0  0  0  0  0  0
   32.9820   27.8430   34.5850 C   0  0  0  0  0  0  0  0  0  0  0  0
   32.0150   28.6540   35.1150 N   0  0  0  0  0  0  0  0  0  0  0  0
   32.2570   29.4340   36.1640 C   0  0  0  0  0  0  0  0  0  0  0  0
   33.4730   29.4320   36.7190 N   0  0  0  0  0  0  0  0  0  0  0  0
   34.8480   27.1460   34.6340 H   0  0  0  0  0  0  0  0  0  0  0  0
   32.6350   27.2630   33.7260 H   0  0  0  0  0  0  0  0  0  0  0  0
   31.1550   30.2420   36.6810 C   0  0  0  0  0  0  0  0  0  0  0  0
   30.7510   31.3930   36.0100 C   0  0  0  0  0  0  0  0  0  0  0  0
   29.7190   32.1580   36.5170 C   0  0  0  0  0  0  0  0  0  0  0  0
   29.1710   31.6810   37.6870 C   0  0  0  0  0  0  0  0  0  0  0  0
   29.5390   30.5450   38.3870 C   0  0  0  0  0  0  0  0  0  0  0  0
   30.5590   29.8470   37.8260 N   0  0  0  0  0  0  0  0  0  0  0  0
   31.2280   31.7160   35.0860 H   0  0  0  0  0  0  0  0  0  0  0  0
   29.3420   33.0630   36.0660 H   0  0  0  0  0  0  0  0  0  0  0  0
   28.3520   32.2580   38.1220 H   0  0  0  0  0  0  0  0  0  0  0  0
   29.0470   30.2500   39.3000 H   0  0  0  0  0  0  0  0  0  0  0  0
  1  2  1  0  0  0  0
  1  4  1  0  0  0  0
  1  3  1  0  0  0  0
  4  9  1  0  0  0  0
  5  6  1  0  0  0  0
  5 10  1  0  0  0  0
  5  4  1  0  0  0  0
  6  7  1  0  0  0  0
  7 14  1  0  0  0  0
  7 15  1  0  0  0  0
  7  8  1  0  0  0  0
  8 16  1  0  0  0  0
  9  8  2  0  0  0  0
  9 17  1  0  0  0  0
 11  5  1  0  0  0  0
 12  6  1  0  0  0  0
 13  6  1  0  0  0  0
 17 21  1  0  0  0  0
 18 19  1  0  0  0  0
 19 25  1  0  0  0  0
 20 21  2  0  0  0  0
 20 19  1  0  0  0  0
 21 22  1  0  0  0  0
 22 23  2  0  0  0  0
 22 24  1  0  0  0  0
 24 27  1  0  0  0  0
 25 24  1  0  0  0  0
 25 26  2  0  0  0  0
 28 30  1  0  0  0  0
 28  1  1  0  0  0  0
 29 28  1  0  0  0  0
 31 36  1  0  0  0  0
 31 28  1  0  0  0  0
 32 31  2  0  0  0  0
 33 34  2  0  0  0  0
 33 32  1  0  0  0  0
 34 35  1  0  0  0  0
 35 39  1  0  0  0  0
 35 36  2  0  0  0  0
 37 32  1  0  0  0  0
 38 33  1  0  0  0  0
 39 44  1  0  0  0  0
 40 41  1  0  0  0  0
 40 39  2  0  0  0  0
 41 42  2  0  0  0  0
 42 47  1  0  0  0  0
 42 43  1  0  0  0  0
 43 48  1  0  0  0  0
 44 43  2  0  0  0  0
 45 40  1  0  0  0  0
 46 41  1  0  0  0  0
M  END
>  <minimizedAffinity>
-5.96459055

$$$$

 OpenBabel03252507053D

 48 51  0  0  0  0  0  0  0  0999 V2000
   37.4410   27.9770   41.6430 C   0  0  0  0  0  0  0  0  0  0  0  0
   36.3380   28.0930   41.7080 H   0  0  0  0  0  0  0  0  0  0  0  0
   37.7330   28.7330   40.8340 H   0  0  0  0  0  0  0  0  0  0  0  0
   37.8240   26.7260   41.3650 N   0  0  0  0  0  0  0  0  0  0  0  0
   38.1720   25.7000   42.2960 C   0  0  0  0  0  0  0  0  0  0  0  0
   36.9200   24.8410   42.1830 C   0  0  0  0  0  0  0  0  0  0  0  0
   36.6590   24.3340   40.8470 C   0  0  0  0  0  0  0  0  0  0  0  0
   37.2090   25.0410   39.7120 C   0  0  0  0  0  0  0  0  0  0  0  0
   37.8540   26.3920   39.9220 C   0  0  0  0  0  0  0  0  0  0  0  0
   39.1030   25.1740   42.1800 H   0  0  0  0  0  0  0  0  0  0  0  0
   38.1500   26.1210   43.3250 H   0  0  0  0  0  0  0  0  0  0  0  0
   37.0320   24.0260   42.9500 H   0  0  0  0  0  0  0  0  0  0  0  0
   36.0830   25.4600   42.5640 H   0  0  0  0  0  0  0  0  0  0  0  0
   35.5500   24.2460   40.7070 H   0  0  0  0  0  0  0  0  0  0  0  0
   37.0380   23.2710   40.7860 H   0  0  0  0  0  0  0  0  0  0  0  0
   37.1880   24.7130   38.7210 H   0  0  0  0  0  0  0  0  0  0  0  0
   38.5400   27.3570   38.6740 S   0  0  0  0  0  0  0  0  0  0  0  0
   38.0260   28.5040   34.1390 H   0  0  0  0  0  0  0  0  0  0  0  0
   37.6630   28.5470   35.1160 N   0  0  0  0  0  0  0  0  0  0  0  0
   38.1870   27.9960   36.2490 C   0  0  0  0  0  3  0  0  0  0  0  0
   37.5620   28.1520   37.5000 C   0  0  0  0  0  0  0  0  0  0  0  0
   36.4090   28.8920   37.4550 C   0  0  0  0  0  0  0  0  0  0  0  0
   35.8650   29.0330   38.5700 O   0  0  0  0  0  0  0  0  0  0  0  0
   35.8640   29.4480   36.3660 N   0  0  0  0  0  0  0  0  0  0  0  0
   36.5230   29.2500   35.2170 C   0  0  0  0  0  0  0  0  0  0  0  0
   35.9690   29.7920   34.2220 O   0  0  0  0  0  0  0  0  0  0  0  0
   34.9810   29.9800   36.5090 H   0  0  0  0  0  0  0  0  0  0  0  0
   38.0450   28.5310   42.8830 C   0  0  0  0  0  0  0  0  0  0  0  0
   37.3420   29.1190   43.5070 H   0  0  0  0  0  0  0  0  0  0  0  0
   38.3310   27.6550   43.5270 H   0  0  0  0  0  0  0  0  0  0  0  0
   39.2630   29.2750   42.5150 C   0  0  0  0  0  0  0  0  0  0  0  0
   40.5080   28.7230   42.7320 C   0  0  0  0  0  0  0  0  0  0  0  0
   41.6280   29.4650   42.3800 C   0  0  0  0  0  0  0  0  0  0  0  0
   41.4350   30.7050   41.8350 N   0  0  0  0  0  0  0  0  0  0  0  0
   40.2160   31.2000   41.6400 C   0  0  0  0  0  0  0  0  0  0  0  0
   39.1480   30.4730   41.9860 N   0  0  0  0  0  0  0  0  0  0  0  0
   40.8600   27.7830   43.1230 H   0  0  0  0  0  0  0  0  0  0  0  0
   42.6830   29.1960   42.4790 H   0  0  0  0  0  0  0  0  0  0  0  0
   40.1070   32.5190   41.0230 C   0  0  0  0  0  0  0  0  0  0  0  0
   41.2250   33.1290   40.4620 C   0  0  0  0  0  0  0  0  0  0  0  0
   41.1120   34.3840   39.8950 C   0  0  0  0  0  0  0  0  0  0  0  0
   39.8470   34.9250   39.9450 C   0  0  0  0  0  0  0  0  0  0  0  0
   38.7090   34.3570   40.4900 C   0  0  0  0  0  0  0  0  0  0  0  0
   38.9000   33.1250   41.0280 N   0  0  0  0  0  0  0  0  0  0  0  0
   42.2010   32.6450   40.4550 H   0  0  0  0  0  0  0  0  0  0  0  0
   41.9230   34.9310   39.4400 H   0  0  0  0  0  0  0  0  0  0  0  0
   39.7160   35.9170   39.5080 H   0  0  0  0  0  0  0  0  0  0  0  0
   37.7560   34.8610   40.4810 H   0  0  0  0  0  0  0  0  0  0  0  0
  1  2  1  0  0  0  0
  1 28  1  0  0  0  0
  3  1  1  0  0  0  0
  4  1  1  0  0  0  0
  4  5  1  0  0  0  0
  5 11  1  0  0  0  0
  6  5  1  0  0  0  0
  6 13  1  0  0  0  0
  6 12  1  0  0  0  0
  7  6  1  0  0  0  0
  8  9  2  0  0  0  0
  8  7  1  0  0  0  0
  9  4  1  0  0  0  0
 10  5  1  0  0  0  0
 14  7  1  0  0  0  0
 15  7  1  0  0  0  0
 16  8  1  0  0  0  0
 17  9  1  0  0  0  0
 18 19  1  0  0  0  0
 19 25  1  0  0  0  0
 19 20  1  0  0  0  0
 20 21  2  0  0  0  0
 21 17  1  0  0  0  0
 22 21  1  0  0  0  0
 22 23  2  0  0  0  0
 24 27  1  0  0  0  0
 24 22  1  0  0  0  0
 25 24  1  0  0  0  0
 26 25  2  0  0  0  0
 28 29  1  0  0  0  0
 28 30  1  0  0  0  0
 31 32  1  0  0  0  0
 31 28  1  0  0  0  0
 32 37  1  0  0  0  0
 33 38  1  0  0  0  0
 33 32  2  0  0  0  0
 34 33  1  0  0  0  0
 35 34  2  0  0  0  0
 35 36  1  0  0  0  0
 36 31  2  0  0  0  0
 39 44  1  0  0  0  0
 39 35  1  0  0  0  0
 40 39  2  0  0  0  0
 41 42  2  0  0  0  0
 41 40  1  0  0  0  0
 42 43  1  0  0  0  0
 43 44  2  0  0  0  0
 45 40  1  0  0  0  0
 46 41  1  0  0  0  0
 47 42  1  0  0  0  0
 48 43  1  0  0  0  0
M  END
>  <minimizedAffinity>
-5.91900682

$$$$

 OpenBabel03252507053D

 48 51  0  0  0  0  0  0  0  0999 V2000
   37.4360   27.2140   42.5730 C   0  0  0  0  0  0  0  0  0  0  0  0
   36.9200   26.5110   43.2630 H   0  0  0  0  0  0  0  0  0  0  0  0
   36.8050   27.1490   41.6200 H   0  0  0  0  0  0  0  0  0  0  0  0
   38.7250   26.9100   42.3790 N   0  0  0  0  0  0  0  0  0  0  0  0
   39.8240   27.2150   43.2390 C   0  0  0  0  0  0  0  0  0  0  0  0
   40.0710   25.8270   43.8130 C   0  0  0  0  0  0  0  0  0  0  0  0
   40.3860   24.8150   42.8200 C   0  0  0  0  0  0  0  0  0  0  0  0
   39.9500   25.0140   41.4560 C   0  0  0  0  0  0  0  0  0  0  0  0
   39.0030   26.1500   41.1400 C   0  0  0  0  0  0  0  0  0  0  0  0
   40.6920   27.7060   42.8340 H   0  0  0  0  0  0  0  0  0  0  0  0
   39.4600   27.8280   44.0920 H   0  0  0  0  0  0  0  0  0  0  0  0
   40.8750   25.9490   44.5890 H   0  0  0  0  0  0  0  0  0  0  0  0
   39.1650   25.5670   44.3980 H   0  0  0  0  0  0  0  0  0  0  0  0
   39.9930   23.8270   43.1780 H   0  0  0  0  0  0  0  0  0  0  0  0
   41.5080   24.6790   42.7890 H   0  0  0  0  0  0  0  0  0  0  0  0
   40.2130   24.4200   40.6390 H   0  0  0  0  0  0  0  0  0  0  0  0
   38.3890   26.5070   39.5730 S   0  0  0  0  0  0  0  0  0  0  0  0
   41.1480   30.3180   39.5160 H   0  0  0  0  0  0  0  0  0  0  0  0
   40.3920   29.7590   39.0650 N   0  0  0  0  0  0  0  0  0  0  0  0
   39.8520   28.5710   39.4660 C   0  0  0  0  0  3  0  0  0  0  0  0
   38.8280   27.9450   38.7320 C   0  0  0  0  0  0  0  0  0  0  0  0
   38.4470   28.6350   37.6110 C   0  0  0  0  0  0  0  0  0  0  0  0
   37.5330   28.0770   36.9700 O   0  0  0  0  0  0  0  0  0  0  0  0
   38.9520   29.8000   37.1850 N   0  0  0  0  0  0  0  0  0  0  0  0
   39.9230   30.3260   37.9420 C   0  0  0  0  0  0  0  0  0  0  0  0
   40.3650   31.4220   37.4980 O   0  0  0  0  0  0  0  0  0  0  0  0
   38.5470   30.1880   36.3090 H   0  0  0  0  0  0  0  0  0  0  0  0
   37.2090   28.6000   43.0580 C   0  0  0  0  0  0  0  0  0  0  0  0
   36.4110   28.6890   43.8220 H   0  0  0  0  0  0  0  0  0  0  0  0
   38.1480   28.9180   43.5890 H   0  0  0  0  0  0  0  0  0  0  0  0
   36.9990   29.4730   41.8890 C   0  0  0  0  0  0  0  0  0  0  0  0
   36.0200   29.1740   40.9650 C   0  0  0  0  0  0  0  0  0  0  0  0
   35.8660   30.0170   39.8730 C   0  0  0  0  0  0  0  0  0  0  0  0
   36.6940   31.1030   39.7740 N   0  0  0  0  0  0  0  0  0  0  0  0
   37.6240   31.3570   40.6890 C   0  0  0  0  0  0  0  0  0  0  0  0
   37.7600   30.5330   41.7340 N   0  0  0  0  0  0  0  0  0  0  0  0
   35.2770   28.3990   40.8750 H   0  0  0  0  0  0  0  0  0  0  0  0
   35.1540   29.9410   39.0460 H   0  0  0  0  0  0  0  0  0  0  0  0
   38.4400   32.5550   40.5180 C   0  0  0  0  0  0  0  0  0  0  0  0
   37.8520   33.7600   40.1400 C   0  0  0  0  0  0  0  0  0  0  0  0
   38.6370   34.8830   39.9660 C   0  0  0  0  0  0  0  0  0  0  0  0
   39.9810   34.6870   40.1940 C   0  0  0  0  0  0  0  0  0  0  0  0
   40.6080   33.5110   40.5700 C   0  0  0  0  0  0  0  0  0  0  0  0
   39.7710   32.4530   40.7210 N   0  0  0  0  0  0  0  0  0  0  0  0
   36.7790   33.8470   39.9750 H   0  0  0  0  0  0  0  0  0  0  0  0
   38.2680   35.8540   39.6740 H   0  0  0  0  0  0  0  0  0  0  0  0
   40.6360   35.5510   40.0660 H   0  0  0  0  0  0  0  0  0  0  0  0
   41.6730   33.4560   40.7270 H   0  0  0  0  0  0  0  0  0  0  0  0
  1 28  1  0  0  0  0
  1  2  1  0  0  0  0
  3  1  1  0  0  0  0
  4  1  1  0  0  0  0
  4  5  1  0  0  0  0
  5  6  1  0  0  0  0
  5 11  1  0  0  0  0
  6 13  1  0  0  0  0
  6 12  1  0  0  0  0
  7 14  1  0  0  0  0
  7  6  1  0  0  0  0
  8  7  1  0  0  0  0
  9  8  2  0  0  0  0
  9  4  1  0  0  0  0
 10  5  1  0  0  0  0
 15  7  1  0  0  0  0
 16  8  1  0  0  0  0
 17  9  1  0  0  0  0
 19 20  1  0  0  0  0
 19 18  1  0  0  0  0
 21 20  2  0  0  0  0
 21 17  1  0  0  0  0
 22 21  1  0  0  0  0
 23 22  2  0  0  0  0
 24 22  1  0  0  0  0
 24 25  1  0  0  0  0
 25 19  1  0  0  0  0
 26 25  2  0  0  0  0
 27 24  1  0  0  0  0
 28 30  1  0  0  0  0
 28 29  1  0  0  0  0
 31 28  1  0  0  0  0
 32 31  2  0  0  0  0
 33 32  1  0  0  0  0
 34 33  2  0  0  0  0
 34 35  1  0  0  0  0
 35 36  2  0  0  0  0
 36 31  1  0  0  0  0
 37 32  1  0  0  0  0
 38 33  1  0  0  0  0
 39 35  1  0  0  0  0
 39 44  1  0  0  0  0
 40 39  2  0  0  0  0
 41 40  1  0  0  0  0
 41 42  2  0  0  0  0
 42 43  1  0  0  0  0
 43 44  2  0  0  0  0
 43 48  1  0  0  0  0
 45 40  1  0  0  0  0
 46 41  1  0  0  0  0
 47 42  1  0  0  0  0
M  END
>  <minimizedAffinity>
-5.91049671

$$$$
