
 OpenBabel03242516363D

 45 48  0  0  1  0  0  0  0  0999 V2000
   36.9660   28.2250   42.6880 C   0  0  1  0  0  0  0  0  0  0  0  0
   37.4260   29.7290   42.3340 C   0  0  1  0  0  0  0  0  0  0  0  0
   38.7140   29.6150   42.7010 O   0  0  0  0  0  0  0  0  0  0  0  0
   39.1260   28.5660   41.8420 C   0  0  0  0  0  0  0  0  0  0  0  0
   38.1810   27.4530   42.2610 C   0  0  1  0  0  0  0  0  0  0  0  0
   36.0450   28.0130   42.1710 H   0  0  0  0  0  0  0  0  0  0  0  0
   36.6590   30.2800   42.8690 H   0  0  0  0  0  0  0  0  0  0  0  0
   40.1850   28.3170   42.0290 H   0  0  0  0  0  0  0  0  0  0  0  0
   38.9640   28.7770   40.7890 H   0  0  0  0  0  0  0  0  0  0  0  0
   37.8830   26.8770   41.3460 H   0  0  0  0  0  0  0  0  0  0  0  0
   36.9110   28.1960   44.0800 O   0  0  0  0  0  0  0  0  0  0  0  0
   37.6940   27.8410   44.5200 H   0  0  0  0  0  0  0  0  0  0  0  0
   37.3380   29.7730   40.9440 O   0  0  0  0  0  0  0  0  0  0  0  0
   37.5790   32.0900   40.5230 C   0  0  2  0  0  0  0  0  0  0  0  0
   38.5840   31.6520   39.4250 C   0  0  1  0  0  0  0  0  0  0  0  0
   37.7230   31.5170   38.3780 O   0  0  0  0  0  0  0  0  0  0  0  0
   36.6920   30.7040   38.8900 C   0  0  0  0  0  0  0  0  0  0  0  0
   36.7050   30.8610   40.4240 C   0  0  1  0  0  0  0  0  0  0  0  0
   38.0710   32.2230   41.4870 H   0  0  0  0  0  0  0  0  0  0  0  0
   38.9940   30.6740   39.7680 H   0  0  0  0  0  0  0  0  0  0  0  0
   35.7200   31.0360   38.5190 H   0  0  0  0  0  0  0  0  0  0  0  0
   36.8790   29.6410   38.6560 H   0  0  0  0  0  0  0  0  0  0  0  0
   35.7000   31.0520   40.8290 H   0  0  0  0  0  0  0  0  0  0  0  0
   41.5110   33.8290   38.3550 C   0  0  0  0  0  0  0  0  0  0  0  0
   40.6390   32.7390   38.3080 C   0  0  0  0  0  0  0  0  0  0  0  0
   39.6400   32.6570   39.2520 C   0  0  0  0  0  0  0  0  0  0  0  0
   39.5690   33.6690   40.1840 N   0  0  0  0  0  0  0  0  0  0  0  0
   40.4210   34.7060   40.2050 C   0  0  0  0  0  0  0  0  0  0  0  0
   41.3970   34.7820   39.2820 N   0  0  0  0  0  0  0  0  0  0  0  0
   42.2710   33.8240   37.5830 H   0  0  0  0  0  0  0  0  0  0  0  0
   40.6320   31.9240   37.6200 H   0  0  0  0  0  0  0  0  0  0  0  0
   40.3340   35.4820   40.9540 H   0  0  0  0  0  0  0  0  0  0  0  0
   36.8180   33.1430   40.0890 O   0  0  0  0  0  0  0  0  0  0  0  0
   36.7350   33.8440   40.7550 H   0  0  0  0  0  0  0  0  0  0  0  0
   38.7410   26.7450   43.2870 O   0  0  0  0  0  0  0  0  0  0  0  0
   42.8260   27.1300   44.8130 H   0  0  0  0  0  0  0  0  0  0  0  0
   42.1270   26.6310   44.2300 N   0  0  0  0  0  0  0  0  0  0  0  0
   40.8110   26.9290   44.0520 C   0  0  0  0  0  3  0  0  0  0  0  0
   39.9720   26.1570   43.2230 C   0  0  0  0  0  0  0  0  0  0  0  0
   40.6060   25.0930   42.6250 C   0  0  0  0  0  0  0  0  0  0  0  0
   39.8150   24.4470   41.9050 O   0  0  0  0  0  0  0  0  0  0  0  0
   41.9040   24.8130   42.8110 N   0  0  0  0  0  0  0  0  0  0  0  0
   42.6750   25.5590   43.5990 C   0  0  0  0  0  0  0  0  0  0  0  0
   43.8710   25.1910   43.6890 O   0  0  0  0  0  0  0  0  0  0  0  0
   42.1850   23.9650   42.2660 H   0  0  0  0  0  0  0  0  0  0  0  0
  1  6  1  6  0  0  0
  1 11  1  0  0  0  0
  2  1  1  0  0  0  0
  2  3  1  0  0  0  0
  2  7  1  1  0  0  0
  4  8  1  0  0  0  0
  4  5  1  0  0  0  0
  4  3  1  0  0  0  0
  5 10  1  6  0  0  0
  5  1  1  0  0  0  0
  5 35  1  0  0  0  0
  9  4  1  0  0  0  0
 11 12  1  0  0  0  0
 13  2  1  0  0  0  0
 14 19  1  1  0  0  0
 15 20  1  1  0  0  0
 15 14  1  0  0  0  0
 16 17  1  0  0  0  0
 16 15  1  0  0  0  0
 17 18  1  0  0  0  0
 18 14  1  0  0  0  0
 18 23  1  1  0  0  0
 18 13  1  0  0  0  0
 21 17  1  0  0  0  0
 22 17  1  0  0  0  0
 24 29  1  0  0  0  0
 25 24  2  0  0  0  0
 25 26  1  0  0  0  0
 26 15  1  0  0  0  0
 26 27  2  0  0  0  0
 27 28  1  0  0  0  0
 28 32  1  0  0  0  0
 29 28  2  0  0  0  0
 30 24  1  0  0  0  0
 31 25  1  0  0  0  0
 33 14  1  0  0  0  0
 33 34  1  0  0  0  0
 37 36  1  0  0  0  0
 38 37  1  0  0  0  0
 39 35  1  0  0  0  0
 39 38  2  0  0  0  0
 40 42  1  0  0  0  0
 40 39  1  0  0  0  0
 41 40  2  0  0  0  0
 42 43  1  0  0  0  0
 43 44  2  0  0  0  0
 43 37  1  0  0  0  0
 45 42  1  0  0  0  0
M  END
>  <minimizedAffinity>
-6.819561

$$$$

 OpenBabel03242516363D

 45 48  0  0  1  0  0  0  0  0999 V2000
   36.4810   28.3640   42.1060 C   0  0  1  0  0  0  0  0  0  0  0  0
   37.6820   29.4130   42.3440 C   0  0  1  0  0  0  0  0  0  0  0  0
   38.6260   28.5280   42.7090 O   0  0  0  0  0  0  0  0  0  0  0  0
   38.6630   27.7120   41.5500 C   0  0  0  0  0  0  0  0  0  0  0  0
   37.2290   27.2160   41.4910 C   0  0  1  0  0  0  0  0  0  0  0  0
   35.7230   28.8340   41.5030 H   0  0  0  0  0  0  0  0  0  0  0  0
   37.1780   30.1130   43.0030 H   0  0  0  0  0  0  0  0  0  0  0  0
   39.3910   26.8930   41.6870 H   0  0  0  0  0  0  0  0  0  0  0  0
   38.8760   28.2620   40.6380 H   0  0  0  0  0  0  0  0  0  0  0  0
   36.9130   27.1740   40.4160 H   0  0  0  0  0  0  0  0  0  0  0  0
   36.0950   27.9800   43.3900 O   0  0  0  0  0  0  0  0  0  0  0  0
   36.4790   27.1540   43.7100 H   0  0  0  0  0  0  0  0  0  0  0  0
   37.9540   29.8840   41.0610 O   0  0  0  0  0  0  0  0  0  0  0  0
   38.0830   32.2190   40.6940 C   0  0  2  0  0  0  0  0  0  0  0  0
   38.9510   31.8460   39.4640 C   0  0  1  0  0  0  0  0  0  0  0  0
   37.9670   31.7190   38.5300 O   0  0  0  0  0  0  0  0  0  0  0  0
   37.0300   30.8610   39.1390 C   0  0  0  0  0  0  0  0  0  0  0  0
   37.2340   30.9700   40.6640 C   0  0  1  0  0  0  0  0  0  0  0  0
   38.6900   32.3350   41.5930 H   0  0  0  0  0  0  0  0  0  0  0  0
   39.4250   30.8690   39.7180 H   0  0  0  0  0  0  0  0  0  0  0  0
   36.0110   31.1760   38.9060 H   0  0  0  0  0  0  0  0  0  0  0  0
   37.2120   29.8120   38.8460 H   0  0  0  0  0  0  0  0  0  0  0  0
   36.2840   31.1190   41.1990 H   0  0  0  0  0  0  0  0  0  0  0  0
   41.7270   34.0900   38.1580 C   0  0  0  0  0  0  0  0  0  0  0  0
   40.9040   32.9630   38.2040 C   0  0  0  0  0  0  0  0  0  0  0  0
   39.9510   32.8850   39.1940 C   0  0  0  0  0  0  0  0  0  0  0  0
   39.8750   33.9390   40.0790 N   0  0  0  0  0  0  0  0  0  0  0  0
   40.6790   35.0120   40.0100 C   0  0  0  0  0  0  0  0  0  0  0  0
   41.6100   35.0830   39.0420 N   0  0  0  0  0  0  0  0  0  0  0  0
   42.4520   34.0800   37.3540 H   0  0  0  0  0  0  0  0  0  0  0  0
   40.9040   32.1140   37.5570 H   0  0  0  0  0  0  0  0  0  0  0  0
   40.5890   35.8200   40.7240 H   0  0  0  0  0  0  0  0  0  0  0  0
   37.2470   33.2630   40.3970 O   0  0  0  0  0  0  0  0  0  0  0  0
   37.2330   33.9400   41.0920 H   0  0  0  0  0  0  0  0  0  0  0  0
   37.1170   26.0650   42.2180 O   0  0  0  0  0  0  0  0  0  0  0  0
   36.0250   22.9460   39.3460 H   0  0  0  0  0  0  0  0  0  0  0  0
   36.6540   23.3030   40.0910 N   0  0  0  0  0  0  0  0  0  0  0  0
   36.5760   24.4800   40.7690 C   0  0  0  0  0  3  0  0  0  0  0  0
   37.5070   24.8370   41.7650 C   0  0  0  0  0  0  0  0  0  0  0  0
   38.4850   23.8930   41.9770 C   0  0  0  0  0  0  0  0  0  0  0  0
   39.2790   24.2630   42.8670 O   0  0  0  0  0  0  0  0  0  0  0  0
   38.5490   22.7380   41.3000 N   0  0  0  0  0  0  0  0  0  0  0  0
   37.6550   22.4240   40.3640 C   0  0  0  0  0  0  0  0  0  0  0  0
   37.8260   21.3140   39.8040 O   0  0  0  0  0  0  0  0  0  0  0  0
   39.3660   22.1650   41.6140 H   0  0  0  0  0  0  0  0  0  0  0  0
  1  6  1  6  0  0  0
  1  2  1  0  0  0  0
  1 11  1  0  0  0  0
  2  3  1  0  0  0  0
  2  7  1  1  0  0  0
  4  8  1  0  0  0  0
  4  3  1  0  0  0  0
  5 10  1  6  0  0  0
  5  4  1  0  0  0  0
  5  1  1  0  0  0  0
  5 35  1  0  0  0  0
  9  4  1  0  0  0  0
 11 12  1  0  0  0  0
 13  2  1  0  0  0  0
 14 19  1  1  0  0  0
 15 20  1  1  0  0  0
 15 14  1  0  0  0  0
 16 17  1  0  0  0  0
 16 15  1  0  0  0  0
 17 18  1  0  0  0  0
 18 14  1  0  0  0  0
 18 13  1  0  0  0  0
 18 23  1  1  0  0  0
 21 17  1  0  0  0  0
 22 17  1  0  0  0  0
 24 25  2  0  0  0  0
 24 29  1  0  0  0  0
 25 26  1  0  0  0  0
 26 15  1  0  0  0  0
 26 27  2  0  0  0  0
 28 27  1  0  0  0  0
 28 32  1  0  0  0  0
 29 28  2  0  0  0  0
 30 24  1  0  0  0  0
 31 25  1  0  0  0  0
 33 14  1  0  0  0  0
 33 34  1  0  0  0  0
 36 37  1  0  0  0  0
 37 43  1  0  0  0  0
 37 38  1  0  0  0  0
 38 39  2  0  0  0  0
 39 40  1  0  0  0  0
 39 35  1  0  0  0  0
 40 41  2  0  0  0  0
 42 45  1  0  0  0  0
 42 40  1  0  0  0  0
 43 42  1  0  0  0  0
 44 43  2  0  0  0  0
M  END
>  <minimizedAffinity>
-6.62778854

$$$$

 OpenBabel03242516363D

 45 48  0  0  1  0  0  0  0  0999 V2000
   38.5980   32.2160   40.8600 C   0  0  1  0  0  0  0  0  0  0  0  0
   37.1740   31.4780   40.6880 C   0  0  1  0  0  0  0  0  0  0  0  0
   37.0160   31.6960   39.3710 O   0  0  0  0  0  0  0  0  0  0  0  0
   38.1740   31.0490   38.8710 C   0  0  0  0  0  0  0  0  0  0  0  0
   39.2730   31.8240   39.5780 C   0  0  1  0  0  0  0  0  0  0  0  0
   39.0540   31.8810   41.7760 H   0  0  0  0  0  0  0  0  0  0  0  0
   36.6230   31.9690   41.4840 H   0  0  0  0  0  0  0  0  0  0  0  0
   38.2210   31.1510   37.7730 H   0  0  0  0  0  0  0  0  0  0  0  0
   38.2480   30.0040   39.1590 H   0  0  0  0  0  0  0  0  0  0  0  0
   40.0890   31.1060   39.8570 H   0  0  0  0  0  0  0  0  0  0  0  0
   38.2970   33.5750   40.7840 O   0  0  0  0  0  0  0  0  0  0  0  0
   38.4230   33.9810   39.9160 H   0  0  0  0  0  0  0  0  0  0  0  0
   37.4810   30.1370   40.9070 O   0  0  0  0  0  0  0  0  0  0  0  0
   36.6780   28.1700   41.9530 C   0  0  2  0  0  0  0  0  0  0  0  0
   38.1240   27.6390   41.7670 C   0  0  1  0  0  0  0  0  0  0  0  0
   38.6730   28.0770   42.9340 O   0  0  0  0  0  0  0  0  0  0  0  0
   38.3210   29.4400   42.9840 C   0  0  0  0  0  0  0  0  0  0  0  0
   37.0700   29.6220   42.1000 C   0  0  1  0  0  0  0  0  0  0  0  0
   36.0560   27.9520   41.0850 H   0  0  0  0  0  0  0  0  0  0  0  0
   38.5280   28.1770   40.8780 H   0  0  0  0  0  0  0  0  0  0  0  0
   38.0660   29.7360   44.0040 H   0  0  0  0  0  0  0  0  0  0  0  0
   39.1270   30.0680   42.5650 H   0  0  0  0  0  0  0  0  0  0  0  0
   36.2840   30.1990   42.6090 H   0  0  0  0  0  0  0  0  0  0  0  0
   38.8350   23.9090   41.5820 C   0  0  0  0  0  0  0  0  0  0  0  0
   39.1030   25.2540   41.8440 C   0  0  0  0  0  0  0  0  0  0  0  0
   38.1250   26.1840   41.5720 C   0  0  0  0  0  0  0  0  0  0  0  0
   36.9370   25.7150   41.0550 N   0  0  0  0  0  0  0  0  0  0  0  0
   36.7060   24.4150   40.8130 C   0  0  0  0  0  0  0  0  0  0  0  0
   37.6640   23.5100   41.0800 N   0  0  0  0  0  0  0  0  0  0  0  0
   39.6500   23.2380   41.8200 H   0  0  0  0  0  0  0  0  0  0  0  0
   39.9930   25.6880   42.2420 H   0  0  0  0  0  0  0  0  0  0  0  0
   35.7590   24.0850   40.4060 H   0  0  0  0  0  0  0  0  0  0  0  0
   36.1730   27.7810   43.1650 O   0  0  0  0  0  0  0  0  0  0  0  0
   35.2650   27.4430   43.1000 H   0  0  0  0  0  0  0  0  0  0  0  0
   39.6280   32.9030   38.8180 O   0  0  0  0  0  0  0  0  0  0  0  0
   43.1890   32.5340   36.2990 H   0  0  0  0  0  0  0  0  0  0  0  0
   42.7070   32.9470   37.1210 N   0  0  0  0  0  0  0  0  0  0  0  0
   41.4350   32.7250   37.5520 C   0  0  0  0  0  3  0  0  0  0  0  0
   40.9080   33.3600   38.6940 C   0  0  0  0  0  0  0  0  0  0  0  0
   41.7930   34.2100   39.3170 C   0  0  0  0  0  0  0  0  0  0  0  0
   41.2720   34.7420   40.3200 O   0  0  0  0  0  0  0  0  0  0  0  0
   43.0430   34.4170   38.8800 N   0  0  0  0  0  0  0  0  0  0  0  0
   43.5170   33.8040   37.7970 C   0  0  0  0  0  0  0  0  0  0  0  0
   44.7010   34.0840   37.4930 O   0  0  0  0  0  0  0  0  0  0  0  0
   43.5460   35.0980   39.4950 H   0  0  0  0  0  0  0  0  0  0  0  0
  1  6  1  1  0  0  0
  2  1  1  0  0  0  0
  2 13  1  0  0  0  0
  2  7  1  1  0  0  0
  3  2  1  0  0  0  0
  4  9  1  0  0  0  0
  4  3  1  0  0  0  0
  4  5  1  0  0  0  0
  5 10  1  1  0  0  0
  5  1  1  0  0  0  0
  8  4  1  0  0  0  0
 11  1  1  0  0  0  0
 12 11  1  0  0  0  0
 13 18  1  0  0  0  0
 14 19  1  6  0  0  0
 14 18  1  0  0  0  0
 14 33  1  0  0  0  0
 15 20  1  6  0  0  0
 15 14  1  0  0  0  0
 15 16  1  0  0  0  0
 16 17  1  0  0  0  0
 17 21  1  0  0  0  0
 18 23  1  1  0  0  0
 18 17  1  0  0  0  0
 22 17  1  0  0  0  0
 24 30  1  0  0  0  0
 24 25  1  0  0  0  0
 25 31  1  0  0  0  0
 26 15  1  0  0  0  0
 26 25  2  0  0  0  0
 27 26  1  0  0  0  0
 28 27  2  0  0  0  0
 28 29  1  0  0  0  0
 29 24  2  0  0  0  0
 32 28  1  0  0  0  0
 34 33  1  0  0  0  0
 35  5  1  0  0  0  0
 36 37  1  0  0  0  0
 37 38  1  0  0  0  0
 37 43  1  0  0  0  0
 38 39  2  0  0  0  0
 39 35  1  0  0  0  0
 39 40  1  0  0  0  0
 40 41  2  0  0  0  0
 42 40  1  0  0  0  0
 42 45  1  0  0  0  0
 43 42  1  0  0  0  0
 44 43  2  0  0  0  0
M  END
>  <minimizedAffinity>
-6.49226761

$$$$

 OpenBabel03242516363D

 45 48  0  0  1  0  0  0  0  0999 V2000
   37.5580   31.3780   40.2820 C   0  0  1  0  0  0  0  0  0  0  0  0
   36.6210   30.5460   39.2670 C   0  0  1  0  0  0  0  0  0  0  0  0
   36.9080   31.2350   38.1500 O   0  0  0  0  0  0  0  0  0  0  0  0
   38.3100   31.0360   38.0880 C   0  0  0  0  0  0  0  0  0  0  0  0
   38.7520   31.6380   39.4110 C   0  0  1  0  0  0  0  0  0  0  0  0
   37.7180   30.7890   41.1700 H   0  0  0  0  0  0  0  0  0  0  0  0
   35.6850   30.5860   39.8170 H   0  0  0  0  0  0  0  0  0  0  0  0
   38.7300   31.5690   37.2170 H   0  0  0  0  0  0  0  0  0  0  0  0
   38.6010   29.9900   38.0710 H   0  0  0  0  0  0  0  0  0  0  0  0
   39.5870   31.0130   39.8230 H   0  0  0  0  0  0  0  0  0  0  0  0
   36.8890   32.5880   40.4600 O   0  0  0  0  0  0  0  0  0  0  0  0
   37.1950   33.3170   39.9050 H   0  0  0  0  0  0  0  0  0  0  0  0
   37.2350   29.2960   39.2170 O   0  0  0  0  0  0  0  0  0  0  0  0
   37.3140   27.0810   40.0490 C   0  0  2  0  0  0  0  0  0  0  0  0
   37.7550   27.7380   41.3830 C   0  0  1  0  0  0  0  0  0  0  0  0
   36.5310   27.9420   41.9450 O   0  0  0  0  0  0  0  0  0  0  0  0
   35.7990   28.5960   40.9350 C   0  0  0  0  0  0  0  0  0  0  0  0
   36.4600   28.2390   39.5870 C   0  0  1  0  0  0  0  0  0  0  0  0
   38.1680   26.8620   39.4080 H   0  0  0  0  0  0  0  0  0  0  0  0
   38.2560   28.6920   41.0960 H   0  0  0  0  0  0  0  0  0  0  0  0
   34.7670   28.2400   40.9150 H   0  0  0  0  0  0  0  0  0  0  0  0
   35.8530   29.6920   41.0590 H   0  0  0  0  0  0  0  0  0  0  0  0
   35.7220   27.9170   38.8370 H   0  0  0  0  0  0  0  0  0  0  0  0
   39.9830   25.9530   43.8940 C   0  0  0  0  0  0  0  0  0  0  0  0
   39.1500   26.9640   43.4100 C   0  0  0  0  0  0  0  0  0  0  0  0
   38.6560   26.8510   42.1300 C   0  0  0  0  0  0  0  0  0  0  0  0
   39.0210   25.7360   41.4100 N   0  0  0  0  0  0  0  0  0  0  0  0
   39.8230   24.7770   41.9010 C   0  0  0  0  0  0  0  0  0  0  0  0
   40.3050   24.8910   43.1510 N   0  0  0  0  0  0  0  0  0  0  0  0
   40.3330   26.1110   44.9060 H   0  0  0  0  0  0  0  0  0  0  0  0
   38.8260   27.8510   43.9060 H   0  0  0  0  0  0  0  0  0  0  0  0
   40.0880   23.9140   41.3040 H   0  0  0  0  0  0  0  0  0  0  0  0
   36.4580   26.0380   40.2840 O   0  0  0  0  0  0  0  0  0  0  0  0
   36.6760   25.2510   39.7600 H   0  0  0  0  0  0  0  0  0  0  0  0
   39.0000   32.9710   39.2420 O   0  0  0  0  0  0  0  0  0  0  0  0
   43.3310   32.9720   39.8810 H   0  0  0  0  0  0  0  0  0  0  0  0
   42.3960   33.3900   40.0530 N   0  0  0  0  0  0  0  0  0  0  0  0
   41.1890   32.9830   39.5730 C   0  0  0  0  0  3  0  0  0  0  0  0
   39.9900   33.6510   39.8920 C   0  0  0  0  0  0  0  0  0  0  0  0
   40.1600   34.7350   40.7210 C   0  0  0  0  0  0  0  0  0  0  0  0
   39.0660   35.2860   40.9680 O   0  0  0  0  0  0  0  0  0  0  0  0
   41.3560   35.1230   41.1860 N   0  0  0  0  0  0  0  0  0  0  0  0
   42.4740   34.4740   40.8690 C   0  0  0  0  0  0  0  0  0  0  0  0
   43.5280   34.9380   41.3690 O   0  0  0  0  0  0  0  0  0  0  0  0
   41.2630   35.9670   41.7980 H   0  0  0  0  0  0  0  0  0  0  0  0
  1 11  1  0  0  0  0
  1  6  1  1  0  0  0
  2  7  1  1  0  0  0
  2  1  1  0  0  0  0
  3  2  1  0  0  0  0
  4  3  1  0  0  0  0
  4  5  1  0  0  0  0
  5 10  1  1  0  0  0
  5  1  1  0  0  0  0
  8  4  1  0  0  0  0
  9  4  1  0  0  0  0
 12 11  1  0  0  0  0
 13  2  1  0  0  0  0
 13 18  1  0  0  0  0
 14 19  1  6  0  0  0
 14 33  1  0  0  0  0
 14 15  1  0  0  0  0
 15 20  1  6  0  0  0
 15 16  1  0  0  0  0
 15 26  1  0  0  0  0
 17 22  1  0  0  0  0
 17 16  1  0  0  0  0
 18 23  1  6  0  0  0
 18 14  1  0  0  0  0
 18 17  1  0  0  0  0
 21 17  1  0  0  0  0
 24 30  1  0  0  0  0
 25 24  1  0  0  0  0
 25 31  1  0  0  0  0
 26 25  2  0  0  0  0
 27 28  2  0  0  0  0
 27 26  1  0  0  0  0
 28 29  1  0  0  0  0
 29 24  2  0  0  0  0
 32 28  1  0  0  0  0
 34 33  1  0  0  0  0
 35  5  1  0  0  0  0
 35 39  1  0  0  0  0
 36 37  1  0  0  0  0
 37 43  1  0  0  0  0
 38 39  2  0  0  0  0
 38 37  1  0  0  0  0
 39 40  1  0  0  0  0
 40 41  2  0  0  0  0
 40 42  1  0  0  0  0
 42 45  1  0  0  0  0
 43 42  1  0  0  0  0
 43 44  2  0  0  0  0
M  END
>  <minimizedAffinity>
-6.38898993

$$$$

 OpenBabel03242516363D

 45 48  0  0  1  0  0  0  0  0999 V2000
   38.5190   31.9670   37.8830 C   0  0  1  0  0  0  0  0  0  0  0  0
   38.2400   30.4030   38.1540 C   0  0  1  0  0  0  0  0  0  0  0  0
   39.4310   29.9330   37.7470 O   0  0  0  0  0  0  0  0  0  0  0  0
   40.2890   30.6270   38.6360 C   0  0  0  0  0  0  0  0  0  0  0  0
   39.9580   32.0710   38.3000 C   0  0  1  0  0  0  0  0  0  0  0  0
   37.8050   32.5500   38.4410 H   0  0  0  0  0  0  0  0  0  0  0  0
   37.2990   30.2960   37.6230 H   0  0  0  0  0  0  0  0  0  0  0  0
   41.3420   30.3720   38.4230 H   0  0  0  0  0  0  0  0  0  0  0  0
   40.0610   30.4560   39.6840 H   0  0  0  0  0  0  0  0  0  0  0  0
   39.9700   32.6680   39.2490 H   0  0  0  0  0  0  0  0  0  0  0  0
   38.4670   32.0950   36.4960 O   0  0  0  0  0  0  0  0  0  0  0  0
   39.3210   32.0750   36.0450 H   0  0  0  0  0  0  0  0  0  0  0  0
   38.1580   30.3280   39.5430 O   0  0  0  0  0  0  0  0  0  0  0  0
   37.4780   28.2260   40.3950 C   0  0  2  0  0  0  0  0  0  0  0  0
   38.3180   28.6060   41.6420 C   0  0  1  0  0  0  0  0  0  0  0  0
   37.3590   29.2480   42.3670 O   0  0  0  0  0  0  0  0  0  0  0  0
   36.8110   30.1750   41.4580 C   0  0  0  0  0  0  0  0  0  0  0  0
   37.0900   29.6420   40.0380 C   0  0  1  0  0  0  0  0  0  0  0  0
   38.0830   27.7170   39.6440 H   0  0  0  0  0  0  0  0  0  0  0  0
   39.1070   29.3010   41.2700 H   0  0  0  0  0  0  0  0  0  0  0  0
   35.7290   30.2490   41.5900 H   0  0  0  0  0  0  0  0  0  0  0  0
   37.3040   31.1570   41.5550 H   0  0  0  0  0  0  0  0  0  0  0  0
   36.1900   29.6620   39.4040 H   0  0  0  0  0  0  0  0  0  0  0  0
   39.9650   25.9920   43.8580 C   0  0  0  0  0  0  0  0  0  0  0  0
   39.5260   27.2650   43.4840 C   0  0  0  0  0  0  0  0  0  0  0  0
   38.8940   27.4110   42.2700 C   0  0  0  0  0  0  0  0  0  0  0  0
   38.7350   26.2780   41.5010 N   0  0  0  0  0  0  0  0  0  0  0  0
   39.1660   25.0670   41.8870 C   0  0  0  0  0  0  0  0  0  0  0  0
   39.7840   24.9280   43.0730 N   0  0  0  0  0  0  0  0  0  0  0  0
   40.4530   25.9560   44.8230 H   0  0  0  0  0  0  0  0  0  0  0  0
   39.6130   28.1810   44.0220 H   0  0  0  0  0  0  0  0  0  0  0  0
   39.0220   24.1990   41.2550 H   0  0  0  0  0  0  0  0  0  0  0  0
   36.3230   27.5890   40.7660 O   0  0  0  0  0  0  0  0  0  0  0  0
   36.1430   26.8000   40.2300 H   0  0  0  0  0  0  0  0  0  0  0  0
   40.7690   32.4980   37.2870 O   0  0  0  0  0  0  0  0  0  0  0  0
   45.0470   31.8080   36.6580 H   0  0  0  0  0  0  0  0  0  0  0  0
   44.2730   32.4100   37.0020 N   0  0  0  0  0  0  0  0  0  0  0  0
   42.9350   32.1610   36.9740 C   0  0  0  0  0  3  0  0  0  0  0  0
   41.9910   33.0770   37.4810 C   0  0  0  0  0  0  0  0  0  0  0  0
   42.5480   34.2240   37.9970 C   0  0  0  0  0  0  0  0  0  0  0  0
   41.6660   34.9940   38.4300 O   0  0  0  0  0  0  0  0  0  0  0  0
   43.8690   34.4530   38.0170 N   0  0  0  0  0  0  0  0  0  0  0  0
   44.7400   33.5720   37.5310 C   0  0  0  0  0  0  0  0  0  0  0  0
   45.9470   33.9060   37.6090 O   0  0  0  0  0  0  0  0  0  0  0  0
   44.0800   35.3820   38.4510 H   0  0  0  0  0  0  0  0  0  0  0  0
  1  2  1  0  0  0  0
  1  5  1  0  0  0  0
  1  6  1  1  0  0  0
  2  7  1  6  0  0  0
  2 13  1  0  0  0  0
  3  2  1  0  0  0  0
  3  4  1  0  0  0  0
  4  9  1  0  0  0  0
  5  4  1  0  0  0  0
  5 10  1  1  0  0  0
  8  4  1  0  0  0  0
 11  1  1  0  0  0  0
 12 11  1  0  0  0  0
 13 18  1  0  0  0  0
 14 19  1  6  0  0  0
 14 33  1  0  0  0  0
 14 15  1  0  0  0  0
 15 20  1  6  0  0  0
 15 26  1  0  0  0  0
 15 16  1  0  0  0  0
 17 22  1  0  0  0  0
 17 21  1  0  0  0  0
 17 16  1  0  0  0  0
 18 23  1  6  0  0  0
 18 14  1  0  0  0  0
 18 17  1  0  0  0  0
 24 30  1  0  0  0  0
 25 24  1  0  0  0  0
 25 31  1  0  0  0  0
 26 25  2  0  0  0  0
 27 28  2  0  0  0  0
 27 26  1  0  0  0  0
 28 29  1  0  0  0  0
 29 24  2  0  0  0  0
 32 28  1  0  0  0  0
 34 33  1  0  0  0  0
 35 39  1  0  0  0  0
 35  5  1  0  0  0  0
 36 37  1  0  0  0  0
 37 43  1  0  0  0  0
 38 37  1  0  0  0  0
 38 39  2  0  0  0  0
 39 40  1  0  0  0  0
 40 42  1  0  0  0  0
 40 41  2  0  0  0  0
 42 45  1  0  0  0  0
 43 44  2  0  0  0  0
 43 42  1  0  0  0  0
M  END
>  <minimizedAffinity>
-6.37004805

$$$$

 OpenBabel03242516363D

 45 48  0  0  1  0  0  0  0  0999 V2000
   38.5050   33.4740   40.2700 C   0  0  1  0  0  0  0  0  0  0  0  0
   37.4890   32.4420   39.5620 C   0  0  1  0  0  0  0  0  0  0  0  0
   38.1260   32.3410   38.3830 O   0  0  0  0  0  0  0  0  0  0  0  0
   39.3840   31.8550   38.8200 C   0  0  0  0  0  0  0  0  0  0  0  0
   39.8220   32.9690   39.7550 C   0  0  1  0  0  0  0  0  0  0  0  0
   38.3510   33.4400   41.3350 H   0  0  0  0  0  0  0  0  0  0  0  0
   36.5540   32.9650   39.7380 H   0  0  0  0  0  0  0  0  0  0  0  0
   40.0620   31.7310   37.9580 H   0  0  0  0  0  0  0  0  0  0  0  0
   39.3200   30.9310   39.3890 H   0  0  0  0  0  0  0  0  0  0  0  0
   40.3480   32.5090   40.6320 H   0  0  0  0  0  0  0  0  0  0  0  0
   38.2470   34.6960   39.6500 O   0  0  0  0  0  0  0  0  0  0  0  0
   38.8410   34.9280   38.9240 H   0  0  0  0  0  0  0  0  0  0  0  0
   37.6670   31.2670   40.2920 O   0  0  0  0  0  0  0  0  0  0  0  0
   35.7540   29.8950   40.0440 C   0  0  2  0  0  0  0  0  0  0  0  0
   36.7590   28.7140   40.0680 C   0  0  1  0  0  0  0  0  0  0  0  0
   36.7950   28.4810   41.4100 O   0  0  0  0  0  0  0  0  0  0  0  0
   37.0380   29.7520   41.9690 C   0  0  0  0  0  0  0  0  0  0  0  0
   36.5650   30.8010   40.9420 C   0  0  1  0  0  0  0  0  0  0  0  0
   35.6040   30.2730   39.0320 H   0  0  0  0  0  0  0  0  0  0  0  0
   37.7190   29.1310   39.6830 H   0  0  0  0  0  0  0  0  0  0  0  0
   36.4620   29.8860   42.8870 H   0  0  0  0  0  0  0  0  0  0  0  0
   38.1180   29.9050   42.1370 H   0  0  0  0  0  0  0  0  0  0  0  0
   35.9340   31.5760   41.4030 H   0  0  0  0  0  0  0  0  0  0  0  0
   35.9660   25.3960   38.3920 C   0  0  0  0  0  0  0  0  0  0  0  0
   36.5970   26.2610   39.2880 C   0  0  0  0  0  0  0  0  0  0  0  0
   36.2770   27.6000   39.2440 C   0  0  0  0  0  0  0  0  0  0  0  0
   35.3470   27.9940   38.3080 N   0  0  0  0  0  0  0  0  0  0  0  0
   34.7550   27.1400   37.4580 C   0  0  0  0  0  0  0  0  0  0  0  0
   35.0700   25.8330   37.5040 N   0  0  0  0  0  0  0  0  0  0  0  0
   36.2680   24.3610   38.4850 H   0  0  0  0  0  0  0  0  0  0  0  0
   37.3220   26.0300   40.0360 H   0  0  0  0  0  0  0  0  0  0  0  0
   34.0270   27.4880   36.7360 H   0  0  0  0  0  0  0  0  0  0  0  0
   34.6170   29.5770   40.7390 O   0  0  0  0  0  0  0  0  0  0  0  0
   33.8080   29.8260   40.2660 H   0  0  0  0  0  0  0  0  0  0  0  0
   40.5070   33.9130   39.0440 O   0  0  0  0  0  0  0  0  0  0  0  0
   43.9530   33.9030   36.3430 H   0  0  0  0  0  0  0  0  0  0  0  0
   43.5610   33.9750   37.3020 N   0  0  0  0  0  0  0  0  0  0  0  0
   42.2580   33.9100   37.6890 C   0  0  0  0  0  3  0  0  0  0  0  0
   41.8690   34.0240   39.0380 C   0  0  0  0  0  0  0  0  0  0  0  0
   42.9190   34.2030   39.9080 C   0  0  0  0  0  0  0  0  0  0  0  0
   42.5140   34.2970   41.0860 O   0  0  0  0  0  0  0  0  0  0  0  0
   44.1980   34.2640   39.5110 N   0  0  0  0  0  0  0  0  0  0  0  0
   44.5390   34.1540   38.2300 C   0  0  0  0  0  0  0  0  0  0  0  0
   45.7690   34.2280   37.9900 O   0  0  0  0  0  0  0  0  0  0  0  0
   44.8370   34.4050   40.3290 H   0  0  0  0  0  0  0  0  0  0  0  0
  1  6  1  1  0  0  0
  2  7  1  6  0  0  0
  2  1  1  0  0  0  0
  2 13  1  0  0  0  0
  3  4  1  0  0  0  0
  3  2  1  0  0  0  0
  4  9  1  0  0  0  0
  4  5  1  0  0  0  0
  5  1  1  0  0  0  0
  5 10  1  1  0  0  0
  8  4  1  0  0  0  0
 11  1  1  0  0  0  0
 12 11  1  0  0  0  0
 13 18  1  0  0  0  0
 14 19  1  6  0  0  0
 14 15  1  0  0  0  0
 14 33  1  0  0  0  0
 14 18  1  0  0  0  0
 15 20  1  6  0  0  0
 15 16  1  0  0  0  0
 16 17  1  0  0  0  0
 17 22  1  0  0  0  0
 17 21  1  0  0  0  0
 18 23  1  1  0  0  0
 18 17  1  0  0  0  0
 24 30  1  0  0  0  0
 24 25  1  0  0  0  0
 25 31  1  0  0  0  0
 26 25  2  0  0  0  0
 26 15  1  0  0  0  0
 27 26  1  0  0  0  0
 28 29  1  0  0  0  0
 28 27  2  0  0  0  0
 29 24  2  0  0  0  0
 32 28  1  0  0  0  0
 34 33  1  0  0  0  0
 35  5  1  0  0  0  0
 36 37  1  0  0  0  0
 37 38  1  0  0  0  0
 37 43  1  0  0  0  0
 38 39  2  0  0  0  0
 39 35  1  0  0  0  0
 39 40  1  0  0  0  0
 40 41  2  0  0  0  0
 42 40  1  0  0  0  0
 42 45  1  0  0  0  0
 43 42  1  0  0  0  0
 44 43  2  0  0  0  0
M  END
>  <minimizedAffinity>
-6.34797287

$$$$

 OpenBabel03242516363D

 45 48  0  0  1  0  0  0  0  0999 V2000
   37.4030   29.4380   42.4090 C   0  0  1  0  0  0  0  0  0  0  0  0
   38.9150   29.9720   42.5730 C   0  0  1  0  0  0  0  0  0  0  0  0
   39.5250   28.7750   42.6290 O   0  0  0  0  0  0  0  0  0  0  0  0
   39.1320   28.2380   41.3770 C   0  0  0  0  0  0  0  0  0  0  0  0
   37.6190   28.2560   41.5090 C   0  0  1  0  0  0  0  0  0  0  0  0
   36.7910   30.2380   42.0280 H   0  0  0  0  0  0  0  0  0  0  0  0
   38.7740   30.6530   43.4070 H   0  0  0  0  0  0  0  0  0  0  0  0
   39.5370   27.2170   41.2590 H   0  0  0  0  0  0  0  0  0  0  0  0
   39.4130   28.8580   40.5300 H   0  0  0  0  0  0  0  0  0  0  0  0
   37.1800   28.5320   40.5140 H   0  0  0  0  0  0  0  0  0  0  0  0
   37.0660   28.9540   43.6720 O   0  0  0  0  0  0  0  0  0  0  0  0
   37.1710   28.0020   43.7940 H   0  0  0  0  0  0  0  0  0  0  0  0
   39.1780   30.5730   41.3440 O   0  0  0  0  0  0  0  0  0  0  0  0
   40.0200   32.7570   40.9870 C   0  0  2  0  0  0  0  0  0  0  0  0
   40.2550   32.2860   39.5270 C   0  0  1  0  0  0  0  0  0  0  0  0
   39.0500   32.6260   38.9890 O   0  0  0  0  0  0  0  0  0  0  0  0
   38.1110   32.0570   39.8730 C   0  0  0  0  0  0  0  0  0  0  0  0
   38.8140   31.8810   41.2340 C   0  0  1  0  0  0  0  0  0  0  0  0
   40.8790   32.5380   41.6210 H   0  0  0  0  0  0  0  0  0  0  0  0
   40.3970   31.1820   39.5880 H   0  0  0  0  0  0  0  0  0  0  0  0
   37.2580   32.7250   40.0110 H   0  0  0  0  0  0  0  0  0  0  0  0
   37.7970   31.0590   39.5210 H   0  0  0  0  0  0  0  0  0  0  0  0
   38.2050   32.2660   42.0670 H   0  0  0  0  0  0  0  0  0  0  0  0
   42.8660   33.9910   37.3540 C   0  0  0  0  0  0  0  0  0  0  0  0
   41.6660   33.3380   37.6420 C   0  0  0  0  0  0  0  0  0  0  0  0
   41.4220   32.9560   38.9420 C   0  0  0  0  0  0  0  0  0  0  0  0
   42.3900   33.2510   39.8770 N   0  0  0  0  0  0  0  0  0  0  0  0
   43.5350   33.8810   39.5720 C   0  0  0  0  0  0  0  0  0  0  0  0
   43.7710   34.2510   38.3000 N   0  0  0  0  0  0  0  0  0  0  0  0
   42.9880   34.2590   36.3120 H   0  0  0  0  0  0  0  0  0  0  0  0
   40.8750   33.0780   36.9750 H   0  0  0  0  0  0  0  0  0  0  0  0
   44.2720   34.0960   40.3350 H   0  0  0  0  0  0  0  0  0  0  0  0
   39.5720   34.0510   41.0110 O   0  0  0  0  0  0  0  0  0  0  0  0
   40.0250   34.5910   41.6770 H   0  0  0  0  0  0  0  0  0  0  0  0
   37.1990   27.0830   42.0700 O   0  0  0  0  0  0  0  0  0  0  0  0
   38.5970   22.9670   42.5890 H   0  0  0  0  0  0  0  0  0  0  0  0
   38.1260   23.6920   42.0130 N   0  0  0  0  0  0  0  0  0  0  0  0
   37.9010   24.9980   42.3200 C   0  0  0  0  0  3  0  0  0  0  0  0
   37.2440   25.8750   41.4340 C   0  0  0  0  0  0  0  0  0  0  0  0
   36.8600   25.2880   40.2510 C   0  0  0  0  0  0  0  0  0  0  0  0
   36.2840   26.1110   39.5090 O   0  0  0  0  0  0  0  0  0  0  0  0
   37.0900   23.9990   39.9630 N   0  0  0  0  0  0  0  0  0  0  0  0
   37.7130   23.1910   40.8180 C   0  0  0  0  0  0  0  0  0  0  0  0
   37.8660   22.0080   40.4290 O   0  0  0  0  0  0  0  0  0  0  0  0
   36.7180   23.7550   39.0160 H   0  0  0  0  0  0  0  0  0  0  0  0
  1  6  1  6  0  0  0
  1  2  1  0  0  0  0
  1 11  1  0  0  0  0
  2  3  1  0  0  0  0
  2  7  1  1  0  0  0
  4  5  1  0  0  0  0
  4  3  1  0  0  0  0
  5 10  1  6  0  0  0
  5 35  1  0  0  0  0
  5  1  1  0  0  0  0
  8  4  1  0  0  0  0
  9  4  1  0  0  0  0
 11 12  1  0  0  0  0
 13  2  1  0  0  0  0
 14 33  1  0  0  0  0
 14 18  1  0  0  0  0
 14 19  1  1  0  0  0
 15 20  1  6  0  0  0
 15 14  1  0  0  0  0
 16 15  1  0  0  0  0
 16 17  1  0  0  0  0
 17 21  1  0  0  0  0
 17 18  1  0  0  0  0
 18 13  1  0  0  0  0
 18 23  1  1  0  0  0
 22 17  1  0  0  0  0
 24 25  2  0  0  0  0
 24 29  1  0  0  0  0
 25 26  1  0  0  0  0
 26 15  1  0  0  0  0
 26 27  2  0  0  0  0
 28 27  1  0  0  0  0
 28 32  1  0  0  0  0
 29 28  2  0  0  0  0
 30 24  1  0  0  0  0
 31 25  1  0  0  0  0
 33 34  1  0  0  0  0
 37 38  1  0  0  0  0
 37 36  1  0  0  0  0
 39 35  1  0  0  0  0
 39 38  2  0  0  0  0
 40 39  1  0  0  0  0
 41 40  2  0  0  0  0
 42 40  1  0  0  0  0
 42 43  1  0  0  0  0
 43 37  1  0  0  0  0
 44 43  2  0  0  0  0
 45 42  1  0  0  0  0
M  END
>  <minimizedAffinity>
-6.25041819

$$$$

 OpenBabel03242516363D

 45 48  0  0  1  0  0  0  0  0999 V2000
   37.9570   28.8940   42.4370 C   0  0  1  0  0  0  0  0  0  0  0  0
   37.2000   27.6060   41.8290 C   0  0  1  0  0  0  0  0  0  0  0  0
   36.4950   28.2430   40.8780 O   0  0  0  0  0  0  0  0  0  0  0  0
   37.5520   28.8190   40.1290 C   0  0  0  0  0  0  0  0  0  0  0  0
   38.2300   29.6760   41.1850 C   0  0  1  0  0  0  0  0  0  0  0  0
   38.8120   28.5600   43.0010 H   0  0  0  0  0  0  0  0  0  0  0  0
   36.7980   27.1880   42.7460 H   0  0  0  0  0  0  0  0  0  0  0  0
   37.1430   29.4170   39.2950 H   0  0  0  0  0  0  0  0  0  0  0  0
   38.2700   28.0930   39.7600 H   0  0  0  0  0  0  0  0  0  0  0  0
   39.3380   29.6310   41.0190 H   0  0  0  0  0  0  0  0  0  0  0  0
   36.9710   29.5700   43.1540 O   0  0  0  0  0  0  0  0  0  0  0  0
   36.5430   30.2980   42.6870 H   0  0  0  0  0  0  0  0  0  0  0  0
   38.2320   26.8790   41.2370 O   0  0  0  0  0  0  0  0  0  0  0  0
   37.8210   24.6280   41.8480 C   0  0  2  0  0  0  0  0  0  0  0  0
   38.2080   24.2980   40.3830 C   0  0  1  0  0  0  0  0  0  0  0  0
   39.5510   24.1320   40.5390 O   0  0  0  0  0  0  0  0  0  0  0  0
   39.9570   25.2890   41.2330 C   0  0  0  0  0  0  0  0  0  0  0  0
   38.7180   25.8390   41.9700 C   0  0  1  0  0  0  0  0  0  0  0  0
   36.7560   24.8400   41.9440 H   0  0  0  0  0  0  0  0  0  0  0  0
   37.9580   25.2110   39.7940 H   0  0  0  0  0  0  0  0  0  0  0  0
   40.7190   25.0450   41.9770 H   0  0  0  0  0  0  0  0  0  0  0  0
   40.3050   26.0650   40.5290 H   0  0  0  0  0  0  0  0  0  0  0  0
   38.9340   26.0720   43.0240 H   0  0  0  0  0  0  0  0  0  0  0  0
   35.8000   21.7730   38.8730 C   0  0  0  0  0  0  0  0  0  0  0  0
   36.2670   23.0350   39.2470 C   0  0  0  0  0  0  0  0  0  0  0  0
   37.4750   23.1200   39.9010 C   0  0  0  0  0  0  0  0  0  0  0  0
   38.1460   21.9420   40.1430 N   0  0  0  0  0  0  0  0  0  0  0  0
   37.6730   20.7410   39.7710 C   0  0  0  0  0  0  0  0  0  0  0  0
   36.4920   20.6610   39.1330 N   0  0  0  0  0  0  0  0  0  0  0  0
   34.8440   21.7840   38.3650 H   0  0  0  0  0  0  0  0  0  0  0  0
   35.8060   23.9850   39.0950 H   0  0  0  0  0  0  0  0  0  0  0  0
   38.2300   19.8360   39.9780 H   0  0  0  0  0  0  0  0  0  0  0  0
   38.3250   23.6850   42.7050 O   0  0  0  0  0  0  0  0  0  0  0  0
   37.6740   23.3940   43.3640 H   0  0  0  0  0  0  0  0  0  0  0  0
   37.6530   30.9150   41.2020 O   0  0  0  0  0  0  0  0  0  0  0  0
   41.2450   33.3910   41.5700 H   0  0  0  0  0  0  0  0  0  0  0  0
   40.3270   33.1980   41.1250 N   0  0  0  0  0  0  0  0  0  0  0  0
   39.4650   32.1750   41.3780 C   0  0  0  0  0  3  0  0  0  0  0  0
   38.2420   32.0360   40.6910 C   0  0  0  0  0  0  0  0  0  0  0  0
   38.0130   33.0200   39.7580 C   0  0  0  0  0  0  0  0  0  0  0  0
   36.9180   32.8450   39.1830 O   0  0  0  0  0  0  0  0  0  0  0  0
   38.8720   34.0210   39.5200 N   0  0  0  0  0  0  0  0  0  0  0  0
   40.0210   34.1300   40.1830 C   0  0  0  0  0  0  0  0  0  0  0  0
   40.7370   35.1110   39.8670 O   0  0  0  0  0  0  0  0  0  0  0  0
   38.5070   34.6580   38.7740 H   0  0  0  0  0  0  0  0  0  0  0  0
  1  6  1  1  0  0  0
  1 11  1  0  0  0  0
  2  1  1  0  0  0  0
  2  7  1  1  0  0  0
  3  2  1  0  0  0  0
  4  3  1  0  0  0  0
  4  5  1  0  0  0  0
  5 10  1  6  0  0  0
  5 35  1  0  0  0  0
  5  1  1  0  0  0  0
  8  4  1  0  0  0  0
  9  4  1  0  0  0  0
 12 11  1  0  0  0  0
 13  2  1  0  0  0  0
 13 18  1  0  0  0  0
 14 19  1  1  0  0  0
 14 18  1  0  0  0  0
 14 33  1  0  0  0  0
 15 20  1  6  0  0  0
 15 16  1  0  0  0  0
 15 14  1  0  0  0  0
 16 17  1  0  0  0  0
 17 18  1  0  0  0  0
 17 21  1  0  0  0  0
 18 23  1  1  0  0  0
 22 17  1  0  0  0  0
 24 29  2  0  0  0  0
 24 25  1  0  0  0  0
 25 26  2  0  0  0  0
 26 27  1  0  0  0  0
 26 15  1  0  0  0  0
 28 32  1  0  0  0  0
 28 27  2  0  0  0  0
 29 28  1  0  0  0  0
 30 24  1  0  0  0  0
 31 25  1  0  0  0  0
 33 34  1  0  0  0  0
 37 38  1  0  0  0  0
 37 36  1  0  0  0  0
 39 35  1  0  0  0  0
 39 38  2  0  0  0  0
 40 39  1  0  0  0  0
 41 40  2  0  0  0  0
 42 40  1  0  0  0  0
 42 43  1  0  0  0  0
 43 37  1  0  0  0  0
 44 43  2  0  0  0  0
 45 42  1  0  0  0  0
M  END
>  <minimizedAffinity>
-6.20949364

$$$$

 OpenBabel03242516363D

 45 48  0  0  1  0  0  0  0  0999 V2000
   36.8780   31.0270   40.3390 C   0  0  1  0  0  0  0  0  0  0  0  0
   38.1310   31.7240   41.0750 C   0  0  1  0  0  0  0  0  0  0  0  0
   38.3660   30.7610   41.9840 O   0  0  0  0  0  0  0  0  0  0  0  0
   38.6160   29.6630   41.1230 C   0  0  0  0  0  0  0  0  0  0  0  0
   37.3100   29.5890   40.3500 C   0  0  1  0  0  0  0  0  0  0  0  0
   36.7400   31.4880   39.3750 H   0  0  0  0  0  0  0  0  0  0  0  0
   37.6980   32.6980   41.2790 H   0  0  0  0  0  0  0  0  0  0  0  0
   38.8110   28.7530   41.7160 H   0  0  0  0  0  0  0  0  0  0  0  0
   39.4250   29.8370   40.4180 H   0  0  0  0  0  0  0  0  0  0  0  0
   37.5420   29.3200   39.2870 H   0  0  0  0  0  0  0  0  0  0  0  0
   35.8250   31.1610   41.2420 O   0  0  0  0  0  0  0  0  0  0  0  0
   35.6580   30.3930   41.8040 H   0  0  0  0  0  0  0  0  0  0  0  0
   39.1280   31.7010   40.1020 O   0  0  0  0  0  0  0  0  0  0  0  0
   40.2470   33.7870   40.0900 C   0  0  2  0  0  0  0  0  0  0  0  0
   41.5200   32.9550   39.7900 C   0  0  1  0  0  0  0  0  0  0  0  0
   41.4610   32.9400   38.4290 O   0  0  0  0  0  0  0  0  0  0  0  0
   40.1450   32.5190   38.1520 C   0  0  0  0  0  0  0  0  0  0  0  0
   39.2880   32.8510   39.3900 C   0  0  1  0  0  0  0  0  0  0  0  0
   40.0790   33.8930   41.1620 H   0  0  0  0  0  0  0  0  0  0  0  0
   41.3320   31.9500   40.2350 H   0  0  0  0  0  0  0  0  0  0  0  0
   39.7380   33.0630   37.2970 H   0  0  0  0  0  0  0  0  0  0  0  0
   40.1080   31.4260   37.9980 H   0  0  0  0  0  0  0  0  0  0  0  0
   38.3530   33.3650   39.1210 H   0  0  0  0  0  0  0  0  0  0  0  0
   44.9860   34.1850   40.7540 C   0  0  0  0  0  0  0  0  0  0  0  0
   44.0420   33.4230   40.0610 C   0  0  0  0  0  0  0  0  0  0  0  0
   42.7100   33.5930   40.3660 C   0  0  0  0  0  0  0  0  0  0  0  0
   42.4000   34.5140   41.3420 N   0  0  0  0  0  0  0  0  0  0  0  0
   43.3280   35.2330   41.9920 C   0  0  0  0  0  0  0  0  0  0  0  0
   44.6290   35.0640   41.6930 N   0  0  0  0  0  0  0  0  0  0  0  0
   46.0110   33.9960   40.4620 H   0  0  0  0  0  0  0  0  0  0  0  0
   44.2060   32.6970   39.2970 H   0  0  0  0  0  0  0  0  0  0  0  0
   43.0450   35.9480   42.7540 H   0  0  0  0  0  0  0  0  0  0  0  0
   40.2490   34.9510   39.3670 O   0  0  0  0  0  0  0  0  0  0  0  0
   39.9990   35.7220   39.9000 H   0  0  0  0  0  0  0  0  0  0  0  0
   36.4340   28.7810   41.0180 O   0  0  0  0  0  0  0  0  0  0  0  0
   36.8750   24.8160   39.2160 H   0  0  0  0  0  0  0  0  0  0  0  0
   36.8750   25.4280   40.0540 N   0  0  0  0  0  0  0  0  0  0  0  0
   36.6590   26.7700   40.1190 C   0  0  0  0  0  3  0  0  0  0  0  0
   36.6900   27.4780   41.3370 C   0  0  0  0  0  0  0  0  0  0  0  0
   36.9550   26.6890   42.4330 C   0  0  0  0  0  0  0  0  0  0  0  0
   36.9700   27.3690   43.4810 O   0  0  0  0  0  0  0  0  0  0  0  0
   37.1650   25.3680   42.3520 N   0  0  0  0  0  0  0  0  0  0  0  0
   37.1300   24.7230   41.1880 C   0  0  0  0  0  0  0  0  0  0  0  0
   37.3440   23.4880   41.2490 O   0  0  0  0  0  0  0  0  0  0  0  0
   37.3490   24.9600   43.2990 H   0  0  0  0  0  0  0  0  0  0  0  0
  1  6  1  6  0  0  0
  1  5  1  0  0  0  0
  1  2  1  0  0  0  0
  1 11  1  0  0  0  0
  2  7  1  1  0  0  0
  2  3  1  0  0  0  0
  4  8  1  0  0  0  0
  4  3  1  0  0  0  0
  5 10  1  6  0  0  0
  5 35  1  0  0  0  0
  5  4  1  0  0  0  0
  9  4  1  0  0  0  0
 11 12  1  0  0  0  0
 13  2  1  0  0  0  0
 14 19  1  1  0  0  0
 15 14  1  0  0  0  0
 15 20  1  1  0  0  0
 15 26  1  0  0  0  0
 16 15  1  0  0  0  0
 17 16  1  0  0  0  0
 17 18  1  0  0  0  0
 18 23  1  6  0  0  0
 18 14  1  0  0  0  0
 18 13  1  0  0  0  0
 21 17  1  0  0  0  0
 22 17  1  0  0  0  0
 24 29  1  0  0  0  0
 25 26  1  0  0  0  0
 25 24  2  0  0  0  0
 26 27  2  0  0  0  0
 27 28  1  0  0  0  0
 28 32  1  0  0  0  0
 29 28  2  0  0  0  0
 30 24  1  0  0  0  0
 31 25  1  0  0  0  0
 33 34  1  0  0  0  0
 33 14  1  0  0  0  0
 35 39  1  0  0  0  0
 36 37  1  0  0  0  0
 37 38  1  0  0  0  0
 37 43  1  0  0  0  0
 38 39  2  0  0  0  0
 39 40  1  0  0  0  0
 40 41  2  0  0  0  0
 42 40  1  0  0  0  0
 42 45  1  0  0  0  0
 43 44  2  0  0  0  0
 43 42  1  0  0  0  0
M  END
>  <minimizedAffinity>
-6.17300463

$$$$
