REMARK  Name = 
REMARK  4 active torsions:
REMARK  status: ('A' for Active; 'I' for Inactive)
REMARK    1  A    between atoms: C_1  and  C_10
REMARK    2  A    between atoms: C_2  and  C_7
REMARK    3  A    between atoms: C_10  and  C_14
REMARK    4  A    between atoms: C_18  and  N_29
REMARK                            x       y       z     vdW  Elec       q    Type
REMARK                         _______ _______ _______ _____ _____    ______ ____
ROOT
ATOM      1 CL   UNL     1      44.678  31.665  42.928  0.00  0.00    +0.000 Cl
ATOM      2  C   UNL     1      44.650  33.423  42.767  0.00  0.00    +0.000 A 
ATOM      3  C   UNL     1      45.523  34.125  43.623  0.00  0.00    +0.000 A 
ATOM      4  C   UNL     1      45.418  35.489  43.402  0.00  0.00    +0.000 A 
ATOM      5  C   UNL     1      44.652  36.169  42.540  0.00  0.00    +0.000 A 
ATOM      6  C   UNL     1      43.837  35.413  41.748  0.00  0.00    +0.000 A 
ATOM      7  C   UNL     1      43.815  34.063  41.839  0.00  0.00    +0.000 A 
ATOM      8  H   UNL     1      46.015  36.192  44.021  0.00  0.00    +0.000 HD
ATOM      9  H   UNL     1      44.614  37.237  42.410  0.00  0.00    +0.000 HD
ATOM     10  H   UNL     1      43.149  35.780  40.995  0.00  0.00    +0.000 HD
ENDROOT
BRANCH   7  11
ATOM     11  N   UNL     1      43.002  33.154  41.065  0.00  0.00    +0.000 N 
ATOM     12  C   UNL     1      42.832  31.833  41.257  0.00  0.00    +0.000 A 
ATOM     13  C   UNL     1      42.002  31.151  40.390  0.00  0.00    +0.000 A 
ATOM     14  H   UNL     1      41.893  30.091  40.580  0.00  0.00    +0.000 HD
ATOM     15  C   UNL     1      41.360  31.796  39.353  0.00  0.00    +0.000 A 
ATOM     16  O   UNL     1      40.608  31.154  38.575  0.00  0.00    +0.000 OA
ATOM     17  N   UNL     1      41.550  33.118  39.187  0.00  0.00    +0.000 N 
ATOM     18  C   UNL     1      42.372  33.777  40.050  0.00  0.00    +0.000 A 
ATOM     19  O   UNL     1      42.464  35.022  39.780  0.00  0.00    +0.000 OA
ATOM     20  H   UNL     1      41.055  33.586  38.395  0.00  0.00    +0.000 HD
ENDBRANCH   7  11
BRANCH   3  21
ATOM     21  C   UNL     1      46.451  33.533  44.623  0.00  0.00    +0.000 C 
ATOM     22  O   UNL     1      45.878  33.897  45.619  0.00  0.00    +0.000 OA
BRANCH  21  23
ATOM     23  C   UNL     1      47.532  32.844  43.907  0.00  0.00    +0.000 A 
ATOM     24  C   UNL     1      48.371  33.390  43.016  0.00  0.00    +0.000 A 
ATOM     25  C   UNL     1      49.237  32.494  42.416  0.00  0.00    +0.000 A 
ATOM     26  N   UNL     1      49.170  31.135  42.779  0.00  0.00    +0.000 NA
ATOM     27  C   UNL     1      48.313  30.679  43.670  0.00  0.00    +0.000 A 
ATOM     28  N   UNL     1      47.434  31.541  44.288  0.00  0.00    +0.000 NA
ATOM     29  H   UNL     1      49.974  32.768  41.675  0.00  0.00    +0.000 HD
ATOM     30  H   UNL     1      48.375  29.611  43.853  0.00  0.00    +0.000 HD
BRANCH  24  31
ATOM     31  C   UNL     1      48.523  34.772  42.734  0.00  0.00    +0.000 C 
ATOM     32  C   UNL     1      49.526  35.398  42.060  0.00  0.00    +0.000 C 
ATOM     33  C   UNL     1      48.281  35.226  41.233  0.00  0.00    +0.000 C 
ATOM     34  H   UNL     1      48.062  35.431  43.494  0.00  0.00    +0.000 HD
ATOM     35  H   UNL     1      50.395  34.797  41.656  0.00  0.00    +0.000 HD
ATOM     36  H   UNL     1      49.842  36.465  42.098  0.00  0.00    +0.000 HD
ATOM     37  H   UNL     1      47.553  36.057  41.123  0.00  0.00    +0.000 HD
ATOM     38  H   UNL     1      48.212  34.381  40.538  0.00  0.00    +0.000 HD
ENDBRANCH  24  31
ENDBRANCH  21  23
ENDBRANCH   3  21
TORSDOF 4
