
 OpenBabel03252509003D

 46 48  0  0  1  0  0  0  0  0999 V2000
   47.1510   34.0670   43.1050 N   0  0  0  0  0  0  0  0  0  0  0  0
   46.7740   35.3640   42.6480 C   0  0  0  0  0  0  0  0  0  0  0  0
   45.3250   35.7230   42.8490 C   0  0  0  0  0  0  0  0  0  0  0  0
   44.6860   35.1060   44.0580 C   0  0  0  0  0  0  0  0  0  0  0  0
   45.6970   34.3570   44.8960 C   0  0  0  0  0  0  0  0  0  0  0  0
   46.2870   33.3120   43.8780 C   0  0  2  0  0  0  0  0  0  0  0  0
   47.3700   36.0850   43.2710 H   0  0  0  0  0  0  0  0  0  0  0  0
   47.0370   35.6020   41.6170 H   0  0  0  0  0  0  0  0  0  0  0  0
   44.7360   35.5260   41.9240 H   0  0  0  0  0  0  0  0  0  0  0  0
   45.2530   36.8270   43.0010 H   0  0  0  0  0  0  0  0  0  0  0  0
   43.9560   34.3470   43.6860 H   0  0  0  0  0  0  0  0  0  0  0  0
   44.0720   35.8230   44.6530 H   0  0  0  0  0  0  0  0  0  0  0  0
   46.4950   35.0350   45.2120 H   0  0  0  0  0  0  0  0  0  0  0  0
   45.1910   33.8270   45.7110 H   0  0  0  0  0  0  0  0  0  0  0  0
   45.4350   32.8340   43.3720 H   0  0  0  0  0  0  0  0  0  0  0  0
   48.0880   33.3930   42.2560 C   0  0  0  0  0  0  0  0  0  0  0  0
   48.7870   34.1310   41.8410 H   0  0  0  0  0  0  0  0  0  0  0  0
   48.6520   32.6600   42.8730 H   0  0  0  0  0  0  0  0  0  0  0  0
   47.3330   32.6430   41.2030 C   0  0  0  0  0  0  0  0  0  0  0  0
   47.3340   31.5590   41.3790 H   0  0  0  0  0  0  0  0  0  0  0  0
   46.2700   32.9570   41.1760 H   0  0  0  0  0  0  0  0  0  0  0  0
   49.3120   32.2770   38.0250 C   0  0  0  0  0  0  0  0  0  0  0  0
   48.7490   31.9960   39.2900 C   0  0  0  0  0  0  0  0  0  0  0  0
   47.9260   32.9350   39.8720 C   0  0  0  0  0  0  0  0  0  0  0  0
   47.6960   34.0840   39.2040 N   0  0  0  0  0  0  0  0  0  0  0  0
   48.2480   34.3240   37.9970 C   0  0  0  0  0  0  0  0  0  0  0  0
   49.0530   33.4380   37.3990 N   0  0  0  0  0  0  0  0  0  0  0  0
   49.9450   31.5030   37.6240 H   0  0  0  0  0  0  0  0  0  0  0  0
   48.9360   31.0670   39.8280 H   0  0  0  0  0  0  0  0  0  0  0  0
   48.0680   35.2440   37.4550 H   0  0  0  0  0  0  0  0  0  0  0  0
   46.9870   32.4630   44.7370 O   0  0  0  0  0  0  0  0  0  0  0  0
   45.1630   30.7310   43.8690 O   0  0  0  0  0  0  0  0  0  0  0  0
   46.1970   30.9870   44.9630 P   0  0  2  0  0  0  0  0  0  0  0  0
   45.3120   31.1500   46.4190 O   0  0  0  0  0  0  0  0  0  0  0  0
   45.9020   31.4920   47.1310 H   0  0  0  0  0  0  0  0  0  0  0  0
   47.2700   29.7330   45.1560 O   0  0  0  0  0  0  0  0  0  0  0  0
   47.7140   27.6590   49.0200 H   0  0  0  0  0  0  0  0  0  0  0  0
   47.3200   27.6540   48.0450 N   0  0  0  0  0  0  0  0  0  0  0  0
   47.5070   28.6730   47.1570 C   0  0  0  0  0  3  0  0  0  0  0  0
   46.9510   28.5940   45.8760 C   0  0  0  0  0  0  0  0  0  0  0  0
   46.2250   27.4700   45.5610 C   0  0  0  0  0  0  0  0  0  0  0  0
   45.7800   27.5180   44.3870 O   0  0  0  0  0  0  0  0  0  0  0  0
   46.0740   26.5040   46.4700 N   0  0  0  0  0  0  0  0  0  0  0  0
   46.6050   26.5740   47.6970 C   0  0  0  0  0  0  0  0  0  0  0  0
   46.3610   25.5780   48.4150 O   0  0  0  0  0  0  0  0  0  0  0  0
   45.4990   25.6890   46.1180 H   0  0  0  0  0  0  0  0  0  0  0  0
  1  6  1  0  0  0  0
  2  3  1  0  0  0  0
  2  1  1  0  0  0  0
  2  7  1  0  0  0  0
  3 10  1  0  0  0  0
  3  4  1  0  0  0  0
  4 12  1  0  0  0  0
  4  5  1  0  0  0  0
  5 13  1  0  0  0  0
  5 14  1  0  0  0  0
  6 15  1  6  0  0  0
  6 31  1  0  0  0  0
  6  5  1  0  0  0  0
  8  2  1  0  0  0  0
  9  3  1  0  0  0  0
 11  4  1  0  0  0  0
 16 18  1  0  0  0  0
 16  1  1  0  0  0  0
 17 16  1  0  0  0  0
 19 20  1  0  0  0  0
 19 16  1  0  0  0  0
 21 19  1  0  0  0  0
 22 23  1  0  0  0  0
 23 29  1  0  0  0  0
 23 24  2  0  0  0  0
 24 19  1  0  0  0  0
 25 24  1  0  0  0  0
 26 25  2  0  0  0  0
 27 26  1  0  0  0  0
 27 22  2  0  0  0  0
 28 22  1  0  0  0  0
 30 26  1  0  0  0  0
 31 33  1  0  0  0  0
 33 32  2  6  0  0  0
 33 36  1  0  0  0  0
 33 34  1  0  0  0  0
 34 35  1  0  0  0  0
 36 40  1  0  0  0  0
 38 37  1  0  0  0  0
 39 38  1  0  0  0  0
 40 39  2  0  0  0  0
 41 40  1  0  0  0  0
 41 43  1  0  0  0  0
 42 41  2  0  0  0  0
 43 44  1  0  0  0  0
 44 38  1  0  0  0  0
 44 45  2  0  0  0  0
 46 43  1  0  0  0  0
M  END
>  <minimizedAffinity>
-4.27608204

>  <minimizedRMSD>
0.545770168

$$$$
