
 OpenBabel03252509323D

 28 29  0  0  0  0  0  0  0  0999 V2000
   50.0480   33.0650   41.6910 O   0  0  0  0  0  0  0  0  0  0  0  0
   49.1630   34.0920   42.3240 P   0  0  2  0  0  0  0  0  0  0  0  0
   50.0230   35.3520   43.0370 O   0  0  0  0  0  0  0  0  0  0  0  0
   50.3800   35.1090   43.9280 H   0  0  0  0  0  0  0  0  0  0  0  0
   48.2210   33.3760   43.5340 O   0  0  0  0  0  0  0  0  0  0  0  0
   46.8880   33.6500   43.2380 C   0  0  0  0  0  0  0  0  0  0  0  0
   46.4000   32.7710   42.7260 H   0  0  0  0  0  0  0  0  0  0  0  0
   46.7540   34.5160   42.5580 H   0  0  0  0  0  0  0  0  0  0  0  0
   45.5210   33.3520   46.7000 C   0  0  0  0  0  0  0  0  0  0  0  0
   46.2750   33.0680   45.5420 C   0  0  0  0  0  0  0  0  0  0  0  0
   46.1170   33.9160   44.4630 C   0  0  0  0  0  0  0  0  0  0  0  0
   45.2500   34.9760   44.5690 N   0  0  0  0  0  0  0  0  0  0  0  0
   44.5450   35.2160   45.6950 C   0  0  0  0  0  0  0  0  0  0  0  0
   44.6840   34.4060   46.7510 N   0  0  0  0  0  0  0  0  0  0  0  0
   45.6220   32.7150   47.5510 H   0  0  0  0  0  0  0  0  0  0  0  0
   46.9530   32.2360   45.4670 H   0  0  0  0  0  0  0  0  0  0  0  0
   43.8930   36.0780   45.6630 H   0  0  0  0  0  0  0  0  0  0  0  0
   48.1070   34.6950   41.1460 O   0  0  0  0  0  0  0  0  0  0  0  0
   49.5120   35.4250   37.0320 H   0  0  0  0  0  0  0  0  0  0  0  0
   48.9330   34.7980   37.6500 N   0  0  0  0  0  0  0  0  0  0  0  0
   48.9140   35.1620   38.9390 C   0  0  0  0  0  3  0  0  0  0  0  0
   48.1650   34.3750   39.8150 C   0  0  0  0  0  0  0  0  0  0  0  0
   47.4910   33.2730   39.3040 C   0  0  0  0  0  0  0  0  0  0  0  0
   46.8060   32.5420   40.0670 O   0  0  0  0  0  0  0  0  0  0  0  0
   47.5830   33.0040   37.9840 N   0  0  0  0  0  0  0  0  0  0  0  0
   48.3100   33.7610   37.1130 C   0  0  0  0  0  0  0  0  0  0  0  0
   48.3530   33.4530   35.8940 O   0  0  0  0  0  0  0  0  0  0  0  0
   47.0460   32.1490   37.6510 H   0  0  0  0  0  0  0  0  0  0  0  0
  2  1  2  6  0  0  0
  2  3  1  0  0  0  0
  2  5  1  0  0  0  0
  3  4  1  0  0  0  0
  6  5  1  0  0  0  0
  6 11  1  0  0  0  0
  7  6  1  0  0  0  0
  8  6  1  0  0  0  0
  9 14  1  0  0  0  0
  9 15  1  0  0  0  0
 10  9  2  0  0  0  0
 11 12  2  0  0  0  0
 11 10  1  0  0  0  0
 12 13  1  0  0  0  0
 13 14  2  0  0  0  0
 16 10  1  0  0  0  0
 17 13  1  0  0  0  0
 18  2  1  0  0  0  0
 19 20  1  0  0  0  0
 20 21  1  0  0  0  0
 21 22  2  0  0  0  0
 22 18  1  0  0  0  0
 23 22  1  0  0  0  0
 23 24  2  0  0  0  0
 25 23  1  0  0  0  0
 26 20  1  0  0  0  0
 26 25  1  0  0  0  0
 27 26  2  0  0  0  0
 28 25  1  0  0  0  0
M  END
>  <minimizedAffinity>
-4.72186852

>  <minimizedRMSD>
1.20118427

$$$$
