
 OpenBabel03252504273D

 23 24  0  0  0  0  0  0  0  0999 V2000
   44.1950   35.8230   42.4200 C   0  0  0  0  0  0  0  0  0  0  0  0
   44.4990   36.3160   41.4710 H   0  0  0  0  0  0  0  0  0  0  0  0
   43.9430   36.6780   43.1050 H   0  0  0  0  0  0  0  0  0  0  0  0
   45.1680   34.3240   44.0360 C   0  0  0  0  0  0  0  0  0  0  0  0
   45.3630   35.0830   42.9020 C   0  0  0  0  0  0  0  0  0  0  0  0
   46.6240   35.0700   42.3400 C   0  0  0  0  0  0  0  0  0  0  0  0
   47.5790   34.3200   42.9340 N   0  0  0  0  0  0  0  0  0  0  0  0
   47.3640   33.5890   44.0380 C   0  0  0  0  0  0  0  0  0  0  0  0
   46.1260   33.5630   44.6410 N   0  0  0  0  0  0  0  0  0  0  0  0
   44.2020   34.2620   44.5620 H   0  0  0  0  0  0  0  0  0  0  0  0
   46.7610   35.6690   41.4550 H   0  0  0  0  0  0  0  0  0  0  0  0
   48.2920   33.0860   44.3050 H   0  0  0  0  0  0  0  0  0  0  0  0
   43.0940   35.0280   42.1390 O   0  0  0  0  0  0  0  0  0  0  0  0
   39.6300   36.4140   39.5990 H   0  0  0  0  0  0  0  0  0  0  0  0
   40.5430   35.9060   39.7270 N   0  0  0  0  0  0  0  0  0  0  0  0
   41.1670   35.8440   40.9000 C   0  0  0  0  0  3  0  0  0  0  0  0
   42.3620   35.1540   40.9690 C   0  0  0  0  0  0  0  0  0  0  0  0
   42.8360   34.5690   39.8030 C   0  0  0  0  0  0  0  0  0  0  0  0
   43.9290   33.9390   39.8670 O   0  0  0  0  0  0  0  0  0  0  0  0
   42.1800   34.6490   38.6240 N   0  0  0  0  0  0  0  0  0  0  0  0
   41.0060   35.3370   38.5980 C   0  0  0  0  0  0  0  0  0  0  0  0
   40.4460   35.3740   37.4710 O   0  0  0  0  0  0  0  0  0  0  0  0
   42.5660   34.1940   37.7570 H   0  0  0  0  0  0  0  0  0  0  0  0
  1  5  1  0  0  0  0
  1  3  1  0  0  0  0
  2  1  1  0  0  0  0
  4 10  1  0  0  0  0
  4  9  1  0  0  0  0
  5  4  2  0  0  0  0
  6  5  1  0  0  0  0
  6  7  2  0  0  0  0
  7  8  1  0  0  0  0
  8 12  1  0  0  0  0
  8  9  2  0  0  0  0
 11  6  1  0  0  0  0
 13  1  1  0  0  0  0
 14 15  1  0  0  0  0
 15 16  1  0  0  0  0
 16 17  2  0  0  0  0
 17 13  1  0  0  0  0
 18 19  2  0  0  0  0
 18 17  1  0  0  0  0
 20 18  1  0  0  0  0
 21 20  1  0  0  0  0
 21 15  1  0  0  0  0
 22 21  2  0  0  0  0
 23 20  1  0  0  0  0
M  END
>  <minimizedAffinity>
-4.24036312

>  <minimizedRMSD>
2.07181334

$$$$
