
 OpenBabel03242515293D

 33 35  0  0  0  0  0  0  0  0999 V2000
   37.3400   29.3740   42.3290 C   0  0  0  0  0  0  0  0  0  0  0  0
   38.4190   28.4750   42.3870 C   0  0  0  0  0  0  0  0  0  0  0  0
   39.4440   28.6870   41.4930 C   0  0  0  0  0  0  0  0  0  0  0  0
   39.3820   29.7140   40.6190 N   0  0  0  0  0  0  0  0  0  0  0  0
   38.3060   30.5470   40.6160 C   0  0  0  0  0  0  0  0  0  0  0  0
   37.2640   30.4000   41.4650 N   0  0  0  0  0  0  0  0  0  0  0  0
   36.5050   29.2560   43.0090 H   0  0  0  0  0  0  0  0  0  0  0  0
   40.2770   27.9960   41.5350 H   0  0  0  0  0  0  0  0  0  0  0  0
   38.3410   27.4040   43.3870 C   0  0  0  0  0  0  0  0  0  0  0  0
   39.1680   27.4520   44.0870 H   0  0  0  0  0  0  0  0  0  0  0  0
   37.4220   27.6180   44.0100 H   0  0  0  0  0  0  0  0  0  0  0  0
   38.1720   26.1460   42.6960 N   0  0  0  0  0  0  0  0  0  0  0  0
   37.0810   25.9170   41.9670 C   0  0  0  0  0  0  0  0  0  0  0  0
   36.9810   24.6930   41.3320 C   0  0  0  0  0  0  0  0  0  0  0  0
   37.9560   23.7360   41.4330 C   0  0  0  0  0  0  0  0  0  0  0  0
   37.8150   22.6500   40.8400 O   0  0  0  0  0  0  0  0  0  0  0  0
   39.0520   23.9920   42.1770 N   0  0  0  0  0  0  0  0  0  0  0  0
   39.1630   25.1930   42.8080 C   0  0  0  0  0  0  0  0  0  0  0  0
   40.2070   25.3740   43.4870 O   0  0  0  0  0  0  0  0  0  0  0  0
   36.3250   26.6910   41.9030 H   0  0  0  0  0  0  0  0  0  0  0  0
   36.0610   24.5570   40.7450 H   0  0  0  0  0  0  0  0  0  0  0  0
   39.7930   23.2670   42.2560 H   0  0  0  0  0  0  0  0  0  0  0  0
   38.2170   31.6130   39.7230 O   0  0  0  0  0  0  0  0  0  0  0  0
   40.6760   32.0810   36.0540 H   0  0  0  0  0  0  0  0  0  0  0  0
   40.4990   32.3230   37.0530 N   0  0  0  0  0  0  0  0  0  0  0  0
   39.4540   31.7870   37.7140 C   0  0  0  0  0  3  0  0  0  0  0  0
   39.2890   32.1630   39.0510 C   0  0  0  0  0  0  0  0  0  0  0  0
   40.2000   33.0500   39.5960 C   0  0  0  0  0  0  0  0  0  0  0  0
   40.0290   33.3780   40.8160 O   0  0  0  0  0  0  0  0  0  0  0  0
   41.2280   33.5570   38.8950 N   0  0  0  0  0  0  0  0  0  0  0  0
   41.3670   33.1820   37.6130 C   0  0  0  0  0  0  0  0  0  0  0  0
   42.3440   33.6860   37.0060 O   0  0  0  0  0  0  0  0  0  0  0  0
   41.8920   34.2230   39.3470 H   0  0  0  0  0  0  0  0  0  0  0  0
  1  2  1  0  0  0  0
  1  7  1  0  0  0  0
  2  9  1  0  0  0  0
  3  8  1  0  0  0  0
  3  2  2  0  0  0  0
  4  3  1  0  0  0  0
  5  4  2  0  0  0  0
  5  6  1  0  0  0  0
  6  1  2  0  0  0  0
  9 11  1  0  0  0  0
  9 10  1  0  0  0  0
 12 18  1  0  0  0  0
 12  9  1  0  0  0  0
 13 12  1  0  0  0  0
 14 15  1  0  0  0  0
 14 13  2  0  0  0  0
 15 17  1  0  0  0  0
 16 15  2  0  0  0  0
 17 22  1  0  0  0  0
 17 18  1  0  0  0  0
 18 19  2  0  0  0  0
 20 13  1  0  0  0  0
 21 14  1  0  0  0  0
 23  5  1  0  0  0  0
 24 25  1  0  0  0  0
 25 31  1  0  0  0  0
 25 26  1  0  0  0  0
 26 27  2  0  0  0  0
 27 28  1  0  0  0  0
 27 23  1  0  0  0  0
 28 29  2  0  0  0  0
 30 33  1  0  0  0  0
 30 28  1  0  0  0  0
 31 30  1  0  0  0  0
 32 31  2  0  0  0  0
M  END
>  <minimizedAffinity>
-5.96180582

$$$$

 OpenBabel03242515293D

 33 35  0  0  0  0  0  0  0  0999 V2000
   37.4670   29.5870   42.3210 C   0  0  0  0  0  0  0  0  0  0  0  0
   36.6530   28.4830   42.0150 C   0  0  0  0  0  0  0  0  0  0  0  0
   36.0040   28.5160   40.8010 C   0  0  0  0  0  0  0  0  0  0  0  0
   36.1640   29.5710   39.9740 N   0  0  0  0  0  0  0  0  0  0  0  0
   36.9670   30.6080   40.3330 C   0  0  0  0  0  0  0  0  0  0  0  0
   37.6360   30.6430   41.5080 N   0  0  0  0  0  0  0  0  0  0  0  0
   38.0020   29.6160   43.2620 H   0  0  0  0  0  0  0  0  0  0  0  0
   35.3770   27.6660   40.5610 H   0  0  0  0  0  0  0  0  0  0  0  0
   36.5740   27.4150   43.0170 C   0  0  0  0  0  0  0  0  0  0  0  0
   36.2040   27.7860   43.9670 H   0  0  0  0  0  0  0  0  0  0  0  0
   35.7770   26.6990   42.6560 H   0  0  0  0  0  0  0  0  0  0  0  0
   37.8480   26.7340   43.0590 N   0  0  0  0  0  0  0  0  0  0  0  0
   38.8170   27.1650   43.8670 C   0  0  0  0  0  0  0  0  0  0  0  0
   40.0120   26.4700   43.8590 C   0  0  0  0  0  0  0  0  0  0  0  0
   40.2160   25.3750   43.0600 C   0  0  0  0  0  0  0  0  0  0  0  0
   41.3130   24.7860   43.0930 O   0  0  0  0  0  0  0  0  0  0  0  0
   39.2190   24.9590   42.2520 N   0  0  0  0  0  0  0  0  0  0  0  0
   38.0380   25.6340   42.2490 C   0  0  0  0  0  0  0  0  0  0  0  0
   37.1460   25.1990   41.4750 O   0  0  0  0  0  0  0  0  0  0  0  0
   38.6300   28.0330   44.4890 H   0  0  0  0  0  0  0  0  0  0  0  0
   40.7760   26.8680   44.5430 H   0  0  0  0  0  0  0  0  0  0  0  0
   39.3720   24.1290   41.6440 H   0  0  0  0  0  0  0  0  0  0  0  0
   37.1470   31.7090   39.4980 O   0  0  0  0  0  0  0  0  0  0  0  0
   40.2040   31.2010   36.3160 H   0  0  0  0  0  0  0  0  0  0  0  0
   39.8770   31.6910   37.1770 N   0  0  0  0  0  0  0  0  0  0  0  0
   38.7090   31.3520   37.7570 C   0  0  0  0  0  3  0  0  0  0  0  0
   38.3440   32.0580   38.9080 C   0  0  0  0  0  0  0  0  0  0  0  0
   39.1990   33.0430   39.3670 C   0  0  0  0  0  0  0  0  0  0  0  0
   38.8460   33.6720   40.4180 O   0  0  0  0  0  0  0  0  0  0  0  0
   40.3570   33.3440   38.7540 N   0  0  0  0  0  0  0  0  0  0  0  0
   40.6860   32.6540   37.6490 C   0  0  0  0  0  0  0  0  0  0  0  0
   41.7770   32.9760   37.1170 O   0  0  0  0  0  0  0  0  0  0  0  0
   40.9720   34.0950   39.1350 H   0  0  0  0  0  0  0  0  0  0  0  0
  1  7  1  0  0  0  0
  2  1  1  0  0  0  0
  2  9  1  0  0  0  0
  3  2  2  0  0  0  0
  4  5  2  0  0  0  0
  4  3  1  0  0  0  0
  5  6  1  0  0  0  0
  6  1  2  0  0  0  0
  8  3  1  0  0  0  0
  9 12  1  0  0  0  0
  9 10  1  0  0  0  0
 11  9  1  0  0  0  0
 12 13  1  0  0  0  0
 13 20  1  0  0  0  0
 14 13  2  0  0  0  0
 14 21  1  0  0  0  0
 15 16  2  0  0  0  0
 15 14  1  0  0  0  0
 17 15  1  0  0  0  0
 18 17  1  0  0  0  0
 18 12  1  0  0  0  0
 19 18  2  0  0  0  0
 22 17  1  0  0  0  0
 23  5  1  0  0  0  0
 24 25  1  0  0  0  0
 25 31  1  0  0  0  0
 25 26  1  0  0  0  0
 26 27  2  0  0  0  0
 27 28  1  0  0  0  0
 27 23  1  0  0  0  0
 28 29  2  0  0  0  0
 30 33  1  0  0  0  0
 30 28  1  0  0  0  0
 31 30  1  0  0  0  0
 32 31  2  0  0  0  0
M  END
>  <minimizedAffinity>
-5.95297146

$$$$

 OpenBabel03242515293D

 33 35  0  0  0  0  0  0  0  0999 V2000
   36.9100   31.3070   40.7340 C   0  0  0  0  0  0  0  0  0  0  0  0
   38.1640   31.9410   40.7000 C   0  0  0  0  0  0  0  0  0  0  0  0
   39.1450   31.4080   41.5050 C   0  0  0  0  0  0  0  0  0  0  0  0
   38.8800   30.3310   42.2750 N   0  0  0  0  0  0  0  0  0  0  0  0
   37.6430   29.7660   42.2610 C   0  0  0  0  0  0  0  0  0  0  0  0
   36.6320   30.2350   41.4950 N   0  0  0  0  0  0  0  0  0  0  0  0
   36.1000   31.6830   40.1210 H   0  0  0  0  0  0  0  0  0  0  0  0
   40.1120   31.8940   41.4810 H   0  0  0  0  0  0  0  0  0  0  0  0
   38.2980   33.1050   39.8170 C   0  0  0  0  0  0  0  0  0  0  0  0
   37.3830   33.2930   39.2640 H   0  0  0  0  0  0  0  0  0  0  0  0
   38.4170   34.0040   40.4920 H   0  0  0  0  0  0  0  0  0  0  0  0
   39.4920   32.9390   39.0210 N   0  0  0  0  0  0  0  0  0  0  0  0
   40.6420   33.4930   39.4050 C   0  0  0  0  0  0  0  0  0  0  0  0
   41.7480   33.2960   38.5980 C   0  0  0  0  0  0  0  0  0  0  0  0
   41.6890   32.5610   37.4440 C   0  0  0  0  0  0  0  0  0  0  0  0
   42.7160   32.4150   36.7550 O   0  0  0  0  0  0  0  0  0  0  0  0
   40.5130   32.0090   37.0780 N   0  0  0  0  0  0  0  0  0  0  0  0
   39.4160   32.1960   37.8610 C   0  0  0  0  0  0  0  0  0  0  0  0
   38.3490   31.6580   37.4680 O   0  0  0  0  0  0  0  0  0  0  0  0
   40.6620   34.0690   40.3230 H   0  0  0  0  0  0  0  0  0  0  0  0
   42.6690   33.7760   38.9630 H   0  0  0  0  0  0  0  0  0  0  0  0
   40.4660   31.4520   36.2010 H   0  0  0  0  0  0  0  0  0  0  0  0
   37.3440   28.6560   43.0480 O   0  0  0  0  0  0  0  0  0  0  0  0
   40.4960   25.8520   44.4370 H   0  0  0  0  0  0  0  0  0  0  0  0
   39.6980   26.0610   43.7980 N   0  0  0  0  0  0  0  0  0  0  0  0
   39.0570   27.2440   43.8660 C   0  0  0  0  0  3  0  0  0  0  0  0
   37.9980   27.4430   42.9750 C   0  0  0  0  0  0  0  0  0  0  0  0
   37.6870   26.4240   42.0940 C   0  0  0  0  0  0  0  0  0  0  0  0
   36.7180   26.6290   41.2900 O   0  0  0  0  0  0  0  0  0  0  0  0
   38.3580   25.2600   42.0640 N   0  0  0  0  0  0  0  0  0  0  0  0
   39.3710   25.0900   42.9290 C   0  0  0  0  0  0  0  0  0  0  0  0
   39.9620   23.9850   42.8580 O   0  0  0  0  0  0  0  0  0  0  0  0
   38.0890   24.5180   41.3810 H   0  0  0  0  0  0  0  0  0  0  0  0
  1  6  1  0  0  0  0
  2  1  2  0  0  0  0
  2  3  1  0  0  0  0
  3  4  2  0  0  0  0
  5  4  1  0  0  0  0
  5 23  1  0  0  0  0
  6  5  2  0  0  0  0
  7  1  1  0  0  0  0
  8  3  1  0  0  0  0
  9 11  1  0  0  0  0
  9  2  1  0  0  0  0
 10  9  1  0  0  0  0
 12 13  1  0  0  0  0
 12  9  1  0  0  0  0
 13 20  1  0  0  0  0
 14 21  1  0  0  0  0
 14 13  2  0  0  0  0
 15 14  1  0  0  0  0
 16 15  2  0  0  0  0
 17 15  1  0  0  0  0
 17 18  1  0  0  0  0
 18 12  1  0  0  0  0
 19 18  2  0  0  0  0
 22 17  1  0  0  0  0
 25 26  1  0  0  0  0
 25 24  1  0  0  0  0
 27 23  1  0  0  0  0
 27 26  2  0  0  0  0
 28 27  1  0  0  0  0
 29 28  2  0  0  0  0
 30 28  1  0  0  0  0
 30 31  1  0  0  0  0
 31 25  1  0  0  0  0
 32 31  2  0  0  0  0
 33 30  1  0  0  0  0
M  END
>  <minimizedAffinity>
-5.68459082

$$$$

 OpenBabel03242515293D

 33 35  0  0  0  0  0  0  0  0999 V2000
   37.6900   29.3930   39.7980 C   0  0  0  0  0  0  0  0  0  0  0  0
   36.6650   29.5320   40.7500 C   0  0  0  0  0  0  0  0  0  0  0  0
   36.3170   30.8190   41.0940 C   0  0  0  0  0  0  0  0  0  0  0  0
   36.9500   31.8680   40.5270 N   0  0  0  0  0  0  0  0  0  0  0  0
   37.9340   31.6620   39.6120 C   0  0  0  0  0  0  0  0  0  0  0  0
   38.3280   30.4270   39.2260 N   0  0  0  0  0  0  0  0  0  0  0  0
   38.0050   28.4040   39.4890 H   0  0  0  0  0  0  0  0  0  0  0  0
   35.5280   30.9300   41.8270 H   0  0  0  0  0  0  0  0  0  0  0  0
   36.0760   28.2980   41.2810 C   0  0  0  0  0  0  0  0  0  0  0  0
   35.1790   28.5000   41.8570 H   0  0  0  0  0  0  0  0  0  0  0  0
   35.7180   27.7070   40.3870 H   0  0  0  0  0  0  0  0  0  0  0  0
   37.1110   27.5560   41.9650 N   0  0  0  0  0  0  0  0  0  0  0  0
   37.7080   28.0660   43.0420 C   0  0  0  0  0  0  0  0  0  0  0  0
   38.6900   27.3060   43.6480 C   0  0  0  0  0  0  0  0  0  0  0  0
   39.0520   26.0700   43.1800 C   0  0  0  0  0  0  0  0  0  0  0  0
   39.9440   25.4280   43.7660 O   0  0  0  0  0  0  0  0  0  0  0  0
   38.4320   25.5750   42.0890 N   0  0  0  0  0  0  0  0  0  0  0  0
   37.4640   26.3140   41.4810 C   0  0  0  0  0  0  0  0  0  0  0  0
   36.9220   25.8000   40.4680 O   0  0  0  0  0  0  0  0  0  0  0  0
   37.4030   29.0460   43.3920 H   0  0  0  0  0  0  0  0  0  0  0  0
   39.1500   27.7750   44.5320 H   0  0  0  0  0  0  0  0  0  0  0  0
   38.7050   24.6390   41.7310 H   0  0  0  0  0  0  0  0  0  0  0  0
   38.6040   32.7280   39.0150 O   0  0  0  0  0  0  0  0  0  0  0  0
   41.5400   34.4800   41.8490 H   0  0  0  0  0  0  0  0  0  0  0  0
   41.3310   34.0620   40.9170 N   0  0  0  0  0  0  0  0  0  0  0  0
   40.0800   33.6740   40.6020 C   0  0  0  0  0  3  0  0  0  0  0  0
   39.8860   33.1250   39.3320 C   0  0  0  0  0  0  0  0  0  0  0  0
   40.9810   33.0190   38.4930 C   0  0  0  0  0  0  0  0  0  0  0  0
   40.7810   32.5150   37.3400 O   0  0  0  0  0  0  0  0  0  0  0  0
   42.2120   33.4220   38.8520 N   0  0  0  0  0  0  0  0  0  0  0  0
   42.3750   33.9470   40.0780 C   0  0  0  0  0  0  0  0  0  0  0  0
   43.5440   34.3050   40.3610 O   0  0  0  0  0  0  0  0  0  0  0  0
   43.0100   33.3230   38.1880 H   0  0  0  0  0  0  0  0  0  0  0  0
  1  2  1  0  0  0  0
  2  3  2  0  0  0  0
  2  9  1  0  0  0  0
  3  8  1  0  0  0  0
  4  3  1  0  0  0  0
  5  4  2  0  0  0  0
  6  5  1  0  0  0  0
  6  1  2  0  0  0  0
  7  1  1  0  0  0  0
  9 10  1  0  0  0  0
  9 12  1  0  0  0  0
 11  9  1  0  0  0  0
 12 13  1  0  0  0  0
 13 20  1  0  0  0  0
 13 14  2  0  0  0  0
 14 21  1  0  0  0  0
 15 14  1  0  0  0  0
 15 16  2  0  0  0  0
 17 15  1  0  0  0  0
 18 12  1  0  0  0  0
 18 17  1  0  0  0  0
 19 18  2  0  0  0  0
 22 17  1  0  0  0  0
 23 27  1  0  0  0  0
 23  5  1  0  0  0  0
 25 24  1  0  0  0  0
 26 25  1  0  0  0  0
 27 26  2  0  0  0  0
 28 30  1  0  0  0  0
 28 27  1  0  0  0  0
 29 28  2  0  0  0  0
 30 31  1  0  0  0  0
 31 32  2  0  0  0  0
 31 25  1  0  0  0  0
 33 30  1  0  0  0  0
M  END
>  <minimizedAffinity>
-5.62217236

$$$$

 OpenBabel03242515293D

 33 35  0  0  0  0  0  0  0  0999 V2000
   36.3080   30.5160   40.6770 C   0  0  0  0  0  0  0  0  0  0  0  0
   37.4700   31.2950   40.8080 C   0  0  0  0  0  0  0  0  0  0  0  0
   38.4820   30.7660   41.5770 C   0  0  0  0  0  0  0  0  0  0  0  0
   38.3290   29.5590   42.1620 N   0  0  0  0  0  0  0  0  0  0  0  0
   37.1760   28.8570   41.9950 C   0  0  0  0  0  0  0  0  0  0  0  0
   36.1420   29.3140   41.2520 N   0  0  0  0  0  0  0  0  0  0  0  0
   35.4800   30.8820   40.0820 H   0  0  0  0  0  0  0  0  0  0  0  0
   39.3790   31.3640   41.6800 H   0  0  0  0  0  0  0  0  0  0  0  0
   37.4860   32.5900   40.1170 C   0  0  0  0  0  0  0  0  0  0  0  0
   36.5550   32.7720   39.5910 H   0  0  0  0  0  0  0  0  0  0  0  0
   37.5210   33.3800   40.9240 H   0  0  0  0  0  0  0  0  0  0  0  0
   38.6880   32.6650   39.3180 N   0  0  0  0  0  0  0  0  0  0  0  0
   38.8940   31.7990   38.3260 C   0  0  0  0  0  0  0  0  0  0  0  0
   40.0650   31.9260   37.6000 C   0  0  0  0  0  0  0  0  0  0  0  0
   40.9910   32.8990   37.8700 C   0  0  0  0  0  0  0  0  0  0  0  0
   42.0280   32.9670   37.1840 O   0  0  0  0  0  0  0  0  0  0  0  0
   40.7580   33.7640   38.8790 N   0  0  0  0  0  0  0  0  0  0  0  0
   39.6110   33.6500   39.6020 C   0  0  0  0  0  0  0  0  0  0  0  0
   39.4490   34.4850   40.5300 O   0  0  0  0  0  0  0  0  0  0  0  0
   38.1460   31.0400   38.1330 H   0  0  0  0  0  0  0  0  0  0  0  0
   40.1840   31.1850   36.7950 H   0  0  0  0  0  0  0  0  0  0  0  0
   41.4600   34.5020   39.0860 H   0  0  0  0  0  0  0  0  0  0  0  0
   36.9930   27.6100   42.5900 O   0  0  0  0  0  0  0  0  0  0  0  0
   36.8260   24.2390   39.7030 H   0  0  0  0  0  0  0  0  0  0  0  0
   37.2890   24.7060   40.5130 N   0  0  0  0  0  0  0  0  0  0  0  0
   36.8080   25.8650   41.0050 C   0  0  0  0  0  3  0  0  0  0  0  0
   37.4890   26.4240   42.0900 C   0  0  0  0  0  0  0  0  0  0  0  0
   38.5960   25.7560   42.5800 C   0  0  0  0  0  0  0  0  0  0  0  0
   39.2000   26.2850   43.5710 O   0  0  0  0  0  0  0  0  0  0  0  0
   39.0380   24.6000   42.0550 N   0  0  0  0  0  0  0  0  0  0  0  0
   38.3690   24.0810   41.0120 C   0  0  0  0  0  0  0  0  0  0  0  0
   38.8250   23.0020   40.5620 O   0  0  0  0  0  0  0  0  0  0  0  0
   39.8780   24.1300   42.4570 H   0  0  0  0  0  0  0  0  0  0  0  0
  1  2  2  0  0  0  0
  1  6  1  0  0  0  0
  2  3  1  0  0  0  0
  3  8  1  0  0  0  0
  3  4  2  0  0  0  0
  5  4  1  0  0  0  0
  5 23  1  0  0  0  0
  6  5  2  0  0  0  0
  7  1  1  0  0  0  0
  9  2  1  0  0  0  0
  9 11  1  0  0  0  0
 10  9  1  0  0  0  0
 12 18  1  0  0  0  0
 12  9  1  0  0  0  0
 13 12  1  0  0  0  0
 14 15  1  0  0  0  0
 14 13  2  0  0  0  0
 15 17  1  0  0  0  0
 16 15  2  0  0  0  0
 17 22  1  0  0  0  0
 17 18  1  0  0  0  0
 18 19  2  0  0  0  0
 20 13  1  0  0  0  0
 21 14  1  0  0  0  0
 24 25  1  0  0  0  0
 25 26  1  0  0  0  0
 25 31  1  0  0  0  0
 26 27  2  0  0  0  0
 27 28  1  0  0  0  0
 27 23  1  0  0  0  0
 28 29  2  0  0  0  0
 30 33  1  0  0  0  0
 30 28  1  0  0  0  0
 31 30  1  0  0  0  0
 32 31  2  0  0  0  0
M  END
>  <minimizedAffinity>
-5.39442396

$$$$

 OpenBabel03242515293D

 33 35  0  0  0  0  0  0  0  0999 V2000
   39.4740   28.8530   42.7560 C   0  0  0  0  0  0  0  0  0  0  0  0
   38.9090   30.0260   42.2260 C   0  0  0  0  0  0  0  0  0  0  0  0
   37.6210   29.9270   41.7500 C   0  0  0  0  0  0  0  0  0  0  0  0
   36.9660   28.7480   41.8050 N   0  0  0  0  0  0  0  0  0  0  0  0
   37.5720   27.6510   42.3300 C   0  0  0  0  0  0  0  0  0  0  0  0
   38.8340   27.6740   42.8170 N   0  0  0  0  0  0  0  0  0  0  0  0
   40.4840   28.8720   43.1460 H   0  0  0  0  0  0  0  0  0  0  0  0
   37.1830   30.8300   41.3410 H   0  0  0  0  0  0  0  0  0  0  0  0
   39.7480   31.2300   42.2290 C   0  0  0  0  0  0  0  0  0  0  0  0
   39.3030   32.0240   42.8210 H   0  0  0  0  0  0  0  0  0  0  0  0
   40.6950   30.9560   42.7800 H   0  0  0  0  0  0  0  0  0  0  0  0
   40.0670   31.5680   40.8610 N   0  0  0  0  0  0  0  0  0  0  0  0
   40.8980   30.8040   40.1530 C   0  0  0  0  0  0  0  0  0  0  0  0
   41.1620   31.1840   38.8500 C   0  0  0  0  0  0  0  0  0  0  0  0
   40.6000   32.2980   38.2850 C   0  0  0  0  0  0  0  0  0  0  0  0
   40.8730   32.5930   37.1060 O   0  0  0  0  0  0  0  0  0  0  0  0
   39.7610   33.0550   39.0230 N   0  0  0  0  0  0  0  0  0  0  0  0
   39.4930   32.6940   40.3070 C   0  0  0  0  0  0  0  0  0  0  0  0
   38.7040   33.4380   40.9440 O   0  0  0  0  0  0  0  0  0  0  0  0
   41.3290   29.9280   40.6240 H   0  0  0  0  0  0  0  0  0  0  0  0
   41.8540   30.5180   38.3130 H   0  0  0  0  0  0  0  0  0  0  0  0
   39.3350   33.9010   38.5960 H   0  0  0  0  0  0  0  0  0  0  0  0
   36.9180   26.4220   42.3960 O   0  0  0  0  0  0  0  0  0  0  0  0
   38.8260   22.4240   42.0740 H   0  0  0  0  0  0  0  0  0  0  0  0
   38.3050   23.2100   41.6270 N   0  0  0  0  0  0  0  0  0  0  0  0
   37.9630   24.3010   42.3390 C   0  0  0  0  0  3  0  0  0  0  0  0
   37.2670   25.3080   41.6630 C   0  0  0  0  0  0  0  0  0  0  0  0
   36.9830   25.1170   40.3230 C   0  0  0  0  0  0  0  0  0  0  0  0
   36.3480   26.0480   39.7270 O   0  0  0  0  0  0  0  0  0  0  0  0
   37.3470   24.0090   39.6540 N   0  0  0  0  0  0  0  0  0  0  0  0
   38.0140   23.0550   40.3240 C   0  0  0  0  0  0  0  0  0  0  0  0
   38.3290   22.0430   39.6510 O   0  0  0  0  0  0  0  0  0  0  0  0
   37.1120   23.9070   38.6430 H   0  0  0  0  0  0  0  0  0  0  0  0
  1  6  1  0  0  0  0
  1  7  1  0  0  0  0
  2  9  1  0  0  0  0
  2  1  2  0  0  0  0
  3  4  2  0  0  0  0
  3  2  1  0  0  0  0
  4  5  1  0  0  0  0
  5 23  1  0  0  0  0
  5  6  2  0  0  0  0
  8  3  1  0  0  0  0
  9 11  1  0  0  0  0
  9 10  1  0  0  0  0
 12  9  1  0  0  0  0
 13 20  1  0  0  0  0
 13 12  1  0  0  0  0
 14 13  2  0  0  0  0
 15 14  1  0  0  0  0
 15 17  1  0  0  0  0
 16 15  2  0  0  0  0
 17 18  1  0  0  0  0
 18 12  1  0  0  0  0
 18 19  2  0  0  0  0
 21 14  1  0  0  0  0
 22 17  1  0  0  0  0
 25 24  1  0  0  0  0
 25 26  1  0  0  0  0
 27 26  2  0  0  0  0
 27 23  1  0  0  0  0
 28 27  1  0  0  0  0
 29 28  2  0  0  0  0
 30 28  1  0  0  0  0
 30 31  1  0  0  0  0
 31 25  1  0  0  0  0
 32 31  2  0  0  0  0
 33 30  1  0  0  0  0
M  END
>  <minimizedAffinity>
-5.35936117

$$$$

 OpenBabel03242515293D

 33 35  0  0  0  0  0  0  0  0999 V2000
   36.5670   27.7040   40.9760 C   0  0  0  0  0  0  0  0  0  0  0  0
   37.1090   27.2400   42.1870 C   0  0  0  0  0  0  0  0  0  0  0  0
   37.6340   28.1930   43.0310 C   0  0  0  0  0  0  0  0  0  0  0  0
   37.6140   29.4960   42.6790 N   0  0  0  0  0  0  0  0  0  0  0  0
   37.0740   29.8770   41.4900 C   0  0  0  0  0  0  0  0  0  0  0  0
   36.5400   28.9970   40.6130 N   0  0  0  0  0  0  0  0  0  0  0  0
   36.1380   27.0000   40.2740 H   0  0  0  0  0  0  0  0  0  0  0  0
   38.0530   27.8380   43.9650 H   0  0  0  0  0  0  0  0  0  0  0  0
   37.0630   25.7930   42.4270 C   0  0  0  0  0  0  0  0  0  0  0  0
   37.2760   25.5540   43.4630 H   0  0  0  0  0  0  0  0  0  0  0  0
   35.9880   25.4800   42.2730 H   0  0  0  0  0  0  0  0  0  0  0  0
   37.9000   25.1420   41.4450 N   0  0  0  0  0  0  0  0  0  0  0  0
   39.2000   25.4260   41.3700 C   0  0  0  0  0  0  0  0  0  0  0  0
   39.9440   24.7690   40.4070 C   0  0  0  0  0  0  0  0  0  0  0  0
   39.3880   23.8530   39.5530 C   0  0  0  0  0  0  0  0  0  0  0  0
   40.1050   23.2900   38.7050 O   0  0  0  0  0  0  0  0  0  0  0  0
   38.0700   23.5830   39.6490 N   0  0  0  0  0  0  0  0  0  0  0  0
   37.3250   24.2230   40.5910 C   0  0  0  0  0  0  0  0  0  0  0  0
   36.1020   23.9290   40.6330 O   0  0  0  0  0  0  0  0  0  0  0  0
   39.6140   26.1540   42.0580 H   0  0  0  0  0  0  0  0  0  0  0  0
   41.0100   25.0420   40.3900 H   0  0  0  0  0  0  0  0  0  0  0  0
   37.6460   22.8890   39.0010 H   0  0  0  0  0  0  0  0  0  0  0  0
   37.0440   31.2160   41.1040 O   0  0  0  0  0  0  0  0  0  0  0  0
   40.9780   33.2750   41.0690 H   0  0  0  0  0  0  0  0  0  0  0  0
   40.1420   32.9270   40.5510 N   0  0  0  0  0  0  0  0  0  0  0  0
   39.1450   32.2960   41.2020 C   0  0  0  0  0  3  0  0  0  0  0  0
   38.0620   31.8610   40.4340 C   0  0  0  0  0  0  0  0  0  0  0  0
   38.0870   32.1060   39.0730 C   0  0  0  0  0  0  0  0  0  0  0  0
   37.0880   31.7010   38.3930 O   0  0  0  0  0  0  0  0  0  0  0  0
   39.1060   32.7410   38.4680 N   0  0  0  0  0  0  0  0  0  0  0  0
   40.1370   33.1500   39.2260 C   0  0  0  0  0  0  0  0  0  0  0  0
   41.0600   33.7370   38.6110 O   0  0  0  0  0  0  0  0  0  0  0  0
   39.0840   32.9050   37.4380 H   0  0  0  0  0  0  0  0  0  0  0  0
  1  2  1  0  0  0  0
  2  9  1  0  0  0  0
  2  3  2  0  0  0  0
  3  8  1  0  0  0  0
  4  3  1  0  0  0  0
  5  4  2  0  0  0  0
  6  1  2  0  0  0  0
  6  5  1  0  0  0  0
  7  1  1  0  0  0  0
  9 10  1  0  0  0  0
 11  9  1  0  0  0  0
 12  9  1  0  0  0  0
 13 12  1  0  0  0  0
 13 20  1  0  0  0  0
 14 13  2  0  0  0  0
 15 17  1  0  0  0  0
 15 14  1  0  0  0  0
 16 15  2  0  0  0  0
 17 18  1  0  0  0  0
 18 19  2  0  0  0  0
 18 12  1  0  0  0  0
 21 14  1  0  0  0  0
 22 17  1  0  0  0  0
 23  5  1  0  0  0  0
 25 24  1  0  0  0  0
 25 26  1  0  0  0  0
 27 23  1  0  0  0  0
 27 26  2  0  0  0  0
 28 27  1  0  0  0  0
 29 28  2  0  0  0  0
 30 28  1  0  0  0  0
 30 31  1  0  0  0  0
 31 25  1  0  0  0  0
 32 31  2  0  0  0  0
 33 30  1  0  0  0  0
M  END
>  <minimizedAffinity>
-5.24751425

$$$$

 OpenBabel03242515293D

 33 35  0  0  0  0  0  0  0  0999 V2000
   38.4220   29.3050   40.1060 C   0  0  0  0  0  0  0  0  0  0  0  0
   37.7820   30.3890   40.7310 C   0  0  0  0  0  0  0  0  0  0  0  0
   37.4230   30.2130   42.0490 C   0  0  0  0  0  0  0  0  0  0  0  0
   37.6860   29.0460   42.6750 N   0  0  0  0  0  0  0  0  0  0  0  0
   38.3080   28.0370   42.0090 C   0  0  0  0  0  0  0  0  0  0  0  0
   38.6910   28.1390   40.7160 N   0  0  0  0  0  0  0  0  0  0  0  0
   38.7280   29.3860   39.0700 H   0  0  0  0  0  0  0  0  0  0  0  0
   36.9290   31.0460   42.5340 H   0  0  0  0  0  0  0  0  0  0  0  0
   37.5590   31.5900   39.9190 C   0  0  0  0  0  0  0  0  0  0  0  0
   36.6530   31.5090   39.3280 H   0  0  0  0  0  0  0  0  0  0  0  0
   37.3540   32.4310   40.6460 H   0  0  0  0  0  0  0  0  0  0  0  0
   38.7700   31.8740   39.1830 N   0  0  0  0  0  0  0  0  0  0  0  0
   39.9020   32.1530   39.8280 C   0  0  0  0  0  0  0  0  0  0  0  0
   41.0240   32.4170   39.0640 C   0  0  0  0  0  0  0  0  0  0  0  0
   40.9980   32.3950   37.6940 C   0  0  0  0  0  0  0  0  0  0  0  0
   42.0390   32.6400   37.0560 O   0  0  0  0  0  0  0  0  0  0  0  0
   39.8390   32.1090   37.0660 N   0  0  0  0  0  0  0  0  0  0  0  0
   38.7270   31.8490   37.8050 C   0  0  0  0  0  0  0  0  0  0  0  0
   37.6760   31.5890   37.1620 O   0  0  0  0  0  0  0  0  0  0  0  0
   39.8960   32.1640   40.9120 H   0  0  0  0  0  0  0  0  0  0  0  0
   41.9300   32.6410   39.6470 H   0  0  0  0  0  0  0  0  0  0  0  0
   39.8170   32.0940   36.0260 H   0  0  0  0  0  0  0  0  0  0  0  0
   38.5890   26.8230   42.6320 O   0  0  0  0  0  0  0  0  0  0  0  0
   35.8420   23.8000   40.8890 H   0  0  0  0  0  0  0  0  0  0  0  0
   36.8060   24.0790   41.1730 N   0  0  0  0  0  0  0  0  0  0  0  0
   37.0370   25.2880   41.7210 C   0  0  0  0  0  3  0  0  0  0  0  0
   38.3570   25.5830   42.0730 C   0  0  0  0  0  0  0  0  0  0  0  0
   39.3240   24.6220   41.8400 C   0  0  0  0  0  0  0  0  0  0  0  0
   40.5210   24.9130   42.1700 O   0  0  0  0  0  0  0  0  0  0  0  0
   39.0440   23.4280   41.2910 N   0  0  0  0  0  0  0  0  0  0  0  0
   37.7680   23.1660   40.9600 C   0  0  0  0  0  0  0  0  0  0  0  0
   37.5640   22.0370   40.4520 O   0  0  0  0  0  0  0  0  0  0  0  0
   39.8050   22.7320   41.1330 H   0  0  0  0  0  0  0  0  0  0  0  0
  1  6  2  0  0  0  0
  1  2  1  0  0  0  0
  2  3  2  0  0  0  0
  3  8  1  0  0  0  0
  3  4  1  0  0  0  0
  5 23  1  0  0  0  0
  5  4  2  0  0  0  0
  6  5  1  0  0  0  0
  7  1  1  0  0  0  0
  9 11  1  0  0  0  0
  9  2  1  0  0  0  0
 10  9  1  0  0  0  0
 12 13  1  0  0  0  0
 12  9  1  0  0  0  0
 13 20  1  0  0  0  0
 14 21  1  0  0  0  0
 14 13  2  0  0  0  0
 15 14  1  0  0  0  0
 16 15  2  0  0  0  0
 17 15  1  0  0  0  0
 17 18  1  0  0  0  0
 18 12  1  0  0  0  0
 19 18  2  0  0  0  0
 22 17  1  0  0  0  0
 24 25  1  0  0  0  0
 25 26  1  0  0  0  0
 26 27  2  0  0  0  0
 27 23  1  0  0  0  0
 28 27  1  0  0  0  0
 28 29  2  0  0  0  0
 30 28  1  0  0  0  0
 31 25  1  0  0  0  0
 31 30  1  0  0  0  0
 32 31  2  0  0  0  0
 33 30  1  0  0  0  0
M  END
>  <minimizedAffinity>
-5.22199202

$$$$

 OpenBabel03242515293D

 33 35  0  0  0  0  0  0  0  0999 V2000
   38.0980   28.8010   42.9930 C   0  0  0  0  0  0  0  0  0  0  0  0
   38.5370   27.4910   42.7360 C   0  0  0  0  0  0  0  0  0  0  0  0
   38.3950   27.0370   41.4440 C   0  0  0  0  0  0  0  0  0  0  0  0
   37.8560   27.8360   40.5000 N   0  0  0  0  0  0  0  0  0  0  0  0
   37.4500   29.0950   40.8170 C   0  0  0  0  0  0  0  0  0  0  0  0
   37.5600   29.6070   42.0640 N   0  0  0  0  0  0  0  0  0  0  0  0
   38.1860   29.2110   43.9920 H   0  0  0  0  0  0  0  0  0  0  0  0
   38.7330   26.0280   41.2430 H   0  0  0  0  0  0  0  0  0  0  0  0
   39.0970   26.7410   43.8670 C   0  0  0  0  0  0  0  0  0  0  0  0
   38.8990   27.2380   44.8110 H   0  0  0  0  0  0  0  0  0  0  0  0
   38.5180   25.7720   43.9240 H   0  0  0  0  0  0  0  0  0  0  0  0
   40.4850   26.4570   43.5840 N   0  0  0  0  0  0  0  0  0  0  0  0
   41.4040   27.4180   43.6760 C   0  0  0  0  0  0  0  0  0  0  0  0
   42.7140   27.0800   43.3900 C   0  0  0  0  0  0  0  0  0  0  0  0
   43.0780   25.8100   43.0260 C   0  0  0  0  0  0  0  0  0  0  0  0
   44.2730   25.5610   42.7800 O   0  0  0  0  0  0  0  0  0  0  0  0
   42.1290   24.8550   42.9410 N   0  0  0  0  0  0  0  0  0  0  0  0
   40.8360   25.1740   43.2180 C   0  0  0  0  0  0  0  0  0  0  0  0
   39.9960   24.2410   43.1220 O   0  0  0  0  0  0  0  0  0  0  0  0
   41.0890   28.4140   43.9660 H   0  0  0  0  0  0  0  0  0  0  0  0
   43.4290   27.9110   43.4810 H   0  0  0  0  0  0  0  0  0  0  0  0
   42.4030   23.8910   42.6640 H   0  0  0  0  0  0  0  0  0  0  0  0
   36.8880   29.9380   39.8600 O   0  0  0  0  0  0  0  0  0  0  0  0
   32.7560   28.5290   39.0450 H   0  0  0  0  0  0  0  0  0  0  0  0
   33.6900   28.8280   38.6890 N   0  0  0  0  0  0  0  0  0  0  0  0
   34.6690   29.1860   39.5430 C   0  0  0  0  0  3  0  0  0  0  0  0
   35.8890   29.5720   38.9820 C   0  0  0  0  0  0  0  0  0  0  0  0
   36.0070   29.5610   37.6050 C   0  0  0  0  0  0  0  0  0  0  0  0
   37.1300   29.9170   37.1160 O   0  0  0  0  0  0  0  0  0  0  0  0
   35.0000   29.1950   36.7930 N   0  0  0  0  0  0  0  0  0  0  0  0
   33.8360   28.8270   37.3530 C   0  0  0  0  0  0  0  0  0  0  0  0
   32.9310   28.4960   36.5490 O   0  0  0  0  0  0  0  0  0  0  0  0
   35.1330   29.2000   35.7580 H   0  0  0  0  0  0  0  0  0  0  0  0
  1  7  1  0  0  0  0
  2  1  1  0  0  0  0
  2  9  1  0  0  0  0
  3  2  2  0  0  0  0
  4  5  2  0  0  0  0
  4  3  1  0  0  0  0
  5  6  1  0  0  0  0
  6  1  2  0  0  0  0
  8  3  1  0  0  0  0
  9 11  1  0  0  0  0
  9 10  1  0  0  0  0
 12 13  1  0  0  0  0
 12  9  1  0  0  0  0
 13 20  1  0  0  0  0
 14 21  1  0  0  0  0
 14 13  2  0  0  0  0
 15 14  1  0  0  0  0
 16 15  2  0  0  0  0
 17 15  1  0  0  0  0
 17 18  1  0  0  0  0
 18 12  1  0  0  0  0
 19 18  2  0  0  0  0
 22 17  1  0  0  0  0
 23  5  1  0  0  0  0
 25 24  1  0  0  0  0
 25 26  1  0  0  0  0
 27 26  2  0  0  0  0
 27 23  1  0  0  0  0
 28 27  1  0  0  0  0
 29 28  2  0  0  0  0
 30 31  1  0  0  0  0
 30 28  1  0  0  0  0
 31 25  1  0  0  0  0
 32 31  2  0  0  0  0
 33 30  1  0  0  0  0
M  END
>  <minimizedAffinity>
-5.14542198

$$$$
