
 OpenBabel03252509323D

 28 29  0  0  0  0  0  0  0  0999 V2000
   50.2850   33.1560   41.5440 O   0  0  0  0  0  0  0  0  0  0  0  0
   49.3130   33.9590   42.3510 P   0  0  2  0  0  0  0  0  0  0  0  0
   50.0560   35.1550   43.2750 O   0  0  0  0  0  0  0  0  0  0  0  0
   50.4540   34.7950   44.1080 H   0  0  0  0  0  0  0  0  0  0  0  0
   48.4720   32.9480   43.4150 O   0  0  0  0  0  0  0  0  0  0  0  0
   47.3250   33.6290   43.8150 C   0  0  0  0  0  0  0  0  0  0  0  0
   46.5300   33.5850   43.0150 H   0  0  0  0  0  0  0  0  0  0  0  0
   47.4980   34.7070   44.0180 H   0  0  0  0  0  0  0  0  0  0  0  0
   46.4820   31.1720   46.4970 C   0  0  0  0  0  0  0  0  0  0  0  0
   47.0530   31.7170   45.3270 C   0  0  0  0  0  0  0  0  0  0  0  0
   46.7460   33.0300   45.0280 C   0  0  0  0  0  0  0  0  0  0  0  0
   45.9170   33.7300   45.8700 N   0  0  0  0  0  0  0  0  0  0  0  0
   45.3900   33.1750   46.9810 C   0  0  0  0  0  0  0  0  0  0  0  0
   45.6740   31.9040   47.2890 N   0  0  0  0  0  0  0  0  0  0  0  0
   46.7000   30.1600   46.7550 H   0  0  0  0  0  0  0  0  0  0  0  0
   47.7030   31.1620   44.6730 H   0  0  0  0  0  0  0  0  0  0  0  0
   44.7510   33.8210   47.5680 H   0  0  0  0  0  0  0  0  0  0  0  0
   48.1790   34.6500   41.3000 O   0  0  0  0  0  0  0  0  0  0  0  0
   49.0830   35.0400   37.0030 H   0  0  0  0  0  0  0  0  0  0  0  0
   48.5180   34.5210   37.7240 N   0  0  0  0  0  0  0  0  0  0  0  0
   48.7270   34.9270   38.9840 C   0  0  0  0  0  3  0  0  0  0  0  0
   48.0090   34.2810   39.9920 C   0  0  0  0  0  0  0  0  0  0  0  0
   47.1290   33.2660   39.6330 C   0  0  0  0  0  0  0  0  0  0  0  0
   46.4650   32.6640   40.5170 O   0  0  0  0  0  0  0  0  0  0  0  0
   47.0010   32.9430   38.3280 N   0  0  0  0  0  0  0  0  0  0  0  0
   47.6940   33.5630   37.3300 C   0  0  0  0  0  0  0  0  0  0  0  0
   47.5260   33.2120   36.1340 O   0  0  0  0  0  0  0  0  0  0  0  0
   46.3140   32.1620   38.1140 H   0  0  0  0  0  0  0  0  0  0  0  0
  2  1  2  6  0  0  0
  2  3  1  0  0  0  0
  2  5  1  0  0  0  0
  3  4  1  0  0  0  0
  5  6  1  0  0  0  0
  6  8  1  0  0  0  0
  6 11  1  0  0  0  0
  7  6  1  0  0  0  0
  9 15  1  0  0  0  0
  9 14  1  0  0  0  0
 10  9  2  0  0  0  0
 11 10  1  0  0  0  0
 11 12  2  0  0  0  0
 12 13  1  0  0  0  0
 13 14  2  0  0  0  0
 13 17  1  0  0  0  0
 16 10  1  0  0  0  0
 18  2  1  0  0  0  0
 19 20  1  0  0  0  0
 20 21  1  0  0  0  0
 21 22  2  0  0  0  0
 22 18  1  0  0  0  0
 23 22  1  0  0  0  0
 23 24  2  0  0  0  0
 25 23  1  0  0  0  0
 26 20  1  0  0  0  0
 26 25  1  0  0  0  0
 27 26  2  0  0  0  0
 28 25  1  0  0  0  0
M  END
>  <minimizedAffinity>
-4.48529482

>  <minimizedRMSD>
1.93722975

$$$$
