
 OpenBabel03252504273D

 23 24  0  0  0  0  0  0  0  0999 V2000
   44.3740   35.0410   41.9940 C   0  0  0  0  0  0  0  0  0  0  0  0
   45.1990   34.7310   41.3160 H   0  0  0  0  0  0  0  0  0  0  0  0
   44.3580   36.1620   41.9110 H   0  0  0  0  0  0  0  0  0  0  0  0
   44.4270   35.4810   44.3620 C   0  0  0  0  0  0  0  0  0  0  0  0
   44.7560   34.6150   43.3430 C   0  0  0  0  0  0  0  0  0  0  0  0
   45.4040   33.4450   43.6880 C   0  0  0  0  0  0  0  0  0  0  0  0
   45.6730   33.2270   44.9950 N   0  0  0  0  0  0  0  0  0  0  0  0
   45.3410   34.0860   45.9700 C   0  0  0  0  0  0  0  0  0  0  0  0
   44.6940   35.2680   45.6850 N   0  0  0  0  0  0  0  0  0  0  0  0
   43.9090   36.4390   44.1970 H   0  0  0  0  0  0  0  0  0  0  0  0
   45.6550   32.7780   42.8800 H   0  0  0  0  0  0  0  0  0  0  0  0
   45.6700   33.6730   46.9220 H   0  0  0  0  0  0  0  0  0  0  0  0
   43.2090   34.4570   41.5230 O   0  0  0  0  0  0  0  0  0  0  0  0
   42.9050   34.8460   37.0350 H   0  0  0  0  0  0  0  0  0  0  0  0
   42.5330   34.9980   38.0090 N   0  0  0  0  0  0  0  0  0  0  0  0
   43.1850   34.5920   39.0940 C   0  0  0  0  0  3  0  0  0  0  0  0
   42.6150   34.8360   40.3280 C   0  0  0  0  0  0  0  0  0  0  0  0
   41.3930   35.4930   40.3540 C   0  0  0  0  0  0  0  0  0  0  0  0
   40.8720   35.7150   41.4830 O   0  0  0  0  0  0  0  0  0  0  0  0
   40.7520   35.8940   39.2340 N   0  0  0  0  0  0  0  0  0  0  0  0
   41.3470   35.6330   38.0370 C   0  0  0  0  0  0  0  0  0  0  0  0
   40.6990   36.0320   37.0340 O   0  0  0  0  0  0  0  0  0  0  0  0
   39.8250   36.3900   39.2870 H   0  0  0  0  0  0  0  0  0  0  0  0
  1  5  1  0  0  0  0
  2  1  1  0  0  0  0
  3  1  1  0  0  0  0
  4  9  1  0  0  0  0
  5  6  1  0  0  0  0
  5  4  2  0  0  0  0
  6  7  2  0  0  0  0
  7  8  1  0  0  0  0
  8 12  1  0  0  0  0
  9  8  2  0  0  0  0
 10  4  1  0  0  0  0
 11  6  1  0  0  0  0
 13  1  1  0  0  0  0
 14 15  1  0  0  0  0
 15 21  1  0  0  0  0
 15 16  1  0  0  0  0
 16 17  2  0  0  0  0
 17 18  1  0  0  0  0
 17 13  1  0  0  0  0
 18 19  2  0  0  0  0
 20 23  1  0  0  0  0
 20 18  1  0  0  0  0
 21 20  1  0  0  0  0
 22 21  2  0  0  0  0
M  END
>  <minimizedAffinity>
-4.55519915

>  <minimizedRMSD>
1.02549613

$$$$
