REMARK  Name = 
REMARK  8 active torsions:
REMARK  status: ('A' for Active; 'I' for Inactive)
REMARK    1  A    between atoms: N_1  and  C_7
REMARK    2  A    between atoms: C_6  and  O_15
REMARK    3  A    between atoms: C_7  and  C_8
REMARK    4  A    between atoms: C_8  and  C_11
REMARK    5  A    between atoms: O_15  and  P_17
REMARK    6  A    between atoms: P_17  and  O_18
REMARK    7  A    between atoms: P_17  and  O_19
REMARK    8  A    between atoms: O_19  and  C_40
REMARK                            x       y       z     vdW  Elec       q    Type
REMARK                         _______ _______ _______ _____ _____    ______ ____
ROOT
ATOM      1  N   UNL     1      47.174  34.155  43.087  0.00  0.00    +0.000 NA
ATOM      2  C   UNL     1      46.663  35.365  42.534  0.00  0.00    +0.000 C 
ATOM      3  C   UNL     1      45.192  35.605  42.752  0.00  0.00    +0.000 C 
ATOM      4  C   UNL     1      44.646  35.041  44.031  0.00  0.00    +0.000 C 
ATOM      5  C   UNL     1      45.745  34.467  44.895  0.00  0.00    +0.000 C 
ATOM      6  C   UNL     1      46.406  33.395  43.952  0.00  0.00    +0.000 C 
ATOM      7  H   UNL     1      47.203  36.191  43.071  0.00  0.00    +0.000 HD
ATOM      8  H   UNL     1      46.876  35.534  41.477  0.00  0.00    +0.000 HD
ATOM      9  H   UNL     1      44.601  35.272  41.868  0.00  0.00    +0.000 HD
ATOM     10  H   UNL     1      45.019  36.706  42.811  0.00  0.00    +0.000 HD
ATOM     11  H   UNL     1      43.983  34.187  43.750  0.00  0.00    +0.000 HD
ATOM     12  H   UNL     1      43.982  35.748  44.582  0.00  0.00    +0.000 HD
ATOM     13  H   UNL     1      46.483  35.241  45.124  0.00  0.00    +0.000 HD
ATOM     14  H   UNL     1      45.313  33.967  45.770  0.00  0.00    +0.000 HD
ATOM     15  H   UNL     1      45.591  32.796  43.518  0.00  0.00    +0.000 HD
ENDROOT
BRANCH   1  16
ATOM     16  C   UNL     1      48.149  33.498  42.268  0.00  0.00    +0.000 C 
ATOM     17  H   UNL     1      48.802  34.255  41.816  0.00  0.00    +0.000 HD
ATOM     18  H   UNL     1      48.756  32.830  42.918  0.00  0.00    +0.000 HD
BRANCH  16  19
ATOM     19  C   UNL     1      47.439  32.654  41.255  0.00  0.00    +0.000 C 
ATOM     20  H   UNL     1      47.526  31.581  41.470  0.00  0.00    +0.000 HD
ATOM     21  H   UNL     1      46.355  32.885  41.235  0.00  0.00    +0.000 HD
BRANCH  19  24
ATOM     22  C   UNL     1      49.340  32.290  38.030  0.00  0.00    +0.000 A 
ATOM     23  C   UNL     1      48.818  32.013  39.313  0.00  0.00    +0.000 A 
ATOM     24  C   UNL     1      47.990  32.942  39.905  0.00  0.00    +0.000 A 
ATOM     25  N   UNL     1      47.716  34.076  39.229  0.00  0.00    +0.000 NA
ATOM     26  C   UNL     1      48.230  34.312  38.005  0.00  0.00    +0.000 A 
ATOM     27  N   UNL     1      49.038  33.436  37.396  0.00  0.00    +0.000 NA
ATOM     28  H   UNL     1      49.980  31.525  37.622  0.00  0.00    +0.000 HD
ATOM     29  H   UNL     1      49.040  31.096  39.858  0.00  0.00    +0.000 HD
ATOM     30  H   UNL     1      48.014  35.221  37.456  0.00  0.00    +0.000 HD
ENDBRANCH  19  24
ENDBRANCH  16  19
ENDBRANCH   1  16
BRANCH   6  31
ATOM     31  O   UNL     1      47.206  32.694  44.856  0.00  0.00    +0.000 OA
BRANCH  31  33
ATOM     32  O   UNL     1      45.996  30.544  43.860  0.00  0.00    +0.000 OA
ATOM     33  P   UNL     1      46.654  31.118  45.112  0.00  0.00    +0.000 P 
BRANCH  33  34
ATOM     34  O   UNL     1      45.411  31.244  46.282  0.00  0.00    +0.000 OA
ATOM     35  H   UNL     1      45.730  31.771  47.052  0.00  0.00    +0.000 HD
ENDBRANCH  33  34
BRANCH  33  36
ATOM     36  O   UNL     1      47.843  30.139  45.735  0.00  0.00    +0.000 OA
BRANCH  36  40
ATOM     37  H   UNL     1      45.084  27.475  47.906  0.00  0.00    +0.000 HD
ATOM     38  N   UNL     1      45.967  27.578  47.345  0.00  0.00    +0.000 N 
ATOM     39  C   UNL     1      46.409  28.773  46.860  0.00  0.00    +0.000 A 
ATOM     40  C   UNL     1      47.595  28.832  46.120  0.00  0.00    +0.000 A 
ATOM     41  C   UNL     1      48.277  27.657  45.909  0.00  0.00    +0.000 A 
ATOM     42  O   UNL     1      49.321  27.840  45.234  0.00  0.00    +0.000 OA
ATOM     43  N   UNL     1      47.797  26.515  46.407  0.00  0.00    +0.000 N 
ATOM     44  C   UNL     1      46.663  26.454  47.116  0.00  0.00    +0.000 A 
ATOM     45  O   UNL     1      46.365  25.301  47.504  0.00  0.00    +0.000 OA
ATOM     46  H   UNL     1      48.403  25.677  46.184  0.00  0.00    +0.000 HD
ENDBRANCH  36  40
ENDBRANCH  33  36
ENDBRANCH  31  33
ENDBRANCH   6  31
TORSDOF 8
