
 OpenBabel03252502243D

 35 37  0  0  1  0  0  0  0  0999 V2000
   46.8900   34.5700   42.2420 N   0  0  0  0  0  0  0  0  0  0  0  0
   48.3350   34.7540   42.2660 C   0  0  0  0  0  0  0  0  0  0  0  0
   48.6160   35.5250   40.9580 C   0  0  0  0  0  0  0  0  0  0  0  0
   48.3330   34.6320   39.7940 C   0  0  0  0  0  0  0  0  0  0  0  0
   47.0690   33.8480   39.9130 C   0  0  0  0  0  0  0  0  0  0  0  0
   46.1600   34.2270   41.0450 C   0  0  1  0  0  0  0  0  0  0  0  0
   48.8590   33.7780   42.2300 H   0  0  0  0  0  0  0  0  0  0  0  0
   48.6250   35.3990   43.1090 H   0  0  0  0  0  0  0  0  0  0  0  0
   49.7080   35.7570   41.0100 H   0  0  0  0  0  0  0  0  0  0  0  0
   47.9990   36.4450   40.9890 H   0  0  0  0  0  0  0  0  0  0  0  0
   49.1920   33.9060   39.7360 H   0  0  0  0  0  0  0  0  0  0  0  0
   48.4170   35.2320   38.8670 H   0  0  0  0  0  0  0  0  0  0  0  0
   46.4850   34.0290   38.9620 H   0  0  0  0  0  0  0  0  0  0  0  0
   47.2420   32.7500   39.9300 H   0  0  0  0  0  0  0  0  0  0  0  0
   45.6320   35.1490   40.7340 H   0  0  0  0  0  0  0  0  0  0  0  0
   44.4950   35.8710   44.8100 C   0  0  0  0  0  0  0  0  0  0  0  0
   45.1980   35.7960   43.6000 C   0  0  0  0  0  0  0  0  0  0  0  0
   46.1240   34.7310   43.4430 C   0  0  0  0  0  0  0  0  0  0  0  0
   46.2730   33.8470   44.4760 N   0  0  0  0  0  0  0  0  0  0  0  0
   45.5700   33.9640   45.6240 C   0  0  0  0  0  0  0  0  0  0  0  0
   44.6780   34.9840   45.7830 N   0  0  0  0  0  0  0  0  0  0  0  0
   43.8390   36.7270   44.7680 H   0  0  0  0  0  0  0  0  0  0  0  0
   45.1300   36.4510   42.7540 H   0  0  0  0  0  0  0  0  0  0  0  0
   45.6630   33.2910   46.4480 H   0  0  0  0  0  0  0  0  0  0  0  0
   45.3450   33.1440   41.3190 O   0  0  0  0  0  0  0  0  0  0  0  0
   41.9310   31.1020   43.1640 H   0  0  0  0  0  0  0  0  0  0  0  0
   42.2760   31.7760   42.4510 N   0  0  0  0  0  0  0  0  0  0  0  0
   43.5920   32.0970   42.2650 C   0  0  0  0  0  3  0  0  0  0  0  0
   43.9900   33.0160   41.2820 C   0  0  0  0  0  0  0  0  0  0  0  0
   42.9730   33.5620   40.5280 C   0  0  0  0  0  0  0  0  0  0  0  0
   43.4210   34.3700   39.6770 O   0  0  0  0  0  0  0  0  0  0  0  0
   41.6940   33.2120   40.7520 N   0  0  0  0  0  0  0  0  0  0  0  0
   41.3370   32.3410   41.6860 C   0  0  0  0  0  0  0  0  0  0  0  0
   40.1040   32.0880   41.8050 O   0  0  0  0  0  0  0  0  0  0  0  0
   41.0060   33.7010   40.1070 H   0  0  0  0  0  0  0  0  0  0  0  0
  1  2  1  0  0  0  0
  1 18  1  0  0  0  0
  2  8  1  0  0  0  0
  3 10  1  0  0  0  0
  3  9  1  0  0  0  0
  3  2  1  0  0  0  0
  4  5  1  0  0  0  0
  4  3  1  0  0  0  0
  5 14  1  0  0  0  0
  5  6  1  0  0  0  0
  6 15  1  6  0  0  0
  6 25  1  0  0  0  0
  6  1  1  0  0  0  0
  7  2  1  0  0  0  0
 11  4  1  0  0  0  0
 12  4  1  0  0  0  0
 13  5  1  0  0  0  0
 16 21  1  0  0  0  0
 17 16  2  0  0  0  0
 18 17  1  0  0  0  0
 18 19  2  0  0  0  0
 19 20  1  0  0  0  0
 20 21  2  0  0  0  0
 20 24  1  0  0  0  0
 22 16  1  0  0  0  0
 23 17  1  0  0  0  0
 27 26  1  0  0  0  0
 28 27  1  0  0  0  0
 29 25  1  0  0  0  0
 29 28  2  0  0  0  0
 30 32  1  0  0  0  0
 30 29  1  0  0  0  0
 31 30  2  0  0  0  0
 32 33  1  0  0  0  0
 33 34  2  0  0  0  0
 33 27  1  0  0  0  0
 35 32  1  0  0  0  0
M  END
>  <minimizedAffinity>
-6.08111334

>  <minimizedRMSD>
0.0819072053

$$$$
