
 OpenBabel03252502243D

 35 37  0  0  1  0  0  0  0  0999 V2000
   46.8080   34.5690   42.2610 N   0  0  0  0  0  0  0  0  0  0  0  0
   48.2630   34.6270   42.2910 C   0  0  0  0  0  0  0  0  0  0  0  0
   48.6130   35.4020   41.0020 C   0  0  0  0  0  0  0  0  0  0  0  0
   48.2580   34.5640   39.8170 C   0  0  0  0  0  0  0  0  0  0  0  0
   46.9320   33.8890   39.9150 C   0  0  0  0  0  0  0  0  0  0  0  0
   46.0550   34.3180   41.0550 C   0  0  1  0  0  0  0  0  0  0  0  0
   48.7010   33.6100   42.2330 H   0  0  0  0  0  0  0  0  0  0  0  0
   48.6040   35.2250   43.1500 H   0  0  0  0  0  0  0  0  0  0  0  0
   49.7210   35.5370   41.0610 H   0  0  0  0  0  0  0  0  0  0  0  0
   48.0780   36.3700   41.0550 H   0  0  0  0  0  0  0  0  0  0  0  0
   49.0520   33.7690   39.7420 H   0  0  0  0  0  0  0  0  0  0  0  0
   48.3970   35.1760   38.9040 H   0  0  0  0  0  0  0  0  0  0  0  0
   46.3690   34.1420   38.9690 H   0  0  0  0  0  0  0  0  0  0  0  0
   47.0100   32.7800   39.9070 H   0  0  0  0  0  0  0  0  0  0  0  0
   45.6090   35.2890   40.7660 H   0  0  0  0  0  0  0  0  0  0  0  0
   44.4910   35.9850   44.8380 C   0  0  0  0  0  0  0  0  0  0  0  0
   45.1840   35.8770   43.6270 C   0  0  0  0  0  0  0  0  0  0  0  0
   46.0550   34.7660   43.4650 C   0  0  0  0  0  0  0  0  0  0  0  0
   46.1610   33.8730   44.4960 N   0  0  0  0  0  0  0  0  0  0  0  0
   45.4680   34.0240   45.6460 C   0  0  0  0  0  0  0  0  0  0  0  0
   44.6300   35.0880   45.8090 N   0  0  0  0  0  0  0  0  0  0  0  0
   43.8790   36.8740   44.8000 H   0  0  0  0  0  0  0  0  0  0  0  0
   45.1480   36.5360   42.7820 H   0  0  0  0  0  0  0  0  0  0  0  0
   45.5290   33.3450   46.4690 H   0  0  0  0  0  0  0  0  0  0  0  0
   45.1490   33.3020   41.3030 O   0  0  0  0  0  0  0  0  0  0  0  0
   41.5820   35.6140   40.2260 H   0  0  0  0  0  0  0  0  0  0  0  0
   41.9810   34.7610   40.6690 N   0  0  0  0  0  0  0  0  0  0  0  0
   43.3170   34.4870   40.7520 C   0  0  0  0  0  3  0  0  0  0  0  0
   43.7890   33.3160   41.3640 C   0  0  0  0  0  0  0  0  0  0  0  0
   42.8190   32.4760   41.8700 C   0  0  0  0  0  0  0  0  0  0  0  0
   43.3330   31.4560   42.3980 O   0  0  0  0  0  0  0  0  0  0  0  0
   41.5190   32.7930   41.7630 N   0  0  0  0  0  0  0  0  0  0  0  0
   41.0920   33.9050   41.1800 C   0  0  0  0  0  0  0  0  0  0  0  0
   39.8430   34.0970   41.1380 O   0  0  0  0  0  0  0  0  0  0  0  0
   40.8720   32.0660   42.1900 H   0  0  0  0  0  0  0  0  0  0  0  0
  1  2  1  0  0  0  0
  1 18  1  0  0  0  0
  2  8  1  0  0  0  0
  3 10  1  0  0  0  0
  3  9  1  0  0  0  0
  3  2  1  0  0  0  0
  4  5  1  0  0  0  0
  4  3  1  0  0  0  0
  5  6  1  0  0  0  0
  6 15  1  6  0  0  0
  6 25  1  0  0  0  0
  6  1  1  0  0  0  0
  7  2  1  0  0  0  0
 11  4  1  0  0  0  0
 12  4  1  0  0  0  0
 13  5  1  0  0  0  0
 14  5  1  0  0  0  0
 16 21  1  0  0  0  0
 17 16  2  0  0  0  0
 18 17  1  0  0  0  0
 18 19  2  0  0  0  0
 19 20  1  0  0  0  0
 20 21  2  0  0  0  0
 20 24  1  0  0  0  0
 22 16  1  0  0  0  0
 23 17  1  0  0  0  0
 25 29  1  0  0  0  0
 26 27  1  0  0  0  0
 27 28  1  0  0  0  0
 27 33  1  0  0  0  0
 28 29  2  0  0  0  0
 29 30  1  0  0  0  0
 30 31  2  0  0  0  0
 32 30  1  0  0  0  0
 32 35  1  0  0  0  0
 33 32  1  0  0  0  0
 34 33  2  0  0  0  0
M  END
>  <minimizedAffinity>
-6.10317659

>  <minimizedRMSD>
0.364344925

$$$$
