
 OpenBabel03252502243D

 35 37  0  0  1  0  0  0  0  0999 V2000
   46.7430   34.5480   42.2890 N   0  0  0  0  0  0  0  0  0  0  0  0
   48.2000   34.5670   42.3070 C   0  0  0  0  0  0  0  0  0  0  0  0
   48.5600   35.3370   41.0180 C   0  0  0  0  0  0  0  0  0  0  0  0
   48.1730   34.5140   39.8320 C   0  0  0  0  0  0  0  0  0  0  0  0
   46.8300   33.8750   39.9390 C   0  0  0  0  0  0  0  0  0  0  0  0
   45.9730   34.3230   41.0880 C   0  0  1  0  0  0  0  0  0  0  0  0
   48.6100   33.5390   42.2410 H   0  0  0  0  0  0  0  0  0  0  0  0
   48.5640   35.1510   43.1650 H   0  0  0  0  0  0  0  0  0  0  0  0
   49.6710   35.4420   41.0690 H   0  0  0  0  0  0  0  0  0  0  0  0
   48.0520   36.3190   41.0790 H   0  0  0  0  0  0  0  0  0  0  0  0
   48.9440   33.6980   39.7480 H   0  0  0  0  0  0  0  0  0  0  0  0
   48.3210   35.1270   38.9210 H   0  0  0  0  0  0  0  0  0  0  0  0
   46.2660   34.1480   38.9980 H   0  0  0  0  0  0  0  0  0  0  0  0
   46.8770   32.7650   39.9250 H   0  0  0  0  0  0  0  0  0  0  0  0
   45.5520   35.3070   40.8070 H   0  0  0  0  0  0  0  0  0  0  0  0
   44.4730   36.0060   44.8850 C   0  0  0  0  0  0  0  0  0  0  0  0
   45.1530   35.8840   43.6660 C   0  0  0  0  0  0  0  0  0  0  0  0
   46.0050   34.7600   43.5000 C   0  0  0  0  0  0  0  0  0  0  0  0
   46.1100   33.8710   44.5330 N   0  0  0  0  0  0  0  0  0  0  0  0
   45.4320   34.0350   45.6900 C   0  0  0  0  0  0  0  0  0  0  0  0
   44.6100   35.1110   45.8570 N   0  0  0  0  0  0  0  0  0  0  0  0
   43.8740   36.9040   44.8490 H   0  0  0  0  0  0  0  0  0  0  0  0
   45.1170   36.5400   42.8190 H   0  0  0  0  0  0  0  0  0  0  0  0
   45.4920   33.3590   46.5140 H   0  0  0  0  0  0  0  0  0  0  0  0
   45.0430   33.3310   41.3390 O   0  0  0  0  0  0  0  0  0  0  0  0
   41.4700   31.0240   42.4040 H   0  0  0  0  0  0  0  0  0  0  0  0
   41.8720   31.9200   42.0640 N   0  0  0  0  0  0  0  0  0  0  0  0
   43.2080   32.1480   41.8850 C   0  0  0  0  0  3  0  0  0  0  0  0
   43.6850   33.3840   41.4220 C   0  0  0  0  0  0  0  0  0  0  0  0
   42.7210   34.3370   41.1660 C   0  0  0  0  0  0  0  0  0  0  0  0
   43.2390   35.4070   40.7570 O   0  0  0  0  0  0  0  0  0  0  0  0
   41.4200   34.0600   41.3580 N   0  0  0  0  0  0  0  0  0  0  0  0
   40.9890   32.8850   41.7960 C   0  0  0  0  0  0  0  0  0  0  0  0
   39.7410   32.7400   41.9390 O   0  0  0  0  0  0  0  0  0  0  0  0
   40.7790   34.8750   41.1240 H   0  0  0  0  0  0  0  0  0  0  0  0
  1  2  1  0  0  0  0
  1 18  1  0  0  0  0
  2  8  1  0  0  0  0
  3  9  1  0  0  0  0
  3 10  1  0  0  0  0
  3  2  1  0  0  0  0
  4  5  1  0  0  0  0
  4  3  1  0  0  0  0
  5  6  1  0  0  0  0
  6 15  1  6  0  0  0
  6 25  1  0  0  0  0
  6  1  1  0  0  0  0
  7  2  1  0  0  0  0
 11  4  1  0  0  0  0
 12  4  1  0  0  0  0
 13  5  1  0  0  0  0
 14  5  1  0  0  0  0
 16 21  1  0  0  0  0
 17 16  2  0  0  0  0
 18 17  1  0  0  0  0
 18 19  2  0  0  0  0
 19 20  1  0  0  0  0
 20 21  2  0  0  0  0
 20 24  1  0  0  0  0
 22 16  1  0  0  0  0
 23 17  1  0  0  0  0
 25 29  1  0  0  0  0
 27 26  1  0  0  0  0
 28 27  1  0  0  0  0
 29 28  2  0  0  0  0
 30 32  1  0  0  0  0
 30 29  1  0  0  0  0
 31 30  2  0  0  0  0
 32 33  1  0  0  0  0
 33 34  2  0  0  0  0
 33 27  1  0  0  0  0
 35 32  1  0  0  0  0
M  END
>  <minimizedAffinity>
-6.18986893

>  <minimizedRMSD>
0.481372774

$$$$
