
 OpenBabel03252502253D

 35 37  0  0  1  0  0  0  0  0999 V2000
   46.6770   34.5010   42.2730 N   0  0  0  0  0  0  0  0  0  0  0  0
   48.1280   34.3670   42.2960 C   0  0  0  0  0  0  0  0  0  0  0  0
   48.5750   35.1410   41.0360 C   0  0  0  0  0  0  0  0  0  0  0  0
   48.1110   34.4050   39.8210 C   0  0  0  0  0  0  0  0  0  0  0  0
   46.7080   33.9070   39.9010 C   0  0  0  0  0  0  0  0  0  0  0  0
   45.8960   34.4000   41.0630 C   0  0  1  0  0  0  0  0  0  0  0  0
   48.4290   33.3050   42.1940 H   0  0  0  0  0  0  0  0  0  0  0  0
   48.5450   34.8790   43.1760 H   0  0  0  0  0  0  0  0  0  0  0  0
   49.6910   35.1280   41.0940 H   0  0  0  0  0  0  0  0  0  0  0  0
   48.1710   36.1680   41.1320 H   0  0  0  0  0  0  0  0  0  0  0  0
   48.7940   33.5170   39.7100 H   0  0  0  0  0  0  0  0  0  0  0  0
   48.3280   35.0310   38.9330 H   0  0  0  0  0  0  0  0  0  0  0  0
   46.1820   34.2700   38.9690 H   0  0  0  0  0  0  0  0  0  0  0  0
   46.6400   32.7990   39.8470 H   0  0  0  0  0  0  0  0  0  0  0  0
   45.5810   35.4320   40.8160 H   0  0  0  0  0  0  0  0  0  0  0  0
   44.4750   36.0480   44.8760 C   0  0  0  0  0  0  0  0  0  0  0  0
   45.1390   35.8950   43.6520 C   0  0  0  0  0  0  0  0  0  0  0  0
   45.9580   34.7460   43.4890 C   0  0  0  0  0  0  0  0  0  0  0  0
   46.0480   33.8640   44.5300 N   0  0  0  0  0  0  0  0  0  0  0  0
   45.3860   34.0590   45.6910 C   0  0  0  0  0  0  0  0  0  0  0  0
   44.5970   35.1590   45.8560 N   0  0  0  0  0  0  0  0  0  0  0  0
   43.9010   36.9620   44.8380 H   0  0  0  0  0  0  0  0  0  0  0  0
   45.1130   36.5440   42.7990 H   0  0  0  0  0  0  0  0  0  0  0  0
   45.4350   33.3890   46.5220 H   0  0  0  0  0  0  0  0  0  0  0  0
   44.8660   33.5030   41.2760 O   0  0  0  0  0  0  0  0  0  0  0  0
   41.7080   36.2600   39.9890 H   0  0  0  0  0  0  0  0  0  0  0  0
   41.9620   35.3300   40.3790 N   0  0  0  0  0  0  0  0  0  0  0  0
   43.2440   34.9170   40.6150 C   0  0  0  0  0  3  0  0  0  0  0  0
   43.5180   33.6460   41.1450 C   0  0  0  0  0  0  0  0  0  0  0  0
   42.4170   32.8580   41.4040 C   0  0  0  0  0  0  0  0  0  0  0  0
   42.7570   31.7420   41.8740 O   0  0  0  0  0  0  0  0  0  0  0  0
   41.1770   33.3130   41.1530 N   0  0  0  0  0  0  0  0  0  0  0  0
   40.9390   34.5180   40.6530 C   0  0  0  0  0  0  0  0  0  0  0  0
   39.7310   34.8370   40.4590 O   0  0  0  0  0  0  0  0  0  0  0  0
   40.4150   32.6130   41.3960 H   0  0  0  0  0  0  0  0  0  0  0  0
  1  2  1  0  0  0  0
  1 18  1  0  0  0  0
  2  8  1  0  0  0  0
  3  9  1  0  0  0  0
  3 10  1  0  0  0  0
  3  2  1  0  0  0  0
  4  5  1  0  0  0  0
  4  3  1  0  0  0  0
  5  6  1  0  0  0  0
  6 15  1  6  0  0  0
  6 25  1  0  0  0  0
  6  1  1  0  0  0  0
  7  2  1  0  0  0  0
 11  4  1  0  0  0  0
 12  4  1  0  0  0  0
 13  5  1  0  0  0  0
 14  5  1  0  0  0  0
 16 21  1  0  0  0  0
 17 16  2  0  0  0  0
 18 17  1  0  0  0  0
 18 19  2  0  0  0  0
 19 20  1  0  0  0  0
 20 21  2  0  0  0  0
 20 24  1  0  0  0  0
 22 16  1  0  0  0  0
 23 17  1  0  0  0  0
 26 27  1  0  0  0  0
 27 28  1  0  0  0  0
 27 33  1  0  0  0  0
 28 29  2  0  0  0  0
 29 25  1  0  0  0  0
 29 30  1  0  0  0  0
 30 31  2  0  0  0  0
 32 35  1  0  0  0  0
 32 30  1  0  0  0  0
 33 32  1  0  0  0  0
 34 33  2  0  0  0  0
M  END
>  <minimizedAffinity>
-5.94876671

>  <minimizedRMSD>
0.744938672

$$$$
