
 OpenBabel03252502253D

 35 37  0  0  1  0  0  0  0  0999 V2000
   36.3960   28.8010   39.9970 N   0  0  0  0  0  0  0  0  0  0  0  0
   35.0760   29.4130   39.9390 C   0  0  0  0  0  0  0  0  0  0  0  0
   34.4710   28.8280   38.6440 C   0  0  0  0  0  0  0  0  0  0  0  0
   35.2250   29.3610   37.4690 C   0  0  0  0  0  0  0  0  0  0  0  0
   36.7070   29.3620   37.6380 C   0  0  0  0  0  0  0  0  0  0  0  0
   37.2370   28.6290   38.8360 C   0  0  1  0  0  0  0  0  0  0  0  0
   35.1530   30.5140   39.8370 H   0  0  0  0  0  0  0  0  0  0  0  0
   34.4590   29.0730   40.7850 H   0  0  0  0  0  0  0  0  0  0  0  0
   33.4230   29.2140   38.6380 H   0  0  0  0  0  0  0  0  0  0  0  0
   34.5020   27.7250   38.7460 H   0  0  0  0  0  0  0  0  0  0  0  0
   34.8860   30.4260   37.3330 H   0  0  0  0  0  0  0  0  0  0  0  0
   34.8650   28.8410   36.5600 H   0  0  0  0  0  0  0  0  0  0  0  0
   37.1360   28.8400   36.7310 H   0  0  0  0  0  0  0  0  0  0  0  0
   37.1450   30.3830   37.6060 H   0  0  0  0  0  0  0  0  0  0  0  0
   37.2030   27.5510   38.5910 H   0  0  0  0  0  0  0  0  0  0  0  0
   37.6330   26.5920   42.7550 C   0  0  0  0  0  0  0  0  0  0  0  0
   37.1180   26.9510   41.5040 C   0  0  0  0  0  0  0  0  0  0  0  0
   36.9190   28.3340   41.2480 C   0  0  0  0  0  0  0  0  0  0  0  0
   37.2410   29.2260   42.2340 N   0  0  0  0  0  0  0  0  0  0  0  0
   37.7350   28.8260   43.4260 C   0  0  0  0  0  0  0  0  0  0  0  0
   37.9300   27.5000   43.6790 N   0  0  0  0  0  0  0  0  0  0  0  0
   37.7240   25.5160   42.7880 H   0  0  0  0  0  0  0  0  0  0  0  0
   36.8460   26.3080   40.6900 H   0  0  0  0  0  0  0  0  0  0  0  0
   37.9960   29.4970   44.2160 H   0  0  0  0  0  0  0  0  0  0  0  0
   38.4940   29.1310   39.1220 O   0  0  0  0  0  0  0  0  0  0  0  0
   41.6380   30.7660   36.5400 H   0  0  0  0  0  0  0  0  0  0  0  0
   40.8830   30.9460   37.2330 N   0  0  0  0  0  0  0  0  0  0  0  0
   40.1070   29.9720   37.7970 C   0  0  0  0  0  3  0  0  0  0  0  0
   39.1030   30.2830   38.7280 C   0  0  0  0  0  0  0  0  0  0  0  0
   38.9600   31.6230   39.0270 C   0  0  0  0  0  0  0  0  0  0  0  0
   38.0420   31.8050   39.8650 O   0  0  0  0  0  0  0  0  0  0  0  0
   39.7510   32.5390   38.4430 N   0  0  0  0  0  0  0  0  0  0  0  0
   40.6950   32.2260   37.5650 C   0  0  0  0  0  0  0  0  0  0  0  0
   41.3770   33.1730   37.0810 O   0  0  0  0  0  0  0  0  0  0  0  0
   39.5420   33.5340   38.7550 H   0  0  0  0  0  0  0  0  0  0  0  0
  1 18  1  0  0  0  0
  2  1  1  0  0  0  0
  2  8  1  0  0  0  0
  3 10  1  0  0  0  0
  3  2  1  0  0  0  0
  4  5  1  0  0  0  0
  4  3  1  0  0  0  0
  5  6  1  0  0  0  0
  6 15  1  6  0  0  0
  6 25  1  0  0  0  0
  6  1  1  0  0  0  0
  7  2  1  0  0  0  0
  9  3  1  0  0  0  0
 11  4  1  0  0  0  0
 12  4  1  0  0  0  0
 13  5  1  0  0  0  0
 14  5  1  0  0  0  0
 16 22  1  0  0  0  0
 16 21  1  0  0  0  0
 17 16  2  0  0  0  0
 18 17  1  0  0  0  0
 18 19  2  0  0  0  0
 19 20  1  0  0  0  0
 20 21  2  0  0  0  0
 20 24  1  0  0  0  0
 23 17  1  0  0  0  0
 26 27  1  0  0  0  0
 27 33  1  0  0  0  0
 27 28  1  0  0  0  0
 28 29  2  0  0  0  0
 29 30  1  0  0  0  0
 29 25  1  0  0  0  0
 30 31  2  0  0  0  0
 32 35  1  0  0  0  0
 32 30  1  0  0  0  0
 33 32  1  0  0  0  0
 34 33  2  0  0  0  0
M  END
>  <minimizedAffinity>
-5.1500411

$$$$

 OpenBabel03252502253D

 35 37  0  0  1  0  0  0  0  0999 V2000
   36.4200   28.8670   40.0470 N   0  0  0  0  0  0  0  0  0  0  0  0
   34.9910   29.1410   39.9730 C   0  0  0  0  0  0  0  0  0  0  0  0
   34.5990   28.6020   38.5800 C   0  0  0  0  0  0  0  0  0  0  0  0
   35.2380   29.4520   37.5290 C   0  0  0  0  0  0  0  0  0  0  0  0
   36.6650   29.7910   37.7970 C   0  0  0  0  0  0  0  0  0  0  0  0
   37.3180   29.0590   38.9340 C   0  0  1  0  0  0  0  0  0  0  0  0
   34.7950   30.2320   40.0070 H   0  0  0  0  0  0  0  0  0  0  0  0
   34.4490   28.5540   40.7290 H   0  0  0  0  0  0  0  0  0  0  0  0
   33.4890   28.7180   38.5480 H   0  0  0  0  0  0  0  0  0  0  0  0
   34.9010   27.5360   38.5530 H   0  0  0  0  0  0  0  0  0  0  0  0
   34.6490   30.4110   37.4970 H   0  0  0  0  0  0  0  0  0  0  0  0
   35.0530   28.9830   36.5430 H   0  0  0  0  0  0  0  0  0  0  0  0
   37.2440   29.5120   36.8660 H   0  0  0  0  0  0  0  0  0  0  0  0
   36.8350   30.8830   37.9150 H   0  0  0  0  0  0  0  0  0  0  0  0
   37.5630   28.0460   38.5620 H   0  0  0  0  0  0  0  0  0  0  0  0
   37.9540   26.6480   42.6430 C   0  0  0  0  0  0  0  0  0  0  0  0
   37.4010   27.0280   41.4140 C   0  0  0  0  0  0  0  0  0  0  0  0
   36.9970   28.3820   41.2670 C   0  0  0  0  0  0  0  0  0  0  0  0
   37.1710   29.2270   42.3280 N   0  0  0  0  0  0  0  0  0  0  0  0
   37.7110   28.8090   43.4940 C   0  0  0  0  0  0  0  0  0  0  0  0
   38.1030   27.5110   43.6430 N   0  0  0  0  0  0  0  0  0  0  0  0
   38.2070   25.5990   42.5910 H   0  0  0  0  0  0  0  0  0  0  0  0
   37.2370   26.4220   40.5450 H   0  0  0  0  0  0  0  0  0  0  0  0
   37.8610   29.4430   44.3400 H   0  0  0  0  0  0  0  0  0  0  0  0
   38.3980   29.8100   39.3610 O   0  0  0  0  0  0  0  0  0  0  0  0
   40.0440   33.8150   38.6730 H   0  0  0  0  0  0  0  0  0  0  0  0
   40.0700   32.8000   38.4480 N   0  0  0  0  0  0  0  0  0  0  0  0
   39.2450   31.8650   39.0070 C   0  0  0  0  0  3  0  0  0  0  0  0
   39.3310   30.5080   38.6570 C   0  0  0  0  0  0  0  0  0  0  0  0
   40.2960   30.1930   37.7220 C   0  0  0  0  0  0  0  0  0  0  0  0
   40.3000   28.9620   37.4720 O   0  0  0  0  0  0  0  0  0  0  0  0
   41.0820   31.1520   37.2050 N   0  0  0  0  0  0  0  0  0  0  0  0
   40.9840   32.4300   37.5470 C   0  0  0  0  0  0  0  0  0  0  0  0
   41.7780   33.2430   36.9930 O   0  0  0  0  0  0  0  0  0  0  0  0
   41.7840   30.7830   36.4960 H   0  0  0  0  0  0  0  0  0  0  0  0
  1 18  1  0  0  0  0
  2  7  1  0  0  0  0
  2  1  1  0  0  0  0
  2  8  1  0  0  0  0
  3  2  1  0  0  0  0
  4  5  1  0  0  0  0
  4  3  1  0  0  0  0
  5 14  1  0  0  0  0
  5  6  1  0  0  0  0
  6 15  1  6  0  0  0
  6 25  1  0  0  0  0
  6  1  1  0  0  0  0
  9  3  1  0  0  0  0
 10  3  1  0  0  0  0
 11  4  1  0  0  0  0
 12  4  1  0  0  0  0
 13  5  1  0  0  0  0
 16 21  1  0  0  0  0
 17 16  2  0  0  0  0
 18 17  1  0  0  0  0
 18 19  2  0  0  0  0
 19 20  1  0  0  0  0
 20 21  2  0  0  0  0
 20 24  1  0  0  0  0
 22 16  1  0  0  0  0
 23 17  1  0  0  0  0
 27 26  1  0  0  0  0
 27 28  1  0  0  0  0
 29 28  2  0  0  0  0
 29 25  1  0  0  0  0
 30 29  1  0  0  0  0
 31 30  2  0  0  0  0
 32 33  1  0  0  0  0
 32 30  1  0  0  0  0
 33 27  1  0  0  0  0
 34 33  2  0  0  0  0
 35 32  1  0  0  0  0
M  END
>  <minimizedAffinity>
-5.13910866

$$$$

 OpenBabel03252502253D

 35 37  0  0  1  0  0  0  0  0999 V2000
   37.4760   30.6220   39.6460 N   0  0  0  0  0  0  0  0  0  0  0  0
   37.4930   29.9600   38.3480 C   0  0  0  0  0  0  0  0  0  0  0  0
   36.0140   29.5740   38.1280 C   0  0  0  0  0  0  0  0  0  0  0  0
   35.6300   28.5260   39.1210 C   0  0  0  0  0  0  0  0  0  0  0  0
   36.1080   28.7880   40.5090 C   0  0  0  0  0  0  0  0  0  0  0  0
   36.6920   30.1470   40.7620 C   0  0  1  0  0  0  0  0  0  0  0  0
   38.1060   29.0380   38.3820 H   0  0  0  0  0  0  0  0  0  0  0  0
   37.7790   30.6720   37.5600 H   0  0  0  0  0  0  0  0  0  0  0  0
   35.9970   29.1520   37.0940 H   0  0  0  0  0  0  0  0  0  0  0  0
   35.4250   30.5100   38.1990 H   0  0  0  0  0  0  0  0  0  0  0  0
   36.0970   27.5650   38.7640 H   0  0  0  0  0  0  0  0  0  0  0  0
   34.5400   28.3490   39.0350 H   0  0  0  0  0  0  0  0  0  0  0  0
   35.2060   28.6990   41.1840 H   0  0  0  0  0  0  0  0  0  0  0  0
   36.8110   28.0100   40.8780 H   0  0  0  0  0  0  0  0  0  0  0  0
   35.8400   30.8470   40.8560 H   0  0  0  0  0  0  0  0  0  0  0  0
   38.5040   34.1610   40.3060 C   0  0  0  0  0  0  0  0  0  0  0  0
   37.6560   33.0650   40.1070 C   0  0  0  0  0  0  0  0  0  0  0  0
   38.2600   31.8030   39.8620 C   0  0  0  0  0  0  0  0  0  0  0  0
   39.6250   31.7340   39.8380 N   0  0  0  0  0  0  0  0  0  0  0  0
   40.3990   32.8230   40.0370 C   0  0  0  0  0  0  0  0  0  0  0  0
   39.8270   34.0390   40.2730 N   0  0  0  0  0  0  0  0  0  0  0  0
   37.8940   35.0350   40.4780 H   0  0  0  0  0  0  0  0  0  0  0  0
   36.5830   33.0470   40.1130 H   0  0  0  0  0  0  0  0  0  0  0  0
   41.4670   32.8030   40.0240 H   0  0  0  0  0  0  0  0  0  0  0  0
   37.5120   30.0600   41.8720 O   0  0  0  0  0  0  0  0  0  0  0  0
   41.3180   27.8930   42.0720 H   0  0  0  0  0  0  0  0  0  0  0  0
   40.3280   27.9680   42.3830 N   0  0  0  0  0  0  0  0  0  0  0  0
   39.4640   28.9460   41.9770 C   0  0  0  0  0  3  0  0  0  0  0  0
   38.1390   28.9900   42.4350 C   0  0  0  0  0  0  0  0  0  0  0  0
   37.7770   27.9890   43.3130 C   0  0  0  0  0  0  0  0  0  0  0  0
   36.5770   28.1080   43.6670 O   0  0  0  0  0  0  0  0  0  0  0  0
   38.6660   27.0510   43.6800 N   0  0  0  0  0  0  0  0  0  0  0  0
   39.9160   27.0260   43.2350 C   0  0  0  0  0  0  0  0  0  0  0  0
   40.6630   26.0940   43.6510 O   0  0  0  0  0  0  0  0  0  0  0  0
   38.2670   26.3360   44.3580 H   0  0  0  0  0  0  0  0  0  0  0  0
  1 18  1  0  0  0  0
  1  6  1  0  0  0  0
  2  7  1  0  0  0  0
  2  1  1  0  0  0  0
  3 10  1  0  0  0  0
  3  2  1  0  0  0  0
  3  4  1  0  0  0  0
  4  5  1  0  0  0  0
  5  6  1  0  0  0  0
  5 14  1  0  0  0  0
  5 13  1  0  0  0  0
  6 15  1  1  0  0  0
  6 25  1  0  0  0  0
  8  2  1  0  0  0  0
  9  3  1  0  0  0  0
 11  4  1  0  0  0  0
 12  4  1  0  0  0  0
 16 22  1  0  0  0  0
 17 23  1  0  0  0  0
 17 16  2  0  0  0  0
 18 17  1  0  0  0  0
 19 18  2  0  0  0  0
 19 20  1  0  0  0  0
 20 21  2  0  0  0  0
 21 16  1  0  0  0  0
 24 20  1  0  0  0  0
 25 29  1  0  0  0  0
 26 27  1  0  0  0  0
 27 33  1  0  0  0  0
 28 27  1  0  0  0  0
 28 29  2  0  0  0  0
 29 30  1  0  0  0  0
 30 31  2  0  0  0  0
 30 32  1  0  0  0  0
 32 35  1  0  0  0  0
 33 34  2  0  0  0  0
 33 32  1  0  0  0  0
M  END
>  <minimizedAffinity>
-5.12452888

$$$$

 OpenBabel03252502253D

 35 37  0  0  1  0  0  0  0  0999 V2000
   38.1550   26.0490   41.4870 N   0  0  0  0  0  0  0  0  0  0  0  0
   39.5690   25.7960   41.7320 C   0  0  0  0  0  0  0  0  0  0  0  0
   39.6860   25.9030   43.2680 C   0  0  0  0  0  0  0  0  0  0  0  0
   39.4430   27.3190   43.6790 C   0  0  0  0  0  0  0  0  0  0  0  0
   38.2860   27.9680   42.9970 C   0  0  0  0  0  0  0  0  0  0  0  0
   37.4030   27.0630   42.1880 C   0  0  1  0  0  0  0  0  0  0  0  0
   40.1980   26.5800   41.2650 H   0  0  0  0  0  0  0  0  0  0  0  0
   39.8290   24.7670   41.4420 H   0  0  0  0  0  0  0  0  0  0  0  0
   40.7460   25.6160   43.4780 H   0  0  0  0  0  0  0  0  0  0  0  0
   38.9710   25.1730   43.6960 H   0  0  0  0  0  0  0  0  0  0  0  0
   40.3750   27.8910   43.4100 H   0  0  0  0  0  0  0  0  0  0  0  0
   39.4070   27.3580   44.7860 H   0  0  0  0  0  0  0  0  0  0  0  0
   37.6340   28.4030   43.8110 H   0  0  0  0  0  0  0  0  0  0  0  0
   38.5840   28.8420   42.3800 H   0  0  0  0  0  0  0  0  0  0  0  0
   36.7570   26.5220   42.9060 H   0  0  0  0  0  0  0  0  0  0  0  0
   35.8790   23.5540   39.8700 C   0  0  0  0  0  0  0  0  0  0  0  0
   36.5270   24.2580   40.8930 C   0  0  0  0  0  0  0  0  0  0  0  0
   37.4440   25.2740   40.5130 C   0  0  0  0  0  0  0  0  0  0  0  0
   37.6370   25.5030   39.1790 N   0  0  0  0  0  0  0  0  0  0  0  0
   36.9860   24.7940   38.2300 C   0  0  0  0  0  0  0  0  0  0  0  0
   36.1030   23.8170   38.5870 N   0  0  0  0  0  0  0  0  0  0  0  0
   35.2230   22.8260   40.3230 H   0  0  0  0  0  0  0  0  0  0  0  0
   36.4220   24.1310   41.9530 H   0  0  0  0  0  0  0  0  0  0  0  0
   37.1150   24.9490   37.1810 H   0  0  0  0  0  0  0  0  0  0  0  0
   36.7350   27.8390   41.2590 O   0  0  0  0  0  0  0  0  0  0  0  0
   35.3850   32.0110   41.2540 H   0  0  0  0  0  0  0  0  0  0  0  0
   36.0760   31.3070   40.9240 N   0  0  0  0  0  0  0  0  0  0  0  0
   36.0440   29.9810   41.2550 C   0  0  0  0  0  3  0  0  0  0  0  0
   37.0080   29.0810   40.7740 C   0  0  0  0  0  0  0  0  0  0  0  0
   37.9750   29.6260   39.9540 C   0  0  0  0  0  0  0  0  0  0  0  0
   38.7910   28.7500   39.5720 O   0  0  0  0  0  0  0  0  0  0  0  0
   37.9600   30.9360   39.6600 N   0  0  0  0  0  0  0  0  0  0  0  0
   37.0390   31.7710   40.1240 C   0  0  0  0  0  0  0  0  0  0  0  0
   37.1270   32.9840   39.7790 O   0  0  0  0  0  0  0  0  0  0  0  0
   38.7560   31.2320   39.0200 H   0  0  0  0  0  0  0  0  0  0  0  0
  1  2  1  0  0  0  0
  1  6  1  0  0  0  0
  2  3  1  0  0  0  0
  3  9  1  0  0  0  0
  3  4  1  0  0  0  0
  3 10  1  0  0  0  0
  4 12  1  0  0  0  0
  5  4  1  0  0  0  0
  5 13  1  0  0  0  0
  6 15  1  1  0  0  0
  6  5  1  0  0  0  0
  7  2  1  0  0  0  0
  8  2  1  0  0  0  0
 11  4  1  0  0  0  0
 14  5  1  0  0  0  0
 16 22  1  0  0  0  0
 16 17  1  0  0  0  0
 17 23  1  0  0  0  0
 18 17  2  0  0  0  0
 18  1  1  0  0  0  0
 19 18  1  0  0  0  0
 20 21  1  0  0  0  0
 20 19  2  0  0  0  0
 21 16  2  0  0  0  0
 24 20  1  0  0  0  0
 25  6  1  0  0  0  0
 27 26  1  0  0  0  0
 27 28  1  0  0  0  0
 29 28  2  0  0  0  0
 29 25  1  0  0  0  0
 30 29  1  0  0  0  0
 31 30  2  0  0  0  0
 32 30  1  0  0  0  0
 32 33  1  0  0  0  0
 33 27  1  0  0  0  0
 34 33  2  0  0  0  0
 35 32  1  0  0  0  0
M  END
>  <minimizedAffinity>
-5.11837006

$$$$

 OpenBabel03252502253D

 35 37  0  0  1  0  0  0  0  0999 V2000
   37.4280   28.7740   40.8380 N   0  0  0  0  0  0  0  0  0  0  0  0
   38.4980   27.7940   40.7080 C   0  0  0  0  0  0  0  0  0  0  0  0
   38.7420   27.3410   42.1640 C   0  0  0  0  0  0  0  0  0  0  0  0
   39.3190   28.4800   42.9400 C   0  0  0  0  0  0  0  0  0  0  0  0
   38.6520   29.7910   42.6950 C   0  0  0  0  0  0  0  0  0  0  0  0
   37.3780   29.7480   41.9030 C   0  0  1  0  0  0  0  0  0  0  0  0
   39.4210   28.2660   40.3160 H   0  0  0  0  0  0  0  0  0  0  0  0
   38.1500   26.9220   40.1340 H   0  0  0  0  0  0  0  0  0  0  0  0
   39.4940   26.5190   42.0680 H   0  0  0  0  0  0  0  0  0  0  0  0
   37.7740   26.9680   42.5500 H   0  0  0  0  0  0  0  0  0  0  0  0
   40.3950   28.5680   42.6200 H   0  0  0  0  0  0  0  0  0  0  0  0
   39.3730   28.1830   44.0050 H   0  0  0  0  0  0  0  0  0  0  0  0
   38.3820   30.2120   43.7090 H   0  0  0  0  0  0  0  0  0  0  0  0
   39.3360   30.5480   42.2520 H   0  0  0  0  0  0  0  0  0  0  0  0
   36.5850   29.4030   42.5940 H   0  0  0  0  0  0  0  0  0  0  0  0
   35.4740   28.5980   37.6490 C   0  0  0  0  0  0  0  0  0  0  0  0
   36.5820   28.5480   38.5050 C   0  0  0  0  0  0  0  0  0  0  0  0
   36.3580   28.8030   39.8840 C   0  0  0  0  0  0  0  0  0  0  0  0
   35.0820   29.0800   40.2910 N   0  0  0  0  0  0  0  0  0  0  0  0
   34.0470   29.1160   39.4240 C   0  0  0  0  0  0  0  0  0  0  0  0
   34.2530   28.8720   38.0970 N   0  0  0  0  0  0  0  0  0  0  0  0
   35.8110   28.3830   36.6460 H   0  0  0  0  0  0  0  0  0  0  0  0
   37.6030   28.3380   38.2550 H   0  0  0  0  0  0  0  0  0  0  0  0
   33.0400   29.3290   39.7100 H   0  0  0  0  0  0  0  0  0  0  0  0
   37.1760   30.9990   41.3490 O   0  0  0  0  0  0  0  0  0  0  0  0
   40.9210   33.2770   41.4810 H   0  0  0  0  0  0  0  0  0  0  0  0
   40.0930   32.9710   40.9300 N   0  0  0  0  0  0  0  0  0  0  0  0
   39.0980   32.1680   41.4150 C   0  0  0  0  0  3  0  0  0  0  0  0
   38.0050   31.7930   40.6170 C   0  0  0  0  0  0  0  0  0  0  0  0
   38.0090   32.2860   39.3280 C   0  0  0  0  0  0  0  0  0  0  0  0
   36.9970   31.9000   38.6920 O   0  0  0  0  0  0  0  0  0  0  0  0
   39.0130   33.0720   38.9030 N   0  0  0  0  0  0  0  0  0  0  0  0
   40.0370   33.4170   39.6720 C   0  0  0  0  0  0  0  0  0  0  0  0
   40.9230   34.1610   39.1630 O   0  0  0  0  0  0  0  0  0  0  0  0
   38.9000   33.3870   37.8940 H   0  0  0  0  0  0  0  0  0  0  0  0
  1  6  1  0  0  0  0
  2  1  1  0  0  0  0
  2  3  1  0  0  0  0
  3 10  1  0  0  0  0
  3  4  1  0  0  0  0
  4 12  1  0  0  0  0
  5  4  1  0  0  0  0
  5 13  1  0  0  0  0
  6 15  1  1  0  0  0
  6  5  1  0  0  0  0
  7  2  1  0  0  0  0
  8  2  1  0  0  0  0
  9  3  1  0  0  0  0
 11  4  1  0  0  0  0
 14  5  1  0  0  0  0
 16 21  2  0  0  0  0
 16 17  1  0  0  0  0
 17 18  2  0  0  0  0
 18 19  1  0  0  0  0
 18  1  1  0  0  0  0
 20 24  1  0  0  0  0
 20 19  2  0  0  0  0
 21 20  1  0  0  0  0
 22 16  1  0  0  0  0
 23 17  1  0  0  0  0
 25  6  1  0  0  0  0
 27 28  1  0  0  0  0
 27 26  1  0  0  0  0
 29 25  1  0  0  0  0
 29 28  2  0  0  0  0
 30 29  1  0  0  0  0
 31 30  2  0  0  0  0
 32 30  1  0  0  0  0
 32 33  1  0  0  0  0
 33 27  1  0  0  0  0
 34 33  2  0  0  0  0
 35 32  1  0  0  0  0
M  END
>  <minimizedAffinity>
-5.09342861

$$$$

 OpenBabel03252502253D

 35 37  0  0  1  0  0  0  0  0999 V2000
   39.3940   27.2490   42.1910 N   0  0  0  0  0  0  0  0  0  0  0  0
   39.4290   25.9530   42.8560 C   0  0  0  0  0  0  0  0  0  0  0  0
   38.4270   25.1090   42.0400 C   0  0  0  0  0  0  0  0  0  0  0  0
   37.0480   25.6450   42.2540 C   0  0  0  0  0  0  0  0  0  0  0  0
   36.9520   27.1320   42.1990 C   0  0  0  0  0  0  0  0  0  0  0  0
   38.1740   27.8580   41.7170 C   0  0  1  0  0  0  0  0  0  0  0  0
   39.0680   26.0350   43.9010 H   0  0  0  0  0  0  0  0  0  0  0  0
   40.4240   25.4960   42.7500 H   0  0  0  0  0  0  0  0  0  0  0  0
   38.5160   24.0860   42.4800 H   0  0  0  0  0  0  0  0  0  0  0  0
   38.7690   25.1340   40.9870 H   0  0  0  0  0  0  0  0  0  0  0  0
   36.7350   25.3100   43.2820 H   0  0  0  0  0  0  0  0  0  0  0  0
   36.3590   25.1130   41.5700 H   0  0  0  0  0  0  0  0  0  0  0  0
   36.1270   27.3760   41.4650 H   0  0  0  0  0  0  0  0  0  0  0  0
   36.6120   27.5790   43.1590 H   0  0  0  0  0  0  0  0  0  0  0  0
   38.1910   27.7560   40.6150 H   0  0  0  0  0  0  0  0  0  0  0  0
   42.5770   29.1370   42.7580 C   0  0  0  0  0  0  0  0  0  0  0  0
   41.4090   28.4280   43.0650 C   0  0  0  0  0  0  0  0  0  0  0  0
   40.6080   27.9820   41.9790 C   0  0  0  0  0  0  0  0  0  0  0  0
   41.0230   28.2700   40.7090 N   0  0  0  0  0  0  0  0  0  0  0  0
   42.1610   28.9590   40.4680 C   0  0  0  0  0  0  0  0  0  0  0  0
   42.9360   29.3900   41.5040 N   0  0  0  0  0  0  0  0  0  0  0  0
   43.0660   29.4000   43.6840 H   0  0  0  0  0  0  0  0  0  0  0  0
   41.0260   28.1680   44.0320 H   0  0  0  0  0  0  0  0  0  0  0  0
   42.5120   29.2000   39.4880 H   0  0  0  0  0  0  0  0  0  0  0  0
   38.1150   29.1560   42.1900 O   0  0  0  0  0  0  0  0  0  0  0  0
   39.7300   33.0280   40.9140 H   0  0  0  0  0  0  0  0  0  0  0  0
   38.9150   32.3820   40.9560 N   0  0  0  0  0  0  0  0  0  0  0  0
   38.9420   31.1430   41.5340 C   0  0  0  0  0  3  0  0  0  0  0  0
   37.8050   30.3210   41.5570 C   0  0  0  0  0  0  0  0  0  0  0  0
   36.6760   30.8470   40.9630 C   0  0  0  0  0  0  0  0  0  0  0  0
   35.7120   30.0440   41.0320 O   0  0  0  0  0  0  0  0  0  0  0  0
   36.7050   32.0710   40.4100 N   0  0  0  0  0  0  0  0  0  0  0  0
   37.7890   32.8340   40.3980 C   0  0  0  0  0  0  0  0  0  0  0  0
   37.6970   33.9680   39.8480 O   0  0  0  0  0  0  0  0  0  0  0  0
   35.7740   32.3620   39.9860 H   0  0  0  0  0  0  0  0  0  0  0  0
  1  2  1  0  0  0  0
  2  7  1  0  0  0  0
  3  4  1  0  0  0  0
  3  9  1  0  0  0  0
  3  2  1  0  0  0  0
  4 11  1  0  0  0  0
  5  4  1  0  0  0  0
  5 14  1  0  0  0  0
  6 15  1  6  0  0  0
  6 25  1  0  0  0  0
  6  1  1  0  0  0  0
  6  5  1  0  0  0  0
  8  2  1  0  0  0  0
 10  3  1  0  0  0  0
 12  4  1  0  0  0  0
 13  5  1  0  0  0  0
 16 17  1  0  0  0  0
 16 22  1  0  0  0  0
 17 23  1  0  0  0  0
 18  1  1  0  0  0  0
 18 17  2  0  0  0  0
 19 18  1  0  0  0  0
 20 19  2  0  0  0  0
 20 21  1  0  0  0  0
 21 16  2  0  0  0  0
 24 20  1  0  0  0  0
 26 27  1  0  0  0  0
 27 28  1  0  0  0  0
 28 29  2  0  0  0  0
 29 25  1  0  0  0  0
 30 31  2  0  0  0  0
 30 29  1  0  0  0  0
 32 30  1  0  0  0  0
 33 32  1  0  0  0  0
 33 27  1  0  0  0  0
 34 33  2  0  0  0  0
 35 32  1  0  0  0  0
M  END
>  <minimizedAffinity>
-5.07072973

$$$$

 OpenBabel03252502253D

 35 37  0  0  1  0  0  0  0  0999 V2000
   37.8750   29.1870   41.3600 N   0  0  0  0  0  0  0  0  0  0  0  0
   37.0000   28.0270   41.4630 C   0  0  0  0  0  0  0  0  0  0  0  0
   36.7800   27.8840   42.9850 C   0  0  0  0  0  0  0  0  0  0  0  0
   38.0690   27.4880   43.6290 C   0  0  0  0  0  0  0  0  0  0  0  0
   39.2580   28.2420   43.1400 C   0  0  0  0  0  0  0  0  0  0  0  0
   38.9760   29.4260   42.2620 C   0  0  1  0  0  0  0  0  0  0  0  0
   37.5040   27.1160   41.0830 H   0  0  0  0  0  0  0  0  0  0  0  0
   36.0260   28.2400   40.9970 H   0  0  0  0  0  0  0  0  0  0  0  0
   36.0340   27.0570   43.0720 H   0  0  0  0  0  0  0  0  0  0  0  0
   36.3670   28.8480   43.3410 H   0  0  0  0  0  0  0  0  0  0  0  0
   38.2210   26.3980   43.3900 H   0  0  0  0  0  0  0  0  0  0  0  0
   37.9290   27.5100   44.7280 H   0  0  0  0  0  0  0  0  0  0  0  0
   39.7860   28.6450   44.0550 H   0  0  0  0  0  0  0  0  0  0  0  0
   40.0120   27.5900   42.6480 H   0  0  0  0  0  0  0  0  0  0  0  0
   38.6520   30.2480   42.9290 H   0  0  0  0  0  0  0  0  0  0  0  0
   37.1260   32.3810   39.5540 C   0  0  0  0  0  0  0  0  0  0  0  0
   37.3130   31.5040   40.6290 C   0  0  0  0  0  0  0  0  0  0  0  0
   37.6620   30.1600   40.3270 C   0  0  0  0  0  0  0  0  0  0  0  0
   37.7920   29.8060   39.0130 N   0  0  0  0  0  0  0  0  0  0  0  0
   37.5990   30.6920   38.0120 C   0  0  0  0  0  0  0  0  0  0  0  0
   37.2660   31.9850   38.2930 N   0  0  0  0  0  0  0  0  0  0  0  0
   36.8690   33.3520   39.9500 H   0  0  0  0  0  0  0  0  0  0  0  0
   37.2280   31.7130   41.6770 H   0  0  0  0  0  0  0  0  0  0  0  0
   37.6940   30.4480   36.9760 H   0  0  0  0  0  0  0  0  0  0  0  0
   40.1110   29.6850   41.5150 O   0  0  0  0  0  0  0  0  0  0  0  0
   42.7840   32.1480   43.9670 H   0  0  0  0  0  0  0  0  0  0  0  0
   42.3520   31.9720   43.0370 N   0  0  0  0  0  0  0  0  0  0  0  0
   41.4840   30.9500   42.7710 C   0  0  0  0  0  3  0  0  0  0  0  0
   40.9350   30.7680   41.4920 C   0  0  0  0  0  0  0  0  0  0  0  0
   41.3320   31.6820   40.5370 C   0  0  0  0  0  0  0  0  0  0  0  0
   40.7920   31.4410   39.4280 O   0  0  0  0  0  0  0  0  0  0  0  0
   42.1880   32.6680   40.8520 N   0  0  0  0  0  0  0  0  0  0  0  0
   42.6960   32.8240   42.0680 C   0  0  0  0  0  0  0  0  0  0  0  0
   43.4930   33.7890   42.2460 O   0  0  0  0  0  0  0  0  0  0  0  0
   42.4150   33.3050   40.0320 H   0  0  0  0  0  0  0  0  0  0  0  0
  1  2  1  0  0  0  0
  1  6  1  0  0  0  0
  2  3  1  0  0  0  0
  3  9  1  0  0  0  0
  3 10  1  0  0  0  0
  3  4  1  0  0  0  0
  4 12  1  0  0  0  0
  5  4  1  0  0  0  0
  5 13  1  0  0  0  0
  6 15  1  1  0  0  0
  6  5  1  0  0  0  0
  7  2  1  0  0  0  0
  8  2  1  0  0  0  0
 11  4  1  0  0  0  0
 14  5  1  0  0  0  0
 16 22  1  0  0  0  0
 16 17  1  0  0  0  0
 17 23  1  0  0  0  0
 18 17  2  0  0  0  0
 18  1  1  0  0  0  0
 19 18  1  0  0  0  0
 20 21  1  0  0  0  0
 20 19  2  0  0  0  0
 21 16  2  0  0  0  0
 24 20  1  0  0  0  0
 25  6  1  0  0  0  0
 27 26  1  0  0  0  0
 28 27  1  0  0  0  0
 29 25  1  0  0  0  0
 29 28  2  0  0  0  0
 30 32  1  0  0  0  0
 30 29  1  0  0  0  0
 31 30  2  0  0  0  0
 32 33  1  0  0  0  0
 33 34  2  0  0  0  0
 33 27  1  0  0  0  0
 35 32  1  0  0  0  0
M  END
>  <minimizedAffinity>
-5.06912422

$$$$

 OpenBabel03252502253D

 35 37  0  0  1  0  0  0  0  0999 V2000
   40.4650   32.1130   41.0070 N   0  0  0  0  0  0  0  0  0  0  0  0
   41.4320   33.2020   41.0040 C   0  0  0  0  0  0  0  0  0  0  0  0
   42.7880   32.4730   41.1230 C   0  0  0  0  0  0  0  0  0  0  0  0
   42.8840   31.8390   42.4730 C   0  0  0  0  0  0  0  0  0  0  0  0
   41.6460   31.1350   42.9120 C   0  0  0  0  0  0  0  0  0  0  0  0
   40.5790   30.9610   41.8700 C   0  0  1  0  0  0  0  0  0  0  0  0
   41.2930   33.8560   41.8890 H   0  0  0  0  0  0  0  0  0  0  0  0
   41.4130   33.7280   40.0380 H   0  0  0  0  0  0  0  0  0  0  0  0
   43.5430   33.2910   41.0260 H   0  0  0  0  0  0  0  0  0  0  0  0
   42.8430   31.7610   40.2770 H   0  0  0  0  0  0  0  0  0  0  0  0
   43.0910   32.6740   43.2000 H   0  0  0  0  0  0  0  0  0  0  0  0
   43.8020   31.2190   42.5000 H   0  0  0  0  0  0  0  0  0  0  0  0
   41.9580   30.0940   43.2230 H   0  0  0  0  0  0  0  0  0  0  0  0
   41.1980   31.5780   43.8280 H   0  0  0  0  0  0  0  0  0  0  0  0
   40.9000   30.1240   41.2210 H   0  0  0  0  0  0  0  0  0  0  0  0
   37.3010   33.1390   39.2880 C   0  0  0  0  0  0  0  0  0  0  0  0
   38.3690   33.1880   40.1920 C   0  0  0  0  0  0  0  0  0  0  0  0
   39.3360   32.1500   40.1230 C   0  0  0  0  0  0  0  0  0  0  0  0
   39.1670   31.1710   39.1830 N   0  0  0  0  0  0  0  0  0  0  0  0
   38.1170   31.1710   38.3330 C   0  0  0  0  0  0  0  0  0  0  0  0
   37.1840   32.1650   38.3920 N   0  0  0  0  0  0  0  0  0  0  0  0
   36.6640   33.9920   39.4700 H   0  0  0  0  0  0  0  0  0  0  0  0
   38.5620   33.9220   40.9500 H   0  0  0  0  0  0  0  0  0  0  0  0
   37.9560   30.4220   37.5880 H   0  0  0  0  0  0  0  0  0  0  0  0
   39.3720   30.7760   42.5210 O   0  0  0  0  0  0  0  0  0  0  0  0
   38.9870   26.5330   43.5570 H   0  0  0  0  0  0  0  0  0  0  0  0
   38.5420   27.3910   43.1720 N   0  0  0  0  0  0  0  0  0  0  0  0
   39.1720   28.5980   43.0520 C   0  0  0  0  0  3  0  0  0  0  0  0
   38.5140   29.7190   42.5220 C   0  0  0  0  0  0  0  0  0  0  0  0
   37.2050   29.5160   42.1370 C   0  0  0  0  0  0  0  0  0  0  0  0
   36.6990   30.5690   41.6760 O   0  0  0  0  0  0  0  0  0  0  0  0
   36.6340   28.3070   42.2770 N   0  0  0  0  0  0  0  0  0  0  0  0
   37.2730   27.2590   42.7790 C   0  0  0  0  0  0  0  0  0  0  0  0
   36.6320   26.1730   42.8630 O   0  0  0  0  0  0  0  0  0  0  0  0
   35.6240   28.2800   41.9440 H   0  0  0  0  0  0  0  0  0  0  0  0
  1  6  1  0  0  0  0
  2  1  1  0  0  0  0
  2  3  1  0  0  0  0
  2  7  1  0  0  0  0
  3  4  1  0  0  0  0
  4 12  1  0  0  0  0
  4  5  1  0  0  0  0
  4 11  1  0  0  0  0
  5 13  1  0  0  0  0
  5 14  1  0  0  0  0
  6 15  1  6  0  0  0
  6 25  1  0  0  0  0
  6  5  1  0  0  0  0
  8  2  1  0  0  0  0
  9  3  1  0  0  0  0
 10  3  1  0  0  0  0
 16 22  1  0  0  0  0
 16 17  1  0  0  0  0
 17 23  1  0  0  0  0
 18 17  2  0  0  0  0
 18  1  1  0  0  0  0
 19 18  1  0  0  0  0
 20 21  1  0  0  0  0
 20 19  2  0  0  0  0
 21 16  2  0  0  0  0
 24 20  1  0  0  0  0
 25 29  1  0  0  0  0
 27 26  1  0  0  0  0
 28 27  1  0  0  0  0
 29 28  2  0  0  0  0
 30 32  1  0  0  0  0
 30 29  1  0  0  0  0
 31 30  2  0  0  0  0
 32 33  1  0  0  0  0
 33 34  2  0  0  0  0
 33 27  1  0  0  0  0
 35 32  1  0  0  0  0
M  END
>  <minimizedAffinity>
-5.04849672

$$$$

 OpenBabel03252502253D

 35 37  0  0  1  0  0  0  0  0999 V2000
   38.3620   31.0040   40.9730 N   0  0  0  0  0  0  0  0  0  0  0  0
   39.4290   31.9920   40.8850 C   0  0  0  0  0  0  0  0  0  0  0  0
   38.6750   33.3370   40.9620 C   0  0  0  0  0  0  0  0  0  0  0  0
   37.8530   33.5060   39.7250 C   0  0  0  0  0  0  0  0  0  0  0  0
   37.1080   32.2840   39.3090 C   0  0  0  0  0  0  0  0  0  0  0  0
   37.0980   31.1490   40.2910 C   0  0  1  0  0  0  0  0  0  0  0  0
   39.9520   31.9240   39.9100 H   0  0  0  0  0  0  0  0  0  0  0  0
   40.0880   31.9220   41.7640 H   0  0  0  0  0  0  0  0  0  0  0  0
   39.4890   34.1010   40.9920 H   0  0  0  0  0  0  0  0  0  0  0  0
   38.0900   33.3230   41.9020 H   0  0  0  0  0  0  0  0  0  0  0  0
   38.5720   33.7770   38.9020 H   0  0  0  0  0  0  0  0  0  0  0  0
   37.2240   34.4100   39.8470 H   0  0  0  0  0  0  0  0  0  0  0  0
   36.0300   32.5930   39.1700 H   0  0  0  0  0  0  0  0  0  0  0  0
   37.4210   31.9060   38.3110 H   0  0  0  0  0  0  0  0  0  0  0  0
   36.3580   31.4100   41.0720 H   0  0  0  0  0  0  0  0  0  0  0  0
   39.7270   27.8170   42.3850 C   0  0  0  0  0  0  0  0  0  0  0  0
   39.6390   28.9470   41.5620 C   0  0  0  0  0  0  0  0  0  0  0  0
   38.5390   29.8220   41.7650 C   0  0  0  0  0  0  0  0  0  0  0  0
   37.6370   29.5100   42.7440 N   0  0  0  0  0  0  0  0  0  0  0  0
   37.7680   28.4060   43.5110 C   0  0  0  0  0  0  0  0  0  0  0  0
   38.8220   27.5600   43.3240 N   0  0  0  0  0  0  0  0  0  0  0  0
   40.6110   27.2630   42.1060 H   0  0  0  0  0  0  0  0  0  0  0  0
   40.3070   29.2500   40.7800 H   0  0  0  0  0  0  0  0  0  0  0  0
   37.0820   28.1350   44.2840 H   0  0  0  0  0  0  0  0  0  0  0  0
   36.8360   29.9830   39.5940 O   0  0  0  0  0  0  0  0  0  0  0  0
   34.6950   29.1700   35.8550 H   0  0  0  0  0  0  0  0  0  0  0  0
   35.6070   29.2630   36.3470 N   0  0  0  0  0  0  0  0  0  0  0  0
   35.7390   29.5660   37.6740 C   0  0  0  0  0  3  0  0  0  0  0  0
   37.0010   29.6760   38.2780 C   0  0  0  0  0  0  0  0  0  0  0  0
   38.0820   29.4600   37.4470 C   0  0  0  0  0  0  0  0  0  0  0  0
   39.1650   29.5790   38.0730 O   0  0  0  0  0  0  0  0  0  0  0  0
   37.8950   29.1650   36.1500 N   0  0  0  0  0  0  0  0  0  0  0  0
   36.6930   29.0640   35.5970 C   0  0  0  0  0  0  0  0  0  0  0  0
   36.6420   28.7820   34.3650 O   0  0  0  0  0  0  0  0  0  0  0  0
   38.8040   29.0210   35.6170 H   0  0  0  0  0  0  0  0  0  0  0  0
  1 18  1  0  0  0  0
  2  3  1  0  0  0  0
  2  1  1  0  0  0  0
  2  8  1  0  0  0  0
  3  9  1  0  0  0  0
  3 10  1  0  0  0  0
  4 12  1  0  0  0  0
  4  3  1  0  0  0  0
  5  4  1  0  0  0  0
  5  6  1  0  0  0  0
  6  1  1  0  0  0  0
  6 15  1  1  0  0  0
  7  2  1  0  0  0  0
 11  4  1  0  0  0  0
 13  5  1  0  0  0  0
 14  5  1  0  0  0  0
 16 21  1  0  0  0  0
 17 18  1  0  0  0  0
 17 16  2  0  0  0  0
 18 19  2  0  0  0  0
 19 20  1  0  0  0  0
 20 24  1  0  0  0  0
 21 20  2  0  0  0  0
 22 16  1  0  0  0  0
 23 17  1  0  0  0  0
 25  6  1  0  0  0  0
 26 27  1  0  0  0  0
 27 28  1  0  0  0  0
 28 29  2  0  0  0  0
 29 25  1  0  0  0  0
 30 31  2  0  0  0  0
 30 29  1  0  0  0  0
 32 30  1  0  0  0  0
 33 32  1  0  0  0  0
 33 27  1  0  0  0  0
 34 33  2  0  0  0  0
 35 32  1  0  0  0  0
M  END
>  <minimizedAffinity>
-4.98465729

$$$$
