
     RDKit          3D

 24 25  0  0  0  0  0  0  0  0999 V2000
   44.3857   35.7608   44.3983 C   0  0  0  0  0  0  0  0  0  0  0  0
   44.6556   35.0599   43.2426 C   0  0  0  0  0  0  0  0  0  0  0  0
   45.2751   33.8333   43.3759 C   0  0  0  0  0  0  0  0  0  0  0  0
   45.5749   33.4018   44.6220 N   0  0  0  0  0  0  0  0  0  0  0  0
   45.3014   34.1035   45.7318 C   0  0  0  0  0  0  0  0  0  0  0  0
   44.6850   35.3325   45.6603 N   0  0  0  0  0  0  0  0  0  0  0  0
   44.2488   35.7058   41.9927 C   0  0  0  0  0  0  0  0  0  0  0  0
   42.9655   35.3856   41.5804 O   0  0  0  0  0  0  0  0  0  0  0  0
   43.8954   36.7471   44.4048 H   0  0  0  0  0  0  0  0  0  0  0  0
   45.4798   33.2967   42.4637 H   0  0  0  0  0  0  0  0  0  0  0  0
   45.6438   33.5338   46.5938 H   0  0  0  0  0  0  0  0  0  0  0  0
   44.9488   35.3500   41.2069 H   0  0  0  0  0  0  0  0  0  0  0  0
   44.4234   36.8163   42.0329 H   0  0  0  0  0  0  0  0  0  0  0  0
   43.0212   37.0091   37.3677 H   0  0  0  0  0  0  0  0  0  0  0  0
   42.5170   36.7271   38.2490 N   0  0  0  0  0  0  0  0  0  0  0  0
   43.1533   36.2415   39.3115 C   0  0  0  0  0  0  0  0  0  0  0  0
   42.4046   35.9003   40.4200 C   0  0  0  0  0  0  0  0  0  0  0  0
   41.0308   36.0869   40.3535 C   0  0  0  0  0  0  0  0  0  0  0  0
   40.3477   35.7744   41.3680 O   0  0  0  0  0  0  0  0  0  0  0  0
   40.4119   36.5829   39.2590 N   0  0  0  0  0  0  0  0  0  0  0  0
   41.1846   36.9074   38.1863 C   0  0  0  0  0  0  0  0  0  0  0  0
   40.5467   37.3631   37.2019 O   0  0  0  0  0  0  0  0  0  0  0  0
   44.2136   36.1104   39.3294 H   0  0  0  0  0  0  0  0  0  0  0  0
   39.3669   36.7128   39.2395 H   0  0  0  0  0  0  0  0  0  0  0  0
  1  6  2  0
  2  3  2  0
  2  1  1  0
  3  4  1  0
  4  5  2  0
  6  5  1  0
  7  2  1  0
  8  7  1  0
  1  9  1  0
  3 10  1  0
  5 11  1  0
  7 12  1  0
  7 13  1  0
 14 15  1  0
 15 16  1  0
 16 17  2  0
 17 18  1  0
 18 19  2  0
 18 20  1  0
 20 21  1  0
 21 22  2  0
 21 15  1  0
 16 23  1  0
 20 24  1  0
  8 17  1  0
M  ISO  6   9  14  10  14  11  14  12   8  13   8  14   9
M  END
>  <DihAtoms>  (1) 
6,7,16,15

>  <DihDeg>  (1) 
0.00016587498371754123

$$$$
