
 OpenBabel03252504273D

 23 24  0  0  0  0  0  0  0  0999 V2000
   44.0180   35.0130   41.2100 C   0  0  0  0  0  0  0  0  0  0  0  0
   43.9620   34.0260   40.7030 H   0  0  0  0  0  0  0  0  0  0  0  0
   44.8100   35.5700   40.6400 H   0  0  0  0  0  0  0  0  0  0  0  0
   44.2920   35.8030   43.4700 C   0  0  0  0  0  0  0  0  0  0  0  0
   44.4400   34.7540   42.5890 C   0  0  0  0  0  0  0  0  0  0  0  0
   44.9640   33.5780   43.0860 C   0  0  0  0  0  0  0  0  0  0  0  0
   45.2970   33.5310   44.3960 N   0  0  0  0  0  0  0  0  0  0  0  0
   45.1420   34.5660   45.2340 C   0  0  0  0  0  0  0  0  0  0  0  0
   44.6250   35.7640   44.7940 N   0  0  0  0  0  0  0  0  0  0  0  0
   43.8830   36.7840   43.1790 H   0  0  0  0  0  0  0  0  0  0  0  0
   45.0740   32.7670   42.3850 H   0  0  0  0  0  0  0  0  0  0  0  0
   45.4850   34.2650   46.2220 H   0  0  0  0  0  0  0  0  0  0  0  0
   42.7700   35.6070   41.1000 O   0  0  0  0  0  0  0  0  0  0  0  0
   41.4390   34.8450   36.8540 H   0  0  0  0  0  0  0  0  0  0  0  0
   41.2590   34.8900   37.8920 N   0  0  0  0  0  0  0  0  0  0  0  0
   42.2010   35.2330   38.7660 C   0  0  0  0  0  3  0  0  0  0  0  0
   41.8660   35.2640   40.1060 C   0  0  0  0  0  0  0  0  0  0  0  0
   40.5640   34.9340   40.4540 C   0  0  0  0  0  0  0  0  0  0  0  0
   40.2600   34.9630   41.6780 O   0  0  0  0  0  0  0  0  0  0  0  0
   39.6280   34.5890   39.5420 N   0  0  0  0  0  0  0  0  0  0  0  0
   39.9960   34.5700   38.2310 C   0  0  0  0  0  0  0  0  0  0  0  0
   39.0780   34.2420   37.4360 O   0  0  0  0  0  0  0  0  0  0  0  0
   38.6480   34.3440   39.8370 H   0  0  0  0  0  0  0  0  0  0  0  0
  1  5  1  0  0  0  0
  2  1  1  0  0  0  0
  3  1  1  0  0  0  0
  4  9  1  0  0  0  0
  5  6  1  0  0  0  0
  5  4  2  0  0  0  0
  6  7  2  0  0  0  0
  7  8  1  0  0  0  0
  8 12  1  0  0  0  0
  9  8  2  0  0  0  0
 10  4  1  0  0  0  0
 11  6  1  0  0  0  0
 13  1  1  0  0  0  0
 14 15  1  0  0  0  0
 15 21  1  0  0  0  0
 15 16  1  0  0  0  0
 16 17  2  0  0  0  0
 17 18  1  0  0  0  0
 17 13  1  0  0  0  0
 18 19  2  0  0  0  0
 20 23  1  0  0  0  0
 20 18  1  0  0  0  0
 21 20  1  0  0  0  0
 22 21  2  0  0  0  0
M  END
>  <minimizedAffinity>
-4.79404306

>  <minimizedRMSD>
2.31437159

$$$$
