
 OpenBabel03252509323D

 28 29  0  0  0  0  0  0  0  0999 V2000
   50.7400   32.6800   42.5380 O   0  0  0  0  0  0  0  0  0  0  0  0
   49.6690   33.7170   42.4030 P   0  0  2  0  0  0  0  0  0  0  0  0
   50.1210   35.2130   43.0280 O   0  0  0  0  0  0  0  0  0  0  0  0
   50.0370   35.2520   44.0150 H   0  0  0  0  0  0  0  0  0  0  0  0
   48.2800   33.2230   43.2330 O   0  0  0  0  0  0  0  0  0  0  0  0
   47.2150   33.9760   42.7440 C   0  0  0  0  0  0  0  0  0  0  0  0
   46.6140   33.3840   41.9930 H   0  0  0  0  0  0  0  0  0  0  0  0
   47.5310   34.9030   42.2230 H   0  0  0  0  0  0  0  0  0  0  0  0
   45.3950   34.0040   46.0040 C   0  0  0  0  0  0  0  0  0  0  0  0
   46.2900   33.6100   44.9860 C   0  0  0  0  0  0  0  0  0  0  0  0
   46.2940   34.3590   43.8260 C   0  0  0  0  0  0  0  0  0  0  0  0
   45.4430   35.4320   43.7200 N   0  0  0  0  0  0  0  0  0  0  0  0
   44.6010   35.7790   44.7160 C   0  0  0  0  0  0  0  0  0  0  0  0
   44.5810   35.0670   45.8490 N   0  0  0  0  0  0  0  0  0  0  0  0
   45.3680   33.4460   46.9130 H   0  0  0  0  0  0  0  0  0  0  0  0
   46.9540   32.7680   45.0770 H   0  0  0  0  0  0  0  0  0  0  0  0
   43.9780   36.6410   44.5210 H   0  0  0  0  0  0  0  0  0  0  0  0
   49.2610   33.8630   40.7670 O   0  0  0  0  0  0  0  0  0  0  0  0
   50.1620   29.9540   38.9390 H   0  0  0  0  0  0  0  0  0  0  0  0
   49.4620   30.7370   39.0040 N   0  0  0  0  0  0  0  0  0  0  0  0
   49.8270   31.7380   39.8170 C   0  0  0  0  0  3  0  0  0  0  0  0
   48.9440   32.8110   39.9500 C   0  0  0  0  0  0  0  0  0  0  0  0
   47.7510   32.7770   39.2390 C   0  0  0  0  0  0  0  0  0  0  0  0
   46.9320   33.7280   39.3360 O   0  0  0  0  0  0  0  0  0  0  0  0
   47.4890   31.7140   38.4490 N   0  0  0  0  0  0  0  0  0  0  0  0
   48.3380   30.6580   38.3060 C   0  0  0  0  0  0  0  0  0  0  0  0
   48.0330   29.6990   37.5530 O   0  0  0  0  0  0  0  0  0  0  0  0
   46.5620   31.7450   37.9290 H   0  0  0  0  0  0  0  0  0  0  0  0
  2  1  2  1  0  0  0
  2  3  1  0  0  0  0
  2  5  1  0  0  0  0
  3  4  1  0  0  0  0
  6  5  1  0  0  0  0
  6 11  1  0  0  0  0
  7  6  1  0  0  0  0
  8  6  1  0  0  0  0
  9 15  1  0  0  0  0
 10 16  1  0  0  0  0
 10  9  2  0  0  0  0
 11 10  1  0  0  0  0
 12 11  2  0  0  0  0
 12 13  1  0  0  0  0
 13 14  2  0  0  0  0
 14  9  1  0  0  0  0
 17 13  1  0  0  0  0
 18  2  1  0  0  0  0
 19 20  1  0  0  0  0
 20 21  1  0  0  0  0
 21 22  2  0  0  0  0
 22 18  1  0  0  0  0
 23 24  2  0  0  0  0
 23 22  1  0  0  0  0
 25 23  1  0  0  0  0
 26 25  1  0  0  0  0
 26 20  1  0  0  0  0
 27 26  2  0  0  0  0
 28 25  1  0  0  0  0
M  END
>  <minimizedAffinity>
-4.52593327

>  <minimizedRMSD>
1.24175906

$$$$
