
 OpenBabel03252509003D

 46 48  0  0  1  0  0  0  0  0999 V2000
   46.7150   34.5330   43.4920 N   0  0  0  0  0  0  0  0  0  0  0  0
   46.1970   35.5460   42.6340 C   0  0  0  0  0  0  0  0  0  0  0  0
   44.6990   35.7050   42.6500 C   0  0  0  0  0  0  0  0  0  0  0  0
   44.0480   35.3900   43.9650 C   0  0  0  0  0  0  0  0  0  0  0  0
   45.0760   35.1120   45.0380 C   0  0  0  0  0  0  0  0  0  0  0  0
   45.9020   33.9190   44.4290 C   0  0  2  0  0  0  0  0  0  0  0  0
   46.6230   36.5120   43.0200 H   0  0  0  0  0  0  0  0  0  0  0  0
   46.5160   35.4980   41.5920 H   0  0  0  0  0  0  0  0  0  0  0  0
   44.2320   35.1380   41.8120 H   0  0  0  0  0  0  0  0  0  0  0  0
   44.4550   36.7730   42.4420 H   0  0  0  0  0  0  0  0  0  0  0  0
   43.4730   34.4430   43.8220 H   0  0  0  0  0  0  0  0  0  0  0  0
   43.2850   36.1420   44.2760 H   0  0  0  0  0  0  0  0  0  0  0  0
   45.7360   35.9760   45.1560 H   0  0  0  0  0  0  0  0  0  0  0  0
   44.5800   34.7810   45.9580 H   0  0  0  0  0  0  0  0  0  0  0  0
   45.1780   33.1740   44.0660 H   0  0  0  0  0  0  0  0  0  0  0  0
   47.8130   33.7970   42.9400 C   0  0  0  0  0  0  0  0  0  0  0  0
   48.4670   34.4890   42.3960 H   0  0  0  0  0  0  0  0  0  0  0  0
   48.3800   33.3370   43.7790 H   0  0  0  0  0  0  0  0  0  0  0  0
   47.2730   32.6990   42.0770 C   0  0  0  0  0  0  0  0  0  0  0  0
   47.5100   31.7020   42.4710 H   0  0  0  0  0  0  0  0  0  0  0  0
   46.1680   32.7550   42.0070 H   0  0  0  0  0  0  0  0  0  0  0  0
   49.2710   32.0590   38.9560 C   0  0  0  0  0  0  0  0  0  0  0  0
   48.7500   31.9220   40.2620 C   0  0  0  0  0  0  0  0  0  0  0  0
   47.8230   32.8400   40.7040 C   0  0  0  0  0  0  0  0  0  0  0  0
   47.4550   33.8300   39.8660 N   0  0  0  0  0  0  0  0  0  0  0  0
   47.9700   33.9350   38.6240 C   0  0  0  0  0  0  0  0  0  0  0  0
   48.8730   33.0640   38.1570 N   0  0  0  0  0  0  0  0  0  0  0  0
   49.9910   31.3100   38.6700 H   0  0  0  0  0  0  0  0  0  0  0  0
   49.0480   31.1210   40.9380 H   0  0  0  0  0  0  0  0  0  0  0  0
   47.6790   34.7280   37.9460 H   0  0  0  0  0  0  0  0  0  0  0  0
   46.6360   33.5020   45.5410 O   0  0  0  0  0  0  0  0  0  0  0  0
   45.6450   31.1240   44.8730 O   0  0  0  0  0  0  0  0  0  0  0  0
   46.2290   31.9360   46.0260 P   0  0  2  0  0  0  0  0  0  0  0  0
   44.9620   32.1150   47.1640 O   0  0  0  0  0  0  0  0  0  0  0  0
   45.2200   32.7780   47.8480 H   0  0  0  0  0  0  0  0  0  0  0  0
   47.4940   31.1750   46.7880 O   0  0  0  0  0  0  0  0  0  0  0  0
   45.9240   27.4680   48.5810 H   0  0  0  0  0  0  0  0  0  0  0  0
   46.6070   27.9190   47.9210 N   0  0  0  0  0  0  0  0  0  0  0  0
   46.6740   29.2670   47.7220 C   0  0  0  0  0  3  0  0  0  0  0  0
   47.6100   29.7960   46.8270 C   0  0  0  0  0  0  0  0  0  0  0  0
   48.4380   28.9150   46.1720 C   0  0  0  0  0  0  0  0  0  0  0  0
   49.2300   29.5090   45.3990 O   0  0  0  0  0  0  0  0  0  0  0  0
   48.3300   27.6050   46.4050 N   0  0  0  0  0  0  0  0  0  0  0  0
   47.4350   27.0950   47.2630 C   0  0  0  0  0  0  0  0  0  0  0  0
   47.4750   25.8460   47.3560 O   0  0  0  0  0  0  0  0  0  0  0  0
   49.0150   27.0250   45.8490 H   0  0  0  0  0  0  0  0  0  0  0  0
  1  6  1  0  0  0  0
  2  3  1  0  0  0  0
  2  7  1  0  0  0  0
  2  1  1  0  0  0  0
  3  4  1  0  0  0  0
  4 12  1  0  0  0  0
  4  5  1  0  0  0  0
  5 13  1  0  0  0  0
  5 14  1  0  0  0  0
  6 15  1  6  0  0  0
  6  5  1  0  0  0  0
  6 31  1  0  0  0  0
  8  2  1  0  0  0  0
  9  3  1  0  0  0  0
 10  3  1  0  0  0  0
 11  4  1  0  0  0  0
 16  1  1  0  0  0  0
 16 18  1  0  0  0  0
 17 16  1  0  0  0  0
 19 20  1  0  0  0  0
 19 16  1  0  0  0  0
 21 19  1  0  0  0  0
 22 23  1  0  0  0  0
 23 24  2  0  0  0  0
 23 29  1  0  0  0  0
 24 19  1  0  0  0  0
 25 24  1  0  0  0  0
 26 25  2  0  0  0  0
 27 26  1  0  0  0  0
 27 22  2  0  0  0  0
 28 22  1  0  0  0  0
 30 26  1  0  0  0  0
 31 33  1  0  0  0  0
 33 32  2  6  0  0  0
 33 36  1  0  0  0  0
 33 34  1  0  0  0  0
 34 35  1  0  0  0  0
 36 40  1  0  0  0  0
 38 37  1  0  0  0  0
 39 38  1  0  0  0  0
 40 39  2  0  0  0  0
 41 43  1  0  0  0  0
 41 40  1  0  0  0  0
 42 41  2  0  0  0  0
 43 44  1  0  0  0  0
 44 45  2  0  0  0  0
 44 38  1  0  0  0  0
 46 43  1  0  0  0  0
M  END
>  <minimizedAffinity>
-4.52603531

>  <minimizedRMSD>
1.03943229

$$$$
