
 OpenBabel03252507043D

 48 51  0  0  0  0  0  0  0  0999 V2000
   41.6970   32.1970   41.5490 C   0  0  0  0  0  0  0  0  0  0  0  0
   41.5600   32.3730   42.6380 H   0  0  0  0  0  0  0  0  0  0  0  0
   41.4850   33.2250   41.0920 H   0  0  0  0  0  0  0  0  0  0  0  0
   40.9080   31.2290   41.0690 N   0  0  0  0  0  0  0  0  0  0  0  0
   41.3080   29.9460   40.5840 C   0  0  0  0  0  0  0  0  0  0  0  0
   40.8470   29.0930   41.7570 C   0  0  0  0  0  0  0  0  0  0  0  0
   39.4240   29.1770   42.0370 C   0  0  0  0  0  0  0  0  0  0  0  0
   38.6970   30.3520   41.6110 C   0  0  0  0  0  0  0  0  0  0  0  0
   39.4610   31.5450   41.0810 C   0  0  0  0  0  0  0  0  0  0  0  0
   40.9720   29.6180   39.6160 H   0  0  0  0  0  0  0  0  0  0  0  0
   42.4190   29.8850   40.5920 H   0  0  0  0  0  0  0  0  0  0  0  0
   41.1910   28.0460   41.5340 H   0  0  0  0  0  0  0  0  0  0  0  0
   41.4610   29.4020   42.6270 H   0  0  0  0  0  0  0  0  0  0  0  0
   39.2680   29.0430   43.1390 H   0  0  0  0  0  0  0  0  0  0  0  0
   38.9120   28.2860   41.5670 H   0  0  0  0  0  0  0  0  0  0  0  0
   37.6610   30.4760   41.6520 H   0  0  0  0  0  0  0  0  0  0  0  0
   38.7410   33.0130   40.5480 S   0  0  0  0  0  0  0  0  0  0  0  0
   40.7660   34.3200   36.5070 H   0  0  0  0  0  0  0  0  0  0  0  0
   40.5570   34.5300   37.5070 N   0  0  0  0  0  0  0  0  0  0  0  0
   39.8400   33.7910   38.4030 C   0  0  0  0  0  0  0  0  0  0  0  0
   39.6500   34.2250   39.7280 C   0  0  0  0  0  0  0  0  0  0  0  0
   40.2440   35.4280   40.0090 C   0  0  0  0  0  0  0  0  0  0  0  0
   40.0790   35.8020   41.1880 O   0  0  0  0  0  0  0  0  0  0  0  0
   40.9540   36.1810   39.1580 N   0  0  0  0  0  0  0  0  0  0  0  0
   41.0850   35.6940   37.9180 C   0  0  0  0  0  0  0  0  0  0  0  0
   41.7600   36.4400   37.1560 O   0  0  0  0  0  0  0  0  0  0  0  0
   41.3360   37.0710   39.5360 H   0  0  0  0  0  0  0  0  0  0  0  0
   43.1440   31.9810   41.2860 C   0  0  0  0  0  0  0  0  0  0  0  0
   43.5740   31.1030   41.8090 H   0  0  0  0  0  0  0  0  0  0  0  0
   43.2450   31.7380   40.1930 H   0  0  0  0  0  0  0  0  0  0  0  0
   43.8600   33.2380   41.5680 C   0  0  0  0  0  0  0  0  0  0  0  0
   43.1630   34.4190   41.7080 C   0  0  0  0  0  0  0  0  0  0  0  0
   43.8800   35.5810   41.9600 C   0  0  0  0  0  0  0  0  0  0  0  0
   45.2430   35.4900   42.0590 N   0  0  0  0  0  0  0  0  0  0  0  0
   45.8760   34.3300   41.9200 C   0  0  0  0  0  0  0  0  0  0  0  0
   45.1700   33.2200   41.6750 N   0  0  0  0  0  0  0  0  0  0  0  0
   42.1210   34.6900   41.6830 H   0  0  0  0  0  0  0  0  0  0  0  0
   43.5050   36.5990   42.0970 H   0  0  0  0  0  0  0  0  0  0  0  0
   47.3290   34.3230   42.0730 C   0  0  0  0  0  0  0  0  0  0  0  0
   47.9880   33.1680   42.4840 C   0  0  0  0  0  0  0  0  0  0  0  0
   49.3600   33.1780   42.6410 C   0  0  0  0  0  0  0  0  0  0  0  0
   49.9620   34.3850   42.3610 C   0  0  0  0  0  0  0  0  0  0  0  0
   49.3480   35.5560   41.9510 C   0  0  0  0  0  0  0  0  0  0  0  0
   48.0000   35.4660   41.8200 N   0  0  0  0  0  0  0  0  0  0  0  0
   47.4500   32.2430   42.6900 H   0  0  0  0  0  0  0  0  0  0  0  0
   49.9520   32.3320   42.9560 H   0  0  0  0  0  0  0  0  0  0  0  0
   51.0460   34.4350   42.4740 H   0  0  0  0  0  0  0  0  0  0  0  0
   49.9070   36.4560   41.7540 H   0  0  0  0  0  0  0  0  0  0  0  0
  1  2  1  0  0  0  0
  3  1  1  0  0  0  0
  4  9  1  0  0  0  0
  4  1  1  0  0  0  0
  5 11  1  0  0  0  0
  5  4  1  0  0  0  0
  5  6  1  0  0  0  0
  6  7  1  0  0  0  0
  6 13  1  0  0  0  0
  7 14  1  0  0  0  0
  8 16  1  0  0  0  0
  8  7  1  0  0  0  0
  9  8  2  0  0  0  0
 10  5  1  0  0  0  0
 12  6  1  0  0  0  0
 15  7  1  0  0  0  0
 17  9  1  0  0  0  0
 18 19  1  0  0  0  0
 19 25  1  0  0  0  0
 19 20  1  0  0  0  0
 20 21  2  0  0  0  0
 21 22  1  0  0  0  0
 21 17  1  0  0  0  0
 22 23  2  0  0  0  0
 24 27  1  0  0  0  0
 24 22  1  0  0  0  0
 25 24  1  0  0  0  0
 26 25  2  0  0  0  0
 28  1  1  0  0  0  0
 28 31  1  0  0  0  0
 28 29  1  0  0  0  0
 30 28  1  0  0  0  0
 31 36  2  0  0  0  0
 31 32  1  0  0  0  0
 32 33  2  0  0  0  0
 33 34  1  0  0  0  0
 33 38  1  0  0  0  0
 35 34  2  0  0  0  0
 35 39  1  0  0  0  0
 36 35  1  0  0  0  0
 37 32  1  0  0  0  0
 39 40  1  0  0  0  0
 40 41  2  0  0  0  0
 40 45  1  0  0  0  0
 41 46  1  0  0  0  0
 42 47  1  0  0  0  0
 42 41  1  0  0  0  0
 43 42  2  0  0  0  0
 44 43  1  0  0  0  0
 44 39  2  0  0  0  0
 48 43  1  0  0  0  0
M  END
>  <minimizedAffinity>
-5.84775829

>  <minimizedRMSD>
2.91356111

$$$$
