
 OpenBabel03252502243D

 35 37  0  0  1  0  0  0  0  0999 V2000
   46.9030   34.5780   42.2400 N   0  0  0  0  0  0  0  0  0  0  0  0
   48.3480   34.7650   42.2680 C   0  0  0  0  0  0  0  0  0  0  0  0
   48.6310   35.5380   40.9620 C   0  0  0  0  0  0  0  0  0  0  0  0
   48.3530   34.6460   39.7960 C   0  0  0  0  0  0  0  0  0  0  0  0
   47.0910   33.8590   39.9100 C   0  0  0  0  0  0  0  0  0  0  0  0
   46.1770   34.2350   41.0400 C   0  0  1  0  0  0  0  0  0  0  0  0
   48.8740   33.7900   42.2330 H   0  0  0  0  0  0  0  0  0  0  0  0
   48.6330   35.4090   43.1130 H   0  0  0  0  0  0  0  0  0  0  0  0
   49.7220   35.7720   41.0180 H   0  0  0  0  0  0  0  0  0  0  0  0
   48.0120   36.4560   40.9930 H   0  0  0  0  0  0  0  0  0  0  0  0
   49.2140   33.9230   39.7390 H   0  0  0  0  0  0  0  0  0  0  0  0
   48.4390   35.2480   38.8700 H   0  0  0  0  0  0  0  0  0  0  0  0
   46.5090   34.0410   38.9580 H   0  0  0  0  0  0  0  0  0  0  0  0
   47.2660   32.7620   39.9260 H   0  0  0  0  0  0  0  0  0  0  0  0
   45.6480   35.1560   40.7300 H   0  0  0  0  0  0  0  0  0  0  0  0
   44.4980   35.8680   44.8020 C   0  0  0  0  0  0  0  0  0  0  0  0
   45.2040   35.7970   43.5950 C   0  0  0  0  0  0  0  0  0  0  0  0
   46.1330   34.7340   43.4390 C   0  0  0  0  0  0  0  0  0  0  0  0
   46.2820   33.8500   44.4710 N   0  0  0  0  0  0  0  0  0  0  0  0
   45.5750   33.9630   45.6170 C   0  0  0  0  0  0  0  0  0  0  0  0
   44.6800   34.9800   45.7750 N   0  0  0  0  0  0  0  0  0  0  0  0
   43.8390   36.7220   44.7600 H   0  0  0  0  0  0  0  0  0  0  0  0
   45.1370   36.4530   42.7490 H   0  0  0  0  0  0  0  0  0  0  0  0
   45.6680   33.2890   46.4410 H   0  0  0  0  0  0  0  0  0  0  0  0
   45.3640   33.1490   41.3100 O   0  0  0  0  0  0  0  0  0  0  0  0
   41.9220   31.1960   43.1970 H   0  0  0  0  0  0  0  0  0  0  0  0
   42.2780   31.8320   42.4550 N   0  0  0  0  0  0  0  0  0  0  0  0
   43.5960   32.1470   42.2770 C   0  0  0  0  0  3  0  0  0  0  0  0
   44.0110   33.0130   41.2540 C   0  0  0  0  0  0  0  0  0  0  0  0
   43.0060   33.5140   40.4530 C   0  0  0  0  0  0  0  0  0  0  0  0
   43.4690   34.2770   39.5680 O   0  0  0  0  0  0  0  0  0  0  0  0
   41.7250   33.1710   40.6710 N   0  0  0  0  0  0  0  0  0  0  0  0
   41.3530   32.3500   41.6450 C   0  0  0  0  0  0  0  0  0  0  0  0
   40.1190   32.0990   41.7540 O   0  0  0  0  0  0  0  0  0  0  0  0
   41.0470   33.6210   39.9890 H   0  0  0  0  0  0  0  0  0  0  0  0
  1  2  1  0  0  0  0
  1 18  1  0  0  0  0
  2  8  1  0  0  0  0
  3 10  1  0  0  0  0
  3  9  1  0  0  0  0
  3  2  1  0  0  0  0
  4  5  1  0  0  0  0
  4  3  1  0  0  0  0
  5 14  1  0  0  0  0
  5  6  1  0  0  0  0
  6 15  1  6  0  0  0
  6 25  1  0  0  0  0
  6  1  1  0  0  0  0
  7  2  1  0  0  0  0
 11  4  1  0  0  0  0
 12  4  1  0  0  0  0
 13  5  1  0  0  0  0
 16 21  1  0  0  0  0
 17 16  2  0  0  0  0
 18 17  1  0  0  0  0
 18 19  2  0  0  0  0
 19 20  1  0  0  0  0
 20 21  2  0  0  0  0
 20 24  1  0  0  0  0
 22 16  1  0  0  0  0
 23 17  1  0  0  0  0
 27 26  1  0  0  0  0
 28 27  1  0  0  0  0
 29 25  1  0  0  0  0
 29 28  2  0  0  0  0
 30 32  1  0  0  0  0
 30 29  1  0  0  0  0
 31 30  2  0  0  0  0
 32 33  1  0  0  0  0
 33 34  2  0  0  0  0
 33 27  1  0  0  0  0
 35 32  1  0  0  0  0
M  END
>  <minimizedAffinity>
-6.04861259

>  <minimizedRMSD>
0.163859501

$$$$
