
 OpenBabel03252509003D

 46 48  0  0  1  0  0  0  0  0999 V2000
   46.6880   34.5330   43.4320 N   0  0  0  0  0  0  0  0  0  0  0  0
   46.2260   35.6550   42.6840 C   0  0  0  0  0  0  0  0  0  0  0  0
   44.7380   35.8820   42.7110 C   0  0  0  0  0  0  0  0  0  0  0  0
   44.0610   35.4620   43.9830 C   0  0  0  0  0  0  0  0  0  0  0  0
   45.0650   35.0230   45.0240 C   0  0  0  0  0  0  0  0  0  0  0  0
   45.8380   33.8630   44.2950 C   0  0  2  0  0  0  0  0  0  0  0  0
   46.6940   36.5520   43.1710 H   0  0  0  0  0  0  0  0  0  0  0  0
   46.5520   35.7010   41.6430 H   0  0  0  0  0  0  0  0  0  0  0  0
   44.2510   35.4310   41.8160 H   0  0  0  0  0  0  0  0  0  0  0  0
   44.5460   36.9780   42.6170 H   0  0  0  0  0  0  0  0  0  0  0  0
   43.4430   34.5640   43.7390 H   0  0  0  0  0  0  0  0  0  0  0  0
   43.3320   36.2130   44.3700 H   0  0  0  0  0  0  0  0  0  0  0  0
   45.7650   35.8370   45.2350 H   0  0  0  0  0  0  0  0  0  0  0  0
   44.5460   34.6210   45.9020 H   0  0  0  0  0  0  0  0  0  0  0  0
   45.0830   33.1960   43.8520 H   0  0  0  0  0  0  0  0  0  0  0  0
   47.7540   33.8070   42.8090 C   0  0  0  0  0  0  0  0  0  0  0  0
   48.4180   34.5170   42.3000 H   0  0  0  0  0  0  0  0  0  0  0  0
   48.3240   33.2760   43.6030 H   0  0  0  0  0  0  0  0  0  0  0  0
   47.1680   32.7850   41.8840 C   0  0  0  0  0  0  0  0  0  0  0  0
   47.3240   31.7590   42.2410 H   0  0  0  0  0  0  0  0  0  0  0  0
   46.0720   32.9220   41.7850 H   0  0  0  0  0  0  0  0  0  0  0  0
   49.1830   32.1160   38.7800 C   0  0  0  0  0  0  0  0  0  0  0  0
   48.6130   31.9620   40.0630 C   0  0  0  0  0  0  0  0  0  0  0  0
   47.7690   32.9440   40.5340 C   0  0  0  0  0  0  0  0  0  0  0  0
   47.5260   34.0100   39.7450 N   0  0  0  0  0  0  0  0  0  0  0  0
   48.0860   34.1290   38.5240 C   0  0  0  0  0  0  0  0  0  0  0  0
   48.9110   33.1980   38.0300 N   0  0  0  0  0  0  0  0  0  0  0  0
   49.8340   31.3150   38.4690 H   0  0  0  0  0  0  0  0  0  0  0  0
   48.8100   31.1000   40.7000 H   0  0  0  0  0  0  0  0  0  0  0  0
   47.8950   34.9820   37.8840 H   0  0  0  0  0  0  0  0  0  0  0  0
   46.5420   33.2950   45.3590 O   0  0  0  0  0  0  0  0  0  0  0  0
   45.3900   31.1150   44.3590 O   0  0  0  0  0  0  0  0  0  0  0  0
   46.2650   31.6350   45.4970 P   0  0  2  0  0  0  0  0  0  0  0  0
   45.3480   31.4330   46.9280 O   0  0  0  0  0  0  0  0  0  0  0  0
   45.7830   31.9100   47.6730 H   0  0  0  0  0  0  0  0  0  0  0  0
   47.6810   30.7840   45.6750 O   0  0  0  0  0  0  0  0  0  0  0  0
   47.0900   26.4180   45.7880 H   0  0  0  0  0  0  0  0  0  0  0  0
   47.3740   27.2920   46.2970 N   0  0  0  0  0  0  0  0  0  0  0  0
   47.3720   28.5280   45.7210 C   0  0  0  0  0  3  0  0  0  0  0  0
   47.7640   29.6470   46.4630 C   0  0  0  0  0  0  0  0  0  0  0  0
   48.1440   29.4480   47.7690 C   0  0  0  0  0  0  0  0  0  0  0  0
   48.4730   30.5250   48.3270 O   0  0  0  0  0  0  0  0  0  0  0  0
   48.1280   28.2160   48.2820 N   0  0  0  0  0  0  0  0  0  0  0  0
   47.7520   27.1410   47.5760 C   0  0  0  0  0  0  0  0  0  0  0  0
   47.7990   26.0670   48.2170 O   0  0  0  0  0  0  0  0  0  0  0  0
   48.4380   28.1820   49.2910 H   0  0  0  0  0  0  0  0  0  0  0  0
  1  6  1  0  0  0  0
  2  3  1  0  0  0  0
  2  7  1  0  0  0  0
  2  1  1  0  0  0  0
  3  4  1  0  0  0  0
  4 12  1  0  0  0  0
  4  5  1  0  0  0  0
  5 13  1  0  0  0  0
  5 14  1  0  0  0  0
  6 15  1  6  0  0  0
  6  5  1  0  0  0  0
  6 31  1  0  0  0  0
  8  2  1  0  0  0  0
  9  3  1  0  0  0  0
 10  3  1  0  0  0  0
 11  4  1  0  0  0  0
 16  1  1  0  0  0  0
 16 18  1  0  0  0  0
 17 16  1  0  0  0  0
 19 20  1  0  0  0  0
 19 16  1  0  0  0  0
 21 19  1  0  0  0  0
 22 23  1  0  0  0  0
 23 24  2  0  0  0  0
 23 29  1  0  0  0  0
 24 19  1  0  0  0  0
 25 24  1  0  0  0  0
 26 25  2  0  0  0  0
 27 26  1  0  0  0  0
 27 22  2  0  0  0  0
 28 22  1  0  0  0  0
 30 26  1  0  0  0  0
 31 33  1  0  0  0  0
 33 32  2  6  0  0  0
 33 36  1  0  0  0  0
 33 34  1  0  0  0  0
 34 35  1  0  0  0  0
 36 40  1  0  0  0  0
 37 38  1  0  0  0  0
 38 44  1  0  0  0  0
 39 38  1  0  0  0  0
 39 40  2  0  0  0  0
 40 41  1  0  0  0  0
 41 43  1  0  0  0  0
 41 42  2  0  0  0  0
 43 46  1  0  0  0  0
 44 45  2  0  0  0  0
 44 43  1  0  0  0  0
M  END
>  <minimizedAffinity>
-4.53985262

>  <minimizedRMSD>
1.09248817

$$$$
