
 OpenBabel03242512003D

 48 51  0  0  1  0  0  0  0  0999 V2000
   47.6620   34.1440   42.3270 C   0  0  2  0  0  0  0  0  0  0  0  0
   48.8890   34.9890   42.4970 C   0  0  0  0  0  0  0  0  0  0  0  0
   49.0100   36.0280   41.4520 C   0  0  0  0  0  0  0  0  0  0  0  0
   48.9640   35.4680   40.0490 C   0  0  0  0  0  0  0  0  0  0  0  0
   47.9640   34.3630   39.8750 C   0  0  0  0  0  0  0  0  0  0  0  0
   46.9790   34.2680   41.0160 C   0  0  1  0  0  0  0  0  0  0  0  0
   48.0260   33.0750   42.4300 H   0  0  0  0  0  0  0  0  0  0  0  0
   49.8250   34.3970   42.5200 H   0  0  0  0  0  0  0  0  0  0  0  0
   48.8110   35.4910   43.4810 H   0  0  0  0  0  0  0  0  0  0  0  0
   50.0050   36.5200   41.5520 H   0  0  0  0  0  0  0  0  0  0  0  0
   48.2080   36.7890   41.5400 H   0  0  0  0  0  0  0  0  0  0  0  0
   48.8220   36.3070   39.3580 H   0  0  0  0  0  0  0  0  0  0  0  0
   49.9660   35.0360   39.8460 H   0  0  0  0  0  0  0  0  0  0  0  0
   48.4450   33.3770   39.7110 H   0  0  0  0  0  0  0  0  0  0  0  0
   47.3590   34.6090   38.9590 H   0  0  0  0  0  0  0  0  0  0  0  0
   46.2980   35.1210   40.8870 H   0  0  0  0  0  0  0  0  0  0  0  0
   46.6950   34.3120   43.4310 C   0  0  0  0  0  0  0  0  0  0  0  0
   45.8050   35.3520   43.2210 C   0  0  0  0  0  0  0  0  0  0  0  0
   44.8210   35.6300   44.1850 C   0  0  0  0  0  0  0  0  0  0  0  0
   44.8290   34.7980   45.3110 N   0  0  0  0  0  0  0  0  0  0  0  0
   45.7200   33.7980   45.4670 C   0  0  0  0  0  0  0  0  0  0  0  0
   46.6420   33.5710   44.5160 N   0  0  0  0  0  0  0  0  0  0  0  0
   45.6420   36.0930   42.4520 H   0  0  0  0  0  0  0  0  0  0  0  0
   44.0600   36.3760   44.2040 H   0  0  0  0  0  0  0  0  0  0  0  0
   45.6330   33.2220   46.3720 H   0  0  0  0  0  0  0  0  0  0  0  0
   46.1490   33.0320   40.8060 C   0  0  2  0  0  0  0  0  0  0  0  0
   45.6630   32.7450   39.3960 C   0  0  0  0  0  0  0  0  0  0  0  0
   44.7090   33.1390   40.4450 C   0  0  1  0  0  0  0  0  0  0  0  0
   46.5350   32.1210   41.3110 H   0  0  0  0  0  0  0  0  0  0  0  0
   45.8420   33.4460   38.5800 H   0  0  0  0  0  0  0  0  0  0  0  0
   45.5880   31.6870   39.0540 H   0  0  0  0  0  0  0  0  0  0  0  0
   44.3230   34.1840   40.4580 H   0  0  0  0  0  0  0  0  0  0  0  0
   43.8500   32.1730   41.2020 C   0  0  0  0  0  0  0  0  0  0  0  0
   44.2580   31.1540   41.0420 H   0  0  0  0  0  0  0  0  0  0  0  0
   43.9700   32.3850   42.2920 H   0  0  0  0  0  0  0  0  0  0  0  0
   42.4180   32.1470   40.7700 C   0  0  0  0  0  0  0  0  0  0  0  0
   42.3970   31.7290   39.7430 H   0  0  0  0  0  0  0  0  0  0  0  0
   41.9000   31.4020   41.4070 H   0  0  0  0  0  0  0  0  0  0  0  0
   41.7840   33.4440   40.8090 N   0  0  0  0  0  0  0  0  0  0  0  0
   42.0570   34.3800   41.7360 C   0  0  0  0  0  3  0  0  0  0  0  0
   41.3920   35.6110   41.6950 C   0  0  0  0  0  0  0  0  0  0  0  0
   41.5780   36.3910   42.4170 H   0  0  0  0  0  0  0  0  0  0  0  0
   40.4690   35.7610   40.6510 C   0  0  0  0  0  0  0  0  0  0  0  0
   39.8880   36.9000   40.6560 O   0  0  0  0  0  0  0  0  0  0  0  0
   40.2190   34.8040   39.7380 N   0  0  0  0  0  0  0  0  0  0  0  0
   40.8870   33.6380   39.8240 C   0  0  0  0  0  0  0  0  0  0  0  0
   40.5920   32.8020   38.9320 O   0  0  0  0  0  0  0  0  0  0  0  0
   39.4970   35.1080   39.0420 H   0  0  0  0  0  0  0  0  0  0  0  0
  1  7  1  1  0  0  0
  1  2  1  0  0  0  0
  1 17  1  0  0  0  0
  2  8  1  0  0  0  0
  2  9  1  0  0  0  0
  3 11  1  0  0  0  0
  3 10  1  0  0  0  0
  3  2  1  0  0  0  0
  4  3  1  0  0  0  0
  5  4  1  0  0  0  0
  5  6  1  0  0  0  0
  6 16  1  1  0  0  0
  6  1  1  0  0  0  0
 12  4  1  0  0  0  0
 13  4  1  0  0  0  0
 14  5  1  0  0  0  0
 15  5  1  0  0  0  0
 17 22  1  0  0  0  0
 18 17  2  0  0  0  0
 18 19  1  0  0  0  0
 19 24  1  0  0  0  0
 19 20  2  0  0  0  0
 20 21  1  0  0  0  0
 21 25  1  0  0  0  0
 22 21  2  0  0  0  0
 23 18  1  0  0  0  0
 26  6  1  0  0  0  0
 26 29  1  1  0  0  0
 27 28  1  0  0  0  0
 27 26  1  0  0  0  0
 28 32  1  6  0  0  0
 28 26  1  0  0  0  0
 28 33  1  0  0  0  0
 30 27  1  0  0  0  0
 31 27  1  0  0  0  0
 33 35  1  0  0  0  0
 34 33  1  0  0  0  0
 36 39  1  0  0  0  0
 36 33  1  0  0  0  0
 36 38  1  0  0  0  0
 37 36  1  0  0  0  0
 39 40  1  0  0  0  0
 41 40  2  0  0  0  0
 41 42  1  0  0  0  0
 43 44  2  0  0  0  0
 43 41  1  0  0  0  0
 45 46  1  0  0  0  0
 45 43  1  0  0  0  0
 46 39  1  0  0  0  0
 47 46  2  0  0  0  0
 48 45  1  0  0  0  0
M  END
>  <minimizedAffinity>
-6.00131273

>  <minimizedRMSD>
1.03785586

$$$$
