
 OpenBabel03242512003D

 48 51  0  0  1  0  0  0  0  0999 V2000
   46.8760   32.5570   39.9840 C   0  0  2  0  0  0  0  0  0  0  0  0
   47.8200   31.6700   39.2290 C   0  0  0  0  0  0  0  0  0  0  0  0
   47.8060   31.9350   37.7750 C   0  0  0  0  0  0  0  0  0  0  0  0
   46.4240   31.8470   37.1680 C   0  0  0  0  0  0  0  0  0  0  0  0
   45.3490   32.4360   38.0320 C   0  0  0  0  0  0  0  0  0  0  0  0
   45.8910   33.2920   39.1540 C   0  0  1  0  0  0  0  0  0  0  0  0
   46.3030   31.8600   40.6690 H   0  0  0  0  0  0  0  0  0  0  0  0
   47.6290   30.5910   39.3960 H   0  0  0  0  0  0  0  0  0  0  0  0
   48.8390   31.8710   39.6110 H   0  0  0  0  0  0  0  0  0  0  0  0
   48.4140   31.1530   37.2640 H   0  0  0  0  0  0  0  0  0  0  0  0
   48.2170   32.9390   37.5400 H   0  0  0  0  0  0  0  0  0  0  0  0
   46.4720   32.2830   36.1630 H   0  0  0  0  0  0  0  0  0  0  0  0
   46.1950   30.7690   37.0520 H   0  0  0  0  0  0  0  0  0  0  0  0
   44.6670   31.6660   38.4450 H   0  0  0  0  0  0  0  0  0  0  0  0
   44.7420   33.1230   37.3800 H   0  0  0  0  0  0  0  0  0  0  0  0
   46.2350   34.2200   38.6740 H   0  0  0  0  0  0  0  0  0  0  0  0
   47.5720   33.4840   40.9000 C   0  0  0  0  0  0  0  0  0  0  0  0
   48.1360   34.5690   40.2510 C   0  0  0  0  0  0  0  0  0  0  0  0
   48.8270   35.5410   40.9950 C   0  0  0  0  0  0  0  0  0  0  0  0
   48.8860   35.3150   42.3750 N   0  0  0  0  0  0  0  0  0  0  0  0
   48.3190   34.2380   42.9570 C   0  0  0  0  0  0  0  0  0  0  0  0
   47.6680   33.3370   42.2030 N   0  0  0  0  0  0  0  0  0  0  0  0
   48.2100   34.9120   39.2300 H   0  0  0  0  0  0  0  0  0  0  0  0
   49.3210   36.4330   40.6820 H   0  0  0  0  0  0  0  0  0  0  0  0
   48.4260   34.1660   44.0260 H   0  0  0  0  0  0  0  0  0  0  0  0
   44.7360   33.6780   40.0360 C   0  0  2  0  0  0  0  0  0  0  0  0
   44.1620   32.6090   40.9490 C   0  0  0  0  0  0  0  0  0  0  0  0
   43.3820   33.1050   39.8040 C   0  0  1  0  0  0  0  0  0  0  0  0
   44.8510   34.6550   40.5520 H   0  0  0  0  0  0  0  0  0  0  0  0
   44.5210   31.5810   40.9140 H   0  0  0  0  0  0  0  0  0  0  0  0
   43.7790   32.9030   41.9530 H   0  0  0  0  0  0  0  0  0  0  0  0
   43.3140   32.4790   38.8850 H   0  0  0  0  0  0  0  0  0  0  0  0
   42.2940   34.1300   39.9130 C   0  0  0  0  0  0  0  0  0  0  0  0
   42.7560   35.1330   39.8120 H   0  0  0  0  0  0  0  0  0  0  0  0
   41.6200   34.0120   39.0300 H   0  0  0  0  0  0  0  0  0  0  0  0
   41.5560   34.1130   41.2140 C   0  0  0  0  0  0  0  0  0  0  0  0
   42.2990   33.8870   42.0050 H   0  0  0  0  0  0  0  0  0  0  0  0
   41.2170   35.1510   41.4090 H   0  0  0  0  0  0  0  0  0  0  0  0
   40.4700   33.1620   41.2440 N   0  0  0  0  0  0  0  0  0  0  0  0
   40.5940   31.8990   41.6900 C   0  0  0  0  0  3  0  0  0  0  0  0
   39.4830   31.0460   41.6810 C   0  0  0  0  0  0  0  0  0  0  0  0
   39.5370   30.0270   42.0290 H   0  0  0  0  0  0  0  0  0  0  0  0
   38.2990   31.6090   41.1890 C   0  0  0  0  0  0  0  0  0  0  0  0
   37.3140   30.7940   41.2010 O   0  0  0  0  0  0  0  0  0  0  0  0
   38.2060   32.8780   40.7500 N   0  0  0  0  0  0  0  0  0  0  0  0
   39.3050   33.6560   40.7800 C   0  0  0  0  0  0  0  0  0  0  0  0
   39.1290   34.8250   40.3520 O   0  0  0  0  0  0  0  0  0  0  0  0
   37.2380   33.1090   40.4230 H   0  0  0  0  0  0  0  0  0  0  0  0
  1  7  1  1  0  0  0
  1 17  1  0  0  0  0
  2  8  1  0  0  0  0
  2  9  1  0  0  0  0
  2  1  1  0  0  0  0
  3  2  1  0  0  0  0
  4  3  1  0  0  0  0
  4  5  1  0  0  0  0
  5 14  1  0  0  0  0
  5  6  1  0  0  0  0
  6 16  1  6  0  0  0
  6  1  1  0  0  0  0
  6 26  1  0  0  0  0
 10  3  1  0  0  0  0
 11  3  1  0  0  0  0
 12  4  1  0  0  0  0
 13  4  1  0  0  0  0
 15  5  1  0  0  0  0
 17 22  1  0  0  0  0
 18 17  2  0  0  0  0
 18 19  1  0  0  0  0
 19 20  2  0  0  0  0
 20 21  1  0  0  0  0
 21 25  1  0  0  0  0
 22 21  2  0  0  0  0
 23 18  1  0  0  0  0
 24 19  1  0  0  0  0
 26 29  1  1  0  0  0
 26 27  1  0  0  0  0
 27 31  1  0  0  0  0
 28 32  1  6  0  0  0
 28 33  1  0  0  0  0
 28 26  1  0  0  0  0
 28 27  1  0  0  0  0
 30 27  1  0  0  0  0
 33 36  1  0  0  0  0
 34 33  1  0  0  0  0
 35 33  1  0  0  0  0
 36 39  1  0  0  0  0
 36 38  1  0  0  0  0
 36 37  1  0  0  0  0
 39 40  1  0  0  0  0
 41 40  2  0  0  0  0
 41 42  1  0  0  0  0
 43 44  2  0  0  0  0
 43 41  1  0  0  0  0
 45 46  1  0  0  0  0
 45 43  1  0  0  0  0
 46 39  1  0  0  0  0
 47 46  2  0  0  0  0
 48 45  1  0  0  0  0
M  END
>  <minimizedAffinity>
-5.28741217

>  <minimizedRMSD>
4.03486061

$$$$
