
 OpenBabel03242512033D

 48 51  0  0  1  0  0  0  0  0999 V2000
   37.6220   31.6260   40.7220 C   0  0  2  0  0  0  0  0  0  0  0  0
   37.4640   32.8620   39.8880 C   0  0  0  0  0  0  0  0  0  0  0  0
   38.7090   33.2320   39.1820 C   0  0  0  0  0  0  0  0  0  0  0  0
   39.8940   33.3870   40.1070 C   0  0  0  0  0  0  0  0  0  0  0  0
   39.9460   32.3560   41.1950 C   0  0  0  0  0  0  0  0  0  0  0  0
   39.0210   31.1860   40.9500 C   0  0  1  0  0  0  0  0  0  0  0  0
   37.1720   31.8910   41.7270 H   0  0  0  0  0  0  0  0  0  0  0  0
   37.1120   33.7360   40.4710 H   0  0  0  0  0  0  0  0  0  0  0  0
   36.6820   32.6530   39.1320 H   0  0  0  0  0  0  0  0  0  0  0  0
   38.5640   34.2280   38.7030 H   0  0  0  0  0  0  0  0  0  0  0  0
   38.9770   32.4830   38.4090 H   0  0  0  0  0  0  0  0  0  0  0  0
   40.7990   33.4240   39.4890 H   0  0  0  0  0  0  0  0  0  0  0  0
   39.7870   34.3750   40.5990 H   0  0  0  0  0  0  0  0  0  0  0  0
   39.7480   32.7860   42.1980 H   0  0  0  0  0  0  0  0  0  0  0  0
   40.9890   31.9340   41.2000 H   0  0  0  0  0  0  0  0  0  0  0  0
   39.4970   30.5990   40.1520 H   0  0  0  0  0  0  0  0  0  0  0  0
   36.8010   30.4990   40.2340 C   0  0  0  0  0  0  0  0  0  0  0  0
   37.2690   29.9560   39.0500 C   0  0  0  0  0  0  0  0  0  0  0  0
   36.5920   28.8710   38.4670 C   0  0  0  0  0  0  0  0  0  0  0  0
   35.4630   28.4220   39.1630 N   0  0  0  0  0  0  0  0  0  0  0  0
   35.0490   28.9880   40.3140 C   0  0  0  0  0  0  0  0  0  0  0  0
   35.7310   30.0230   40.8330 N   0  0  0  0  0  0  0  0  0  0  0  0
   38.0870   30.1550   38.3730 H   0  0  0  0  0  0  0  0  0  0  0  0
   36.7950   28.3260   37.5740 H   0  0  0  0  0  0  0  0  0  0  0  0
   34.1690   28.5600   40.7630 H   0  0  0  0  0  0  0  0  0  0  0  0
   39.0410   30.3190   42.1790 C   0  0  2  0  0  0  0  0  0  0  0  0
   40.3520   29.6440   42.5400 C   0  0  0  0  0  0  0  0  0  0  0  0
   39.2120   28.8450   42.0620 C   0  0  1  0  0  0  0  0  0  0  0  0
   38.5350   30.7570   43.0650 H   0  0  0  0  0  0  0  0  0  0  0  0
   41.2270   29.7210   41.8940 H   0  0  0  0  0  0  0  0  0  0  0  0
   40.6130   29.5100   43.6150 H   0  0  0  0  0  0  0  0  0  0  0  0
   39.2140   28.4780   41.0100 H   0  0  0  0  0  0  0  0  0  0  0  0
   38.2870   28.0830   42.9620 C   0  0  0  0  0  0  0  0  0  0  0  0
   38.2020   28.6400   43.9170 H   0  0  0  0  0  0  0  0  0  0  0  0
   37.2690   28.1000   42.5040 H   0  0  0  0  0  0  0  0  0  0  0  0
   38.7500   26.7010   43.2970 C   0  0  0  0  0  0  0  0  0  0  0  0
   39.8590   26.7150   43.2690 H   0  0  0  0  0  0  0  0  0  0  0  0
   38.4810   26.5160   44.3570 H   0  0  0  0  0  0  0  0  0  0  0  0
   38.2270   25.6900   42.4090 N   0  0  0  0  0  0  0  0  0  0  0  0
   37.2120   25.9030   41.5510 C   0  0  0  0  0  3  0  0  0  0  0  0
   36.7710   24.8610   40.7270 C   0  0  0  0  0  0  0  0  0  0  0  0
   35.9610   24.9860   40.0250 H   0  0  0  0  0  0  0  0  0  0  0  0
   37.4520   23.6450   40.8770 C   0  0  0  0  0  0  0  0  0  0  0  0
   37.0130   22.7270   40.1050 O   0  0  0  0  0  0  0  0  0  0  0  0
   38.4640   23.4640   41.7460 N   0  0  0  0  0  0  0  0  0  0  0  0
   38.8490   24.5000   42.5150 C   0  0  0  0  0  0  0  0  0  0  0  0
   39.8000   24.2440   43.2970 O   0  0  0  0  0  0  0  0  0  0  0  0
   38.8410   22.4880   41.7080 H   0  0  0  0  0  0  0  0  0  0  0  0
  1  6  1  0  0  0  0
  1  7  1  1  0  0  0
  2  8  1  0  0  0  0
  2  1  1  0  0  0  0
  3  2  1  0  0  0  0
  3  4  1  0  0  0  0
  4 13  1  0  0  0  0
  4  5  1  0  0  0  0
  5 15  1  0  0  0  0
  5 14  1  0  0  0  0
  6 16  1  6  0  0  0
  6  5  1  0  0  0  0
  6 26  1  0  0  0  0
  9  2  1  0  0  0  0
 10  3  1  0  0  0  0
 11  3  1  0  0  0  0
 12  4  1  0  0  0  0
 17  1  1  0  0  0  0
 17 22  1  0  0  0  0
 18 17  2  0  0  0  0
 19 18  1  0  0  0  0
 19 20  2  0  0  0  0
 20 21  1  0  0  0  0
 21 25  1  0  0  0  0
 21 22  2  0  0  0  0
 23 18  1  0  0  0  0
 24 19  1  0  0  0  0
 26 27  1  0  0  0  0
 26 29  1  1  0  0  0
 27 31  1  0  0  0  0
 28 32  1  6  0  0  0
 28 26  1  0  0  0  0
 28 27  1  0  0  0  0
 28 33  1  0  0  0  0
 30 27  1  0  0  0  0
 33 36  1  0  0  0  0
 33 34  1  0  0  0  0
 35 33  1  0  0  0  0
 36 38  1  0  0  0  0
 37 36  1  0  0  0  0
 39 46  1  0  0  0  0
 39 36  1  0  0  0  0
 40 39  1  0  0  0  0
 41 43  1  0  0  0  0
 41 40  2  0  0  0  0
 42 41  1  0  0  0  0
 43 45  1  0  0  0  0
 44 43  2  0  0  0  0
 45 46  1  0  0  0  0
 46 47  2  0  0  0  0
 48 45  1  0  0  0  0
M  END
>  <minimizedAffinity>
-5.70017433

$$$$

 OpenBabel03242512033D

 48 51  0  0  1  0  0  0  0  0999 V2000
   37.5320   26.5110   40.0780 C   0  0  2  0  0  0  0  0  0  0  0  0
   37.2340   25.2480   39.3280 C   0  0  0  0  0  0  0  0  0  0  0  0
   36.2880   24.3710   40.0510 C   0  0  0  0  0  0  0  0  0  0  0  0
   36.7400   24.0380   41.4550 C   0  0  0  0  0  0  0  0  0  0  0  0
   37.3640   25.1960   42.1750 C   0  0  0  0  0  0  0  0  0  0  0  0
   37.1090   26.5240   41.5000 C   0  0  1  0  0  0  0  0  0  0  0  0
   38.6610   26.6090   40.0500 H   0  0  0  0  0  0  0  0  0  0  0  0
   38.1430   24.6640   39.0820 H   0  0  0  0  0  0  0  0  0  0  0  0
   36.7740   25.5370   38.3640 H   0  0  0  0  0  0  0  0  0  0  0  0
   36.2240   23.3960   39.5130 H   0  0  0  0  0  0  0  0  0  0  0  0
   35.2790   24.8270   40.1180 H   0  0  0  0  0  0  0  0  0  0  0  0
   35.8880   23.5950   41.9840 H   0  0  0  0  0  0  0  0  0  0  0  0
   37.5180   23.2540   41.3620 H   0  0  0  0  0  0  0  0  0  0  0  0
   38.4540   25.0600   42.3340 H   0  0  0  0  0  0  0  0  0  0  0  0
   36.8730   25.2590   43.1860 H   0  0  0  0  0  0  0  0  0  0  0  0
   36.0550   26.7590   41.7060 H   0  0  0  0  0  0  0  0  0  0  0  0
   37.0390   27.7180   39.3840 C   0  0  0  0  0  0  0  0  0  0  0  0
   38.0190   28.3610   38.6460 C   0  0  0  0  0  0  0  0  0  0  0  0
   37.6960   29.5230   37.9250 C   0  0  0  0  0  0  0  0  0  0  0  0
   36.3640   29.9420   38.0220 N   0  0  0  0  0  0  0  0  0  0  0  0
   35.4480   29.2780   38.7570 C   0  0  0  0  0  0  0  0  0  0  0  0
   35.8050   28.1710   39.4280 N   0  0  0  0  0  0  0  0  0  0  0  0
   39.0710   28.2120   38.4550 H   0  0  0  0  0  0  0  0  0  0  0  0
   38.3020   30.1480   37.3100 H   0  0  0  0  0  0  0  0  0  0  0  0
   34.4530   29.6900   38.7590 H   0  0  0  0  0  0  0  0  0  0  0  0
   37.9200   27.5680   42.2170 C   0  0  2  0  0  0  0  0  0  0  0  0
   37.5160   27.9150   43.6400 C   0  0  0  0  0  0  0  0  0  0  0  0
   37.3240   28.8900   42.5530 C   0  0  1  0  0  0  0  0  0  0  0  0
   39.0190   27.4590   42.1070 H   0  0  0  0  0  0  0  0  0  0  0  0
   36.6270   27.4820   44.0990 H   0  0  0  0  0  0  0  0  0  0  0  0
   38.3080   28.1730   44.3790 H   0  0  0  0  0  0  0  0  0  0  0  0
   36.3020   29.0380   42.1350 H   0  0  0  0  0  0  0  0  0  0  0  0
   38.2560   30.0310   42.2770 C   0  0  0  0  0  0  0  0  0  0  0  0
   38.4230   30.5750   43.2290 H   0  0  0  0  0  0  0  0  0  0  0  0
   39.2480   29.6030   41.9900 H   0  0  0  0  0  0  0  0  0  0  0  0
   37.7420   31.0240   41.2850 C   0  0  0  0  0  0  0  0  0  0  0  0
   37.1860   30.4540   40.5140 H   0  0  0  0  0  0  0  0  0  0  0  0
   36.9810   31.6400   41.8070 H   0  0  0  0  0  0  0  0  0  0  0  0
   38.7820   31.8230   40.6820 N   0  0  0  0  0  0  0  0  0  0  0  0
   40.0910   31.6730   40.9540 C   0  0  0  0  0  3  0  0  0  0  0  0
   41.0300   32.4950   40.3200 C   0  0  0  0  0  0  0  0  0  0  0  0
   42.0890   32.4110   40.5070 H   0  0  0  0  0  0  0  0  0  0  0  0
   40.5000   33.4360   39.4260 C   0  0  0  0  0  0  0  0  0  0  0  0
   41.3950   34.1610   38.8730 O   0  0  0  0  0  0  0  0  0  0  0  0
   39.1830   33.5600   39.1750 N   0  0  0  0  0  0  0  0  0  0  0  0
   38.3230   32.7440   39.8130 C   0  0  0  0  0  0  0  0  0  0  0  0
   37.1140   32.9290   39.5200 O   0  0  0  0  0  0  0  0  0  0  0  0
   38.9890   34.3180   38.4790 H   0  0  0  0  0  0  0  0  0  0  0  0
  1  7  1  1  0  0  0
  1  6  1  0  0  0  0
  2  3  1  0  0  0  0
  2  1  1  0  0  0  0
  3 11  1  0  0  0  0
  3  4  1  0  0  0  0
  4 12  1  0  0  0  0
  4  5  1  0  0  0  0
  5 14  1  0  0  0  0
  5 15  1  0  0  0  0
  6 16  1  1  0  0  0
  6  5  1  0  0  0  0
  6 26  1  0  0  0  0
  8  2  1  0  0  0  0
  9  2  1  0  0  0  0
 10  3  1  0  0  0  0
 13  4  1  0  0  0  0
 17 22  1  0  0  0  0
 17  1  1  0  0  0  0
 18 17  2  0  0  0  0
 19 20  2  0  0  0  0
 19 18  1  0  0  0  0
 20 21  1  0  0  0  0
 21 25  1  0  0  0  0
 21 22  2  0  0  0  0
 23 18  1  0  0  0  0
 24 19  1  0  0  0  0
 26 29  1  6  0  0  0
 26 28  1  0  0  0  0
 26 27  1  0  0  0  0
 27 30  1  0  0  0  0
 27 31  1  0  0  0  0
 28 32  1  6  0  0  0
 28 27  1  0  0  0  0
 33 28  1  0  0  0  0
 33 34  1  0  0  0  0
 35 33  1  0  0  0  0
 36 38  1  0  0  0  0
 36 33  1  0  0  0  0
 37 36  1  0  0  0  0
 39 40  1  0  0  0  0
 39 36  1  0  0  0  0
 41 42  1  0  0  0  0
 41 40  2  0  0  0  0
 43 41  1  0  0  0  0
 44 43  2  0  0  0  0
 45 43  1  0  0  0  0
 45 46  1  0  0  0  0
 46 39  1  0  0  0  0
 47 46  2  0  0  0  0
 48 45  1  0  0  0  0
M  END
>  <minimizedAffinity>
-5.66577435

$$$$

 OpenBabel03242512033D

 48 51  0  0  1  0  0  0  0  0999 V2000
   37.8640   29.2730   39.2710 C   0  0  2  0  0  0  0  0  0  0  0  0
   37.4150   29.6040   37.8790 C   0  0  0  0  0  0  0  0  0  0  0  0
   35.9450   29.7210   37.7710 C   0  0  0  0  0  0  0  0  0  0  0  0
   35.2120   28.4950   38.2680 C   0  0  0  0  0  0  0  0  0  0  0  0
   35.8120   27.8970   39.5050 C   0  0  0  0  0  0  0  0  0  0  0  0
   36.7960   28.8160   40.1940 C   0  0  1  0  0  0  0  0  0  0  0  0
   38.6030   28.4230   39.1470 H   0  0  0  0  0  0  0  0  0  0  0  0
   37.7700   28.8750   37.1240 H   0  0  0  0  0  0  0  0  0  0  0  0
   37.8640   30.5790   37.6100 H   0  0  0  0  0  0  0  0  0  0  0  0
   35.6740   29.8230   36.6950 H   0  0  0  0  0  0  0  0  0  0  0  0
   35.5630   30.5970   38.3360 H   0  0  0  0  0  0  0  0  0  0  0  0
   34.1530   28.7580   38.3720 H   0  0  0  0  0  0  0  0  0  0  0  0
   35.2890   27.7320   37.4670 H   0  0  0  0  0  0  0  0  0  0  0  0
   36.2900   26.9140   39.3140 H   0  0  0  0  0  0  0  0  0  0  0  0
   34.9710   27.7370   40.2350 H   0  0  0  0  0  0  0  0  0  0  0  0
   36.1830   29.5930   40.6730 H   0  0  0  0  0  0  0  0  0  0  0  0
   38.6490   30.3590   39.8920 C   0  0  0  0  0  0  0  0  0  0  0  0
   37.8970   31.4880   40.1650 C   0  0  0  0  0  0  0  0  0  0  0  0
   38.5090   32.6040   40.7620 C   0  0  0  0  0  0  0  0  0  0  0  0
   39.8750   32.4660   41.0360 N   0  0  0  0  0  0  0  0  0  0  0  0
   40.5630   31.3420   40.7470 C   0  0  0  0  0  0  0  0  0  0  0  0
   39.9320   30.3020   40.1770 N   0  0  0  0  0  0  0  0  0  0  0  0
   36.8690   31.7900   40.0280 H   0  0  0  0  0  0  0  0  0  0  0  0
   38.1050   33.5480   41.0450 H   0  0  0  0  0  0  0  0  0  0  0  0
   41.6090   31.3480   41.0020 H   0  0  0  0  0  0  0  0  0  0  0  0
   37.4440   28.0430   41.3090 C   0  0  2  0  0  0  0  0  0  0  0  0
   36.5940   27.7190   42.5250 C   0  0  0  0  0  0  0  0  0  0  0  0
   37.6990   28.6860   42.6270 C   0  0  1  0  0  0  0  0  0  0  0  0
   38.0550   27.1760   40.9800 H   0  0  0  0  0  0  0  0  0  0  0  0
   35.5760   28.0960   42.6220 H   0  0  0  0  0  0  0  0  0  0  0  0
   36.7530   26.7520   43.0550 H   0  0  0  0  0  0  0  0  0  0  0  0
   37.4630   29.7750   42.6450 H   0  0  0  0  0  0  0  0  0  0  0  0
   39.0520   28.3560   43.1790 C   0  0  0  0  0  0  0  0  0  0  0  0
   39.8140   28.7190   42.4590 H   0  0  0  0  0  0  0  0  0  0  0  0
   39.2000   28.9550   44.1100 H   0  0  0  0  0  0  0  0  0  0  0  0
   39.2980   26.8950   43.3830 C   0  0  0  0  0  0  0  0  0  0  0  0
   38.8030   26.6130   44.3340 H   0  0  0  0  0  0  0  0  0  0  0  0
   38.7420   26.3580   42.5860 H   0  0  0  0  0  0  0  0  0  0  0  0
   40.6990   26.5470   43.4100 N   0  0  0  0  0  0  0  0  0  0  0  0
   41.6820   27.4280   43.6730 C   0  0  0  0  0  3  0  0  0  0  0  0
   43.0140   26.9990   43.6780 C   0  0  0  0  0  0  0  0  0  0  0  0
   43.8340   27.6700   43.8850 H   0  0  0  0  0  0  0  0  0  0  0  0
   43.2100   25.6410   43.3960 C   0  0  0  0  0  0  0  0  0  0  0  0
   44.4410   25.2980   43.4120 O   0  0  0  0  0  0  0  0  0  0  0  0
   42.2040   24.7840   43.1360 N   0  0  0  0  0  0  0  0  0  0  0  0
   40.9410   25.2490   43.1440 C   0  0  0  0  0  0  0  0  0  0  0  0
   40.0650   24.3830   42.8920 O   0  0  0  0  0  0  0  0  0  0  0  0
   42.5550   23.8150   42.9500 H   0  0  0  0  0  0  0  0  0  0  0  0
  1  7  1  6  0  0  0
  1 17  1  0  0  0  0
  1  6  1  0  0  0  0
  2  1  1  0  0  0  0
  3  2  1  0  0  0  0
  3  4  1  0  0  0  0
  3 11  1  0  0  0  0
  4 12  1  0  0  0  0
  4  5  1  0  0  0  0
  5  6  1  0  0  0  0
  5 15  1  0  0  0  0
  6 16  1  1  0  0  0
  6 26  1  0  0  0  0
  8  2  1  0  0  0  0
  9  2  1  0  0  0  0
 10  3  1  0  0  0  0
 13  4  1  0  0  0  0
 14  5  1  0  0  0  0
 17 18  2  0  0  0  0
 17 22  1  0  0  0  0
 18 19  1  0  0  0  0
 19 20  2  0  0  0  0
 19 24  1  0  0  0  0
 21 25  1  0  0  0  0
 21 20  1  0  0  0  0
 22 21  2  0  0  0  0
 23 18  1  0  0  0  0
 26 29  1  6  0  0  0
 26 27  1  0  0  0  0
 26 28  1  0  0  0  0
 27 30  1  0  0  0  0
 27 28  1  0  0  0  0
 27 31  1  0  0  0  0
 28 32  1  1  0  0  0
 28 33  1  0  0  0  0
 33 36  1  0  0  0  0
 33 35  1  0  0  0  0
 34 33  1  0  0  0  0
 36 39  1  0  0  0  0
 36 37  1  0  0  0  0
 38 36  1  0  0  0  0
 39 40  1  0  0  0  0
 40 41  2  0  0  0  0
 41 42  1  0  0  0  0
 43 44  2  0  0  0  0
 43 41  1  0  0  0  0
 45 46  1  0  0  0  0
 45 43  1  0  0  0  0
 46 39  1  0  0  0  0
 47 46  2  0  0  0  0
 48 45  1  0  0  0  0
M  END
>  <minimizedAffinity>
-5.60128832

$$$$

 OpenBabel03242512033D

 48 51  0  0  1  0  0  0  0  0999 V2000
   36.9770   25.3780   41.3160 C   0  0  2  0  0  0  0  0  0  0  0  0
   37.3830   24.0980   41.9820 C   0  0  0  0  0  0  0  0  0  0  0  0
   38.2480   23.2630   41.1220 C   0  0  0  0  0  0  0  0  0  0  0  0
   37.6370   22.9660   39.7720 C   0  0  0  0  0  0  0  0  0  0  0  0
   36.9120   24.1330   39.1710 C   0  0  0  0  0  0  0  0  0  0  0  0
   37.2250   25.4440   39.8540 C   0  0  1  0  0  0  0  0  0  0  0  0
   35.8580   25.4530   41.4820 H   0  0  0  0  0  0  0  0  0  0  0  0
   36.5200   23.4900   42.3160 H   0  0  0  0  0  0  0  0  0  0  0  0
   37.9510   24.3660   42.8940 H   0  0  0  0  0  0  0  0  0  0  0  0
   38.3930   22.2730   41.6160 H   0  0  0  0  0  0  0  0  0  0  0  0
   39.2350   23.7400   40.9500 H   0  0  0  0  0  0  0  0  0  0  0  0
   38.4250   22.5560   39.1300 H   0  0  0  0  0  0  0  0  0  0  0  0
   36.8880   22.1630   39.9310 H   0  0  0  0  0  0  0  0  0  0  0  0
   35.8130   23.9800   39.1390 H   0  0  0  0  0  0  0  0  0  0  0  0
   37.2770   24.2370   38.1120 H   0  0  0  0  0  0  0  0  0  0  0  0
   38.2440   25.7050   39.5320 H   0  0  0  0  0  0  0  0  0  0  0  0
   37.5310   26.5720   41.9860 C   0  0  0  0  0  0  0  0  0  0  0  0
   38.8990   26.7020   41.8260 C   0  0  0  0  0  0  0  0  0  0  0  0
   39.5670   27.7950   42.4050 C   0  0  0  0  0  0  0  0  0  0  0  0
   38.7570   28.6870   43.1170 N   0  0  0  0  0  0  0  0  0  0  0  0
   37.4250   28.5130   43.2440 C   0  0  0  0  0  0  0  0  0  0  0  0
   36.8330   27.4520   42.6710 N   0  0  0  0  0  0  0  0  0  0  0  0
   39.6820   26.1380   41.3400 H   0  0  0  0  0  0  0  0  0  0  0  0
   40.5990   28.0630   42.3930 H   0  0  0  0  0  0  0  0  0  0  0  0
   36.9020   29.2620   43.8130 H   0  0  0  0  0  0  0  0  0  0  0  0
   36.3170   26.4930   39.2750 C   0  0  2  0  0  0  0  0  0  0  0  0
   36.5860   26.9440   37.8500 C   0  0  0  0  0  0  0  0  0  0  0  0
   36.8320   27.8580   38.9770 C   0  0  1  0  0  0  0  0  0  0  0  0
   35.2360   26.3310   39.4690 H   0  0  0  0  0  0  0  0  0  0  0  0
   37.4480   26.5780   37.2920 H   0  0  0  0  0  0  0  0  0  0  0  0
   35.7250   27.2110   37.1960 H   0  0  0  0  0  0  0  0  0  0  0  0
   37.8800   28.0240   39.3170 H   0  0  0  0  0  0  0  0  0  0  0  0
   35.8850   28.9380   39.4010 C   0  0  0  0  0  0  0  0  0  0  0  0
   34.8540   28.5310   39.3480 H   0  0  0  0  0  0  0  0  0  0  0  0
   36.0730   29.1580   40.4800 H   0  0  0  0  0  0  0  0  0  0  0  0
   35.9200   30.1640   38.5440 C   0  0  0  0  0  0  0  0  0  0  0  0
   36.1460   29.8300   37.5110 H   0  0  0  0  0  0  0  0  0  0  0  0
   34.8870   30.5660   38.5090 H   0  0  0  0  0  0  0  0  0  0  0  0
   36.8800   31.1460   38.9880 N   0  0  0  0  0  0  0  0  0  0  0  0
   37.0070   31.5410   40.2690 C   0  0  0  0  0  3  0  0  0  0  0  0
   37.9680   32.5010   40.6060 C   0  0  0  0  0  0  0  0  0  0  0  0
   38.1060   32.8470   41.6190 H   0  0  0  0  0  0  0  0  0  0  0  0
   38.7390   32.9820   39.5390 C   0  0  0  0  0  0  0  0  0  0  0  0
   39.6010   33.8550   39.8970 O   0  0  0  0  0  0  0  0  0  0  0  0
   38.5870   32.5660   38.2680 N   0  0  0  0  0  0  0  0  0  0  0  0
   37.6470   31.6410   37.9980 C   0  0  0  0  0  0  0  0  0  0  0  0
   37.5740   31.3100   36.7870 O   0  0  0  0  0  0  0  0  0  0  0  0
   39.2560   33.0440   37.6190 H   0  0  0  0  0  0  0  0  0  0  0  0
  1  7  1  1  0  0  0
  1  2  1  0  0  0  0
  1 17  1  0  0  0  0
  2  8  1  0  0  0  0
  2  9  1  0  0  0  0
  3 10  1  0  0  0  0
  3  2  1  0  0  0  0
  4 13  1  0  0  0  0
  4  3  1  0  0  0  0
  5  4  1  0  0  0  0
  5  6  1  0  0  0  0
  6 16  1  6  0  0  0
  6  1  1  0  0  0  0
 11  3  1  0  0  0  0
 12  4  1  0  0  0  0
 14  5  1  0  0  0  0
 15  5  1  0  0  0  0
 17 22  1  0  0  0  0
 18 17  2  0  0  0  0
 18 19  1  0  0  0  0
 19 20  2  0  0  0  0
 20 21  1  0  0  0  0
 21 25  1  0  0  0  0
 22 21  2  0  0  0  0
 23 18  1  0  0  0  0
 24 19  1  0  0  0  0
 26 29  1  1  0  0  0
 26  6  1  0  0  0  0
 27 28  1  0  0  0  0
 27 26  1  0  0  0  0
 28 26  1  0  0  0  0
 28 32  1  1  0  0  0
 28 33  1  0  0  0  0
 30 27  1  0  0  0  0
 31 27  1  0  0  0  0
 33 35  1  0  0  0  0
 34 33  1  0  0  0  0
 36 39  1  0  0  0  0
 36 33  1  0  0  0  0
 37 36  1  0  0  0  0
 38 36  1  0  0  0  0
 39 40  1  0  0  0  0
 40 41  2  0  0  0  0
 41 42  1  0  0  0  0
 43 44  2  0  0  0  0
 43 41  1  0  0  0  0
 45 43  1  0  0  0  0
 46 45  1  0  0  0  0
 46 39  1  0  0  0  0
 47 46  2  0  0  0  0
 48 45  1  0  0  0  0
M  END
>  <minimizedAffinity>
-5.5996027

$$$$

 OpenBabel03242512033D

 48 51  0  0  1  0  0  0  0  0999 V2000
   38.9660   27.2680   42.7470 C   0  0  2  0  0  0  0  0  0  0  0  0
   40.0150   26.7420   43.6790 C   0  0  0  0  0  0  0  0  0  0  0  0
   40.5730   25.4480   43.2310 C   0  0  0  0  0  0  0  0  0  0  0  0
   39.5160   24.3920   43.0010 C   0  0  0  0  0  0  0  0  0  0  0  0
   38.2710   24.9200   42.3530 C   0  0  0  0  0  0  0  0  0  0  0  0
   38.4490   26.2950   41.7530 C   0  0  1  0  0  0  0  0  0  0  0  0
   38.1030   27.5710   43.4180 H   0  0  0  0  0  0  0  0  0  0  0  0
   39.6560   26.6320   44.7210 H   0  0  0  0  0  0  0  0  0  0  0  0
   40.8360   27.4850   43.7070 H   0  0  0  0  0  0  0  0  0  0  0  0
   41.2350   25.0480   44.0340 H   0  0  0  0  0  0  0  0  0  0  0  0
   41.1530   25.5580   42.2910 H   0  0  0  0  0  0  0  0  0  0  0  0
   39.9830   23.5640   42.4550 H   0  0  0  0  0  0  0  0  0  0  0  0
   39.2260   24.0090   44.0010 H   0  0  0  0  0  0  0  0  0  0  0  0
   37.4010   24.9210   43.0410 H   0  0  0  0  0  0  0  0  0  0  0  0
   38.0310   24.2330   41.4940 H   0  0  0  0  0  0  0  0  0  0  0  0
   39.0500   26.1430   40.8450 H   0  0  0  0  0  0  0  0  0  0  0  0
   39.3710   28.5210   42.0790 C   0  0  0  0  0  0  0  0  0  0  0  0
   38.8280   29.6520   42.6640 C   0  0  0  0  0  0  0  0  0  0  0  0
   39.1300   30.9200   42.1390 C   0  0  0  0  0  0  0  0  0  0  0  0
   39.9840   30.9250   41.0290 N   0  0  0  0  0  0  0  0  0  0  0  0
   40.4860   29.7920   40.4960 C   0  0  0  0  0  0  0  0  0  0  0  0
   40.1680   28.6030   41.0350 N   0  0  0  0  0  0  0  0  0  0  0  0
   38.1630   29.8570   43.4900 H   0  0  0  0  0  0  0  0  0  0  0  0
   38.8150   31.8910   42.4450 H   0  0  0  0  0  0  0  0  0  0  0  0
   41.1320   29.9150   39.6440 H   0  0  0  0  0  0  0  0  0  0  0  0
   37.1010   26.7740   41.2910 C   0  0  2  0  0  0  0  0  0  0  0  0
   36.6000   26.2710   39.9480 C   0  0  0  0  0  0  0  0  0  0  0  0
   36.9820   27.6830   40.1180 C   0  0  1  0  0  0  0  0  0  0  0  0
   36.3090   26.7550   42.0690 H   0  0  0  0  0  0  0  0  0  0  0  0
   37.2240   25.6480   39.3080 H   0  0  0  0  0  0  0  0  0  0  0  0
   35.5110   26.0830   39.8130 H   0  0  0  0  0  0  0  0  0  0  0  0
   37.9630   28.0280   39.7190 H   0  0  0  0  0  0  0  0  0  0  0  0
   36.0020   28.7940   40.3440 C   0  0  0  0  0  0  0  0  0  0  0  0
   34.9970   28.4300   40.0470 H   0  0  0  0  0  0  0  0  0  0  0  0
   35.9470   28.9850   41.4440 H   0  0  0  0  0  0  0  0  0  0  0  0
   36.2760   30.0320   39.5520 C   0  0  0  0  0  0  0  0  0  0  0  0
   35.5350   30.7920   39.8720 H   0  0  0  0  0  0  0  0  0  0  0  0
   37.2620   30.4180   39.8830 H   0  0  0  0  0  0  0  0  0  0  0  0
   36.2160   29.8250   38.1250 N   0  0  0  0  0  0  0  0  0  0  0  0
   35.2010   29.1940   37.5050 C   0  0  0  0  0  3  0  0  0  0  0  0
   35.2270   29.0390   36.1140 C   0  0  0  0  0  0  0  0  0  0  0  0
   34.4360   28.5410   35.5750 H   0  0  0  0  0  0  0  0  0  0  0  0
   36.3510   29.5740   35.4700 C   0  0  0  0  0  0  0  0  0  0  0  0
   36.3290   29.4080   34.2030 O   0  0  0  0  0  0  0  0  0  0  0  0
   37.3500   30.2000   36.1200 N   0  0  0  0  0  0  0  0  0  0  0  0
   37.2750   30.3220   37.4590 C   0  0  0  0  0  0  0  0  0  0  0  0
   38.2490   30.9180   37.9840 O   0  0  0  0  0  0  0  0  0  0  0  0
   38.0970   30.5280   35.4630 H   0  0  0  0  0  0  0  0  0  0  0  0
  1  7  1  1  0  0  0
  1  2  1  0  0  0  0
  2  9  1  0  0  0  0
  2  8  1  0  0  0  0
  3  2  1  0  0  0  0
  3 10  1  0  0  0  0
  4  3  1  0  0  0  0
  4 13  1  0  0  0  0
  5  4  1  0  0  0  0
  5 14  1  0  0  0  0
  6 16  1  6  0  0  0
  6  5  1  0  0  0  0
  6  1  1  0  0  0  0
 11  3  1  0  0  0  0
 12  4  1  0  0  0  0
 15  5  1  0  0  0  0
 17 18  1  0  0  0  0
 17  1  1  0  0  0  0
 18 23  1  0  0  0  0
 19 24  1  0  0  0  0
 19 18  2  0  0  0  0
 20 19  1  0  0  0  0
 21 20  2  0  0  0  0
 21 22  1  0  0  0  0
 22 17  2  0  0  0  0
 25 21  1  0  0  0  0
 26  6  1  0  0  0  0
 26 29  1  1  0  0  0
 27 28  1  0  0  0  0
 27 26  1  0  0  0  0
 28 32  1  6  0  0  0
 28 33  1  0  0  0  0
 28 26  1  0  0  0  0
 30 27  1  0  0  0  0
 31 27  1  0  0  0  0
 33 35  1  0  0  0  0
 34 33  1  0  0  0  0
 36 37  1  0  0  0  0
 36 38  1  0  0  0  0
 36 33  1  0  0  0  0
 39 36  1  0  0  0  0
 40 39  1  0  0  0  0
 41 40  2  0  0  0  0
 42 41  1  0  0  0  0
 43 41  1  0  0  0  0
 43 45  1  0  0  0  0
 44 43  2  0  0  0  0
 45 46  1  0  0  0  0
 46 47  2  0  0  0  0
 46 39  1  0  0  0  0
 48 45  1  0  0  0  0
M  END
>  <minimizedAffinity>
-5.54150677

$$$$

 OpenBabel03242512033D

 48 51  0  0  1  0  0  0  0  0999 V2000
   38.4730   27.3320   42.7160 C   0  0  2  0  0  0  0  0  0  0  0  0
   39.2520   26.4850   43.6770 C   0  0  0  0  0  0  0  0  0  0  0  0
   39.6580   25.1910   43.0910 C   0  0  0  0  0  0  0  0  0  0  0  0
   38.4970   24.3980   42.5360 C   0  0  0  0  0  0  0  0  0  0  0  0
   37.4810   25.2400   41.8230 C   0  0  0  0  0  0  0  0  0  0  0  0
   37.9790   26.6310   41.5050 C   0  0  1  0  0  0  0  0  0  0  0  0
   37.5710   27.6890   43.3030 H   0  0  0  0  0  0  0  0  0  0  0  0
   38.7100   26.2930   44.6240 H   0  0  0  0  0  0  0  0  0  0  0  0
   40.1660   27.0490   43.9480 H   0  0  0  0  0  0  0  0  0  0  0  0
   40.1020   24.5590   43.8950 H   0  0  0  0  0  0  0  0  0  0  0  0
   40.3970   25.3270   42.2740 H   0  0  0  0  0  0  0  0  0  0  0  0
   38.9080   23.5870   41.9230 H   0  0  0  0  0  0  0  0  0  0  0  0
   37.9860   23.9330   43.4030 H   0  0  0  0  0  0  0  0  0  0  0  0
   36.5200   25.3030   42.3740 H   0  0  0  0  0  0  0  0  0  0  0  0
   37.2790   24.7450   40.8330 H   0  0  0  0  0  0  0  0  0  0  0  0
   38.6900   26.5040   40.6760 H   0  0  0  0  0  0  0  0  0  0  0  0
   39.1830   28.5710   42.3390 C   0  0  0  0  0  0  0  0  0  0  0  0
   40.2250   28.3550   41.4540 C   0  0  0  0  0  0  0  0  0  0  0  0
   40.9900   29.4430   41.0010 C   0  0  0  0  0  0  0  0  0  0  0  0
   40.6150   30.6940   41.5060 N   0  0  0  0  0  0  0  0  0  0  0  0
   39.5910   30.8500   42.3690 C   0  0  0  0  0  0  0  0  0  0  0  0
   38.8880   29.7780   42.7720 N   0  0  0  0  0  0  0  0  0  0  0  0
   40.6680   27.4970   40.9690 H   0  0  0  0  0  0  0  0  0  0  0  0
   41.8180   29.4780   40.3310 H   0  0  0  0  0  0  0  0  0  0  0  0
   39.3920   31.8570   42.6910 H   0  0  0  0  0  0  0  0  0  0  0  0
   36.8230   27.4180   40.9510 C   0  0  2  0  0  0  0  0  0  0  0  0
   36.3020   27.0280   39.5790 C   0  0  0  0  0  0  0  0  0  0  0  0
   37.0080   28.3050   39.7710 C   0  0  1  0  0  0  0  0  0  0  0  0
   36.0020   27.6090   41.6740 H   0  0  0  0  0  0  0  0  0  0  0  0
   36.7920   26.2580   38.9840 H   0  0  0  0  0  0  0  0  0  0  0  0
   35.2100   27.1110   39.3710 H   0  0  0  0  0  0  0  0  0  0  0  0
   38.0680   28.3910   39.4390 H   0  0  0  0  0  0  0  0  0  0  0  0
   36.3190   29.6270   39.9280 C   0  0  0  0  0  0  0  0  0  0  0  0
   35.2260   29.4420   39.9650 H   0  0  0  0  0  0  0  0  0  0  0  0
   36.5950   30.0420   40.9280 H   0  0  0  0  0  0  0  0  0  0  0  0
   36.5670   30.5900   38.8110 C   0  0  0  0  0  0  0  0  0  0  0  0
   36.8730   29.9920   37.9290 H   0  0  0  0  0  0  0  0  0  0  0  0
   35.5870   31.0360   38.5430 H   0  0  0  0  0  0  0  0  0  0  0  0
   37.5610   31.5890   39.1240 N   0  0  0  0  0  0  0  0  0  0  0  0
   37.3420   32.6260   39.9530 C   0  0  0  0  0  3  0  0  0  0  0  0
   38.3680   33.5470   40.1980 C   0  0  0  0  0  0  0  0  0  0  0  0
   38.2370   34.3930   40.8540 H   0  0  0  0  0  0  0  0  0  0  0  0
   39.5750   33.2940   39.5310 C   0  0  0  0  0  0  0  0  0  0  0  0
   40.4780   34.1610   39.7860 O   0  0  0  0  0  0  0  0  0  0  0  0
   39.7620   32.2460   38.7080 N   0  0  0  0  0  0  0  0  0  0  0  0
   38.7420   31.3900   38.5070 C   0  0  0  0  0  0  0  0  0  0  0  0
   39.0030   30.4410   37.7250 O   0  0  0  0  0  0  0  0  0  0  0  0
   40.7300   32.2320   38.3080 H   0  0  0  0  0  0  0  0  0  0  0  0
  1  7  1  1  0  0  0
  1  2  1  0  0  0  0
  2  9  1  0  0  0  0
  2  8  1  0  0  0  0
  3  2  1  0  0  0  0
  3 10  1  0  0  0  0
  4  3  1  0  0  0  0
  4 13  1  0  0  0  0
  5 14  1  0  0  0  0
  5  4  1  0  0  0  0
  6 16  1  6  0  0  0
  6  5  1  0  0  0  0
  6  1  1  0  0  0  0
 11  3  1  0  0  0  0
 12  4  1  0  0  0  0
 15  5  1  0  0  0  0
 17  1  1  0  0  0  0
 17 22  1  0  0  0  0
 18 17  2  0  0  0  0
 19 18  1  0  0  0  0
 19 20  2  0  0  0  0
 20 21  1  0  0  0  0
 21 25  1  0  0  0  0
 21 22  2  0  0  0  0
 23 18  1  0  0  0  0
 24 19  1  0  0  0  0
 26  6  1  0  0  0  0
 26 29  1  1  0  0  0
 27 28  1  0  0  0  0
 27 26  1  0  0  0  0
 28 32  1  6  0  0  0
 28 33  1  0  0  0  0
 28 26  1  0  0  0  0
 30 27  1  0  0  0  0
 31 27  1  0  0  0  0
 33 34  1  0  0  0  0
 33 35  1  0  0  0  0
 36 39  1  0  0  0  0
 36 33  1  0  0  0  0
 37 36  1  0  0  0  0
 38 36  1  0  0  0  0
 39 40  1  0  0  0  0
 40 41  2  0  0  0  0
 41 42  1  0  0  0  0
 43 44  2  0  0  0  0
 43 41  1  0  0  0  0
 45 43  1  0  0  0  0
 46 45  1  0  0  0  0
 46 39  1  0  0  0  0
 47 46  2  0  0  0  0
 48 45  1  0  0  0  0
M  END
>  <minimizedAffinity>
-5.48868227

$$$$

 OpenBabel03242512033D

 48 51  0  0  1  0  0  0  0  0999 V2000
   39.3850   26.2450   41.3470 C   0  0  2  0  0  0  0  0  0  0  0  0
   40.5720   25.3280   41.3450 C   0  0  0  0  0  0  0  0  0  0  0  0
   40.9280   24.8610   42.7020 C   0  0  0  0  0  0  0  0  0  0  0  0
   41.1560   25.9920   43.6790 C   0  0  0  0  0  0  0  0  0  0  0  0
   40.1850   27.1250   43.5240 C   0  0  0  0  0  0  0  0  0  0  0  0
   38.9860   26.7690   42.6760 C   0  0  1  0  0  0  0  0  0  0  0  0
   39.6940   27.1250   40.7040 H   0  0  0  0  0  0  0  0  0  0  0  0
   41.4690   25.7800   40.8770 H   0  0  0  0  0  0  0  0  0  0  0  0
   40.3070   24.4460   40.7300 H   0  0  0  0  0  0  0  0  0  0  0  0
   41.8940   24.3070   42.6460 H   0  0  0  0  0  0  0  0  0  0  0  0
   40.1440   24.1990   43.1240 H   0  0  0  0  0  0  0  0  0  0  0  0
   41.1770   25.5630   44.6880 H   0  0  0  0  0  0  0  0  0  0  0  0
   42.1660   26.3960   43.4690 H   0  0  0  0  0  0  0  0  0  0  0  0
   40.6640   28.0430   43.1280 H   0  0  0  0  0  0  0  0  0  0  0  0
   39.7850   27.3580   44.5490 H   0  0  0  0  0  0  0  0  0  0  0  0
   38.3670   26.1140   43.3060 H   0  0  0  0  0  0  0  0  0  0  0  0
   38.2180   25.6690   40.6480 C   0  0  0  0  0  0  0  0  0  0  0  0
   37.6200   24.6340   41.3470 C   0  0  0  0  0  0  0  0  0  0  0  0
   36.4930   23.9910   40.8080 C   0  0  0  0  0  0  0  0  0  0  0  0
   36.0600   24.4740   39.5670 N   0  0  0  0  0  0  0  0  0  0  0  0
   36.6800   25.4870   38.9280 C   0  0  0  0  0  0  0  0  0  0  0  0
   37.7540   26.0700   39.4840 N   0  0  0  0  0  0  0  0  0  0  0  0
   37.7990   24.1220   42.2810 H   0  0  0  0  0  0  0  0  0  0  0  0
   35.9040   23.1880   41.1890 H   0  0  0  0  0  0  0  0  0  0  0  0
   36.2600   25.7750   37.9790 H   0  0  0  0  0  0  0  0  0  0  0  0
   38.1860   28.0240   42.4600 C   0  0  2  0  0  0  0  0  0  0  0  0
   37.2980   28.4940   43.5980 C   0  0  0  0  0  0  0  0  0  0  0  0
   36.7020   27.9680   42.3600 C   0  0  1  0  0  0  0  0  0  0  0  0
   38.7490   28.8590   41.9930 H   0  0  0  0  0  0  0  0  0  0  0  0
   37.1840   27.9070   44.5090 H   0  0  0  0  0  0  0  0  0  0  0  0
   37.1670   29.5880   43.7650 H   0  0  0  0  0  0  0  0  0  0  0  0
   36.2940   26.9310   42.3560 H   0  0  0  0  0  0  0  0  0  0  0  0
   36.1650   28.8280   41.2570 C   0  0  0  0  0  0  0  0  0  0  0  0
   35.6120   28.1750   40.5510 H   0  0  0  0  0  0  0  0  0  0  0  0
   35.4030   29.5170   41.6980 H   0  0  0  0  0  0  0  0  0  0  0  0
   37.2110   29.5480   40.4670 C   0  0  0  0  0  0  0  0  0  0  0  0
   37.2680   30.5800   40.8700 H   0  0  0  0  0  0  0  0  0  0  0  0
   38.1850   29.0770   40.7130 H   0  0  0  0  0  0  0  0  0  0  0  0
   36.9480   29.5650   39.0480 N   0  0  0  0  0  0  0  0  0  0  0  0
   35.7700   29.2060   38.5030 C   0  0  0  0  0  3  0  0  0  0  0  0
   35.6060   29.2550   37.1140 C   0  0  0  0  0  0  0  0  0  0  0  0
   34.6810   28.9770   36.6330 H   0  0  0  0  0  0  0  0  0  0  0  0
   36.7260   29.6880   36.3900 C   0  0  0  0  0  0  0  0  0  0  0  0
   36.5270   29.7160   35.1280 O   0  0  0  0  0  0  0  0  0  0  0  0
   37.8900   30.0410   36.9660 N   0  0  0  0  0  0  0  0  0  0  0  0
   37.9940   29.9760   38.3070 C   0  0  0  0  0  0  0  0  0  0  0  0
   39.1150   30.3220   38.7610 O   0  0  0  0  0  0  0  0  0  0  0  0
   38.6020   30.3360   36.2570 H   0  0  0  0  0  0  0  0  0  0  0  0
  1  7  1  6  0  0  0
  1  6  1  0  0  0  0
  2  1  1  0  0  0  0
  2  3  1  0  0  0  0
  3 11  1  0  0  0  0
  3  4  1  0  0  0  0
  4 12  1  0  0  0  0
  5  4  1  0  0  0  0
  5 15  1  0  0  0  0
  6 16  1  1  0  0  0
  6  5  1  0  0  0  0
  8  2  1  0  0  0  0
  9  2  1  0  0  0  0
 10  3  1  0  0  0  0
 13  4  1  0  0  0  0
 14  5  1  0  0  0  0
 17 18  1  0  0  0  0
 17  1  1  0  0  0  0
 18 23  1  0  0  0  0
 19 24  1  0  0  0  0
 19 18  2  0  0  0  0
 20 19  1  0  0  0  0
 21 22  1  0  0  0  0
 21 20  2  0  0  0  0
 22 17  2  0  0  0  0
 25 21  1  0  0  0  0
 26 29  1  6  0  0  0
 26  6  1  0  0  0  0
 26 27  1  0  0  0  0
 27 31  1  0  0  0  0
 27 30  1  0  0  0  0
 28 32  1  1  0  0  0
 28 26  1  0  0  0  0
 28 27  1  0  0  0  0
 33 35  1  0  0  0  0
 33 28  1  0  0  0  0
 34 33  1  0  0  0  0
 36 38  1  0  0  0  0
 36 37  1  0  0  0  0
 36 33  1  0  0  0  0
 39 36  1  0  0  0  0
 40 39  1  0  0  0  0
 41 40  2  0  0  0  0
 42 41  1  0  0  0  0
 43 45  1  0  0  0  0
 43 41  1  0  0  0  0
 44 43  2  0  0  0  0
 45 46  1  0  0  0  0
 46 47  2  0  0  0  0
 46 39  1  0  0  0  0
 48 45  1  0  0  0  0
M  END
>  <minimizedAffinity>
-5.42630959

$$$$

 OpenBabel03242512033D

 48 51  0  0  1  0  0  0  0  0999 V2000
   38.1640   26.3920   40.3160 C   0  0  2  0  0  0  0  0  0  0  0  0
   38.0080   25.2360   39.3740 C   0  0  0  0  0  0  0  0  0  0  0  0
   36.7380   24.5080   39.5780 C   0  0  0  0  0  0  0  0  0  0  0  0
   36.5430   24.0380   41.0010 C   0  0  0  0  0  0  0  0  0  0  0  0
   36.9920   25.0330   42.0290 C   0  0  0  0  0  0  0  0  0  0  0  0
   37.2200   26.4150   41.4600 C   0  0  1  0  0  0  0  0  0  0  0  0
   39.2130   26.2900   40.7330 H   0  0  0  0  0  0  0  0  0  0  0  0
   38.8460   24.5140   39.4300 H   0  0  0  0  0  0  0  0  0  0  0  0
   38.0150   25.6460   38.3450 H   0  0  0  0  0  0  0  0  0  0  0  0
   36.7510   23.5860   38.9510 H   0  0  0  0  0  0  0  0  0  0  0  0
   35.8620   25.1320   39.3030 H   0  0  0  0  0  0  0  0  0  0  0  0
   35.4970   23.7280   41.1110 H   0  0  0  0  0  0  0  0  0  0  0  0
   37.1730   23.1330   41.1260 H   0  0  0  0  0  0  0  0  0  0  0  0
   37.8970   24.7000   42.5770 H   0  0  0  0  0  0  0  0  0  0  0  0
   36.1550   25.1360   42.7750 H   0  0  0  0  0  0  0  0  0  0  0  0
   36.2160   26.8220   41.2710 H   0  0  0  0  0  0  0  0  0  0  0  0
   38.1670   27.6970   39.6250 C   0  0  0  0  0  0  0  0  0  0  0  0
   39.4400   28.1870   39.3880 C   0  0  0  0  0  0  0  0  0  0  0  0
   39.6000   29.4190   38.7320 C   0  0  0  0  0  0  0  0  0  0  0  0
   38.4140   30.0640   38.3640 N   0  0  0  0  0  0  0  0  0  0  0  0
   37.1960   29.5430   38.6190 C   0  0  0  0  0  0  0  0  0  0  0  0
   37.0950   28.3610   39.2490 N   0  0  0  0  0  0  0  0  0  0  0  0
   40.4490   27.8600   39.5940 H   0  0  0  0  0  0  0  0  0  0  0  0
   40.4830   29.9520   38.4640 H   0  0  0  0  0  0  0  0  0  0  0  0
   36.3530   30.1260   38.2910 H   0  0  0  0  0  0  0  0  0  0  0  0
   37.8220   27.2650   42.5440 C   0  0  2  0  0  0  0  0  0  0  0  0
   36.9130   27.7040   43.6790 C   0  0  0  0  0  0  0  0  0  0  0  0
   37.4140   28.6870   42.7050 C   0  0  1  0  0  0  0  0  0  0  0  0
   38.8130   26.9210   42.9080 H   0  0  0  0  0  0  0  0  0  0  0  0
   35.8470   27.4760   43.6720 H   0  0  0  0  0  0  0  0  0  0  0  0
   37.3340   27.7900   44.7060 H   0  0  0  0  0  0  0  0  0  0  0  0
   36.7300   29.0480   41.9030 H   0  0  0  0  0  0  0  0  0  0  0  0
   38.5770   29.5980   42.9570 C   0  0  0  0  0  0  0  0  0  0  0  0
   38.4370   30.0640   43.9540 H   0  0  0  0  0  0  0  0  0  0  0  0
   39.4960   28.9680   43.0380 H   0  0  0  0  0  0  0  0  0  0  0  0
   38.7190   30.7090   41.9660 C   0  0  0  0  0  0  0  0  0  0  0  0
   38.4800   30.2860   40.9690 H   0  0  0  0  0  0  0  0  0  0  0  0
   37.9150   31.4410   42.1820 H   0  0  0  0  0  0  0  0  0  0  0  0
   40.0310   31.3120   41.9660 N   0  0  0  0  0  0  0  0  0  0  0  0
   41.0650   30.8510   42.6940 C   0  0  0  0  0  3  0  0  0  0  0  0
   42.3030   31.5020   42.6300 C   0  0  0  0  0  0  0  0  0  0  0  0
   43.1590   31.1670   43.1950 H   0  0  0  0  0  0  0  0  0  0  0  0
   42.3530   32.6170   41.7830 C   0  0  0  0  0  0  0  0  0  0  0  0
   43.5020   33.1760   41.7590 O   0  0  0  0  0  0  0  0  0  0  0  0
   41.2990   33.0530   41.0680 N   0  0  0  0  0  0  0  0  0  0  0  0
   40.1320   32.3900   41.1660 C   0  0  0  0  0  0  0  0  0  0  0  0
   39.2020   32.8650   40.4650 O   0  0  0  0  0  0  0  0  0  0  0  0
   41.5390   33.8980   40.4970 H   0  0  0  0  0  0  0  0  0  0  0  0
  1  7  1  1  0  0  0
  1  6  1  0  0  0  0
  2  8  1  0  0  0  0
  2  3  1  0  0  0  0
  2  1  1  0  0  0  0
  3  4  1  0  0  0  0
  4 12  1  0  0  0  0
  4 13  1  0  0  0  0
  4  5  1  0  0  0  0
  5 14  1  0  0  0  0
  5 15  1  0  0  0  0
  6 16  1  6  0  0  0
  6  5  1  0  0  0  0
  6 26  1  0  0  0  0
  9  2  1  0  0  0  0
 10  3  1  0  0  0  0
 11  3  1  0  0  0  0
 17  1  1  0  0  0  0
 18 23  1  0  0  0  0
 18 17  1  0  0  0  0
 19 18  2  0  0  0  0
 20 21  2  0  0  0  0
 20 19  1  0  0  0  0
 21 22  1  0  0  0  0
 22 17  2  0  0  0  0
 24 19  1  0  0  0  0
 25 21  1  0  0  0  0
 26 28  1  0  0  0  0
 26 29  1  1  0  0  0
 26 27  1  0  0  0  0
 27 31  1  0  0  0  0
 28 32  1  6  0  0  0
 28 33  1  0  0  0  0
 28 27  1  0  0  0  0
 30 27  1  0  0  0  0
 33 35  1  0  0  0  0
 33 34  1  0  0  0  0
 36 38  1  0  0  0  0
 36 33  1  0  0  0  0
 37 36  1  0  0  0  0
 39 36  1  0  0  0  0
 39 40  1  0  0  0  0
 41 40  2  0  0  0  0
 41 42  1  0  0  0  0
 43 41  1  0  0  0  0
 44 43  2  0  0  0  0
 45 46  1  0  0  0  0
 45 43  1  0  0  0  0
 46 39  1  0  0  0  0
 47 46  2  0  0  0  0
 48 45  1  0  0  0  0
M  END
>  <minimizedAffinity>
-5.39489937

$$$$

 OpenBabel03242512033D

 48 51  0  0  1  0  0  0  0  0999 V2000
   36.2980   28.9330   39.5790 C   0  0  2  0  0  0  0  0  0  0  0  0
   35.3380   28.2040   38.6870 C   0  0  0  0  0  0  0  0  0  0  0  0
   35.8130   28.1240   37.2900 C   0  0  0  0  0  0  0  0  0  0  0  0
   36.1400   29.4740   36.6940 C   0  0  0  0  0  0  0  0  0  0  0  0
   36.8270   30.4020   37.6510 C   0  0  0  0  0  0  0  0  0  0  0  0
   37.3580   29.7030   38.8810 C   0  0  1  0  0  0  0  0  0  0  0  0
   35.6590   29.6670   40.1590 H   0  0  0  0  0  0  0  0  0  0  0  0
   34.3210   28.6430   38.6930 H   0  0  0  0  0  0  0  0  0  0  0  0
   35.2380   27.1740   39.0820 H   0  0  0  0  0  0  0  0  0  0  0  0
   34.9960   27.7020   36.6590 H   0  0  0  0  0  0  0  0  0  0  0  0
   36.7180   27.4860   37.2020 H   0  0  0  0  0  0  0  0  0  0  0  0
   36.6970   29.3050   35.7650 H   0  0  0  0  0  0  0  0  0  0  0  0
   35.1740   29.9440   36.4210 H   0  0  0  0  0  0  0  0  0  0  0  0
   36.1840   31.2540   37.9530 H   0  0  0  0  0  0  0  0  0  0  0  0
   37.7250   30.8200   37.1170 H   0  0  0  0  0  0  0  0  0  0  0  0
   38.2400   29.1420   38.5410 H   0  0  0  0  0  0  0  0  0  0  0  0
   36.8920   28.0620   40.6140 C   0  0  0  0  0  0  0  0  0  0  0  0
   36.3020   28.2120   41.8570 C   0  0  0  0  0  0  0  0  0  0  0  0
   36.7590   27.4430   42.9410 C   0  0  0  0  0  0  0  0  0  0  0  0
   37.8090   26.5620   42.6540 N   0  0  0  0  0  0  0  0  0  0  0  0
   38.3490   26.4550   41.4230 C   0  0  0  0  0  0  0  0  0  0  0  0
   37.8770   27.2110   40.4190 N   0  0  0  0  0  0  0  0  0  0  0  0
   35.5150   28.8220   42.2750 H   0  0  0  0  0  0  0  0  0  0  0  0
   36.4390   27.4180   43.9570 H   0  0  0  0  0  0  0  0  0  0  0  0
   39.1510   25.7450   41.3180 H   0  0  0  0  0  0  0  0  0  0  0  0
   37.8660   30.7560   39.8260 C   0  0  2  0  0  0  0  0  0  0  0  0
   36.8440   31.6910   40.4500 C   0  0  0  0  0  0  0  0  0  0  0  0
   37.8050   32.1970   39.4570 C   0  0  1  0  0  0  0  0  0  0  0  0
   38.6130   30.3970   40.5640 H   0  0  0  0  0  0  0  0  0  0  0  0
   35.7920   31.6510   40.1680 H   0  0  0  0  0  0  0  0  0  0  0  0
   37.0030   32.0460   41.4940 H   0  0  0  0  0  0  0  0  0  0  0  0
   37.4580   32.3750   38.4130 H   0  0  0  0  0  0  0  0  0  0  0  0
   39.0600   32.9370   39.8070 C   0  0  0  0  0  0  0  0  0  0  0  0
   39.1920   33.7560   39.0720 H   0  0  0  0  0  0  0  0  0  0  0  0
   38.9030   33.4330   40.7960 H   0  0  0  0  0  0  0  0  0  0  0  0
   40.3020   32.1040   39.7660 C   0  0  0  0  0  0  0  0  0  0  0  0
   40.0240   31.0910   40.1210 H   0  0  0  0  0  0  0  0  0  0  0  0
   40.5760   31.9820   38.6980 H   0  0  0  0  0  0  0  0  0  0  0  0
   41.3820   32.6450   40.5560 N   0  0  0  0  0  0  0  0  0  0  0  0
   42.1660   33.6620   40.1500 C   0  0  0  0  0  3  0  0  0  0  0  0
   43.1920   34.1220   40.9850 C   0  0  0  0  0  0  0  0  0  0  0  0
   43.8440   34.9330   40.7010 H   0  0  0  0  0  0  0  0  0  0  0  0
   43.3130   33.4560   42.2120 C   0  0  0  0  0  0  0  0  0  0  0  0
   44.2620   33.9110   42.9370 O   0  0  0  0  0  0  0  0  0  0  0  0
   42.5120   32.4410   42.5880 N   0  0  0  0  0  0  0  0  0  0  0  0
   41.5410   32.0380   41.7470 C   0  0  0  0  0  0  0  0  0  0  0  0
   40.8400   31.0870   42.1770 O   0  0  0  0  0  0  0  0  0  0  0  0
   42.7630   32.0780   43.5380 H   0  0  0  0  0  0  0  0  0  0  0  0
  1  7  1  1  0  0  0
  1 17  1  0  0  0  0
  2  8  1  0  0  0  0
  2  9  1  0  0  0  0
  2  1  1  0  0  0  0
  3  2  1  0  0  0  0
  4  3  1  0  0  0  0
  4  5  1  0  0  0  0
  5 14  1  0  0  0  0
  5  6  1  0  0  0  0
  6 16  1  6  0  0  0
  6  1  1  0  0  0  0
  6 26  1  0  0  0  0
 10  3  1  0  0  0  0
 11  3  1  0  0  0  0
 12  4  1  0  0  0  0
 13  4  1  0  0  0  0
 15  5  1  0  0  0  0
 17 18  1  0  0  0  0
 18 23  1  0  0  0  0
 18 19  2  0  0  0  0
 19 24  1  0  0  0  0
 20 19  1  0  0  0  0
 21 20  2  0  0  0  0
 22 17  2  0  0  0  0
 22 21  1  0  0  0  0
 25 21  1  0  0  0  0
 26 27  1  0  0  0  0
 26 29  1  1  0  0  0
 27 31  1  0  0  0  0
 28 32  1  6  0  0  0
 28 33  1  0  0  0  0
 28 26  1  0  0  0  0
 28 27  1  0  0  0  0
 30 27  1  0  0  0  0
 33 35  1  0  0  0  0
 34 33  1  0  0  0  0
 36 33  1  0  0  0  0
 36 37  1  0  0  0  0
 36 39  1  0  0  0  0
 38 36  1  0  0  0  0
 39 46  1  0  0  0  0
 40 39  1  0  0  0  0
 40 41  2  0  0  0  0
 41 43  1  0  0  0  0
 42 41  1  0  0  0  0
 43 45  1  0  0  0  0
 43 44  2  0  0  0  0
 45 48  1  0  0  0  0
 46 47  2  0  0  0  0
 46 45  1  0  0  0  0
M  END
>  <minimizedAffinity>
-5.37334776

$$$$
