
 OpenBabel03242512003D

 48 51  0  0  1  0  0  0  0  0999 V2000
   47.2020   34.0990   42.4770 C   0  0  2  0  0  0  0  0  0  0  0  0
   48.5530   34.7410   42.5850 C   0  0  0  0  0  0  0  0  0  0  0  0
   48.8130   35.7000   41.4900 C   0  0  0  0  0  0  0  0  0  0  0  0
   48.6420   35.0940   40.1160 C   0  0  0  0  0  0  0  0  0  0  0  0
   47.4730   34.1610   40.0120 C   0  0  0  0  0  0  0  0  0  0  0  0
   46.5140   34.2760   41.1750 C   0  0  1  0  0  0  0  0  0  0  0  0
   47.3910   32.9920   42.6230 H   0  0  0  0  0  0  0  0  0  0  0  0
   49.3810   34.0060   42.6180 H   0  0  0  0  0  0  0  0  0  0  0  0
   48.5820   35.2910   43.5450 H   0  0  0  0  0  0  0  0  0  0  0  0
   49.8770   36.0280   41.5490 H   0  0  0  0  0  0  0  0  0  0  0  0
   48.1470   36.5850   41.5570 H   0  0  0  0  0  0  0  0  0  0  0  0
   48.6190   35.9150   39.3890 H   0  0  0  0  0  0  0  0  0  0  0  0
   49.5550   34.4980   39.9150 H   0  0  0  0  0  0  0  0  0  0  0  0
   47.7830   33.1030   39.8860 H   0  0  0  0  0  0  0  0  0  0  0  0
   46.8920   34.4620   39.0960 H   0  0  0  0  0  0  0  0  0  0  0  0
   45.9770   35.2230   41.0180 H   0  0  0  0  0  0  0  0  0  0  0  0
   46.3030   34.4710   43.5890 C   0  0  0  0  0  0  0  0  0  0  0  0
   45.5900   35.6320   43.3480 C   0  0  0  0  0  0  0  0  0  0  0  0
   44.6890   36.1080   44.3160 C   0  0  0  0  0  0  0  0  0  0  0  0
   44.5900   35.3350   45.4790 N   0  0  0  0  0  0  0  0  0  0  0  0
   45.3100   34.2090   45.6630 C   0  0  0  0  0  0  0  0  0  0  0  0
   46.1580   33.7950   44.7080 N   0  0  0  0  0  0  0  0  0  0  0  0
   45.5300   36.3570   42.5490 H   0  0  0  0  0  0  0  0  0  0  0  0
   44.0600   36.9680   44.3150 H   0  0  0  0  0  0  0  0  0  0  0  0
   45.1530   33.6940   46.5960 H   0  0  0  0  0  0  0  0  0  0  0  0
   45.4910   33.1830   41.0370 C   0  0  2  0  0  0  0  0  0  0  0  0
   44.8580   32.9820   39.6710 C   0  0  0  0  0  0  0  0  0  0  0  0
   44.0610   33.5130   40.7880 C   0  0  1  0  0  0  0  0  0  0  0  0
   45.7700   32.2220   41.5170 H   0  0  0  0  0  0  0  0  0  0  0  0
   45.0800   33.6510   38.8390 H   0  0  0  0  0  0  0  0  0  0  0  0
   44.5960   31.9500   39.3430 H   0  0  0  0  0  0  0  0  0  0  0  0
   43.8420   34.6050   40.8240 H   0  0  0  0  0  0  0  0  0  0  0  0
   43.1240   32.6860   41.6160 C   0  0  0  0  0  0  0  0  0  0  0  0
   43.5770   31.6820   41.7450 H   0  0  0  0  0  0  0  0  0  0  0  0
   43.0780   33.1360   42.6370 H   0  0  0  0  0  0  0  0  0  0  0  0
   41.7730   32.4860   41.0080 C   0  0  0  0  0  0  0  0  0  0  0  0
   41.7680   31.4740   40.5560 H   0  0  0  0  0  0  0  0  0  0  0  0
   41.0440   32.4440   41.8430 H   0  0  0  0  0  0  0  0  0  0  0  0
   41.4320   33.4880   40.0260 N   0  0  0  0  0  0  0  0  0  0  0  0
   41.1570   34.7700   40.3300 C   0  0  0  0  0  3  0  0  0  0  0  0
   40.8360   35.6720   39.3100 C   0  0  0  0  0  0  0  0  0  0  0  0
   40.6090   36.7090   39.5080 H   0  0  0  0  0  0  0  0  0  0  0  0
   40.8320   35.1390   38.0150 C   0  0  0  0  0  0  0  0  0  0  0  0
   40.5340   36.0000   37.1180 O   0  0  0  0  0  0  0  0  0  0  0  0
   41.1120   33.8500   37.7420 N   0  0  0  0  0  0  0  0  0  0  0  0
   41.4140   33.0240   38.7610 C   0  0  0  0  0  0  0  0  0  0  0  0
   41.6620   31.8400   38.4170 O   0  0  0  0  0  0  0  0  0  0  0  0
   41.0550   33.6470   36.7150 H   0  0  0  0  0  0  0  0  0  0  0  0
  1  2  1  0  0  0  0
  1  7  1  1  0  0  0
  1 17  1  0  0  0  0
  2  8  1  0  0  0  0
  2  9  1  0  0  0  0
  3 10  1  0  0  0  0
  3 11  1  0  0  0  0
  3  2  1  0  0  0  0
  4  3  1  0  0  0  0
  5  4  1  0  0  0  0
  5  6  1  0  0  0  0
  6 16  1  6  0  0  0
  6  1  1  0  0  0  0
 12  4  1  0  0  0  0
 13  4  1  0  0  0  0
 14  5  1  0  0  0  0
 15  5  1  0  0  0  0
 17 22  1  0  0  0  0
 18 17  2  0  0  0  0
 18 19  1  0  0  0  0
 19 20  2  0  0  0  0
 20 21  1  0  0  0  0
 21 25  1  0  0  0  0
 22 21  2  0  0  0  0
 23 18  1  0  0  0  0
 24 19  1  0  0  0  0
 26  6  1  0  0  0  0
 26 29  1  1  0  0  0
 27 28  1  0  0  0  0
 27 26  1  0  0  0  0
 28 32  1  6  0  0  0
 28 26  1  0  0  0  0
 28 33  1  0  0  0  0
 30 27  1  0  0  0  0
 31 27  1  0  0  0  0
 33 34  1  0  0  0  0
 33 35  1  0  0  0  0
 36 33  1  0  0  0  0
 36 38  1  0  0  0  0
 37 36  1  0  0  0  0
 39 40  1  0  0  0  0
 39 36  1  0  0  0  0
 41 42  1  0  0  0  0
 41 40  2  0  0  0  0
 43 41  1  0  0  0  0
 44 43  2  0  0  0  0
 45 43  1  0  0  0  0
 45 46  1  0  0  0  0
 46 39  1  0  0  0  0
 47 46  2  0  0  0  0
 48 45  1  0  0  0  0
M  END
>  <minimizedAffinity>
-6.6596756

>  <minimizedRMSD>
1.99354196

$$$$
