
 OpenBabel03242517533D

 39 41  0  0  0  0  0  0  0  0999 V2000
   44.5120   35.3330   45.3470 C   0  0  0  0  0  0  0  0  0  0  0  0
   44.8440   35.5420   43.9920 C   0  0  0  0  0  0  0  0  0  0  0  0
   45.8870   34.8000   43.4420 C   0  0  0  0  0  0  0  0  0  0  0  0
   46.5110   33.9250   44.2480 N   0  0  0  0  0  0  0  0  0  0  0  0
   46.1930   33.7360   45.5170 C   0  0  0  0  0  0  0  0  0  0  0  0
   45.1840   34.4500   46.0660 N   0  0  0  0  0  0  0  0  0  0  0  0
   43.6890   35.9380   45.7290 H   0  0  0  0  0  0  0  0  0  0  0  0
   44.3650   36.2310   43.3240 H   0  0  0  0  0  0  0  0  0  0  0  0
   46.3150   34.9500   42.0350 C   0  0  0  0  0  0  0  0  0  0  0  0
   45.7690   35.8750   41.6810 H   0  0  0  0  0  0  0  0  0  0  0  0
   47.4000   35.0780   41.9960 H   0  0  0  0  0  0  0  0  0  0  0  0
   45.9720   33.7530   41.2050 C   0  0  0  0  0  0  0  0  0  0  0  0
   46.1920   32.8610   41.8180 H   0  0  0  0  0  0  0  0  0  0  0  0
   44.8670   33.7920   41.0470 H   0  0  0  0  0  0  0  0  0  0  0  0
   46.5910   33.7220   39.9200 N   0  0  0  0  0  0  0  0  0  0  0  0
   47.7760   34.3260   39.7160 C   0  0  0  0  0  3  0  0  0  0  0  0
   48.4670   34.3630   38.5270 C   0  0  0  0  0  0  0  0  0  0  0  0
   49.4180   34.8650   38.4250 H   0  0  0  0  0  0  0  0  0  0  0  0
   47.8330   33.7020   37.4920 C   0  0  0  0  0  0  0  0  0  0  0  0
   48.3890   33.6770   36.3490 O   0  0  0  0  0  0  0  0  0  0  0  0
   46.6430   33.0760   37.6300 N   0  0  0  0  0  0  0  0  0  0  0  0
   46.0790   33.1200   38.8510 C   0  0  0  0  0  0  0  0  0  0  0  0
   44.9730   32.5290   38.9480 O   0  0  0  0  0  0  0  0  0  0  0  0
   46.2210   32.5960   36.8040 H   0  0  0  0  0  0  0  0  0  0  0  0
   46.8330   32.8410   46.3440 O   0  0  0  0  0  0  0  0  0  0  0  0
   45.8540   30.6020   46.8360 C   0  0  0  0  0  0  0  0  0  0  0  0
   46.2220   31.8910   47.1510 C   0  0  0  0  0  0  0  0  0  0  0  0
   45.9640   32.3340   48.4370 C   0  0  0  0  0  0  0  0  0  0  0  0
   45.3570   31.5190   49.3800 C   0  0  0  0  0  0  0  0  0  0  0  0
   44.9990   30.2400   49.0470 C   0  0  0  0  0  0  0  0  0  0  0  0
   45.2540   29.7860   47.7570 C   0  0  0  0  0  0  0  0  0  0  0  0
   46.2130   33.3270   48.7870 H   0  0  0  0  0  0  0  0  0  0  0  0
   45.1530   31.8590   50.3880 H   0  0  0  0  0  0  0  0  0  0  0  0
   44.5240   29.5800   49.7600 H   0  0  0  0  0  0  0  0  0  0  0  0
   44.9850   28.7830   47.4610 H   0  0  0  0  0  0  0  0  0  0  0  0
   46.2170   30.1320   45.2000 S   0  0  0  0  0  0  0  0  0  0  0  0
   45.1660   30.6330   44.2380 O   0  0  0  0  0  0  0  0  0  0  0  0
   46.1230   28.6130   45.1410 O   0  0  0  0  0  0  0  0  0  0  0  0
   47.4390   30.5180   44.7800 H   0  0  0  0  0  0  0  0  0  0  0  0
  1  7  1  0  0  0  0
  1  6  1  0  0  0  0
  2  1  2  0  0  0  0
  3  2  1  0  0  0  0
  3  4  2  0  0  0  0
  4  5  1  0  0  0  0
  5  6  2  0  0  0  0
  5 25  1  0  0  0  0
  8  2  1  0  0  0  0
  9  3  1  0  0  0  0
 10  9  1  0  0  0  0
 11  9  1  0  0  0  0
 12 13  1  0  0  0  0
 12  9  1  0  0  0  0
 14 12  1  0  0  0  0
 15 12  1  0  0  0  0
 16 15  1  0  0  0  0
 17 16  2  0  0  0  0
 18 17  1  0  0  0  0
 19 21  1  0  0  0  0
 19 17  1  0  0  0  0
 20 19  2  0  0  0  0
 21 22  1  0  0  0  0
 22 23  2  0  0  0  0
 22 15  1  0  0  0  0
 24 21  1  0  0  0  0
 25 27  1  0  0  0  0
 26 27  2  0  0  0  0
 26 31  1  0  0  0  0
 27 28  1  0  0  0  0
 28 32  1  0  0  0  0
 28 29  2  0  0  0  0
 29 33  1  0  0  0  0
 30 29  1  0  0  0  0
 30 34  1  0  0  0  0
 31 30  2  0  0  0  0
 35 31  1  0  0  0  0
 36 26  1  0  0  0  0
 37 36  2  0  0  0  0
 38 36  2  0  0  0  0
 39 36  1  0  0  0  0
M  END
>  <minimizedAffinity>
-5.86191702

>  <minimizedRMSD>
2.5799818

$$$$
