
     RDKit          3D

 40 42  0  0  0  0  0  0  0  0999 V2000
   45.6398   30.4343   46.9067 C   0  0  0  0  0  0  0  0  0  0  0  0
   46.4463   31.5268   46.6771 C   0  0  0  0  0  0  0  0  0  0  0  0
   46.5872   32.4458   47.7021 C   0  0  0  0  0  0  0  0  0  0  0  0
   45.9444   32.2827   48.9205 C   0  0  0  0  0  0  0  0  0  0  0  0
   45.1470   31.1898   49.1289 C   0  0  0  0  0  0  0  0  0  0  0  0
   44.9993   30.2605   48.1042 C   0  0  0  0  0  0  0  0  0  0  0  0
   45.5218   29.3342   45.5644 S   0  0  0  0  0  0  0  0  0  0  0  0
   44.7315   29.9358   44.4271 O   0  0  0  0  0  0  0  0  0  0  0  0
   44.7018   28.1400   46.0359 O   0  0  0  0  0  0  0  0  0  0  0  0
   47.1612   31.8518   45.5320 O   0  0  0  0  0  0  0  0  0  0  0  0
   45.2271   34.3058   43.8496 C   0  0  0  0  0  0  0  0  0  0  0  0
   46.1657   34.8977   42.9798 C   0  0  0  0  0  0  0  0  0  0  0  0
   47.4756   34.4251   42.9945 C   0  0  0  0  0  0  0  0  0  0  0  0
   47.7584   33.4255   43.8464 N   0  0  0  0  0  0  0  0  0  0  0  0
   46.8722   32.8762   44.6585 C   0  0  0  0  0  0  0  0  0  0  0  0
   45.5963   33.3246   44.6558 N   0  0  0  0  0  0  0  0  0  0  0  0
   48.5336   34.9834   42.1265 C   0  0  0  0  0  0  0  0  0  0  0  0
   48.2019   34.8589   40.6729 C   0  0  0  0  0  0  0  0  0  0  0  0
   47.1962   33.3373   47.6259 H   0  0  0  0  0  0  0  0  0  0  0  0
   46.0502   32.9979   49.7270 H   0  0  0  0  0  0  0  0  0  0  0  0
   44.6319   31.0336   50.0678 H   0  0  0  0  0  0  0  0  0  0  0  0
   44.3777   29.3875   48.2359 H   0  0  0  0  0  0  0  0  0  0  0  0
   46.7151   28.9003   45.1076 H   0  0  0  0  0  0  0  0  0  0  0  0
   44.2158   34.7119   43.7994 H   0  0  0  0  0  0  0  0  0  0  0  0
   45.9709   35.6960   42.2891 H   0  0  0  0  0  0  0  0  0  0  0  0
   48.6079   36.0648   42.4484 H   0  0  0  0  0  0  0  0  0  0  0  0
   49.4693   34.4429   42.2981 H   0  0  0  0  0  0  0  0  0  0  0  0
   47.9677   33.7963   40.4846 H   0  0  0  0  0  0  0  0  0  0  0  0
   47.2648   35.4448   40.5181 H   0  0  0  0  0  0  0  0  0  0  0  0
   49.1907   35.3829   39.7888 N   0  0  0  0  0  0  0  0  0  0  0  0
   49.5413   36.6814   39.8439 C   0  0  0  0  0  0  0  0  0  0  0  0
   50.4772   37.2979   39.0470 C   0  0  0  0  0  0  0  0  0  0  0  0
   50.7158   38.3483   39.1398 H   0  0  0  0  0  0  0  0  0  0  0  0
   51.0729   36.4532   38.1303 C   0  0  0  0  0  0  0  0  0  0  0  0
   51.9544   36.9260   37.3440 O   0  0  0  0  0  0  0  0  0  0  0  0
   50.7678   35.1408   38.0219 N   0  0  0  0  0  0  0  0  0  0  0  0
   49.8321   34.6709   38.8671 C   0  0  0  0  0  0  0  0  0  0  0  0
   49.5691   33.4472   38.7431 O   0  0  0  0  0  0  0  0  0  0  0  0
   49.0337   37.3079   40.5942 H   0  0  0  0  0  0  0  0  0  0  0  0
   51.2585   34.5611   37.3051 H   0  0  0  0  0  0  0  0  0  0  0  0
  1  6  2  0
  2  1  1  0
  2  3  2  0
  3  4  1  0
  4  5  2  0
  6  5  1  0
  7  9  2  0
  7  1  1  0
  8  7  2  0
 10  2  1  0
 11 16  2  0
 12 13  2  0
 12 11  1  0
 13 14  1  0
 14 15  2  0
 15 10  1  0
 16 15  1  0
 17 13  1  0
 18 17  1  0
  3 19  1  0
  4 20  1  0
  5 21  1  0
  6 22  1  0
  7 23  1  0
 11 24  1  0
 12 25  1  0
 17 26  1  0
 17 27  1  0
 18 28  1  0
 18 29  1  0
 30 31  1  0
 31 32  2  0
 32 33  1  0
 32 34  1  0
 34 35  2  0
 34 36  1  0
 36 37  1  0
 37 38  2  0
 37 30  1  0
 31 39  1  0
 36 40  1  0
 18 30  1  0
M  ISO  8  19  14  20  14  21  14  22  14  23  11  24  14  25  14  26   8
M  ISO  4  27   8  28   8  29   8  33  16
M  END
>  <DihAtoms>  (1) 
16,17,29,30

>  <DihDeg>  (1) 
-89.99866854692135

$$$$
