
 OpenBabel03252509283D

 22 23  0  0  0  0  0  0  0  0999 V2000
   45.3770   32.7380   42.2460 C   0  0  0  0  0  0  0  0  0  0  0  0
   44.4060   32.4600   41.7750 H   0  0  0  0  0  0  0  0  0  0  0  0
   45.8680   31.8410   42.6520 H   0  0  0  0  0  0  0  0  0  0  0  0
   46.2810   33.2740   41.2260 N   0  0  0  0  0  0  0  0  0  0  0  0
   47.5280   33.7550   41.5020 C   0  0  0  0  0  3  0  0  0  0  0  0
   48.2630   34.2260   40.4460 C   0  0  0  0  0  0  0  0  0  0  0  0
   49.2620   34.6120   40.6660 H   0  0  0  0  0  0  0  0  0  0  0  0
   47.7890   34.2260   39.1400 C   0  0  0  0  0  0  0  0  0  0  0  0
   48.4960   34.6640   38.2210 O   0  0  0  0  0  0  0  0  0  0  0  0
   46.5630   33.7520   38.8730 N   0  0  0  0  0  0  0  0  0  0  0  0
   45.8650   33.2970   39.9310 C   0  0  0  0  0  0  0  0  0  0  0  0
   44.6980   32.8430   39.6920 O   0  0  0  0  0  0  0  0  0  0  0  0
   46.1370   33.7180   37.9230 H   0  0  0  0  0  0  0  0  0  0  0  0
   44.3330   35.8420   44.0160 C   0  0  0  0  0  0  0  0  0  0  0  0
   44.5630   34.9180   42.9820 C   0  0  0  0  0  0  0  0  0  0  0  0
   45.1440   33.6900   43.3360 C   0  0  0  0  0  0  0  0  0  0  0  0
   45.4550   33.4560   44.6520 N   0  0  0  0  0  0  0  0  0  0  0  0
   45.2120   34.3810   45.6080 C   0  0  0  0  0  0  0  0  0  0  0  0
   44.6530   35.5700   45.2900 N   0  0  0  0  0  0  0  0  0  0  0  0
   43.8850   36.7770   43.7160 H   0  0  0  0  0  0  0  0  0  0  0  0
   44.2910   35.1730   41.9610 H   0  0  0  0  0  0  0  0  0  0  0  0
   45.5170   34.0230   46.5600 H   0  0  0  0  0  0  0  0  0  0  0  0
  1  3  1  0  0  0  0
  1 16  1  0  0  0  0
  2  1  1  0  0  0  0
  4  5  1  0  0  0  0
  4  1  1  0  0  0  0
  6  7  1  0  0  0  0
  6  5  2  0  0  0  0
  8  6  1  0  0  0  0
  9  8  2  0  0  0  0
 10  8  1  0  0  0  0
 10 11  1  0  0  0  0
 11  4  1  0  0  0  0
 12 11  2  0  0  0  0
 13 10  1  0  0  0  0
 14 19  1  0  0  0  0
 15 16  1  0  0  0  0
 15 14  2  0  0  0  0
 16 17  2  0  0  0  0
 17 18  1  0  0  0  0
 18 22  1  0  0  0  0
 19 18  2  0  0  0  0
 20 14  1  0  0  0  0
 21 15  1  0  0  0  0
M  END
>  <minimizedAffinity>
-4.02191687

>  <minimizedRMSD>
3.26894093

$$$$
