
 OpenBabel03252509293D

 22 23  0  0  0  0  0  0  0  0999 V2000
   46.7910   34.3270   43.4670 C   0  0  0  0  0  0  0  0  0  0  0  0
   47.6350   33.9420   42.8500 H   0  0  0  0  0  0  0  0  0  0  0  0
   47.0700   35.2880   43.9260 H   0  0  0  0  0  0  0  0  0  0  0  0
   45.6400   34.6030   42.6050 N   0  0  0  0  0  0  0  0  0  0  0  0
   44.4710   35.1410   43.0590 C   0  0  0  0  0  3  0  0  0  0  0  0
   43.4770   35.3450   42.1380 C   0  0  0  0  0  0  0  0  0  0  0  0
   42.5400   35.7740   42.5000 H   0  0  0  0  0  0  0  0  0  0  0  0
   43.6230   35.0290   40.7930 C   0  0  0  0  0  0  0  0  0  0  0  0
   42.6920   35.2330   40.0010 O   0  0  0  0  0  0  0  0  0  0  0  0
   44.7740   34.5010   40.3500 N   0  0  0  0  0  0  0  0  0  0  0  0
   45.7300   34.3130   41.2790 C   0  0  0  0  0  0  0  0  0  0  0  0
   46.8300   33.8120   40.8740 O   0  0  0  0  0  0  0  0  0  0  0  0
   44.9610   34.2390   39.3600 H   0  0  0  0  0  0  0  0  0  0  0  0
   46.1720   31.0760   45.1690 C   0  0  0  0  0  0  0  0  0  0  0  0
   46.4760   32.0100   44.1640 C   0  0  0  0  0  0  0  0  0  0  0  0
   46.4720   33.3660   44.5260 C   0  0  0  0  0  0  0  0  0  0  0  0
   46.1760   33.7070   45.8230 N   0  0  0  0  0  0  0  0  0  0  0  0
   45.8910   32.7660   46.7500 C   0  0  0  0  0  0  0  0  0  0  0  0
   45.8890   31.4550   46.4240 N   0  0  0  0  0  0  0  0  0  0  0  0
   46.1830   30.0400   44.8630 H   0  0  0  0  0  0  0  0  0  0  0  0
   46.7000   31.6660   43.1580 H   0  0  0  0  0  0  0  0  0  0  0  0
   45.6900   33.2180   47.6910 H   0  0  0  0  0  0  0  0  0  0  0  0
  1  3  1  0  0  0  0
  1 16  1  0  0  0  0
  2  1  1  0  0  0  0
  4  5  1  0  0  0  0
  4  1  1  0  0  0  0
  6  7  1  0  0  0  0
  6  5  2  0  0  0  0
  8  6  1  0  0  0  0
  9  8  2  0  0  0  0
 10  8  1  0  0  0  0
 10 11  1  0  0  0  0
 11  4  1  0  0  0  0
 12 11  2  0  0  0  0
 13 10  1  0  0  0  0
 14 19  1  0  0  0  0
 15 16  1  0  0  0  0
 15 14  2  0  0  0  0
 16 17  2  0  0  0  0
 17 18  1  0  0  0  0
 18 22  1  0  0  0  0
 19 18  2  0  0  0  0
 20 14  1  0  0  0  0
 21 15  1  0  0  0  0
M  END
>  <minimizedAffinity>
-4.02883625

>  <minimizedRMSD>
4.89579058

$$$$
