
 OpenBabel03252509293D

 22 23  0  0  0  0  0  0  0  0999 V2000
   46.5200   34.8930   41.9110 C   0  0  0  0  0  0  0  0  0  0  0  0
   46.5640   35.9330   41.5160 H   0  0  0  0  0  0  0  0  0  0  0  0
   45.9120   34.2630   41.2430 H   0  0  0  0  0  0  0  0  0  0  0  0
   47.8640   34.3110   41.9130 N   0  0  0  0  0  0  0  0  0  0  0  0
   48.9470   34.9170   42.4820 C   0  0  0  0  0  3  0  0  0  0  0  0
   50.1440   34.2540   42.4070 C   0  0  0  0  0  0  0  0  0  0  0  0
   51.0110   34.7390   42.8620 H   0  0  0  0  0  0  0  0  0  0  0  0
   50.2830   33.0200   41.7860 C   0  0  0  0  0  0  0  0  0  0  0  0
   51.3890   32.4640   41.7470 O   0  0  0  0  0  0  0  0  0  0  0  0
   49.2150   32.4280   41.2280 N   0  0  0  0  0  0  0  0  0  0  0  0
   48.0540   33.1020   41.3180 C   0  0  0  0  0  0  0  0  0  0  0  0
   47.0320   32.5520   40.7920 O   0  0  0  0  0  0  0  0  0  0  0  0
   49.2390   31.5040   40.7460 H   0  0  0  0  0  0  0  0  0  0  0  0
   44.4980   36.0000   44.8340 C   0  0  0  0  0  0  0  0  0  0  0  0
   45.0850   35.9840   43.5560 C   0  0  0  0  0  0  0  0  0  0  0  0
   45.9150   34.8950   43.2460 C   0  0  0  0  0  0  0  0  0  0  0  0
   46.1110   33.9170   44.1900 N   0  0  0  0  0  0  0  0  0  0  0  0
   45.5210   33.9830   45.4040 C   0  0  0  0  0  0  0  0  0  0  0  0
   44.7170   35.0210   45.7240 N   0  0  0  0  0  0  0  0  0  0  0  0
   43.8640   36.8480   45.0450 H   0  0  0  0  0  0  0  0  0  0  0  0
   44.8850   36.7940   42.8610 H   0  0  0  0  0  0  0  0  0  0  0  0
   45.7880   33.1420   45.9950 H   0  0  0  0  0  0  0  0  0  0  0  0
  1  4  1  0  0  0  0
  1 16  1  0  0  0  0
  2  1  1  0  0  0  0
  3  1  1  0  0  0  0
  4  5  1  0  0  0  0
  6  5  2  0  0  0  0
  6  7  1  0  0  0  0
  8  6  1  0  0  0  0
  9  8  2  0  0  0  0
 10 11  1  0  0  0  0
 10  8  1  0  0  0  0
 11  4  1  0  0  0  0
 12 11  2  0  0  0  0
 13 10  1  0  0  0  0
 14 20  1  0  0  0  0
 14 19  1  0  0  0  0
 15 14  2  0  0  0  0
 16 15  1  0  0  0  0
 16 17  2  0  0  0  0
 17 18  1  0  0  0  0
 18 19  2  0  0  0  0
 18 22  1  0  0  0  0
 21 15  1  0  0  0  0
M  END
>  <minimizedAffinity>
-4.51160526

>  <minimizedRMSD>
2.27486134

$$$$
