
 OpenBabel03252504243D

 22 23  0  0  0  0  0  0  0  0999 V2000
   43.9300   35.2830   41.2870 C   0  0  0  0  0  0  0  0  0  0  0  0
   43.9890   36.3700   41.1540 H   0  0  0  0  0  0  0  0  0  0  0  0
   44.5820   34.8000   40.5070 H   0  0  0  0  0  0  0  0  0  0  0  0
   42.5830   34.7670   41.0900 N   0  0  0  0  0  0  0  0  0  0  0  0
   41.5480   35.4150   41.6280 C   0  0  0  0  0  0  0  0  0  0  0  0
   40.2770   34.8890   41.4160 C   0  0  0  0  0  0  0  0  0  0  0  0
   39.3990   35.3890   41.8400 H   0  0  0  0  0  0  0  0  0  0  0  0
   40.0940   33.7430   40.6810 C   0  0  0  0  0  0  0  0  0  0  0  0
   38.9300   33.2970   40.5110 O   0  0  0  0  0  0  0  0  0  0  0  0
   41.1720   33.1210   40.1550 N   0  0  0  0  0  0  0  0  0  0  0  0
   42.4200   33.6280   40.3560 C   0  0  0  0  0  0  0  0  0  0  0  0
   43.3740   32.9960   39.8380 O   0  0  0  0  0  0  0  0  0  0  0  0
   41.0290   32.2460   39.5940 H   0  0  0  0  0  0  0  0  0  0  0  0
   44.3240   35.9130   43.5880 C   0  0  0  0  0  0  0  0  0  0  0  0
   44.3880   34.8930   42.6250 C   0  0  0  0  0  0  0  0  0  0  0  0
   44.8680   33.6600   43.0400 C   0  0  0  0  0  0  0  0  0  0  0  0
   45.2420   33.5070   44.3250 N   0  0  0  0  0  0  0  0  0  0  0  0
   45.1640   34.5200   45.2260 C   0  0  0  0  0  0  0  0  0  0  0  0
   44.7050   35.7430   44.8820 N   0  0  0  0  0  0  0  0  0  0  0  0
   43.9670   36.9060   43.3690 H   0  0  0  0  0  0  0  0  0  0  0  0
   44.9010   32.9150   42.2810 H   0  0  0  0  0  0  0  0  0  0  0  0
   45.4930   34.2690   46.2180 H   0  0  0  0  0  0  0  0  0  0  0  0
  1 15  1  0  0  0  0
  2  1  1  0  0  0  0
  3  1  1  0  0  0  0
  4  1  1  0  0  0  0
  4  5  1  0  0  0  0
  6  5  2  0  0  0  0
  6  7  1  0  0  0  0
  8  6  1  0  0  0  0
  9  8  2  0  0  0  0
 10 11  1  0  0  0  0
 10  8  1  0  0  0  0
 11  4  1  0  0  0  0
 12 11  2  0  0  0  0
 13 10  1  0  0  0  0
 14 19  1  0  0  0  0
 15 16  1  0  0  0  0
 15 14  2  0  0  0  0
 16 17  2  0  0  0  0
 17 18  1  0  0  0  0
 18 22  1  0  0  0  0
 19 18  2  0  0  0  0
 20 14  1  0  0  0  0
 21 16  1  0  0  0  0
M  END
>  <minimizedAffinity>
-4.22689724

>  <minimizedRMSD>
1.36965156

$$$$
