
 OpenBabel03252509293D

 22 23  0  0  0  0  0  0  0  0999 V2000
   44.4710   33.5760   41.4270 C   0  0  0  0  0  0  0  0  0  0  0  0
   43.5970   34.0960   40.9750 H   0  0  0  0  0  0  0  0  0  0  0  0
   44.2880   32.4910   41.4590 H   0  0  0  0  0  0  0  0  0  0  0  0
   45.6480   33.7680   40.5770 N   0  0  0  0  0  0  0  0  0  0  0  0
   46.8240   34.2980   41.0240 C   0  0  0  0  0  3  0  0  0  0  0  0
   47.8420   34.4190   40.1150 C   0  0  0  0  0  0  0  0  0  0  0  0
   48.7830   34.8440   40.4730 H   0  0  0  0  0  0  0  0  0  0  0  0
   47.7150   34.0280   38.7890 C   0  0  0  0  0  0  0  0  0  0  0  0
   48.6670   34.1590   38.0070 O   0  0  0  0  0  0  0  0  0  0  0  0
   46.5570   33.5060   38.3520 N   0  0  0  0  0  0  0  0  0  0  0  0
   45.5780   33.4020   39.2690 C   0  0  0  0  0  0  0  0  0  0  0  0
   44.4720   32.9080   38.8690 O   0  0  0  0  0  0  0  0  0  0  0  0
   46.3840   33.1900   37.3750 H   0  0  0  0  0  0  0  0  0  0  0  0
   44.4930   35.8690   44.3590 C   0  0  0  0  0  0  0  0  0  0  0  0
   44.2920   35.3860   43.0540 C   0  0  0  0  0  0  0  0  0  0  0  0
   44.6880   34.0650   42.7920 C   0  0  0  0  0  0  0  0  0  0  0  0
   45.2440   33.3240   43.8040 N   0  0  0  0  0  0  0  0  0  0  0  0
   45.4150   33.8390   45.0420 C   0  0  0  0  0  0  0  0  0  0  0  0
   45.0410   35.1080   45.3170 N   0  0  0  0  0  0  0  0  0  0  0  0
   44.1790   36.8880   44.5330 H   0  0  0  0  0  0  0  0  0  0  0  0
   43.8460   36.0310   42.3030 H   0  0  0  0  0  0  0  0  0  0  0  0
   45.8560   33.1210   45.6880 H   0  0  0  0  0  0  0  0  0  0  0  0
  1  3  1  0  0  0  0
  1 16  1  0  0  0  0
  2  1  1  0  0  0  0
  4  5  1  0  0  0  0
  4  1  1  0  0  0  0
  6  7  1  0  0  0  0
  6  5  2  0  0  0  0
  8  6  1  0  0  0  0
  9  8  2  0  0  0  0
 10  8  1  0  0  0  0
 10 11  1  0  0  0  0
 11  4  1  0  0  0  0
 12 11  2  0  0  0  0
 13 10  1  0  0  0  0
 14 20  1  0  0  0  0
 14 19  1  0  0  0  0
 15 14  2  0  0  0  0
 16 15  1  0  0  0  0
 16 17  2  0  0  0  0
 17 18  1  0  0  0  0
 18 19  2  0  0  0  0
 18 22  1  0  0  0  0
 21 15  1  0  0  0  0
M  END
>  <minimizedAffinity>
-4.07529259

>  <minimizedRMSD>
3.53069401

$$$$
