
     RDKit          3D

 23 24  0  0  0  0  0  0  0  0999 V2000
   44.5631   36.0101   44.4906 C   0  0  0  0  0  0  0  0  0  0  0  0
   45.3012   35.9271   43.2971 C   0  0  0  0  0  0  0  0  0  0  0  0
   46.1969   34.8542   43.1713 C   0  0  0  0  0  0  0  0  0  0  0  0
   46.3072   33.9536   44.2015 N   0  0  0  0  0  0  0  0  0  0  0  0
   45.5715   34.0819   45.3291 C   0  0  0  0  0  0  0  0  0  0  0  0
   44.7027   35.1068   45.4725 N   0  0  0  0  0  0  0  0  0  0  0  0
   46.9593   34.7813   41.9209 C   0  0  0  0  0  0  0  0  0  0  0  0
   43.8813   36.8454   44.5609 H   0  0  0  0  0  0  0  0  0  0  0  0
   45.1618   36.6766   42.5240 H   0  0  0  0  0  0  0  0  0  0  0  0
   45.7912   33.2964   46.0090 H   0  0  0  0  0  0  0  0  0  0  0  0
   46.3495   35.1899   41.0841 H   0  0  0  0  0  0  0  0  0  0  0  0
   47.2175   33.7312   41.7190 H   0  0  0  0  0  0  0  0  0  0  0  0
   48.2284   35.5080   42.0029 N   0  0  0  0  0  0  0  0  0  0  0  0
   49.3978   34.9372   42.4153 C   0  0  0  0  0  0  0  0  0  0  0  0
   50.5084   35.7400   42.4418 C   0  0  0  0  0  0  0  0  0  0  0  0
   51.4457   35.2843   42.7718 H   0  0  0  0  0  0  0  0  0  0  0  0
   50.4777   37.0779   42.0718 C   0  0  0  0  0  0  0  0  0  0  0  0
   51.5122   37.7592   42.1145 O   0  0  0  0  0  0  0  0  0  0  0  0
   49.3262   37.6347   41.6671 N   0  0  0  0  0  0  0  0  0  0  0  0
   48.2540   36.8214   41.6519 C   0  0  0  0  0  0  0  0  0  0  0  0
   47.1523   37.3367   41.2695 O   0  0  0  0  0  0  0  0  0  0  0  0
   49.3769   33.8908   42.6948 H   0  0  0  0  0  0  0  0  0  0  0  0
   49.2225   38.6289   41.3744 H   0  0  0  0  0  0  0  0  0  0  0  0
  1  6  2  0
  2  1  1  0
  3  2  2  0
  3  4  1  0
  4  5  2  0
  5  6  1  0
  7  3  1  0
  1  8  1  0
  2  9  1  0
  5 10  1  0
  7 11  1  0
  7 12  1  0
 13 14  1  0
 14 15  2  0
 15 16  1  0
 15 17  1  0
 17 18  2  0
 17 19  1  0
 19 20  1  0
 20 21  2  0
 20 13  1  0
 14 22  1  0
 19 23  1  0
  7 13  1  0
M  ISO  6   8  14   9  14  10  14  11   8  12   8  16  16
M  END
>  <DihAtoms>  (1) 
2,6,12,13

>  <DihDeg>  (1) 
-89.99992649872942

$$$$
