
 OpenBabel03252506453D

 37 39  0  0  1  0  0  0  0  0999 V2000
   49.3870   33.3060   41.4900 N   0  0  1  0  0  0  0  0  0  0  0  0
   50.6770   33.1350   42.1160 C   0  0  0  0  0  0  0  0  0  0  0  0
   51.3290   31.8130   41.8420 C   0  0  0  0  0  0  0  0  0  0  0  0
   50.4970   30.7100   42.4600 C   0  0  0  0  0  0  0  0  0  0  0  0
   49.0340   31.0350   42.3830 C   0  0  0  0  0  0  0  0  0  0  0  0
   48.7950   32.0360   41.2590 C   0  0  2  0  0  0  0  0  0  0  0  0
   50.4950   33.1640   43.2230 H   0  0  0  0  0  0  0  0  0  0  0  0
   51.3390   33.9840   41.8530 H   0  0  0  0  0  0  0  0  0  0  0  0
   51.6140   31.6380   40.8060 H   0  0  0  0  0  0  0  0  0  0  0  0
   52.3010   31.8410   42.4050 H   0  0  0  0  0  0  0  0  0  0  0  0
   50.6990   29.8000   41.8260 H   0  0  0  0  0  0  0  0  0  0  0  0
   50.8070   30.4880   43.5040 H   0  0  0  0  0  0  0  0  0  0  0  0
   48.4160   30.1570   42.1370 H   0  0  0  0  0  0  0  0  0  0  0  0
   48.7060   31.5080   43.3170 H   0  0  0  0  0  0  0  0  0  0  0  0
   47.6740   32.1610   41.2600 H   0  0  0  0  0  0  0  0  0  0  0  0
   47.2240   34.5980   42.0190 C   0  0  1  0  0  0  0  0  0  0  0  0
   48.3310   35.5350   41.7230 C   0  0  0  0  0  0  0  0  0  0  0  0
   48.6320   34.2000   42.2820 C   0  0  2  0  0  0  0  0  0  0  0  0
   46.7040   34.1190   41.1600 H   0  0  0  0  0  0  0  0  0  0  0  0
   48.5200   35.7580   40.6430 H   0  0  0  0  0  0  0  0  0  0  0  0
   48.3830   36.4520   42.3600 H   0  0  0  0  0  0  0  0  0  0  0  0
   48.8910   34.1980   43.3710 H   0  0  0  0  0  0  0  0  0  0  0  0
   45.5220   36.0400   43.1580 C   0  0  0  0  0  0  0  0  0  0  0  0
   46.3080   34.8750   43.1440 C   0  0  0  0  0  0  0  0  0  0  0  0
   46.1910   33.9810   44.2170 C   0  0  0  0  0  0  0  0  0  0  0  0
   45.3280   34.2840   45.2120 N   0  0  0  0  0  0  0  0  0  0  0  0
   44.5810   35.4100   45.2090 C   0  0  0  0  0  0  0  0  0  0  0  0
   44.6720   36.2940   44.1850 N   0  0  0  0  0  0  0  0  0  0  0  0
   45.6420   36.7030   42.3120 H   0  0  0  0  0  0  0  0  0  0  0  0
   46.7910   33.0660   44.2300 H   0  0  0  0  0  0  0  0  0  0  0  0
   43.8930   35.6330   46.0200 H   0  0  0  0  0  0  0  0  0  0  0  0
   49.1450   31.4220   40.0110 N   0  0  0  0  0  0  0  0  0  0  0  0
   49.8710   31.9710   39.4800 H   0  0  0  0  0  0  0  0  0  0  0  0
   47.7060   31.2740   39.0520 S   0  0  0  0  0  0  0  0  0  0  0  0
   47.2810   29.6100   38.6940 C   0  0  0  0  0  1  0  0  0  0  0  0
   46.5920   31.9290   39.8410 O   0  0  0  0  0  0  0  0  0  0  0  0
   47.8810   32.0490   37.7840 O   0  0  0  0  0  0  0  0  0  0  0  0
  1  2  1  1  0  0  0
  1 18  1  0  0  0  0
  2  7  1  0  0  0  0
  3  2  1  0  0  0  0
  3 10  1  0  0  0  0
  3  4  1  0  0  0  0
  4 12  1  0  0  0  0
  5  4  1  0  0  0  0
  5 14  1  0  0  0  0
  6 15  1  6  0  0  0
  6  1  1  0  0  0  0
  6  5  1  0  0  0  0
  8  2  1  0  0  0  0
  9  3  1  0  0  0  0
 11  4  1  0  0  0  0
 13  5  1  0  0  0  0
 16 19  1  6  0  0  0
 16 18  1  0  0  0  0
 16 24  1  0  0  0  0
 17 16  1  0  0  0  0
 17 18  1  0  0  0  0
 17 21  1  0  0  0  0
 18 22  1  1  0  0  0
 20 17  1  0  0  0  0
 23 28  1  0  0  0  0
 24 23  2  0  0  0  0
 24 25  1  0  0  0  0
 25 30  1  0  0  0  0
 25 26  2  0  0  0  0
 27 26  1  0  0  0  0
 27 31  1  0  0  0  0
 28 27  2  0  0  0  0
 29 23  1  0  0  0  0
 32  6  1  0  0  0  0
 33 32  1  0  0  0  0
 34 36  2  0  0  0  0
 34 32  1  0  0  0  0
 35 34  1  0  0  0  0
 37 34  2  0  0  0  0
M  END
>  <minimizedAffinity>
-4.46885347

>  <minimizedRMSD>
0.322068423

$$$$
