
 OpenBabel03252506453D

 37 39  0  0  1  0  0  0  0  0999 V2000
   49.7620   33.5980   41.4260 N   0  0  1  0  0  0  0  0  0  0  0  0
   50.7630   33.0220   42.2930 C   0  0  0  0  0  0  0  0  0  0  0  0
   51.3030   31.7020   41.8270 C   0  0  0  0  0  0  0  0  0  0  0  0
   50.1920   30.6740   41.8520 C   0  0  0  0  0  0  0  0  0  0  0  0
   48.8770   31.2980   41.4880 C   0  0  0  0  0  0  0  0  0  0  0  0
   49.1220   32.5690   40.6850 C   0  0  2  0  0  0  0  0  0  0  0  0
   50.2510   32.8160   43.2700 H   0  0  0  0  0  0  0  0  0  0  0  0
   51.5720   33.7560   42.4760 H   0  0  0  0  0  0  0  0  0  0  0  0
   51.8720   31.7310   40.9000 H   0  0  0  0  0  0  0  0  0  0  0  0
   52.0470   31.3950   42.6110 H   0  0  0  0  0  0  0  0  0  0  0  0
   50.4690   29.9240   41.0560 H   0  0  0  0  0  0  0  0  0  0  0  0
   50.1320   30.1470   42.8280 H   0  0  0  0  0  0  0  0  0  0  0  0
   48.2640   30.6490   40.8410 H   0  0  0  0  0  0  0  0  0  0  0  0
   48.3340   31.5850   42.3980 H   0  0  0  0  0  0  0  0  0  0  0  0
   48.0800   32.9140   40.4250 H   0  0  0  0  0  0  0  0  0  0  0  0
   47.4860   34.6970   41.9150 C   0  0  1  0  0  0  0  0  0  0  0  0
   48.5240   35.7280   41.6810 C   0  0  0  0  0  0  0  0  0  0  0  0
   48.9130   34.4060   42.2150 C   0  0  2  0  0  0  0  0  0  0  0  0
   47.0350   34.2040   41.0260 H   0  0  0  0  0  0  0  0  0  0  0  0
   48.7280   35.9960   40.6140 H   0  0  0  0  0  0  0  0  0  0  0  0
   48.4810   36.6270   42.3440 H   0  0  0  0  0  0  0  0  0  0  0  0
   49.1360   34.3920   43.3110 H   0  0  0  0  0  0  0  0  0  0  0  0
   45.6370   35.9650   43.0310 C   0  0  0  0  0  0  0  0  0  0  0  0
   46.5150   34.8680   43.0130 C   0  0  0  0  0  0  0  0  0  0  0  0
   46.4380   33.9370   44.0590 C   0  0  0  0  0  0  0  0  0  0  0  0
   45.5210   34.1420   45.0320 N   0  0  0  0  0  0  0  0  0  0  0  0
   44.6850   35.2030   45.0320 C   0  0  0  0  0  0  0  0  0  0  0  0
   44.7370   36.1200   44.0350 N   0  0  0  0  0  0  0  0  0  0  0  0
   45.7300   36.6590   42.2070 H   0  0  0  0  0  0  0  0  0  0  0  0
   47.1100   33.0740   44.0690 H   0  0  0  0  0  0  0  0  0  0  0  0
   43.9560   35.3470   45.8240 H   0  0  0  0  0  0  0  0  0  0  0  0
   49.7660   32.2200   39.4510 N   0  0  0  0  0  0  0  0  0  0  0  0
   50.7010   32.6930   39.3350 H   0  0  0  0  0  0  0  0  0  0  0  0
   48.7170   32.6660   38.1430 S   0  0  0  0  0  0  0  0  0  0  0  0
   48.2990   34.3700   38.1390 C   0  0  0  0  0  1  0  0  0  0  0  0
   49.4470   32.3130   36.8650 O   0  0  0  0  0  0  0  0  0  0  0  0
   47.4780   31.8280   38.2030 O   0  0  0  0  0  0  0  0  0  0  0  0
  1 18  1  0  0  0  0
  1  2  1  1  0  0  0
  2  8  1  0  0  0  0
  2  7  1  0  0  0  0
  3  4  1  0  0  0  0
  3  2  1  0  0  0  0
  3 10  1  0  0  0  0
  4 12  1  0  0  0  0
  5  4  1  0  0  0  0
  5 14  1  0  0  0  0
  6 15  1  6  0  0  0
  6  1  1  0  0  0  0
  6  5  1  0  0  0  0
  9  3  1  0  0  0  0
 11  4  1  0  0  0  0
 13  5  1  0  0  0  0
 16 19  1  6  0  0  0
 16 18  1  0  0  0  0
 16 24  1  0  0  0  0
 17 16  1  0  0  0  0
 17 18  1  0  0  0  0
 17 21  1  0  0  0  0
 18 22  1  1  0  0  0
 20 17  1  0  0  0  0
 23 28  1  0  0  0  0
 24 23  2  0  0  0  0
 24 25  1  0  0  0  0
 25 30  1  0  0  0  0
 25 26  2  0  0  0  0
 26 27  1  0  0  0  0
 27 31  1  0  0  0  0
 28 27  2  0  0  0  0
 29 23  1  0  0  0  0
 32  6  1  0  0  0  0
 33 32  1  0  0  0  0
 34 37  2  0  0  0  0
 34 32  1  0  0  0  0
 35 34  1  0  0  0  0
 36 34  2  0  0  0  0
M  END
>  <minimizedAffinity>
-4.9533143

>  <minimizedRMSD>
1.38698316

$$$$
