
 OpenBabel03252506453D

 37 39  0  0  1  0  0  0  0  0999 V2000
   49.6590   33.6600   41.4180 N   0  0  1  0  0  0  0  0  0  0  0  0
   50.6930   33.0640   42.2320 C   0  0  0  0  0  0  0  0  0  0  0  0
   51.2160   31.7580   41.7140 C   0  0  0  0  0  0  0  0  0  0  0  0
   50.1090   30.7270   41.7550 C   0  0  0  0  0  0  0  0  0  0  0  0
   48.7790   31.3570   41.4560 C   0  0  0  0  0  0  0  0  0  0  0  0
   48.9930   32.6490   40.6760 C   0  0  2  0  0  0  0  0  0  0  0  0
   50.2180   32.8340   43.2220 H   0  0  0  0  0  0  0  0  0  0  0  0
   51.5080   33.7960   42.4020 H   0  0  0  0  0  0  0  0  0  0  0  0
   51.7500   31.8110   40.7670 H   0  0  0  0  0  0  0  0  0  0  0  0
   51.9900   31.4330   42.4610 H   0  0  0  0  0  0  0  0  0  0  0  0
   50.3560   29.9980   40.9310 H   0  0  0  0  0  0  0  0  0  0  0  0
   50.0860   30.1760   42.7190 H   0  0  0  0  0  0  0  0  0  0  0  0
   48.1440   30.7240   40.8170 H   0  0  0  0  0  0  0  0  0  0  0  0
   48.2710   31.6210   42.3920 H   0  0  0  0  0  0  0  0  0  0  0  0
   47.9420   32.9980   40.4650 H   0  0  0  0  0  0  0  0  0  0  0  0
   47.4260   34.8110   41.9780 C   0  0  1  0  0  0  0  0  0  0  0  0
   48.5020   35.8140   41.8120 C   0  0  0  0  0  0  0  0  0  0  0  0
   48.8400   34.4460   42.2580 C   0  0  2  0  0  0  0  0  0  0  0  0
   46.9580   34.3940   41.0590 H   0  0  0  0  0  0  0  0  0  0  0  0
   48.7190   36.1440   40.7650 H   0  0  0  0  0  0  0  0  0  0  0  0
   48.4920   36.6690   42.5320 H   0  0  0  0  0  0  0  0  0  0  0  0
   49.0590   34.3520   43.3520 H   0  0  0  0  0  0  0  0  0  0  0  0
   45.5720   36.0340   43.1350 C   0  0  0  0  0  0  0  0  0  0  0  0
   46.4590   34.9460   43.0860 C   0  0  0  0  0  0  0  0  0  0  0  0
   46.3960   33.9890   44.1090 C   0  0  0  0  0  0  0  0  0  0  0  0
   45.4830   34.1620   45.0910 N   0  0  0  0  0  0  0  0  0  0  0  0
   44.6380   35.2160   45.1210 C   0  0  0  0  0  0  0  0  0  0  0  0
   44.6760   36.1570   44.1470 N   0  0  0  0  0  0  0  0  0  0  0  0
   45.6540   36.7490   42.3270 H   0  0  0  0  0  0  0  0  0  0  0  0
   47.0750   33.1320   44.0940 H   0  0  0  0  0  0  0  0  0  0  0  0
   43.9120   35.3340   45.9210 H   0  0  0  0  0  0  0  0  0  0  0  0
   49.5900   32.3310   39.4110 N   0  0  0  0  0  0  0  0  0  0  0  0
   50.5460   32.7610   39.2960 H   0  0  0  0  0  0  0  0  0  0  0  0
   48.5380   32.8990   38.1530 S   0  0  0  0  0  0  0  0  0  0  0  0
   47.0360   31.9970   38.0460 C   0  0  0  0  0  1  0  0  0  0  0  0
   48.2430   34.3520   38.4580 O   0  0  0  0  0  0  0  0  0  0  0  0
   49.2670   32.8470   36.8470 O   0  0  0  0  0  0  0  0  0  0  0  0
  1  2  1  1  0  0  0
  1 18  1  0  0  0  0
  2  8  1  0  0  0  0
  2  7  1  0  0  0  0
  3  4  1  0  0  0  0
  3  2  1  0  0  0  0
  3 10  1  0  0  0  0
  4 12  1  0  0  0  0
  5  4  1  0  0  0  0
  5 14  1  0  0  0  0
  6 15  1  6  0  0  0
  6  1  1  0  0  0  0
  6  5  1  0  0  0  0
  9  3  1  0  0  0  0
 11  4  1  0  0  0  0
 13  5  1  0  0  0  0
 16 19  1  6  0  0  0
 16 18  1  0  0  0  0
 16 24  1  0  0  0  0
 17 16  1  0  0  0  0
 17 18  1  0  0  0  0
 17 21  1  0  0  0  0
 18 22  1  1  0  0  0
 20 17  1  0  0  0  0
 23 28  1  0  0  0  0
 24 23  2  0  0  0  0
 24 25  1  0  0  0  0
 25 26  2  0  0  0  0
 26 27  1  0  0  0  0
 27 31  1  0  0  0  0
 28 27  2  0  0  0  0
 29 23  1  0  0  0  0
 30 25  1  0  0  0  0
 32  6  1  0  0  0  0
 33 32  1  0  0  0  0
 34 36  2  0  0  0  0
 34 32  1  0  0  0  0
 35 34  1  0  0  0  0
 37 34  2  0  0  0  0
M  END
>  <minimizedAffinity>
-4.96976662

>  <minimizedRMSD>
1.44864261

$$$$
