
 OpenBabel03242511063D

 22 23  0  0  1  0  0  0  0  0999 V2000
   45.8370   32.5190   44.7220 C   0  0  1  0  0  0  0  0  0  0  0  0
   47.1640   32.1550   45.3160 C   0  0  0  0  0  0  0  0  0  0  0  0
   45.8730   32.2020   46.1550 C   0  0  2  0  0  0  0  0  0  0  0  0
   45.3960   31.7740   44.0290 H   0  0  0  0  0  0  0  0  0  0  0  0
   47.8630   33.0100   45.3660 H   0  0  0  0  0  0  0  0  0  0  0  0
   47.5580   31.1620   45.0600 H   0  0  0  0  0  0  0  0  0  0  0  0
   45.8790   33.1010   46.8460 H   0  0  0  0  0  0  0  0  0  0  0  0
   44.6260   36.0250   44.6520 C   0  0  0  0  0  0  0  0  0  0  0  0
   45.1290   36.4670   43.3790 C   0  0  0  0  0  0  0  0  0  0  0  0
   45.8780   35.5390   42.5870 C   0  0  0  0  0  0  0  0  0  0  0  0
   46.0850   34.3030   43.0540 N   0  0  0  0  0  0  0  0  0  0  0  0
   45.5900   33.9190   44.2740 C   0  0  0  0  0  0  0  0  0  0  0  0
   44.8710   34.7780   45.0550 N   0  0  0  0  0  0  0  0  0  0  0  0
   44.0700   36.7120   45.2410 H   0  0  0  0  0  0  0  0  0  0  0  0
   44.9110   37.4850   43.0840 H   0  0  0  0  0  0  0  0  0  0  0  0
   46.2350   35.9170   41.6380 H   0  0  0  0  0  0  0  0  0  0  0  0
   45.4160   30.9530   46.6660 N   0  0  0  0  0  0  0  0  0  0  0  0
   44.4740   30.6950   46.3440 H   0  0  0  0  0  0  0  0  0  0  0  0
   45.5640   30.7060   48.3370 S   0  0  0  0  0  0  0  0  0  0  0  0
   47.1910   30.8760   48.9580 C   0  0  0  0  0  1  0  0  0  0  0  0
   44.6460   31.6020   49.1500 O   0  0  0  0  0  0  0  0  0  0  0  0
   45.1120   29.2920   48.6160 O   0  0  0  0  0  0  0  0  0  0  0  0
  1  4  1  6  0  0  0
  1  2  1  0  0  0  0
  1  3  1  0  0  0  0
  2  5  1  0  0  0  0
  2  3  1  0  0  0  0
  3 17  1  0  0  0  0
  3  7  1  1  0  0  0
  6  2  1  0  0  0  0
  8 13  1  0  0  0  0
  8 14  1  0  0  0  0
  9  8  2  0  0  0  0
 10 11  2  0  0  0  0
 10  9  1  0  0  0  0
 11 12  1  0  0  0  0
 12  1  1  0  0  0  0
 12 13  2  0  0  0  0
 15  9  1  0  0  0  0
 16 10  1  0  0  0  0
 17 19  1  0  0  0  0
 18 17  1  0  0  0  0
 19 22  2  0  0  0  0
 19 20  1  0  0  0  0
 19 21  2  0  0  0  0
M  END
>  <minimizedAffinity>
-3.97791648

>  <minimizedRMSD>
1.74453187

$$$$
