
 OpenBabel03242511063D

 22 23  0  0  1  0  0  0  0  0999 V2000
   45.7430   32.5940   44.7790 C   0  0  1  0  0  0  0  0  0  0  0  0
   47.1290   32.1130   45.0830 C   0  0  0  0  0  0  0  0  0  0  0  0
   46.0880   32.3730   46.1880 C   0  0  2  0  0  0  0  0  0  0  0  0
   45.0750   31.8630   44.2790 H   0  0  0  0  0  0  0  0  0  0  0  0
   47.9030   32.8780   44.8890 H   0  0  0  0  0  0  0  0  0  0  0  0
   47.3470   31.0640   44.8380 H   0  0  0  0  0  0  0  0  0  0  0  0
   46.3510   33.3100   46.7710 H   0  0  0  0  0  0  0  0  0  0  0  0
   44.6380   36.1280   44.5500 C   0  0  0  0  0  0  0  0  0  0  0  0
   45.1580   36.4980   43.2610 C   0  0  0  0  0  0  0  0  0  0  0  0
   45.8820   35.5160   42.5140 C   0  0  0  0  0  0  0  0  0  0  0  0
   46.0490   34.2950   43.0350 N   0  0  0  0  0  0  0  0  0  0  0  0
   45.5390   33.9800   44.2690 C   0  0  0  0  0  0  0  0  0  0  0  0
   44.8440   34.8930   45.0090 N   0  0  0  0  0  0  0  0  0  0  0  0
   44.1000   36.8560   45.1060 H   0  0  0  0  0  0  0  0  0  0  0  0
   44.9720   37.5090   42.9220 H   0  0  0  0  0  0  0  0  0  0  0  0
   46.2530   35.8400   41.5510 H   0  0  0  0  0  0  0  0  0  0  0  0
   45.6420   31.2270   46.9070 N   0  0  0  0  0  0  0  0  0  0  0  0
   44.6490   31.0060   46.7560 H   0  0  0  0  0  0  0  0  0  0  0  0
   46.0270   31.1570   48.5560 S   0  0  0  0  0  0  0  0  0  0  0  0
   47.6790   30.6980   48.9020 C   0  0  0  0  0  1  0  0  0  0  0  0
   45.7280   32.4540   49.2880 O   0  0  0  0  0  0  0  0  0  0  0  0
   45.1230   30.1160   49.1760 O   0  0  0  0  0  0  0  0  0  0  0  0
  1  4  1  6  0  0  0
  1  2  1  0  0  0  0
  1  3  1  0  0  0  0
  2  3  1  0  0  0  0
  3  7  1  1  0  0  0
  3 17  1  0  0  0  0
  5  2  1  0  0  0  0
  6  2  1  0  0  0  0
  8 13  1  0  0  0  0
  8 14  1  0  0  0  0
  9  8  2  0  0  0  0
 10 11  2  0  0  0  0
 10  9  1  0  0  0  0
 11 12  1  0  0  0  0
 12  1  1  0  0  0  0
 12 13  2  0  0  0  0
 15  9  1  0  0  0  0
 16 10  1  0  0  0  0
 17 19  1  0  0  0  0
 18 17  1  0  0  0  0
 19 20  1  0  0  0  0
 19 22  2  0  0  0  0
 19 21  2  0  0  0  0
M  END
>  <minimizedAffinity>
-4.09323359

>  <minimizedRMSD>
1.85273755

$$$$
