
 OpenBabel03242519043D

 27 28  0  0  1  0  0  0  0  0999 V2000
   38.3540   31.8740   40.1020 N   0  0  0  0  0  0  0  0  0  0  0  0
   38.3830   31.3240   41.4430 C   0  0  0  0  0  0  0  0  0  0  0  0
   37.3930   30.2130   41.2490 C   0  0  2  0  0  0  0  0  0  0  0  0
   36.2380   30.9530   40.6120 C   0  0  0  0  0  0  0  0  0  0  0  0
   36.9540   31.9290   39.6930 C   0  0  0  0  0  0  0  0  0  0  0  0
   39.4140   30.9640   41.6780 H   0  0  0  0  0  0  0  0  0  0  0  0
   37.9940   32.0770   42.1240 H   0  0  0  0  0  0  0  0  0  0  0  0
   37.7750   29.4570   40.5350 H   0  0  0  0  0  0  0  0  0  0  0  0
   35.5700   30.2880   40.0260 H   0  0  0  0  0  0  0  0  0  0  0  0
   35.6850   31.5380   41.3630 H   0  0  0  0  0  0  0  0  0  0  0  0
   36.6230   32.9670   39.8400 H   0  0  0  0  0  0  0  0  0  0  0  0
   36.8850   31.6070   38.6340 H   0  0  0  0  0  0  0  0  0  0  0  0
   40.7640   32.2720   37.3040 C   0  0  0  0  0  0  0  0  0  0  0  0
   39.7030   31.7470   38.0290 C   0  0  0  0  0  0  0  0  0  0  0  0
   39.4000   32.3040   39.2620 C   0  0  0  0  0  0  0  0  0  0  0  0
   40.1770   33.3490   39.6910 N   0  0  0  0  0  0  0  0  0  0  0  0
   41.2020   33.8470   38.9780 C   0  0  0  0  0  0  0  0  0  0  0  0
   41.4950   33.2930   37.7630 N   0  0  0  0  0  0  0  0  0  0  0  0
   40.9930   31.8270   36.3370 H   0  0  0  0  0  0  0  0  0  0  0  0
   39.0870   30.9120   37.6800 H   0  0  0  0  0  0  0  0  0  0  0  0
   41.7500   34.6740   39.4100 H   0  0  0  0  0  0  0  0  0  0  0  0
   36.9500   29.6500   42.4730 N   0  0  0  0  0  0  0  0  0  0  0  0
   36.0840   30.0060   42.8830 H   0  0  0  0  0  0  0  0  0  0  0  0
   37.1920   27.9620   42.6200 S   0  0  0  0  0  0  0  0  0  0  0  0
   38.8710   27.7100   43.1550 C   0  0  0  0  0  1  0  0  0  0  0  0
   36.3020   27.4110   43.6800 O   0  0  0  0  0  0  0  0  0  0  0  0
   37.0580   27.2450   41.3160 O   0  0  0  0  0  0  0  0  0  0  0  0
  1  2  1  0  0  0  0
  2  6  1  0  0  0  0
  2  7  1  0  0  0  0
  3  8  1  6  0  0  0
  3  2  1  0  0  0  0
  3 22  1  0  0  0  0
  4  3  1  0  0  0  0
  4 10  1  0  0  0  0
  5 11  1  0  0  0  0
  5  1  1  0  0  0  0
  5  4  1  0  0  0  0
  9  4  1  0  0  0  0
 12  5  1  0  0  0  0
 13 18  2  0  0  0  0
 13 14  1  0  0  0  0
 14 15  2  0  0  0  0
 15 16  1  0  0  0  0
 15  1  1  0  0  0  0
 17 21  1  0  0  0  0
 17 16  2  0  0  0  0
 18 17  1  0  0  0  0
 19 13  1  0  0  0  0
 20 14  1  0  0  0  0
 22 24  1  0  0  0  0
 22 23  1  0  0  0  0
 24 25  1  0  0  0  0
 24 26  2  0  0  0  0
 27 24  2  0  0  0  0
M  END
>  <minimizedAffinity>
-4.3862648

$$$$

 OpenBabel03242519043D

 27 28  0  0  1  0  0  0  0  0999 V2000
   37.4880   29.9750   41.6690 N   0  0  0  0  0  0  0  0  0  0  0  0
   38.1490   29.2870   42.7600 C   0  0  0  0  0  0  0  0  0  0  0  0
   38.0970   27.8920   42.2060 C   0  0  2  0  0  0  0  0  0  0  0  0
   36.6360   27.7770   41.8320 C   0  0  0  0  0  0  0  0  0  0  0  0
   36.3370   29.1630   41.2860 C   0  0  0  0  0  0  0  0  0  0  0  0
   39.1880   29.6810   42.8750 H   0  0  0  0  0  0  0  0  0  0  0  0
   37.5240   29.3780   43.6440 H   0  0  0  0  0  0  0  0  0  0  0  0
   38.7130   27.8040   41.2890 H   0  0  0  0  0  0  0  0  0  0  0  0
   36.4490   27.0060   41.0560 H   0  0  0  0  0  0  0  0  0  0  0  0
   36.0130   27.6220   42.7270 H   0  0  0  0  0  0  0  0  0  0  0  0
   35.4560   29.6210   41.7580 H   0  0  0  0  0  0  0  0  0  0  0  0
   36.2680   29.1520   40.1800 H   0  0  0  0  0  0  0  0  0  0  0  0
   37.4080   33.0280   39.5550 C   0  0  0  0  0  0  0  0  0  0  0  0
   36.9750   31.8350   40.1150 C   0  0  0  0  0  0  0  0  0  0  0  0
   37.7990   31.1880   41.0250 C   0  0  0  0  0  0  0  0  0  0  0  0
   39.0030   31.7770   41.3140 N   0  0  0  0  0  0  0  0  0  0  0  0
   39.4100   32.9340   40.7630 C   0  0  0  0  0  0  0  0  0  0  0  0
   38.5920   33.5650   39.8680 N   0  0  0  0  0  0  0  0  0  0  0  0
   36.7530   33.5270   38.8430 H   0  0  0  0  0  0  0  0  0  0  0  0
   36.0120   31.3710   39.8790 H   0  0  0  0  0  0  0  0  0  0  0  0
   40.3790   33.3110   41.0620 H   0  0  0  0  0  0  0  0  0  0  0  0
   38.3960   26.9030   43.1780 N   0  0  0  0  0  0  0  0  0  0  0  0
   37.7980   26.8420   44.0040 H   0  0  0  0  0  0  0  0  0  0  0  0
   38.9250   25.4050   42.5420 S   0  0  0  0  0  0  0  0  0  0  0  0
   39.6930   25.7350   40.9700 C   0  0  0  0  0  1  0  0  0  0  0  0
   39.9660   24.8140   43.4280 O   0  0  0  0  0  0  0  0  0  0  0  0
   37.7960   24.4660   42.2640 O   0  0  0  0  0  0  0  0  0  0  0  0
  1  2  1  0  0  0  0
  2  6  1  0  0  0  0
  2  7  1  0  0  0  0
  3  8  1  6  0  0  0
  3  2  1  0  0  0  0
  3 22  1  0  0  0  0
  4  3  1  0  0  0  0
  4 10  1  0  0  0  0
  5  1  1  0  0  0  0
  5 11  1  0  0  0  0
  5  4  1  0  0  0  0
  9  4  1  0  0  0  0
 12  5  1  0  0  0  0
 13 18  2  0  0  0  0
 13 14  1  0  0  0  0
 14 15  2  0  0  0  0
 15 16  1  0  0  0  0
 15  1  1  0  0  0  0
 17 21  1  0  0  0  0
 17 16  2  0  0  0  0
 18 17  1  0  0  0  0
 19 13  1  0  0  0  0
 20 14  1  0  0  0  0
 22 23  1  0  0  0  0
 24 22  1  0  0  0  0
 24 26  2  0  0  0  0
 25 24  1  0  0  0  0
 27 24  2  0  0  0  0
M  END
>  <minimizedAffinity>
-4.26562786

$$$$

 OpenBabel03242519043D

 27 28  0  0  1  0  0  0  0  0999 V2000
   37.9240   30.5030   40.6530 N   0  0  0  0  0  0  0  0  0  0  0  0
   38.8410   30.7560   39.5600 C   0  0  0  0  0  0  0  0  0  0  0  0
   39.0100   32.2350   39.7490 C   0  0  2  0  0  0  0  0  0  0  0  0
   37.5690   32.6890   39.8310 C   0  0  0  0  0  0  0  0  0  0  0  0
   36.9280   31.5680   40.6310 C   0  0  0  0  0  0  0  0  0  0  0  0
   39.7830   30.1770   39.7190 H   0  0  0  0  0  0  0  0  0  0  0  0
   38.3230   30.5400   38.6280 H   0  0  0  0  0  0  0  0  0  0  0  0
   39.5140   32.4590   40.7100 H   0  0  0  0  0  0  0  0  0  0  0  0
   37.4520   33.6590   40.3590 H   0  0  0  0  0  0  0  0  0  0  0  0
   37.1050   32.7030   38.8330 H   0  0  0  0  0  0  0  0  0  0  0  0
   36.0350   31.1560   40.1380 H   0  0  0  0  0  0  0  0  0  0  0  0
   36.7280   31.8840   41.6750 H   0  0  0  0  0  0  0  0  0  0  0  0
   38.8130   28.0550   43.3020 C   0  0  0  0  0  0  0  0  0  0  0  0
   38.9790   29.0930   42.3960 C   0  0  0  0  0  0  0  0  0  0  0  0
   37.8990   29.4690   41.6100 C   0  0  0  0  0  0  0  0  0  0  0  0
   36.7250   28.7830   41.7820 N   0  0  0  0  0  0  0  0  0  0  0  0
   36.5790   27.7780   42.6630 C   0  0  0  0  0  0  0  0  0  0  0  0
   37.6470   27.4140   43.4350 N   0  0  0  0  0  0  0  0  0  0  0  0
   39.6670   27.7680   43.9140 H   0  0  0  0  0  0  0  0  0  0  0  0
   39.9200   29.6370   42.2650 H   0  0  0  0  0  0  0  0  0  0  0  0
   35.6080   27.3050   42.7180 H   0  0  0  0  0  0  0  0  0  0  0  0
   39.6220   32.8660   38.6360 N   0  0  0  0  0  0  0  0  0  0  0  0
   39.0810   33.5620   38.1180 H   0  0  0  0  0  0  0  0  0  0  0  0
   41.2830   33.2290   38.8360 S   0  0  0  0  0  0  0  0  0  0  0  0
   41.4460   34.1610   40.3440 C   0  0  0  0  0  1  0  0  0  0  0  0
   42.0610   31.9710   39.0050 O   0  0  0  0  0  0  0  0  0  0  0  0
   41.8160   34.1010   37.7470 O   0  0  0  0  0  0  0  0  0  0  0  0
  1 15  1  0  0  0  0
  2  6  1  0  0  0  0
  2  3  1  0  0  0  0
  2  1  1  0  0  0  0
  3  4  1  0  0  0  0
  3  8  1  1  0  0  0
  4  9  1  0  0  0  0
  4  5  1  0  0  0  0
  5  1  1  0  0  0  0
  5 12  1  0  0  0  0
  7  2  1  0  0  0  0
 10  4  1  0  0  0  0
 11  5  1  0  0  0  0
 13 18  1  0  0  0  0
 13 19  1  0  0  0  0
 14 13  2  0  0  0  0
 15 16  2  0  0  0  0
 15 14  1  0  0  0  0
 16 17  1  0  0  0  0
 17 21  1  0  0  0  0
 17 18  2  0  0  0  0
 20 14  1  0  0  0  0
 22 24  1  0  0  0  0
 22  3  1  0  0  0  0
 23 22  1  0  0  0  0
 24 26  2  0  0  0  0
 24 25  1  0  0  0  0
 27 24  2  0  0  0  0
M  END
>  <minimizedAffinity>
-4.08279419

$$$$

 OpenBabel03242519043D

 27 28  0  0  1  0  0  0  0  0999 V2000
   37.7500   30.4810   40.3530 N   0  0  0  0  0  0  0  0  0  0  0  0
   38.5960   30.6330   39.1860 C   0  0  0  0  0  0  0  0  0  0  0  0
   38.9760   32.0730   39.3740 C   0  0  2  0  0  0  0  0  0  0  0  0
   37.6210   32.7120   39.5860 C   0  0  0  0  0  0  0  0  0  0  0  0
   36.9060   31.6690   40.4280 C   0  0  0  0  0  0  0  0  0  0  0  0
   39.4620   29.9320   39.2580 H   0  0  0  0  0  0  0  0  0  0  0  0
   37.9760   30.5070   38.3020 H   0  0  0  0  0  0  0  0  0  0  0  0
   39.5860   32.2090   40.2890 H   0  0  0  0  0  0  0  0  0  0  0  0
   37.6800   33.6770   40.1300 H   0  0  0  0  0  0  0  0  0  0  0  0
   37.0800   32.8080   38.6310 H   0  0  0  0  0  0  0  0  0  0  0  0
   35.9280   31.3890   40.0110 H   0  0  0  0  0  0  0  0  0  0  0  0
   36.8400   31.9870   41.4880 H   0  0  0  0  0  0  0  0  0  0  0  0
   37.9310   28.4360   43.4490 C   0  0  0  0  0  0  0  0  0  0  0  0
   38.0690   29.5430   42.6240 C   0  0  0  0  0  0  0  0  0  0  0  0
   37.6680   29.4410   41.2990 C   0  0  0  0  0  0  0  0  0  0  0  0
   37.1560   28.2380   40.8870 N   0  0  0  0  0  0  0  0  0  0  0  0
   37.0290   27.1730   41.6980 C   0  0  0  0  0  0  0  0  0  0  0  0
   37.4250   27.2810   43.0010 N   0  0  0  0  0  0  0  0  0  0  0  0
   38.2480   28.5270   44.4860 H   0  0  0  0  0  0  0  0  0  0  0  0
   38.4790   30.5000   42.9610 H   0  0  0  0  0  0  0  0  0  0  0  0
   36.6110   26.2710   41.2690 H   0  0  0  0  0  0  0  0  0  0  0  0
   39.5700   32.6410   38.2180 N   0  0  0  0  0  0  0  0  0  0  0  0
   39.1190   33.4540   37.7950 H   0  0  0  0  0  0  0  0  0  0  0  0
   41.2810   32.6710   38.2270 S   0  0  0  0  0  0  0  0  0  0  0  0
   41.8400   31.4440   37.0640 C   0  0  0  0  0  1  0  0  0  0  0  0
   41.7700   33.9920   37.7450 O   0  0  0  0  0  0  0  0  0  0  0  0
   41.8570   32.2830   39.5490 O   0  0  0  0  0  0  0  0  0  0  0  0
  1  5  1  0  0  0  0
  1 15  1  0  0  0  0
  2  6  1  0  0  0  0
  2  3  1  0  0  0  0
  2  1  1  0  0  0  0
  3  4  1  0  0  0  0
  3  8  1  1  0  0  0
  4  9  1  0  0  0  0
  4  5  1  0  0  0  0
  5 12  1  0  0  0  0
  7  2  1  0  0  0  0
 10  4  1  0  0  0  0
 11  5  1  0  0  0  0
 13 19  1  0  0  0  0
 14 20  1  0  0  0  0
 14 13  2  0  0  0  0
 15 14  1  0  0  0  0
 16 15  2  0  0  0  0
 16 17  1  0  0  0  0
 17 18  2  0  0  0  0
 18 13  1  0  0  0  0
 21 17  1  0  0  0  0
 22 24  1  0  0  0  0
 22  3  1  0  0  0  0
 23 22  1  0  0  0  0
 24 27  2  0  0  0  0
 25 24  1  0  0  0  0
 26 24  2  0  0  0  0
M  END
>  <minimizedAffinity>
-4.08217812

$$$$

 OpenBabel03242519043D

 27 28  0  0  1  0  0  0  0  0999 V2000
   37.6710   27.7300   42.0960 N   0  0  0  0  0  0  0  0  0  0  0  0
   36.7090   28.7090   41.6280 C   0  0  0  0  0  0  0  0  0  0  0  0
   37.6650   29.8190   41.2970 C   0  0  2  0  0  0  0  0  0  0  0  0
   38.4760   29.9010   42.5720 C   0  0  0  0  0  0  0  0  0  0  0  0
   38.6170   28.4370   42.9530 C   0  0  0  0  0  0  0  0  0  0  0  0
   36.1700   28.3070   40.7370 H   0  0  0  0  0  0  0  0  0  0  0  0
   36.0710   28.9820   42.4650 H   0  0  0  0  0  0  0  0  0  0  0  0
   38.3340   29.5330   40.4620 H   0  0  0  0  0  0  0  0  0  0  0  0
   39.4740   30.3600   42.4190 H   0  0  0  0  0  0  0  0  0  0  0  0
   37.9060   30.4060   43.3670 H   0  0  0  0  0  0  0  0  0  0  0  0
   38.3110   28.2400   43.9910 H   0  0  0  0  0  0  0  0  0  0  0  0
   39.6370   28.0610   42.7340 H   0  0  0  0  0  0  0  0  0  0  0  0
   37.1750   24.2820   40.8080 C   0  0  0  0  0  0  0  0  0  0  0  0
   36.9630   25.6450   40.9620 C   0  0  0  0  0  0  0  0  0  0  0  0
   37.7730   26.3490   41.8420 C   0  0  0  0  0  0  0  0  0  0  0  0
   38.7400   25.6440   42.5110 N   0  0  0  0  0  0  0  0  0  0  0  0
   38.9330   24.3230   42.3520 C   0  0  0  0  0  0  0  0  0  0  0  0
   38.1330   23.6360   41.4830 N   0  0  0  0  0  0  0  0  0  0  0  0
   36.5350   23.7400   40.1150 H   0  0  0  0  0  0  0  0  0  0  0  0
   36.1890   26.2010   40.4250 H   0  0  0  0  0  0  0  0  0  0  0  0
   39.7260   23.8660   42.9280 H   0  0  0  0  0  0  0  0  0  0  0  0
   37.0150   31.0620   41.0930 N   0  0  0  0  0  0  0  0  0  0  0  0
   36.4530   31.4440   41.8560 H   0  0  0  0  0  0  0  0  0  0  0  0
   37.9190   32.2100   40.2010 S   0  0  0  0  0  0  0  0  0  0  0  0
   39.0720   31.3080   39.1880 C   0  0  0  0  0  1  0  0  0  0  0  0
   37.0200   32.9640   39.2840 O   0  0  0  0  0  0  0  0  0  0  0  0
   38.7400   33.1010   41.0740 O   0  0  0  0  0  0  0  0  0  0  0  0
  1  5  1  0  0  0  0
  2  1  1  0  0  0  0
  2  7  1  0  0  0  0
  3  8  1  6  0  0  0
  3  2  1  0  0  0  0
  3  4  1  0  0  0  0
  4  5  1  0  0  0  0
  4 10  1  0  0  0  0
  5 11  1  0  0  0  0
  6  2  1  0  0  0  0
  9  4  1  0  0  0  0
 12  5  1  0  0  0  0
 13 14  2  0  0  0  0
 13 18  1  0  0  0  0
 14 15  1  0  0  0  0
 15  1  1  0  0  0  0
 15 16  2  0  0  0  0
 17 16  1  0  0  0  0
 17 21  1  0  0  0  0
 18 17  2  0  0  0  0
 19 13  1  0  0  0  0
 20 14  1  0  0  0  0
 22  3  1  0  0  0  0
 22 23  1  0  0  0  0
 24 27  2  0  0  0  0
 24 22  1  0  0  0  0
 25 24  1  0  0  0  0
 26 24  2  0  0  0  0
M  END
>  <minimizedAffinity>
-4.06192923

$$$$

 OpenBabel03242519043D

 27 28  0  0  1  0  0  0  0  0999 V2000
   39.4400   28.2770   42.7630 N   0  0  0  0  0  0  0  0  0  0  0  0
   38.8180   29.5800   42.8850 C   0  0  0  0  0  0  0  0  0  0  0  0
   39.7290   30.3480   41.9720 C   0  0  2  0  0  0  0  0  0  0  0  0
   41.0870   29.9520   42.5090 C   0  0  0  0  0  0  0  0  0  0  0  0
   40.8830   28.4840   42.8390 C   0  0  0  0  0  0  0  0  0  0  0  0
   37.7640   29.5270   42.5180 H   0  0  0  0  0  0  0  0  0  0  0  0
   38.9280   29.9120   43.9140 H   0  0  0  0  0  0  0  0  0  0  0  0
   39.6380   29.9940   40.9270 H   0  0  0  0  0  0  0  0  0  0  0  0
   41.8980   30.0730   41.7620 H   0  0  0  0  0  0  0  0  0  0  0  0
   41.3080   30.4840   43.4480 H   0  0  0  0  0  0  0  0  0  0  0  0
   41.1830   28.2370   43.8680 H   0  0  0  0  0  0  0  0  0  0  0  0
   41.3700   27.8310   42.0870 H   0  0  0  0  0  0  0  0  0  0  0  0
   37.1130   25.4460   42.1570 C   0  0  0  0  0  0  0  0  0  0  0  0
   37.5400   26.7600   42.2900 C   0  0  0  0  0  0  0  0  0  0  0  0
   38.8710   26.9990   42.6000 C   0  0  0  0  0  0  0  0  0  0  0  0
   39.6870   25.9090   42.7580 N   0  0  0  0  0  0  0  0  0  0  0  0
   39.2590   24.6410   42.6280 C   0  0  0  0  0  0  0  0  0  0  0  0
   37.9470   24.4130   42.3210 N   0  0  0  0  0  0  0  0  0  0  0  0
   36.0670   25.2700   41.9140 H   0  0  0  0  0  0  0  0  0  0  0  0
   36.8820   27.6250   42.1610 H   0  0  0  0  0  0  0  0  0  0  0  0
   39.9880   23.8550   42.7730 H   0  0  0  0  0  0  0  0  0  0  0  0
   39.5820   31.7520   42.1020 N   0  0  0  0  0  0  0  0  0  0  0  0
   40.2970   32.2670   42.6200 H   0  0  0  0  0  0  0  0  0  0  0  0
   38.9700   32.5450   40.7140 S   0  0  0  0  0  0  0  0  0  0  0  0
   37.3070   31.9620   40.4590 C   0  0  0  0  0  1  0  0  0  0  0  0
   38.8930   34.0120   40.9570 O   0  0  0  0  0  0  0  0  0  0  0  0
   39.7260   32.1990   39.4730 O   0  0  0  0  0  0  0  0  0  0  0  0
  1  5  1  0  0  0  0
  1  2  1  0  0  0  0
  2  7  1  0  0  0  0
  3  8  1  6  0  0  0
  3 22  1  0  0  0  0
  3  4  1  0  0  0  0
  3  2  1  0  0  0  0
  4  5  1  0  0  0  0
  4 10  1  0  0  0  0
  5 11  1  0  0  0  0
  6  2  1  0  0  0  0
  9  4  1  0  0  0  0
 12  5  1  0  0  0  0
 13 14  2  0  0  0  0
 13 18  1  0  0  0  0
 14 15  1  0  0  0  0
 15 16  2  0  0  0  0
 15  1  1  0  0  0  0
 17 16  1  0  0  0  0
 17 21  1  0  0  0  0
 18 17  2  0  0  0  0
 19 13  1  0  0  0  0
 20 14  1  0  0  0  0
 22 23  1  0  0  0  0
 24 26  2  0  0  0  0
 24 22  1  0  0  0  0
 25 24  1  0  0  0  0
 27 24  2  0  0  0  0
M  END
>  <minimizedAffinity>
-4.05284309

$$$$

 OpenBabel03242519043D

 27 28  0  0  1  0  0  0  0  0999 V2000
   38.0740   29.0060   42.1670 N   0  0  0  0  0  0  0  0  0  0  0  0
   38.4070   27.7060   41.6200 C   0  0  0  0  0  0  0  0  0  0  0  0
   37.1450   26.9800   41.9860 C   0  0  2  0  0  0  0  0  0  0  0  0
   37.0200   27.3270   43.4540 C   0  0  0  0  0  0  0  0  0  0  0  0
   37.4740   28.7770   43.4770 C   0  0  0  0  0  0  0  0  0  0  0  0
   38.5650   27.7930   40.5170 H   0  0  0  0  0  0  0  0  0  0  0  0
   39.2560   27.3140   42.1740 H   0  0  0  0  0  0  0  0  0  0  0  0
   36.2730   27.3950   41.4420 H   0  0  0  0  0  0  0  0  0  0  0  0
   35.9800   27.2400   43.8310 H   0  0  0  0  0  0  0  0  0  0  0  0
   37.7290   26.7390   44.0570 H   0  0  0  0  0  0  0  0  0  0  0  0
   38.2620   28.9600   44.2220 H   0  0  0  0  0  0  0  0  0  0  0  0
   36.6120   29.4650   43.5930 H   0  0  0  0  0  0  0  0  0  0  0  0
   39.4410   32.3140   41.1730 C   0  0  0  0  0  0  0  0  0  0  0  0
   39.4070   31.0510   41.7490 C   0  0  0  0  0  0  0  0  0  0  0  0
   38.2470   30.2980   41.6350 C   0  0  0  0  0  0  0  0  0  0  0  0
   37.1970   30.8570   40.9540 N   0  0  0  0  0  0  0  0  0  0  0  0
   37.2440   32.0830   40.4020 C   0  0  0  0  0  0  0  0  0  0  0  0
   38.3900   32.8180   40.5180 N   0  0  0  0  0  0  0  0  0  0  0  0
   40.3560   32.8950   41.2680 H   0  0  0  0  0  0  0  0  0  0  0  0
   40.2500   30.6110   42.2900 H   0  0  0  0  0  0  0  0  0  0  0  0
   36.3570   32.4270   39.8860 H   0  0  0  0  0  0  0  0  0  0  0  0
   37.2630   25.5730   41.8620 N   0  0  0  0  0  0  0  0  0  0  0  0
   36.9880   24.9930   42.6580 H   0  0  0  0  0  0  0  0  0  0  0  0
   36.8520   24.9480   40.3220 S   0  0  0  0  0  0  0  0  0  0  0  0
   38.3570   24.3790   39.5610 C   0  0  0  0  0  1  0  0  0  0  0  0
   35.9580   23.7660   40.4740 O   0  0  0  0  0  0  0  0  0  0  0  0
   36.2910   25.9890   39.4090 O   0  0  0  0  0  0  0  0  0  0  0  0
  1  5  1  0  0  0  0
  2  3  1  0  0  0  0
  2  1  1  0  0  0  0
  2  7  1  0  0  0  0
  3  8  1  6  0  0  0
  3  4  1  0  0  0  0
  4  5  1  0  0  0  0
  4  9  1  0  0  0  0
  4 10  1  0  0  0  0
  5 12  1  0  0  0  0
  5 11  1  0  0  0  0
  6  2  1  0  0  0  0
 13 19  1  0  0  0  0
 13 14  1  0  0  0  0
 14 20  1  0  0  0  0
 15 14  2  0  0  0  0
 15  1  1  0  0  0  0
 16 15  1  0  0  0  0
 17 18  1  0  0  0  0
 17 16  2  0  0  0  0
 18 13  2  0  0  0  0
 21 17  1  0  0  0  0
 22  3  1  0  0  0  0
 22 23  1  0  0  0  0
 24 26  2  0  0  0  0
 24 22  1  0  0  0  0
 25 24  1  0  0  0  0
 27 24  2  0  0  0  0
M  END
>  <minimizedAffinity>
-4.0458765

$$$$

 OpenBabel03242519043D

 27 28  0  0  1  0  0  0  0  0999 V2000
   37.6670   30.8000   40.8610 N   0  0  0  0  0  0  0  0  0  0  0  0
   37.8980   29.6450   41.7040 C   0  0  0  0  0  0  0  0  0  0  0  0
   37.0500   28.6540   40.9610 C   0  0  2  0  0  0  0  0  0  0  0  0
   35.7510   29.4180   40.8280 C   0  0  0  0  0  0  0  0  0  0  0  0
   36.2400   30.8310   40.5590 C   0  0  0  0  0  0  0  0  0  0  0  0
   38.9860   29.3900   41.7000 H   0  0  0  0  0  0  0  0  0  0  0  0
   37.4810   29.8550   42.6860 H   0  0  0  0  0  0  0  0  0  0  0  0
   37.4580   28.4580   39.9500 H   0  0  0  0  0  0  0  0  0  0  0  0
   35.1230   29.0580   39.9870 H   0  0  0  0  0  0  0  0  0  0  0  0
   35.2000   29.4240   41.7820 H   0  0  0  0  0  0  0  0  0  0  0  0
   35.7890   31.5690   41.2390 H   0  0  0  0  0  0  0  0  0  0  0  0
   36.1120   31.1040   39.4920 H   0  0  0  0  0  0  0  0  0  0  0  0
   39.6930   33.8720   40.3500 C   0  0  0  0  0  0  0  0  0  0  0  0
   38.7800   33.0120   40.9440 C   0  0  0  0  0  0  0  0  0  0  0  0
   38.5610   31.7700   40.3660 C   0  0  0  0  0  0  0  0  0  0  0  0
   39.2680   31.4700   39.2310 N   0  0  0  0  0  0  0  0  0  0  0  0
   40.1490   32.3140   38.6650 C   0  0  0  0  0  0  0  0  0  0  0  0
   40.3600   33.5350   39.2410 N   0  0  0  0  0  0  0  0  0  0  0  0
   39.8570   34.8430   40.8130 H   0  0  0  0  0  0  0  0  0  0  0  0
   38.2190   33.2590   41.8510 H   0  0  0  0  0  0  0  0  0  0  0  0
   40.6540   31.9750   37.7700 H   0  0  0  0  0  0  0  0  0  0  0  0
   36.8060   27.4710   41.7050 N   0  0  0  0  0  0  0  0  0  0  0  0
   35.9440   27.4140   42.2520 H   0  0  0  0  0  0  0  0  0  0  0  0
   37.2800   26.0210   40.9300 S   0  0  0  0  0  0  0  0  0  0  0  0
   36.9970   24.6880   42.0760 C   0  0  0  0  0  1  0  0  0  0  0  0
   36.4190   25.7740   39.7410 O   0  0  0  0  0  0  0  0  0  0  0  0
   38.7390   25.9910   40.6080 O   0  0  0  0  0  0  0  0  0  0  0  0
  1  2  1  0  0  0  0
  2  7  1  0  0  0  0
  3  8  1  6  0  0  0
  3  2  1  0  0  0  0
  3 22  1  0  0  0  0
  4  3  1  0  0  0  0
  4 10  1  0  0  0  0
  5  4  1  0  0  0  0
  5  1  1  0  0  0  0
  5 11  1  0  0  0  0
  6  2  1  0  0  0  0
  9  4  1  0  0  0  0
 12  5  1  0  0  0  0
 13 19  1  0  0  0  0
 13 14  1  0  0  0  0
 14 20  1  0  0  0  0
 15  1  1  0  0  0  0
 15 14  2  0  0  0  0
 16 15  1  0  0  0  0
 17 16  2  0  0  0  0
 17 18  1  0  0  0  0
 18 13  2  0  0  0  0
 21 17  1  0  0  0  0
 22 23  1  0  0  0  0
 24 22  1  0  0  0  0
 24 25  1  0  0  0  0
 26 24  2  0  0  0  0
 27 24  2  0  0  0  0
M  END
>  <minimizedAffinity>
-3.86781478

$$$$

 OpenBabel03242519043D

 27 28  0  0  1  0  0  0  0  0999 V2000
   37.5990   27.8670   41.7720 N   0  0  0  0  0  0  0  0  0  0  0  0
   36.9970   28.0540   40.4670 C   0  0  0  0  0  0  0  0  0  0  0  0
   37.4110   29.4770   40.2320 C   0  0  2  0  0  0  0  0  0  0  0  0
   36.9680   30.1300   41.5230 C   0  0  0  0  0  0  0  0  0  0  0  0
   37.3090   29.0660   42.5520 C   0  0  0  0  0  0  0  0  0  0  0  0
   37.4480   27.3340   39.7400 H   0  0  0  0  0  0  0  0  0  0  0  0
   35.9180   27.9760   40.5780 H   0  0  0  0  0  0  0  0  0  0  0  0
   38.5120   29.5630   40.1450 H   0  0  0  0  0  0  0  0  0  0  0  0
   37.5160   31.0700   41.7410 H   0  0  0  0  0  0  0  0  0  0  0  0
   35.8760   30.2760   41.5340 H   0  0  0  0  0  0  0  0  0  0  0  0
   36.4580   28.8210   43.2030 H   0  0  0  0  0  0  0  0  0  0  0  0
   38.2170   29.3390   43.1260 H   0  0  0  0  0  0  0  0  0  0  0  0
   39.9880   25.7580   43.6800 C   0  0  0  0  0  0  0  0  0  0  0  0
   39.3410   26.9070   43.2490 C   0  0  0  0  0  0  0  0  0  0  0  0
   38.3380   26.7890   42.2970 C   0  0  0  0  0  0  0  0  0  0  0  0
   38.0500   25.5300   41.8370 N   0  0  0  0  0  0  0  0  0  0  0  0
   38.6870   24.4250   42.2630 C   0  0  0  0  0  0  0  0  0  0  0  0
   39.6730   24.5490   43.2020 N   0  0  0  0  0  0  0  0  0  0  0  0
   40.7730   25.8620   44.4270 H   0  0  0  0  0  0  0  0  0  0  0  0
   39.5760   27.9090   43.6210 H   0  0  0  0  0  0  0  0  0  0  0  0
   38.3800   23.4800   41.8350 H   0  0  0  0  0  0  0  0  0  0  0  0
   36.7160   30.0830   39.1560 N   0  0  0  0  0  0  0  0  0  0  0  0
   36.0180   30.7970   39.3730 H   0  0  0  0  0  0  0  0  0  0  0  0
   37.6640   30.3830   37.7620 S   0  0  0  0  0  0  0  0  0  0  0  0
   39.3580   30.0430   38.1890 C   0  0  0  0  0  1  0  0  0  0  0  0
   37.2830   29.4390   36.6750 O   0  0  0  0  0  0  0  0  0  0  0  0
   37.6210   31.8130   37.3330 O   0  0  0  0  0  0  0  0  0  0  0  0
  1 15  1  0  0  0  0
  1  5  1  0  0  0  0
  2  7  1  0  0  0  0
  2  1  1  0  0  0  0
  3  8  1  6  0  0  0
  3  2  1  0  0  0  0
  3  4  1  0  0  0  0
  4 10  1  0  0  0  0
  4  9  1  0  0  0  0
  4  5  1  0  0  0  0
  5 12  1  0  0  0  0
  5 11  1  0  0  0  0
  6  2  1  0  0  0  0
 13 19  1  0  0  0  0
 14 20  1  0  0  0  0
 14 13  1  0  0  0  0
 15 14  2  0  0  0  0
 16 17  2  0  0  0  0
 16 15  1  0  0  0  0
 17 18  1  0  0  0  0
 18 13  2  0  0  0  0
 21 17  1  0  0  0  0
 22 23  1  0  0  0  0
 22  3  1  0  0  0  0
 24 25  1  0  0  0  0
 24 22  1  0  0  0  0
 26 24  2  0  0  0  0
 27 24  2  0  0  0  0
M  END
>  <minimizedAffinity>
-3.85593629

$$$$
