
 OpenBabel03252501583D

 28 29  0  0  0  0  0  0  0  0999 V2000
   36.5620   30.6020   38.3560 C   0  0  0  0  0  0  0  0  0  0  0  0
   36.7680   30.1590   39.6600 C   0  0  0  0  0  0  0  0  0  0  0  0
   37.1120   28.8280   39.8480 C   0  0  0  0  0  0  0  0  0  0  0  0
   37.2270   28.0370   38.7470 N   0  0  0  0  0  0  0  0  0  0  0  0
   37.0190   28.5070   37.4980 C   0  0  0  0  0  0  0  0  0  0  0  0
   36.6830   29.8050   37.2880 N   0  0  0  0  0  0  0  0  0  0  0  0
   36.2920   31.6300   38.1410 H   0  0  0  0  0  0  0  0  0  0  0  0
   37.1140   27.8710   36.6240 H   0  0  0  0  0  0  0  0  0  0  0  0
   37.3320   28.3360   41.1950 C   0  0  0  0  0  0  0  0  0  0  0  0
   36.4050   27.8860   42.0970 C   0  0  0  0  0  0  0  0  0  0  0  0
   36.8190   27.4540   43.3440 C   0  0  0  0  0  0  0  0  0  0  0  0
   38.1620   27.4780   43.6780 C   0  0  0  0  0  0  0  0  0  0  0  0
   39.1000   27.9290   42.7790 C   0  0  0  0  0  0  0  0  0  0  0  0
   38.6730   28.3570   41.5360 C   0  0  0  0  0  0  0  0  0  0  0  0
   35.3860   27.9030   41.7480 H   0  0  0  0  0  0  0  0  0  0  0  0
   36.0640   27.1040   44.0360 H   0  0  0  0  0  0  0  0  0  0  0  0
   38.5010   27.1410   44.6590 H   0  0  0  0  0  0  0  0  0  0  0  0
   40.1380   27.9290   43.0860 H   0  0  0  0  0  0  0  0  0  0  0  0
   39.4960   28.6930   40.9020 H   0  0  0  0  0  0  0  0  0  0  0  0
   36.6100   31.1210   40.7750 C   0  0  0  0  0  0  0  0  0  0  0  0
   37.2200   30.8940   41.6500 H   0  0  0  0  0  0  0  0  0  0  0  0
   35.5480   31.1910   41.0680 H   0  0  0  0  0  0  0  0  0  0  0  0
   36.9580   32.4260   40.1950 N   0  0  0  0  0  0  0  0  0  0  0  0
   36.3590   33.1730   40.5500 H   0  0  0  0  0  0  0  0  0  0  0  0
   38.6400   32.7620   40.5390 S   0  0  0  0  0  0  0  0  0  0  0  0
   39.6230   32.5190   39.1050 C   0  0  0  0  0  1  0  0  0  0  0  0
   39.0950   31.8570   41.6580 O   0  0  0  0  0  0  0  0  0  0  0  0
   38.7310   34.1600   41.0600 O   0  0  0  0  0  0  0  0  0  0  0  0
  1  2  1  0  0  0  0
  2  3  2  0  0  0  0
  2 20  1  0  0  0  0
  3  9  1  0  0  0  0
  4  3  1  0  0  0  0
  5  4  2  0  0  0  0
  6  5  1  0  0  0  0
  6  1  2  0  0  0  0
  7  1  1  0  0  0  0
  8  5  1  0  0  0  0
  9 14  2  0  0  0  0
  9 10  1  0  0  0  0
 10 11  2  0  0  0  0
 11 12  1  0  0  0  0
 11 16  1  0  0  0  0
 12 17  1  0  0  0  0
 13 18  1  0  0  0  0
 13 12  2  0  0  0  0
 14 13  1  0  0  0  0
 15 10  1  0  0  0  0
 19 14  1  0  0  0  0
 20 22  1  0  0  0  0
 20 21  1  0  0  0  0
 23 25  1  0  0  0  0
 23 24  1  0  0  0  0
 23 20  1  0  0  0  0
 25 28  2  0  0  0  0
 25 27  2  0  0  0  0
 26 25  1  0  0  0  0
M  END
>  <minimizedAffinity>
-4.9012599

$$$$

 OpenBabel03252501583D

 28 29  0  0  0  0  0  0  0  0999 V2000
   39.8360   32.5040   40.8150 C   0  0  0  0  0  0  0  0  0  0  0  0
   38.9030   31.5040   40.5550 C   0  0  0  0  0  0  0  0  0  0  0  0
   37.6620   31.8840   40.0650 C   0  0  0  0  0  0  0  0  0  0  0  0
   37.4330   33.2100   39.8670 N   0  0  0  0  0  0  0  0  0  0  0  0
   38.3660   34.1490   40.1310 C   0  0  0  0  0  0  0  0  0  0  0  0
   39.5870   33.8030   40.6110 N   0  0  0  0  0  0  0  0  0  0  0  0
   40.8240   32.2750   41.1990 H   0  0  0  0  0  0  0  0  0  0  0  0
   38.1770   35.2060   39.9700 H   0  0  0  0  0  0  0  0  0  0  0  0
   36.6680   30.8640   39.7850 C   0  0  0  0  0  0  0  0  0  0  0  0
   35.8170   30.2450   40.6610 C   0  0  0  0  0  0  0  0  0  0  0  0
   34.9340   29.2880   40.1940 C   0  0  0  0  0  0  0  0  0  0  0  0
   34.9110   28.9600   38.8500 C   0  0  0  0  0  0  0  0  0  0  0  0
   35.7620   29.5760   37.9630 C   0  0  0  0  0  0  0  0  0  0  0  0
   36.6400   30.5300   38.4420 C   0  0  0  0  0  0  0  0  0  0  0  0
   35.9070   30.5650   41.6850 H   0  0  0  0  0  0  0  0  0  0  0  0
   34.2730   28.8160   40.9100 H   0  0  0  0  0  0  0  0  0  0  0  0
   34.2190   28.2060   38.4700 H   0  0  0  0  0  0  0  0  0  0  0  0
   35.7070   29.2850   36.9210 H   0  0  0  0  0  0  0  0  0  0  0  0
   37.2680   30.9550   37.6570 H   0  0  0  0  0  0  0  0  0  0  0  0
   39.2760   30.0950   40.8140 C   0  0  0  0  0  0  0  0  0  0  0  0
   40.2420   29.8050   40.3980 H   0  0  0  0  0  0  0  0  0  0  0  0
   38.4900   29.4180   40.4360 H   0  0  0  0  0  0  0  0  0  0  0  0
   39.2550   29.9640   42.2780 N   0  0  0  0  0  0  0  0  0  0  0  0
   38.7280   30.7190   42.7210 H   0  0  0  0  0  0  0  0  0  0  0  0
   38.5770   28.4060   42.6930 S   0  0  0  0  0  0  0  0  0  0  0  0
   38.1750   27.5020   41.2430 C   0  0  0  0  0  1  0  0  0  0  0  0
   37.3500   28.6240   43.5440 O   0  0  0  0  0  0  0  0  0  0  0  0
   39.5690   27.6890   43.5520 O   0  0  0  0  0  0  0  0  0  0  0  0
  1  7  1  0  0  0  0
  2 20  1  0  0  0  0
  2  1  2  0  0  0  0
  3  2  1  0  0  0  0
  4  3  2  0  0  0  0
  4  5  1  0  0  0  0
  5  6  2  0  0  0  0
  6  1  1  0  0  0  0
  8  5  1  0  0  0  0
  9  3  1  0  0  0  0
  9 10  1  0  0  0  0
 10 15  1  0  0  0  0
 11 10  2  0  0  0  0
 11 16  1  0  0  0  0
 12 11  1  0  0  0  0
 13 14  1  0  0  0  0
 13 12  2  0  0  0  0
 14  9  2  0  0  0  0
 17 12  1  0  0  0  0
 18 13  1  0  0  0  0
 19 14  1  0  0  0  0
 20 23  1  0  0  0  0
 21 20  1  0  0  0  0
 22 20  1  0  0  0  0
 23 25  1  0  0  0  0
 23 24  1  0  0  0  0
 25 27  2  0  0  0  0
 25 28  2  0  0  0  0
 26 25  1  0  0  0  0
M  END
>  <minimizedAffinity>
-4.80253839

$$$$

 OpenBabel03252501583D

 28 29  0  0  0  0  0  0  0  0999 V2000
   35.5270   29.1190   38.5350 C   0  0  0  0  0  0  0  0  0  0  0  0
   36.1720   30.1420   39.2240 C   0  0  0  0  0  0  0  0  0  0  0  0
   37.0890   30.9170   38.5290 C   0  0  0  0  0  0  0  0  0  0  0  0
   37.3020   30.6300   37.2160 N   0  0  0  0  0  0  0  0  0  0  0  0
   36.6540   29.6270   36.5840 C   0  0  0  0  0  0  0  0  0  0  0  0
   35.7530   28.8550   37.2420 N   0  0  0  0  0  0  0  0  0  0  0  0
   34.7990   28.4770   39.0200 H   0  0  0  0  0  0  0  0  0  0  0  0
   36.8280   29.4040   35.5370 H   0  0  0  0  0  0  0  0  0  0  0  0
   37.7770   31.9910   39.2200 C   0  0  0  0  0  0  0  0  0  0  0  0
   37.3560   33.2780   39.4220 C   0  0  0  0  0  0  0  0  0  0  0  0
   38.1660   34.1610   40.1130 C   0  0  0  0  0  0  0  0  0  0  0  0
   39.3940   33.7460   40.5960 C   0  0  0  0  0  0  0  0  0  0  0  0
   39.8260   32.4560   40.3980 C   0  0  0  0  0  0  0  0  0  0  0  0
   39.0070   31.5830   39.7060 C   0  0  0  0  0  0  0  0  0  0  0  0
   36.3870   33.5090   39.0110 H   0  0  0  0  0  0  0  0  0  0  0  0
   37.8060   35.1720   40.2580 H   0  0  0  0  0  0  0  0  0  0  0  0
   40.0420   34.4340   41.1420 H   0  0  0  0  0  0  0  0  0  0  0  0
   40.7940   32.1780   40.7940 H   0  0  0  0  0  0  0  0  0  0  0  0
   39.4440   30.5880   39.6050 H   0  0  0  0  0  0  0  0  0  0  0  0
   35.8520   30.3520   40.6550 C   0  0  0  0  0  0  0  0  0  0  0  0
   34.9990   31.0100   40.8290 H   0  0  0  0  0  0  0  0  0  0  0  0
   36.7370   30.7390   41.1880 H   0  0  0  0  0  0  0  0  0  0  0  0
   35.6130   29.0040   41.1870 N   0  0  0  0  0  0  0  0  0  0  0  0
   35.3600   28.3410   40.4510 H   0  0  0  0  0  0  0  0  0  0  0  0
   37.0470   28.4720   42.0340 S   0  0  0  0  0  0  0  0  0  0  0  0
   36.6170   27.4500   43.3950 C   0  0  0  0  0  1  0  0  0  0  0  0
   37.8120   29.6870   42.5000 O   0  0  0  0  0  0  0  0  0  0  0  0
   37.9260   27.7680   41.0510 O   0  0  0  0  0  0  0  0  0  0  0  0
  1  7  1  0  0  0  0
  1  2  1  0  0  0  0
  2 20  1  0  0  0  0
  3  9  1  0  0  0  0
  3  2  2  0  0  0  0
  4  3  1  0  0  0  0
  5  4  2  0  0  0  0
  5  6  1  0  0  0  0
  6  1  2  0  0  0  0
  8  5  1  0  0  0  0
  9 10  2  0  0  0  0
  9 14  1  0  0  0  0
 10 11  1  0  0  0  0
 11 16  1  0  0  0  0
 11 12  2  0  0  0  0
 12 17  1  0  0  0  0
 13 12  1  0  0  0  0
 13 18  1  0  0  0  0
 14 13  2  0  0  0  0
 15 10  1  0  0  0  0
 19 14  1  0  0  0  0
 20 21  1  0  0  0  0
 20 23  1  0  0  0  0
 20 22  1  0  0  0  0
 23 25  1  0  0  0  0
 24 23  1  0  0  0  0
 25 27  2  0  0  0  0
 25 26  1  0  0  0  0
 28 25  2  0  0  0  0
M  END
>  <minimizedAffinity>
-4.67011642

$$$$

 OpenBabel03252501583D

 28 29  0  0  0  0  0  0  0  0999 V2000
   39.0680   28.8750   42.6150 C   0  0  0  0  0  0  0  0  0  0  0  0
   38.1250   29.0970   41.6150 C   0  0  0  0  0  0  0  0  0  0  0  0
   37.1580   28.1240   41.4060 C   0  0  0  0  0  0  0  0  0  0  0  0
   37.1900   27.0140   42.1910 N   0  0  0  0  0  0  0  0  0  0  0  0
   38.1220   26.8370   43.1510 C   0  0  0  0  0  0  0  0  0  0  0  0
   39.0780   27.7740   43.3750 N   0  0  0  0  0  0  0  0  0  0  0  0
   39.8500   29.5960   42.8300 H   0  0  0  0  0  0  0  0  0  0  0  0
   38.1420   25.9490   43.7740 H   0  0  0  0  0  0  0  0  0  0  0  0
   36.1620   28.3270   40.3700 C   0  0  0  0  0  0  0  0  0  0  0  0
   35.0400   29.1110   40.4130 C   0  0  0  0  0  0  0  0  0  0  0  0
   34.2070   29.1710   39.3100 C   0  0  0  0  0  0  0  0  0  0  0  0
   34.5060   28.4440   38.1720 C   0  0  0  0  0  0  0  0  0  0  0  0
   35.6300   27.6530   38.1200 C   0  0  0  0  0  0  0  0  0  0  0  0
   36.4540   27.6010   39.2280 C   0  0  0  0  0  0  0  0  0  0  0  0
   34.8900   29.6400   41.3390 H   0  0  0  0  0  0  0  0  0  0  0  0
   33.3270   29.8000   39.3730 H   0  0  0  0  0  0  0  0  0  0  0  0
   33.8560   28.4830   37.2960 H   0  0  0  0  0  0  0  0  0  0  0  0
   35.8220   27.1020   37.2080 H   0  0  0  0  0  0  0  0  0  0  0  0
   37.3150   26.9470   39.0810 H   0  0  0  0  0  0  0  0  0  0  0  0
   38.1990   30.3490   40.8280 C   0  0  0  0  0  0  0  0  0  0  0  0
   37.2400   30.8520   40.6970 H   0  0  0  0  0  0  0  0  0  0  0  0
   38.6550   30.1520   39.8420 H   0  0  0  0  0  0  0  0  0  0  0  0
   39.1570   31.1930   41.5570 N   0  0  0  0  0  0  0  0  0  0  0  0
   39.9940   30.6730   41.8290 H   0  0  0  0  0  0  0  0  0  0  0  0
   39.5760   32.5620   40.5520 S   0  0  0  0  0  0  0  0  0  0  0  0
   39.3760   32.1660   38.8540 C   0  0  0  0  0  1  0  0  0  0  0  0
   41.0030   32.9580   40.8450 O   0  0  0  0  0  0  0  0  0  0  0  0
   38.7210   33.7160   40.9700 O   0  0  0  0  0  0  0  0  0  0  0  0
  1  7  1  0  0  0  0
  1  6  1  0  0  0  0
  2  1  2  0  0  0  0
  3  2  1  0  0  0  0
  3  4  2  0  0  0  0
  4  5  1  0  0  0  0
  5  6  2  0  0  0  0
  5  8  1  0  0  0  0
  9 10  1  0  0  0  0
  9  3  1  0  0  0  0
 10 15  1  0  0  0  0
 11 16  1  0  0  0  0
 11 10  2  0  0  0  0
 12 11  1  0  0  0  0
 13 12  2  0  0  0  0
 13 14  1  0  0  0  0
 14  9  2  0  0  0  0
 17 12  1  0  0  0  0
 18 13  1  0  0  0  0
 19 14  1  0  0  0  0
 20 23  1  0  0  0  0
 20  2  1  0  0  0  0
 21 20  1  0  0  0  0
 22 20  1  0  0  0  0
 23 24  1  0  0  0  0
 25 27  2  0  0  0  0
 25 28  2  0  0  0  0
 25 23  1  0  0  0  0
 26 25  1  0  0  0  0
M  END
>  <minimizedAffinity>
-4.34645462

$$$$

 OpenBabel03252501583D

 28 29  0  0  0  0  0  0  0  0999 V2000
   35.4220   29.2180   40.4160 C   0  0  0  0  0  0  0  0  0  0  0  0
   36.2070   28.2040   40.9580 C   0  0  0  0  0  0  0  0  0  0  0  0
   36.4960   27.1080   40.1580 C   0  0  0  0  0  0  0  0  0  0  0  0
   35.9960   27.0910   38.8940 N   0  0  0  0  0  0  0  0  0  0  0  0
   35.2390   28.0960   38.4050 C   0  0  0  0  0  0  0  0  0  0  0  0
   34.9420   29.1800   39.1680 N   0  0  0  0  0  0  0  0  0  0  0  0
   35.1600   30.1020   40.9880 H   0  0  0  0  0  0  0  0  0  0  0  0
   34.8430   28.0780   37.3950 H   0  0  0  0  0  0  0  0  0  0  0  0
   37.3110   26.0340   40.6960 C   0  0  0  0  0  0  0  0  0  0  0  0
   36.9280   25.0030   41.5110 C   0  0  0  0  0  0  0  0  0  0  0  0
   37.8640   24.0700   41.9190 C   0  0  0  0  0  0  0  0  0  0  0  0
   39.1800   24.1790   41.5060 C   0  0  0  0  0  0  0  0  0  0  0  0
   39.5750   25.2110   40.6870 C   0  0  0  0  0  0  0  0  0  0  0  0
   38.6290   26.1370   40.2860 C   0  0  0  0  0  0  0  0  0  0  0  0
   35.8840   25.0000   41.7800 H   0  0  0  0  0  0  0  0  0  0  0  0
   37.5310   23.2660   42.5630 H   0  0  0  0  0  0  0  0  0  0  0  0
   39.9280   23.4500   41.8210 H   0  0  0  0  0  0  0  0  0  0  0  0
   40.6150   25.2550   40.3910 H   0  0  0  0  0  0  0  0  0  0  0  0
   39.0470   26.9120   39.6410 H   0  0  0  0  0  0  0  0  0  0  0  0
   36.6900   28.3420   42.3510 C   0  0  0  0  0  0  0  0  0  0  0  0
   37.4600   27.6210   42.6300 H   0  0  0  0  0  0  0  0  0  0  0  0
   35.8430   28.2730   43.0550 H   0  0  0  0  0  0  0  0  0  0  0  0
   37.1830   29.7230   42.4410 N   0  0  0  0  0  0  0  0  0  0  0  0
   36.9340   30.1610   43.3310 H   0  0  0  0  0  0  0  0  0  0  0  0
   38.9180   29.7160   42.2170 S   0  0  0  0  0  0  0  0  0  0  0  0
   39.3200   29.8560   40.5140 C   0  0  0  0  0  1  0  0  0  0  0  0
   39.4740   28.4380   42.7950 O   0  0  0  0  0  0  0  0  0  0  0  0
   39.4890   30.8340   43.0300 O   0  0  0  0  0  0  0  0  0  0  0  0
  1  2  1  0  0  0  0
  1  7  1  0  0  0  0
  2 20  1  0  0  0  0
  3  9  1  0  0  0  0
  3  2  2  0  0  0  0
  4  3  1  0  0  0  0
  5  4  2  0  0  0  0
  5  6  1  0  0  0  0
  6  1  2  0  0  0  0
  8  5  1  0  0  0  0
  9 10  1  0  0  0  0
 10 15  1  0  0  0  0
 10 11  2  0  0  0  0
 11 16  1  0  0  0  0
 12 17  1  0  0  0  0
 12 11  1  0  0  0  0
 13 12  2  0  0  0  0
 14 13  1  0  0  0  0
 14  9  2  0  0  0  0
 18 13  1  0  0  0  0
 19 14  1  0  0  0  0
 20 23  1  0  0  0  0
 20 21  1  0  0  0  0
 20 22  1  0  0  0  0
 23 24  1  0  0  0  0
 25 23  1  0  0  0  0
 25 27  2  0  0  0  0
 25 28  2  0  0  0  0
 26 25  1  0  0  0  0
M  END
>  <minimizedAffinity>
-4.32279491

$$$$

 OpenBabel03252501583D

 28 29  0  0  0  0  0  0  0  0999 V2000
   37.0280   29.7330   37.2590 C   0  0  0  0  0  0  0  0  0  0  0  0
   37.2630   29.1880   38.5180 C   0  0  0  0  0  0  0  0  0  0  0  0
   36.2960   28.3480   39.0530 C   0  0  0  0  0  0  0  0  0  0  0  0
   35.1790   28.1090   38.3150 N   0  0  0  0  0  0  0  0  0  0  0  0
   34.9900   28.6580   37.0960 C   0  0  0  0  0  0  0  0  0  0  0  0
   35.9210   29.4820   36.5510 N   0  0  0  0  0  0  0  0  0  0  0  0
   37.7440   30.3960   36.7840 H   0  0  0  0  0  0  0  0  0  0  0  0
   34.0970   28.4630   36.5120 H   0  0  0  0  0  0  0  0  0  0  0  0
   36.5110   27.7650   40.3640 C   0  0  0  0  0  0  0  0  0  0  0  0
   36.3230   28.3420   41.5920 C   0  0  0  0  0  0  0  0  0  0  0  0
   36.5870   27.6130   42.7370 C   0  0  0  0  0  0  0  0  0  0  0  0
   37.0400   26.3090   42.6420 C   0  0  0  0  0  0  0  0  0  0  0  0
   37.2330   25.7210   41.4140 C   0  0  0  0  0  0  0  0  0  0  0  0
   36.9650   26.4600   40.2770 C   0  0  0  0  0  0  0  0  0  0  0  0
   35.9680   29.3590   41.5660 H   0  0  0  0  0  0  0  0  0  0  0  0
   36.4290   28.0950   43.6930 H   0  0  0  0  0  0  0  0  0  0  0  0
   37.2530   25.7230   43.5380 H   0  0  0  0  0  0  0  0  0  0  0  0
   37.5880   24.6990   41.3910 H   0  0  0  0  0  0  0  0  0  0  0  0
   37.1510   25.9010   39.3590 H   0  0  0  0  0  0  0  0  0  0  0  0
   38.5210   29.5270   39.2210 C   0  0  0  0  0  0  0  0  0  0  0  0
   39.4020   29.0170   38.8300 H   0  0  0  0  0  0  0  0  0  0  0  0
   38.4190   29.3230   40.3010 H   0  0  0  0  0  0  0  0  0  0  0  0
   38.6390   30.9860   39.0920 N   0  0  0  0  0  0  0  0  0  0  0  0
   38.0410   31.3550   38.3490 H   0  0  0  0  0  0  0  0  0  0  0  0
   38.2420   31.7190   40.6300 S   0  0  0  0  0  0  0  0  0  0  0  0
   38.9200   33.3350   40.7370 C   0  0  0  0  0  1  0  0  0  0  0  0
   38.7750   30.8420   41.7360 O   0  0  0  0  0  0  0  0  0  0  0  0
   36.7530   31.7180   40.7670 O   0  0  0  0  0  0  0  0  0  0  0  0
  1  2  1  0  0  0  0
  2  3  2  0  0  0  0
  2 20  1  0  0  0  0
  3  9  1  0  0  0  0
  4  3  1  0  0  0  0
  5  4  2  0  0  0  0
  6  5  1  0  0  0  0
  6  1  2  0  0  0  0
  7  1  1  0  0  0  0
  8  5  1  0  0  0  0
  9 10  1  0  0  0  0
 10 11  2  0  0  0  0
 11 16  1  0  0  0  0
 12 11  1  0  0  0  0
 12 17  1  0  0  0  0
 13 12  2  0  0  0  0
 14  9  2  0  0  0  0
 14 13  1  0  0  0  0
 15 10  1  0  0  0  0
 18 13  1  0  0  0  0
 19 14  1  0  0  0  0
 20 22  1  0  0  0  0
 21 20  1  0  0  0  0
 23 20  1  0  0  0  0
 23 25  1  0  0  0  0
 24 23  1  0  0  0  0
 25 26  1  0  0  0  0
 25 28  2  0  0  0  0
 25 27  2  0  0  0  0
M  END
>  <minimizedAffinity>
-4.301229

$$$$

 OpenBabel03252501583D

 28 29  0  0  0  0  0  0  0  0999 V2000
   37.0640   32.3070   39.9550 C   0  0  0  0  0  0  0  0  0  0  0  0
   37.1510   31.0810   40.6090 C   0  0  0  0  0  0  0  0  0  0  0  0
   38.2630   30.8460   41.4040 C   0  0  0  0  0  0  0  0  0  0  0  0
   39.2010   31.8270   41.4960 N   0  0  0  0  0  0  0  0  0  0  0  0
   39.0780   33.0040   40.8460 C   0  0  0  0  0  0  0  0  0  0  0  0
   37.9990   33.2580   40.0620 N   0  0  0  0  0  0  0  0  0  0  0  0
   36.2200   32.5540   39.3190 H   0  0  0  0  0  0  0  0  0  0  0  0
   39.8290   33.7830   40.9240 H   0  0  0  0  0  0  0  0  0  0  0  0
   38.3830   29.5780   42.0980 C   0  0  0  0  0  0  0  0  0  0  0  0
   37.6280   29.1040   43.1380 C   0  0  0  0  0  0  0  0  0  0  0  0
   37.9020   27.8560   43.6670 C   0  0  0  0  0  0  0  0  0  0  0  0
   38.9320   27.0910   43.1490 C   0  0  0  0  0  0  0  0  0  0  0  0
   39.6950   27.5580   42.1050 C   0  0  0  0  0  0  0  0  0  0  0  0
   39.4120   28.8070   41.5850 C   0  0  0  0  0  0  0  0  0  0  0  0
   36.8490   29.7680   43.4730 H   0  0  0  0  0  0  0  0  0  0  0  0
   37.2880   27.5080   44.4890 H   0  0  0  0  0  0  0  0  0  0  0  0
   39.1580   26.1050   43.5590 H   0  0  0  0  0  0  0  0  0  0  0  0
   40.4900   26.9240   41.7340 H   0  0  0  0  0  0  0  0  0  0  0  0
   40.0750   29.0800   40.7620 H   0  0  0  0  0  0  0  0  0  0  0  0
   36.0620   30.0950   40.4250 C   0  0  0  0  0  0  0  0  0  0  0  0
   35.0980   30.4130   40.8270 H   0  0  0  0  0  0  0  0  0  0  0  0
   36.3490   29.1260   40.8690 H   0  0  0  0  0  0  0  0  0  0  0  0
   35.9970   29.8740   38.9740 N   0  0  0  0  0  0  0  0  0  0  0  0
   36.4710   30.6150   38.4530 H   0  0  0  0  0  0  0  0  0  0  0  0
   36.6990   28.3130   38.6120 S   0  0  0  0  0  0  0  0  0  0  0  0
   36.4820   27.2120   39.9620 C   0  0  0  0  0  1  0  0  0  0  0  0
   38.1650   28.5020   38.3060 O   0  0  0  0  0  0  0  0  0  0  0  0
   36.0650   27.8060   37.3570 O   0  0  0  0  0  0  0  0  0  0  0  0
  1  6  2  0  0  0  0
  1  2  1  0  0  0  0
  2  3  2  0  0  0  0
  3  4  1  0  0  0  0
  3  9  1  0  0  0  0
  5  8  1  0  0  0  0
  5  4  2  0  0  0  0
  6  5  1  0  0  0  0
  7  1  1  0  0  0  0
  9 10  1  0  0  0  0
 10 15  1  0  0  0  0
 10 11  2  0  0  0  0
 11 16  1  0  0  0  0
 12 17  1  0  0  0  0
 12 11  1  0  0  0  0
 13 12  2  0  0  0  0
 14  9  2  0  0  0  0
 14 13  1  0  0  0  0
 18 13  1  0  0  0  0
 19 14  1  0  0  0  0
 20  2  1  0  0  0  0
 20 21  1  0  0  0  0
 20 22  1  0  0  0  0
 23 20  1  0  0  0  0
 24 23  1  0  0  0  0
 25 23  1  0  0  0  0
 25 26  1  0  0  0  0
 27 25  2  0  0  0  0
 28 25  2  0  0  0  0
M  END
>  <minimizedAffinity>
-4.26813316

$$$$

 OpenBabel03252501583D

 28 29  0  0  0  0  0  0  0  0999 V2000
   35.3750   27.9230   38.1400 C   0  0  0  0  0  0  0  0  0  0  0  0
   35.9590   28.1780   39.3770 C   0  0  0  0  0  0  0  0  0  0  0  0
   36.5430   27.1150   40.0520 C   0  0  0  0  0  0  0  0  0  0  0  0
   36.5090   25.8890   39.4630 N   0  0  0  0  0  0  0  0  0  0  0  0
   35.9320   25.6840   38.2590 C   0  0  0  0  0  0  0  0  0  0  0  0
   35.3540   26.7080   37.5800 N   0  0  0  0  0  0  0  0  0  0  0  0
   34.9020   28.7100   37.5620 H   0  0  0  0  0  0  0  0  0  0  0  0
   35.9080   24.7040   37.7940 H   0  0  0  0  0  0  0  0  0  0  0  0
   37.1600   27.3480   41.3440 C   0  0  0  0  0  0  0  0  0  0  0  0
   36.5500   27.5650   42.5500 C   0  0  0  0  0  0  0  0  0  0  0  0
   37.3210   27.7690   43.6800 C   0  0  0  0  0  0  0  0  0  0  0  0
   38.7020   27.7560   43.5910 C   0  0  0  0  0  0  0  0  0  0  0  0
   39.3250   27.5390   42.3840 C   0  0  0  0  0  0  0  0  0  0  0  0
   38.5420   27.3360   41.2620 C   0  0  0  0  0  0  0  0  0  0  0  0
   35.4720   27.5580   42.5220 H   0  0  0  0  0  0  0  0  0  0  0  0
   36.8100   27.9380   44.6190 H   0  0  0  0  0  0  0  0  0  0  0  0
   39.3210   27.9170   44.4740 H   0  0  0  0  0  0  0  0  0  0  0  0
   40.4070   27.5380   42.3640 H   0  0  0  0  0  0  0  0  0  0  0  0
   39.1350   27.1750   40.3600 H   0  0  0  0  0  0  0  0  0  0  0  0
   35.9300   29.5580   39.9110 C   0  0  0  0  0  0  0  0  0  0  0  0
   36.5620   29.7130   40.7860 H   0  0  0  0  0  0  0  0  0  0  0  0
   34.8920   29.8530   40.1440 H   0  0  0  0  0  0  0  0  0  0  0  0
   36.3490   30.4040   38.7850 N   0  0  0  0  0  0  0  0  0  0  0  0
   35.5680   30.9380   38.3970 H   0  0  0  0  0  0  0  0  0  0  0  0
   37.6230   31.4720   39.3280 S   0  0  0  0  0  0  0  0  0  0  0  0
   38.1540   31.0280   40.9410 C   0  0  0  0  0  1  0  0  0  0  0  0
   37.1080   32.8900   39.3060 O   0  0  0  0  0  0  0  0  0  0  0  0
   38.7330   31.4070   38.3270 O   0  0  0  0  0  0  0  0  0  0  0  0
  1  2  1  0  0  0  0
  2 20  1  0  0  0  0
  2  3  2  0  0  0  0
  3  9  1  0  0  0  0
  4  3  1  0  0  0  0
  5  4  2  0  0  0  0
  6  1  2  0  0  0  0
  6  5  1  0  0  0  0
  7  1  1  0  0  0  0
  8  5  1  0  0  0  0
  9 10  1  0  0  0  0
 10 11  2  0  0  0  0
 11 16  1  0  0  0  0
 12 11  1  0  0  0  0
 12 17  1  0  0  0  0
 13 12  2  0  0  0  0
 14  9  2  0  0  0  0
 14 13  1  0  0  0  0
 15 10  1  0  0  0  0
 18 13  1  0  0  0  0
 19 14  1  0  0  0  0
 20 22  1  0  0  0  0
 20 21  1  0  0  0  0
 23 25  1  0  0  0  0
 23 20  1  0  0  0  0
 24 23  1  0  0  0  0
 25 26  1  0  0  0  0
 27 25  2  0  0  0  0
 28 25  2  0  0  0  0
M  END
>  <minimizedAffinity>
-4.20297718

$$$$

 OpenBabel03252501583D

 28 29  0  0  0  0  0  0  0  0999 V2000
   35.9810   25.9350   38.3770 C   0  0  0  0  0  0  0  0  0  0  0  0
   36.4040   27.1480   38.9130 C   0  0  0  0  0  0  0  0  0  0  0  0
   35.6670   28.2850   38.6110 C   0  0  0  0  0  0  0  0  0  0  0  0
   34.5770   28.1440   37.8100 N   0  0  0  0  0  0  0  0  0  0  0  0
   34.2000   26.9480   37.3110 C   0  0  0  0  0  0  0  0  0  0  0  0
   34.9030   25.8220   37.5920 N   0  0  0  0  0  0  0  0  0  0  0  0
   36.5120   25.0100   38.5750 H   0  0  0  0  0  0  0  0  0  0  0  0
   33.3280   26.8420   36.6730 H   0  0  0  0  0  0  0  0  0  0  0  0
   36.0840   29.5640   39.1540 C   0  0  0  0  0  0  0  0  0  0  0  0
   35.8710   30.0630   40.4120 C   0  0  0  0  0  0  0  0  0  0  0  0
   36.3520   31.3170   40.7400 C   0  0  0  0  0  0  0  0  0  0  0  0
   37.0450   32.0630   39.8030 C   0  0  0  0  0  0  0  0  0  0  0  0
   37.2650   31.5710   38.5380 C   0  0  0  0  0  0  0  0  0  0  0  0
   36.7780   30.3160   38.2220 C   0  0  0  0  0  0  0  0  0  0  0  0
   35.3220   29.4110   41.0720 H   0  0  0  0  0  0  0  0  0  0  0  0
   36.1680   31.6850   41.7420 H   0  0  0  0  0  0  0  0  0  0  0  0
   37.4300   33.0540   40.0500 H   0  0  0  0  0  0  0  0  0  0  0  0
   37.8120   32.1910   37.8390 H   0  0  0  0  0  0  0  0  0  0  0  0
   37.0060   30.0230   37.1960 H   0  0  0  0  0  0  0  0  0  0  0  0
   37.6100   27.1680   39.7710 C   0  0  0  0  0  0  0  0  0  0  0  0
   37.5450   27.8540   40.6180 H   0  0  0  0  0  0  0  0  0  0  0  0
   38.5030   27.4060   39.1670 H   0  0  0  0  0  0  0  0  0  0  0  0
   37.7790   25.7770   40.2130 N   0  0  0  0  0  0  0  0  0  0  0  0
   38.6710   25.3840   39.9070 H   0  0  0  0  0  0  0  0  0  0  0  0
   37.6400   25.7210   41.9560 S   0  0  0  0  0  0  0  0  0  0  0  0
   36.9510   27.2150   42.5690 C   0  0  0  0  0  1  0  0  0  0  0  0
   39.0110   25.4840   42.5420 O   0  0  0  0  0  0  0  0  0  0  0  0
   36.8140   24.5260   42.3120 O   0  0  0  0  0  0  0  0  0  0  0  0
  1  7  1  0  0  0  0
  1  2  1  0  0  0  0
  2 20  1  0  0  0  0
  3  2  2  0  0  0  0
  3  9  1  0  0  0  0
  4  3  1  0  0  0  0
  5  6  1  0  0  0  0
  5  4  2  0  0  0  0
  6  1  2  0  0  0  0
  8  5  1  0  0  0  0
  9 10  1  0  0  0  0
 10 11  2  0  0  0  0
 10 15  1  0  0  0  0
 11 16  1  0  0  0  0
 12 17  1  0  0  0  0
 12 11  1  0  0  0  0
 13 12  2  0  0  0  0
 14 13  1  0  0  0  0
 14  9  2  0  0  0  0
 18 13  1  0  0  0  0
 19 14  1  0  0  0  0
 20 23  1  0  0  0  0
 20 21  1  0  0  0  0
 22 20  1  0  0  0  0
 23 25  1  0  0  0  0
 24 23  1  0  0  0  0
 25 28  2  0  0  0  0
 25 27  2  0  0  0  0
 25 26  1  0  0  0  0
M  END
>  <minimizedAffinity>
-4.20252037

$$$$
