
 OpenBabel03252501583D

 28 29  0  0  0  0  0  0  0  0999 V2000
   44.8080   35.2590   45.3140 C   0  0  0  0  0  0  0  0  0  0  0  0
   45.5030   35.4900   44.1300 C   0  0  0  0  0  0  0  0  0  0  0  0
   46.3990   34.5210   43.7020 C   0  0  0  0  0  0  0  0  0  0  0  0
   46.5430   33.4040   44.4650 N   0  0  0  0  0  0  0  0  0  0  0  0
   45.8490   33.2180   45.6080 C   0  0  0  0  0  0  0  0  0  0  0  0
   44.9670   34.1510   46.0470 N   0  0  0  0  0  0  0  0  0  0  0  0
   44.0930   35.9760   45.7030 H   0  0  0  0  0  0  0  0  0  0  0  0
   45.9680   32.3240   46.2120 H   0  0  0  0  0  0  0  0  0  0  0  0
   47.1380   34.7330   42.4720 C   0  0  0  0  0  0  0  0  0  0  0  0
   48.2620   35.4910   42.2760 C   0  0  0  0  0  0  0  0  0  0  0  0
   48.8230   35.5670   41.0150 C   0  0  0  0  0  0  0  0  0  0  0  0
   48.2530   34.8820   39.9570 C   0  0  0  0  0  0  0  0  0  0  0  0
   47.1240   34.1190   40.1430 C   0  0  0  0  0  0  0  0  0  0  0  0
   46.5730   34.0510   41.4090 C   0  0  0  0  0  0  0  0  0  0  0  0
   48.6340   35.9870   43.1570 H   0  0  0  0  0  0  0  0  0  0  0  0
   49.7110   36.1740   40.8910 H   0  0  0  0  0  0  0  0  0  0  0  0
   48.6860   34.9350   38.9570 H   0  0  0  0  0  0  0  0  0  0  0  0
   46.7140   33.6010   39.2850 H   0  0  0  0  0  0  0  0  0  0  0  0
   45.6820   33.4200   41.4460 H   0  0  0  0  0  0  0  0  0  0  0  0
   45.2550   36.7490   43.3910 C   0  0  0  0  0  0  0  0  0  0  0  0
   44.5010   36.6660   42.6070 H   0  0  0  0  0  0  0  0  0  0  0  0
   46.1990   37.1280   42.9610 H   0  0  0  0  0  0  0  0  0  0  0  0
   44.8600   37.7180   44.4230 N   0  0  0  0  0  0  0  0  0  0  0  0
   45.1880   37.4420   45.3510 H   0  0  0  0  0  0  0  0  0  0  0  0
   45.4860   39.2910   43.9850 S   0  0  0  0  0  0  0  0  0  0  0  0
   45.0010   40.4980   45.1650 C   0  0  0  0  0  1  0  0  0  0  0  0
   44.9710   39.6510   42.6120 O   0  0  0  0  0  0  0  0  0  0  0  0
   46.9710   39.1770   43.8660 O   0  0  0  0  0  0  0  0  0  0  0  0
  1  7  1  0  0  0  0
  1  6  1  0  0  0  0
  2  1  2  0  0  0  0
  3  2  1  0  0  0  0
  3  4  2  0  0  0  0
  4  5  1  0  0  0  0
  5  6  2  0  0  0  0
  5  8  1  0  0  0  0
  9  3  1  0  0  0  0
 10  9  1  0  0  0  0
 10 15  1  0  0  0  0
 11 10  2  0  0  0  0
 12 13  2  0  0  0  0
 12 11  1  0  0  0  0
 13 14  1  0  0  0  0
 14 19  1  0  0  0  0
 14  9  2  0  0  0  0
 16 11  1  0  0  0  0
 17 12  1  0  0  0  0
 18 13  1  0  0  0  0
 20  2  1  0  0  0  0
 20 23  1  0  0  0  0
 21 20  1  0  0  0  0
 22 20  1  0  0  0  0
 23 24  1  0  0  0  0
 25 23  1  0  0  0  0
 25 26  1  0  0  0  0
 27 25  2  0  0  0  0
 28 25  2  0  0  0  0
M  END
>  <minimizedAffinity>
-3.42671561

>  <minimizedRMSD>
1.113814

$$$$
