
 OpenBabel03252501203D

 21 21  0  0  0  0  0  0  0  0999 V2000
   44.7460   35.3570   45.6700 C   0  0  0  0  0  0  0  0  0  0  0  0
   45.1260   35.6970   44.3700 C   0  0  0  0  0  0  0  0  0  0  0  0
   45.7590   34.6950   43.6200 C   0  0  0  0  0  0  0  0  0  0  0  0
   45.9680   33.4750   44.1820 N   0  0  0  0  0  0  0  0  0  0  0  0
   45.5850   33.1960   45.4380 C   0  0  0  0  0  0  0  0  0  0  0  0
   44.9720   34.1350   46.1890 N   0  0  0  0  0  0  0  0  0  0  0  0
   44.2520   36.0720   46.3160 H   0  0  0  0  0  0  0  0  0  0  0  0
   45.8000   32.1840   45.7920 H   0  0  0  0  0  0  0  0  0  0  0  0
   46.1340   35.0850   42.2590 C   0  0  0  0  0  0  0  0  0  0  0  0
   46.6460   33.9640   41.6090 F   0  0  0  0  0  0  0  0  0  0  0  0
   47.1590   35.9850   42.3730 F   0  0  0  0  0  0  0  0  0  0  0  0
   45.0770   35.5100   41.5200 F   0  0  0  0  0  0  0  0  0  0  0  0
   44.8720   37.0360   43.8420 C   0  0  0  0  0  0  0  0  0  0  0  0
   43.9170   37.0190   43.3160 H   0  0  0  0  0  0  0  0  0  0  0  0
   45.6450   37.4990   43.2510 H   0  0  0  0  0  0  0  0  0  0  0  0
   44.8700   37.9970   44.9510 N   0  0  0  0  0  0  0  0  0  0  0  0
   45.3230   37.6250   45.7870 H   0  0  0  0  0  0  0  0  0  0  0  0
   45.4420   39.5400   44.4730 S   0  0  0  0  0  0  0  0  0  0  0  0
   45.3410   39.8110   42.7470 C   0  0  0  0  0  1  0  0  0  0  0  0
   46.8890   39.6970   44.8900 O   0  0  0  0  0  0  0  0  0  0  0  0
   44.6500   40.5720   45.1860 O   0  0  0  0  0  0  0  0  0  0  0  0
  1  6  1  0  0  0  0
  1  7  1  0  0  0  0
  2  1  2  0  0  0  0
  3  4  2  0  0  0  0
  3  2  1  0  0  0  0
  4  5  1  0  0  0  0
  5  8  1  0  0  0  0
  5  6  2  0  0  0  0
  9 11  1  0  0  0  0
  9  3  1  0  0  0  0
 10  9  1  0  0  0  0
 12  9  1  0  0  0  0
 13  2  1  0  0  0  0
 13 16  1  0  0  0  0
 14 13  1  0  0  0  0
 15 13  1  0  0  0  0
 16 17  1  0  0  0  0
 18 20  2  0  0  0  0
 18 16  1  0  0  0  0
 18 21  2  0  0  0  0
 19 18  1  0  0  0  0
M  END
>  <minimizedAffinity>
-2.10940647

>  <minimizedRMSD>
1.59746921

$$$$
