
     RDKit          3D

 24 24  0  0  0  0  0  0  0  0999 V2000
   44.9343   34.9240   45.0363 C   0  0  0  0  0  0  0  0  0  0  0  0
   45.4431   35.1789   43.7614 C   0  0  0  0  0  0  0  0  0  0  0  0
   46.5251   34.3870   43.3482 C   0  0  0  0  0  0  0  0  0  0  0  0
   47.0120   33.4364   44.1883 N   0  0  0  0  0  0  0  0  0  0  0  0
   46.4878   33.2289   45.4072 C   0  0  0  0  0  0  0  0  0  0  0  0
   45.4473   33.9706   45.8374 N   0  0  0  0  0  0  0  0  0  0  0  0
   47.0264   34.6772   42.0027 C   0  0  0  0  0  0  0  0  0  0  0  0
   47.9663   33.7050   41.6680 F   0  0  0  0  0  0  0  0  0  0  0  0
   47.6921   35.8695   42.0763 F   0  0  0  0  0  0  0  0  0  0  0  0
   46.0573   34.6187   41.0526 F   0  0  0  0  0  0  0  0  0  0  0  0
   44.8671   36.2266   42.9199 C   0  0  0  0  0  0  0  0  0  0  0  0
   44.9832   37.5161   43.6129 N   0  0  0  0  0  0  0  0  0  0  0  0
   44.0999   35.4902   45.4307 H   0  0  0  0  0  0  0  0  0  0  0  0
   46.9554   32.4387   46.0022 H   0  0  0  0  0  0  0  0  0  0  0  0
   43.8278   35.9667   42.7157 H   0  0  0  0  0  0  0  0  0  0  0  0
   45.3953   36.4981   42.0214 H   0  0  0  0  0  0  0  0  0  0  0  0
   45.9289   37.6866   43.9577 H   0  0  0  0  0  0  0  0  0  0  0  0
   44.3303   38.8070   42.6945 S   0  0  0  0  0  0  0  0  0  0  0  0
   45.4913   39.5391   41.6074 C   0  0  0  0  0  0  0  0  0  0  0  0
   43.8151   39.8838   43.6253 O   0  0  0  0  0  0  0  0  0  0  0  0
   43.1780   38.2896   41.9165 O   0  0  0  0  0  0  0  0  0  0  0  0
   46.0459   38.8028   41.0142 H   0  0  0  0  0  0  0  0  0  0  0  0
   44.9180   40.2007   40.9032 H   0  0  0  0  0  0  0  0  0  0  0  0
   46.2132   40.2156   42.1112 H   0  0  0  0  0  0  0  0  0  0  0  0
  1  6  2  0
  2  1  1  0
  3  2  2  0
  3  4  1  0
  4  5  2  0
  5  6  1  0
  7  9  1  0
  7  3  1  0
  8  7  1  0
 10  7  1  0
 11 12  1  0
 11  2  1  0
  1 13  1  0
  5 14  1  0
 11 15  1  0
 11 16  1  0
 12 17  1  0
 18 19  1  0
 18 20  2  0
 18 21  2  0
 19 22  1  0
 19 23  1  0
 19 24  1  0
 12 18  1  0
M  ISO  5  13  14  14  14  15   8  16   8  17   5
M  END
>  <DihAtoms>  (1) 
10,11,17,18

>  <DihDeg>  (1) 
61.54735441029842

$$$$
