
 OpenBabel03252501203D

 21 21  0  0  0  0  0  0  0  0999 V2000
   44.8750   35.1750   45.4270 C   0  0  0  0  0  0  0  0  0  0  0  0
   45.2850   35.4860   44.1290 C   0  0  0  0  0  0  0  0  0  0  0  0
   46.0170   34.5000   43.4510 C   0  0  0  0  0  0  0  0  0  0  0  0
   46.2850   33.3230   44.0740 N   0  0  0  0  0  0  0  0  0  0  0  0
   45.8690   33.0710   45.3260 C   0  0  0  0  0  0  0  0  0  0  0  0
   45.1620   33.9950   46.0090 N   0  0  0  0  0  0  0  0  0  0  0  0
   44.3050   35.8800   46.0200 H   0  0  0  0  0  0  0  0  0  0  0  0
   46.1390   32.0930   45.7340 H   0  0  0  0  0  0  0  0  0  0  0  0
   46.4220   34.8580   42.0900 C   0  0  0  0  0  0  0  0  0  0  0  0
   47.0700   33.7620   41.5240 F   0  0  0  0  0  0  0  0  0  0  0  0
   47.3490   35.8570   42.2010 F   0  0  0  0  0  0  0  0  0  0  0  0
   45.3680   35.1420   41.2810 F   0  0  0  0  0  0  0  0  0  0  0  0
   44.9620   36.7800   43.5310 C   0  0  0  0  0  0  0  0  0  0  0  0
   44.0170   36.6820   42.9970 H   0  0  0  0  0  0  0  0  0  0  0  0
   45.7150   37.2570   42.9270 H   0  0  0  0  0  0  0  0  0  0  0  0
   44.8890   37.7930   44.5910 N   0  0  0  0  0  0  0  0  0  0  0  0
   45.2960   37.4660   45.4690 H   0  0  0  0  0  0  0  0  0  0  0  0
   45.4770   39.3170   44.0720 S   0  0  0  0  0  0  0  0  0  0  0  0
   47.2230   39.4390   44.1230 C   0  0  0  0  0  1  0  0  0  0  0  0
   44.9050   40.4090   44.9510 O   0  0  0  0  0  0  0  0  0  0  0  0
   45.0020   39.5540   42.6870 O   0  0  0  0  0  0  0  0  0  0  0  0
  1  6  1  0  0  0  0
  1  7  1  0  0  0  0
  2  1  2  0  0  0  0
  3  4  2  0  0  0  0
  3  2  1  0  0  0  0
  4  5  1  0  0  0  0
  5  8  1  0  0  0  0
  5  6  2  0  0  0  0
  9 11  1  0  0  0  0
  9  3  1  0  0  0  0
 10  9  1  0  0  0  0
 12  9  1  0  0  0  0
 13  2  1  0  0  0  0
 13 16  1  0  0  0  0
 14 13  1  0  0  0  0
 15 13  1  0  0  0  0
 16 17  1  0  0  0  0
 18 19  1  0  0  0  0
 18 16  1  0  0  0  0
 18 20  2  0  0  0  0
 21 18  2  0  0  0  0
M  END
>  <minimizedAffinity>
-2.0084784

>  <minimizedRMSD>
1.30580425

$$$$
