
 OpenBabel03252501203D

 21 21  0  0  0  0  0  0  0  0999 V2000
   44.7860   35.2370   45.5490 C   0  0  0  0  0  0  0  0  0  0  0  0
   45.2020   35.5360   44.2500 C   0  0  0  0  0  0  0  0  0  0  0  0
   45.9230   34.5390   43.5770 C   0  0  0  0  0  0  0  0  0  0  0  0
   46.1760   33.3610   44.2070 N   0  0  0  0  0  0  0  0  0  0  0  0
   45.7550   33.1200   45.4590 C   0  0  0  0  0  0  0  0  0  0  0  0
   45.0580   34.0560   46.1360 N   0  0  0  0  0  0  0  0  0  0  0  0
   44.2250   35.9510   46.1380 H   0  0  0  0  0  0  0  0  0  0  0  0
   46.0120   32.1400   45.8710 H   0  0  0  0  0  0  0  0  0  0  0  0
   46.3340   34.8850   42.2150 C   0  0  0  0  0  0  0  0  0  0  0  0
   46.9810   33.7830   41.6600 F   0  0  0  0  0  0  0  0  0  0  0  0
   47.2640   35.8830   42.3220 F   0  0  0  0  0  0  0  0  0  0  0  0
   45.2840   35.1650   41.4000 F   0  0  0  0  0  0  0  0  0  0  0  0
   44.8960   36.8320   43.6450 C   0  0  0  0  0  0  0  0  0  0  0  0
   43.9330   36.7520   43.1400 H   0  0  0  0  0  0  0  0  0  0  0  0
   45.6430   37.2810   43.0130 H   0  0  0  0  0  0  0  0  0  0  0  0
   44.8810   37.8590   44.6940 N   0  0  0  0  0  0  0  0  0  0  0  0
   45.3240   37.5390   45.5570 H   0  0  0  0  0  0  0  0  0  0  0  0
   45.4620   39.3700   44.1290 S   0  0  0  0  0  0  0  0  0  0  0  0
   47.2020   39.5270   44.2400 C   0  0  0  0  0  1  0  0  0  0  0  0
   44.8370   40.4870   44.9360 O   0  0  0  0  0  0  0  0  0  0  0  0
   45.0360   39.5350   42.7190 O   0  0  0  0  0  0  0  0  0  0  0  0
  1  6  1  0  0  0  0
  1  7  1  0  0  0  0
  2  1  2  0  0  0  0
  3  4  2  0  0  0  0
  3  2  1  0  0  0  0
  4  5  1  0  0  0  0
  5  8  1  0  0  0  0
  5  6  2  0  0  0  0
  9 11  1  0  0  0  0
  9  3  1  0  0  0  0
 10  9  1  0  0  0  0
 12  9  1  0  0  0  0
 13  2  1  0  0  0  0
 13 16  1  0  0  0  0
 14 13  1  0  0  0  0
 15 13  1  0  0  0  0
 16 17  1  0  0  0  0
 18 19  1  0  0  0  0
 18 16  1  0  0  0  0
 18 20  2  0  0  0  0
 21 18  2  0  0  0  0
M  END
>  <minimizedAffinity>
-2.01636243

>  <minimizedRMSD>
1.34773755

$$$$
