
 OpenBabel03252501203D

 21 21  0  0  0  0  0  0  0  0999 V2000
   44.8830   35.2050   45.4080 C   0  0  0  0  0  0  0  0  0  0  0  0
   45.3020   35.5190   44.1140 C   0  0  0  0  0  0  0  0  0  0  0  0
   46.0080   34.5210   43.4240 C   0  0  0  0  0  0  0  0  0  0  0  0
   46.2440   33.3300   44.0350 N   0  0  0  0  0  0  0  0  0  0  0  0
   45.8200   33.0760   45.2840 C   0  0  0  0  0  0  0  0  0  0  0  0
   45.1380   34.0110   45.9760 N   0  0  0  0  0  0  0  0  0  0  0  0
   44.3320   35.9180   46.0080 H   0  0  0  0  0  0  0  0  0  0  0  0
   46.0630   32.0860   45.6800 H   0  0  0  0  0  0  0  0  0  0  0  0
   46.4240   34.8830   42.0680 C   0  0  0  0  0  0  0  0  0  0  0  0
   47.0580   33.7820   41.4970 F   0  0  0  0  0  0  0  0  0  0  0  0
   47.3650   35.8690   42.1900 F   0  0  0  0  0  0  0  0  0  0  0  0
   45.3770   35.1880   41.2570 F   0  0  0  0  0  0  0  0  0  0  0  0
   45.0150   36.8280   43.5300 C   0  0  0  0  0  0  0  0  0  0  0  0
   44.0870   36.7520   42.9630 H   0  0  0  0  0  0  0  0  0  0  0  0
   45.7940   37.3060   42.9600 H   0  0  0  0  0  0  0  0  0  0  0  0
   44.9190   37.8220   44.6060 N   0  0  0  0  0  0  0  0  0  0  0  0
   45.3370   37.4920   45.4770 H   0  0  0  0  0  0  0  0  0  0  0  0
   45.4670   39.3690   44.1100 S   0  0  0  0  0  0  0  0  0  0  0  0
   44.8870   40.6680   45.1310 C   0  0  0  0  0  1  0  0  0  0  0  0
   45.0040   39.6420   42.6950 O   0  0  0  0  0  0  0  0  0  0  0  0
   46.9500   39.3600   44.1100 O   0  0  0  0  0  0  0  0  0  0  0  0
  1  6  1  0  0  0  0
  1  7  1  0  0  0  0
  2  1  2  0  0  0  0
  3  4  2  0  0  0  0
  3  2  1  0  0  0  0
  4  5  1  0  0  0  0
  5  8  1  0  0  0  0
  5  6  2  0  0  0  0
  9 11  1  0  0  0  0
  9  3  1  0  0  0  0
 10  9  1  0  0  0  0
 12  9  1  0  0  0  0
 13  2  1  0  0  0  0
 13 16  1  0  0  0  0
 14 13  1  0  0  0  0
 15 13  1  0  0  0  0
 16 17  1  0  0  0  0
 18 16  1  0  0  0  0
 18 19  1  0  0  0  0
 20 18  2  0  0  0  0
 21 18  2  0  0  0  0
M  END
>  <minimizedAffinity>
-2.62102985

>  <minimizedRMSD>
1.32721388

$$$$
