REMARK  Name = 
REMARK  5 active torsions:
REMARK  status: ('A' for Active; 'I' for Inactive)
REMARK    1  A    between atoms: C_2  and  C_11
REMARK    2  A    between atoms: C_3  and  C_7
REMARK    3  A    between atoms: C_11  and  N_12
REMARK    4  A    between atoms: N_12  and  S_18
REMARK    5  A    between atoms: S_18  and  C_19
REMARK                            x       y       z     vdW  Elec       q    Type
REMARK                         _______ _______ _______ _____ _____    ______ ____
ROOT
ATOM      1  C   UNL     1      44.934  34.924  45.036  0.00  0.00    +0.000 A 
ATOM      2  C   UNL     1      45.443  35.179  43.761  0.00  0.00    +0.000 A 
ATOM      3  C   UNL     1      46.525  34.387  43.348  0.00  0.00    +0.000 A 
ATOM      4  N   UNL     1      47.012  33.436  44.188  0.00  0.00    +0.000 NA
ATOM      5  C   UNL     1      46.488  33.229  45.407  0.00  0.00    +0.000 A 
ATOM      6  N   UNL     1      45.447  33.971  45.837  0.00  0.00    +0.000 NA
ATOM      7  H   UNL     1      44.100  35.490  45.431  0.00  0.00    +0.000 HD
ATOM      8  H   UNL     1      46.955  32.439  46.002  0.00  0.00    +0.000 HD
ENDROOT
BRANCH   3   9
ATOM      9  C   UNL     1      47.026  34.677  42.003  0.00  0.00    +0.000 C 
ATOM     10  F   UNL     1      47.966  33.705  41.668  0.00  0.00    +0.000 F 
ATOM     11  F   UNL     1      47.692  35.870  42.076  0.00  0.00    +0.000 F 
ATOM     12  F   UNL     1      46.057  34.619  41.053  0.00  0.00    +0.000 F 
ENDBRANCH   3   9
BRANCH   2  13
ATOM     13  C   UNL     1      44.867  36.227  42.920  0.00  0.00    +0.000 C 
ATOM     14  H   UNL     1      43.828  35.967  42.716  0.00  0.00    +0.000 HD
ATOM     15  H   UNL     1      45.395  36.498  42.021  0.00  0.00    +0.000 HD
BRANCH  13  16
ATOM     16  N   UNL     1      44.983  37.516  43.613  0.00  0.00    +0.000 NA
ATOM     17  H   UNL     1      45.929  37.687  43.958  0.00  0.00    +0.000 HD
BRANCH  16  18
ATOM     18  S   UNL     1      44.330  38.807  42.694  0.00  0.00    +0.000 S 
ATOM     19  C   UNL     1      45.491  39.539  41.607  0.00  0.00    +0.000 C 
ATOM     20  O   UNL     1      43.815  39.884  43.625  0.00  0.00    +0.000 OA
ATOM     21  O   UNL     1      43.178  38.290  41.916  0.00  0.00    +0.000 OA
ENDBRANCH  16  18
ENDBRANCH  13  16
ENDBRANCH   2  13
TORSDOF 4
