
     RDKit          3D

 23 24  0  0  0  0  0  0  0  0999 V2000
   44.3879   35.7699   44.4413 C   0  0  0  0  0  0  0  0  0  0  0  0
   44.6662   35.0639   43.2576 C   0  0  0  0  0  0  0  0  0  0  0  0
   45.2893   33.8319   43.3851 C   0  0  0  0  0  0  0  0  0  0  0  0
   45.5941   33.3776   44.6320 N   0  0  0  0  0  0  0  0  0  0  0  0
   45.3069   34.0923   45.7429 C   0  0  0  0  0  0  0  0  0  0  0  0
   44.6936   35.3124   45.6762 N   0  0  0  0  0  0  0  0  0  0  0  0
   44.2610   35.7182   42.0018 C   0  0  0  0  0  0  0  0  0  0  0  0
   43.9064   36.7294   44.4017 H   0  0  0  0  0  0  0  0  0  0  0  0
   45.4913   33.3146   42.4864 H   0  0  0  0  0  0  0  0  0  0  0  0
   45.5376   33.7559   46.7459 H   0  0  0  0  0  0  0  0  0  0  0  0
   44.9216   35.4572   41.1501 H   0  0  0  0  0  0  0  0  0  0  0  0
   44.3052   36.8197   42.1180 H   0  0  0  0  0  0  0  0  0  0  0  0
   43.2899   33.2948   43.5580 Br  0  0  0  0  0  0  0  0  0  0  0  0
   42.2797   34.2478   42.2444 C   0  0  0  0  0  0  0  0  0  0  0  0
   42.8698   35.3339   41.6250 C   0  0  0  0  0  0  0  0  0  0  0  0
   42.1921   36.0715   40.6609 C   0  0  0  0  0  0  0  0  0  0  0  0
   42.6815   36.9253   40.1870 H   0  0  0  0  0  0  0  0  0  0  0  0
   40.8944   35.6956   40.3244 C   0  0  0  0  0  0  0  0  0  0  0  0
   40.3743   36.2729   39.5749 H   0  0  0  0  0  0  0  0  0  0  0  0
   40.2943   34.6007   40.9460 C   0  0  0  0  0  0  0  0  0  0  0  0
   40.9929   33.8780   41.9081 C   0  0  0  0  0  0  0  0  0  0  0  0
   39.2774   34.3178   40.6724 H   0  0  0  0  0  0  0  0  0  0  0  0
   40.5368   33.0154   42.4064 H   0  0  0  0  0  0  0  0  0  0  0  0
  1  6  2  0
  2  3  2  0
  2  1  1  0
  3  4  1  0
  4  5  2  0
  6  5  1  0
  7  2  1  0
  1  8  1  0
  3  9  1  0
  5 10  1  0
  7 11  1  0
  7 12  1  0
 13 14  1  0
 14 15  2  0
 15 16  1  0
 16 17  1  0
 16 18  2  0
 18 19  1  0
 18 20  1  0
 20 21  2  0
 21 14  1  0
 20 22  1  0
 21 23  1  0
  7 15  1  0
M  ISO  7   8  14   9  14  10  14  11   8  12   8  17  15  19  16
M  END
>  <DihAtoms>  (1) 
1,6,14,13

>  <DihDeg>  (1) 
-179.99855854770811

$$$$
