
 OpenBabel03242522333D

 21 22  0  0  0  0  0  0  0  0999 V2000
   46.9460   32.4750   45.7030 C   0  0  0  0  0  0  0  0  0  0  0  0
   47.9710   32.8820   45.9540 H   0  0  0  0  0  0  0  0  0  0  0  0
   47.1240   31.7380   44.9060 H   0  0  0  0  0  0  0  0  0  0  0  0
   44.5720   35.3360   45.3390 C   0  0  0  0  0  0  0  0  0  0  0  0
   44.8380   35.7640   44.0350 C   0  0  0  0  0  0  0  0  0  0  0  0
   45.8090   35.0780   43.3160 C   0  0  0  0  0  0  0  0  0  0  0  0
   46.4570   34.0310   43.8930 N   0  0  0  0  0  0  0  0  0  0  0  0
   46.1710   33.6370   45.1770 C   0  0  0  0  0  0  0  0  0  0  0  0
   45.2300   34.3070   45.8650 N   0  0  0  0  0  0  0  0  0  0  0  0
   43.8240   35.8170   45.9770 H   0  0  0  0  0  0  0  0  0  0  0  0
   44.2790   36.6050   43.6480 H   0  0  0  0  0  0  0  0  0  0  0  0
   46.0310   35.3900   42.3120 H   0  0  0  0  0  0  0  0  0  0  0  0
   45.4370   29.7590   45.1280 Br  0  0  0  0  0  0  0  0  0  0  0  0
   45.5890   30.6440   46.8330 C   0  0  0  0  0  0  0  0  0  0  0  0
   46.2970   31.8260   46.8440 C   0  0  0  0  0  0  0  0  0  0  0  0
   46.3800   32.4310   48.1030 C   0  0  0  0  0  0  0  0  0  0  0  0
   46.9370   33.3770   48.1680 H   0  0  0  0  0  0  0  0  0  0  0  0
   45.8100   31.9070   49.2440 C   0  0  0  0  0  0  0  0  0  0  0  0
   45.9420   32.4640   50.1630 H   0  0  0  0  0  0  0  0  0  0  0  0
   45.1190   30.7250   49.1500 C   0  0  0  0  0  3  0  0  0  0  0  0
   44.9950   30.0680   47.9350 C   0  0  0  0  0  3  0  0  0  0  0  0
  1  2  1  0  0  0  0
  1 15  1  0  0  0  0
  3  1  1  0  0  0  0
  4  9  1  0  0  0  0
  4 10  1  0  0  0  0
  5  4  2  0  0  0  0
  6  7  2  0  0  0  0
  6  5  1  0  0  0  0
  7  8  1  0  0  0  0
  8  1  1  0  0  0  0
  8  9  2  0  0  0  0
 11  5  1  0  0  0  0
 12  6  1  0  0  0  0
 13 14  1  0  0  0  0
 14 15  2  0  0  0  0
 14 21  1  0  0  0  0
 15 16  1  0  0  0  0
 16 17  1  0  0  0  0
 16 18  2  0  0  0  0
 18 19  1  0  0  0  0
 20 18  1  0  0  0  0
 21 20  2  0  0  0  0
M  END
>  <minimizedAffinity>
-4.75204945

>  <minimizedRMSD>
2.08634973

$$$$
