
 OpenBabel03252508033D

 42 45  0  0  1  0  0  0  0  0999 V2000
   42.0960   33.2460   41.1560 C   0  0  0  0  0  0  0  0  0  0  0  0
   42.8220   34.3900   41.3290 C   0  0  0  0  0  0  0  0  0  0  0  0
   42.1350   35.6190   41.2690 C   0  0  0  0  0  0  0  0  0  0  0  0
   40.7820   35.7210   41.0490 C   0  0  0  0  0  0  0  0  0  0  0  0
   40.0610   34.5670   40.8780 C   0  0  0  0  0  0  0  0  0  0  0  0
   40.7210   33.3750   40.9350 C   0  0  0  0  0  0  0  0  0  0  0  0
   42.6260   36.5780   41.3850 H   0  0  0  0  0  0  0  0  0  0  0  0
   40.2710   36.6630   41.0060 H   0  0  0  0  0  0  0  0  0  0  0  0
   38.9970   34.5470   40.7010 H   0  0  0  0  0  0  0  0  0  0  0  0
   40.1370   32.4510   40.7970 H   0  0  0  0  0  0  0  0  0  0  0  0
   42.7740   31.7110   41.2930 S   0  0  0  0  0  0  0  0  0  0  0  0
   41.9220   30.9330   40.2400 O   0  0  0  0  0  0  0  0  0  0  0  0
   42.5220   31.0800   42.6120 O   0  0  0  0  0  0  0  0  0  0  0  0
   44.4080   29.9140   43.2610 Br  0  0  0  0  0  0  0  0  0  0  0  0
   44.8910   30.1890   41.4090 C   0  0  0  0  0  0  0  0  0  0  0  0
   44.1340   31.0440   40.5590 C   0  0  0  0  0  0  0  0  0  0  0  0
   44.6890   31.0640   39.2850 C   0  0  0  0  0  0  0  0  0  0  0  0
   44.0550   31.6930   38.6310 H   0  0  0  0  0  0  0  0  0  0  0  0
   45.7830   30.4420   38.7340 C   0  0  0  0  0  0  0  0  0  0  0  0
   46.0290   30.6060   37.7180 H   0  0  0  0  0  0  0  0  0  0  0  0
   46.3730   29.6730   39.6960 C   0  0  0  0  0  3  0  0  0  0  0  0
   46.0060   29.4990   41.0020 C   0  0  0  0  0  3  0  0  0  0  0  0
   44.2530   34.3930   41.5670 C   0  0  0  0  0  0  0  0  0  0  0  0
   45.1340   34.3370   40.6570 O   0  0  0  0  0  0  0  0  0  0  0  0
   44.5940   34.4690   42.9680 C   0  0  0  0  0  0  0  0  0  0  0  0
   44.3050   35.7230   43.6090 C   0  0  0  0  0  0  0  0  0  0  0  0
   44.6210   35.8190   44.9520 C   0  0  0  0  0  0  0  0  0  0  0  0
   45.1730   34.7430   45.5680 N   0  0  0  0  0  0  0  0  0  0  0  0
   45.4290   33.5670   44.9100 C   0  0  0  0  0  0  0  0  0  0  0  0
   45.1390   33.4690   43.6590 N   0  0  0  0  0  0  0  0  0  0  0  0
   43.8810   36.5980   43.2000 H   0  0  0  0  0  0  0  0  0  0  0  0
   44.4570   36.7010   45.5520 H   0  0  0  0  0  0  0  0  0  0  0  0
   46.0220   32.4470   45.6650 C   0  0  1  0  0  0  0  0  0  0  0  0
   46.9720   32.7490   46.8040 C   0  0  0  0  0  0  0  0  0  0  0  0
   45.5570   32.3260   47.0660 C   0  0  1  0  0  0  0  0  0  0  0  0
   46.1550   31.5040   45.1100 H   0  0  0  0  0  0  0  0  0  0  0  0
   47.2730   33.8060   46.8850 H   0  0  0  0  0  0  0  0  0  0  0  0
   47.7290   31.9530   46.9850 H   0  0  0  0  0  0  0  0  0  0  0  0
   45.3610   31.3270   47.4840 H   0  0  0  0  0  0  0  0  0  0  0  0
   44.7660   33.3870   47.6680 N   0  0  0  0  0  0  0  0  0  0  0  0
   45.2120   33.7910   48.4990 H   0  0  0  0  0  0  0  0  0  0  0  0
   43.7730   33.0940   47.7950 H   0  0  0  0  0  0  0  0  0  0  0  0
  1 11  1  0  0  0  0
  1  2  1  0  0  0  0
  2 23  1  0  0  0  0
  3  2  2  0  0  0  0
  3  7  1  0  0  0  0
  4  3  1  0  0  0  0
  5  6  1  0  0  0  0
  5  4  2  0  0  0  0
  6  1  2  0  0  0  0
  8  4  1  0  0  0  0
  9  5  1  0  0  0  0
 10  6  1  0  0  0  0
 11 13  2  0  0  0  0
 12 11  2  0  0  0  0
 15 14  1  0  0  0  0
 16 11  1  0  0  0  0
 16 15  2  0  0  0  0
 17 16  1  0  0  0  0
 18 17  1  0  0  0  0
 19 17  2  0  0  0  0
 19 21  1  0  0  0  0
 20 19  1  0  0  0  0
 21 22  2  0  0  0  0
 22 15  1  0  0  0  0
 23 25  1  0  0  0  0
 24 23  2  0  0  0  0
 25 26  2  0  0  0  0
 25 30  1  0  0  0  0
 26 27  1  0  0  0  0
 27 32  1  0  0  0  0
 27 28  2  0  0  0  0
 29 28  1  0  0  0  0
 29 33  1  0  0  0  0
 30 29  2  0  0  0  0
 31 26  1  0  0  0  0
 33 36  1  6  0  0  0
 33 34  1  0  0  0  0
 33 35  1  0  0  0  0
 34 37  1  0  0  0  0
 34 38  1  0  0  0  0
 34 35  1  0  0  0  0
 35 39  1  1  0  0  0
 35 40  1  0  0  0  0
 40 42  1  0  0  0  0
 40 41  1  0  0  0  0
M  END
>  <minimizedAffinity>
-5.7696228

>  <minimizedRMSD>
0.97292316

$$$$
