
 OpenBabel03242512173D

 33 35  0  0  0  0  0  0  0  0999 V2000
   48.3830   32.9610   41.5030 C   0  0  0  0  0  0  0  0  0  0  0  0
   48.0860   34.2580   41.8480 C   0  0  0  0  0  0  0  0  0  0  0  0
   49.0820   35.0440   42.3900 C   0  0  0  0  0  0  0  0  0  0  0  0
   50.3460   34.5160   42.5740 C   0  0  0  0  0  0  0  0  0  0  0  0
   50.6010   33.2110   42.2150 C   0  0  0  0  0  0  0  0  0  0  0  0
   49.6150   32.3940   41.6650 C   0  0  0  0  0  0  0  0  0  0  0  0
   48.8220   36.0410   42.6460 H   0  0  0  0  0  0  0  0  0  0  0  0
   51.0920   35.1660   43.0010 H   0  0  0  0  0  0  0  0  0  0  0  0
   51.6150   32.8760   42.3920 H   0  0  0  0  0  0  0  0  0  0  0  0
   46.6960   34.7010   41.6010 C   0  0  0  0  0  0  0  0  0  0  0  0
   46.1620   34.0600   40.9220 H   0  0  0  0  0  0  0  0  0  0  0  0
   46.7560   35.7070   41.1020 H   0  0  0  0  0  0  0  0  0  0  0  0
   45.9880   34.9050   42.9290 C   0  0  0  0  0  0  0  0  0  0  0  0
   46.0800   33.8890   43.8630 C   0  0  0  0  0  0  0  0  0  0  0  0
   45.4340   34.0870   45.0820 C   0  0  0  0  0  0  0  0  0  0  0  0
   44.7680   35.2340   45.2770 N   0  0  0  0  0  0  0  0  0  0  0  0
   44.6950   36.2130   44.3400 C   0  0  0  0  0  0  0  0  0  0  0  0
   45.3060   36.0480   43.1630 N   0  0  0  0  0  0  0  0  0  0  0  0
   46.6340   32.9880   43.6400 H   0  0  0  0  0  0  0  0  0  0  0  0
   45.5060   33.2980   45.8070 H   0  0  0  0  0  0  0  0  0  0  0  0
   44.1300   37.0940   44.6100 H   0  0  0  0  0  0  0  0  0  0  0  0
   47.4320   32.0760   40.9400 O   0  0  0  0  0  0  0  0  0  0  0  0
   46.7490   31.6080   41.5210 H   0  0  0  0  0  0  0  0  0  0  0  0
   49.9620   31.0890   41.3320 O   0  0  0  0  0  0  0  0  0  0  0  0
   48.3660   28.8360   39.8790 Br  0  0  0  0  0  0  0  0  0  0  0  0
   49.7560   29.9140   39.1770 C   0  0  0  0  0  0  0  0  0  0  0  0
   50.3220   30.8560   40.0110 C   0  0  0  0  0  0  0  0  0  0  0  0
   51.3370   31.6150   39.4350 C   0  0  0  0  0  0  0  0  0  0  0  0
   51.8060   32.3700   40.0660 H   0  0  0  0  0  0  0  0  0  0  0  0
   51.8100   31.5060   38.1370 C   0  0  0  0  0  0  0  0  0  0  0  0
   52.6080   32.1610   37.8130 H   0  0  0  0  0  0  0  0  0  0  0  0
   51.1950   30.5350   37.3480 C   0  0  0  0  0  3  0  0  0  0  0  0
   50.1740   29.7460   37.8720 C   0  0  0  0  0  3  0  0  0  0  0  0
  1  6  2  0  0  0  0
  1  2  1  0  0  0  0
  2  3  2  0  0  0  0
  3  4  1  0  0  0  0
  3  7  1  0  0  0  0
  4  8  1  0  0  0  0
  5  9  1  0  0  0  0
  5  4  2  0  0  0  0
  6  5  1  0  0  0  0
 10  2  1  0  0  0  0
 10 13  1  0  0  0  0
 11 10  1  0  0  0  0
 12 10  1  0  0  0  0
 13 18  2  0  0  0  0
 13 14  1  0  0  0  0
 14 15  2  0  0  0  0
 15 16  1  0  0  0  0
 15 20  1  0  0  0  0
 17 21  1  0  0  0  0
 17 16  2  0  0  0  0
 18 17  1  0  0  0  0
 19 14  1  0  0  0  0
 22  1  1  0  0  0  0
 22 23  1  0  0  0  0
 24  6  1  0  0  0  0
 26 25  1  0  0  0  0
 26 27  1  0  0  0  0
 27 24  1  0  0  0  0
 28 27  2  0  0  0  0
 28 29  1  0  0  0  0
 30 28  1  0  0  0  0
 31 30  1  0  0  0  0
 32 33  1  0  0  0  0
 32 30  2  0  0  0  0
 33 26  2  0  0  0  0
M  END
>  <minimizedAffinity>
-4.99459696

>  <minimizedRMSD>
0.65114671

$$$$
