REMARK  Name = 
REMARK  2 active torsions:
REMARK  status: ('A' for Active; 'I' for Inactive)
REMARK    1  A    between atoms: C_5  and  C_7
REMARK    2  A    between atoms: N_10  and  C_19
REMARK                            x       y       z     vdW  Elec       q    Type
REMARK                         _______ _______ _______ _____ _____    ______ ____
ROOT
ATOM      1  C   UNL     1      45.729  33.301  46.746  0.00  0.00    +0.000 A 
ATOM      2  C   UNL     1      46.863  32.550  47.076  0.00  0.00    +0.000 A 
ATOM      3  C   UNL     1      46.626  31.951  48.273  0.00  0.00    +0.000 A 
ATOM      4  N   UNL     1      45.397  32.316  48.668  0.00  0.00    +0.000 N 
ATOM      5  N   UNL     1      44.857  33.133  47.742  0.00  0.00    +0.000 NA
ATOM      6  H   UNL     1      47.763  32.465  46.481  0.00  0.00    +0.000 HD
ATOM      7  H   UNL     1      47.238  31.299  48.865  0.00  0.00    +0.000 HD
ENDROOT
BRANCH   1  12
ATOM      8  C   UNL     1      44.556  35.877  44.407  0.00  0.00    +0.000 A 
ATOM      9  C   UNL     1      45.296  35.599  43.247  0.00  0.00    +0.000 A 
ATOM     10  C   UNL     1      46.199  34.517  43.286  0.00  0.00    +0.000 A 
ATOM     11  N   UNL     1      46.311  33.798  44.437  0.00  0.00    +0.000 NA
ATOM     12  C   UNL     1      45.579  34.096  45.534  0.00  0.00    +0.000 A 
ATOM     13  N   UNL     1      44.701  35.132  45.530  0.00  0.00    +0.000 NA
ATOM     14  H   UNL     1      43.844  36.679  44.475  0.00  0.00    +0.000 HD
ATOM     15  H   UNL     1      45.153  36.212  42.380  0.00  0.00    +0.000 HD
ATOM     16  H   UNL     1      46.778  34.288  42.403  0.00  0.00    +0.000 HD
ENDBRANCH   1  12
BRANCH   4  19
ATOM     17 BR   UNL     1      42.411  31.873  48.111  0.00  0.00    +0.000 Br
ATOM     18  C   UNL     1      43.305  31.739  49.805  0.00  0.00    +0.000 A 
ATOM     19  C   UNL     1      44.664  31.980  49.833  0.00  0.00    +0.000 A 
ATOM     20  C   UNL     1      45.309  31.885  51.046  0.00  0.00    +0.000 A 
ATOM     21  H   UNL     1      46.373  32.061  51.142  0.00  0.00    +0.000 HD
ATOM     22  C   UNL     1      44.586  31.556  52.179  0.00  0.00    +0.000 A 
ATOM     23  H   UNL     1      45.099  31.483  53.133  0.00  0.00    +0.000 HD
ATOM     24  C   UNL     1      43.233  31.312  52.173  0.00  0.00    +0.000 A 
ATOM     25  C   UNL     1      42.604  31.414  50.939  0.00  0.00    +0.000 A 
ENDBRANCH   4  19
TORSDOF 2
