
 OpenBabel03252509273D

 30 32  0  0  1  0  0  0  0  0999 V2000
   46.4630   34.9890   41.9680 C   0  0  1  0  0  0  0  0  0  0  0  0
   47.9860   35.2870   41.9660 C   0  0  0  0  0  0  0  0  0  0  0  0
   47.3040   33.9990   41.4360 C   0  0  2  0  0  0  0  0  0  0  0  0
   45.8730   35.6950   41.3460 H   0  0  0  0  0  0  0  0  0  0  0  0
   48.2900   36.0220   41.1950 H   0  0  0  0  0  0  0  0  0  0  0  0
   48.5400   35.2230   42.9100 H   0  0  0  0  0  0  0  0  0  0  0  0
   47.6120   33.0920   42.0450 H   0  0  0  0  0  0  0  0  0  0  0  0
   44.6060   35.5500   45.1800 C   0  0  0  0  0  0  0  0  0  0  0  0
   45.0820   35.7940   43.8600 C   0  0  0  0  0  0  0  0  0  0  0  0
   45.9510   34.8690   43.3850 C   0  0  0  0  0  0  0  0  0  0  0  0
   46.3490   33.7670   44.1320 N   0  0  0  0  0  0  0  0  0  0  0  0
   45.8600   33.5920   45.3840 C   0  0  0  0  0  0  0  0  0  0  0  0
   44.9840   34.4940   45.9010 N   0  0  0  0  0  0  0  0  0  0  0  0
   43.9080   36.2590   45.6070 H   0  0  0  0  0  0  0  0  0  0  0  0
   46.2650   32.6930   45.8280 H   0  0  0  0  0  0  0  0  0  0  0  0
   44.7110   36.9260   43.1120 N   0  0  0  0  0  0  0  0  0  0  0  0
   44.0560   36.6210   42.3650 H   0  0  0  0  0  0  0  0  0  0  0  0
   45.0880   37.8870   43.3480 H   0  0  0  0  0  0  0  0  0  0  0  0
   47.3560   33.7020   39.9550 C   0  0  0  0  0  0  0  0  0  0  0  0
   46.3710   33.3260   39.5840 H   0  0  0  0  0  0  0  0  0  0  0  0
   47.5710   34.6440   39.4270 H   0  0  0  0  0  0  0  0  0  0  0  0
   48.2640   34.0550   37.0610 Br  0  0  0  0  0  0  0  0  0  0  0  0
   48.9320   32.8260   38.3490 C   0  0  0  0  0  0  0  0  0  0  0  0
   48.4380   32.7540   39.6490 C   0  0  0  0  0  0  0  0  0  0  0  0
   48.9740   31.8400   40.5220 C   0  0  0  0  0  0  0  0  0  0  0  0
   48.5330   31.8480   41.5160 H   0  0  0  0  0  0  0  0  0  0  0  0
   49.9880   30.9580   40.2170 C   0  0  0  0  0  0  0  0  0  0  0  0
   50.3800   30.2600   40.9180 H   0  0  0  0  0  0  0  0  0  0  0  0
   50.4640   31.0490   38.9110 C   0  0  0  0  0  3  0  0  0  0  0  0
   49.9580   31.9500   38.0050 C   0  0  0  0  0  3  0  0  0  0  0  0
  1  4  1  6  0  0  0
  1 10  1  0  0  0  0
  2  1  1  0  0  0  0
  2  6  1  0  0  0  0
  3  2  1  0  0  0  0
  3  1  1  0  0  0  0
  3  7  1  1  0  0  0
  5  2  1  0  0  0  0
  8 14  1  0  0  0  0
  8 13  1  0  0  0  0
  9  8  2  0  0  0  0
 10  9  1  0  0  0  0
 10 11  2  0  0  0  0
 11 12  1  0  0  0  0
 12 15  1  0  0  0  0
 12 13  2  0  0  0  0
 16 18  1  0  0  0  0
 16  9  1  0  0  0  0
 17 16  1  0  0  0  0
 19  3  1  0  0  0  0
 20 19  1  0  0  0  0
 21 19  1  0  0  0  0
 22 23  1  0  0  0  0
 23 24  1  0  0  0  0
 24 19  1  0  0  0  0
 24 25  2  0  0  0  0
 25 26  1  0  0  0  0
 27 25  1  0  0  0  0
 27 28  1  0  0  0  0
 29 27  2  0  0  0  0
 30 23  2  0  0  0  0
 30 29  1  0  0  0  0
M  END
>  <minimizedAffinity>
-5.07417583

>  <minimizedRMSD>
0.486324251

$$$$
