REMARK  Name = 
REMARK  4 active torsions:
REMARK  status: ('A' for Active; 'I' for Inactive)
REMARK    1  A    between atoms: S_1  and  C_2
REMARK    2  A    between atoms: S_1  and  C_12
REMARK    3  A    between atoms: C_12  and  C_17
REMARK    4  A    between atoms: C_15  and  C_31
REMARK                            x       y       z     vdW  Elec       q    Type
REMARK                         _______ _______ _______ _____ _____    ______ ____
ROOT
ATOM      1  C   UNL     1      45.597  33.107  46.634  0.00  0.00    +0.000 C 
ATOM      2  H   UNL     1      44.563  32.714  46.866  0.00  0.00    +0.000 HD
ATOM      3  H   UNL     1      45.989  33.584  47.542  0.00  0.00    +0.000 HD
ENDROOT
BRANCH   1   8
ATOM      4  C   UNL     1      44.608  35.995  44.493  0.00  0.00    +0.000 A 
ATOM      5  C   UNL     1      45.366  35.728  43.362  0.00  0.00    +0.000 A 
ATOM      6  C   UNL     1      46.192  34.610  43.306  0.00  0.00    +0.000 A 
ATOM      7  N   UNL     1      46.218  33.796  44.416  0.00  0.00    +0.000 NA
ATOM      8  C   UNL     1      45.472  34.072  45.513  0.00  0.00    +0.000 A 
ATOM      9  N   UNL     1      44.694  35.157  45.516  0.00  0.00    +0.000 NA
ATOM     10  H   UNL     1      43.976  36.878  44.497  0.00  0.00    +0.000 HD
ATOM     11  H   UNL     1      45.331  36.393  42.540  0.00  0.00    +0.000 HD
BRANCH   6  14
ATOM     12 BR   UNL     1      48.071  31.977  43.619  0.00  0.00    +0.000 Br
ATOM     13  C   UNL     1      47.921  33.138  42.142  0.00  0.00    +0.000 A 
ATOM     14  C   UNL     1      47.060  34.198  42.242  0.00  0.00    +0.000 A 
ATOM     15  C   UNL     1      47.095  34.987  41.091  0.00  0.00    +0.000 A 
ATOM     16  H   UNL     1      46.481  35.891  40.958  0.00  0.00    +0.000 HD
ATOM     17  C   UNL     1      47.888  34.734  39.996  0.00  0.00    +0.000 A 
ATOM     18  H   UNL     1      47.886  35.365  39.123  0.00  0.00    +0.000 HD
ATOM     19  C   UNL     1      48.724  33.643  39.980  0.00  0.00    +0.000 A 
ATOM     20  C   UNL     1      48.733  32.838  41.078  0.00  0.00    +0.000 A 
ENDBRANCH   6  14
ENDBRANCH   1   8
BRANCH   1  21
ATOM     21  S   UNL     1      46.545  31.688  46.058  0.00  0.00    +0.000 S 
BRANCH  21  22
ATOM     22  C   UNL     1      47.600  31.058  47.342  0.00  0.00    +0.000 A 
ATOM     23  C   UNL     1      47.934  31.915  48.362  0.00  0.00    +0.000 A 
ATOM     24  C   UNL     1      48.750  31.441  49.366  0.00  0.00    +0.000 A 
ATOM     25  C   UNL     1      49.239  30.148  49.383  0.00  0.00    +0.000 A 
ATOM     26  N   UNL     1      50.032  29.708  50.367  0.00  0.00    +0.000 NA
ATOM     27  C   UNL     1      50.514  28.452  50.390  0.00  0.00    +0.000 A 
ATOM     28  C   UNL     1      50.177  27.595  49.365  0.00  0.00    +0.000 A 
ATOM     29  C   UNL     1      49.356  28.027  48.333  0.00  0.00    +0.000 A 
ATOM     30  C   UNL     1      48.857  29.337  48.315  0.00  0.00    +0.000 A 
ATOM     31  C   UNL     1      48.043  29.758  47.284  0.00  0.00    +0.000 A 
ATOM     32  H   UNL     1      47.644  32.942  48.498  0.00  0.00    +0.000 HD
ATOM     33  H   UNL     1      49.065  32.052  50.212  0.00  0.00    +0.000 HD
ATOM     34  H   UNL     1      51.136  28.265  51.254  0.00  0.00    +0.000 HD
ATOM     35  H   UNL     1      50.597  26.613  49.450  0.00  0.00    +0.000 HD
ATOM     36  H   UNL     1      49.117  27.321  47.550  0.00  0.00    +0.000 HD
ATOM     37  H   UNL     1      47.782  29.097  46.492  0.00  0.00    +0.000 HD
ENDBRANCH  21  22
ENDBRANCH   1  21
TORSDOF 4
