REMARK  Name = 
REMARK  2 active torsions:
REMARK  status: ('A' for Active; 'I' for Inactive)
REMARK    1  A    between atoms: C_2  and  C_7
REMARK    2  A    between atoms: C_7  and  C_15
REMARK                            x       y       z     vdW  Elec       q    Type
REMARK                         _______ _______ _______ _____ _____    ______ ____
ROOT
ATOM      1  C   UNL     1      44.261  35.718  42.002  0.00  0.00    +0.000 C 
ATOM      2  H   UNL     1      44.922  35.457  41.150  0.00  0.00    +0.000 HD
ATOM      3  H   UNL     1      44.305  36.820  42.118  0.00  0.00    +0.000 HD
ENDROOT
BRANCH   1   5
ATOM      4  C   UNL     1      44.388  35.770  44.441  0.00  0.00    +0.000 A 
ATOM      5  C   UNL     1      44.666  35.064  43.258  0.00  0.00    +0.000 A 
ATOM      6  C   UNL     1      45.289  33.832  43.385  0.00  0.00    +0.000 A 
ATOM      7  N   UNL     1      45.594  33.378  44.632  0.00  0.00    +0.000 NA
ATOM      8  C   UNL     1      45.307  34.092  45.743  0.00  0.00    +0.000 A 
ATOM      9  N   UNL     1      44.694  35.312  45.676  0.00  0.00    +0.000 NA
ATOM     10  H   UNL     1      43.906  36.729  44.402  0.00  0.00    +0.000 HD
ATOM     11  H   UNL     1      45.491  33.315  42.486  0.00  0.00    +0.000 HD
ATOM     12  H   UNL     1      45.538  33.756  46.746  0.00  0.00    +0.000 HD
ENDBRANCH   1   5
BRANCH   1  15
ATOM     13 BR   UNL     1      43.290  33.295  43.558  0.00  0.00    +0.000 Br
ATOM     14  C   UNL     1      42.280  34.248  42.244  0.00  0.00    +0.000 A 
ATOM     15  C   UNL     1      42.870  35.334  41.625  0.00  0.00    +0.000 A 
ATOM     16  C   UNL     1      42.192  36.072  40.661  0.00  0.00    +0.000 A 
ATOM     17  H   UNL     1      42.681  36.925  40.187  0.00  0.00    +0.000 HD
ATOM     18  C   UNL     1      40.894  35.696  40.324  0.00  0.00    +0.000 A 
ATOM     19  H   UNL     1      40.374  36.273  39.575  0.00  0.00    +0.000 HD
ATOM     20  C   UNL     1      40.294  34.601  40.946  0.00  0.00    +0.000 A 
ATOM     21  C   UNL     1      40.993  33.878  41.908  0.00  0.00    +0.000 A 
ENDBRANCH   1  15
TORSDOF 2
