
     RDKit          3D

 42 45  0  0  0  0  0  0  0  0999 V2000
   46.4466   33.8621   43.2453 C   0  0  0  0  0  0  0  0  0  0  0  0
   45.7453   34.8512   42.4295 C   0  0  0  0  0  0  0  0  0  0  0  0
   45.3259   36.0708   43.1658 C   0  0  0  0  0  0  0  0  0  0  0  0
   44.5505   35.7702   44.4435 C   0  0  0  0  0  0  0  0  0  0  0  0
   44.9881   34.5292   45.1562 C   0  0  0  0  0  0  0  0  0  0  0  0
   46.4019   34.1587   44.7543 C   0  0  0  0  0  0  0  0  0  0  0  0
   47.8648   33.6958   42.8993 C   0  0  0  0  0  0  0  0  0  0  0  0
   48.5879   34.9027   42.7269 C   0  0  0  0  0  0  0  0  0  0  0  0
   49.9506   34.8672   42.4000 C   0  0  0  0  0  0  0  0  0  0  0  0
   50.5064   33.6202   42.2657 N   0  0  0  0  0  0  0  0  0  0  0  0
   49.7808   32.4709   42.4389 C   0  0  0  0  0  0  0  0  0  0  0  0
   48.4928   32.5304   42.7477 N   0  0  0  0  0  0  0  0  0  0  0  0
   50.5270   31.2353   42.2646 C   0  0  0  0  0  0  0  0  0  0  0  0
   51.5716   31.2565   41.3907 N   0  0  0  0  0  0  0  0  0  0  0  0
   52.1388   30.0275   41.3652 C   0  0  0  0  0  0  0  0  0  0  0  0
   51.4296   29.2379   42.2391 N   0  0  0  0  0  0  0  0  0  0  0  0
   50.4611   29.9835   42.7722 N   0  0  0  0  0  0  0  0  0  0  0  0
   45.9503   32.8504   43.1646 H   0  0  0  0  0  0  0  0  0  0  0  0
   46.4054   35.1783   41.6057 H   0  0  0  0  0  0  0  0  0  0  0  0
   44.8573   34.3991   41.9222 H   0  0  0  0  0  0  0  0  0  0  0  0
   44.5550   36.5724   42.5069 H   0  0  0  0  0  0  0  0  0  0  0  0
   46.0805   36.8380   43.3342 H   0  0  0  0  0  0  0  0  0  0  0  0
   44.7449   36.6187   45.1467 H   0  0  0  0  0  0  0  0  0  0  0  0
   43.4592   35.7376   44.2923 H   0  0  0  0  0  0  0  0  0  0  0  0
   44.3326   33.6999   44.8118 H   0  0  0  0  0  0  0  0  0  0  0  0
   44.9283   34.5908   46.2437 H   0  0  0  0  0  0  0  0  0  0  0  0
   46.6833   33.2139   45.2661 H   0  0  0  0  0  0  0  0  0  0  0  0
   47.1354   34.9271   45.0446 H   0  0  0  0  0  0  0  0  0  0  0  0
   48.2258   35.9174   42.8147 H   0  0  0  0  0  0  0  0  0  0  0  0
   50.5525   35.7279   42.2562 H   0  0  0  0  0  0  0  0  0  0  0  0
   52.9841   29.6640   40.7960 H   0  0  0  0  0  0  0  0  0  0  0  0
   51.4581   27.2243   39.8403 Br  0  0  0  0  0  0  0  0  0  0  0  0
   51.6436   26.8221   41.6946 C   0  0  0  0  0  0  0  0  0  0  0  0
   51.6017   27.8702   42.5914 C   0  0  0  0  0  0  0  0  0  0  0  0
   51.7406   27.5442   43.9456 C   0  0  0  0  0  0  0  0  0  0  0  0
   51.7217   28.2959   44.7336 H   0  0  0  0  0  0  0  0  0  0  0  0
   51.9097   26.2086   44.3042 C   0  0  0  0  0  0  0  0  0  0  0  0
   52.0190   25.9413   45.3545 H   0  0  0  0  0  0  0  0  0  0  0  0
   51.9479   25.1921   43.4019 C   0  0  0  0  0  0  0  0  0  0  0  0
   51.8117   25.5124   42.0742 C   0  0  0  0  0  0  0  0  0  0  0  0
   52.0811   24.1649   43.7177 H   0  0  0  0  0  0  0  0  0  0  0  0
   51.8349   24.7344   41.3069 H   0  0  0  0  0  0  0  0  0  0  0  0
  1  6  1  0
  2  3  1  0
  2  1  1  0
  3  4  1  0
  4  5  1  0
  6  5  1  0
  7  1  1  0
  8  7  2  0
  9  8  1  0
 10  9  2  0
 10 11  1  0
 11 12  2  0
 12  7  1  0
 13 11  1  0
 13 17  2  0
 14 13  1  0
 15 14  2  0
 15 16  1  0
 16 17  1  0
  1 18  1  0
  2 19  1  0
  2 20  1  0
  3 21  1  0
  3 22  1  0
  4 23  1  0
  4 24  1  0
  5 25  1  0
  5 26  1  0
  6 27  1  0
  6 28  1  0
  8 29  1  0
  9 30  1  0
 15 31  1  0
 32 33  1  0
 33 34  2  0
 34 35  1  0
 35 36  1  0
 35 37  2  0
 37 38  1  0
 37 39  1  0
 39 40  2  0
 40 33  1  0
 39 41  1  0
 40 42  1  0
 16 34  1  0
M  ISO  8  18  13  19  13  20  13  21  13  22  13  23  13  24  13  25  13
M  ISO  8  26  13  27  13  28  13  29  14  30  14  31  14  36  15  38  16
M  END
>  <DihAtoms>  (1) 
14,15,33,32

>  <DihDeg>  (1) 
-39.463987245444976

$$$$
