
 OpenBabel03252505403D

 28 30  0  0  1  0  0  0  0  0999 V2000
   37.7430   28.6050   41.6770 C   0  0  1  0  0  0  0  0  0  0  0  0
   36.4780   28.1620   42.4300 C   0  0  0  0  0  0  0  0  0  0  0  0
   37.1950   27.2550   41.4980 C   0  0  2  0  0  0  0  0  0  0  0  0
   38.6360   28.8000   42.2790 H   0  0  0  0  0  0  0  0  0  0  0  0
   36.6340   28.1630   43.5060 H   0  0  0  0  0  0  0  0  0  0  0  0
   35.5240   28.6440   42.1300 H   0  0  0  0  0  0  0  0  0  0  0  0
   36.5780   27.0350   40.5700 H   0  0  0  0  0  0  0  0  0  0  0  0
   36.6670   24.1770   40.6830 Br  0  0  0  0  0  0  0  0  0  0  0  0
   38.0280   24.7790   41.8360 C   0  0  0  0  0  0  0  0  0  0  0  0
   38.0390   26.1430   42.0000 C   0  0  0  0  0  0  0  0  0  0  0  0
   39.0260   26.6940   42.8290 C   0  0  0  0  0  0  0  0  0  0  0  0
   39.2130   27.7380   43.0930 H   0  0  0  0  0  0  0  0  0  0  0  0
   39.9690   25.8770   43.4680 C   0  0  0  0  0  0  0  0  0  0  0  0
   40.7560   26.2240   44.1170 H   0  0  0  0  0  0  0  0  0  0  0  0
   39.9400   24.5110   43.2910 C   0  0  0  0  0  3  0  0  0  0  0  0
   38.9570   23.9990   42.4690 C   0  0  0  0  0  3  0  0  0  0  0  0
   37.5050   29.6830   40.6670 C   0  0  0  0  0  0  0  0  0  0  0  0
   36.7530   29.3750   39.5040 C   0  0  0  0  0  0  0  0  0  0  0  0
   36.5470   30.4020   38.5940 C   0  0  0  0  0  0  0  0  0  0  0  0
   37.0670   31.6220   38.8660 N   0  0  0  0  0  0  0  0  0  0  0  0
   37.7800   31.8740   39.9910 C   0  0  0  0  0  0  0  0  0  0  0  0
   37.9980   30.8900   40.9000 N   0  0  0  0  0  0  0  0  0  0  0  0
   36.3570   28.3970   39.3240 H   0  0  0  0  0  0  0  0  0  0  0  0
   35.9940   30.2760   37.6840 H   0  0  0  0  0  0  0  0  0  0  0  0
   38.2600   33.2910   40.0970 C   0  0  0  0  0  0  0  0  0  0  0  0
   38.6230   33.6090   41.3790 F   0  0  0  0  0  0  0  0  0  0  0  0
   37.2460   34.1610   39.6950 F   0  0  0  0  0  0  0  0  0  0  0  0
   39.2920   33.4800   39.1860 F   0  0  0  0  0  0  0  0  0  0  0  0
  1  4  1  1  0  0  0
  1  2  1  0  0  0  0
  2  5  1  0  0  0  0
  3  7  1  6  0  0  0
  3  1  1  0  0  0  0
  3 10  1  0  0  0  0
  3  2  1  0  0  0  0
  6  2  1  0  0  0  0
  8  9  1  0  0  0  0
  9 10  2  0  0  0  0
  9 16  1  0  0  0  0
 10 11  1  0  0  0  0
 11 12  1  0  0  0  0
 11 13  2  0  0  0  0
 13 14  1  0  0  0  0
 15 13  1  0  0  0  0
 16 15  2  0  0  0  0
 17 22  1  0  0  0  0
 17  1  1  0  0  0  0
 18 17  2  0  0  0  0
 19 20  2  0  0  0  0
 19 18  1  0  0  0  0
 20 21  1  0  0  0  0
 21 25  1  0  0  0  0
 21 22  2  0  0  0  0
 23 18  1  0  0  0  0
 24 19  1  0  0  0  0
 25 26  1  0  0  0  0
 27 25  1  0  0  0  0
 28 25  1  0  0  0  0
M  END
>  <minimizedAffinity>
-5.47672415

$$$$

 OpenBabel03252505403D

 28 30  0  0  1  0  0  0  0  0999 V2000
   39.1140   29.0780   42.2950 C   0  0  1  0  0  0  0  0  0  0  0  0
   37.9510   28.9610   43.2940 C   0  0  0  0  0  0  0  0  0  0  0  0
   38.0680   28.0640   42.1170 C   0  0  2  0  0  0  0  0  0  0  0  0
   40.1130   28.8300   42.6660 H   0  0  0  0  0  0  0  0  0  0  0  0
   38.3050   28.6970   44.2880 H   0  0  0  0  0  0  0  0  0  0  0  0
   37.2140   29.7920   43.3030 H   0  0  0  0  0  0  0  0  0  0  0  0
   37.2440   28.2580   41.3590 H   0  0  0  0  0  0  0  0  0  0  0  0
   36.9140   25.6970   40.2510 Br  0  0  0  0  0  0  0  0  0  0  0  0
   38.1710   25.4770   41.6350 C   0  0  0  0  0  0  0  0  0  0  0  0
   38.5030   26.6540   42.2610 C   0  0  0  0  0  0  0  0  0  0  0  0
   39.4460   26.6000   43.2980 C   0  0  0  0  0  0  0  0  0  0  0  0
   39.8460   27.4040   43.9190 H   0  0  0  0  0  0  0  0  0  0  0  0
   40.0280   25.3830   43.6800 C   0  0  0  0  0  0  0  0  0  0  0  0
   40.7580   25.2610   44.4630 H   0  0  0  0  0  0  0  0  0  0  0  0
   39.6810   24.2140   43.0390 C   0  0  0  0  0  3  0  0  0  0  0  0
   38.7510   24.2990   42.0230 C   0  0  0  0  0  3  0  0  0  0  0  0
   39.1110   30.3480   41.5040 C   0  0  0  0  0  0  0  0  0  0  0  0
   40.0610   31.3530   41.8230 C   0  0  0  0  0  0  0  0  0  0  0  0
   40.0320   32.5140   41.0620 C   0  0  0  0  0  0  0  0  0  0  0  0
   39.1130   32.6170   40.0740 N   0  0  0  0  0  0  0  0  0  0  0  0
   38.2220   31.6320   39.8030 C   0  0  0  0  0  0  0  0  0  0  0  0
   38.2260   30.4860   40.5290 N   0  0  0  0  0  0  0  0  0  0  0  0
   40.7740   31.2340   42.6120 H   0  0  0  0  0  0  0  0  0  0  0  0
   40.7050   33.3340   41.2200 H   0  0  0  0  0  0  0  0  0  0  0  0
   37.2970   31.9510   38.6670 C   0  0  0  0  0  0  0  0  0  0  0  0
   36.2480   31.0710   38.6040 F   0  0  0  0  0  0  0  0  0  0  0  0
   37.9970   31.8910   37.4610 F   0  0  0  0  0  0  0  0  0  0  0  0
   36.8810   33.2720   38.7880 F   0  0  0  0  0  0  0  0  0  0  0  0
  1  4  1  1  0  0  0
  1  2  1  0  0  0  0
  2  6  1  0  0  0  0
  2  5  1  0  0  0  0
  3  7  1  6  0  0  0
  3 10  1  0  0  0  0
  3  1  1  0  0  0  0
  3  2  1  0  0  0  0
  8  9  1  0  0  0  0
  9 16  2  0  0  0  0
  9 10  1  0  0  0  0
 10 11  2  0  0  0  0
 11 13  1  0  0  0  0
 11 12  1  0  0  0  0
 13 14  1  0  0  0  0
 15 13  2  0  0  0  0
 16 15  1  0  0  0  0
 17 18  1  0  0  0  0
 17  1  1  0  0  0  0
 18 23  1  0  0  0  0
 19 24  1  0  0  0  0
 19 18  2  0  0  0  0
 20 19  1  0  0  0  0
 21 20  2  0  0  0  0
 21 22  1  0  0  0  0
 22 17  2  0  0  0  0
 25 28  1  0  0  0  0
 25 21  1  0  0  0  0
 26 25  1  0  0  0  0
 27 25  1  0  0  0  0
M  END
>  <minimizedAffinity>
-5.4337759

$$$$

 OpenBabel03252505403D

 28 30  0  0  1  0  0  0  0  0999 V2000
   36.5720   29.0830   39.6050 C   0  0  1  0  0  0  0  0  0  0  0  0
   35.4110   29.7080   40.3950 C   0  0  0  0  0  0  0  0  0  0  0  0
   36.8210   29.8250   40.8460 C   0  0  2  0  0  0  0  0  0  0  0  0
   36.7840   29.5050   38.6180 H   0  0  0  0  0  0  0  0  0  0  0  0
   34.9010   30.4730   39.8150 H   0  0  0  0  0  0  0  0  0  0  0  0
   34.7120   29.0060   40.8960 H   0  0  0  0  0  0  0  0  0  0  0  0
   37.0040   29.2410   41.8040 H   0  0  0  0  0  0  0  0  0  0  0  0
   39.5770   30.3910   42.4280 Br  0  0  0  0  0  0  0  0  0  0  0  0
   38.7290   31.5940   41.2540 C   0  0  0  0  0  0  0  0  0  0  0  0
   37.5750   31.0930   40.7010 C   0  0  0  0  0  0  0  0  0  0  0  0
   36.8760   31.9080   39.7990 C   0  0  0  0  0  0  0  0  0  0  0  0
   35.9510   31.7100   39.2530 H   0  0  0  0  0  0  0  0  0  0  0  0
   37.3430   33.1890   39.4740 C   0  0  0  0  0  0  0  0  0  0  0  0
   36.8630   33.8710   38.7910 H   0  0  0  0  0  0  0  0  0  0  0  0
   38.5020   33.6720   40.0390 C   0  0  0  0  0  3  0  0  0  0  0  0
   39.1680   32.8470   40.9230 C   0  0  0  0  0  3  0  0  0  0  0  0
   36.5560   27.5870   39.5810 C   0  0  0  0  0  0  0  0  0  0  0  0
   36.1300   26.9270   38.3990 C   0  0  0  0  0  0  0  0  0  0  0  0
   36.1360   25.5390   38.4130 C   0  0  0  0  0  0  0  0  0  0  0  0
   36.5420   24.9050   39.5370 N   0  0  0  0  0  0  0  0  0  0  0  0
   36.9410   25.5740   40.6460 C   0  0  0  0  0  0  0  0  0  0  0  0
   36.9470   26.9310   40.6630 N   0  0  0  0  0  0  0  0  0  0  0  0
   35.8160   27.4650   37.5280 H   0  0  0  0  0  0  0  0  0  0  0  0
   35.8330   24.9450   37.5740 H   0  0  0  0  0  0  0  0  0  0  0  0
   37.3550   24.6790   41.7760 C   0  0  0  0  0  0  0  0  0  0  0  0
   38.6010   24.9990   42.2490 F   0  0  0  0  0  0  0  0  0  0  0  0
   37.3730   23.3540   41.3420 F   0  0  0  0  0  0  0  0  0  0  0  0
   36.3780   24.7310   42.7650 F   0  0  0  0  0  0  0  0  0  0  0  0
  1  4  1  6  0  0  0
  1  2  1  0  0  0  0
  1  3  1  0  0  0  0
  2  3  1  0  0  0  0
  2  6  1  0  0  0  0
  3  7  1  1  0  0  0
  5  2  1  0  0  0  0
  9  8  1  0  0  0  0
 10  3  1  0  0  0  0
 10  9  2  0  0  0  0
 11 10  1  0  0  0  0
 12 11  1  0  0  0  0
 13 11  2  0  0  0  0
 13 15  1  0  0  0  0
 14 13  1  0  0  0  0
 15 16  2  0  0  0  0
 16  9  1  0  0  0  0
 17  1  1  0  0  0  0
 17 22  1  0  0  0  0
 18 19  1  0  0  0  0
 18 17  2  0  0  0  0
 19 20  2  0  0  0  0
 20 21  1  0  0  0  0
 21 22  2  0  0  0  0
 21 25  1  0  0  0  0
 23 18  1  0  0  0  0
 24 19  1  0  0  0  0
 25 26  1  0  0  0  0
 25 28  1  0  0  0  0
 27 25  1  0  0  0  0
M  END
>  <minimizedAffinity>
-5.35467863

$$$$

 OpenBabel03252505403D

 28 30  0  0  1  0  0  0  0  0999 V2000
   37.9880   27.9510   41.8960 C   0  0  1  0  0  0  0  0  0  0  0  0
   36.6260   27.7980   42.5940 C   0  0  0  0  0  0  0  0  0  0  0  0
   36.8220   27.4380   41.1660 C   0  0  2  0  0  0  0  0  0  0  0  0
   38.7970   27.3000   42.2390 H   0  0  0  0  0  0  0  0  0  0  0  0
   36.6750   27.0770   43.4060 H   0  0  0  0  0  0  0  0  0  0  0  0
   36.1000   28.7340   42.8750 H   0  0  0  0  0  0  0  0  0  0  0  0
   36.2580   28.1420   40.4760 H   0  0  0  0  0  0  0  0  0  0  0  0
   35.9190   26.4780   38.2210 Br  0  0  0  0  0  0  0  0  0  0  0  0
   36.5780   25.3520   39.5770 C   0  0  0  0  0  0  0  0  0  0  0  0
   36.9040   26.0230   40.7310 C   0  0  0  0  0  0  0  0  0  0  0  0
   37.4200   25.2750   41.7990 C   0  0  0  0  0  0  0  0  0  0  0  0
   37.7390   25.6020   42.7910 H   0  0  0  0  0  0  0  0  0  0  0  0
   37.5960   23.8880   41.6890 C   0  0  0  0  0  0  0  0  0  0  0  0
   37.9860   23.2470   42.4620 H   0  0  0  0  0  0  0  0  0  0  0  0
   37.2620   23.2350   40.5230 C   0  0  0  0  0  3  0  0  0  0  0  0
   36.7570   23.9980   39.4900 C   0  0  0  0  0  3  0  0  0  0  0  0
   38.4380   29.3700   41.7460 C   0  0  0  0  0  0  0  0  0  0  0  0
   39.4380   29.8650   42.6230 C   0  0  0  0  0  0  0  0  0  0  0  0
   39.8340   31.1840   42.4490 C   0  0  0  0  0  0  0  0  0  0  0  0
   39.2530   31.9100   41.4660 N   0  0  0  0  0  0  0  0  0  0  0  0
   38.3000   31.3980   40.6490 C   0  0  0  0  0  0  0  0  0  0  0  0
   37.8910   30.1120   40.7950 N   0  0  0  0  0  0  0  0  0  0  0  0
   39.8750   29.2590   43.3890 H   0  0  0  0  0  0  0  0  0  0  0  0
   40.5810   31.6560   43.0570 H   0  0  0  0  0  0  0  0  0  0  0  0
   37.7930   32.3710   39.6270 C   0  0  0  0  0  0  0  0  0  0  0  0
   36.6530   31.9180   39.0160 F   0  0  0  0  0  0  0  0  0  0  0  0
   38.7670   32.5750   38.6500 F   0  0  0  0  0  0  0  0  0  0  0  0
   37.6180   33.6070   40.2380 F   0  0  0  0  0  0  0  0  0  0  0  0
  1  4  1  1  0  0  0
  1  2  1  0  0  0  0
  2  6  1  0  0  0  0
  2  5  1  0  0  0  0
  3  7  1  6  0  0  0
  3  1  1  0  0  0  0
  3  2  1  0  0  0  0
  8  9  1  0  0  0  0
  9 10  1  0  0  0  0
 10  3  1  0  0  0  0
 10 11  2  0  0  0  0
 11 12  1  0  0  0  0
 13 11  1  0  0  0  0
 13 14  1  0  0  0  0
 15 13  2  0  0  0  0
 16  9  2  0  0  0  0
 16 15  1  0  0  0  0
 17  1  1  0  0  0  0
 17 18  1  0  0  0  0
 18 23  1  0  0  0  0
 19 18  2  0  0  0  0
 19 24  1  0  0  0  0
 20 19  1  0  0  0  0
 21 22  1  0  0  0  0
 21 20  2  0  0  0  0
 22 17  2  0  0  0  0
 25 28  1  0  0  0  0
 25 21  1  0  0  0  0
 26 25  1  0  0  0  0
 27 25  1  0  0  0  0
M  END
>  <minimizedAffinity>
-5.2986989

$$$$

 OpenBabel03252505403D

 28 30  0  0  1  0  0  0  0  0999 V2000
   35.8570   29.3690   39.6050 C   0  0  1  0  0  0  0  0  0  0  0  0
   36.8210   30.1920   38.7340 C   0  0  0  0  0  0  0  0  0  0  0  0
   36.1820   28.9460   38.2370 C   0  0  2  0  0  0  0  0  0  0  0  0
   34.9010   29.8350   39.8620 H   0  0  0  0  0  0  0  0  0  0  0  0
   36.4290   31.1870   38.5370 H   0  0  0  0  0  0  0  0  0  0  0  0
   37.8880   30.1990   39.0390 H   0  0  0  0  0  0  0  0  0  0  0  0
   36.9430   28.1150   38.0900 H   0  0  0  0  0  0  0  0  0  0  0  0
   36.6590   28.8950   35.0460 Br  0  0  0  0  0  0  0  0  0  0  0  0
   34.9820   28.9980   35.8940 C   0  0  0  0  0  0  0  0  0  0  0  0
   35.0640   28.9870   37.2650 C   0  0  0  0  0  0  0  0  0  0  0  0
   33.8650   29.0440   37.9920 C   0  0  0  0  0  0  0  0  0  0  0  0
   33.7040   29.0470   39.0720 H   0  0  0  0  0  0  0  0  0  0  0  0
   32.6280   29.1100   37.3370 C   0  0  0  0  0  0  0  0  0  0  0  0
   31.6670   29.1560   37.8230 H   0  0  0  0  0  0  0  0  0  0  0  0
   32.5680   29.1200   35.9610 C   0  0  0  0  0  3  0  0  0  0  0  0
   33.7640   29.0630   35.2740 C   0  0  0  0  0  3  0  0  0  0  0  0
   36.5050   28.7310   40.7930 C   0  0  0  0  0  0  0  0  0  0  0  0
   36.9040   29.5540   41.8780 C   0  0  0  0  0  0  0  0  0  0  0  0
   37.4950   28.9250   42.9650 C   0  0  0  0  0  0  0  0  0  0  0  0
   37.6520   27.5820   42.9280 N   0  0  0  0  0  0  0  0  0  0  0  0
   37.2570   26.8320   41.8700 C   0  0  0  0  0  0  0  0  0  0  0  0
   36.6760   27.4180   40.7930 N   0  0  0  0  0  0  0  0  0  0  0  0
   36.7620   30.6150   41.8700 H   0  0  0  0  0  0  0  0  0  0  0  0
   37.8330   29.4540   43.8340 H   0  0  0  0  0  0  0  0  0  0  0  0
   37.5210   25.3650   42.0370 C   0  0  0  0  0  0  0  0  0  0  0  0
   38.6350   25.1330   42.8000 F   0  0  0  0  0  0  0  0  0  0  0  0
   37.7120   24.7780   40.7860 F   0  0  0  0  0  0  0  0  0  0  0  0
   36.3800   24.7640   42.5570 F   0  0  0  0  0  0  0  0  0  0  0  0
  1  4  1  1  0  0  0
  1 17  1  0  0  0  0
  2  6  1  0  0  0  0
  2  1  1  0  0  0  0
  3  7  1  6  0  0  0
  3  2  1  0  0  0  0
  3  1  1  0  0  0  0
  5  2  1  0  0  0  0
  8  9  1  0  0  0  0
  9 10  1  0  0  0  0
 10 11  2  0  0  0  0
 10  3  1  0  0  0  0
 11 12  1  0  0  0  0
 13 14  1  0  0  0  0
 13 11  1  0  0  0  0
 15 13  2  0  0  0  0
 16  9  2  0  0  0  0
 16 15  1  0  0  0  0
 17 22  2  0  0  0  0
 17 18  1  0  0  0  0
 18 19  2  0  0  0  0
 19 24  1  0  0  0  0
 20 19  1  0  0  0  0
 21 25  1  0  0  0  0
 21 20  2  0  0  0  0
 22 21  1  0  0  0  0
 23 18  1  0  0  0  0
 25 28  1  0  0  0  0
 25 26  1  0  0  0  0
 27 25  1  0  0  0  0
M  END
>  <minimizedAffinity>
-5.1724658

$$$$

 OpenBabel03252505403D

 28 30  0  0  1  0  0  0  0  0999 V2000
   37.7920   25.4810   41.4660 C   0  0  1  0  0  0  0  0  0  0  0  0
   36.8650   24.5420   42.2560 C   0  0  0  0  0  0  0  0  0  0  0  0
   36.7180   24.7410   40.7920 C   0  0  2  0  0  0  0  0  0  0  0  0
   38.8430   25.1890   41.3870 H   0  0  0  0  0  0  0  0  0  0  0  0
   37.4180   23.7160   42.6970 H   0  0  0  0  0  0  0  0  0  0  0  0
   36.1580   25.0190   42.9670 H   0  0  0  0  0  0  0  0  0  0  0  0
   35.7550   25.2880   40.5380 H   0  0  0  0  0  0  0  0  0  0  0  0
   34.6290   22.8530   39.2150 Br  0  0  0  0  0  0  0  0  0  0  0  0
   36.5020   22.7760   39.0510 C   0  0  0  0  0  0  0  0  0  0  0  0
   37.1550   23.7060   39.8250 C   0  0  0  0  0  0  0  0  0  0  0  0
   38.5560   23.7410   39.7610 C   0  0  0  0  0  0  0  0  0  0  0  0
   39.2610   24.3900   40.2850 H   0  0  0  0  0  0  0  0  0  0  0  0
   39.2620   22.8560   38.9350 C   0  0  0  0  0  0  0  0  0  0  0  0
   40.3350   22.8230   38.8320 H   0  0  0  0  0  0  0  0  0  0  0  0
   38.5890   21.9320   38.1680 C   0  0  0  0  0  3  0  0  0  0  0  0
   37.2110   21.9210   38.2510 C   0  0  0  0  0  3  0  0  0  0  0  0
   37.6380   26.9260   41.8200 C   0  0  0  0  0  0  0  0  0  0  0  0
   38.3130   27.4240   42.9640 C   0  0  0  0  0  0  0  0  0  0  0  0
   38.1530   28.7720   43.2570 C   0  0  0  0  0  0  0  0  0  0  0  0
   37.3730   29.5220   42.4440 N   0  0  0  0  0  0  0  0  0  0  0  0
   36.7450   29.0050   41.3590 C   0  0  0  0  0  0  0  0  0  0  0  0
   36.8830   27.6920   41.0470 N   0  0  0  0  0  0  0  0  0  0  0  0
   38.9230   26.7990   43.5840 H   0  0  0  0  0  0  0  0  0  0  0  0
   38.6180   29.2480   44.0980 H   0  0  0  0  0  0  0  0  0  0  0  0
   35.9360   30.0100   40.5940 C   0  0  0  0  0  0  0  0  0  0  0  0
   34.6740   29.5480   40.3260 F   0  0  0  0  0  0  0  0  0  0  0  0
   36.5680   30.2990   39.3850 F   0  0  0  0  0  0  0  0  0  0  0  0
   35.9280   31.2070   41.3020 F   0  0  0  0  0  0  0  0  0  0  0  0
  1  4  1  6  0  0  0
  1 17  1  0  0  0  0
  1  2  1  0  0  0  0
  2  5  1  0  0  0  0
  2  6  1  0  0  0  0
  3  7  1  6  0  0  0
  3  1  1  0  0  0  0
  3  2  1  0  0  0  0
  9  8  1  0  0  0  0
  9 10  1  0  0  0  0
 10  3  1  0  0  0  0
 11 10  2  0  0  0  0
 11 12  1  0  0  0  0
 13 11  1  0  0  0  0
 14 13  1  0  0  0  0
 15 16  1  0  0  0  0
 15 13  2  0  0  0  0
 16  9  2  0  0  0  0
 17 18  1  0  0  0  0
 18 19  2  0  0  0  0
 18 23  1  0  0  0  0
 19 24  1  0  0  0  0
 20 19  1  0  0  0  0
 21 20  2  0  0  0  0
 22 21  1  0  0  0  0
 22 17  2  0  0  0  0
 25 28  1  0  0  0  0
 25 21  1  0  0  0  0
 26 25  1  0  0  0  0
 27 25  1  0  0  0  0
M  END
>  <minimizedAffinity>
-5.12035704

$$$$

 OpenBabel03252505403D

 28 30  0  0  1  0  0  0  0  0999 V2000
   37.3580   28.8740   40.5160 C   0  0  1  0  0  0  0  0  0  0  0  0
   35.9620   29.4900   40.7090 C   0  0  0  0  0  0  0  0  0  0  0  0
   37.1590   30.0240   41.4070 C   0  0  2  0  0  0  0  0  0  0  0  0
   37.8110   28.9730   39.5260 H   0  0  0  0  0  0  0  0  0  0  0  0
   35.5770   29.9000   39.7790 H   0  0  0  0  0  0  0  0  0  0  0  0
   35.2150   28.8750   41.2530 H   0  0  0  0  0  0  0  0  0  0  0  0
   37.1050   29.8430   42.5280 H   0  0  0  0  0  0  0  0  0  0  0  0
   40.0720   30.9300   42.4600 Br  0  0  0  0  0  0  0  0  0  0  0  0
   38.9870   31.9150   41.2780 C   0  0  0  0  0  0  0  0  0  0  0  0
   37.8000   31.2910   40.9810 C   0  0  0  0  0  0  0  0  0  0  0  0
   36.9260   31.9370   40.0950 C   0  0  0  0  0  0  0  0  0  0  0  0
   35.9460   31.6230   39.7270 H   0  0  0  0  0  0  0  0  0  0  0  0
   37.2560   33.1790   39.5340 C   0  0  0  0  0  0  0  0  0  0  0  0
   36.6400   33.7360   38.8470 H   0  0  0  0  0  0  0  0  0  0  0  0
   38.4510   33.7880   39.8460 C   0  0  0  0  0  3  0  0  0  0  0  0
   39.2900   33.1280   40.7200 C   0  0  0  0  0  3  0  0  0  0  0  0
   37.4900   27.4850   41.0550 C   0  0  0  0  0  0  0  0  0  0  0  0
   38.1540   27.2930   42.2940 C   0  0  0  0  0  0  0  0  0  0  0  0
   38.2510   25.9900   42.7640 C   0  0  0  0  0  0  0  0  0  0  0  0
   37.7120   24.9940   42.0240 N   0  0  0  0  0  0  0  0  0  0  0  0
   37.0850   25.2210   40.8440 C   0  0  0  0  0  0  0  0  0  0  0  0
   36.9740   26.4830   40.3580 N   0  0  0  0  0  0  0  0  0  0  0  0
   38.5680   28.1080   42.8510 H   0  0  0  0  0  0  0  0  0  0  0  0
   38.7330   25.7360   43.6880 H   0  0  0  0  0  0  0  0  0  0  0  0
   36.5570   23.9780   40.1910 C   0  0  0  0  0  0  0  0  0  0  0  0
   36.4010   24.1420   38.8390 F   0  0  0  0  0  0  0  0  0  0  0  0
   35.3190   23.6470   40.7430 F   0  0  0  0  0  0  0  0  0  0  0  0
   37.3990   22.9180   40.5080 F   0  0  0  0  0  0  0  0  0  0  0  0
  1  4  1  6  0  0  0
  1  2  1  0  0  0  0
  1 17  1  0  0  0  0
  1  3  1  0  0  0  0
  2  6  1  0  0  0  0
  2  3  1  0  0  0  0
  3  7  1  1  0  0  0
  5  2  1  0  0  0  0
  9  8  1  0  0  0  0
 10  9  1  0  0  0  0
 10  3  1  0  0  0  0
 11 10  2  0  0  0  0
 12 11  1  0  0  0  0
 13 15  2  0  0  0  0
 13 11  1  0  0  0  0
 14 13  1  0  0  0  0
 15 16  1  0  0  0  0
 16  9  2  0  0  0  0
 17 18  1  0  0  0  0
 18 19  2  0  0  0  0
 18 23  1  0  0  0  0
 19 24  1  0  0  0  0
 20 19  1  0  0  0  0
 21 20  2  0  0  0  0
 22 21  1  0  0  0  0
 22 17  2  0  0  0  0
 25 28  1  0  0  0  0
 25 27  1  0  0  0  0
 25 21  1  0  0  0  0
 26 25  1  0  0  0  0
M  END
>  <minimizedAffinity>
-5.09544897

$$$$

 OpenBabel03252505403D

 28 30  0  0  1  0  0  0  0  0999 V2000
   37.8910   28.6600   40.8120 C   0  0  1  0  0  0  0  0  0  0  0  0
   37.1070   28.5820   42.1330 C   0  0  0  0  0  0  0  0  0  0  0  0
   36.6670   27.8550   40.9150 C   0  0  2  0  0  0  0  0  0  0  0  0
   38.8880   28.2100   40.8000 H   0  0  0  0  0  0  0  0  0  0  0  0
   37.7010   28.1270   42.9210 H   0  0  0  0  0  0  0  0  0  0  0  0
   36.5860   29.5060   42.4600 H   0  0  0  0  0  0  0  0  0  0  0  0
   35.6980   28.2800   40.5000 H   0  0  0  0  0  0  0  0  0  0  0  0
   36.0610   26.2750   38.1670 Br  0  0  0  0  0  0  0  0  0  0  0  0
   36.6480   25.4830   39.7700 C   0  0  0  0  0  0  0  0  0  0  0  0
   36.8450   26.3890   40.7840 C   0  0  0  0  0  0  0  0  0  0  0  0
   37.2990   25.9000   42.0180 C   0  0  0  0  0  0  0  0  0  0  0  0
   37.5180   26.4370   42.9440 H   0  0  0  0  0  0  0  0  0  0  0  0
   37.5420   24.5320   42.2060 C   0  0  0  0  0  0  0  0  0  0  0  0
   37.8910   24.0820   43.1210 H   0  0  0  0  0  0  0  0  0  0  0  0
   37.3370   23.6410   41.1760 C   0  0  0  0  0  3  0  0  0  0  0  0
   36.8910   24.1520   39.9750 C   0  0  0  0  0  3  0  0  0  0  0  0
   37.8810   30.0150   40.1780 C   0  0  0  0  0  0  0  0  0  0  0  0
   36.9580   30.2730   39.1320 C   0  0  0  0  0  0  0  0  0  0  0  0
   36.9740   31.5440   38.5740 C   0  0  0  0  0  0  0  0  0  0  0  0
   37.8570   32.4500   39.0530 N   0  0  0  0  0  0  0  0  0  0  0  0
   38.7240   32.1610   40.0550 C   0  0  0  0  0  0  0  0  0  0  0  0
   38.7320   30.9280   40.6210 N   0  0  0  0  0  0  0  0  0  0  0  0
   36.2730   29.5290   38.7800 H   0  0  0  0  0  0  0  0  0  0  0  0
   36.3190   31.8420   37.7790 H   0  0  0  0  0  0  0  0  0  0  0  0
   39.6110   33.3090   40.4360 C   0  0  0  0  0  0  0  0  0  0  0  0
   40.1120   33.9520   39.3340 F   0  0  0  0  0  0  0  0  0  0  0  0
   40.6810   32.8420   41.1990 F   0  0  0  0  0  0  0  0  0  0  0  0
   38.9020   34.1600   41.2750 F   0  0  0  0  0  0  0  0  0  0  0  0
  1  4  1  6  0  0  0
  1  3  1  0  0  0  0
  1  2  1  0  0  0  0
  2  6  1  0  0  0  0
  2  5  1  0  0  0  0
  3  7  1  6  0  0  0
  3  2  1  0  0  0  0
  8  9  1  0  0  0  0
  9 16  2  0  0  0  0
  9 10  1  0  0  0  0
 10  3  1  0  0  0  0
 10 11  2  0  0  0  0
 11 13  1  0  0  0  0
 11 12  1  0  0  0  0
 13 14  1  0  0  0  0
 15 13  2  0  0  0  0
 16 15  1  0  0  0  0
 17 22  1  0  0  0  0
 17  1  1  0  0  0  0
 18 17  2  0  0  0  0
 19 20  2  0  0  0  0
 19 18  1  0  0  0  0
 20 21  1  0  0  0  0
 21 25  1  0  0  0  0
 21 22  2  0  0  0  0
 23 18  1  0  0  0  0
 24 19  1  0  0  0  0
 25 27  1  0  0  0  0
 25 28  1  0  0  0  0
 26 25  1  0  0  0  0
M  END
>  <minimizedAffinity>
-5.03179979

$$$$

 OpenBabel03252505403D

 28 30  0  0  1  0  0  0  0  0999 V2000
   35.3360   29.3000   38.5120 C   0  0  1  0  0  0  0  0  0  0  0  0
   36.2160   28.7480   37.3780 C   0  0  0  0  0  0  0  0  0  0  0  0
   35.0590   27.9880   37.9150 C   0  0  2  0  0  0  0  0  0  0  0  0
   34.7340   30.1850   38.2860 H   0  0  0  0  0  0  0  0  0  0  0  0
   36.1620   29.3760   36.4910 H   0  0  0  0  0  0  0  0  0  0  0  0
   37.2550   28.4640   37.6450 H   0  0  0  0  0  0  0  0  0  0  0  0
   35.3940   27.0550   38.4710 H   0  0  0  0  0  0  0  0  0  0  0  0
   34.1950   25.2890   36.3720 Br  0  0  0  0  0  0  0  0  0  0  0  0
   33.1980   26.8860   36.4130 C   0  0  0  0  0  0  0  0  0  0  0  0
   33.7900   27.8770   37.1590 C   0  0  0  0  0  0  0  0  0  0  0  0
   33.1180   29.1030   37.2660 C   0  0  0  0  0  0  0  0  0  0  0  0
   33.4040   30.0120   37.8000 H   0  0  0  0  0  0  0  0  0  0  0  0
   31.8840   29.3070   36.6320 C   0  0  0  0  0  0  0  0  0  0  0  0
   31.3080   30.2170   36.6680 H   0  0  0  0  0  0  0  0  0  0  0  0
   31.3080   28.3000   35.8890 C   0  0  0  0  0  3  0  0  0  0  0  0
   31.9930   27.1050   35.8020 C   0  0  0  0  0  3  0  0  0  0  0  0
   36.0440   29.4260   39.8240 C   0  0  0  0  0  0  0  0  0  0  0  0
   36.6060   30.6800   40.1790 C   0  0  0  0  0  0  0  0  0  0  0  0
   37.2480   30.7600   41.4070 C   0  0  0  0  0  0  0  0  0  0  0  0
   37.2980   29.6530   42.1840 N   0  0  0  0  0  0  0  0  0  0  0  0
   36.7480   28.4730   41.8060 C   0  0  0  0  0  0  0  0  0  0  0  0
   36.1130   28.3640   40.6120 N   0  0  0  0  0  0  0  0  0  0  0  0
   36.5450   31.5340   39.5370 H   0  0  0  0  0  0  0  0  0  0  0  0
   37.7060   31.6590   41.7710 H   0  0  0  0  0  0  0  0  0  0  0  0
   36.9140   27.3770   42.8170 C   0  0  0  0  0  0  0  0  0  0  0  0
   38.1120   27.4720   43.4760 F   0  0  0  0  0  0  0  0  0  0  0  0
   36.8580   26.1380   42.1780 F   0  0  0  0  0  0  0  0  0  0  0  0
   35.8250   27.3980   43.6800 F   0  0  0  0  0  0  0  0  0  0  0  0
  1  4  1  6  0  0  0
  1 17  1  0  0  0  0
  2  6  1  0  0  0  0
  2  3  1  0  0  0  0
  2  1  1  0  0  0  0
  3  7  1  1  0  0  0
  3  1  1  0  0  0  0
  5  2  1  0  0  0  0
  8  9  1  0  0  0  0
  9 10  1  0  0  0  0
 10 11  2  0  0  0  0
 10  3  1  0  0  0  0
 11 12  1  0  0  0  0
 13 14  1  0  0  0  0
 13 11  1  0  0  0  0
 15 13  2  0  0  0  0
 16 15  1  0  0  0  0
 16  9  2  0  0  0  0
 17 18  2  0  0  0  0
 17 22  1  0  0  0  0
 18 19  1  0  0  0  0
 19 24  1  0  0  0  0
 19 20  2  0  0  0  0
 21 20  1  0  0  0  0
 21 25  1  0  0  0  0
 22 21  2  0  0  0  0
 23 18  1  0  0  0  0
 25 26  1  0  0  0  0
 25 28  1  0  0  0  0
 27 25  1  0  0  0  0
M  END
>  <minimizedAffinity>
-5.01967096

$$$$
