
     RDKit          3D

 43 46  0  0  0  0  0  0  0  0999 V2000
   43.7680   34.6055   40.5393 C   0  0  0  0  0  0  0  0  0  0  0  0
   43.7650   33.7885   39.4686 C   0  0  0  0  0  0  0  0  0  0  0  0
   44.9830   33.1709   39.1878 C   0  0  0  0  0  0  0  0  0  0  0  0
   46.0755   33.3902   39.9440 N   0  0  0  0  0  0  0  0  0  0  0  0
   46.0260   34.2201   41.0058 C   0  0  0  0  0  0  0  0  0  0  0  0
   44.8576   34.8058   41.2694 N   0  0  0  0  0  0  0  0  0  0  0  0
   45.0946   32.2584   38.0761 N   0  0  0  0  0  0  0  0  0  0  0  0
   42.7406   33.3816   38.4556 C   0  0  0  0  0  0  0  0  0  0  0  0
   42.1741   35.4017   40.9351 S   0  0  0  0  0  0  0  0  0  0  0  0
   39.7306   34.6048   40.2633 C   0  0  0  0  0  0  0  0  0  0  0  0
   40.8723   34.1709   40.9404 C   0  0  0  0  0  0  0  0  0  0  0  0
   40.9310   32.9172   41.5131 C   0  0  0  0  0  0  0  0  0  0  0  0
   39.8591   32.0650   41.4263 C   0  0  0  0  0  0  0  0  0  0  0  0
   38.7210   32.4743   40.7610 C   0  0  0  0  0  0  0  0  0  0  0  0
   38.6319   33.7140   40.1823 C   0  0  0  0  0  0  0  0  0  0  0  0
   37.8113   31.4000   40.8399 O   0  0  0  0  0  0  0  0  0  0  0  0
   38.2758   30.5097   41.7742 C   0  0  2  0  0  0  0  0  0  0  0  0
   39.6565   30.7671   41.9049 O   0  0  0  0  0  0  0  0  0  0  0  0
   47.0888   34.5083   41.8363 O   0  0  0  0  0  0  0  0  0  0  0  0
   48.3001   34.9277   41.2298 C   0  0  0  0  0  0  0  0  0  0  0  0
   49.2998   34.0263   41.4328 F   0  0  0  0  0  0  0  0  0  0  0  0
   48.0245   35.0998   39.8634 F   0  0  0  0  0  0  0  0  0  0  0  0
   48.6836   36.1193   41.8086 F   0  0  0  0  0  0  0  0  0  0  0  0
   44.9562   32.4833   37.0464 H   0  0  0  0  0  0  0  0  0  0  0  0
   45.3366   31.2807   38.3239 H   0  0  0  0  0  0  0  0  0  0  0  0
   41.9787   34.1892   38.4791 H   0  0  0  0  0  0  0  0  0  0  0  0
   42.3329   32.4139   38.7624 H   0  0  0  0  0  0  0  0  0  0  0  0
   43.1550   33.4134   37.4249 H   0  0  0  0  0  0  0  0  0  0  0  0
   39.6048   35.5686   39.7891 H   0  0  0  0  0  0  0  0  0  0  0  0
   41.8584   32.6792   42.0141 H   0  0  0  0  0  0  0  0  0  0  0  0
   37.7397   34.0362   39.6604 H   0  0  0  0  0  0  0  0  0  0  0  0
   37.8337   30.8084   42.7694 H   0  0  0  0  0  0  0  0  0  0  0  0
   40.4380   28.5465   42.9226 Br  0  0  0  0  0  0  0  0  0  0  0  0
   38.8240   28.0888   41.9931 C   0  0  0  0  0  0  0  0  0  0  0  0
   37.9625   29.0938   41.5439 C   0  0  0  0  0  0  0  0  0  0  0  0
   36.8200   28.6926   40.8830 C   0  0  0  0  0  0  0  0  0  0  0  0
   36.1059   29.4052   40.5062 H   0  0  0  0  0  0  0  0  0  0  0  0
   36.5294   27.3450   40.6682 C   0  0  0  0  0  0  0  0  0  0  0  0
   35.6253   27.0462   40.1460 H   0  0  0  0  0  0  0  0  0  0  0  0
   37.3761   26.3597   41.1098 C   0  0  0  0  0  0  0  0  0  0  0  0
   38.5177   26.7647   41.7703 C   0  0  0  0  0  0  0  0  0  0  0  0
   37.2044   25.3021   40.9730 H   0  0  0  0  0  0  0  0  0  0  0  0
   39.2272   26.0254   42.1436 H   0  0  0  0  0  0  0  0  0  0  0  0
  1  9  1  0
  1  6  1  0
  2  1  2  0
  3  2  1  0
  3  4  2  0
  4  5  1  0
  5  6  2  0
  5 19  1  0
  7  3  1  0
  8  2  1  0
  9 11  1  0
 10 11  2  0
 11 12  1  0
 13 12  2  0
 13 18  1  0
 14 16  1  0
 14 13  1  0
 15 10  1  0
 15 14  2  0
 16 17  1  0
 17 18  1  0
 20 21  1  0
 20 23  1  0
 20 19  1  0
 22 20  1  0
  7 24  1  0
  7 25  1  0
  8 26  1  0
  8 27  1  0
  8 28  1  0
 10 29  1  0
 12 30  1  0
 15 31  1  0
 17 32  1  1
 33 34  1  0
 34 35  2  0
 35 36  1  0
 36 37  1  0
 36 38  2  0
 38 39  1  0
 38 40  1  0
 40 41  2  0
 41 34  1  0
 40 42  1  0
 41 43  1  0
 17 35  1  0
M  ISO  8  26   8  27   8  28   8  29  14  30  14  31  14  32  13  37  15
M  ISO  1  39  16
M  END
>  <DihAtoms>  (1) 
15,16,34,33

>  <DihDeg>  (1) 
-135.00057447476698

$$$$
