
 OpenBabel03242520023D

 25 27  0  0  0  0  0  0  0  0999 V2000
   47.0270   32.6540   44.6180 C   0  0  0  0  0  0  0  0  0  0  0  0
   46.8490   33.9270   44.0640 C   0  0  0  0  0  0  0  0  0  0  0  0
   47.6420   34.0120   42.9640 C   0  0  0  0  0  0  0  0  0  0  0  0
   48.2850   32.8400   42.8410 N   0  0  0  0  0  0  0  0  0  0  0  0
   47.9100   32.0210   43.8430 N   0  0  0  0  0  0  0  0  0  0  0  0
   46.1960   34.7000   44.4480 H   0  0  0  0  0  0  0  0  0  0  0  0
   47.7940   34.8140   42.2680 H   0  0  0  0  0  0  0  0  0  0  0  0
   45.5700   30.3570   47.0840 C   0  0  0  0  0  0  0  0  0  0  0  0
   45.0780   31.2310   48.0660 C   0  0  0  0  0  0  0  0  0  0  0  0
   45.2560   32.6150   47.8630 C   0  0  0  0  0  0  0  0  0  0  0  0
   45.8930   33.0360   46.7350 N   0  0  0  0  0  0  0  0  0  0  0  0
   46.3510   32.1620   45.8110 C   0  0  0  0  0  0  0  0  0  0  0  0
   46.1960   30.8230   45.9760 N   0  0  0  0  0  0  0  0  0  0  0  0
   45.4820   29.2870   47.1480 H   0  0  0  0  0  0  0  0  0  0  0  0
   44.5890   30.8230   48.9270 H   0  0  0  0  0  0  0  0  0  0  0  0
   44.8850   33.3040   48.6080 H   0  0  0  0  0  0  0  0  0  0  0  0
   46.9560   31.7310   40.3060 Br  0  0  0  0  0  0  0  0  0  0  0  0
   48.8390   31.8650   40.6620 C   0  0  0  0  0  0  0  0  0  0  0  0
   49.2240   32.3990   41.8760 C   0  0  0  0  0  0  0  0  0  0  0  0
   50.5720   32.4980   42.1370 C   0  0  0  0  0  0  0  0  0  0  0  0
   50.9470   32.9060   43.0670 H   0  0  0  0  0  0  0  0  0  0  0  0
   51.4830   32.0640   41.1880 C   0  0  0  0  0  0  0  0  0  0  0  0
   52.5450   32.1450   41.3980 H   0  0  0  0  0  0  0  0  0  0  0  0
   51.1210   31.5310   39.9750 C   0  0  0  0  0  0  0  0  0  0  0  0
   49.7560   31.4410   39.7350 C   0  0  0  0  0  0  0  0  0  0  0  0
  1 12  1  0  0  0  0
  2  6  1  0  0  0  0
  2  1  1  0  0  0  0
  3  2  2  0  0  0  0
  4  3  1  0  0  0  0
  4  5  1  0  0  0  0
  5  1  2  0  0  0  0
  7  3  1  0  0  0  0
  8 14  1  0  0  0  0
  8  9  1  0  0  0  0
  9 15  1  0  0  0  0
 10  9  2  0  0  0  0
 10 16  1  0  0  0  0
 11 10  1  0  0  0  0
 12 13  1  0  0  0  0
 12 11  2  0  0  0  0
 13  8  2  0  0  0  0
 17 18  1  0  0  0  0
 18 19  1  0  0  0  0
 19 20  2  0  0  0  0
 19  4  1  0  0  0  0
 20 21  1  0  0  0  0
 22 23  1  0  0  0  0
 22 20  1  0  0  0  0
 24 22  2  0  0  0  0
 25 24  1  0  0  0  0
 25 18  2  0  0  0  0
M  END
>  <minimizedAffinity>
-4.24323654

>  <minimizedRMSD>
8.18567562

$$$$
