
 OpenBabel03242519243D

 40 43  0  0  0  0  0  0  0  0999 V2000
   47.8660   33.7220   42.8930 C   0  0  0  0  0  0  0  0  0  0  0  0
   48.5780   34.9300   42.6900 C   0  0  0  0  0  0  0  0  0  0  0  0
   49.9420   34.8980   42.3650 C   0  0  0  0  0  0  0  0  0  0  0  0
   50.5080   33.6520   42.2640 N   0  0  0  0  0  0  0  0  0  0  0  0
   49.7930   32.5020   42.4670 C   0  0  0  0  0  0  0  0  0  0  0  0
   48.5040   32.5580   42.7730 N   0  0  0  0  0  0  0  0  0  0  0  0
   48.2070   35.9430   42.7510 H   0  0  0  0  0  0  0  0  0  0  0  0
   50.5370   35.7600   42.1980 H   0  0  0  0  0  0  0  0  0  0  0  0
   46.4460   33.8840   43.2340 C   0  0  0  0  0  0  0  0  0  0  0  0
   45.7520   34.8910   42.4330 C   0  0  0  0  0  0  0  0  0  0  0  0
   45.3310   36.0970   43.1920 C   0  0  0  0  0  0  0  0  0  0  0  0
   44.5460   35.7730   44.4590 C   0  0  0  0  0  0  0  0  0  0  0  0
   44.9770   34.5160   45.1490 C   0  0  0  0  0  0  0  0  0  0  0  0
   46.3930   34.1510   44.7480 C   0  0  0  0  0  0  0  0  0  0  0  0
   45.9470   32.8750   43.1300 H   0  0  0  0  0  0  0  0  0  0  0  0
   46.4180   35.2330   41.6210 H   0  0  0  0  0  0  0  0  0  0  0  0
   44.8660   34.4520   41.9120 H   0  0  0  0  0  0  0  0  0  0  0  0
   44.5650   36.6130   42.5390 H   0  0  0  0  0  0  0  0  0  0  0  0
   46.0870   36.8590   43.3800 H   0  0  0  0  0  0  0  0  0  0  0  0
   44.7390   36.6070   45.1800 H   0  0  0  0  0  0  0  0  0  0  0  0
   43.4560   35.7460   44.3000 H   0  0  0  0  0  0  0  0  0  0  0  0
   44.3220   33.6960   44.7840 H   0  0  0  0  0  0  0  0  0  0  0  0
   44.9100   34.5570   46.2370 H   0  0  0  0  0  0  0  0  0  0  0  0
   46.6680   33.1950   45.2430 H   0  0  0  0  0  0  0  0  0  0  0  0
   47.1260   34.9110   45.0590 H   0  0  0  0  0  0  0  0  0  0  0  0
   50.5500   31.2690   42.3260 C   0  0  0  0  0  0  0  0  0  0  0  0
   51.5430   31.2500   41.3930 N   0  0  0  0  0  0  0  0  0  0  0  0
   52.1300   30.0300   41.4100 C   0  0  0  0  0  0  0  0  0  0  0  0
   51.4860   29.2870   42.3710 N   0  0  0  0  0  0  0  0  0  0  0  0
   50.5360   30.0500   42.9120 N   0  0  0  0  0  0  0  0  0  0  0  0
   52.9470   29.6450   40.8160 H   0  0  0  0  0  0  0  0  0  0  0  0
   49.7730   27.1160   40.9000 Br  0  0  0  0  0  0  0  0  0  0  0  0
   51.0560   26.8410   42.2830 C   0  0  0  0  0  0  0  0  0  0  0  0
   51.7030   27.9460   42.7950 C   0  0  0  0  0  0  0  0  0  0  0  0
   52.6390   27.7130   43.8100 C   0  0  0  0  0  0  0  0  0  0  0  0
   53.2030   28.5160   44.2820 H   0  0  0  0  0  0  0  0  0  0  0  0
   52.8600   26.4050   44.2360 C   0  0  0  0  0  0  0  0  0  0  0  0
   53.5860   26.2100   45.0240 H   0  0  0  0  0  0  0  0  0  0  0  0
   52.2100   25.3300   43.7140 C   0  0  0  0  0  3  0  0  0  0  0  0
   51.2920   25.5600   42.7200 C   0  0  0  0  0  3  0  0  0  0  0  0
  1  9  1  0  0  0  0
  2  7  1  0  0  0  0
  2  1  2  0  0  0  0
  3  2  1  0  0  0  0
  4  3  2  0  0  0  0
  4  5  1  0  0  0  0
  5  6  2  0  0  0  0
  6  1  1  0  0  0  0
  8  3  1  0  0  0  0
  9 14  1  0  0  0  0
 10 11  1  0  0  0  0
 10  9  1  0  0  0  0
 11 19  1  0  0  0  0
 11 12  1  0  0  0  0
 12 13  1  0  0  0  0
 12 20  1  0  0  0  0
 13 23  1  0  0  0  0
 14 25  1  0  0  0  0
 14 13  1  0  0  0  0
 14 24  1  0  0  0  0
 15  9  1  0  0  0  0
 16 10  1  0  0  0  0
 17 10  1  0  0  0  0
 18 11  1  0  0  0  0
 21 12  1  0  0  0  0
 22 13  1  0  0  0  0
 26  5  1  0  0  0  0
 26 30  2  0  0  0  0
 27 28  2  0  0  0  0
 27 26  1  0  0  0  0
 28 29  1  0  0  0  0
 29 34  1  0  0  0  0
 29 30  1  0  0  0  0
 31 28  1  0  0  0  0
 32 33  1  0  0  0  0
 33 40  2  0  0  0  0
 33 34  1  0  0  0  0
 34 35  2  0  0  0  0
 35 37  1  0  0  0  0
 35 36  1  0  0  0  0
 37 38  1  0  0  0  0
 39 37  2  0  0  0  0
 40 39  1  0  0  0  0
M  END
>  <minimizedAffinity>
-4.17775202

>  <minimizedRMSD>
0.19282937

$$$$
