REMARK  Name = 
REMARK  4 active torsions:
REMARK  status: ('A' for Active; 'I' for Inactive)
REMARK    1  A    between atoms: C_2  and  C_12
REMARK    2  A    between atoms: C_3  and  C_7
REMARK    3  A    between atoms: C_12  and  C_14
REMARK    4  A    between atoms: N_16  and  C_30
REMARK                            x       y       z     vdW  Elec       q    Type
REMARK                         _______ _______ _______ _____ _____    ______ ____
ROOT
ATOM      1  C   UNL     1      46.509  34.830  41.911  0.00  0.00    +0.000 C 
ATOM      2  O   UNL     1      47.713  35.252  41.858  0.00  0.00    +0.000 OA
ENDROOT
BRANCH   1   3
ATOM      3  C   UNL     1      45.789  34.221  40.747  0.00  0.00    +0.000 A 
ATOM      4  C   UNL     1      44.437  34.324  40.495  0.00  0.00    +0.000 A 
ATOM      5  N   UNL     1      44.239  33.630  39.357  0.00  0.00    +0.000 N 
ATOM      6  C   UNL     1      45.416  33.128  38.937  0.00  0.00    +0.000 A 
ATOM      7  N   UNL     1      46.382  33.491  39.794  0.00  0.00    +0.000 NA
ATOM      8  N   UNL     1      45.736  32.328  37.793  0.00  0.00    +0.000 N 
ATOM      9  H   UNL     1      43.690  34.836  41.060  0.00  0.00    +0.000 HD
ATOM     10  H   UNL     1      46.351  31.490  37.919  0.00  0.00    +0.000 HD
ATOM     11  H   UNL     1      45.310  32.661  36.883  0.00  0.00    +0.000 HD
BRANCH   5  14
ATOM     12 BR   UNL     1      41.997  35.713  39.895  0.00  0.00    +0.000 Br
ATOM     13  C   UNL     1      41.896  34.213  38.730  0.00  0.00    +0.000 A 
ATOM     14  C   UNL     1      43.025  33.406  38.639  0.00  0.00    +0.000 A 
ATOM     15  C   UNL     1      43.020  32.301  37.811  0.00  0.00    +0.000 A 
ATOM     16  H   UNL     1      43.865  31.635  37.698  0.00  0.00    +0.000 HD
ATOM     17  C   UNL     1      41.883  32.015  37.083  0.00  0.00    +0.000 A 
ATOM     18  H   UNL     1      41.805  31.163  36.411  0.00  0.00    +0.000 HD
ATOM     19  C   UNL     1      40.733  32.798  37.146  0.00  0.00    +0.000 A 
ATOM     20  C   UNL     1      40.766  33.911  37.991  0.00  0.00    +0.000 A 
ENDBRANCH   5  14
ENDBRANCH   1   3
BRANCH   1  22
ATOM     21  C   UNL     1      45.215  36.171  43.497  0.00  0.00    +0.000 A 
ATOM     22  C   UNL     1      45.867  34.969  43.166  0.00  0.00    +0.000 A 
ATOM     23  C   UNL     1      45.816  33.997  44.137  0.00  0.00    +0.000 A 
ATOM     24  N   UNL     1      45.188  34.187  45.314  0.00  0.00    +0.000 NA
ATOM     25  C   UNL     1      44.575  35.365  45.583  0.00  0.00    +0.000 A 
ATOM     26  N   UNL     1      44.593  36.348  44.673  0.00  0.00    +0.000 NA
ATOM     27  H   UNL     1      45.190  37.007  42.807  0.00  0.00    +0.000 HD
ATOM     28  H   UNL     1      44.089  35.459  46.542  0.00  0.00    +0.000 HD
BRANCH  23  29
ATOM     29  C   UNL     1      46.448  32.753  43.892  0.00  0.00    +0.000 A 
ATOM     30  C   UNL     1      47.715  32.275  44.015  0.00  0.00    +0.000 A 
ATOM     31  C   UNL     1      48.022  31.034  43.702  0.00  0.00    +0.000 A 
ATOM     32  C   UNL     1      47.029  30.239  43.248  0.00  0.00    +0.000 A 
ATOM     33  S   UNL     1      45.571  31.333  43.272  0.00  0.00    +0.000 S 
ATOM     34  H   UNL     1      48.445  33.017  44.396  0.00  0.00    +0.000 HD
ATOM     35  H   UNL     1      49.002  30.579  43.771  0.00  0.00    +0.000 HD
ATOM     36  H   UNL     1      47.000  29.182  42.919  0.00  0.00    +0.000 HD
ENDBRANCH  23  29
ENDBRANCH   1  22
TORSDOF 4
