
 OpenBabel03252508023D

 42 45  0  0  1  0  0  0  0  0999 V2000
   42.0960   33.2440   41.1560 C   0  0  0  0  0  0  0  0  0  0  0  0
   42.8220   34.3890   41.3290 C   0  0  0  0  0  0  0  0  0  0  0  0
   42.1330   35.6170   41.2690 C   0  0  0  0  0  0  0  0  0  0  0  0
   40.7810   35.7180   41.0490 C   0  0  0  0  0  0  0  0  0  0  0  0
   40.0610   34.5650   40.8790 C   0  0  0  0  0  0  0  0  0  0  0  0
   40.7210   33.3730   40.9350 C   0  0  0  0  0  0  0  0  0  0  0  0
   42.6240   36.5770   41.3850 H   0  0  0  0  0  0  0  0  0  0  0  0
   40.2690   36.6600   41.0060 H   0  0  0  0  0  0  0  0  0  0  0  0
   38.9960   34.5440   40.7010 H   0  0  0  0  0  0  0  0  0  0  0  0
   40.1370   32.4480   40.7980 H   0  0  0  0  0  0  0  0  0  0  0  0
   42.7750   31.7100   41.2940 S   0  0  0  0  0  0  0  0  0  0  0  0
   41.9240   30.9310   40.2420 O   0  0  0  0  0  0  0  0  0  0  0  0
   42.5240   31.0790   42.6130 O   0  0  0  0  0  0  0  0  0  0  0  0
   44.4090   29.9120   43.2620 Br  0  0  0  0  0  0  0  0  0  0  0  0
   44.8930   30.1880   41.4100 C   0  0  0  0  0  0  0  0  0  0  0  0
   44.1350   31.0440   40.5600 C   0  0  0  0  0  0  0  0  0  0  0  0
   44.6910   31.0650   39.2870 C   0  0  0  0  0  0  0  0  0  0  0  0
   44.0570   31.6930   38.6330 H   0  0  0  0  0  0  0  0  0  0  0  0
   45.7850   30.4420   38.7350 C   0  0  0  0  0  0  0  0  0  0  0  0
   46.0310   30.6070   37.7200 H   0  0  0  0  0  0  0  0  0  0  0  0
   46.3750   29.6740   39.6980 C   0  0  0  0  0  3  0  0  0  0  0  0
   46.0070   29.4980   41.0030 C   0  0  0  0  0  3  0  0  0  0  0  0
   44.2520   34.3930   41.5670 C   0  0  0  0  0  0  0  0  0  0  0  0
   45.1330   34.3380   40.6570 O   0  0  0  0  0  0  0  0  0  0  0  0
   44.5940   34.4680   42.9680 C   0  0  0  0  0  0  0  0  0  0  0  0
   44.3050   35.7230   43.6090 C   0  0  0  0  0  0  0  0  0  0  0  0
   44.6210   35.8190   44.9520 C   0  0  0  0  0  0  0  0  0  0  0  0
   45.1720   34.7430   45.5680 N   0  0  0  0  0  0  0  0  0  0  0  0
   45.4280   33.5670   44.9100 C   0  0  0  0  0  0  0  0  0  0  0  0
   45.1380   33.4690   43.6590 N   0  0  0  0  0  0  0  0  0  0  0  0
   43.8810   36.5990   43.2000 H   0  0  0  0  0  0  0  0  0  0  0  0
   44.4570   36.7010   45.5520 H   0  0  0  0  0  0  0  0  0  0  0  0
   46.0210   32.4470   45.6660 C   0  0  1  0  0  0  0  0  0  0  0  0
   46.9720   32.7480   46.8040 C   0  0  0  0  0  0  0  0  0  0  0  0
   45.5570   32.3260   47.0660 C   0  0  1  0  0  0  0  0  0  0  0  0
   46.1530   31.5040   45.1100 H   0  0  0  0  0  0  0  0  0  0  0  0
   47.2730   33.8050   46.8840 H   0  0  0  0  0  0  0  0  0  0  0  0
   47.7280   31.9520   46.9840 H   0  0  0  0  0  0  0  0  0  0  0  0
   45.3600   31.3280   47.4840 H   0  0  0  0  0  0  0  0  0  0  0  0
   44.7670   33.3880   47.6690 N   0  0  0  0  0  0  0  0  0  0  0  0
   45.2130   33.7920   48.4990 H   0  0  0  0  0  0  0  0  0  0  0  0
   43.7740   33.0960   47.7960 H   0  0  0  0  0  0  0  0  0  0  0  0
  1 11  1  0  0  0  0
  1  2  1  0  0  0  0
  2 23  1  0  0  0  0
  3  2  2  0  0  0  0
  3  7  1  0  0  0  0
  4  3  1  0  0  0  0
  5  6  1  0  0  0  0
  5  4  2  0  0  0  0
  6  1  2  0  0  0  0
  8  4  1  0  0  0  0
  9  5  1  0  0  0  0
 10  6  1  0  0  0  0
 11 13  2  0  0  0  0
 12 11  2  0  0  0  0
 15 14  1  0  0  0  0
 16 11  1  0  0  0  0
 16 15  2  0  0  0  0
 17 16  1  0  0  0  0
 18 17  1  0  0  0  0
 19 17  2  0  0  0  0
 19 21  1  0  0  0  0
 20 19  1  0  0  0  0
 21 22  2  0  0  0  0
 22 15  1  0  0  0  0
 23 25  1  0  0  0  0
 24 23  2  0  0  0  0
 25 26  2  0  0  0  0
 25 30  1  0  0  0  0
 26 27  1  0  0  0  0
 27 32  1  0  0  0  0
 27 28  2  0  0  0  0
 29 28  1  0  0  0  0
 29 33  1  0  0  0  0
 30 29  2  0  0  0  0
 31 26  1  0  0  0  0
 33 36  1  6  0  0  0
 33 34  1  0  0  0  0
 33 35  1  0  0  0  0
 34 37  1  0  0  0  0
 34 38  1  0  0  0  0
 34 35  1  0  0  0  0
 35 39  1  1  0  0  0
 35 40  1  0  0  0  0
 40 42  1  0  0  0  0
 40 41  1  0  0  0  0
M  END
>  <minimizedAffinity>
-5.76962185

>  <minimizedRMSD>
0.987816274

$$$$
