
     RDKit          3D

 38 40  0  0  0  0  0  0  0  0999 V2000
   45.6020   33.9019   45.5966 C   0  0  0  0  0  0  0  0  0  0  0  0
   44.7934   35.0011   45.7218 C   0  0  0  0  0  0  0  0  0  0  0  0
   44.4537   35.8461   44.6931 C   0  0  0  0  0  0  0  0  0  0  0  0
   44.9589   35.5745   43.4437 C   0  0  0  0  0  0  0  0  0  0  0  0
   45.7751   34.4813   43.2714 C   0  0  0  0  0  0  0  0  0  0  0  0
   46.0892   33.6565   44.3452 C   0  0  0  0  0  0  0  0  0  0  0  0
   47.5651   31.8475   47.9015 C   0  0  0  0  0  0  0  0  0  0  0  0
   46.6294   31.4398   48.8505 C   0  0  0  0  0  0  0  0  0  0  0  0
   45.3066   31.8742   48.7000 C   0  0  0  0  0  0  0  0  0  0  0  0
   44.9703   32.6730   47.6453 N   0  0  0  0  0  0  0  0  0  0  0  0
   45.9171   33.0542   46.7313 C   0  0  0  0  0  0  0  0  0  0  0  0
   47.1839   32.6293   46.8887 N   0  0  0  0  0  0  0  0  0  0  0  0
   46.9332   32.5806   44.0132 N   0  0  0  0  0  0  0  0  0  0  0  0
   48.2474   32.4153   42.9383 S   0  0  0  0  0  0  0  0  0  0  0  0
   47.6995   32.1946   41.5359 O   0  0  0  0  0  0  0  0  0  0  0  0
   49.1594   33.5963   42.8946 O   0  0  0  0  0  0  0  0  0  0  0  0
   49.0606   30.9975   43.3449 O   0  0  0  0  0  0  0  0  0  0  0  0
   44.3797   35.2415   46.6937 H   0  0  0  0  0  0  0  0  0  0  0  0
   43.8157   36.7128   44.7930 H   0  0  0  0  0  0  0  0  0  0  0  0
   44.7112   36.2230   42.6022 H   0  0  0  0  0  0  0  0  0  0  0  0
   46.1430   34.3177   42.2657 H   0  0  0  0  0  0  0  0  0  0  0  0
   48.6024   31.5406   47.9698 H   0  0  0  0  0  0  0  0  0  0  0  0
   46.9187   30.8041   49.6818 H   0  0  0  0  0  0  0  0  0  0  0  0
   44.5444   31.5824   49.4136 H   0  0  0  0  0  0  0  0  0  0  0  0
   46.6803   31.7137   44.5521 H   0  0  0  0  0  0  0  0  0  0  0  0
   48.1666   32.3400   40.6918 H   0  0  0  0  0  0  0  0  0  0  0  0
   49.0726   34.2816   43.6325 H   0  0  0  0  0  0  0  0  0  0  0  0
   51.8166   30.5626   41.9507 Br  0  0  0  0  0  0  0  0  0  0  0  0
   50.2448   29.5270   41.7023 C   0  0  0  0  0  0  0  0  0  0  0  0
   49.1653   29.9466   42.4510 C   0  0  0  0  0  0  0  0  0  0  0  0
   47.9495   29.2702   42.3603 C   0  0  0  0  0  0  0  0  0  0  0  0
   47.0324   29.4882   42.8838 H   0  0  0  0  0  0  0  0  0  0  0  0
   47.8030   28.1644   41.5166 C   0  0  0  0  0  0  0  0  0  0  0  0
   46.8998   27.5978   41.3971 H   0  0  0  0  0  0  0  0  0  0  0  0
   48.9046   27.7595   40.7715 C   0  0  0  0  0  0  0  0  0  0  0  0
   50.1012   28.4363   40.8699 C   0  0  0  0  0  0  0  0  0  0  0  0
   48.9242   26.9223   40.0835 H   0  0  0  0  0  0  0  0  0  0  0  0
   51.0069   28.1753   40.3158 H   0  0  0  0  0  0  0  0  0  0  0  0
  1  2  2  0
  1 11  1  0
  3  2  1  0
  4  3  2  0
  5  4  1  0
  5  6  2  0
  6  1  1  0
  7  8  2  0
  9  8  1  0
 10  9  2  0
 11 12  2  0
 11 10  1  0
 12  7  1  0
 13  6  1  0
 14 17  1  0
 14 13  1  0
 15 14  1  0
 16 14  1  0
  2 18  1  0
  3 19  1  0
  4 20  1  0
  5 21  1  0
  7 22  1  0
  8 23  1  0
  9 24  1  0
 13 25  1  0
 15 26  1  0
 16 27  1  0
 28 29  1  0
 29 30  2  0
 30 31  1  0
 31 32  1  0
 31 33  2  0
 33 34  1  0
 33 35  1  0
 35 36  2  0
 36 29  1  0
 35 37  1  0
 36 38  1  0
 17 30  1  0
M  ISO  8  18  14  19  14  20  14  21  14  22  14  23  14  24  14  26   3
M  ISO  3  27   3  32  15  34  16
M  END
>  <DihAtoms>  (1) 
13,16,29,28

>  <DihDeg>  (1) 
-89.9996253523172

$$$$
