
 OpenBabel03252509263D

 30 32  0  0  1  0  0  0  0  0999 V2000
   46.8200   34.7970   42.0020 C   0  0  1  0  0  0  0  0  0  0  0  0
   48.1730   35.5550   42.0530 C   0  0  0  0  0  0  0  0  0  0  0  0
   47.9770   34.0540   41.7170 C   0  0  2  0  0  0  0  0  0  0  0  0
   46.1270   35.1790   41.2240 H   0  0  0  0  0  0  0  0  0  0  0  0
   48.3350   36.2250   41.1860 H   0  0  0  0  0  0  0  0  0  0  0  0
   48.6010   35.8100   43.0300 H   0  0  0  0  0  0  0  0  0  0  0  0
   48.4640   33.3920   42.4990 H   0  0  0  0  0  0  0  0  0  0  0  0
   44.6440   35.4150   44.9960 C   0  0  0  0  0  0  0  0  0  0  0  0
   45.2100   35.6040   43.7030 C   0  0  0  0  0  0  0  0  0  0  0  0
   46.1980   34.7340   43.3790 C   0  0  0  0  0  0  0  0  0  0  0  0
   46.6270   33.7360   44.2440 N   0  0  0  0  0  0  0  0  0  0  0  0
   46.0480   33.6090   45.4640 C   0  0  0  0  0  0  0  0  0  0  0  0
   45.0520   34.4570   45.8310 N   0  0  0  0  0  0  0  0  0  0  0  0
   43.8490   36.0820   45.3050 H   0  0  0  0  0  0  0  0  0  0  0  0
   46.4920   32.7900   46.0120 H   0  0  0  0  0  0  0  0  0  0  0  0
   44.8050   36.6340   42.8360 N   0  0  0  0  0  0  0  0  0  0  0  0
   44.2490   36.2110   42.0660 H   0  0  0  0  0  0  0  0  0  0  0  0
   45.0710   37.6420   43.0200 H   0  0  0  0  0  0  0  0  0  0  0  0
   48.2950   33.5710   40.3210 C   0  0  0  0  0  0  0  0  0  0  0  0
   47.7440   34.1660   39.5520 H   0  0  0  0  0  0  0  0  0  0  0  0
   49.3720   33.7220   40.1470 H   0  0  0  0  0  0  0  0  0  0  0  0
   50.7900   31.9500   41.0110 Br  0  0  0  0  0  0  0  0  0  0  0  0
   49.0860   31.2950   40.4790 C   0  0  0  0  0  0  0  0  0  0  0  0
   48.0130   32.1330   40.1880 C   0  0  0  0  0  0  0  0  0  0  0  0
   46.8130   31.5840   39.8100 C   0  0  0  0  0  0  0  0  0  0  0  0
   46.0280   32.3060   39.6000 H   0  0  0  0  0  0  0  0  0  0  0  0
   46.5660   30.2340   39.6890 C   0  0  0  0  0  0  0  0  0  0  0  0
   45.6240   29.8410   39.3930 H   0  0  0  0  0  0  0  0  0  0  0  0
   47.6550   29.4160   39.9850 C   0  0  0  0  0  3  0  0  0  0  0  0
   48.8730   29.9230   40.3680 C   0  0  0  0  0  3  0  0  0  0  0  0
  1  4  1  6  0  0  0
  1  2  1  0  0  0  0
  1 10  1  0  0  0  0
  2  6  1  0  0  0  0
  3  1  1  0  0  0  0
  3  2  1  0  0  0  0
  3  7  1  1  0  0  0
  5  2  1  0  0  0  0
  8 14  1  0  0  0  0
  8 13  1  0  0  0  0
  9  8  2  0  0  0  0
 10  9  1  0  0  0  0
 10 11  2  0  0  0  0
 11 12  1  0  0  0  0
 12 13  2  0  0  0  0
 12 15  1  0  0  0  0
 16 18  1  0  0  0  0
 16  9  1  0  0  0  0
 17 16  1  0  0  0  0
 19  3  1  0  0  0  0
 20 19  1  0  0  0  0
 21 19  1  0  0  0  0
 23 22  1  0  0  0  0
 24 19  1  0  0  0  0
 24 23  2  0  0  0  0
 25 24  1  0  0  0  0
 26 25  1  0  0  0  0
 27 25  2  0  0  0  0
 27 29  1  0  0  0  0
 28 27  1  0  0  0  0
 29 30  2  0  0  0  0
 30 23  1  0  0  0  0
M  END
>  <minimizedAffinity>
-4.30870914

>  <minimizedRMSD>
1.46771872

$$$$
