
 OpenBabel03252503173D

 36 39  0  0  0  0  0  0  0  0999 V2000
   37.7990   31.3190   40.3910 C   0  0  0  0  0  0  0  0  0  0  0  0
   36.8060   32.1100   40.2510 O   0  0  0  0  0  0  0  0  0  0  0  0
   37.7390   30.0370   41.1630 C   0  0  0  0  0  0  0  0  0  0  0  0
   38.6610   29.0140   41.0950 C   0  0  0  0  0  0  0  0  0  0  0  0
   38.2070   28.0760   41.9510 N   0  0  0  0  0  0  0  0  0  0  0  0
   37.0630   28.5090   42.5120 C   0  0  0  0  0  0  0  0  0  0  0  0
   36.7660   29.7250   42.0290 N   0  0  0  0  0  0  0  0  0  0  0  0
   36.2010   27.8900   43.4740 N   0  0  0  0  0  0  0  0  0  0  0  0
   39.5480   28.9530   40.5050 H   0  0  0  0  0  0  0  0  0  0  0  0
   35.1670   27.8980   43.3050 H   0  0  0  0  0  0  0  0  0  0  0  0
   36.6960   27.4610   44.3050 H   0  0  0  0  0  0  0  0  0  0  0  0
   37.1730   25.7040   40.2290 Br  0  0  0  0  0  0  0  0  0  0  0  0
   38.4540   25.6150   41.6340 C   0  0  0  0  0  0  0  0  0  0  0  0
   38.7730   26.8060   42.2760 C   0  0  0  0  0  0  0  0  0  0  0  0
   39.6950   26.8110   43.3040 C   0  0  0  0  0  0  0  0  0  0  0  0
   39.9840   27.7050   43.8410 H   0  0  0  0  0  0  0  0  0  0  0  0
   40.2870   25.6230   43.6790 C   0  0  0  0  0  0  0  0  0  0  0  0
   41.0200   25.5500   44.4790 H   0  0  0  0  0  0  0  0  0  0  0  0
   39.9940   24.4090   43.0610 C   0  0  0  0  0  3  0  0  0  0  0  0
   39.0570   24.4330   42.0230 C   0  0  0  0  0  3  0  0  0  0  0  0
   39.9350   32.5110   40.4540 C   0  0  0  0  0  0  0  0  0  0  0  0
   38.9980   31.7260   39.7570 C   0  0  0  0  0  0  0  0  0  0  0  0
   39.3530   31.4120   38.4660 C   0  0  0  0  0  0  0  0  0  0  0  0
   40.5110   31.8270   37.9160 N   0  0  0  0  0  0  0  0  0  0  0  0
   41.3790   32.5830   38.6320 C   0  0  0  0  0  0  0  0  0  0  0  0
   41.0850   32.9190   39.8940 N   0  0  0  0  0  0  0  0  0  0  0  0
   39.7610   32.8180   41.4790 H   0  0  0  0  0  0  0  0  0  0  0  0
   42.2900   32.8860   38.1380 H   0  0  0  0  0  0  0  0  0  0  0  0
   38.4690   30.6250   37.6870 C   0  0  0  0  0  0  0  0  0  0  0  0
   37.3190   30.8610   37.0020 C   0  0  0  0  0  0  0  0  0  0  0  0
   36.6930   29.9070   36.3460 C   0  0  0  0  0  0  0  0  0  0  0  0
   37.2340   28.6700   36.3750 C   0  0  0  0  0  0  0  0  0  0  0  0
   38.7260   28.8870   37.4000 S   0  0  0  0  0  0  0  0  0  0  0  0
   36.9690   31.9120   37.0500 H   0  0  0  0  0  0  0  0  0  0  0  0
   35.7770   30.0130   35.7790 H   0  0  0  0  0  0  0  0  0  0  0  0
   36.9310   27.7040   35.9260 H   0  0  0  0  0  0  0  0  0  0  0  0
  1  3  1  0  0  0  0
  2  1  2  0  0  0  0
  3  7  1  0  0  0  0
  4  3  2  0  0  0  0
  4  5  1  0  0  0  0
  5 14  1  0  0  0  0
  5  6  1  0  0  0  0
  6  8  1  0  0  0  0
  7  6  2  0  0  0  0
  8 11  1  0  0  0  0
  9  4  1  0  0  0  0
 10  8  1  0  0  0  0
 12 13  1  0  0  0  0
 13 20  2  0  0  0  0
 13 14  1  0  0  0  0
 14 15  2  0  0  0  0
 15 17  1  0  0  0  0
 15 16  1  0  0  0  0
 17 18  1  0  0  0  0
 19 17  2  0  0  0  0
 20 19  1  0  0  0  0
 21 27  1  0  0  0  0
 22  1  1  0  0  0  0
 22 21  2  0  0  0  0
 23 22  1  0  0  0  0
 24 23  2  0  0  0  0
 24 25  1  0  0  0  0
 25 26  2  0  0  0  0
 26 21  1  0  0  0  0
 28 25  1  0  0  0  0
 29 23  1  0  0  0  0
 30 34  1  0  0  0  0
 30 29  2  0  0  0  0
 31 32  2  0  0  0  0
 31 30  1  0  0  0  0
 32 33  1  0  0  0  0
 33 29  1  0  0  0  0
 35 31  1  0  0  0  0
 36 32  1  0  0  0  0
M  END
>  <minimizedAffinity>
-5.95498371

$$$$

 OpenBabel03252503173D

 36 39  0  0  0  0  0  0  0  0999 V2000
   36.0490   29.2910   39.5550 C   0  0  0  0  0  0  0  0  0  0  0  0
   35.0840   29.6850   40.2930 O   0  0  0  0  0  0  0  0  0  0  0  0
   37.1140   30.2000   39.0240 C   0  0  0  0  0  0  0  0  0  0  0  0
   38.2550   30.5820   39.6990 C   0  0  0  0  0  0  0  0  0  0  0  0
   38.9120   31.3920   38.8460 N   0  0  0  0  0  0  0  0  0  0  0  0
   38.2040   31.4980   37.7050 C   0  0  0  0  0  0  0  0  0  0  0  0
   37.0880   30.7610   37.8080 N   0  0  0  0  0  0  0  0  0  0  0  0
   38.4700   32.2330   36.5050 N   0  0  0  0  0  0  0  0  0  0  0  0
   38.5720   30.3090   40.6810 H   0  0  0  0  0  0  0  0  0  0  0  0
   37.6990   32.8000   36.0790 H   0  0  0  0  0  0  0  0  0  0  0  0
   39.4570   32.1390   36.1340 H   0  0  0  0  0  0  0  0  0  0  0  0
   38.7000   34.1610   40.2400 Br  0  0  0  0  0  0  0  0  0  0  0  0
   40.2910   33.3180   39.6270 C   0  0  0  0  0  0  0  0  0  0  0  0
   40.1550   32.0710   39.0270 C   0  0  0  0  0  0  0  0  0  0  0  0
   41.2700   31.4040   38.5590 C   0  0  0  0  0  0  0  0  0  0  0  0
   41.2290   30.4330   38.0840 H   0  0  0  0  0  0  0  0  0  0  0  0
   42.5100   31.9940   38.6960 C   0  0  0  0  0  0  0  0  0  0  0  0
   43.4320   31.5290   38.3520 H   0  0  0  0  0  0  0  0  0  0  0  0
   42.6870   33.2410   39.2910 C   0  0  0  0  0  3  0  0  0  0  0  0
   41.5420   33.8930   39.7550 C   0  0  0  0  0  3  0  0  0  0  0  0
   35.5140   27.4410   38.0450 C   0  0  0  0  0  0  0  0  0  0  0  0
   36.0630   27.9070   39.2540 C   0  0  0  0  0  0  0  0  0  0  0  0
   36.5870   26.9290   40.0660 C   0  0  0  0  0  0  0  0  0  0  0  0
   36.5740   25.6260   39.7250 N   0  0  0  0  0  0  0  0  0  0  0  0
   36.0320   25.2290   38.5480 C   0  0  0  0  0  0  0  0  0  0  0  0
   35.5070   26.1390   37.7170 N   0  0  0  0  0  0  0  0  0  0  0  0
   35.0740   28.1220   37.3260 H   0  0  0  0  0  0  0  0  0  0  0  0
   36.0490   24.1730   38.3300 H   0  0  0  0  0  0  0  0  0  0  0  0
   37.1600   27.3060   41.3060 C   0  0  0  0  0  0  0  0  0  0  0  0
   36.6740   27.6130   42.5380 C   0  0  0  0  0  0  0  0  0  0  0  0
   37.4680   27.9380   43.5360 C   0  0  0  0  0  0  0  0  0  0  0  0
   38.7980   27.9590   43.2970 C   0  0  0  0  0  0  0  0  0  0  0  0
   38.9160   27.4850   41.5410 S   0  0  0  0  0  0  0  0  0  0  0  0
   35.5700   27.5630   42.6160 H   0  0  0  0  0  0  0  0  0  0  0  0
   37.1620   28.1940   44.5430 H   0  0  0  0  0  0  0  0  0  0  0  0
   39.6740   28.1900   43.9330 H   0  0  0  0  0  0  0  0  0  0  0  0
  1  2  2  0  0  0  0
  3  1  1  0  0  0  0
  3  4  2  0  0  0  0
  4  9  1  0  0  0  0
  5 14  1  0  0  0  0
  5  4  1  0  0  0  0
  6  7  2  0  0  0  0
  6  5  1  0  0  0  0
  7  3  1  0  0  0  0
  8  6  1  0  0  0  0
 10  8  1  0  0  0  0
 11  8  1  0  0  0  0
 13 20  1  0  0  0  0
 13 12  1  0  0  0  0
 14 13  2  0  0  0  0
 15 17  2  0  0  0  0
 15 14  1  0  0  0  0
 16 15  1  0  0  0  0
 17 19  1  0  0  0  0
 18 17  1  0  0  0  0
 19 20  2  0  0  0  0
 21 22  1  0  0  0  0
 22  1  1  0  0  0  0
 22 23  2  0  0  0  0
 23 29  1  0  0  0  0
 24 23  1  0  0  0  0
 25 24  2  0  0  0  0
 26 21  2  0  0  0  0
 26 25  1  0  0  0  0
 27 21  1  0  0  0  0
 28 25  1  0  0  0  0
 29 33  1  0  0  0  0
 29 30  2  0  0  0  0
 30 34  1  0  0  0  0
 30 31  1  0  0  0  0
 31 35  1  0  0  0  0
 32 31  2  0  0  0  0
 32 36  1  0  0  0  0
 33 32  1  0  0  0  0
M  END
>  <minimizedAffinity>
-5.94305992

$$$$

 OpenBabel03252503173D

 36 39  0  0  0  0  0  0  0  0999 V2000
   40.2890   32.9260   40.1940 C   0  0  0  0  0  0  0  0  0  0  0  0
   40.4260   34.0990   40.6790 O   0  0  0  0  0  0  0  0  0  0  0  0
   39.2020   31.9790   40.6020 C   0  0  0  0  0  0  0  0  0  0  0  0
   39.3850   30.6830   41.0370 C   0  0  0  0  0  0  0  0  0  0  0  0
   38.1460   30.2200   41.2890 N   0  0  0  0  0  0  0  0  0  0  0  0
   37.2500   31.1890   41.0200 C   0  0  0  0  0  0  0  0  0  0  0  0
   37.8980   32.2830   40.5940 N   0  0  0  0  0  0  0  0  0  0  0  0
   35.8220   31.1960   41.1240 N   0  0  0  0  0  0  0  0  0  0  0  0
   40.2980   30.1430   41.1570 H   0  0  0  0  0  0  0  0  0  0  0  0
   35.2600   31.5830   40.3300 H   0  0  0  0  0  0  0  0  0  0  0  0
   35.4380   30.7970   42.0260 H   0  0  0  0  0  0  0  0  0  0  0  0
   37.5710   28.1250   39.0670 Br  0  0  0  0  0  0  0  0  0  0  0  0
   37.4400   27.8520   40.9450 C   0  0  0  0  0  0  0  0  0  0  0  0
   37.7450   28.9340   41.7640 C   0  0  0  0  0  0  0  0  0  0  0  0
   37.6700   28.8040   43.1370 C   0  0  0  0  0  0  0  0  0  0  0  0
   37.8940   29.6080   43.8250 H   0  0  0  0  0  0  0  0  0  0  0  0
   37.2900   27.5920   43.6750 C   0  0  0  0  0  0  0  0  0  0  0  0
   37.2080   27.4160   44.7460 H   0  0  0  0  0  0  0  0  0  0  0  0
   36.9760   26.4860   42.8890 C   0  0  0  0  0  3  0  0  0  0  0  0
   37.0610   26.6450   41.5030 C   0  0  0  0  0  3  0  0  0  0  0  0
   40.9200   32.6060   37.8520 C   0  0  0  0  0  0  0  0  0  0  0  0
   41.2460   32.5510   39.2190 C   0  0  0  0  0  0  0  0  0  0  0  0
   42.5230   32.1200   39.4930 C   0  0  0  0  0  0  0  0  0  0  0  0
   43.3910   31.7770   38.5210 N   0  0  0  0  0  0  0  0  0  0  0  0
   43.0260   31.8480   37.2180 C   0  0  0  0  0  0  0  0  0  0  0  0
   41.7940   32.2610   36.8930 N   0  0  0  0  0  0  0  0  0  0  0  0
   39.9420   32.9320   37.5180 H   0  0  0  0  0  0  0  0  0  0  0  0
   43.7640   31.5600   36.4850 H   0  0  0  0  0  0  0  0  0  0  0  0
   42.9380   32.0300   40.8450 C   0  0  0  0  0  0  0  0  0  0  0  0
   42.8710   31.0780   41.8130 C   0  0  0  0  0  0  0  0  0  0  0  0
   43.3570   31.2790   43.0190 C   0  0  0  0  0  0  0  0  0  0  0  0
   43.9320   32.4750   43.2710 C   0  0  0  0  0  0  0  0  0  0  0  0
   43.7670   33.3620   41.6870 S   0  0  0  0  0  0  0  0  0  0  0  0
   42.3770   30.1390   41.4920 H   0  0  0  0  0  0  0  0  0  0  0  0
   43.3430   30.5750   43.8420 H   0  0  0  0  0  0  0  0  0  0  0  0
   44.4110   32.9070   44.1710 H   0  0  0  0  0  0  0  0  0  0  0  0
  1  3  1  0  0  0  0
  1  2  2  0  0  0  0
  3  4  2  0  0  0  0
  4  9  1  0  0  0  0
  4  5  1  0  0  0  0
  5 14  1  0  0  0  0
  6  8  1  0  0  0  0
  6  5  1  0  0  0  0
  7  3  1  0  0  0  0
  7  6  2  0  0  0  0
  8 11  1  0  0  0  0
 10  8  1  0  0  0  0
 12 13  1  0  0  0  0
 13 20  2  0  0  0  0
 13 14  1  0  0  0  0
 14 15  2  0  0  0  0
 15 17  1  0  0  0  0
 15 16  1  0  0  0  0
 17 18  1  0  0  0  0
 19 17  2  0  0  0  0
 20 19  1  0  0  0  0
 21 22  1  0  0  0  0
 22 23  2  0  0  0  0
 22  1  1  0  0  0  0
 23 29  1  0  0  0  0
 24 23  1  0  0  0  0
 25 24  2  0  0  0  0
 26 25  1  0  0  0  0
 26 21  2  0  0  0  0
 27 21  1  0  0  0  0
 28 25  1  0  0  0  0
 29 33  1  0  0  0  0
 29 30  2  0  0  0  0
 30 31  1  0  0  0  0
 31 32  2  0  0  0  0
 31 35  1  0  0  0  0
 32 36  1  0  0  0  0
 33 32  1  0  0  0  0
 34 30  1  0  0  0  0
M  END
>  <minimizedAffinity>
-5.92634058

$$$$

 OpenBabel03252503173D

 36 39  0  0  0  0  0  0  0  0999 V2000
   41.2610   30.9880   41.0300 C   0  0  0  0  0  0  0  0  0  0  0  0
   41.9130   31.7340   41.8360 O   0  0  0  0  0  0  0  0  0  0  0  0
   40.1740   30.0510   41.4580 C   0  0  0  0  0  0  0  0  0  0  0  0
   39.9970   28.7620   41.0000 C   0  0  0  0  0  0  0  0  0  0  0  0
   38.9100   28.3050   41.6520 N   0  0  0  0  0  0  0  0  0  0  0  0
   38.4470   29.2710   42.4680 C   0  0  0  0  0  0  0  0  0  0  0  0
   39.2260   30.3570   42.3530 N   0  0  0  0  0  0  0  0  0  0  0  0
   37.3280   29.2830   43.3620 N   0  0  0  0  0  0  0  0  0  0  0  0
   40.5800   28.2210   40.2880 H   0  0  0  0  0  0  0  0  0  0  0  0
   36.6860   30.1100   43.3560 H   0  0  0  0  0  0  0  0  0  0  0  0
   37.2390   28.4250   43.9760 H   0  0  0  0  0  0  0  0  0  0  0  0
   39.9420   26.1870   43.6790 Br  0  0  0  0  0  0  0  0  0  0  0  0
   38.5840   25.9390   42.3700 C   0  0  0  0  0  0  0  0  0  0  0  0
   38.2770   27.0280   41.5620 C   0  0  0  0  0  0  0  0  0  0  0  0
   37.3010   26.9150   40.5920 C   0  0  0  0  0  0  0  0  0  0  0  0
   37.0180   27.7260   39.9330 H   0  0  0  0  0  0  0  0  0  0  0  0
   36.6420   25.7120   40.4410 C   0  0  0  0  0  0  0  0  0  0  0  0
   35.8640   25.5500   39.6980 H   0  0  0  0  0  0  0  0  0  0  0  0
   36.9210   24.5990   41.2300 C   0  0  0  0  0  3  0  0  0  0  0  0
   37.9130   24.7410   42.2040 C   0  0  0  0  0  3  0  0  0  0  0  0
   42.7620   30.4160   39.1830 C   0  0  0  0  0  0  0  0  0  0  0  0
   41.6280   31.0950   39.6660 C   0  0  0  0  0  0  0  0  0  0  0  0
   40.9510   31.8330   38.7240 C   0  0  0  0  0  0  0  0  0  0  0  0
   41.3470   31.8960   37.4380 N   0  0  0  0  0  0  0  0  0  0  0  0
   42.4480   31.2220   37.0240 C   0  0  0  0  0  0  0  0  0  0  0  0
   43.1460   30.4880   37.9000 N   0  0  0  0  0  0  0  0  0  0  0  0
   43.3720   29.8030   39.8370 H   0  0  0  0  0  0  0  0  0  0  0  0
   42.7170   31.3110   35.9830 H   0  0  0  0  0  0  0  0  0  0  0  0
   39.7970   32.5530   39.1200 C   0  0  0  0  0  0  0  0  0  0  0  0
   39.5680   33.7250   39.7710 C   0  0  0  0  0  0  0  0  0  0  0  0
   38.3490   34.1600   40.0090 C   0  0  0  0  0  0  0  0  0  0  0  0
   37.3180   33.3990   39.5830 C   0  0  0  0  0  0  0  0  0  0  0  0
   38.1440   31.9770   38.7950 S   0  0  0  0  0  0  0  0  0  0  0  0
   40.4890   34.2620   40.0740 H   0  0  0  0  0  0  0  0  0  0  0  0
   38.0840   35.0780   40.5190 H   0  0  0  0  0  0  0  0  0  0  0  0
   36.2190   33.5160   39.6440 H   0  0  0  0  0  0  0  0  0  0  0  0
  1  3  1  0  0  0  0
  1  2  2  0  0  0  0
  3  7  1  0  0  0  0
  4  3  2  0  0  0  0
  4  5  1  0  0  0  0
  5  6  1  0  0  0  0
  6  8  1  0  0  0  0
  7  6  2  0  0  0  0
  8 11  1  0  0  0  0
  9  4  1  0  0  0  0
 10  8  1  0  0  0  0
 13 12  1  0  0  0  0
 14  5  1  0  0  0  0
 14 13  2  0  0  0  0
 15 14  1  0  0  0  0
 16 15  1  0  0  0  0
 17 15  2  0  0  0  0
 17 19  1  0  0  0  0
 18 17  1  0  0  0  0
 19 20  2  0  0  0  0
 20 13  1  0  0  0  0
 21 22  1  0  0  0  0
 21 27  1  0  0  0  0
 22  1  1  0  0  0  0
 23 29  1  0  0  0  0
 23 22  2  0  0  0  0
 24 23  1  0  0  0  0
 25 24  2  0  0  0  0
 25 26  1  0  0  0  0
 26 21  2  0  0  0  0
 28 25  1  0  0  0  0
 29 30  2  0  0  0  0
 30 31  1  0  0  0  0
 30 34  1  0  0  0  0
 31 35  1  0  0  0  0
 32 36  1  0  0  0  0
 32 31  2  0  0  0  0
 33 29  1  0  0  0  0
 33 32  1  0  0  0  0
M  END
>  <minimizedAffinity>
-5.85882854

$$$$

 OpenBabel03252503173D

 36 39  0  0  0  0  0  0  0  0999 V2000
   37.5500   30.8110   40.6650 C   0  0  0  0  0  0  0  0  0  0  0  0
   36.6950   31.7370   40.8690 O   0  0  0  0  0  0  0  0  0  0  0  0
   38.6190   30.8810   39.6170 C   0  0  0  0  0  0  0  0  0  0  0  0
   39.6920   30.0230   39.5050 C   0  0  0  0  0  0  0  0  0  0  0  0
   40.3800   30.4610   38.4320 N   0  0  0  0  0  0  0  0  0  0  0  0
   39.7540   31.5360   37.9160 C   0  0  0  0  0  0  0  0  0  0  0  0
   38.6600   31.8020   38.6460 N   0  0  0  0  0  0  0  0  0  0  0  0
   40.0800   32.3560   36.7880 N   0  0  0  0  0  0  0  0  0  0  0  0
   39.9450   29.1870   40.1190 H   0  0  0  0  0  0  0  0  0  0  0  0
   40.0390   33.3970   36.8920 H   0  0  0  0  0  0  0  0  0  0  0  0
   40.3450   31.8230   35.9120 H   0  0  0  0  0  0  0  0  0  0  0  0
   43.0010   31.7430   39.5030 Br  0  0  0  0  0  0  0  0  0  0  0  0
   42.8610   30.3700   38.1930 C   0  0  0  0  0  0  0  0  0  0  0  0
   41.5810   29.9420   37.8600 C   0  0  0  0  0  0  0  0  0  0  0  0
   41.4080   28.9480   36.9170 C   0  0  0  0  0  0  0  0  0  0  0  0
   40.4390   28.5730   36.6150 H   0  0  0  0  0  0  0  0  0  0  0  0
   42.5200   28.3940   36.3160 C   0  0  0  0  0  0  0  0  0  0  0  0
   42.4620   27.6100   35.5650 H   0  0  0  0  0  0  0  0  0  0  0  0
   43.8180   28.7960   36.6220 C   0  0  0  0  0  3  0  0  0  0  0  0
   43.9640   29.8030   37.5810 C   0  0  0  0  0  3  0  0  0  0  0  0
   38.1820   29.6020   42.6960 C   0  0  0  0  0  0  0  0  0  0  0  0
   37.4360   29.6770   41.5060 C   0  0  0  0  0  0  0  0  0  0  0  0
   36.6270   28.5920   41.2610 C   0  0  0  0  0  0  0  0  0  0  0  0
   36.5590   27.5400   42.1000 N   0  0  0  0  0  0  0  0  0  0  0  0
   37.3000   27.5180   43.2340 C   0  0  0  0  0  0  0  0  0  0  0  0
   38.1060   28.5480   43.5240 N   0  0  0  0  0  0  0  0  0  0  0  0
   38.8530   30.4010   42.9920 H   0  0  0  0  0  0  0  0  0  0  0  0
   37.2040   26.6490   43.8670 H   0  0  0  0  0  0  0  0  0  0  0  0
   35.8400   28.5790   40.0830 C   0  0  0  0  0  0  0  0  0  0  0  0
   34.6170   29.0620   39.7360 C   0  0  0  0  0  0  0  0  0  0  0  0
   34.1230   28.8960   38.5280 C   0  0  0  0  0  0  0  0  0  0  0  0
   34.8750   28.2210   37.6310 C   0  0  0  0  0  0  0  0  0  0  0  0
   36.3770   27.8020   38.5740 S   0  0  0  0  0  0  0  0  0  0  0  0
   34.0920   29.5980   40.5520 H   0  0  0  0  0  0  0  0  0  0  0  0
   33.1620   29.2470   38.1740 H   0  0  0  0  0  0  0  0  0  0  0  0
   34.7140   27.9390   36.5720 H   0  0  0  0  0  0  0  0  0  0  0  0
  1  2  2  0  0  0  0
  1 22  1  0  0  0  0
  3  1  1  0  0  0  0
  4  3  2  0  0  0  0
  4  9  1  0  0  0  0
  5  4  1  0  0  0  0
  6  5  1  0  0  0  0
  6  7  2  0  0  0  0
  7  3  1  0  0  0  0
  8 10  1  0  0  0  0
  8  6  1  0  0  0  0
 11  8  1  0  0  0  0
 13 12  1  0  0  0  0
 14 13  1  0  0  0  0
 14  5  1  0  0  0  0
 15 14  2  0  0  0  0
 16 15  1  0  0  0  0
 17 19  2  0  0  0  0
 17 15  1  0  0  0  0
 18 17  1  0  0  0  0
 19 20  1  0  0  0  0
 20 13  2  0  0  0  0
 21 27  1  0  0  0  0
 21 26  1  0  0  0  0
 22 21  2  0  0  0  0
 23 22  1  0  0  0  0
 23 24  2  0  0  0  0
 24 25  1  0  0  0  0
 25 26  2  0  0  0  0
 25 28  1  0  0  0  0
 29 23  1  0  0  0  0
 30 29  2  0  0  0  0
 30 34  1  0  0  0  0
 31 30  1  0  0  0  0
 32 31  2  0  0  0  0
 32 33  1  0  0  0  0
 33 29  1  0  0  0  0
 35 31  1  0  0  0  0
 36 32  1  0  0  0  0
M  END
>  <minimizedAffinity>
-5.72553396

$$$$

 OpenBabel03252503173D

 36 39  0  0  0  0  0  0  0  0999 V2000
   36.2770   29.5500   39.6470 C   0  0  0  0  0  0  0  0  0  0  0  0
   35.3180   29.9850   40.3700 O   0  0  0  0  0  0  0  0  0  0  0  0
   37.4410   30.3890   39.2180 C   0  0  0  0  0  0  0  0  0  0  0  0
   38.4880   30.7840   40.0240 C   0  0  0  0  0  0  0  0  0  0  0  0
   39.2910   31.5130   39.2240 N   0  0  0  0  0  0  0  0  0  0  0  0
   38.7560   31.5600   37.9880 C   0  0  0  0  0  0  0  0  0  0  0  0
   37.6090   30.8640   37.9770 N   0  0  0  0  0  0  0  0  0  0  0  0
   39.2180   32.2010   36.7940 N   0  0  0  0  0  0  0  0  0  0  0  0
   38.6520   30.5710   41.0570 H   0  0  0  0  0  0  0  0  0  0  0  0
   38.5380   32.7590   36.2250 H   0  0  0  0  0  0  0  0  0  0  0  0
   40.2430   32.0530   36.5760 H   0  0  0  0  0  0  0  0  0  0  0  0
   41.8420   29.8060   38.7380 Br  0  0  0  0  0  0  0  0  0  0  0  0
   41.7780   31.5900   39.3950 C   0  0  0  0  0  0  0  0  0  0  0  0
   40.5210   32.1670   39.5370 C   0  0  0  0  0  0  0  0  0  0  0  0
   40.4030   33.4590   40.0090 C   0  0  0  0  0  0  0  0  0  0  0  0
   39.4540   33.9620   40.1420 H   0  0  0  0  0  0  0  0  0  0  0  0
   41.5460   34.1600   40.3360 C   0  0  0  0  0  0  0  0  0  0  0  0
   41.5310   35.1800   40.7140 H   0  0  0  0  0  0  0  0  0  0  0  0
   42.8220   33.6180   40.2080 C   0  0  0  0  0  3  0  0  0  0  0  0
   42.9120   32.3080   39.7280 C   0  0  0  0  0  3  0  0  0  0  0  0
   35.6440   27.8490   38.0060 C   0  0  0  0  0  0  0  0  0  0  0  0
   36.1830   28.1910   39.2600 C   0  0  0  0  0  0  0  0  0  0  0  0
   36.5870   27.1240   40.0270 C   0  0  0  0  0  0  0  0  0  0  0  0
   36.4740   25.8490   39.6040 N   0  0  0  0  0  0  0  0  0  0  0  0
   35.9470   25.5740   38.3860 C   0  0  0  0  0  0  0  0  0  0  0  0
   35.5360   26.5750   37.5970 N   0  0  0  0  0  0  0  0  0  0  0  0
   35.2930   28.6090   37.3170 H   0  0  0  0  0  0  0  0  0  0  0  0
   35.8810   24.5350   38.1020 H   0  0  0  0  0  0  0  0  0  0  0  0
   37.1410   27.3730   41.3070 C   0  0  0  0  0  0  0  0  0  0  0  0
   36.6340   27.6130   42.5450 C   0  0  0  0  0  0  0  0  0  0  0  0
   37.4130   27.8160   43.5870 C   0  0  0  0  0  0  0  0  0  0  0  0
   38.7490   27.7790   43.3860 C   0  0  0  0  0  0  0  0  0  0  0  0
   38.8950   27.4320   41.6020 S   0  0  0  0  0  0  0  0  0  0  0  0
   35.5270   27.6210   42.5890 H   0  0  0  0  0  0  0  0  0  0  0  0
   37.0900   28.0130   44.6010 H   0  0  0  0  0  0  0  0  0  0  0  0
   39.6170   27.9110   44.0610 H   0  0  0  0  0  0  0  0  0  0  0  0
  1  2  2  0  0  0  0
  3  1  1  0  0  0  0
  3  4  2  0  0  0  0
  4  9  1  0  0  0  0
  5 14  1  0  0  0  0
  5  4  1  0  0  0  0
  6  5  1  0  0  0  0
  7  6  2  0  0  0  0
  7  3  1  0  0  0  0
  8  6  1  0  0  0  0
 10  8  1  0  0  0  0
 11  8  1  0  0  0  0
 12 13  1  0  0  0  0
 13 14  2  0  0  0  0
 13 20  1  0  0  0  0
 14 15  1  0  0  0  0
 15 16  1  0  0  0  0
 15 17  2  0  0  0  0
 17 18  1  0  0  0  0
 19 17  1  0  0  0  0
 20 19  2  0  0  0  0
 21 22  1  0  0  0  0
 22  1  1  0  0  0  0
 22 23  2  0  0  0  0
 23 29  1  0  0  0  0
 24 23  1  0  0  0  0
 25 24  2  0  0  0  0
 26 21  2  0  0  0  0
 26 25  1  0  0  0  0
 27 21  1  0  0  0  0
 28 25  1  0  0  0  0
 29 33  1  0  0  0  0
 29 30  2  0  0  0  0
 30 34  1  0  0  0  0
 30 31  1  0  0  0  0
 31 35  1  0  0  0  0
 32 31  2  0  0  0  0
 32 36  1  0  0  0  0
 33 32  1  0  0  0  0
M  END
>  <minimizedAffinity>
-5.71993637

$$$$

 OpenBabel03252503173D

 36 39  0  0  0  0  0  0  0  0999 V2000
   41.4150   32.8230   38.5550 C   0  0  0  0  0  0  0  0  0  0  0  0
   41.4430   33.3900   37.4110 O   0  0  0  0  0  0  0  0  0  0  0  0
   40.1580   32.3460   39.2160 C   0  0  0  0  0  0  0  0  0  0  0  0
   39.9410   31.0760   39.7080 C   0  0  0  0  0  0  0  0  0  0  0  0
   38.6890   31.1030   40.2070 N   0  0  0  0  0  0  0  0  0  0  0  0
   38.1690   32.3320   40.0260 C   0  0  0  0  0  0  0  0  0  0  0  0
   39.0750   33.1080   39.4120 N   0  0  0  0  0  0  0  0  0  0  0  0
   36.8870   32.8650   40.3750 N   0  0  0  0  0  0  0  0  0  0  0  0
   40.6020   30.2380   39.7080 H   0  0  0  0  0  0  0  0  0  0  0  0
   36.3630   33.4270   39.6630 H   0  0  0  0  0  0  0  0  0  0  0  0
   36.5630   32.6410   41.3580 H   0  0  0  0  0  0  0  0  0  0  0  0
   36.6870   29.6110   38.3570 Br  0  0  0  0  0  0  0  0  0  0  0  0
   37.0040   29.2640   40.2010 C   0  0  0  0  0  0  0  0  0  0  0  0
   37.9500   30.0580   40.8400 C   0  0  0  0  0  0  0  0  0  0  0  0
   38.2280   29.8590   42.1780 C   0  0  0  0  0  0  0  0  0  0  0  0
   38.9530   30.4430   42.7300 H   0  0  0  0  0  0  0  0  0  0  0  0
   37.5550   28.8680   42.8620 C   0  0  0  0  0  0  0  0  0  0  0  0
   37.7210   28.6540   43.9160 H   0  0  0  0  0  0  0  0  0  0  0  0
   36.6010   28.0530   42.2580 C   0  0  0  0  0  3  0  0  0  0  0  0
   36.3390   28.2750   40.9030 C   0  0  0  0  0  3  0  0  0  0  0  0
   43.0170   33.4630   40.2890 C   0  0  0  0  0  0  0  0  0  0  0  0
   42.6710   32.6590   39.1870 C   0  0  0  0  0  0  0  0  0  0  0  0
   43.6300   31.7480   38.8120 C   0  0  0  0  0  0  0  0  0  0  0  0
   44.8090   31.6370   39.4550 N   0  0  0  0  0  0  0  0  0  0  0  0
   45.0930   32.4360   40.5110 C   0  0  0  0  0  0  0  0  0  0  0  0
   44.1960   33.3430   40.9210 N   0  0  0  0  0  0  0  0  0  0  0  0
   42.3380   34.2150   40.6730 H   0  0  0  0  0  0  0  0  0  0  0  0
   46.0530   32.3020   40.9860 H   0  0  0  0  0  0  0  0  0  0  0  0
   43.3690   30.8970   37.7100 C   0  0  0  0  0  0  0  0  0  0  0  0
   43.5920   30.9590   36.3700 C   0  0  0  0  0  0  0  0  0  0  0  0
   43.2300   29.9870   35.5600 C   0  0  0  0  0  0  0  0  0  0  0  0
   42.6210   28.9120   36.1060 C   0  0  0  0  0  0  0  0  0  0  0  0
   42.5660   29.3170   37.8820 S   0  0  0  0  0  0  0  0  0  0  0  0
   44.0970   31.8880   36.0370 H   0  0  0  0  0  0  0  0  0  0  0  0
   43.3700   29.9610   34.4870 H   0  0  0  0  0  0  0  0  0  0  0  0
   42.2200   27.9740   35.6750 H   0  0  0  0  0  0  0  0  0  0  0  0
  1 22  1  0  0  0  0
  1  3  1  0  0  0  0
  2  1  2  0  0  0  0
  3  7  1  0  0  0  0
  3  4  2  0  0  0  0
  4  5  1  0  0  0  0
  5 14  1  0  0  0  0
  6  5  1  0  0  0  0
  6  8  1  0  0  0  0
  7  6  2  0  0  0  0
  8 11  1  0  0  0  0
  9  4  1  0  0  0  0
 10  8  1  0  0  0  0
 12 13  1  0  0  0  0
 13 14  2  0  0  0  0
 13 20  1  0  0  0  0
 14 15  1  0  0  0  0
 15 16  1  0  0  0  0
 15 17  2  0  0  0  0
 17 18  1  0  0  0  0
 19 17  1  0  0  0  0
 20 19  2  0  0  0  0
 21 27  1  0  0  0  0
 21 26  1  0  0  0  0
 22 21  2  0  0  0  0
 23 22  1  0  0  0  0
 23 24  2  0  0  0  0
 24 25  1  0  0  0  0
 25 26  2  0  0  0  0
 25 28  1  0  0  0  0
 29 33  1  0  0  0  0
 29 23  1  0  0  0  0
 30 29  2  0  0  0  0
 31 32  2  0  0  0  0
 31 30  1  0  0  0  0
 32 33  1  0  0  0  0
 34 30  1  0  0  0  0
 35 31  1  0  0  0  0
 36 32  1  0  0  0  0
M  END
>  <minimizedAffinity>
-5.61257792

$$$$

 OpenBabel03252503173D

 36 39  0  0  0  0  0  0  0  0999 V2000
   38.7780   31.4730   38.4410 C   0  0  0  0  0  0  0  0  0  0  0  0
   38.7050   31.7000   37.1870 O   0  0  0  0  0  0  0  0  0  0  0  0
   37.9450   30.4500   39.1520 C   0  0  0  0  0  0  0  0  0  0  0  0
   38.3420   29.1670   39.4650 C   0  0  0  0  0  0  0  0  0  0  0  0
   37.2840   28.6170   40.0920 N   0  0  0  0  0  0  0  0  0  0  0  0
   36.2900   29.5230   40.1570 C   0  0  0  0  0  0  0  0  0  0  0  0
   36.6930   30.6630   39.5760 N   0  0  0  0  0  0  0  0  0  0  0  0
   34.9750   29.4300   40.7180 N   0  0  0  0  0  0  0  0  0  0  0  0
   39.2760   28.6900   39.2670 H   0  0  0  0  0  0  0  0  0  0  0  0
   34.1620   29.7830   40.1600 H   0  0  0  0  0  0  0  0  0  0  0  0
   34.9320   28.9990   41.6830 H   0  0  0  0  0  0  0  0  0  0  0  0
   37.8010   28.3970   43.1480 Br  0  0  0  0  0  0  0  0  0  0  0  0
   37.3260   26.9790   41.9730 C   0  0  0  0  0  0  0  0  0  0  0  0
   37.1410   27.3030   40.6330 C   0  0  0  0  0  0  0  0  0  0  0  0
   36.7950   26.3210   39.7260 C   0  0  0  0  0  0  0  0  0  0  0  0
   36.6380   26.5100   38.6720 H   0  0  0  0  0  0  0  0  0  0  0  0
   36.6390   25.0240   40.1700 C   0  0  0  0  0  0  0  0  0  0  0  0
   36.3690   24.1990   39.5140 H   0  0  0  0  0  0  0  0  0  0  0  0
   36.8150   24.6590   41.5030 C   0  0  0  0  0  3  0  0  0  0  0  0
   37.1650   25.6730   42.3990 C   0  0  0  0  0  3  0  0  0  0  0  0
   39.2910   33.3870   39.8770 C   0  0  0  0  0  0  0  0  0  0  0  0
   39.7180   32.2600   39.1510 C   0  0  0  0  0  0  0  0  0  0  0  0
   41.0700   32.0160   39.2040 C   0  0  0  0  0  0  0  0  0  0  0  0
   41.9170   32.8010   39.8990 N   0  0  0  0  0  0  0  0  0  0  0  0
   41.4530   33.8760   40.5810 C   0  0  0  0  0  0  0  0  0  0  0  0
   40.1440   34.1610   40.5650 N   0  0  0  0  0  0  0  0  0  0  0  0
   38.2460   33.6740   39.9080 H   0  0  0  0  0  0  0  0  0  0  0  0
   42.1780   34.4680   41.1180 H   0  0  0  0  0  0  0  0  0  0  0  0
   41.5910   30.9030   38.5000 C   0  0  0  0  0  0  0  0  0  0  0  0
   41.7520   29.5800   38.7730 C   0  0  0  0  0  0  0  0  0  0  0  0
   42.2840   28.7510   37.9000 C   0  0  0  0  0  0  0  0  0  0  0  0
   42.6730   29.2600   36.7110 C   0  0  0  0  0  0  0  0  0  0  0  0
   42.2500   31.0280   36.8510 S   0  0  0  0  0  0  0  0  0  0  0  0
   41.3970   29.2770   39.7780 H   0  0  0  0  0  0  0  0  0  0  0  0
   42.4460   27.6900   38.0390 H   0  0  0  0  0  0  0  0  0  0  0  0
   43.1390   28.8080   35.8130 H   0  0  0  0  0  0  0  0  0  0  0  0
  1 22  1  0  0  0  0
  1  3  1  0  0  0  0
  2  1  2  0  0  0  0
  3  4  2  0  0  0  0
  3  7  1  0  0  0  0
  4  5  1  0  0  0  0
  5  6  1  0  0  0  0
  5 14  1  0  0  0  0
  6  8  1  0  0  0  0
  7  6  2  0  0  0  0
  8 11  1  0  0  0  0
  9  4  1  0  0  0  0
 10  8  1  0  0  0  0
 13 20  1  0  0  0  0
 13 12  1  0  0  0  0
 14 13  2  0  0  0  0
 15 17  2  0  0  0  0
 15 14  1  0  0  0  0
 16 15  1  0  0  0  0
 17 19  1  0  0  0  0
 18 17  1  0  0  0  0
 19 20  2  0  0  0  0
 21 27  1  0  0  0  0
 21 26  1  0  0  0  0
 22 23  1  0  0  0  0
 22 21  2  0  0  0  0
 23 24  2  0  0  0  0
 24 25  1  0  0  0  0
 25 28  1  0  0  0  0
 26 25  2  0  0  0  0
 29 30  2  0  0  0  0
 29 23  1  0  0  0  0
 30 34  1  0  0  0  0
 31 35  1  0  0  0  0
 31 30  1  0  0  0  0
 32 33  1  0  0  0  0
 32 31  2  0  0  0  0
 33 29  1  0  0  0  0
 36 32  1  0  0  0  0
M  END
>  <minimizedAffinity>
-5.55515909

$$$$

 OpenBabel03252503173D

 36 39  0  0  0  0  0  0  0  0999 V2000
   39.6760   25.4600   41.8930 C   0  0  0  0  0  0  0  0  0  0  0  0
   39.5920   24.5630   42.7980 O   0  0  0  0  0  0  0  0  0  0  0  0
   39.0230   26.8050   41.9920 C   0  0  0  0  0  0  0  0  0  0  0  0
   39.1020   27.8080   41.0490 C   0  0  0  0  0  0  0  0  0  0  0  0
   38.3700   28.8210   41.5520 N   0  0  0  0  0  0  0  0  0  0  0  0
   37.8690   28.4500   42.7470 C   0  0  0  0  0  0  0  0  0  0  0  0
   38.2700   27.2010   43.0260 N   0  0  0  0  0  0  0  0  0  0  0  0
   37.0380   29.1600   43.6720 N   0  0  0  0  0  0  0  0  0  0  0  0
   39.6200   27.8070   40.1160 H   0  0  0  0  0  0  0  0  0  0  0  0
   37.2900   29.1490   44.6890 H   0  0  0  0  0  0  0  0  0  0  0  0
   36.2080   29.6540   43.2380 H   0  0  0  0  0  0  0  0  0  0  0  0
   40.3430   31.0550   42.4300 Br  0  0  0  0  0  0  0  0  0  0  0  0
   38.8640   31.2460   41.2480 C   0  0  0  0  0  0  0  0  0  0  0  0
   38.1080   30.1080   40.9920 C   0  0  0  0  0  0  0  0  0  0  0  0
   37.0210   30.1770   40.1430 C   0  0  0  0  0  0  0  0  0  0  0  0
   36.3950   29.3270   39.9050 H   0  0  0  0  0  0  0  0  0  0  0  0
   36.7010   31.3860   39.5610 C   0  0  0  0  0  0  0  0  0  0  0  0
   35.8600   31.5160   38.8840 H   0  0  0  0  0  0  0  0  0  0  0  0
   37.4330   32.5480   39.7930 C   0  0  0  0  0  3  0  0  0  0  0  0
   38.5280   32.4500   40.6550 C   0  0  0  0  0  3  0  0  0  0  0  0
   41.8290   25.3580   40.7340 C   0  0  0  0  0  0  0  0  0  0  0  0
   40.4440   25.1110   40.7550 C   0  0  0  0  0  0  0  0  0  0  0  0
   39.9440   24.5260   39.6160 C   0  0  0  0  0  0  0  0  0  0  0  0
   40.7250   24.2150   38.5630 N   0  0  0  0  0  0  0  0  0  0  0  0
   42.0550   24.4740   38.5940 C   0  0  0  0  0  0  0  0  0  0  0  0
   42.5970   25.0430   39.6790 N   0  0  0  0  0  0  0  0  0  0  0  0
   42.3330   25.8150   41.5790 H   0  0  0  0  0  0  0  0  0  0  0  0
   42.6290   24.2040   37.7220 H   0  0  0  0  0  0  0  0  0  0  0  0
   38.5570   24.2430   39.5460 C   0  0  0  0  0  0  0  0  0  0  0  0
   37.4570   24.9160   39.1170 C   0  0  0  0  0  0  0  0  0  0  0  0
   36.2530   24.3860   39.1740 C   0  0  0  0  0  0  0  0  0  0  0  0
   36.1420   23.1390   39.6800 C   0  0  0  0  0  0  0  0  0  0  0  0
   37.8610   22.6990   40.0960 S   0  0  0  0  0  0  0  0  0  0  0  0
   37.6700   25.9300   38.7230 H   0  0  0  0  0  0  0  0  0  0  0  0
   35.3310   24.8550   38.8540 H   0  0  0  0  0  0  0  0  0  0  0  0
   35.2770   22.4660   39.8440 H   0  0  0  0  0  0  0  0  0  0  0  0
  1  3  1  0  0  0  0
  1  2  2  0  0  0  0
  3  7  1  0  0  0  0
  4  5  1  0  0  0  0
  4  3  2  0  0  0  0
  5  6  1  0  0  0  0
  6  7  2  0  0  0  0
  6  8  1  0  0  0  0
  8 10  1  0  0  0  0
  9  4  1  0  0  0  0
 11  8  1  0  0  0  0
 13 12  1  0  0  0  0
 14 13  1  0  0  0  0
 14  5  1  0  0  0  0
 15 14  2  0  0  0  0
 16 15  1  0  0  0  0
 17 19  2  0  0  0  0
 17 15  1  0  0  0  0
 18 17  1  0  0  0  0
 19 20  1  0  0  0  0
 20 13  2  0  0  0  0
 21 22  1  0  0  0  0
 21 27  1  0  0  0  0
 22  1  1  0  0  0  0
 23 22  2  0  0  0  0
 24 25  2  0  0  0  0
 24 23  1  0  0  0  0
 25 26  1  0  0  0  0
 26 21  2  0  0  0  0
 28 25  1  0  0  0  0
 29 23  1  0  0  0  0
 29 33  1  0  0  0  0
 30 31  1  0  0  0  0
 30 29  2  0  0  0  0
 31 32  2  0  0  0  0
 32 36  1  0  0  0  0
 32 33  1  0  0  0  0
 34 30  1  0  0  0  0
 35 31  1  0  0  0  0
M  END
>  <minimizedAffinity>
-5.39045906

$$$$
