
 OpenBabel03242522333D

 21 22  0  0  0  0  0  0  0  0999 V2000
   47.1640   33.0670   45.5690 C   0  0  0  0  0  0  0  0  0  0  0  0
   47.4020   33.9830   46.1870 H   0  0  0  0  0  0  0  0  0  0  0  0
   48.1430   32.6460   45.2990 H   0  0  0  0  0  0  0  0  0  0  0  0
   44.5900   33.8560   42.9790 C   0  0  0  0  0  0  0  0  0  0  0  0
   45.3330   34.5940   42.0530 C   0  0  0  0  0  0  0  0  0  0  0  0
   46.6790   34.8050   42.3270 C   0  0  0  0  0  0  0  0  0  0  0  0
   47.2200   34.2960   43.4650 N   0  0  0  0  0  0  0  0  0  0  0  0
   46.4600   33.5760   44.3540 C   0  0  0  0  0  0  0  0  0  0  0  0
   45.1590   33.3770   44.0810 N   0  0  0  0  0  0  0  0  0  0  0  0
   43.5260   33.6420   42.8440 H   0  0  0  0  0  0  0  0  0  0  0  0
   44.8290   34.9650   41.1700 H   0  0  0  0  0  0  0  0  0  0  0  0
   47.2700   35.3710   41.6290 H   0  0  0  0  0  0  0  0  0  0  0  0
   47.2660   30.0960   44.4980 Br  0  0  0  0  0  0  0  0  0  0  0  0
   46.2770   30.7270   46.0260 C   0  0  0  0  0  0  0  0  0  0  0  0
   46.3820   32.0720   46.3060 C   0  0  0  0  0  0  0  0  0  0  0  0
   45.6460   32.4830   47.4240 C   0  0  0  0  0  0  0  0  0  0  0  0
   45.6970   33.5480   47.6910 H   0  0  0  0  0  0  0  0  0  0  0  0
   44.8790   31.6320   48.1910 C   0  0  0  0  0  0  0  0  0  0  0  0
   44.3550   32.0640   49.0320 H   0  0  0  0  0  0  0  0  0  0  0  0
   44.8260   30.3030   47.8460 C   0  0  0  0  0  3  0  0  0  0  0  0
   45.5280   29.8250   46.7510 C   0  0  0  0  0  3  0  0  0  0  0  0
  1  2  1  0  0  0  0
  1 15  1  0  0  0  0
  3  1  1  0  0  0  0
  4  9  1  0  0  0  0
  5  6  1  0  0  0  0
  5  4  2  0  0  0  0
  6  7  2  0  0  0  0
  7  8  1  0  0  0  0
  8  1  1  0  0  0  0
  9  8  2  0  0  0  0
 10  4  1  0  0  0  0
 11  5  1  0  0  0  0
 12  6  1  0  0  0  0
 13 14  1  0  0  0  0
 14 15  2  0  0  0  0
 14 21  1  0  0  0  0
 15 16  1  0  0  0  0
 16 17  1  0  0  0  0
 16 18  2  0  0  0  0
 18 19  1  0  0  0  0
 20 18  1  0  0  0  0
 21 20  2  0  0  0  0
M  END
>  <minimizedAffinity>
-3.60925364

>  <minimizedRMSD>
2.28213549

$$$$
