
 OpenBabel03242519253D

 40 43  0  0  0  0  0  0  0  0999 V2000
   47.8670   33.7210   42.8940 C   0  0  0  0  0  0  0  0  0  0  0  0
   48.5790   34.9300   42.6900 C   0  0  0  0  0  0  0  0  0  0  0  0
   49.9420   34.8970   42.3650 C   0  0  0  0  0  0  0  0  0  0  0  0
   50.5090   33.6520   42.2650 N   0  0  0  0  0  0  0  0  0  0  0  0
   49.7940   32.5020   42.4680 C   0  0  0  0  0  0  0  0  0  0  0  0
   48.5050   32.5570   42.7750 N   0  0  0  0  0  0  0  0  0  0  0  0
   48.2080   35.9420   42.7510 H   0  0  0  0  0  0  0  0  0  0  0  0
   50.5370   35.7590   42.1990 H   0  0  0  0  0  0  0  0  0  0  0  0
   46.4470   33.8840   43.2350 C   0  0  0  0  0  0  0  0  0  0  0  0
   45.7520   34.8900   42.4340 C   0  0  0  0  0  0  0  0  0  0  0  0
   45.3310   36.0960   43.1920 C   0  0  0  0  0  0  0  0  0  0  0  0
   44.5470   35.7720   44.4600 C   0  0  0  0  0  0  0  0  0  0  0  0
   44.9780   34.5160   45.1490 C   0  0  0  0  0  0  0  0  0  0  0  0
   46.3930   34.1510   44.7490 C   0  0  0  0  0  0  0  0  0  0  0  0
   45.9480   32.8740   43.1320 H   0  0  0  0  0  0  0  0  0  0  0  0
   46.4180   35.2320   41.6220 H   0  0  0  0  0  0  0  0  0  0  0  0
   44.8660   34.4500   41.9130 H   0  0  0  0  0  0  0  0  0  0  0  0
   44.5650   36.6120   42.5390 H   0  0  0  0  0  0  0  0  0  0  0  0
   46.0870   36.8580   43.3800 H   0  0  0  0  0  0  0  0  0  0  0  0
   44.7390   36.6060   45.1800 H   0  0  0  0  0  0  0  0  0  0  0  0
   43.4570   35.7450   44.3000 H   0  0  0  0  0  0  0  0  0  0  0  0
   44.3230   33.6950   44.7850 H   0  0  0  0  0  0  0  0  0  0  0  0
   44.9110   34.5570   46.2380 H   0  0  0  0  0  0  0  0  0  0  0  0
   46.6690   33.1950   45.2440 H   0  0  0  0  0  0  0  0  0  0  0  0
   47.1260   34.9110   45.0590 H   0  0  0  0  0  0  0  0  0  0  0  0
   50.5510   31.2680   42.3280 C   0  0  0  0  0  0  0  0  0  0  0  0
   51.5440   31.2500   41.3940 N   0  0  0  0  0  0  0  0  0  0  0  0
   52.1310   30.0300   41.4110 C   0  0  0  0  0  0  0  0  0  0  0  0
   51.4880   29.2870   42.3730 N   0  0  0  0  0  0  0  0  0  0  0  0
   50.5380   30.0500   42.9140 N   0  0  0  0  0  0  0  0  0  0  0  0
   52.9480   29.6440   40.8170 H   0  0  0  0  0  0  0  0  0  0  0  0
   49.7740   27.1150   40.9040 Br  0  0  0  0  0  0  0  0  0  0  0  0
   51.0580   26.8400   42.2870 C   0  0  0  0  0  0  0  0  0  0  0  0
   51.7050   27.9470   42.7980 C   0  0  0  0  0  0  0  0  0  0  0  0
   52.6420   27.7140   43.8120 C   0  0  0  0  0  0  0  0  0  0  0  0
   53.2060   28.5180   44.2830 H   0  0  0  0  0  0  0  0  0  0  0  0
   52.8640   26.4070   44.2390 C   0  0  0  0  0  0  0  0  0  0  0  0
   53.5900   26.2120   45.0270 H   0  0  0  0  0  0  0  0  0  0  0  0
   52.2150   25.3310   43.7190 C   0  0  0  0  0  3  0  0  0  0  0  0
   51.2960   25.5600   42.7250 C   0  0  0  0  0  3  0  0  0  0  0  0
  1  9  1  0  0  0  0
  2  7  1  0  0  0  0
  2  1  2  0  0  0  0
  3  2  1  0  0  0  0
  4  3  2  0  0  0  0
  4  5  1  0  0  0  0
  5  6  2  0  0  0  0
  6  1  1  0  0  0  0
  8  3  1  0  0  0  0
  9 14  1  0  0  0  0
 10 11  1  0  0  0  0
 10  9  1  0  0  0  0
 11 19  1  0  0  0  0
 11 12  1  0  0  0  0
 12 13  1  0  0  0  0
 12 20  1  0  0  0  0
 13 23  1  0  0  0  0
 14 25  1  0  0  0  0
 14 13  1  0  0  0  0
 14 24  1  0  0  0  0
 15  9  1  0  0  0  0
 16 10  1  0  0  0  0
 17 10  1  0  0  0  0
 18 11  1  0  0  0  0
 21 12  1  0  0  0  0
 22 13  1  0  0  0  0
 26  5  1  0  0  0  0
 26 30  2  0  0  0  0
 27 28  2  0  0  0  0
 27 26  1  0  0  0  0
 28 29  1  0  0  0  0
 29 34  1  0  0  0  0
 29 30  1  0  0  0  0
 31 28  1  0  0  0  0
 32 33  1  0  0  0  0
 33 40  2  0  0  0  0
 33 34  1  0  0  0  0
 34 35  2  0  0  0  0
 35 37  1  0  0  0  0
 35 36  1  0  0  0  0
 37 38  1  0  0  0  0
 39 37  2  0  0  0  0
 40 39  1  0  0  0  0
M  END
>  <minimizedAffinity>
-4.17794704

>  <minimizedRMSD>
0.391424298

$$$$
