
 OpenBabel03252509293D

 21 22  0  0  0  0  0  0  0  0999 V2000
   46.9210   35.0280   41.9680 C   0  0  0  0  0  0  0  0  0  0  0  0
   48.0010   34.8260   42.2050 H   0  0  0  0  0  0  0  0  0  0  0  0
   46.7890   36.0380   41.5350 H   0  0  0  0  0  0  0  0  0  0  0  0
   44.5420   35.8620   44.7000 C   0  0  0  0  0  0  0  0  0  0  0  0
   45.2380   35.9560   43.4790 C   0  0  0  0  0  0  0  0  0  0  0  0
   46.1840   34.9580   43.2320 C   0  0  0  0  0  0  0  0  0  0  0  0
   46.3820   33.9700   44.1580 N   0  0  0  0  0  0  0  0  0  0  0  0
   45.6810   33.9360   45.3130 C   0  0  0  0  0  0  0  0  0  0  0  0
   44.7680   34.8770   45.5780 N   0  0  0  0  0  0  0  0  0  0  0  0
   43.8000   36.6260   44.9180 H   0  0  0  0  0  0  0  0  0  0  0  0
   45.0480   36.7580   42.7730 H   0  0  0  0  0  0  0  0  0  0  0  0
   45.9870   33.0750   45.9050 H   0  0  0  0  0  0  0  0  0  0  0  0
   49.1980   32.9400   41.3330 Br  0  0  0  0  0  0  0  0  0  0  0  0
   47.4010   33.0320   40.6630 C   0  0  0  0  0  0  0  0  0  0  0  0
   46.4570   34.0010   40.9960 C   0  0  0  0  0  0  0  0  0  0  0  0
   45.2090   33.9410   40.4320 C   0  0  0  0  0  0  0  0  0  0  0  0
   44.5000   34.7100   40.7140 H   0  0  0  0  0  0  0  0  0  0  0  0
   44.9330   32.9090   39.5460 C   0  0  0  0  0  0  0  0  0  0  0  0
   43.9340   32.8850   39.1150 H   0  0  0  0  0  0  0  0  0  0  0  0
   45.8420   31.9420   39.2010 C   0  0  0  0  0  3  0  0  0  0  0  0
   47.1090   32.0020   39.7720 C   0  0  0  0  0  3  0  0  0  0  0  0
  1  2  1  0  0  0  0
  1  6  1  0  0  0  0
  3  1  1  0  0  0  0
  4 10  1  0  0  0  0
  4  9  1  0  0  0  0
  5  4  2  0  0  0  0
  6  5  1  0  0  0  0
  6  7  2  0  0  0  0
  7  8  1  0  0  0  0
  8  9  2  0  0  0  0
  8 12  1  0  0  0  0
 11  5  1  0  0  0  0
 14 15  1  0  0  0  0
 14 13  1  0  0  0  0
 15  1  1  0  0  0  0
 16 17  1  0  0  0  0
 16 15  2  0  0  0  0
 18 16  1  0  0  0  0
 19 18  1  0  0  0  0
 20 18  2  0  0  0  0
 20 21  1  0  0  0  0
 21 14  2  0  0  0  0
M  END
>  <minimizedAffinity>
-3.94693112

>  <minimizedRMSD>
1.1908499

$$$$
