
 OpenBabel03252508033D

 42 45  0  0  1  0  0  0  0  0999 V2000
   42.0620   33.2390   41.1740 C   0  0  0  0  0  0  0  0  0  0  0  0
   42.7970   34.3810   41.3250 C   0  0  0  0  0  0  0  0  0  0  0  0
   42.1160   35.6130   41.2530 C   0  0  0  0  0  0  0  0  0  0  0  0
   40.7620   35.7200   41.0420 C   0  0  0  0  0  0  0  0  0  0  0  0
   40.0340   34.5690   40.8930 C   0  0  0  0  0  0  0  0  0  0  0  0
   40.6870   33.3740   40.9620 C   0  0  0  0  0  0  0  0  0  0  0  0
   42.6130   36.5710   41.3520 H   0  0  0  0  0  0  0  0  0  0  0  0
   40.2560   36.6640   40.9890 H   0  0  0  0  0  0  0  0  0  0  0  0
   38.9680   34.5520   40.7230 H   0  0  0  0  0  0  0  0  0  0  0  0
   40.0960   32.4500   40.8410 H   0  0  0  0  0  0  0  0  0  0  0  0
   42.7320   31.7020   41.3290 S   0  0  0  0  0  0  0  0  0  0  0  0
   41.7980   30.8910   40.3750 O   0  0  0  0  0  0  0  0  0  0  0  0
   42.5700   31.1310   42.6890 O   0  0  0  0  0  0  0  0  0  0  0  0
   42.7620   32.4050   38.2830 Br  0  0  0  0  0  0  0  0  0  0  0  0
   44.1010   31.3050   39.1420 C   0  0  0  0  0  0  0  0  0  0  0  0
   44.0280   30.9860   40.5290 C   0  0  0  0  0  0  0  0  0  0  0  0
   45.1080   30.1910   40.8920 C   0  0  0  0  0  0  0  0  0  0  0  0
   45.0560   29.9990   41.9810 H   0  0  0  0  0  0  0  0  0  0  0  0
   46.1730   29.6830   40.1880 C   0  0  0  0  0  0  0  0  0  0  0  0
   46.8940   29.0840   40.6790 H   0  0  0  0  0  0  0  0  0  0  0  0
   46.0680   30.0950   38.8890 C   0  0  0  0  0  3  0  0  0  0  0  0
   45.1050   30.8740   38.3110 C   0  0  0  0  0  3  0  0  0  0  0  0
   44.2290   34.3790   41.5540 C   0  0  0  0  0  0  0  0  0  0  0  0
   45.1030   34.3160   40.6370 O   0  0  0  0  0  0  0  0  0  0  0  0
   44.5810   34.4570   42.9520 C   0  0  0  0  0  0  0  0  0  0  0  0
   44.3080   35.7160   43.5890 C   0  0  0  0  0  0  0  0  0  0  0  0
   44.6340   35.8150   44.9300 C   0  0  0  0  0  0  0  0  0  0  0  0
   45.1800   34.7360   45.5470 N   0  0  0  0  0  0  0  0  0  0  0  0
   45.4210   33.5550   44.8910 C   0  0  0  0  0  0  0  0  0  0  0  0
   45.1210   33.4550   43.6430 N   0  0  0  0  0  0  0  0  0  0  0  0
   43.8880   36.5940   43.1800 H   0  0  0  0  0  0  0  0  0  0  0  0
   44.4820   36.7000   45.5270 H   0  0  0  0  0  0  0  0  0  0  0  0
   46.0100   32.4330   45.6470 C   0  0  1  0  0  0  0  0  0  0  0  0
   46.9700   32.7310   46.7780 C   0  0  0  0  0  0  0  0  0  0  0  0
   45.5530   32.3220   47.0510 C   0  0  1  0  0  0  0  0  0  0  0  0
   46.1300   31.4870   45.0940 H   0  0  0  0  0  0  0  0  0  0  0  0
   47.2810   33.7860   46.8530 H   0  0  0  0  0  0  0  0  0  0  0  0
   47.7210   31.9290   46.9570 H   0  0  0  0  0  0  0  0  0  0  0  0
   45.3510   31.3260   47.4740 H   0  0  0  0  0  0  0  0  0  0  0  0
   44.7760   33.3920   47.6550 N   0  0  0  0  0  0  0  0  0  0  0  0
   45.2310   33.7950   48.4810 H   0  0  0  0  0  0  0  0  0  0  0  0
   43.7810   33.1090   47.7890 H   0  0  0  0  0  0  0  0  0  0  0  0
  1  2  1  0  0  0  0
  1 11  1  0  0  0  0
  2 23  1  0  0  0  0
  3  2  2  0  0  0  0
  3  7  1  0  0  0  0
  4  3  1  0  0  0  0
  5  6  1  0  0  0  0
  5  4  2  0  0  0  0
  6  1  2  0  0  0  0
  8  4  1  0  0  0  0
  9  5  1  0  0  0  0
 10  6  1  0  0  0  0
 11 13  2  0  0  0  0
 12 11  2  0  0  0  0
 14 15  1  0  0  0  0
 15 16  1  0  0  0  0
 16 17  2  0  0  0  0
 16 11  1  0  0  0  0
 17 18  1  0  0  0  0
 19 20  1  0  0  0  0
 19 17  1  0  0  0  0
 21 19  2  0  0  0  0
 22 21  1  0  0  0  0
 22 15  2  0  0  0  0
 23 25  1  0  0  0  0
 24 23  2  0  0  0  0
 25 26  2  0  0  0  0
 25 30  1  0  0  0  0
 26 27  1  0  0  0  0
 27 32  1  0  0  0  0
 27 28  2  0  0  0  0
 29 28  1  0  0  0  0
 29 33  1  0  0  0  0
 30 29  2  0  0  0  0
 31 26  1  0  0  0  0
 33 36  1  6  0  0  0
 33 34  1  0  0  0  0
 33 35  1  0  0  0  0
 34 37  1  0  0  0  0
 34 38  1  0  0  0  0
 34 35  1  0  0  0  0
 35 39  1  1  0  0  0
 35 40  1  0  0  0  0
 40 42  1  0  0  0  0
 40 41  1  0  0  0  0
M  END
>  <minimizedAffinity>
-5.85451126

>  <minimizedRMSD>
1.02013934

$$$$
