
 OpenBabel03242515473D

 41 44  0  0  1  0  0  0  0  0999 V2000
   37.8210   33.6090   39.6880 C   0  0  0  0  0  0  0  0  0  0  0  0
   39.0060   33.4810   40.4150 C   0  0  0  0  0  0  0  0  0  0  0  0
   39.3020   32.3220   41.1040 C   0  0  0  0  0  0  0  0  0  0  0  0
   38.4290   31.2640   41.0860 C   0  0  0  0  0  0  0  0  0  0  0  0
   37.2510   31.3690   40.3740 C   0  0  0  0  0  0  0  0  0  0  0  0
   36.9290   32.5070   39.6800 C   0  0  0  0  0  0  0  0  0  0  0  0
   36.5770   30.1430   40.5440 O   0  0  0  0  0  0  0  0  0  0  0  0
   37.1860   29.4550   41.5630 C   0  0  2  0  0  0  0  0  0  0  0  0
   38.4810   30.0010   41.6830 O   0  0  0  0  0  0  0  0  0  0  0  0
   37.5150   34.4800   39.1250 H   0  0  0  0  0  0  0  0  0  0  0  0
   40.2430   32.3260   41.6340 H   0  0  0  0  0  0  0  0  0  0  0  0
   36.0060   32.5910   39.1210 H   0  0  0  0  0  0  0  0  0  0  0  0
   36.6640   29.7440   42.5210 H   0  0  0  0  0  0  0  0  0  0  0  0
   36.8880   28.0160   44.3350 Br  0  0  0  0  0  0  0  0  0  0  0  0
   37.0480   27.1970   42.6080 C   0  0  0  0  0  0  0  0  0  0  0  0
   37.1740   27.9900   41.4630 C   0  0  0  0  0  0  0  0  0  0  0  0
   37.2850   27.3330   40.2550 C   0  0  0  0  0  0  0  0  0  0  0  0
   37.3850   27.8720   39.3270 H   0  0  0  0  0  0  0  0  0  0  0  0
   37.2720   25.9410   40.1710 C   0  0  0  0  0  0  0  0  0  0  0  0
   37.3600   25.4410   39.2100 H   0  0  0  0  0  0  0  0  0  0  0  0
   37.1480   25.1650   41.2950 C   0  0  0  0  0  3  0  0  0  0  0  0
   37.0370   25.8240   42.5010 C   0  0  0  0  0  3  0  0  0  0  0  0
   40.0300   34.9470   40.3080 S   0  0  0  0  0  0  0  0  0  0  0  0
   41.7900   34.4740   40.4150 C   0  0  0  0  0  0  0  0  0  0  0  0
   42.3550   34.0540   39.2680 C   0  0  0  0  0  0  0  0  0  0  0  0
   43.6930   33.6780   39.3660 C   0  0  0  0  0  0  0  0  0  0  0  0
   44.3580   33.7390   40.5350 N   0  0  0  0  0  0  0  0  0  0  0  0
   43.7460   34.1690   41.6580 C   0  0  0  0  0  0  0  0  0  0  0  0
   42.4660   34.5260   41.5560 N   0  0  0  0  0  0  0  0  0  0  0  0
   44.3980   33.1910   38.2050 N   0  0  0  0  0  0  0  0  0  0  0  0
   44.6010   33.7260   37.3080 H   0  0  0  0  0  0  0  0  0  0  0  0
   44.7380   32.2140   38.2660 H   0  0  0  0  0  0  0  0  0  0  0  0
   41.8860   33.9070   37.8540 C   0  0  0  0  0  0  0  0  0  0  0  0
   41.0130   34.5880   37.7690 H   0  0  0  0  0  0  0  0  0  0  0  0
   41.6130   32.8590   37.6990 H   0  0  0  0  0  0  0  0  0  0  0  0
   42.6310   34.3100   37.1350 H   0  0  0  0  0  0  0  0  0  0  0  0
   44.3430   34.2680   42.8970 O   0  0  0  0  0  0  0  0  0  0  0  0
   44.7090   35.5610   43.3480 C   0  0  0  0  0  0  0  0  0  0  0  0
   45.5420   35.4990   44.4230 F   0  0  0  0  0  0  0  0  0  0  0  0
   45.3150   36.2090   42.2580 F   0  0  0  0  0  0  0  0  0  0  0  0
   43.5650   36.2240   43.7400 F   0  0  0  0  0  0  0  0  0  0  0  0
  1  2  1  0  0  0  0
  2  3  2  0  0  0  0
  3 11  1  0  0  0  0
  4  3  1  0  0  0  0
  4  9  1  0  0  0  0
  5  7  1  0  0  0  0
  5  4  2  0  0  0  0
  6  1  2  0  0  0  0
  6  5  1  0  0  0  0
  7  8  1  0  0  0  0
  8  9  1  0  0  0  0
  8 13  1  1  0  0  0
 10  1  1  0  0  0  0
 12  6  1  0  0  0  0
 15 14  1  0  0  0  0
 16  8  1  0  0  0  0
 16 15  2  0  0  0  0
 17 16  1  0  0  0  0
 18 17  1  0  0  0  0
 19 17  2  0  0  0  0
 19 21  1  0  0  0  0
 20 19  1  0  0  0  0
 21 22  2  0  0  0  0
 22 15  1  0  0  0  0
 23 24  1  0  0  0  0
 23  2  1  0  0  0  0
 24 29  1  0  0  0  0
 25 26  1  0  0  0  0
 25 24  2  0  0  0  0
 26 27  2  0  0  0  0
 27 28  1  0  0  0  0
 28 37  1  0  0  0  0
 29 28  2  0  0  0  0
 30 32  1  0  0  0  0
 30 26  1  0  0  0  0
 31 30  1  0  0  0  0
 33 25  1  0  0  0  0
 34 33  1  0  0  0  0
 35 33  1  0  0  0  0
 36 33  1  0  0  0  0
 37 38  1  0  0  0  0
 38 41  1  0  0  0  0
 38 39  1  0  0  0  0
 40 38  1  0  0  0  0
M  END
>  <minimizedAffinity>
-7.34924793

$$$$

 OpenBabel03242515473D

 41 44  0  0  1  0  0  0  0  0999 V2000
   37.3380   33.3650   39.6280 C   0  0  0  0  0  0  0  0  0  0  0  0
   37.9310   32.1050   39.5280 C   0  0  0  0  0  0  0  0  0  0  0  0
   39.2880   31.9360   39.7120 C   0  0  0  0  0  0  0  0  0  0  0  0
   40.0870   33.0140   40.0000 C   0  0  0  0  0  0  0  0  0  0  0  0
   39.5210   34.2680   40.1030 C   0  0  0  0  0  0  0  0  0  0  0  0
   38.1760   34.4680   39.9250 C   0  0  0  0  0  0  0  0  0  0  0  0
   40.5770   35.1530   40.4020 O   0  0  0  0  0  0  0  0  0  0  0  0
   41.7620   34.4990   40.1830 C   0  0  2  0  0  0  0  0  0  0  0  0
   41.4620   33.1210   40.2300 O   0  0  0  0  0  0  0  0  0  0  0  0
   36.2860   33.5810   39.4970 H   0  0  0  0  0  0  0  0  0  0  0  0
   39.6470   30.9220   39.6130 H   0  0  0  0  0  0  0  0  0  0  0  0
   37.7310   35.4510   40.0060 H   0  0  0  0  0  0  0  0  0  0  0  0
   42.0570   34.6900   39.1100 H   0  0  0  0  0  0  0  0  0  0  0  0
   44.5110   33.3220   39.2310 Br  0  0  0  0  0  0  0  0  0  0  0  0
   44.1870   34.4410   40.7540 C   0  0  0  0  0  0  0  0  0  0  0  0
   42.8920   34.8830   41.0390 C   0  0  0  0  0  0  0  0  0  0  0  0
   42.7330   35.6850   42.1500 C   0  0  0  0  0  0  0  0  0  0  0  0
   41.7670   36.0660   42.4380 H   0  0  0  0  0  0  0  0  0  0  0  0
   43.8120   36.0440   42.9580 C   0  0  0  0  0  0  0  0  0  0  0  0
   43.6680   36.6770   43.8290 H   0  0  0  0  0  0  0  0  0  0  0  0
   45.0820   35.6110   42.6760 C   0  0  0  0  0  3  0  0  0  0  0  0
   45.2380   34.8090   41.5650 C   0  0  0  0  0  3  0  0  0  0  0  0
   36.7370   30.8190   39.1690 S   0  0  0  0  0  0  0  0  0  0  0  0
   37.2250   29.2760   40.0150 C   0  0  0  0  0  0  0  0  0  0  0  0
   38.0800   28.4840   39.3410 C   0  0  0  0  0  0  0  0  0  0  0  0
   38.4310   27.3010   39.9890 C   0  0  0  0  0  0  0  0  0  0  0  0
   37.9410   26.9900   41.2040 N   0  0  0  0  0  0  0  0  0  0  0  0
   37.0880   27.8200   41.8390 C   0  0  0  0  0  0  0  0  0  0  0  0
   36.7560   28.9490   41.2130 N   0  0  0  0  0  0  0  0  0  0  0  0
   39.3250   26.3630   39.3540 N   0  0  0  0  0  0  0  0  0  0  0  0
   40.3390   26.5290   39.0800 H   0  0  0  0  0  0  0  0  0  0  0  0
   38.9210   25.4300   39.1490 H   0  0  0  0  0  0  0  0  0  0  0  0
   38.7890   28.5760   38.0270 C   0  0  0  0  0  0  0  0  0  0  0  0
   38.8060   29.6590   37.7850 H   0  0  0  0  0  0  0  0  0  0  0  0
   38.2170   27.9950   37.2970 H   0  0  0  0  0  0  0  0  0  0  0  0
   39.8590   28.2900   38.1210 H   0  0  0  0  0  0  0  0  0  0  0  0
   36.5360   27.5900   43.0820 O   0  0  0  0  0  0  0  0  0  0  0  0
   37.2730   28.0160   44.2150 C   0  0  0  0  0  0  0  0  0  0  0  0
   36.4930   28.0620   45.3310 F   0  0  0  0  0  0  0  0  0  0  0  0
   38.3380   27.1130   44.3640 F   0  0  0  0  0  0  0  0  0  0  0  0
   37.7390   29.2920   43.9750 F   0  0  0  0  0  0  0  0  0  0  0  0
  1  6  1  0  0  0  0
  2  1  2  0  0  0  0
  2  3  1  0  0  0  0
  3  4  2  0  0  0  0
  4  5  1  0  0  0  0
  4  9  1  0  0  0  0
  5  7  1  0  0  0  0
  6 12  1  0  0  0  0
  6  5  2  0  0  0  0
  8 13  1  6  0  0  0
  8  9  1  0  0  0  0
  8  7  1  0  0  0  0
  8 16  1  0  0  0  0
 10  1  1  0  0  0  0
 11  3  1  0  0  0  0
 14 15  1  0  0  0  0
 15 16  2  0  0  0  0
 15 22  1  0  0  0  0
 16 17  1  0  0  0  0
 17 18  1  0  0  0  0
 17 19  2  0  0  0  0
 19 20  1  0  0  0  0
 21 19  1  0  0  0  0
 22 21  2  0  0  0  0
 23  2  1  0  0  0  0
 23 24  1  0  0  0  0
 24 29  1  0  0  0  0
 25 26  1  0  0  0  0
 25 24  2  0  0  0  0
 26 27  2  0  0  0  0
 27 28  1  0  0  0  0
 28 37  1  0  0  0  0
 29 28  2  0  0  0  0
 30 26  1  0  0  0  0
 31 30  1  0  0  0  0
 32 30  1  0  0  0  0
 33 36  1  0  0  0  0
 33 25  1  0  0  0  0
 34 33  1  0  0  0  0
 35 33  1  0  0  0  0
 37 38  1  0  0  0  0
 38 40  1  0  0  0  0
 38 39  1  0  0  0  0
 41 38  1  0  0  0  0
M  END
>  <minimizedAffinity>
-7.32686806

$$$$

 OpenBabel03242515473D

 41 44  0  0  1  0  0  0  0  0999 V2000
   35.9020   29.1620   41.0850 C   0  0  0  0  0  0  0  0  0  0  0  0
   36.9580   28.8180   41.9310 C   0  0  0  0  0  0  0  0  0  0  0  0
   38.1320   29.5420   41.9410 C   0  0  0  0  0  0  0  0  0  0  0  0
   38.2850   30.6250   41.1130 C   0  0  0  0  0  0  0  0  0  0  0  0
   37.2530   30.9830   40.2690 C   0  0  0  0  0  0  0  0  0  0  0  0
   36.0740   30.2830   40.2360 C   0  0  0  0  0  0  0  0  0  0  0  0
   37.7010   32.1140   39.5560 O   0  0  0  0  0  0  0  0  0  0  0  0
   39.0530   32.2370   39.7490 C   0  0  2  0  0  0  0  0  0  0  0  0
   39.3460   31.5160   40.9260 O   0  0  0  0  0  0  0  0  0  0  0  0
   34.9530   28.6470   41.0170 H   0  0  0  0  0  0  0  0  0  0  0  0
   38.8870   29.1930   42.6310 H   0  0  0  0  0  0  0  0  0  0  0  0
   35.2640   30.5620   39.5740 H   0  0  0  0  0  0  0  0  0  0  0  0
   39.5620   31.6580   38.9250 H   0  0  0  0  0  0  0  0  0  0  0  0
   41.9610   32.4250   38.5850 Br  0  0  0  0  0  0  0  0  0  0  0  0
   40.8800   33.8590   39.2610 C   0  0  0  0  0  0  0  0  0  0  0  0
   39.5950   33.6010   39.7470 C   0  0  0  0  0  0  0  0  0  0  0  0
   38.8750   34.6790   40.2170 C   0  0  0  0  0  0  0  0  0  0  0  0
   37.8770   34.5650   40.6090 H   0  0  0  0  0  0  0  0  0  0  0  0
   39.3980   35.9730   40.2110 C   0  0  0  0  0  0  0  0  0  0  0  0
   38.8160   36.8100   40.5860 H   0  0  0  0  0  0  0  0  0  0  0  0
   40.6580   36.2240   39.7330 C   0  0  0  0  0  3  0  0  0  0  0  0
   41.3760   35.1440   39.2640 C   0  0  0  0  0  3  0  0  0  0  0  0
   36.5750   27.3960   42.9520 S   0  0  0  0  0  0  0  0  0  0  0  0
   37.9430   26.1900   42.8600 C   0  0  0  0  0  0  0  0  0  0  0  0
   37.6930   25.0720   42.1530 C   0  0  0  0  0  0  0  0  0  0  0  0
   38.7380   24.1510   42.1060 C   0  0  0  0  0  0  0  0  0  0  0  0
   39.9090   24.3820   42.7290 N   0  0  0  0  0  0  0  0  0  0  0  0
   40.1110   25.5200   43.4240 C   0  0  0  0  0  0  0  0  0  0  0  0
   39.1060   26.3960   43.4650 N   0  0  0  0  0  0  0  0  0  0  0  0
   38.5780   22.9060   41.3940 N   0  0  0  0  0  0  0  0  0  0  0  0
   38.4040   22.7820   40.3520 H   0  0  0  0  0  0  0  0  0  0  0  0
   38.6410   22.0500   41.9740 H   0  0  0  0  0  0  0  0  0  0  0  0
   36.5310   24.5670   41.3570 C   0  0  0  0  0  0  0  0  0  0  0  0
   35.9480   25.4740   41.0930 H   0  0  0  0  0  0  0  0  0  0  0  0
   35.9660   23.8770   41.9910 H   0  0  0  0  0  0  0  0  0  0  0  0
   36.8590   24.1470   40.3820 H   0  0  0  0  0  0  0  0  0  0  0  0
   41.2730   25.8460   44.0910 O   0  0  0  0  0  0  0  0  0  0  0  0
   42.1330   26.7970   43.4860 C   0  0  0  0  0  0  0  0  0  0  0  0
   43.4430   26.5040   43.7160 F   0  0  0  0  0  0  0  0  0  0  0  0
   41.8330   26.7910   42.1130 F   0  0  0  0  0  0  0  0  0  0  0  0
   41.8740   28.0320   44.0420 F   0  0  0  0  0  0  0  0  0  0  0  0
  1  2  1  0  0  0  0
  2  3  2  0  0  0  0
  2 23  1  0  0  0  0
  3 11  1  0  0  0  0
  4  3  1  0  0  0  0
  5  4  2  0  0  0  0
  6  5  1  0  0  0  0
  6  1  2  0  0  0  0
  7  8  1  0  0  0  0
  7  5  1  0  0  0  0
  8 13  1  6  0  0  0
  8  9  1  0  0  0  0
  9  4  1  0  0  0  0
 10  1  1  0  0  0  0
 12  6  1  0  0  0  0
 14 15  1  0  0  0  0
 15 22  2  0  0  0  0
 15 16  1  0  0  0  0
 16  8  1  0  0  0  0
 16 17  2  0  0  0  0
 17 18  1  0  0  0  0
 19 17  1  0  0  0  0
 19 20  1  0  0  0  0
 21 19  2  0  0  0  0
 22 21  1  0  0  0  0
 24 23  1  0  0  0  0
 24 29  1  0  0  0  0
 25 24  2  0  0  0  0
 26 25  1  0  0  0  0
 26 27  2  0  0  0  0
 27 28  1  0  0  0  0
 28 29  2  0  0  0  0
 28 37  1  0  0  0  0
 30 32  1  0  0  0  0
 30 26  1  0  0  0  0
 31 30  1  0  0  0  0
 33 35  1  0  0  0  0
 33 25  1  0  0  0  0
 34 33  1  0  0  0  0
 36 33  1  0  0  0  0
 38 39  1  0  0  0  0
 38 41  1  0  0  0  0
 38 37  1  0  0  0  0
 40 38  1  0  0  0  0
M  END
>  <minimizedAffinity>
-7.09365749

$$$$

 OpenBabel03242515473D

 41 44  0  0  1  0  0  0  0  0999 V2000
   37.8040   33.4560   39.5920 C   0  0  0  0  0  0  0  0  0  0  0  0
   38.8900   33.3560   40.4630 C   0  0  0  0  0  0  0  0  0  0  0  0
   39.1110   32.2120   41.2030 C   0  0  0  0  0  0  0  0  0  0  0  0
   38.2610   31.1410   41.0930 C   0  0  0  0  0  0  0  0  0  0  0  0
   37.1810   31.2190   40.2370 C   0  0  0  0  0  0  0  0  0  0  0  0
   36.9340   32.3420   39.4900 C   0  0  0  0  0  0  0  0  0  0  0  0
   36.5060   29.9850   40.3420 O   0  0  0  0  0  0  0  0  0  0  0  0
   36.9900   29.3210   41.4400 C   0  0  2  0  0  0  0  0  0  0  0  0
   38.2530   29.8870   41.7130 O   0  0  0  0  0  0  0  0  0  0  0  0
   37.5610   34.3140   38.9800 H   0  0  0  0  0  0  0  0  0  0  0  0
   39.9780   32.2370   41.8480 H   0  0  0  0  0  0  0  0  0  0  0  0
   36.0880   32.4040   38.8180 H   0  0  0  0  0  0  0  0  0  0  0  0
   36.3480   29.6170   42.3190 H   0  0  0  0  0  0  0  0  0  0  0  0
   36.9330   27.9230   44.2480 Br  0  0  0  0  0  0  0  0  0  0  0  0
   36.9880   27.0790   42.5270 C   0  0  0  0  0  0  0  0  0  0  0  0
   37.0090   27.8550   41.3640 C   0  0  0  0  0  0  0  0  0  0  0  0
   37.0480   27.1810   40.1610 C   0  0  0  0  0  0  0  0  0  0  0  0
   37.0660   27.7060   39.2200 H   0  0  0  0  0  0  0  0  0  0  0  0
   37.0650   25.7880   40.0990 C   0  0  0  0  0  0  0  0  0  0  0  0
   37.0960   25.2740   39.1420 H   0  0  0  0  0  0  0  0  0  0  0  0
   37.0440   25.0280   41.2400 C   0  0  0  0  0  3  0  0  0  0  0  0
   37.0050   25.7050   42.4420 C   0  0  0  0  0  3  0  0  0  0  0  0
   39.9010   34.8350   40.4610 S   0  0  0  0  0  0  0  0  0  0  0  0
   41.6650   34.3700   40.3970 C   0  0  0  0  0  0  0  0  0  0  0  0
   42.4910   35.0980   41.1720 C   0  0  0  0  0  0  0  0  0  0  0  0
   43.8380   34.7460   41.1000 C   0  0  0  0  0  0  0  0  0  0  0  0
   44.2640   33.7450   40.3070 N   0  0  0  0  0  0  0  0  0  0  0  0
   43.3940   33.0450   39.5500 C   0  0  0  0  0  0  0  0  0  0  0  0
   42.1080   33.3870   39.6230 N   0  0  0  0  0  0  0  0  0  0  0  0
   44.8200   35.4690   41.8720 N   0  0  0  0  0  0  0  0  0  0  0  0
   44.8800   35.5350   42.9310 H   0  0  0  0  0  0  0  0  0  0  0  0
   45.5370   35.9740   41.3190 H   0  0  0  0  0  0  0  0  0  0  0  0
   42.3080   36.2200   42.1450 C   0  0  0  0  0  0  0  0  0  0  0  0
   41.2450   36.1570   42.4580 H   0  0  0  0  0  0  0  0  0  0  0  0
   42.5350   37.1550   41.6240 H   0  0  0  0  0  0  0  0  0  0  0  0
   42.8880   36.0480   43.0770 H   0  0  0  0  0  0  0  0  0  0  0  0
   43.7340   32.0050   38.7110 O   0  0  0  0  0  0  0  0  0  0  0  0
   43.8620   32.2920   37.3280 C   0  0  0  0  0  0  0  0  0  0  0  0
   44.8960   31.6040   36.7680 F   0  0  0  0  0  0  0  0  0  0  0  0
   42.6330   31.9570   36.7340 F   0  0  0  0  0  0  0  0  0  0  0  0
   44.1270   33.6380   37.1880 F   0  0  0  0  0  0  0  0  0  0  0  0
  1  2  1  0  0  0  0
  2  3  2  0  0  0  0
  3 11  1  0  0  0  0
  4  3  1  0  0  0  0
  4  9  1  0  0  0  0
  5  7  1  0  0  0  0
  5  4  2  0  0  0  0
  6  1  2  0  0  0  0
  6  5  1  0  0  0  0
  7  8  1  0  0  0  0
  8  9  1  0  0  0  0
  8 13  1  1  0  0  0
 10  1  1  0  0  0  0
 12  6  1  0  0  0  0
 15 14  1  0  0  0  0
 16  8  1  0  0  0  0
 16 15  2  0  0  0  0
 17 16  1  0  0  0  0
 18 17  1  0  0  0  0
 19 17  2  0  0  0  0
 19 21  1  0  0  0  0
 20 19  1  0  0  0  0
 21 22  2  0  0  0  0
 22 15  1  0  0  0  0
 23  2  1  0  0  0  0
 24 23  1  0  0  0  0
 24 25  1  0  0  0  0
 25 33  1  0  0  0  0
 26 25  2  0  0  0  0
 26 30  1  0  0  0  0
 27 26  1  0  0  0  0
 28 29  1  0  0  0  0
 28 27  2  0  0  0  0
 29 24  2  0  0  0  0
 30 31  1  0  0  0  0
 32 30  1  0  0  0  0
 33 34  1  0  0  0  0
 33 36  1  0  0  0  0
 35 33  1  0  0  0  0
 37 28  1  0  0  0  0
 38 37  1  0  0  0  0
 39 38  1  0  0  0  0
 40 38  1  0  0  0  0
 41 38  1  0  0  0  0
M  END
>  <minimizedAffinity>
-7.05581903

$$$$

 OpenBabel03242515473D

 41 44  0  0  1  0  0  0  0  0999 V2000
   35.8970   29.1130   41.2280 C   0  0  0  0  0  0  0  0  0  0  0  0
   36.9560   28.7950   42.0790 C   0  0  0  0  0  0  0  0  0  0  0  0
   38.1200   29.5370   42.0820 C   0  0  0  0  0  0  0  0  0  0  0  0
   38.2580   30.6110   41.2390 C   0  0  0  0  0  0  0  0  0  0  0  0
   37.2230   30.9430   40.3890 C   0  0  0  0  0  0  0  0  0  0  0  0
   36.0550   30.2250   40.3630 C   0  0  0  0  0  0  0  0  0  0  0  0
   37.6560   32.0710   39.6620 O   0  0  0  0  0  0  0  0  0  0  0  0
   39.0060   32.2150   39.8560 C   0  0  2  0  0  0  0  0  0  0  0  0
   39.3080   31.5140   41.0430 O   0  0  0  0  0  0  0  0  0  0  0  0
   34.9550   28.5840   41.1640 H   0  0  0  0  0  0  0  0  0  0  0  0
   38.8780   29.2080   42.7770 H   0  0  0  0  0  0  0  0  0  0  0  0
   35.2420   30.4840   39.6970 H   0  0  0  0  0  0  0  0  0  0  0  0
   39.5250   31.6320   39.0400 H   0  0  0  0  0  0  0  0  0  0  0  0
   41.9990   32.4000   38.9330 Br  0  0  0  0  0  0  0  0  0  0  0  0
   40.8470   33.8440   39.4490 C   0  0  0  0  0  0  0  0  0  0  0  0
   39.5280   33.5870   39.8360 C   0  0  0  0  0  0  0  0  0  0  0  0
   38.7570   34.6730   40.1940 C   0  0  0  0  0  0  0  0  0  0  0  0
   37.7310   34.5590   40.5050 H   0  0  0  0  0  0  0  0  0  0  0  0
   39.2610   35.9730   40.1720 C   0  0  0  0  0  0  0  0  0  0  0  0
   38.6390   36.8170   40.4580 H   0  0  0  0  0  0  0  0  0  0  0  0
   40.5550   36.2240   39.7910 C   0  0  0  0  0  3  0  0  0  0  0  0
   41.3240   35.1360   39.4340 C   0  0  0  0  0  3  0  0  0  0  0  0
   36.5920   27.3820   43.1180 S   0  0  0  0  0  0  0  0  0  0  0  0
   37.5590   25.9410   42.5520 C   0  0  0  0  0  0  0  0  0  0  0  0
   38.8340   25.8860   42.9810 C   0  0  0  0  0  0  0  0  0  0  0  0
   39.5680   24.7910   42.5270 C   0  0  0  0  0  0  0  0  0  0  0  0
   39.0220   23.8630   41.7180 N   0  0  0  0  0  0  0  0  0  0  0  0
   37.7380   23.9640   41.3180 C   0  0  0  0  0  0  0  0  0  0  0  0
   37.0430   25.0130   41.7560 N   0  0  0  0  0  0  0  0  0  0  0  0
   40.9520   24.6370   42.9050 N   0  0  0  0  0  0  0  0  0  0  0  0
   41.3370   24.5050   43.8880 H   0  0  0  0  0  0  0  0  0  0  0  0
   41.6330   24.6620   42.1240 H   0  0  0  0  0  0  0  0  0  0  0  0
   39.6820   26.7330   43.8770 C   0  0  0  0  0  0  0  0  0  0  0  0
   38.9610   27.2980   44.5040 H   0  0  0  0  0  0  0  0  0  0  0  0
   40.2880   27.3880   43.2440 H   0  0  0  0  0  0  0  0  0  0  0  0
   40.2580   26.1120   44.5980 H   0  0  0  0  0  0  0  0  0  0  0  0
   37.0930   23.0650   40.4950 O   0  0  0  0  0  0  0  0  0  0  0  0
   37.2750   23.2080   39.0960 C   0  0  0  0  0  0  0  0  0  0  0  0
   37.5850   24.4910   38.7610 F   0  0  0  0  0  0  0  0  0  0  0  0
   38.2960   22.3150   38.7320 F   0  0  0  0  0  0  0  0  0  0  0  0
   36.0900   22.8830   38.4700 F   0  0  0  0  0  0  0  0  0  0  0  0
  1  2  1  0  0  0  0
  2  3  2  0  0  0  0
  2 23  1  0  0  0  0
  3 11  1  0  0  0  0
  4  3  1  0  0  0  0
  5  4  2  0  0  0  0
  6  5  1  0  0  0  0
  6  1  2  0  0  0  0
  7  8  1  0  0  0  0
  7  5  1  0  0  0  0
  8 13  1  6  0  0  0
  8  9  1  0  0  0  0
  9  4  1  0  0  0  0
 10  1  1  0  0  0  0
 12  6  1  0  0  0  0
 14 15  1  0  0  0  0
 15 16  1  0  0  0  0
 16  8  1  0  0  0  0
 16 17  2  0  0  0  0
 17 18  1  0  0  0  0
 19 17  1  0  0  0  0
 19 20  1  0  0  0  0
 21 19  2  0  0  0  0
 22 15  2  0  0  0  0
 22 21  1  0  0  0  0
 24 25  1  0  0  0  0
 24 23  1  0  0  0  0
 25 33  1  0  0  0  0
 26 30  1  0  0  0  0
 26 25  2  0  0  0  0
 27 26  1  0  0  0  0
 28 27  2  0  0  0  0
 28 29  1  0  0  0  0
 29 24  2  0  0  0  0
 30 31  1  0  0  0  0
 32 30  1  0  0  0  0
 33 34  1  0  0  0  0
 33 36  1  0  0  0  0
 35 33  1  0  0  0  0
 37 28  1  0  0  0  0
 38 37  1  0  0  0  0
 39 38  1  0  0  0  0
 40 38  1  0  0  0  0
 41 38  1  0  0  0  0
M  END
>  <minimizedAffinity>
-7.01368666

$$$$

 OpenBabel03242515473D

 41 44  0  0  1  0  0  0  0  0999 V2000
   36.9530   28.9060   37.0090 C   0  0  0  0  0  0  0  0  0  0  0  0
   37.2870   28.3330   38.2370 C   0  0  0  0  0  0  0  0  0  0  0  0
   38.0610   29.0110   39.1570 C   0  0  0  0  0  0  0  0  0  0  0  0
   38.5190   30.2740   38.8800 C   0  0  0  0  0  0  0  0  0  0  0  0
   38.2010   30.8600   37.6710 C   0  0  0  0  0  0  0  0  0  0  0  0
   37.4350   30.2110   36.7370 C   0  0  0  0  0  0  0  0  0  0  0  0
   38.8050   32.1330   37.6800 O   0  0  0  0  0  0  0  0  0  0  0  0
   39.6970   32.1800   38.7200 C   0  0  2  0  0  0  0  0  0  0  0  0
   39.3030   31.1660   39.6180 O   0  0  0  0  0  0  0  0  0  0  0  0
   36.3550   28.4430   36.2370 H   0  0  0  0  0  0  0  0  0  0  0  0
   38.2630   28.4790   40.0750 H   0  0  0  0  0  0  0  0  0  0  0  0
   37.1840   30.6700   35.7890 H   0  0  0  0  0  0  0  0  0  0  0  0
   40.6950   31.8350   38.3200 H   0  0  0  0  0  0  0  0  0  0  0  0
   42.2600   33.6910   37.7230 Br  0  0  0  0  0  0  0  0  0  0  0  0
   40.9870   34.2890   39.0270 C   0  0  0  0  0  0  0  0  0  0  0  0
   39.8920   33.4870   39.3600 C   0  0  0  0  0  0  0  0  0  0  0  0
   39.0170   33.9800   40.3050 C   0  0  0  0  0  0  0  0  0  0  0  0
   38.1490   33.4240   40.6160 H   0  0  0  0  0  0  0  0  0  0  0  0
   39.2100   35.2240   40.9080 C   0  0  0  0  0  0  0  0  0  0  0  0
   38.5110   35.5960   41.6510 H   0  0  0  0  0  0  0  0  0  0  0  0
   40.2850   36.0090   40.5800 C   0  0  0  0  0  3  0  0  0  0  0  0
   41.1580   35.5130   39.6340 C   0  0  0  0  0  3  0  0  0  0  0  0
   36.5870   26.6950   38.4350 S   0  0  0  0  0  0  0  0  0  0  0  0
   36.9390   26.0780   40.1170 C   0  0  0  0  0  0  0  0  0  0  0  0
   37.5930   24.9030   40.1850 C   0  0  0  0  0  0  0  0  0  0  0  0
   37.8390   24.4340   41.4740 C   0  0  0  0  0  0  0  0  0  0  0  0
   37.4450   25.1210   42.5620 N   0  0  0  0  0  0  0  0  0  0  0  0
   36.7940   26.2960   42.4400 C   0  0  0  0  0  0  0  0  0  0  0  0
   36.5610   26.7390   41.2040 N   0  0  0  0  0  0  0  0  0  0  0  0
   38.5150   23.1740   41.6710 N   0  0  0  0  0  0  0  0  0  0  0  0
   39.5070   22.9270   41.3770 H   0  0  0  0  0  0  0  0  0  0  0  0
   37.9620   22.4410   42.1520 H   0  0  0  0  0  0  0  0  0  0  0  0
   38.1600   23.9530   39.1780 C   0  0  0  0  0  0  0  0  0  0  0  0
   38.3060   24.5610   38.2600 H   0  0  0  0  0  0  0  0  0  0  0  0
   37.4360   23.1460   39.0340 H   0  0  0  0  0  0  0  0  0  0  0  0
   39.1820   23.6220   39.4630 H   0  0  0  0  0  0  0  0  0  0  0  0
   36.3530   27.0710   43.4920 O   0  0  0  0  0  0  0  0  0  0  0  0
   37.2460   28.0430   44.0100 C   0  0  0  0  0  0  0  0  0  0  0  0
   37.3190   29.1370   43.2010 F   0  0  0  0  0  0  0  0  0  0  0  0
   36.7770   28.3750   45.2920 F   0  0  0  0  0  0  0  0  0  0  0  0
   38.5050   27.4840   44.0750 F   0  0  0  0  0  0  0  0  0  0  0  0
  1  2  1  0  0  0  0
  2 23  1  0  0  0  0
  2  3  2  0  0  0  0
  3 11  1  0  0  0  0
  4  3  1  0  0  0  0
  4  9  1  0  0  0  0
  5  7  1  0  0  0  0
  5  4  2  0  0  0  0
  6  1  2  0  0  0  0
  6  5  1  0  0  0  0
  7  8  1  0  0  0  0
  8 13  1  6  0  0  0
  8 16  1  0  0  0  0
  8  9  1  0  0  0  0
 10  1  1  0  0  0  0
 12  6  1  0  0  0  0
 14 15  1  0  0  0  0
 15 16  2  0  0  0  0
 15 22  1  0  0  0  0
 16 17  1  0  0  0  0
 17 18  1  0  0  0  0
 17 19  2  0  0  0  0
 19 20  1  0  0  0  0
 21 19  1  0  0  0  0
 22 21  2  0  0  0  0
 23 24  1  0  0  0  0
 24 25  2  0  0  0  0
 24 29  1  0  0  0  0
 25 26  1  0  0  0  0
 26 30  1  0  0  0  0
 26 27  2  0  0  0  0
 28 27  1  0  0  0  0
 28 37  1  0  0  0  0
 29 28  2  0  0  0  0
 30 32  1  0  0  0  0
 31 30  1  0  0  0  0
 33 36  1  0  0  0  0
 33 25  1  0  0  0  0
 34 33  1  0  0  0  0
 35 33  1  0  0  0  0
 37 38  1  0  0  0  0
 38 41  1  0  0  0  0
 38 40  1  0  0  0  0
 39 38  1  0  0  0  0
M  END
>  <minimizedAffinity>
-6.94949102

$$$$

 OpenBabel03242515473D

 41 44  0  0  1  0  0  0  0  0999 V2000
   37.6740   33.6600   39.9470 C   0  0  0  0  0  0  0  0  0  0  0  0
   38.1010   32.3790   40.3010 C   0  0  0  0  0  0  0  0  0  0  0  0
   39.4080   32.1360   40.6720 C   0  0  0  0  0  0  0  0  0  0  0  0
   40.3200   33.1600   40.7020 C   0  0  0  0  0  0  0  0  0  0  0  0
   39.9190   34.4350   40.3570 C   0  0  0  0  0  0  0  0  0  0  0  0
   38.6280   34.7070   39.9830 C   0  0  0  0  0  0  0  0  0  0  0  0
   41.0600   35.2540   40.4830 O   0  0  0  0  0  0  0  0  0  0  0  0
   42.1600   34.4450   40.6030 C   0  0  2  0  0  0  0  0  0  0  0  0
   41.6780   33.1910   41.0350 O   0  0  0  0  0  0  0  0  0  0  0  0
   36.6720   33.9320   39.6450 H   0  0  0  0  0  0  0  0  0  0  0  0
   39.6350   31.1110   40.9260 H   0  0  0  0  0  0  0  0  0  0  0  0
   38.3130   35.7070   39.7120 H   0  0  0  0  0  0  0  0  0  0  0  0
   42.5520   34.2560   39.5610 H   0  0  0  0  0  0  0  0  0  0  0  0
   44.9900   33.6000   39.5420 Br  0  0  0  0  0  0  0  0  0  0  0  0
   44.5950   34.6750   41.0820 C   0  0  0  0  0  0  0  0  0  0  0  0
   43.2680   34.9600   41.4170 C   0  0  0  0  0  0  0  0  0  0  0  0
   43.0580   35.7380   42.5370 C   0  0  0  0  0  0  0  0  0  0  0  0
   42.0650   36.0020   42.8620 H   0  0  0  0  0  0  0  0  0  0  0  0
   44.1160   36.2230   43.3050 C   0  0  0  0  0  0  0  0  0  0  0  0
   43.9320   36.8340   44.1840 H   0  0  0  0  0  0  0  0  0  0  0  0
   45.4170   35.9420   42.9740 C   0  0  0  0  0  3  0  0  0  0  0  0
   45.6240   35.1640   41.8540 C   0  0  0  0  0  3  0  0  0  0  0  0
   36.7750   31.1760   40.2250 S   0  0  0  0  0  0  0  0  0  0  0  0
   37.3690   29.6620   39.3970 C   0  0  0  0  0  0  0  0  0  0  0  0
   37.5200   29.7440   38.0610 C   0  0  0  0  0  0  0  0  0  0  0  0
   37.9560   28.5760   37.4380 C   0  0  0  0  0  0  0  0  0  0  0  0
   38.2050   27.4540   38.1390 N   0  0  0  0  0  0  0  0  0  0  0  0
   38.0390   27.4240   39.4780 C   0  0  0  0  0  0  0  0  0  0  0  0
   37.6220   28.5440   40.0660 N   0  0  0  0  0  0  0  0  0  0  0  0
   38.1350   28.5400   36.0070 N   0  0  0  0  0  0  0  0  0  0  0  0
   38.8180   29.1180   35.4320 H   0  0  0  0  0  0  0  0  0  0  0  0
   37.5240   27.8750   35.4980 H   0  0  0  0  0  0  0  0  0  0  0  0
   37.3490   30.8310   37.0470 C   0  0  0  0  0  0  0  0  0  0  0  0
   37.4210   31.7770   37.6240 H   0  0  0  0  0  0  0  0  0  0  0  0
   36.3680   30.7020   36.5800 H   0  0  0  0  0  0  0  0  0  0  0  0
   38.2050   30.8650   36.3390 H   0  0  0  0  0  0  0  0  0  0  0  0
   38.2700   26.3260   40.2790 O   0  0  0  0  0  0  0  0  0  0  0  0
   37.1420   25.6070   40.7480 C   0  0  0  0  0  0  0  0  0  0  0  0
   37.4230   24.2840   40.9090 F   0  0  0  0  0  0  0  0  0  0  0  0
   36.7590   26.2070   41.9590 F   0  0  0  0  0  0  0  0  0  0  0  0
   36.1390   25.7120   39.8070 F   0  0  0  0  0  0  0  0  0  0  0  0
  1  6  2  0  0  0  0
  1  2  1  0  0  0  0
  2  3  2  0  0  0  0
  3  4  1  0  0  0  0
  3 11  1  0  0  0  0
  4  9  1  0  0  0  0
  5  7  1  0  0  0  0
  5  4  2  0  0  0  0
  6  5  1  0  0  0  0
  7  8  1  0  0  0  0
  8 13  1  6  0  0  0
  8  9  1  0  0  0  0
  8 16  1  0  0  0  0
 10  1  1  0  0  0  0
 12  6  1  0  0  0  0
 14 15  1  0  0  0  0
 15 16  2  0  0  0  0
 15 22  1  0  0  0  0
 16 17  1  0  0  0  0
 17 18  1  0  0  0  0
 17 19  2  0  0  0  0
 19 20  1  0  0  0  0
 21 19  1  0  0  0  0
 22 21  2  0  0  0  0
 23  2  1  0  0  0  0
 24 29  1  0  0  0  0
 24 23  1  0  0  0  0
 25 24  2  0  0  0  0
 26 25  1  0  0  0  0
 26 27  2  0  0  0  0
 27 28  1  0  0  0  0
 28 29  2  0  0  0  0
 28 37  1  0  0  0  0
 30 26  1  0  0  0  0
 31 30  1  0  0  0  0
 32 30  1  0  0  0  0
 33 34  1  0  0  0  0
 33 25  1  0  0  0  0
 35 33  1  0  0  0  0
 36 33  1  0  0  0  0
 37 38  1  0  0  0  0
 38 39  1  0  0  0  0
 38 40  1  0  0  0  0
 41 38  1  0  0  0  0
M  END
>  <minimizedAffinity>
-6.83634853

$$$$

 OpenBabel03242515473D

 41 44  0  0  1  0  0  0  0  0999 V2000
   37.1300   31.4440   39.2320 C   0  0  0  0  0  0  0  0  0  0  0  0
   37.9200   32.0320   40.2220 C   0  0  0  0  0  0  0  0  0  0  0  0
   38.4240   31.2900   41.2700 C   0  0  0  0  0  0  0  0  0  0  0  0
   38.1550   29.9470   41.3590 C   0  0  0  0  0  0  0  0  0  0  0  0
   37.3760   29.3460   40.3920 C   0  0  0  0  0  0  0  0  0  0  0  0
   36.8610   30.0570   39.3380 C   0  0  0  0  0  0  0  0  0  0  0  0
   37.2810   27.9860   40.7510 O   0  0  0  0  0  0  0  0  0  0  0  0
   37.7290   27.8490   42.0400 C   0  0  2  0  0  0  0  0  0  0  0  0
   38.5330   28.9800   42.2960 O   0  0  0  0  0  0  0  0  0  0  0  0
   36.6970   31.9550   38.3820 H   0  0  0  0  0  0  0  0  0  0  0  0
   39.0220   31.8390   41.9820 H   0  0  0  0  0  0  0  0  0  0  0  0
   36.2500   29.5870   38.5790 H   0  0  0  0  0  0  0  0  0  0  0  0
   36.8360   27.9740   42.7200 H   0  0  0  0  0  0  0  0  0  0  0  0
   36.6930   25.4250   40.3380 Br  0  0  0  0  0  0  0  0  0  0  0  0
   38.0340   25.3980   41.7100 C   0  0  0  0  0  0  0  0  0  0  0  0
   38.3810   26.5770   42.3760 C   0  0  0  0  0  0  0  0  0  0  0  0
   39.3530   26.4840   43.3510 C   0  0  0  0  0  0  0  0  0  0  0  0
   39.6760   27.3460   43.9100 H   0  0  0  0  0  0  0  0  0  0  0  0
   39.9670   25.2710   43.6630 C   0  0  0  0  0  0  0  0  0  0  0  0
   40.7300   25.2160   44.4340 H   0  0  0  0  0  0  0  0  0  0  0  0
   39.6250   24.1160   43.0080 C   0  0  0  0  0  3  0  0  0  0  0  0
   38.6530   24.2120   42.0340 C   0  0  0  0  0  3  0  0  0  0  0  0
   38.1820   33.7810   39.9320 S   0  0  0  0  0  0  0  0  0  0  0  0
   39.9730   34.1340   39.9030 C   0  0  0  0  0  0  0  0  0  0  0  0
   40.6760   33.5170   38.9350 C   0  0  0  0  0  0  0  0  0  0  0  0
   42.0450   33.7800   38.9340 C   0  0  0  0  0  0  0  0  0  0  0  0
   42.6060   34.5980   39.8450 N   0  0  0  0  0  0  0  0  0  0  0  0
   41.8560   35.1930   40.7950 C   0  0  0  0  0  0  0  0  0  0  0  0
   40.5480   34.9370   40.7890 N   0  0  0  0  0  0  0  0  0  0  0  0
   42.9040   33.1590   37.9540 N   0  0  0  0  0  0  0  0  0  0  0  0
   42.8660   33.2830   36.8990 H   0  0  0  0  0  0  0  0  0  0  0  0
   43.6300   32.5260   38.3360 H   0  0  0  0  0  0  0  0  0  0  0  0
   40.3320   32.6010   37.8020 C   0  0  0  0  0  0  0  0  0  0  0  0
   39.2520   32.7750   37.6110 H   0  0  0  0  0  0  0  0  0  0  0  0
   40.5390   31.5770   38.1260 H   0  0  0  0  0  0  0  0  0  0  0  0
   40.8380   32.9090   36.8620 H   0  0  0  0  0  0  0  0  0  0  0  0
   42.3380   36.0450   41.7660 O   0  0  0  0  0  0  0  0  0  0  0  0
   43.4220   35.5900   42.5590 C   0  0  0  0  0  0  0  0  0  0  0  0
   44.6200   35.8650   41.9740 F   0  0  0  0  0  0  0  0  0  0  0  0
   43.2970   36.2210   43.8080 F   0  0  0  0  0  0  0  0  0  0  0  0
   43.3200   34.2210   42.6870 F   0  0  0  0  0  0  0  0  0  0  0  0
  1  6  2  0  0  0  0
  1  2  1  0  0  0  0
  2  3  2  0  0  0  0
  3  4  1  0  0  0  0
  3 11  1  0  0  0  0
  4  9  1  0  0  0  0
  5  7  1  0  0  0  0
  5  4  2  0  0  0  0
  6  5  1  0  0  0  0
  7  8  1  0  0  0  0
  8  9  1  0  0  0  0
  8 16  1  0  0  0  0
  8 13  1  1  0  0  0
 10  1  1  0  0  0  0
 12  6  1  0  0  0  0
 14 15  1  0  0  0  0
 15 22  2  0  0  0  0
 15 16  1  0  0  0  0
 16 17  2  0  0  0  0
 17 19  1  0  0  0  0
 17 18  1  0  0  0  0
 19 20  1  0  0  0  0
 21 19  2  0  0  0  0
 22 21  1  0  0  0  0
 23  2  1  0  0  0  0
 24 23  1  0  0  0  0
 24 29  1  0  0  0  0
 25 24  2  0  0  0  0
 26 25  1  0  0  0  0
 26 27  2  0  0  0  0
 27 28  1  0  0  0  0
 28 37  1  0  0  0  0
 29 28  2  0  0  0  0
 30 32  1  0  0  0  0
 30 26  1  0  0  0  0
 31 30  1  0  0  0  0
 33 35  1  0  0  0  0
 33 25  1  0  0  0  0
 34 33  1  0  0  0  0
 36 33  1  0  0  0  0
 37 38  1  0  0  0  0
 38 41  1  0  0  0  0
 38 40  1  0  0  0  0
 39 38  1  0  0  0  0
M  END
>  <minimizedAffinity>
-6.81582117

$$$$

 OpenBabel03242515473D

 41 44  0  0  1  0  0  0  0  0999 V2000
   37.5360   32.8240   39.9430 C   0  0  0  0  0  0  0  0  0  0  0  0
   37.8650   31.7600   40.7850 C   0  0  0  0  0  0  0  0  0  0  0  0
   39.1480   31.5990   41.2670 C   0  0  0  0  0  0  0  0  0  0  0  0
   40.1320   32.4910   40.9260 C   0  0  0  0  0  0  0  0  0  0  0  0
   39.8290   33.5510   40.0960 C   0  0  0  0  0  0  0  0  0  0  0  0
   38.5640   33.7370   39.6000 C   0  0  0  0  0  0  0  0  0  0  0  0
   41.0250   34.2780   39.9320 O   0  0  0  0  0  0  0  0  0  0  0  0
   42.0620   33.5120   40.3970 C   0  0  2  0  0  0  0  0  0  0  0  0
   41.4860   32.5630   41.2680 O   0  0  0  0  0  0  0  0  0  0  0  0
   36.5580   33.0190   39.5230 H   0  0  0  0  0  0  0  0  0  0  0  0
   39.2980   30.7430   41.9100 H   0  0  0  0  0  0  0  0  0  0  0  0
   38.3240   34.5670   38.9480 H   0  0  0  0  0  0  0  0  0  0  0  0
   42.4460   32.9040   39.5270 H   0  0  0  0  0  0  0  0  0  0  0  0
   44.8360   32.6600   39.2010 Br  0  0  0  0  0  0  0  0  0  0  0  0
   44.5060   33.9720   40.5620 C   0  0  0  0  0  0  0  0  0  0  0  0
   43.1990   34.2330   40.9840 C   0  0  0  0  0  0  0  0  0  0  0  0
   43.0360   35.1880   41.9660 C   0  0  0  0  0  0  0  0  0  0  0  0
   42.0620   35.4470   42.3460 H   0  0  0  0  0  0  0  0  0  0  0  0
   44.1220   35.8680   42.5180 C   0  0  0  0  0  0  0  0  0  0  0  0
   43.9750   36.6170   43.2910 H   0  0  0  0  0  0  0  0  0  0  0  0
   45.4030   35.6110   42.1020 C   0  0  0  0  0  3  0  0  0  0  0  0
   45.5630   34.6550   41.1200 C   0  0  0  0  0  3  0  0  0  0  0  0
   36.4550   30.7120   41.1380 S   0  0  0  0  0  0  0  0  0  0  0  0
   37.0120   28.9860   41.3470 C   0  0  0  0  0  0  0  0  0  0  0  0
   36.6540   28.1330   40.3690 C   0  0  0  0  0  0  0  0  0  0  0  0
   37.0690   26.8140   40.5490 C   0  0  0  0  0  0  0  0  0  0  0  0
   37.7780   26.4400   41.6300 N   0  0  0  0  0  0  0  0  0  0  0  0
   38.1130   27.3350   42.5820 C   0  0  0  0  0  0  0  0  0  0  0  0
   37.7120   28.5940   42.4040 N   0  0  0  0  0  0  0  0  0  0  0  0
   36.7270   25.8060   39.5750 N   0  0  0  0  0  0  0  0  0  0  0  0
   37.0240   25.7740   38.5540 H   0  0  0  0  0  0  0  0  0  0  0  0
   36.1260   25.0360   39.9230 H   0  0  0  0  0  0  0  0  0  0  0  0
   35.9110   28.2620   39.0770 C   0  0  0  0  0  0  0  0  0  0  0  0
   35.9890   29.3370   38.8080 H   0  0  0  0  0  0  0  0  0  0  0  0
   34.8770   27.9500   39.2520 H   0  0  0  0  0  0  0  0  0  0  0  0
   36.4310   27.7260   38.2540 H   0  0  0  0  0  0  0  0  0  0  0  0
   38.8360   27.0480   43.7200 O   0  0  0  0  0  0  0  0  0  0  0  0
   40.2020   26.7000   43.5600 C   0  0  0  0  0  0  0  0  0  0  0  0
   40.3530   25.3700   43.3080 F   0  0  0  0  0  0  0  0  0  0  0  0
   40.6940   27.4880   42.5060 F   0  0  0  0  0  0  0  0  0  0  0  0
   40.8620   26.9830   44.7370 F   0  0  0  0  0  0  0  0  0  0  0  0
  1  2  1  0  0  0  0
  2 23  1  0  0  0  0
  2  3  2  0  0  0  0
  3 11  1  0  0  0  0
  4  3  1  0  0  0  0
  4  9  1  0  0  0  0
  5  4  2  0  0  0  0
  6  1  2  0  0  0  0
  6  5  1  0  0  0  0
  7  5  1  0  0  0  0
  7  8  1  0  0  0  0
  8 13  1  6  0  0  0
  8 16  1  0  0  0  0
  8  9  1  0  0  0  0
 10  1  1  0  0  0  0
 12  6  1  0  0  0  0
 14 15  1  0  0  0  0
 15 16  2  0  0  0  0
 15 22  1  0  0  0  0
 16 17  1  0  0  0  0
 17 18  1  0  0  0  0
 17 19  2  0  0  0  0
 19 20  1  0  0  0  0
 21 19  1  0  0  0  0
 22 21  2  0  0  0  0
 23 24  1  0  0  0  0
 24 29  1  0  0  0  0
 25 26  1  0  0  0  0
 25 24  2  0  0  0  0
 26 27  2  0  0  0  0
 27 28  1  0  0  0  0
 28 37  1  0  0  0  0
 29 28  2  0  0  0  0
 30 32  1  0  0  0  0
 30 26  1  0  0  0  0
 31 30  1  0  0  0  0
 33 35  1  0  0  0  0
 33 25  1  0  0  0  0
 34 33  1  0  0  0  0
 36 33  1  0  0  0  0
 38 37  1  0  0  0  0
 38 41  1  0  0  0  0
 39 38  1  0  0  0  0
 40 38  1  0  0  0  0
M  END
>  <minimizedAffinity>
-6.76456404

$$$$
