
 OpenBabel03252509263D

 30 32  0  0  1  0  0  0  0  0999 V2000
   46.5090   34.9690   41.9530 C   0  0  1  0  0  0  0  0  0  0  0  0
   48.0090   35.3690   41.9490 C   0  0  0  0  0  0  0  0  0  0  0  0
   47.4180   34.0270   41.4450 C   0  0  2  0  0  0  0  0  0  0  0  0
   45.8750   35.6200   41.3140 H   0  0  0  0  0  0  0  0  0  0  0  0
   48.2650   36.1060   41.1640 H   0  0  0  0  0  0  0  0  0  0  0  0
   48.5610   35.3630   42.8960 H   0  0  0  0  0  0  0  0  0  0  0  0
   47.7830   33.1560   42.0740 H   0  0  0  0  0  0  0  0  0  0  0  0
   44.6190   35.4860   45.1530 C   0  0  0  0  0  0  0  0  0  0  0  0
   45.0860   35.7330   43.8300 C   0  0  0  0  0  0  0  0  0  0  0  0
   45.9990   34.8440   43.3710 C   0  0  0  0  0  0  0  0  0  0  0  0
   46.4480   33.7740   44.1330 N   0  0  0  0  0  0  0  0  0  0  0  0
   45.9650   33.5930   45.3880 C   0  0  0  0  0  0  0  0  0  0  0  0
   45.0460   34.4590   45.8890 N   0  0  0  0  0  0  0  0  0  0  0  0
   43.8860   36.1660   45.5690 H   0  0  0  0  0  0  0  0  0  0  0  0
   46.4120   32.7210   45.8450 H   0  0  0  0  0  0  0  0  0  0  0  0
   44.6630   36.8350   43.0660 N   0  0  0  0  0  0  0  0  0  0  0  0
   44.0250   36.4890   42.3220 H   0  0  0  0  0  0  0  0  0  0  0  0
   44.9930   37.8160   43.2890 H   0  0  0  0  0  0  0  0  0  0  0  0
   47.4960   33.7030   39.9710 C   0  0  0  0  0  0  0  0  0  0  0  0
   46.5560   33.2140   39.6140 H   0  0  0  0  0  0  0  0  0  0  0  0
   47.6050   34.6500   39.4200 H   0  0  0  0  0  0  0  0  0  0  0  0
   47.8940   33.4780   36.9520 Br  0  0  0  0  0  0  0  0  0  0  0  0
   48.9520   32.6990   38.3260 C   0  0  0  0  0  0  0  0  0  0  0  0
   48.6740   32.8710   39.6800 C   0  0  0  0  0  0  0  0  0  0  0  0
   49.4860   32.2770   40.6140 C   0  0  0  0  0  0  0  0  0  0  0  0
   49.2000   32.4600   41.6470 H   0  0  0  0  0  0  0  0  0  0  0  0
   50.5850   31.4990   40.3240 C   0  0  0  0  0  0  0  0  0  0  0  0
   51.1930   31.0520   41.0730 H   0  0  0  0  0  0  0  0  0  0  0  0
   50.8420   31.3410   38.9630 C   0  0  0  0  0  3  0  0  0  0  0  0
   50.0560   31.9190   37.9940 C   0  0  0  0  0  3  0  0  0  0  0  0
  1  4  1  6  0  0  0
  1 10  1  0  0  0  0
  2  1  1  0  0  0  0
  2  6  1  0  0  0  0
  3  2  1  0  0  0  0
  3  1  1  0  0  0  0
  3  7  1  1  0  0  0
  5  2  1  0  0  0  0
  8 14  1  0  0  0  0
  8 13  1  0  0  0  0
  9  8  2  0  0  0  0
 10  9  1  0  0  0  0
 10 11  2  0  0  0  0
 11 12  1  0  0  0  0
 12 15  1  0  0  0  0
 12 13  2  0  0  0  0
 16 18  1  0  0  0  0
 16  9  1  0  0  0  0
 17 16  1  0  0  0  0
 19  3  1  0  0  0  0
 20 19  1  0  0  0  0
 21 19  1  0  0  0  0
 22 23  1  0  0  0  0
 23 24  1  0  0  0  0
 24 19  1  0  0  0  0
 24 25  2  0  0  0  0
 25 26  1  0  0  0  0
 27 25  1  0  0  0  0
 27 28  1  0  0  0  0
 29 27  2  0  0  0  0
 30 23  2  0  0  0  0
 30 29  1  0  0  0  0
M  END
>  <minimizedAffinity>
-5.1217761

>  <minimizedRMSD>
0.526666403

$$$$
