
 OpenBabel03242512173D

 33 35  0  0  0  0  0  0  0  0999 V2000
   48.4040   32.9740   41.4370 C   0  0  0  0  0  0  0  0  0  0  0  0
   48.0540   34.2460   41.8220 C   0  0  0  0  0  0  0  0  0  0  0  0
   49.0120   35.0480   42.4080 C   0  0  0  0  0  0  0  0  0  0  0  0
   50.2910   34.5590   42.5960 C   0  0  0  0  0  0  0  0  0  0  0  0
   50.6000   33.2780   42.1960 C   0  0  0  0  0  0  0  0  0  0  0  0
   49.6530   32.4460   41.6010 C   0  0  0  0  0  0  0  0  0  0  0  0
   48.7110   36.0250   42.6940 H   0  0  0  0  0  0  0  0  0  0  0  0
   51.0060   35.2210   43.0580 H   0  0  0  0  0  0  0  0  0  0  0  0
   51.6220   32.9740   42.3790 H   0  0  0  0  0  0  0  0  0  0  0  0
   46.6530   34.6470   41.5660 C   0  0  0  0  0  0  0  0  0  0  0  0
   46.1280   33.9620   40.9240 H   0  0  0  0  0  0  0  0  0  0  0  0
   46.6870   35.6280   41.0180 H   0  0  0  0  0  0  0  0  0  0  0  0
   45.9510   34.8990   42.8890 C   0  0  0  0  0  0  0  0  0  0  0  0
   46.0030   33.8970   43.8400 C   0  0  0  0  0  0  0  0  0  0  0  0
   45.3630   34.1390   45.0540 C   0  0  0  0  0  0  0  0  0  0  0  0
   44.7410   35.3140   45.2280 N   0  0  0  0  0  0  0  0  0  0  0  0
   44.7070   36.2800   44.2760 C   0  0  0  0  0  0  0  0  0  0  0  0
   45.3130   36.0710   43.1030 N   0  0  0  0  0  0  0  0  0  0  0  0
   46.5220   32.9710   43.6330 H   0  0  0  0  0  0  0  0  0  0  0  0
   45.4040   33.3600   45.7920 H   0  0  0  0  0  0  0  0  0  0  0  0
   44.1760   37.1860   44.5290 H   0  0  0  0  0  0  0  0  0  0  0  0
   47.4960   32.0750   40.8280 O   0  0  0  0  0  0  0  0  0  0  0  0
   46.8210   31.5630   41.3800 H   0  0  0  0  0  0  0  0  0  0  0  0
   50.0540   31.1670   41.2290 O   0  0  0  0  0  0  0  0  0  0  0  0
   52.3950   29.8050   42.7770 Br  0  0  0  0  0  0  0  0  0  0  0  0
   52.4150   30.5030   41.0170 C   0  0  0  0  0  0  0  0  0  0  0  0
   51.2530   31.0650   40.5340 C   0  0  0  0  0  0  0  0  0  0  0  0
   51.3330   31.5580   39.2360 C   0  0  0  0  0  0  0  0  0  0  0  0
   50.4320   32.0100   38.8220 H   0  0  0  0  0  0  0  0  0  0  0  0
   52.4500   31.5320   38.4140 C   0  0  0  0  0  0  0  0  0  0  0  0
   52.3790   31.9520   37.4200 H   0  0  0  0  0  0  0  0  0  0  0  0
   53.5920   30.9510   38.9630 C   0  0  0  0  0  3  0  0  0  0  0  0
   53.5690   30.4400   40.2580 C   0  0  0  0  0  3  0  0  0  0  0  0
  1  6  2  0  0  0  0
  1  2  1  0  0  0  0
  2  3  2  0  0  0  0
  3  4  1  0  0  0  0
  3  7  1  0  0  0  0
  4  8  1  0  0  0  0
  5  9  1  0  0  0  0
  5  4  2  0  0  0  0
  6  5  1  0  0  0  0
 10  2  1  0  0  0  0
 10 13  1  0  0  0  0
 11 10  1  0  0  0  0
 12 10  1  0  0  0  0
 13 18  2  0  0  0  0
 13 14  1  0  0  0  0
 14 15  2  0  0  0  0
 15 16  1  0  0  0  0
 15 20  1  0  0  0  0
 17 21  1  0  0  0  0
 17 16  2  0  0  0  0
 18 17  1  0  0  0  0
 19 14  1  0  0  0  0
 22 23  1  0  0  0  0
 22  1  1  0  0  0  0
 24  6  1  0  0  0  0
 26 25  1  0  0  0  0
 27 26  1  0  0  0  0
 27 24  1  0  0  0  0
 28 27  2  0  0  0  0
 29 28  1  0  0  0  0
 30 32  2  0  0  0  0
 30 28  1  0  0  0  0
 31 30  1  0  0  0  0
 32 33  1  0  0  0  0
 33 26  2  0  0  0  0
M  END
>  <minimizedAffinity>
-5.43327284

>  <minimizedRMSD>
1.82960951

$$$$
