
     RDKit          3D

 35 37  0  0  0  0  0  0  0  0999 V2000
   46.6353   34.6944   41.6141 C   0  0  0  0  0  0  0  0  0  0  0  0
   45.9377   34.9136   42.9463 C   0  0  0  0  0  0  0  0  0  0  0  0
   46.0059   33.8936   43.8773 C   0  0  0  0  0  0  0  0  0  0  0  0
   45.3709   34.1066   45.0990 C   0  0  0  0  0  0  0  0  0  0  0  0
   44.7382   35.2724   45.3002 N   0  0  0  0  0  0  0  0  0  0  0  0
   44.6888   36.2545   44.3662 C   0  0  0  0  0  0  0  0  0  0  0  0
   45.2902   36.0749   43.1857 N   0  0  0  0  0  0  0  0  0  0  0  0
   48.3735   33.0070   41.4968 C   0  0  0  0  0  0  0  0  0  0  0  0
   48.0380   34.2906   41.8536 C   0  0  0  0  0  0  0  0  0  0  0  0
   49.0107   35.1020   42.4012 C   0  0  0  0  0  0  0  0  0  0  0  0
   50.2914   34.6098   42.5777 C   0  0  0  0  0  0  0  0  0  0  0  0
   50.5835   33.3172   42.2060 C   0  0  0  0  0  0  0  0  0  0  0  0
   49.6220   32.4762   41.6510 C   0  0  0  0  0  0  0  0  0  0  0  0
   47.4479   32.0984   40.9280 O   0  0  0  0  0  0  0  0  0  0  0  0
   50.0078   31.1847   41.3050 O   0  0  0  0  0  0  0  0  0  0  0  0
   46.1083   34.0232   40.9594 H   0  0  0  0  0  0  0  0  0  0  0  0
   46.6640   35.6876   41.0891 H   0  0  0  0  0  0  0  0  0  0  0  0
   46.5334   32.9785   43.6486 H   0  0  0  0  0  0  0  0  0  0  0  0
   45.4240   33.3140   45.8223 H   0  0  0  0  0  0  0  0  0  0  0  0
   44.1499   37.1514   44.6397 H   0  0  0  0  0  0  0  0  0  0  0  0
   48.7220   36.0881   42.6667 H   0  0  0  0  0  0  0  0  0  0  0  0
   51.0179   35.2794   43.0089 H   0  0  0  0  0  0  0  0  0  0  0  0
   51.6075   33.0112   42.3777 H   0  0  0  0  0  0  0  0  0  0  0  0
   46.7812   31.6050   41.5059 H   0  0  0  0  0  0  0  0  0  0  0  0
   51.5294   28.6033   40.4384 Br  0  0  0  0  0  0  0  0  0  0  0  0
   50.4519   29.7326   39.3664 C   0  0  0  0  0  0  0  0  0  0  0  0
   49.8725   30.8287   39.9693 C   0  0  0  0  0  0  0  0  0  0  0  0
   49.0934   31.6179   39.1286 C   0  0  0  0  0  0  0  0  0  0  0  0
   48.6201   32.4934   39.5724 H   0  0  0  0  0  0  0  0  0  0  0  0
   48.8597   31.4000   37.7792 C   0  0  0  0  0  0  0  0  0  0  0  0
   48.2312   32.0934   37.2374 H   0  0  0  0  0  0  0  0  0  0  0  0
   49.4751   30.2745   37.2321 C   0  0  0  0  0  0  0  0  0  0  0  0
   50.2660   29.4493   38.0277 C   0  0  0  0  0  0  0  0  0  0  0  0
   49.3187   30.0735   36.1961 H   0  0  0  0  0  0  0  0  0  0  0  0
   50.7326   28.5797   37.5740 H   0  0  0  0  0  0  0  0  0  0  0  0
  1  9  1  0
  1  2  1  0
  2  7  1  0
  2  3  2  0
  3  4  1  0
  4  5  2  0
  6  5  1  0
  7  6  2  0
  8 13  2  0
  8  9  1  0
  9 10  2  0
 10 11  1  0
 12 11  2  0
 13 12  1  0
 14  8  1  0
 15 13  1  0
  1 16  1  0
  1 17  1  0
  3 18  1  0
  4 19  1  0
  6 20  1  0
 10 21  1  0
 11 22  1  0
 12 23  1  0
 14 24  1  0
 25 26  1  0
 26 27  2  0
 27 28  1  0
 28 29  1  0
 28 30  2  0
 30 31  1  0
 30 32  1  0
 32 33  2  0
 33 26  1  0
 32 34  1  0
 33 35  1  0
 15 27  1  0
M  ISO  8  16   8  17   8  18  14  19  14  20  14  21  14  22  14  23  14
M  ISO  3  24   3  29  15  31  16
M  END
>  <DihAtoms>  (1) 
12,14,26,25

>  <DihDeg>  (1) 
60.00139741328299

$$$$
