REMARK  Name = 
REMARK  5 active torsions:
REMARK  status: ('A' for Active; 'I' for Inactive)
REMARK    1  A    between atoms: C_1  and  C_2
REMARK    2  A    between atoms: C_1  and  C_9
REMARK    3  A    between atoms: C_8  and  O_14
REMARK    4  A    between atoms: C_13  and  O_15
REMARK    5  A    between atoms: O_15  and  C_27
REMARK                            x       y       z     vdW  Elec       q    Type
REMARK                         _______ _______ _______ _____ _____    ______ ____
ROOT
ATOM      1  C   UNL     1      48.373  33.007  41.497  0.00  0.00    +0.000 A 
ATOM      2  C   UNL     1      48.038  34.291  41.854  0.00  0.00    +0.000 A 
ATOM      3  C   UNL     1      49.011  35.102  42.401  0.00  0.00    +0.000 A 
ATOM      4  C   UNL     1      50.291  34.610  42.578  0.00  0.00    +0.000 A 
ATOM      5  C   UNL     1      50.584  33.317  42.206  0.00  0.00    +0.000 A 
ATOM      6  C   UNL     1      49.622  32.476  41.651  0.00  0.00    +0.000 A 
ATOM      7  H   UNL     1      48.722  36.088  42.667  0.00  0.00    +0.000 HD
ATOM      8  H   UNL     1      51.018  35.279  43.009  0.00  0.00    +0.000 HD
ATOM      9  H   UNL     1      51.608  33.011  42.378  0.00  0.00    +0.000 HD
ENDROOT
BRANCH   2  10
ATOM     10  C   UNL     1      46.635  34.694  41.614  0.00  0.00    +0.000 C 
ATOM     11  H   UNL     1      46.108  34.023  40.959  0.00  0.00    +0.000 HD
ATOM     12  H   UNL     1      46.664  35.688  41.089  0.00  0.00    +0.000 HD
BRANCH  10  13
ATOM     13  C   UNL     1      45.938  34.914  42.946  0.00  0.00    +0.000 A 
ATOM     14  C   UNL     1      46.006  33.894  43.877  0.00  0.00    +0.000 A 
ATOM     15  C   UNL     1      45.371  34.107  45.099  0.00  0.00    +0.000 A 
ATOM     16  N   UNL     1      44.738  35.272  45.300  0.00  0.00    +0.000 NA
ATOM     17  C   UNL     1      44.689  36.255  44.366  0.00  0.00    +0.000 A 
ATOM     18  N   UNL     1      45.290  36.075  43.186  0.00  0.00    +0.000 NA
ATOM     19  H   UNL     1      46.533  32.978  43.649  0.00  0.00    +0.000 HD
ATOM     20  H   UNL     1      45.424  33.314  45.822  0.00  0.00    +0.000 HD
ATOM     21  H   UNL     1      44.150  37.151  44.640  0.00  0.00    +0.000 HD
ENDBRANCH  10  13
ENDBRANCH   2  10
BRANCH   1  22
ATOM     22  O   UNL     1      47.448  32.098  40.928  0.00  0.00    +0.000 OA
ATOM     23  H   UNL     1      46.781  31.605  41.506  0.00  0.00    +0.000 HD
ENDBRANCH   1  22
BRANCH   6  24
ATOM     24  O   UNL     1      50.008  31.185  41.305  0.00  0.00    +0.000 OA
BRANCH  24  27
ATOM     25 BR   UNL     1      51.529  28.603  40.438  0.00  0.00    +0.000 Br
ATOM     26  C   UNL     1      50.452  29.733  39.366  0.00  0.00    +0.000 A 
ATOM     27  C   UNL     1      49.873  30.829  39.969  0.00  0.00    +0.000 A 
ATOM     28  C   UNL     1      49.093  31.618  39.129  0.00  0.00    +0.000 A 
ATOM     29  H   UNL     1      48.620  32.493  39.572  0.00  0.00    +0.000 HD
ATOM     30  C   UNL     1      48.860  31.400  37.779  0.00  0.00    +0.000 A 
ATOM     31  H   UNL     1      48.231  32.093  37.237  0.00  0.00    +0.000 HD
ATOM     32  C   UNL     1      49.475  30.274  37.232  0.00  0.00    +0.000 A 
ATOM     33  C   UNL     1      50.266  29.449  38.028  0.00  0.00    +0.000 A 
ENDBRANCH  24  27
ENDBRANCH   6  24
TORSDOF 5
