REMARK  Name = 
REMARK  6 active torsions:
REMARK  status: ('A' for Active; 'I' for Inactive)
REMARK    1  A    between atoms: C_1  and  S_9
REMARK    2  A    between atoms: C_2  and  C_8
REMARK    3  A    between atoms: C_5  and  O_19
REMARK    4  A    between atoms: S_9  and  C_11
REMARK    5  A    between atoms: C_17  and  C_35
REMARK    6  A    between atoms: O_19  and  C_20
REMARK                            x       y       z     vdW  Elec       q    Type
REMARK                         _______ _______ _______ _____ _____    ______ ____
ROOT
ATOM      1  C   UNL     1      39.731  34.605  40.263  0.00  0.00    +0.000 A 
ATOM      2  C   UNL     1      40.872  34.171  40.940  0.00  0.00    +0.000 A 
ATOM      3  C   UNL     1      40.931  32.917  41.513  0.00  0.00    +0.000 A 
ATOM      4  C   UNL     1      39.859  32.065  41.426  0.00  0.00    +0.000 A 
ATOM      5  C   UNL     1      38.721  32.474  40.761  0.00  0.00    +0.000 A 
ATOM      6  C   UNL     1      38.632  33.714  40.182  0.00  0.00    +0.000 A 
ATOM      7  O   UNL     1      37.811  31.400  40.840  0.00  0.00    +0.000 OA
ATOM      8  C   UNL     1      38.276  30.510  41.774  0.00  0.00    +0.000 C 
ATOM      9  O   UNL     1      39.657  30.767  41.905  0.00  0.00    +0.000 OA
ATOM     10  H   UNL     1      39.605  35.569  39.789  0.00  0.00    +0.000 HD
ATOM     11  H   UNL     1      41.858  32.679  42.014  0.00  0.00    +0.000 HD
ATOM     12  H   UNL     1      37.740  34.036  39.660  0.00  0.00    +0.000 HD
ATOM     13  H   UNL     1      37.834  30.808  42.769  0.00  0.00    +0.000 HD
ENDROOT
BRANCH   8  16
ATOM     14 BR   UNL     1      39.424  29.397  39.074  0.00  0.00    +0.000 Br
ATOM     15  C   UNL     1      38.401  28.444  40.387  0.00  0.00    +0.000 A 
ATOM     16  C   UNL     1      37.962  29.094  41.544  0.00  0.00    +0.000 A 
ATOM     17  C   UNL     1      37.231  28.348  42.445  0.00  0.00    +0.000 A 
ATOM     18  H   UNL     1      36.858  28.775  43.360  0.00  0.00    +0.000 HD
ATOM     19  C   UNL     1      36.938  27.002  42.219  0.00  0.00    +0.000 A 
ATOM     20  H   UNL     1      36.361  26.429  42.938  0.00  0.00    +0.000 HD
ATOM     21  C   UNL     1      37.369  26.366  41.082  0.00  0.00    +0.000 A 
ATOM     22  C   UNL     1      38.100  27.115  40.183  0.00  0.00    +0.000 A 
ENDBRANCH   8  16
BRANCH   2  23
ATOM     23  S   UNL     1      42.174  35.402  40.935  0.00  0.00    +0.000 S 
BRANCH  23  24
ATOM     24  C   UNL     1      43.768  34.605  40.539  0.00  0.00    +0.000 A 
ATOM     25  C   UNL     1      43.765  33.788  39.469  0.00  0.00    +0.000 A 
ATOM     26  C   UNL     1      44.983  33.171  39.188  0.00  0.00    +0.000 A 
ATOM     27  N   UNL     1      46.075  33.390  39.944  0.00  0.00    +0.000 NA
ATOM     28  C   UNL     1      46.026  34.220  41.006  0.00  0.00    +0.000 A 
ATOM     29  N   UNL     1      44.858  34.806  41.269  0.00  0.00    +0.000 NA
ATOM     30  N   UNL     1      45.095  32.258  38.076  0.00  0.00    +0.000 N 
ATOM     31  H   UNL     1      44.956  32.483  37.046  0.00  0.00    +0.000 HD
ATOM     32  H   UNL     1      45.337  31.281  38.324  0.00  0.00    +0.000 HD
BRANCH  25  33
ATOM     33  C   UNL     1      42.741  33.382  38.456  0.00  0.00    +0.000 C 
ATOM     34  H   UNL     1      41.979  34.189  38.479  0.00  0.00    +0.000 HD
ATOM     35  H   UNL     1      42.333  32.414  38.762  0.00  0.00    +0.000 HD
ATOM     36  H   UNL     1      43.155  33.413  37.425  0.00  0.00    +0.000 HD
ENDBRANCH  25  33
BRANCH  28  37
ATOM     37  O   UNL     1      47.089  34.508  41.836  0.00  0.00    +0.000 OA
BRANCH  37  38
ATOM     38  C   UNL     1      48.300  34.928  41.230  0.00  0.00    +0.000 C 
ATOM     39  F   UNL     1      49.300  34.026  41.433  0.00  0.00    +0.000 F 
ATOM     40  F   UNL     1      48.025  35.100  39.863  0.00  0.00    +0.000 F 
ATOM     41  F   UNL     1      48.684  36.119  41.809  0.00  0.00    +0.000 F 
ENDBRANCH  37  38
ENDBRANCH  28  37
ENDBRANCH  23  24
ENDBRANCH   2  23
TORSDOF 6
