
 OpenBabel03242519263D

 40 43  0  0  0  0  0  0  0  0999 V2000
   40.8410   33.5720   40.6220 C   0  0  0  0  0  0  0  0  0  0  0  0
   40.1490   34.7770   40.3420 C   0  0  0  0  0  0  0  0  0  0  0  0
   38.7530   34.7720   40.2100 C   0  0  0  0  0  0  0  0  0  0  0  0
   38.1370   33.5570   40.3650 N   0  0  0  0  0  0  0  0  0  0  0  0
   38.8330   32.4090   40.6340 C   0  0  0  0  0  0  0  0  0  0  0  0
   40.1530   32.4380   40.7550 N   0  0  0  0  0  0  0  0  0  0  0  0
   40.5590   35.7670   40.2060 H   0  0  0  0  0  0  0  0  0  0  0  0
   38.1710   35.6340   40.0020 H   0  0  0  0  0  0  0  0  0  0  0  0
   42.3000   33.7020   40.7320 C   0  0  0  0  0  0  0  0  0  0  0  0
   42.9650   32.5220   41.2820 C   0  0  0  0  0  0  0  0  0  0  0  0
   43.5660   32.7240   42.6260 C   0  0  0  0  0  0  0  0  0  0  0  0
   44.4740   33.9470   42.7050 C   0  0  0  0  0  0  0  0  0  0  0  0
   44.0380   35.0980   41.8540 C   0  0  0  0  0  0  0  0  0  0  0  0
   42.5600   34.9890   41.5340 C   0  0  0  0  0  0  0  0  0  0  0  0
   42.7050   33.9490   39.7060 H   0  0  0  0  0  0  0  0  0  0  0  0
   42.2320   31.7010   41.3730 H   0  0  0  0  0  0  0  0  0  0  0  0
   43.7440   32.1340   40.5810 H   0  0  0  0  0  0  0  0  0  0  0  0
   44.2820   31.8600   42.7700 H   0  0  0  0  0  0  0  0  0  0  0  0
   42.8990   32.6710   43.4850 H   0  0  0  0  0  0  0  0  0  0  0  0
   44.4350   34.3090   43.7640 H   0  0  0  0  0  0  0  0  0  0  0  0
   45.5310   33.7170   42.4950 H   0  0  0  0  0  0  0  0  0  0  0  0
   44.5790   35.0190   40.8870 H   0  0  0  0  0  0  0  0  0  0  0  0
   44.2410   36.0790   42.2870 H   0  0  0  0  0  0  0  0  0  0  0  0
   42.2760   35.8330   40.8690 H   0  0  0  0  0  0  0  0  0  0  0  0
   41.9310   35.0480   42.4350 H   0  0  0  0  0  0  0  0  0  0  0  0
   38.0240   31.2080   40.7630 C   0  0  0  0  0  0  0  0  0  0  0  0
   36.6720   31.3710   40.8180 N   0  0  0  0  0  0  0  0  0  0  0  0
   36.0940   30.1530   40.9350 C   0  0  0  0  0  0  0  0  0  0  0  0
   37.1080   29.2260   40.9510 N   0  0  0  0  0  0  0  0  0  0  0  0
   38.2650   29.8800   40.8470 N   0  0  0  0  0  0  0  0  0  0  0  0
   35.0490   29.8840   41.0060 H   0  0  0  0  0  0  0  0  0  0  0  0
   37.3260   28.0840   43.8600 Br  0  0  0  0  0  0  0  0  0  0  0  0
   37.1350   27.0990   42.2380 C   0  0  0  0  0  0  0  0  0  0  0  0
   37.0580   27.8080   41.0560 C   0  0  0  0  0  0  0  0  0  0  0  0
   36.9180   27.0570   39.8830 C   0  0  0  0  0  0  0  0  0  0  0  0
   36.8480   27.5190   38.8980 H   0  0  0  0  0  0  0  0  0  0  0  0
   36.8680   25.6680   39.9720 C   0  0  0  0  0  0  0  0  0  0  0  0
   36.7600   25.0730   39.0660 H   0  0  0  0  0  0  0  0  0  0  0  0
   36.9470   24.9920   41.1490 C   0  0  0  0  0  3  0  0  0  0  0  0
   37.0830   25.7270   42.2990 C   0  0  0  0  0  3  0  0  0  0  0  0
  1  9  1  0  0  0  0
  1  6  1  0  0  0  0
  2  1  2  0  0  0  0
  3  2  1  0  0  0  0
  3  4  2  0  0  0  0
  4  5  1  0  0  0  0
  5  6  2  0  0  0  0
  5 26  1  0  0  0  0
  7  2  1  0  0  0  0
  8  3  1  0  0  0  0
  9 10  1  0  0  0  0
  9 14  1  0  0  0  0
 10 16  1  0  0  0  0
 10 11  1  0  0  0  0
 11 12  1  0  0  0  0
 11 18  1  0  0  0  0
 11 19  1  0  0  0  0
 12 20  1  0  0  0  0
 13 23  1  0  0  0  0
 13 12  1  0  0  0  0
 14 13  1  0  0  0  0
 14 25  1  0  0  0  0
 15  9  1  0  0  0  0
 17 10  1  0  0  0  0
 21 12  1  0  0  0  0
 22 13  1  0  0  0  0
 24 14  1  0  0  0  0
 26 27  1  0  0  0  0
 26 30  2  0  0  0  0
 27 28  2  0  0  0  0
 28 29  1  0  0  0  0
 28 31  1  0  0  0  0
 29 34  1  0  0  0  0
 30 29  1  0  0  0  0
 33 40  1  0  0  0  0
 33 32  1  0  0  0  0
 34 33  2  0  0  0  0
 35 37  2  0  0  0  0
 35 34  1  0  0  0  0
 36 35  1  0  0  0  0
 37 39  1  0  0  0  0
 38 37  1  0  0  0  0
 39 40  2  0  0  0  0
M  END
>  <minimizedAffinity>
-6.43926477

$$$$

 OpenBabel03242519263D

 40 43  0  0  0  0  0  0  0  0999 V2000
   37.7220   29.7170   41.9410 C   0  0  0  0  0  0  0  0  0  0  0  0
   36.4710   30.0010   41.3390 C   0  0  0  0  0  0  0  0  0  0  0  0
   36.3030   31.1700   40.5820 C   0  0  0  0  0  0  0  0  0  0  0  0
   37.4030   31.9820   40.4760 N   0  0  0  0  0  0  0  0  0  0  0  0
   38.5990   31.6800   41.0700 C   0  0  0  0  0  0  0  0  0  0  0  0
   38.7340   30.5690   41.7810 N   0  0  0  0  0  0  0  0  0  0  0  0
   35.5630   29.4170   41.3760 H   0  0  0  0  0  0  0  0  0  0  0  0
   35.3970   31.4460   40.1040 H   0  0  0  0  0  0  0  0  0  0  0  0
   37.7740   28.4680   42.7120 C   0  0  0  0  0  0  0  0  0  0  0  0
   39.1280   28.0190   43.0320 C   0  0  0  0  0  0  0  0  0  0  0  0
   39.5410   26.7690   42.3440 C   0  0  0  0  0  0  0  0  0  0  0  0
   38.5380   25.6310   42.5030 C   0  0  0  0  0  0  0  0  0  0  0  0
   37.1080   26.0680   42.5550 C   0  0  0  0  0  0  0  0  0  0  0  0
   36.9500   27.4370   41.9220 C   0  0  0  0  0  0  0  0  0  0  0  0
   37.1680   28.6170   43.6540 H   0  0  0  0  0  0  0  0  0  0  0  0
   39.8490   28.8040   42.7430 H   0  0  0  0  0  0  0  0  0  0  0  0
   39.2630   27.8990   44.1360 H   0  0  0  0  0  0  0  0  0  0  0  0
   40.4460   26.3970   42.9110 H   0  0  0  0  0  0  0  0  0  0  0  0
   39.8800   26.8540   41.3130 H   0  0  0  0  0  0  0  0  0  0  0  0
   38.6350   24.9860   41.5930 H   0  0  0  0  0  0  0  0  0  0  0  0
   38.7520   24.9810   43.3670 H   0  0  0  0  0  0  0  0  0  0  0  0
   36.8340   26.1800   43.6260 H   0  0  0  0  0  0  0  0  0  0  0  0
   36.4090   25.3730   42.0870 H   0  0  0  0  0  0  0  0  0  0  0  0
   35.8880   27.7510   42.0120 H   0  0  0  0  0  0  0  0  0  0  0  0
   37.2080   27.4360   40.8520 H   0  0  0  0  0  0  0  0  0  0  0  0
   39.6590   32.6540   40.8600 C   0  0  0  0  0  0  0  0  0  0  0  0
   39.3010   33.8620   40.3420 N   0  0  0  0  0  0  0  0  0  0  0  0
   40.4110   34.6280   40.2220 C   0  0  0  0  0  0  0  0  0  0  0  0
   41.4690   33.8760   40.6740 N   0  0  0  0  0  0  0  0  0  0  0  0
   40.9970   32.6880   41.0540 N   0  0  0  0  0  0  0  0  0  0  0  0
   40.5210   35.6380   39.8530 H   0  0  0  0  0  0  0  0  0  0  0  0
   43.1820   33.1780   38.1460 Br  0  0  0  0  0  0  0  0  0  0  0  0
   43.7830   33.9740   39.7720 C   0  0  0  0  0  0  0  0  0  0  0  0
   42.8520   34.1960   40.7660 C   0  0  0  0  0  0  0  0  0  0  0  0
   43.3230   34.7810   41.9470 C   0  0  0  0  0  0  0  0  0  0  0  0
   42.6710   34.9980   42.7930 H   0  0  0  0  0  0  0  0  0  0  0  0
   44.6750   35.0980   42.0500 C   0  0  0  0  0  0  0  0  0  0  0  0
   45.0550   35.5540   42.9640 H   0  0  0  0  0  0  0  0  0  0  0  0
   45.5740   34.8690   41.0560 C   0  0  0  0  0  3  0  0  0  0  0  0
   45.1130   34.2960   39.8980 C   0  0  0  0  0  3  0  0  0  0  0  0
  1  9  1  0  0  0  0
  2  7  1  0  0  0  0
  2  1  2  0  0  0  0
  3  2  1  0  0  0  0
  4  3  2  0  0  0  0
  4  5  1  0  0  0  0
  5  6  2  0  0  0  0
  6  1  1  0  0  0  0
  8  3  1  0  0  0  0
  9 10  1  0  0  0  0
  9 15  1  0  0  0  0
 10 17  1  0  0  0  0
 11 12  1  0  0  0  0
 11 18  1  0  0  0  0
 11 10  1  0  0  0  0
 12 13  1  0  0  0  0
 12 21  1  0  0  0  0
 13 22  1  0  0  0  0
 14 24  1  0  0  0  0
 14 13  1  0  0  0  0
 14  9  1  0  0  0  0
 16 10  1  0  0  0  0
 19 11  1  0  0  0  0
 20 12  1  0  0  0  0
 23 13  1  0  0  0  0
 25 14  1  0  0  0  0
 26 30  2  0  0  0  0
 26  5  1  0  0  0  0
 27 26  1  0  0  0  0
 28 27  2  0  0  0  0
 28 29  1  0  0  0  0
 29 34  1  0  0  0  0
 29 30  1  0  0  0  0
 31 28  1  0  0  0  0
 32 33  1  0  0  0  0
 33 40  2  0  0  0  0
 33 34  1  0  0  0  0
 34 35  2  0  0  0  0
 35 37  1  0  0  0  0
 35 36  1  0  0  0  0
 37 38  1  0  0  0  0
 39 37  2  0  0  0  0
 40 39  1  0  0  0  0
M  END
>  <minimizedAffinity>
-6.29196692

$$$$

 OpenBabel03242519263D

 40 43  0  0  0  0  0  0  0  0999 V2000
   40.6940   33.8240   39.1630 C   0  0  0  0  0  0  0  0  0  0  0  0
   40.3120   35.0140   39.8330 C   0  0  0  0  0  0  0  0  0  0  0  0
   39.2060   35.0120   40.6950 C   0  0  0  0  0  0  0  0  0  0  0  0
   38.5500   33.8160   40.8320 N   0  0  0  0  0  0  0  0  0  0  0  0
   38.9430   32.6830   40.1700 C   0  0  0  0  0  0  0  0  0  0  0  0
   39.9930   32.7080   39.3600 N   0  0  0  0  0  0  0  0  0  0  0  0
   40.7730   35.9890   39.7780 H   0  0  0  0  0  0  0  0  0  0  0  0
   38.8640   35.8630   41.2280 H   0  0  0  0  0  0  0  0  0  0  0  0
   41.8640   33.9520   38.2840 C   0  0  0  0  0  0  0  0  0  0  0  0
   41.9540   32.9160   37.2560 C   0  0  0  0  0  0  0  0  0  0  0  0
   43.0880   31.9730   37.4310 C   0  0  0  0  0  0  0  0  0  0  0  0
   44.4310   32.6690   37.6220 C   0  0  0  0  0  0  0  0  0  0  0  0
   44.3570   33.9620   38.3710 C   0  0  0  0  0  0  0  0  0  0  0  0
   43.0930   34.0180   39.2060 C   0  0  0  0  0  0  0  0  0  0  0  0
   41.8350   34.9800   37.8160 H   0  0  0  0  0  0  0  0  0  0  0  0
   41.0270   32.3170   37.2620 H   0  0  0  0  0  0  0  0  0  0  0  0
   41.9980   33.3660   36.2330 H   0  0  0  0  0  0  0  0  0  0  0  0
   43.2050   31.4530   36.4330 H   0  0  0  0  0  0  0  0  0  0  0  0
   42.9580   31.1620   38.1470 H   0  0  0  0  0  0  0  0  0  0  0  0
   45.0640   31.9840   38.2420 H   0  0  0  0  0  0  0  0  0  0  0  0
   44.9770   32.8250   36.6770 H   0  0  0  0  0  0  0  0  0  0  0  0
   44.2790   34.7770   37.6200 H   0  0  0  0  0  0  0  0  0  0  0  0
   45.2200   34.1600   39.0100 H   0  0  0  0  0  0  0  0  0  0  0  0
   43.0470   35.0040   39.7170 H   0  0  0  0  0  0  0  0  0  0  0  0
   43.0690   33.2380   39.9830 H   0  0  0  0  0  0  0  0  0  0  0  0
   38.1330   31.5030   40.4250 C   0  0  0  0  0  0  0  0  0  0  0  0
   36.8060   31.6990   40.6660 N   0  0  0  0  0  0  0  0  0  0  0  0
   36.2220   30.4960   40.8780 C   0  0  0  0  0  0  0  0  0  0  0  0
   37.2080   29.5450   40.7640 N   0  0  0  0  0  0  0  0  0  0  0  0
   38.3540   30.1700   40.4920 N   0  0  0  0  0  0  0  0  0  0  0  0
   35.1920   30.2530   41.0970 H   0  0  0  0  0  0  0  0  0  0  0  0
   37.5460   28.4410   43.6760 Br  0  0  0  0  0  0  0  0  0  0  0  0
   37.2630   27.4360   42.0800 C   0  0  0  0  0  0  0  0  0  0  0  0
   37.1400   28.1290   40.8920 C   0  0  0  0  0  0  0  0  0  0  0  0
   36.9330   27.3650   39.7390 C   0  0  0  0  0  0  0  0  0  0  0  0
   36.8230   27.8130   38.7510 H   0  0  0  0  0  0  0  0  0  0  0  0
   36.8660   25.9780   39.8510 C   0  0  0  0  0  0  0  0  0  0  0  0
   36.7050   25.3710   38.9600 H   0  0  0  0  0  0  0  0  0  0  0  0
   36.9910   25.3180   41.0330 C   0  0  0  0  0  3  0  0  0  0  0  0
   37.1930   26.0670   42.1640 C   0  0  0  0  0  3  0  0  0  0  0  0
  1  6  2  0  0  0  0
  1  2  1  0  0  0  0
  2  3  2  0  0  0  0
  3  4  1  0  0  0  0
  3  8  1  0  0  0  0
  5 26  1  0  0  0  0
  5  4  2  0  0  0  0
  6  5  1  0  0  0  0
  7  2  1  0  0  0  0
  9  1  1  0  0  0  0
  9 14  1  0  0  0  0
 10 16  1  0  0  0  0
 10 11  1  0  0  0  0
 10  9  1  0  0  0  0
 11 12  1  0  0  0  0
 11 19  1  0  0  0  0
 12 20  1  0  0  0  0
 12 13  1  0  0  0  0
 13 23  1  0  0  0  0
 13 14  1  0  0  0  0
 14 24  1  0  0  0  0
 14 25  1  0  0  0  0
 15  9  1  0  0  0  0
 17 10  1  0  0  0  0
 18 11  1  0  0  0  0
 21 12  1  0  0  0  0
 22 13  1  0  0  0  0
 26 30  2  0  0  0  0
 26 27  1  0  0  0  0
 27 28  2  0  0  0  0
 28 31  1  0  0  0  0
 29 28  1  0  0  0  0
 29 34  1  0  0  0  0
 30 29  1  0  0  0  0
 33 40  1  0  0  0  0
 33 32  1  0  0  0  0
 34 33  2  0  0  0  0
 35 37  2  0  0  0  0
 35 34  1  0  0  0  0
 36 35  1  0  0  0  0
 37 39  1  0  0  0  0
 38 37  1  0  0  0  0
 39 40  2  0  0  0  0
M  END
>  <minimizedAffinity>
-6.27600336

$$$$

 OpenBabel03242519263D

 40 43  0  0  0  0  0  0  0  0999 V2000
   39.9660   33.4580   40.3870 C   0  0  0  0  0  0  0  0  0  0  0  0
   38.8600   34.1850   39.8800 C   0  0  0  0  0  0  0  0  0  0  0  0
   37.5800   33.6120   39.8820 C   0  0  0  0  0  0  0  0  0  0  0  0
   37.4890   32.3420   40.3930 N   0  0  0  0  0  0  0  0  0  0  0  0
   38.5780   31.6650   40.8750 C   0  0  0  0  0  0  0  0  0  0  0  0
   39.7780   32.2280   40.8630 N   0  0  0  0  0  0  0  0  0  0  0  0
   38.8500   35.1820   39.4640 H   0  0  0  0  0  0  0  0  0  0  0  0
   36.7090   34.0960   39.5200 H   0  0  0  0  0  0  0  0  0  0  0  0
   41.2550   34.1610   40.3270 C   0  0  0  0  0  0  0  0  0  0  0  0
   41.5120   34.8280   39.0510 C   0  0  0  0  0  0  0  0  0  0  0  0
   42.6170   34.2310   38.2570 C   0  0  0  0  0  0  0  0  0  0  0  0
   43.9080   34.0560   39.0500 C   0  0  0  0  0  0  0  0  0  0  0  0
   43.7060   33.7240   40.4950 C   0  0  0  0  0  0  0  0  0  0  0  0
   42.3290   33.1300   40.7150 C   0  0  0  0  0  0  0  0  0  0  0  0
   41.2860   34.9020   41.1800 H   0  0  0  0  0  0  0  0  0  0  0  0
   40.6020   34.7840   38.4280 H   0  0  0  0  0  0  0  0  0  0  0  0
   41.7070   35.9190   39.1990 H   0  0  0  0  0  0  0  0  0  0  0  0
   42.8910   35.0120   37.4860 H   0  0  0  0  0  0  0  0  0  0  0  0
   42.3890   33.3400   37.6730 H   0  0  0  0  0  0  0  0  0  0  0  0
   44.4460   33.1840   38.6010 H   0  0  0  0  0  0  0  0  0  0  0  0
   44.5890   34.9180   38.9650 H   0  0  0  0  0  0  0  0  0  0  0  0
   43.7330   34.6800   41.0620 H   0  0  0  0  0  0  0  0  0  0  0  0
   44.4580   33.0520   40.9110 H   0  0  0  0  0  0  0  0  0  0  0  0
   42.1940   32.9330   41.7990 H   0  0  0  0  0  0  0  0  0  0  0  0
   42.1950   32.1750   40.1830 H   0  0  0  0  0  0  0  0  0  0  0  0
   38.3040   30.3270   41.3750 C   0  0  0  0  0  0  0  0  0  0  0  0
   37.0360   30.0690   41.8010 N   0  0  0  0  0  0  0  0  0  0  0  0
   36.9750   28.7840   42.2240 C   0  0  0  0  0  0  0  0  0  0  0  0
   38.2270   28.2440   42.0530 N   0  0  0  0  0  0  0  0  0  0  0  0
   39.0160   29.1900   41.5410 N   0  0  0  0  0  0  0  0  0  0  0  0
   36.1420   28.2250   42.6270 H   0  0  0  0  0  0  0  0  0  0  0  0
   37.3560   26.0220   40.0250 Br  0  0  0  0  0  0  0  0  0  0  0  0
   38.4500   25.8150   41.5740 C   0  0  0  0  0  0  0  0  0  0  0  0
   38.7120   26.9370   42.3350 C   0  0  0  0  0  0  0  0  0  0  0  0
   39.5180   26.7540   43.4650 C   0  0  0  0  0  0  0  0  0  0  0  0
   39.7850   27.5730   44.1320 H   0  0  0  0  0  0  0  0  0  0  0  0
   39.9980   25.4780   43.7520 C   0  0  0  0  0  0  0  0  0  0  0  0
   40.6260   25.3220   44.6280 H   0  0  0  0  0  0  0  0  0  0  0  0
   39.7250   24.3880   42.9870 C   0  0  0  0  0  3  0  0  0  0  0  0
   38.9360   24.5670   41.8790 C   0  0  0  0  0  3  0  0  0  0  0  0
  1  6  1  0  0  0  0
  2  3  1  0  0  0  0
  2  1  2  0  0  0  0
  3  4  2  0  0  0  0
  4  5  1  0  0  0  0
  5 26  1  0  0  0  0
  6  5  2  0  0  0  0
  7  2  1  0  0  0  0
  8  3  1  0  0  0  0
  9  1  1  0  0  0  0
  9 14  1  0  0  0  0
  9 15  1  0  0  0  0
 10 17  1  0  0  0  0
 10  9  1  0  0  0  0
 11 12  1  0  0  0  0
 11 10  1  0  0  0  0
 12 13  1  0  0  0  0
 13 14  1  0  0  0  0
 13 23  1  0  0  0  0
 13 22  1  0  0  0  0
 14 24  1  0  0  0  0
 16 10  1  0  0  0  0
 18 11  1  0  0  0  0
 19 11  1  0  0  0  0
 20 12  1  0  0  0  0
 21 12  1  0  0  0  0
 25 14  1  0  0  0  0
 26 30  2  0  0  0  0
 26 27  1  0  0  0  0
 27 28  2  0  0  0  0
 28 31  1  0  0  0  0
 29 28  1  0  0  0  0
 29 34  1  0  0  0  0
 30 29  1  0  0  0  0
 32 33  1  0  0  0  0
 33 40  2  0  0  0  0
 33 34  1  0  0  0  0
 34 35  2  0  0  0  0
 35 37  1  0  0  0  0
 35 36  1  0  0  0  0
 37 38  1  0  0  0  0
 39 37  2  0  0  0  0
 40 39  1  0  0  0  0
M  END
>  <minimizedAffinity>
-6.12671471

$$$$

 OpenBabel03242519263D

 40 43  0  0  0  0  0  0  0  0999 V2000
   37.2360   26.8870   41.9540 C   0  0  0  0  0  0  0  0  0  0  0  0
   37.0850   27.2880   43.3050 C   0  0  0  0  0  0  0  0  0  0  0  0
   37.3360   28.6170   43.6770 C   0  0  0  0  0  0  0  0  0  0  0  0
   37.7240   29.4620   42.6690 N   0  0  0  0  0  0  0  0  0  0  0  0
   37.8610   29.0440   41.3720 C   0  0  0  0  0  0  0  0  0  0  0  0
   37.6180   27.7830   41.0440 N   0  0  0  0  0  0  0  0  0  0  0  0
   36.7860   26.6870   44.1510 H   0  0  0  0  0  0  0  0  0  0  0  0
   37.2440   28.9860   44.6670 H   0  0  0  0  0  0  0  0  0  0  0  0
   36.9500   25.4710   41.6880 C   0  0  0  0  0  0  0  0  0  0  0  0
   37.9590   24.5500   42.2070 C   0  0  0  0  0  0  0  0  0  0  0  0
   38.7450   23.8450   41.1620 C   0  0  0  0  0  0  0  0  0  0  0  0
   37.8780   23.1640   40.1090 C   0  0  0  0  0  0  0  0  0  0  0  0
   36.6100   23.8900   39.7870 C   0  0  0  0  0  0  0  0  0  0  0  0
   36.7250   25.3530   40.1700 C   0  0  0  0  0  0  0  0  0  0  0  0
   35.9320   25.2360   42.1190 H   0  0  0  0  0  0  0  0  0  0  0  0
   38.6770   25.1120   42.8310 H   0  0  0  0  0  0  0  0  0  0  0  0
   37.5030   23.8000   42.9000 H   0  0  0  0  0  0  0  0  0  0  0  0
   39.2400   22.9760   41.6910 H   0  0  0  0  0  0  0  0  0  0  0  0
   39.5690   24.3900   40.7030 H   0  0  0  0  0  0  0  0  0  0  0  0
   38.4750   23.1450   39.1620 H   0  0  0  0  0  0  0  0  0  0  0  0
   37.6460   22.1140   40.3500 H   0  0  0  0  0  0  0  0  0  0  0  0
   35.8090   23.4580   40.4240 H   0  0  0  0  0  0  0  0  0  0  0  0
   36.3020   23.8150   38.7430 H   0  0  0  0  0  0  0  0  0  0  0  0
   35.7570   25.8550   39.9580 H   0  0  0  0  0  0  0  0  0  0  0  0
   37.5060   25.8760   39.5960 H   0  0  0  0  0  0  0  0  0  0  0  0
   38.2850   30.0700   40.4320 C   0  0  0  0  0  0  0  0  0  0  0  0
   37.3900   30.4480   39.4770 N   0  0  0  0  0  0  0  0  0  0  0  0
   37.9590   31.4030   38.7050 C   0  0  0  0  0  0  0  0  0  0  0  0
   39.2260   31.6150   39.1950 N   0  0  0  0  0  0  0  0  0  0  0  0
   39.4050   30.8010   40.2360 N   0  0  0  0  0  0  0  0  0  0  0  0
   37.5590   31.9390   37.8550 H   0  0  0  0  0  0  0  0  0  0  0  0
   39.2950   34.3930   40.6390 Br  0  0  0  0  0  0  0  0  0  0  0  0
   40.4540   33.7750   39.2560 C   0  0  0  0  0  0  0  0  0  0  0  0
   40.2450   32.5060   38.7560 C   0  0  0  0  0  0  0  0  0  0  0  0
   41.1110   32.0810   37.7430 C   0  0  0  0  0  0  0  0  0  0  0  0
   41.0320   31.0970   37.2810 H   0  0  0  0  0  0  0  0  0  0  0  0
   42.1130   32.9440   37.3050 C   0  0  0  0  0  0  0  0  0  0  0  0
   42.7930   32.6250   36.5160 H   0  0  0  0  0  0  0  0  0  0  0  0
   42.2980   34.1910   37.8120 C   0  0  0  0  0  3  0  0  0  0  0  0
   41.4490   34.6090   38.8060 C   0  0  0  0  0  3  0  0  0  0  0  0
  1  2  1  0  0  0  0
  2  3  2  0  0  0  0
  2  7  1  0  0  0  0
  3  8  1  0  0  0  0
  4  3  1  0  0  0  0
  5  4  2  0  0  0  0
  6  5  1  0  0  0  0
  6  1  2  0  0  0  0
  9  1  1  0  0  0  0
  9 15  1  0  0  0  0
  9 10  1  0  0  0  0
 10 16  1  0  0  0  0
 10 17  1  0  0  0  0
 11 18  1  0  0  0  0
 11 10  1  0  0  0  0
 12 21  1  0  0  0  0
 12 11  1  0  0  0  0
 13 12  1  0  0  0  0
 13 14  1  0  0  0  0
 13 22  1  0  0  0  0
 14  9  1  0  0  0  0
 19 11  1  0  0  0  0
 20 12  1  0  0  0  0
 23 13  1  0  0  0  0
 24 14  1  0  0  0  0
 25 14  1  0  0  0  0
 26  5  1  0  0  0  0
 27 26  1  0  0  0  0
 28 29  1  0  0  0  0
 28 27  2  0  0  0  0
 29 30  1  0  0  0  0
 30 26  2  0  0  0  0
 31 28  1  0  0  0  0
 33 32  1  0  0  0  0
 34 29  1  0  0  0  0
 34 33  2  0  0  0  0
 35 34  1  0  0  0  0
 36 35  1  0  0  0  0
 37 35  2  0  0  0  0
 37 39  1  0  0  0  0
 38 37  1  0  0  0  0
 39 40  2  0  0  0  0
 40 33  1  0  0  0  0
M  END
>  <minimizedAffinity>
-6.11874437

$$$$

 OpenBabel03242519263D

 40 43  0  0  0  0  0  0  0  0999 V2000
   37.1730   26.5910   42.1120 C   0  0  0  0  0  0  0  0  0  0  0  0
   37.0320   26.8670   43.4950 C   0  0  0  0  0  0  0  0  0  0  0  0
   37.2230   28.1710   43.9750 C   0  0  0  0  0  0  0  0  0  0  0  0
   37.5430   29.1180   43.0370 N   0  0  0  0  0  0  0  0  0  0  0  0
   37.6720   28.8200   41.7060 C   0  0  0  0  0  0  0  0  0  0  0  0
   37.4880   27.5800   41.2750 N   0  0  0  0  0  0  0  0  0  0  0  0
   36.7840   26.1810   44.2910 H   0  0  0  0  0  0  0  0  0  0  0  0
   37.1330   28.4500   44.9940 H   0  0  0  0  0  0  0  0  0  0  0  0
   36.9550   25.1890   41.7300 C   0  0  0  0  0  0  0  0  0  0  0  0
   38.0120   24.2790   42.1690 C   0  0  0  0  0  0  0  0  0  0  0  0
   38.8240   23.7030   41.0670 C   0  0  0  0  0  0  0  0  0  0  0  0
   37.9840   23.0690   39.9630 C   0  0  0  0  0  0  0  0  0  0  0  0
   36.6800   23.7560   39.7070 C   0  0  0  0  0  0  0  0  0  0  0  0
   36.7260   25.1850   40.2090 C   0  0  0  0  0  0  0  0  0  0  0  0
   35.9530   24.8690   42.1440 H   0  0  0  0  0  0  0  0  0  0  0  0
   38.7050   24.8220   42.8360 H   0  0  0  0  0  0  0  0  0  0  0  0
   37.5970   23.4530   42.7980 H   0  0  0  0  0  0  0  0  0  0  0  0
   39.3640   22.8180   41.5210 H   0  0  0  0  0  0  0  0  0  0  0  0
   39.6170   24.3230   40.6530 H   0  0  0  0  0  0  0  0  0  0  0  0
   38.5760   23.1570   39.0170 H   0  0  0  0  0  0  0  0  0  0  0  0
   37.8060   21.9920   40.1180 H   0  0  0  0  0  0  0  0  0  0  0  0
   35.9050   23.2330   40.3080 H   0  0  0  0  0  0  0  0  0  0  0  0
   36.3690   23.7520   38.6600 H   0  0  0  0  0  0  0  0  0  0  0  0
   35.7340   25.6550   40.0420 H   0  0  0  0  0  0  0  0  0  0  0  0
   37.4760   25.7920   39.6780 H   0  0  0  0  0  0  0  0  0  0  0  0
   38.0210   29.9420   40.8500 C   0  0  0  0  0  0  0  0  0  0  0  0
   37.2530   30.1440   39.7440 N   0  0  0  0  0  0  0  0  0  0  0  0
   37.7260   31.2250   39.0800 C   0  0  0  0  0  0  0  0  0  0  0  0
   38.8040   31.6950   39.7920 N   0  0  0  0  0  0  0  0  0  0  0  0
   38.9680   30.9090   40.8560 N   0  0  0  0  0  0  0  0  0  0  0  0
   37.3780   31.6860   38.1660 H   0  0  0  0  0  0  0  0  0  0  0  0
   41.1270   31.1600   37.7600 Br  0  0  0  0  0  0  0  0  0  0  0  0
   40.7430   32.7840   38.6820 C   0  0  0  0  0  0  0  0  0  0  0  0
   39.6620   32.8020   39.5400 C   0  0  0  0  0  0  0  0  0  0  0  0
   39.4050   34.0080   40.2020 C   0  0  0  0  0  0  0  0  0  0  0  0
   38.5760   34.1270   40.8990 H   0  0  0  0  0  0  0  0  0  0  0  0
   40.2380   35.0990   39.9640 C   0  0  0  0  0  0  0  0  0  0  0  0
   40.0490   36.0430   40.4730 H   0  0  0  0  0  0  0  0  0  0  0  0
   41.2990   35.0570   39.1150 C   0  0  0  0  0  3  0  0  0  0  0  0
   41.5500   33.8750   38.4650 C   0  0  0  0  0  3  0  0  0  0  0  0
  1  2  1  0  0  0  0
  2  3  2  0  0  0  0
  2  7  1  0  0  0  0
  3  8  1  0  0  0  0
  4  3  1  0  0  0  0
  5  4  2  0  0  0  0
  6  5  1  0  0  0  0
  6  1  2  0  0  0  0
  9  1  1  0  0  0  0
  9 15  1  0  0  0  0
  9 10  1  0  0  0  0
 10 17  1  0  0  0  0
 10 16  1  0  0  0  0
 11 18  1  0  0  0  0
 11 10  1  0  0  0  0
 12 21  1  0  0  0  0
 12 11  1  0  0  0  0
 13 12  1  0  0  0  0
 13 14  1  0  0  0  0
 13 22  1  0  0  0  0
 14  9  1  0  0  0  0
 19 11  1  0  0  0  0
 20 12  1  0  0  0  0
 23 13  1  0  0  0  0
 24 14  1  0  0  0  0
 25 14  1  0  0  0  0
 26 30  2  0  0  0  0
 26  5  1  0  0  0  0
 27 26  1  0  0  0  0
 28 27  2  0  0  0  0
 28 29  1  0  0  0  0
 29 30  1  0  0  0  0
 31 28  1  0  0  0  0
 32 33  1  0  0  0  0
 33 34  1  0  0  0  0
 34 29  1  0  0  0  0
 34 35  2  0  0  0  0
 35 36  1  0  0  0  0
 37 35  1  0  0  0  0
 37 38  1  0  0  0  0
 39 37  2  0  0  0  0
 40 33  2  0  0  0  0
 40 39  1  0  0  0  0
M  END
>  <minimizedAffinity>
-6.09498405

$$$$

 OpenBabel03242519263D

 40 43  0  0  0  0  0  0  0  0999 V2000
   37.1840   28.3640   41.7630 C   0  0  0  0  0  0  0  0  0  0  0  0
   35.8790   28.4980   41.2240 C   0  0  0  0  0  0  0  0  0  0  0  0
   35.5470   29.6220   40.4550 C   0  0  0  0  0  0  0  0  0  0  0  0
   36.5460   30.5450   40.2740 N   0  0  0  0  0  0  0  0  0  0  0  0
   37.7970   30.3870   40.8080 C   0  0  0  0  0  0  0  0  0  0  0  0
   38.0880   29.3160   41.5320 N   0  0  0  0  0  0  0  0  0  0  0  0
   35.0440   27.8200   41.3220 H   0  0  0  0  0  0  0  0  0  0  0  0
   34.5940   29.7880   40.0210 H   0  0  0  0  0  0  0  0  0  0  0  0
   37.4100   27.1470   42.5550 C   0  0  0  0  0  0  0  0  0  0  0  0
   38.5690   27.2190   43.4420 C   0  0  0  0  0  0  0  0  0  0  0  0
   39.6890   26.3180   43.0660 C   0  0  0  0  0  0  0  0  0  0  0  0
   39.2550   24.8710   42.8520 C   0  0  0  0  0  0  0  0  0  0  0  0
   37.8860   24.7150   42.2700 C   0  0  0  0  0  0  0  0  0  0  0  0
   37.4680   25.9830   41.5510 C   0  0  0  0  0  0  0  0  0  0  0  0
   36.4680   26.9360   43.1430 H   0  0  0  0  0  0  0  0  0  0  0  0
   38.9660   28.2500   43.4390 H   0  0  0  0  0  0  0  0  0  0  0  0
   38.2780   27.0270   44.5040 H   0  0  0  0  0  0  0  0  0  0  0  0
   40.3490   26.2570   43.9820 H   0  0  0  0  0  0  0  0  0  0  0  0
   40.3550   26.6520   42.2710 H   0  0  0  0  0  0  0  0  0  0  0  0
   39.9640   24.4290   42.1070 H   0  0  0  0  0  0  0  0  0  0  0  0
   39.3380   24.2540   43.7610 H   0  0  0  0  0  0  0  0  0  0  0  0
   37.1780   24.5820   43.1160 H   0  0  0  0  0  0  0  0  0  0  0  0
   37.7810   23.8660   41.5920 H   0  0  0  0  0  0  0  0  0  0  0  0
   36.4340   25.8510   41.1670 H   0  0  0  0  0  0  0  0  0  0  0  0
   38.1180   26.2110   40.6920 H   0  0  0  0  0  0  0  0  0  0  0  0
   38.7330   31.4630   40.5230 C   0  0  0  0  0  0  0  0  0  0  0  0
   38.3780   32.7180   40.9180 N   0  0  0  0  0  0  0  0  0  0  0  0
   39.3660   33.5760   40.5710 C   0  0  0  0  0  0  0  0  0  0  0  0
   40.3440   32.8350   39.9520 N   0  0  0  0  0  0  0  0  0  0  0  0
   39.9440   31.5630   39.9310 N   0  0  0  0  0  0  0  0  0  0  0  0
   39.4410   34.6450   40.7190 H   0  0  0  0  0  0  0  0  0  0  0  0
   42.8080   32.6150   41.8730 Br  0  0  0  0  0  0  0  0  0  0  0  0
   42.7970   33.2210   40.0650 C   0  0  0  0  0  0  0  0  0  0  0  0
   41.5900   33.2370   39.3960 C   0  0  0  0  0  0  0  0  0  0  0  0
   41.6140   33.6860   38.0700 C   0  0  0  0  0  0  0  0  0  0  0  0
   40.7170   33.7390   37.4540 H   0  0  0  0  0  0  0  0  0  0  0  0
   42.8280   34.0840   37.5140 C   0  0  0  0  0  0  0  0  0  0  0  0
   42.8600   34.4360   36.4840 H   0  0  0  0  0  0  0  0  0  0  0  0
   44.0050   34.0590   38.1950 C   0  0  0  0  0  3  0  0  0  0  0  0
   43.9820   33.6180   39.4940 C   0  0  0  0  0  3  0  0  0  0  0  0
  1  9  1  0  0  0  0
  2  7  1  0  0  0  0
  2  1  2  0  0  0  0
  3  2  1  0  0  0  0
  4  3  2  0  0  0  0
  4  5  1  0  0  0  0
  5  6  2  0  0  0  0
  6  1  1  0  0  0  0
  8  3  1  0  0  0  0
  9 15  1  0  0  0  0
  9 10  1  0  0  0  0
 10 17  1  0  0  0  0
 11 10  1  0  0  0  0
 11 18  1  0  0  0  0
 12 11  1  0  0  0  0
 12 21  1  0  0  0  0
 13 12  1  0  0  0  0
 13 22  1  0  0  0  0
 14 13  1  0  0  0  0
 14  9  1  0  0  0  0
 16 10  1  0  0  0  0
 19 11  1  0  0  0  0
 20 12  1  0  0  0  0
 23 13  1  0  0  0  0
 24 14  1  0  0  0  0
 25 14  1  0  0  0  0
 26  5  1  0  0  0  0
 26 27  1  0  0  0  0
 28 31  1  0  0  0  0
 28 27  2  0  0  0  0
 29 28  1  0  0  0  0
 30 29  1  0  0  0  0
 30 26  2  0  0  0  0
 33 32  1  0  0  0  0
 34 29  1  0  0  0  0
 34 33  2  0  0  0  0
 35 34  1  0  0  0  0
 36 35  1  0  0  0  0
 37 35  2  0  0  0  0
 37 39  1  0  0  0  0
 38 37  1  0  0  0  0
 39 40  2  0  0  0  0
 40 33  1  0  0  0  0
M  END
>  <minimizedAffinity>
-6.03507757

$$$$

 OpenBabel03242519263D

 40 43  0  0  0  0  0  0  0  0999 V2000
   32.2390   29.5150   36.5810 C   0  0  0  0  0  0  0  0  0  0  0  0
   32.6220   29.5220   35.2160 C   0  0  0  0  0  0  0  0  0  0  0  0
   33.9440   29.2260   34.8540 C   0  0  0  0  0  0  0  0  0  0  0  0
   34.8020   28.9400   35.8860 N   0  0  0  0  0  0  0  0  0  0  0  0
   34.4020   28.9410   37.1960 C   0  0  0  0  0  0  0  0  0  0  0  0
   33.1460   29.2250   37.5140 N   0  0  0  0  0  0  0  0  0  0  0  0
   32.0110   29.7360   34.3520 H   0  0  0  0  0  0  0  0  0  0  0  0
   34.3010   29.2120   33.8560 H   0  0  0  0  0  0  0  0  0  0  0  0
   30.8310   29.8470   36.8350 C   0  0  0  0  0  0  0  0  0  0  0  0
   30.3710   31.0580   36.1580 C   0  0  0  0  0  0  0  0  0  0  0  0
   30.0550   32.1890   37.0680 C   0  0  0  0  0  0  0  0  0  0  0  0
   29.1100   31.8070   38.2030 C   0  0  0  0  0  0  0  0  0  0  0  0
   29.2850   30.4110   38.7110 C   0  0  0  0  0  0  0  0  0  0  0  0
   30.6660   29.8910   38.3640 C   0  0  0  0  0  0  0  0  0  0  0  0
   30.2050   28.9560   36.5330 H   0  0  0  0  0  0  0  0  0  0  0  0
   31.1560   31.4070   35.4650 H   0  0  0  0  0  0  0  0  0  0  0  0
   29.4870   30.8460   35.5070 H   0  0  0  0  0  0  0  0  0  0  0  0
   29.4400   32.9100   36.4510 H   0  0  0  0  0  0  0  0  0  0  0  0
   30.8900   32.7860   37.4330 H   0  0  0  0  0  0  0  0  0  0  0  0
   29.3480   32.4850   39.0620 H   0  0  0  0  0  0  0  0  0  0  0  0
   28.0490   31.9770   37.9600 H   0  0  0  0  0  0  0  0  0  0  0  0
   28.5590   29.7670   38.1700 H   0  0  0  0  0  0  0  0  0  0  0  0
   29.1170   30.2990   39.7840 H   0  0  0  0  0  0  0  0  0  0  0  0
   30.7510   28.8410   38.7170 H   0  0  0  0  0  0  0  0  0  0  0  0
   31.4660   30.4710   38.8480 H   0  0  0  0  0  0  0  0  0  0  0  0
   35.4400   28.6210   38.1620 C   0  0  0  0  0  0  0  0  0  0  0  0
   36.6430   28.2100   37.6700 N   0  0  0  0  0  0  0  0  0  0  0  0
   37.4730   27.9630   38.7100 C   0  0  0  0  0  0  0  0  0  0  0  0
   36.7690   28.2280   39.8600 N   0  0  0  0  0  0  0  0  0  0  0  0
   35.5440   28.6230   39.5100 N   0  0  0  0  0  0  0  0  0  0  0  0
   38.5000   27.6230   38.7140 H   0  0  0  0  0  0  0  0  0  0  0  0
   38.0920   30.8020   41.0570 Br  0  0  0  0  0  0  0  0  0  0  0  0
   37.7630   29.1470   41.9450 C   0  0  0  0  0  0  0  0  0  0  0  0
   37.1640   28.1340   41.2240 C   0  0  0  0  0  0  0  0  0  0  0  0
   36.9350   26.9320   41.9030 C   0  0  0  0  0  0  0  0  0  0  0  0
   36.4680   26.0700   41.4250 H   0  0  0  0  0  0  0  0  0  0  0  0
   37.3170   26.8270   43.2380 C   0  0  0  0  0  0  0  0  0  0  0  0
   37.1450   25.8960   43.7770 H   0  0  0  0  0  0  0  0  0  0  0  0
   37.9070   27.8390   43.9270 C   0  0  0  0  0  3  0  0  0  0  0  0
   38.1310   29.0180   43.2630 C   0  0  0  0  0  3  0  0  0  0  0  0
  1  9  1  0  0  0  0
  1  6  1  0  0  0  0
  2  1  2  0  0  0  0
  3  2  1  0  0  0  0
  3  4  2  0  0  0  0
  4  5  1  0  0  0  0
  5  6  2  0  0  0  0
  5 26  1  0  0  0  0
  7  2  1  0  0  0  0
  8  3  1  0  0  0  0
  9 14  1  0  0  0  0
 10  9  1  0  0  0  0
 10 11  1  0  0  0  0
 11 19  1  0  0  0  0
 11 12  1  0  0  0  0
 12 13  1  0  0  0  0
 12 20  1  0  0  0  0
 13 23  1  0  0  0  0
 14 13  1  0  0  0  0
 14 24  1  0  0  0  0
 14 25  1  0  0  0  0
 15  9  1  0  0  0  0
 16 10  1  0  0  0  0
 17 10  1  0  0  0  0
 18 11  1  0  0  0  0
 21 12  1  0  0  0  0
 22 13  1  0  0  0  0
 26 30  2  0  0  0  0
 27 26  1  0  0  0  0
 27 28  2  0  0  0  0
 28 31  1  0  0  0  0
 28 29  1  0  0  0  0
 29 34  1  0  0  0  0
 30 29  1  0  0  0  0
 32 33  1  0  0  0  0
 33 40  1  0  0  0  0
 34 35  1  0  0  0  0
 34 33  2  0  0  0  0
 35 37  2  0  0  0  0
 36 35  1  0  0  0  0
 37 38  1  0  0  0  0
 37 39  1  0  0  0  0
 40 39  2  0  0  0  0
M  END
>  <minimizedAffinity>
-6.01515865

$$$$

 OpenBabel03242519263D

 40 43  0  0  0  0  0  0  0  0999 V2000
   39.7900   33.0000   40.4800 C   0  0  0  0  0  0  0  0  0  0  0  0
   38.7090   33.7270   39.9210 C   0  0  0  0  0  0  0  0  0  0  0  0
   37.4270   33.1610   39.8770 C   0  0  0  0  0  0  0  0  0  0  0  0
   37.3070   31.8980   40.3990 N   0  0  0  0  0  0  0  0  0  0  0  0
   38.3710   31.2200   40.9320 C   0  0  0  0  0  0  0  0  0  0  0  0
   39.5740   31.7760   40.9630 N   0  0  0  0  0  0  0  0  0  0  0  0
   38.7220   34.7190   39.4930 H   0  0  0  0  0  0  0  0  0  0  0  0
   36.5740   33.6470   39.4750 H   0  0  0  0  0  0  0  0  0  0  0  0
   41.0840   33.6940   40.4650 C   0  0  0  0  0  0  0  0  0  0  0  0
   41.2070   34.7030   39.4140 C   0  0  0  0  0  0  0  0  0  0  0  0
   42.1870   34.3670   38.3500 C   0  0  0  0  0  0  0  0  0  0  0  0
   43.5580   33.9740   38.8900 C   0  0  0  0  0  0  0  0  0  0  0  0
   43.5210   33.2360   40.1910 C   0  0  0  0  0  0  0  0  0  0  0  0
   42.1620   32.5980   40.4000 C   0  0  0  0  0  0  0  0  0  0  0  0
   41.2430   34.1550   41.4840 H   0  0  0  0  0  0  0  0  0  0  0  0
   40.2270   34.8400   38.9240 H   0  0  0  0  0  0  0  0  0  0  0  0
   41.4550   35.7050   39.8440 H   0  0  0  0  0  0  0  0  0  0  0  0
   42.3920   35.3390   37.8090 H   0  0  0  0  0  0  0  0  0  0  0  0
   41.8610   33.6830   37.5670 H   0  0  0  0  0  0  0  0  0  0  0  0
   44.0090   33.2710   38.1450 H   0  0  0  0  0  0  0  0  0  0  0  0
   44.2530   34.8250   38.9730 H   0  0  0  0  0  0  0  0  0  0  0  0
   43.6490   33.9850   41.0020 H   0  0  0  0  0  0  0  0  0  0  0  0
   44.2960   32.4740   40.2970 H   0  0  0  0  0  0  0  0  0  0  0  0
   42.1530   32.0940   41.3900 H   0  0  0  0  0  0  0  0  0  0  0  0
   41.9330   31.8390   39.6370 H   0  0  0  0  0  0  0  0  0  0  0  0
   38.0690   29.8900   41.4350 C   0  0  0  0  0  0  0  0  0  0  0  0
   37.3060   29.8080   42.5610 N   0  0  0  0  0  0  0  0  0  0  0  0
   37.1320   28.5020   42.8720 C   0  0  0  0  0  0  0  0  0  0  0  0
   37.7990   27.7690   41.9190 N   0  0  0  0  0  0  0  0  0  0  0  0
   38.3590   28.6230   41.0620 N   0  0  0  0  0  0  0  0  0  0  0  0
   36.5880   28.0490   43.6900 H   0  0  0  0  0  0  0  0  0  0  0  0
   40.0270   26.4480   43.6800 Br  0  0  0  0  0  0  0  0  0  0  0  0
   38.8540   25.5820   42.4510 C   0  0  0  0  0  0  0  0  0  0  0  0
   37.9380   26.3610   41.7730 C   0  0  0  0  0  0  0  0  0  0  0  0
   37.0910   25.6970   40.8770 C   0  0  0  0  0  0  0  0  0  0  0  0
   36.3340   26.2190   40.2930 H   0  0  0  0  0  0  0  0  0  0  0  0
   37.2180   24.3190   40.7240 C   0  0  0  0  0  0  0  0  0  0  0  0
   36.5650   23.7900   40.0300 H   0  0  0  0  0  0  0  0  0  0  0  0
   38.1290   23.5730   41.4030 C   0  0  0  0  0  3  0  0  0  0  0  0
   38.9590   24.2230   42.2810 C   0  0  0  0  0  3  0  0  0  0  0  0
  1  6  1  0  0  0  0
  2  1  2  0  0  0  0
  3  2  1  0  0  0  0
  3  4  2  0  0  0  0
  4  5  1  0  0  0  0
  5  6  2  0  0  0  0
  5 26  1  0  0  0  0
  7  2  1  0  0  0  0
  8  3  1  0  0  0  0
  9  1  1  0  0  0  0
  9 15  1  0  0  0  0
 10 17  1  0  0  0  0
 10  9  1  0  0  0  0
 11 12  1  0  0  0  0
 11 10  1  0  0  0  0
 12 21  1  0  0  0  0
 12 13  1  0  0  0  0
 13 23  1  0  0  0  0
 13 14  1  0  0  0  0
 13 22  1  0  0  0  0
 14  9  1  0  0  0  0
 14 24  1  0  0  0  0
 16 10  1  0  0  0  0
 18 11  1  0  0  0  0
 19 11  1  0  0  0  0
 20 12  1  0  0  0  0
 25 14  1  0  0  0  0
 26 27  1  0  0  0  0
 27 28  2  0  0  0  0
 28 31  1  0  0  0  0
 29 28  1  0  0  0  0
 30 26  2  0  0  0  0
 30 29  1  0  0  0  0
 33 32  1  0  0  0  0
 34 29  1  0  0  0  0
 34 33  2  0  0  0  0
 35 34  1  0  0  0  0
 36 35  1  0  0  0  0
 37 35  2  0  0  0  0
 37 39  1  0  0  0  0
 38 37  1  0  0  0  0
 39 40  2  0  0  0  0
 40 33  1  0  0  0  0
M  END
>  <minimizedAffinity>
-5.91089153

$$$$
