
 OpenBabel03252503433D

 34 36  0  0  1  0  0  0  0  0999 V2000
   46.1220   31.9070   43.5110 C   0  0  0  0  0  0  0  0  0  0  0  0
   45.2400   31.0680   42.8070 C   0  0  0  0  0  0  0  0  0  0  0  0
   44.6690   30.0190   43.4930 C   0  0  0  0  0  0  0  0  0  0  0  0
   44.9810   29.8510   44.7890 N   0  0  0  0  0  0  0  0  0  0  0  0
   45.8210   30.6520   45.4490 C   0  0  0  0  0  0  0  0  0  0  0  0
   46.4230   31.7130   44.8290 N   0  0  0  0  0  0  0  0  0  0  0  0
   46.6260   32.7610   43.0740 H   0  0  0  0  0  0  0  0  0  0  0  0
   43.9940   29.4050   42.9250 H   0  0  0  0  0  0  0  0  0  0  0  0
   47.3690   30.9650   47.3880 C   0  0  2  0  0  0  0  0  0  0  0  0
   46.0520   30.3520   46.8620 C   0  0  1  0  0  0  0  0  0  0  0  0
   45.1630   30.9280   47.7300 O   0  0  0  0  0  0  0  0  0  0  0  0
   45.6820   30.8360   48.9850 C   0  0  0  0  0  0  0  0  0  0  0  0
   47.1750   30.5900   48.8680 C   0  0  2  0  0  0  0  0  0  0  0  0
   48.2390   30.4830   46.9490 H   0  0  0  0  0  0  0  0  0  0  0  0
   46.0740   29.2550   47.0380 H   0  0  0  0  0  0  0  0  0  0  0  0
   45.1980   29.9760   49.4950 H   0  0  0  0  0  0  0  0  0  0  0  0
   45.5220   31.7240   49.6200 H   0  0  0  0  0  0  0  0  0  0  0  0
   47.4310   29.5240   48.9550 H   0  0  0  0  0  0  0  0  0  0  0  0
   47.2930   32.3170   47.3190 O   0  0  0  0  0  0  0  0  0  0  0  0
   48.1910   32.7210   47.2280 H   0  0  0  0  0  0  0  0  0  0  0  0
   47.9530   31.3410   49.7080 O   0  0  0  0  0  0  0  0  0  0  0  0
   48.5680   30.7760   50.2270 H   0  0  0  0  0  0  0  0  0  0  0  0
   45.0570   31.4800   41.3980 C   0  0  0  0  0  0  0  0  0  0  0  0
   44.5260   30.6670   40.8680 H   0  0  0  0  0  0  0  0  0  0  0  0
   46.0610   31.6450   40.8960 H   0  0  0  0  0  0  0  0  0  0  0  0
   46.6280   34.2270   40.7670 Br  0  0  0  0  0  0  0  0  0  0  0  0
   44.7560   34.0070   41.0200 C   0  0  0  0  0  0  0  0  0  0  0  0
   44.3240   32.7250   41.2670 C   0  0  0  0  0  0  0  0  0  0  0  0
   42.9310   32.6830   41.4230 C   0  0  0  0  0  0  0  0  0  0  0  0
   42.4620   31.7050   41.6260 H   0  0  0  0  0  0  0  0  0  0  0  0
   42.0470   33.7230   41.3540 C   0  0  0  0  0  0  0  0  0  0  0  0
   40.9860   33.5790   41.4910 H   0  0  0  0  0  0  0  0  0  0  0  0
   42.5760   34.9720   41.1020 C   0  0  0  0  0  3  0  0  0  0  0  0
   43.9310   35.1050   40.9370 C   0  0  0  0  0  3  0  0  0  0  0  0
  1  6  1  0  0  0  0
  2  3  1  0  0  0  0
  2  1  2  0  0  0  0
  3  4  2  0  0  0  0
  4  5  1  0  0  0  0
  5 10  1  0  0  0  0
  6  5  2  0  0  0  0
  7  1  1  0  0  0  0
  8  3  1  0  0  0  0
  9 14  1  6  0  0  0
  9 13  1  0  0  0  0
 10 15  1  1  0  0  0
 10  9  1  0  0  0  0
 10 11  1  0  0  0  0
 11 12  1  0  0  0  0
 12 16  1  0  0  0  0
 12 17  1  0  0  0  0
 13 18  1  1  0  0  0
 13 12  1  0  0  0  0
 13 21  1  0  0  0  0
 19  9  1  0  0  0  0
 20 19  1  0  0  0  0
 21 22  1  0  0  0  0
 23  2  1  0  0  0  0
 24 23  1  0  0  0  0
 25 23  1  0  0  0  0
 26 27  1  0  0  0  0
 27 28  1  0  0  0  0
 28 23  1  0  0  0  0
 28 29  2  0  0  0  0
 29 30  1  0  0  0  0
 31 29  1  0  0  0  0
 31 32  1  0  0  0  0
 33 31  2  0  0  0  0
 34 27  2  0  0  0  0
 34 33  1  0  0  0  0
M  END
>  <minimizedAffinity>
-4.32617617

>  <minimizedRMSD>
4.29318905

$$$$
