
 OpenBabel03242522333D

 21 22  0  0  0  0  0  0  0  0999 V2000
   46.4430   33.3200   45.9000 C   0  0  0  0  0  0  0  0  0  0  0  0
   45.5510   33.7020   46.4810 H   0  0  0  0  0  0  0  0  0  0  0  0
   47.2920   33.9160   46.2630 H   0  0  0  0  0  0  0  0  0  0  0  0
   44.7820   33.7260   42.5790 C   0  0  0  0  0  0  0  0  0  0  0  0
   45.8080   34.2850   41.8130 C   0  0  0  0  0  0  0  0  0  0  0  0
   47.0290   34.5090   42.4350 C   0  0  0  0  0  0  0  0  0  0  0  0
   47.1850   34.1840   43.7450 N   0  0  0  0  0  0  0  0  0  0  0  0
   46.1540   33.6360   44.4690 C   0  0  0  0  0  0  0  0  0  0  0  0
   44.9760   33.4230   43.8590 N   0  0  0  0  0  0  0  0  0  0  0  0
   43.7880   33.5150   42.1710 H   0  0  0  0  0  0  0  0  0  0  0  0
   45.6050   34.5160   40.7750 H   0  0  0  0  0  0  0  0  0  0  0  0
   47.8340   34.9390   41.8650 H   0  0  0  0  0  0  0  0  0  0  0  0
   45.6540   32.1660   48.7340 Br  0  0  0  0  0  0  0  0  0  0  0  0
   46.4410   31.1800   47.2770 C   0  0  0  0  0  0  0  0  0  0  0  0
   46.7020   31.8970   46.1290 C   0  0  0  0  0  0  0  0  0  0  0  0
   47.2720   31.1390   45.1000 C   0  0  0  0  0  0  0  0  0  0  0  0
   47.5000   31.6640   44.1600 H   0  0  0  0  0  0  0  0  0  0  0  0
   47.5580   29.7950   45.2060 C   0  0  0  0  0  0  0  0  0  0  0  0
   47.9990   29.3140   44.3420 H   0  0  0  0  0  0  0  0  0  0  0  0
   47.2680   29.1530   46.3850 C   0  0  0  0  0  3  0  0  0  0  0  0
   46.7010   29.8380   47.4480 C   0  0  0  0  0  3  0  0  0  0  0  0
  1 15  1  0  0  0  0
  1  3  1  0  0  0  0
  1  2  1  0  0  0  0
  4  9  1  0  0  0  0
  5  6  1  0  0  0  0
  5  4  2  0  0  0  0
  6  7  2  0  0  0  0
  7  8  1  0  0  0  0
  8  1  1  0  0  0  0
  9  8  2  0  0  0  0
 10  4  1  0  0  0  0
 11  5  1  0  0  0  0
 12  6  1  0  0  0  0
 14 21  1  0  0  0  0
 14 13  1  0  0  0  0
 15 14  2  0  0  0  0
 16 18  2  0  0  0  0
 16 15  1  0  0  0  0
 17 16  1  0  0  0  0
 18 20  1  0  0  0  0
 19 18  1  0  0  0  0
 20 21  2  0  0  0  0
M  END
>  <minimizedAffinity>
-3.50014806

>  <minimizedRMSD>
2.40746307

$$$$
