REMARK  Name = 
REMARK  4 active torsions:
REMARK  status: ('A' for Active; 'I' for Inactive)
REMARK    1  A    between atoms: C_7  and  C_10
REMARK    2  A    between atoms: C_14  and  C_16
REMARK    3  A    between atoms: C_17  and  C_18
REMARK    4  A    between atoms: C_18  and  C_32
REMARK                            x       y       z     vdW  Elec       q    Type
REMARK                         _______ _______ _______ _____ _____    ______ ____
ROOT
ATOM      1  C   UNL     1      45.659  31.634  47.121  0.00  0.00    +0.000 A 
ATOM      2  C   UNL     1      45.516  32.098  48.435  0.00  0.00    +0.000 A 
ATOM      3  C   UNL     1      45.288  31.268  49.512  0.00  0.00    +0.000 A 
ATOM      4  C   UNL     1      45.199  29.917  49.262  0.00  0.00    +0.000 A 
ATOM      5  C   UNL     1      45.341  29.451  47.952  0.00  0.00    +0.000 A 
ATOM      6  N   UNL     1      45.559  30.315  46.965  0.00  0.00    +0.000 NA
ATOM      7  H   UNL     1      45.594  33.171  48.583  0.00  0.00    +0.000 HD
ATOM      8  H   UNL     1      45.195  31.724  50.468  0.00  0.00    +0.000 HD
ATOM      9  H   UNL     1      45.019  29.298  50.130  0.00  0.00    +0.000 HD
ENDROOT
BRANCH   1  16
ATOM     10  C   UNL     1      44.773  36.622  43.834  0.00  0.00    +0.000 A 
ATOM     11  C   UNL     1      45.664  36.320  42.795  0.00  0.00    +0.000 A 
ATOM     12  C   UNL     1      46.315  35.086  42.824  0.00  0.00    +0.000 A 
ATOM     13  N   UNL     1      46.066  34.225  43.851  0.00  0.00    +0.000 NA
ATOM     14  C   UNL     1      45.196  34.559  44.835  0.00  0.00    +0.000 A 
ATOM     15  N   UNL     1      44.545  35.763  44.830  0.00  0.00    +0.000 NA
ATOM     16  C   UNL     1      45.898  32.578  46.039  0.00  0.00    +0.000 C 
ATOM     17  O   UNL     1      46.903  32.409  45.302  0.00  0.00    +0.000 OA
ATOM     18  N   UNL     1      44.958  33.646  45.889  0.00  0.00    +0.000 N 
ATOM     19  H   UNL     1      44.306  37.601  43.743  0.00  0.00    +0.000 HD
ATOM     20  H   UNL     1      45.920  36.931  41.951  0.00  0.00    +0.000 HD
ATOM     21  H   UNL     1      47.030  34.760  42.056  0.00  0.00    +0.000 HD
ATOM     22  H   UNL     1      44.152  33.719  46.537  0.00  0.00    +0.000 HD
ENDBRANCH   1  16
BRANCH   5  23
ATOM     23  C   UNL     1      45.260  28.029  47.717  0.00  0.00    +0.000 C 
ATOM     24  C   UNL     1      44.536  27.260  48.496  0.00  0.00    +0.000 C 
BRANCH  24  25
ATOM     25  C   UNL     1      44.343  25.790  48.426  0.00  0.00    +0.000 C 
ATOM     26  H   UNL     1      43.285  25.501  48.281  0.00  0.00    +0.000 HD
ATOM     27  H   UNL     1      45.015  25.361  47.642  0.00  0.00    +0.000 HD
BRANCH  25  30
ATOM     28 BR   UNL     1      43.243  27.427  50.789  0.00  0.00    +0.000 Br
ATOM     29  C   UNL     1      44.400  25.901  50.868  0.00  0.00    +0.000 A 
ATOM     30  C   UNL     1      44.832  25.235  49.718  0.00  0.00    +0.000 A 
ATOM     31  C   UNL     1      45.675  24.126  49.877  0.00  0.00    +0.000 A 
ATOM     32  H   UNL     1      45.975  23.653  48.951  0.00  0.00    +0.000 HD
ATOM     33  C   UNL     1      46.037  23.744  51.154  0.00  0.00    +0.000 A 
ATOM     34  H   UNL     1      46.700  22.868  51.234  0.00  0.00    +0.000 HD
ATOM     35  C   UNL     1      45.598  24.417  52.274  0.00  0.00    +0.000 A 
ATOM     36  C   UNL     1      44.760  25.521  52.142  0.00  0.00    +0.000 A 
ENDBRANCH  25  30
ENDBRANCH  24  25
ENDBRANCH   5  23
TORSDOF 4
