
 OpenBabel03242523343D

 37 40  0  0  0  0  0  0  0  0999 V2000
   45.5320   33.3190   46.5060 C   0  0  0  0  0  0  0  0  0  0  0  0
   44.4790   33.1320   46.8710 H   0  0  0  0  0  0  0  0  0  0  0  0
   46.0920   33.7990   47.3190 H   0  0  0  0  0  0  0  0  0  0  0  0
   44.6840   36.0660   44.1320 C   0  0  0  0  0  0  0  0  0  0  0  0
   45.4010   35.6540   43.0190 C   0  0  0  0  0  0  0  0  0  0  0  0
   46.1550   34.4850   43.0500 C   0  0  0  0  0  0  0  0  0  0  0  0
   46.1520   33.7710   44.2270 N   0  0  0  0  0  0  0  0  0  0  0  0
   45.4460   34.1880   45.3060 C   0  0  0  0  0  0  0  0  0  0  0  0
   44.7370   35.3170   45.2240 N   0  0  0  0  0  0  0  0  0  0  0  0
   44.1080   36.9850   44.0670 H   0  0  0  0  0  0  0  0  0  0  0  0
   45.3920   36.2450   42.1420 H   0  0  0  0  0  0  0  0  0  0  0  0
   48.4140   32.2520   43.7410 Br  0  0  0  0  0  0  0  0  0  0  0  0
   47.9670   32.9840   42.0620 C   0  0  0  0  0  0  0  0  0  0  0  0
   46.9740   33.9270   42.0150 C   0  0  0  0  0  0  0  0  0  0  0  0
   46.7930   34.4030   40.7160 C   0  0  0  0  0  0  0  0  0  0  0  0
   46.0460   35.1670   40.4500 H   0  0  0  0  0  0  0  0  0  0  0  0
   47.5120   33.9810   39.6220 C   0  0  0  0  0  0  0  0  0  0  0  0
   47.3430   34.3720   38.6320 H   0  0  0  0  0  0  0  0  0  0  0  0
   48.4930   33.0270   39.7610 C   0  0  0  0  0  3  0  0  0  0  0  0
   48.7150   32.5280   41.0080 C   0  0  0  0  0  3  0  0  0  0  0  0
   46.1700   31.7130   45.9980 S   0  0  0  0  0  0  0  0  0  0  0  0
   47.3050   31.0640   47.2010 C   0  0  0  0  0  0  0  0  0  0  0  0
   47.7300   31.9160   48.1920 C   0  0  0  0  0  0  0  0  0  0  0  0
   48.6100   31.4270   49.1330 C   0  0  0  0  0  0  0  0  0  0  0  0
   49.0740   30.1250   49.1170 C   0  0  0  0  0  0  0  0  0  0  0  0
   49.9290   29.6710   50.0410 N   0  0  0  0  0  0  0  0  0  0  0  0
   50.3880   28.4060   50.0310 C   0  0  0  0  0  0  0  0  0  0  0  0
   49.9590   27.5550   49.0360 C   0  0  0  0  0  0  0  0  0  0  0  0
   49.0720   28.0010   48.0670 C   0  0  0  0  0  0  0  0  0  0  0  0
   48.5980   29.3200   48.0830 C   0  0  0  0  0  0  0  0  0  0  0  0
   47.7180   29.7560   47.1140 C   0  0  0  0  0  0  0  0  0  0  0  0
   47.4710   32.9480   48.3460 H   0  0  0  0  0  0  0  0  0  0  0  0
   48.9980   32.0330   49.9520 H   0  0  0  0  0  0  0  0  0  0  0  0
   51.0690   28.2080   50.8470 H   0  0  0  0  0  0  0  0  0  0  0  0
   50.3660   26.5650   49.0920 H   0  0  0  0  0  0  0  0  0  0  0  0
   48.7620   27.2990   47.3050 H   0  0  0  0  0  0  0  0  0  0  0  0
   47.3860   29.0990   46.3450 H   0  0  0  0  0  0  0  0  0  0  0  0
  1  2  1  0  0  0  0
  1  3  1  0  0  0  0
  4  9  1  0  0  0  0
  5  6  1  0  0  0  0
  5  4  2  0  0  0  0
  6  7  2  0  0  0  0
  7  8  1  0  0  0  0
  8  1  1  0  0  0  0
  9  8  2  0  0  0  0
 10  4  1  0  0  0  0
 11  5  1  0  0  0  0
 13 12  1  0  0  0  0
 14 13  1  0  0  0  0
 14  6  1  0  0  0  0
 15 14  2  0  0  0  0
 16 15  1  0  0  0  0
 17 19  2  0  0  0  0
 17 15  1  0  0  0  0
 18 17  1  0  0  0  0
 19 20  1  0  0  0  0
 20 13  2  0  0  0  0
 21  1  1  0  0  0  0
 21 22  1  0  0  0  0
 22 23  1  0  0  0  0
 23 32  1  0  0  0  0
 23 24  2  0  0  0  0
 24 33  1  0  0  0  0
 25 24  1  0  0  0  0
 25 26  1  0  0  0  0
 27 26  2  0  0  0  0
 27 34  1  0  0  0  0
 28 35  1  0  0  0  0
 28 27  1  0  0  0  0
 29 30  1  0  0  0  0
 29 28  2  0  0  0  0
 30 25  2  0  0  0  0
 31 22  2  0  0  0  0
 31 30  1  0  0  0  0
 36 29  1  0  0  0  0
 37 31  1  0  0  0  0
M  END
>  <minimizedAffinity>
-5.72678709

>  <minimizedRMSD>
0.377123833

$$$$
