
 OpenBabel03252503153D

 36 39  0  0  0  0  0  0  0  0999 V2000
   45.5370   34.4710   41.3940 C   0  0  0  0  0  0  0  0  0  0  0  0
   46.7420   34.6580   41.0140 O   0  0  0  0  0  0  0  0  0  0  0  0
   44.4320   34.0450   40.4770 C   0  0  0  0  0  0  0  0  0  0  0  0
   43.0860   34.2650   40.6830 C   0  0  0  0  0  0  0  0  0  0  0  0
   42.4740   33.7170   39.6150 N   0  0  0  0  0  0  0  0  0  0  0  0
   43.4040   33.1870   38.7980 C   0  0  0  0  0  0  0  0  0  0  0  0
   44.6210   33.3870   39.3260 N   0  0  0  0  0  0  0  0  0  0  0  0
   43.2690   32.5000   37.5490 N   0  0  0  0  0  0  0  0  0  0  0  0
   42.6080   34.7600   41.5000 H   0  0  0  0  0  0  0  0  0  0  0  0
   43.8060   31.6140   37.3990 H   0  0  0  0  0  0  0  0  0  0  0  0
   42.6140   32.9600   36.8560 H   0  0  0  0  0  0  0  0  0  0  0  0
   41.4440   35.9720   37.7420 Br  0  0  0  0  0  0  0  0  0  0  0  0
   40.4120   34.5620   38.4940 C   0  0  0  0  0  0  0  0  0  0  0  0
   41.0800   33.6560   39.3100 C   0  0  0  0  0  0  0  0  0  0  0  0
   40.3910   32.6080   39.8880 C   0  0  0  0  0  0  0  0  0  0  0  0
   40.8530   31.8710   40.5310 H   0  0  0  0  0  0  0  0  0  0  0  0
   39.0390   32.4780   39.6420 C   0  0  0  0  0  0  0  0  0  0  0  0
   38.4320   31.6800   40.0620 H   0  0  0  0  0  0  0  0  0  0  0  0
   38.3350   33.3650   38.8310 C   0  0  0  0  0  3  0  0  0  0  0  0
   39.0570   34.4160   38.2590 C   0  0  0  0  0  3  0  0  0  0  0  0
   44.8670   35.9570   43.2190 C   0  0  0  0  0  0  0  0  0  0  0  0
   45.2890   34.6920   42.7710 C   0  0  0  0  0  0  0  0  0  0  0  0
   45.4260   33.7450   43.7590 C   0  0  0  0  0  0  0  0  0  0  0  0
   45.1740   34.0140   45.0550 N   0  0  0  0  0  0  0  0  0  0  0  0
   44.7700   35.2510   45.4330 C   0  0  0  0  0  0  0  0  0  0  0  0
   44.6200   36.2130   44.5130 N   0  0  0  0  0  0  0  0  0  0  0  0
   44.7240   36.7810   42.5280 H   0  0  0  0  0  0  0  0  0  0  0  0
   44.5840   35.4070   46.4850 H   0  0  0  0  0  0  0  0  0  0  0  0
   45.8490   32.4410   43.4010 C   0  0  0  0  0  0  0  0  0  0  0  0
   47.0500   31.8120   43.2970 C   0  0  0  0  0  0  0  0  0  0  0  0
   47.1440   30.5520   42.9290 C   0  0  0  0  0  0  0  0  0  0  0  0
   45.9980   29.8930   42.6530 C   0  0  0  0  0  0  0  0  0  0  0  0
   44.7110   31.1530   42.9370 S   0  0  0  0  0  0  0  0  0  0  0  0
   47.9200   32.4520   43.5470 H   0  0  0  0  0  0  0  0  0  0  0  0
   48.0580   29.9820   42.8230 H   0  0  0  0  0  0  0  0  0  0  0  0
   45.7830   28.8560   42.3290 H   0  0  0  0  0  0  0  0  0  0  0  0
  1 22  1  0  0  0  0
  2  1  2  0  0  0  0
  3  4  2  0  0  0  0
  3  1  1  0  0  0  0
  4  9  1  0  0  0  0
  5  4  1  0  0  0  0
  6  7  2  0  0  0  0
  6  5  1  0  0  0  0
  7  3  1  0  0  0  0
  8  6  1  0  0  0  0
 10  8  1  0  0  0  0
 11  8  1  0  0  0  0
 12 13  1  0  0  0  0
 13 14  1  0  0  0  0
 14  5  1  0  0  0  0
 14 15  2  0  0  0  0
 15 16  1  0  0  0  0
 17 15  1  0  0  0  0
 17 18  1  0  0  0  0
 19 17  2  0  0  0  0
 20 13  2  0  0  0  0
 20 19  1  0  0  0  0
 21 26  1  0  0  0  0
 22 21  2  0  0  0  0
 22 23  1  0  0  0  0
 23 24  2  0  0  0  0
 24 25  1  0  0  0  0
 25 28  1  0  0  0  0
 26 25  2  0  0  0  0
 27 21  1  0  0  0  0
 29 23  1  0  0  0  0
 30 29  2  0  0  0  0
 30 34  1  0  0  0  0
 31 30  1  0  0  0  0
 32 31  2  0  0  0  0
 32 33  1  0  0  0  0
 33 29  1  0  0  0  0
 35 31  1  0  0  0  0
 36 32  1  0  0  0  0
M  END
>  <minimizedAffinity>
-6.14638186

>  <minimizedRMSD>
1.65107727

$$$$
