
 OpenBabel03242519253D

 40 43  0  0  0  0  0  0  0  0999 V2000
   47.8770   33.8760   42.8880 C   0  0  0  0  0  0  0  0  0  0  0  0
   48.5270   35.1100   42.6310 C   0  0  0  0  0  0  0  0  0  0  0  0
   49.8880   35.1320   42.2980 C   0  0  0  0  0  0  0  0  0  0  0  0
   50.5160   33.9140   42.2420 N   0  0  0  0  0  0  0  0  0  0  0  0
   49.8600   32.7380   42.4960 C   0  0  0  0  0  0  0  0  0  0  0  0
   48.5720   32.7420   42.8100 N   0  0  0  0  0  0  0  0  0  0  0  0
   48.1060   36.1040   42.6540 H   0  0  0  0  0  0  0  0  0  0  0  0
   50.4380   36.0150   42.0930 H   0  0  0  0  0  0  0  0  0  0  0  0
   46.4520   33.9820   43.2320 C   0  0  0  0  0  0  0  0  0  0  0  0
   45.7260   34.9930   42.4660 C   0  0  0  0  0  0  0  0  0  0  0  0
   45.2670   36.1580   43.2650 C   0  0  0  0  0  0  0  0  0  0  0  0
   44.4930   35.7650   44.5190 C   0  0  0  0  0  0  0  0  0  0  0  0
   44.9640   34.5010   45.1660 C   0  0  0  0  0  0  0  0  0  0  0  0
   46.3900   34.1950   44.7540 C   0  0  0  0  0  0  0  0  0  0  0  0
   45.9860   32.9610   43.0930 H   0  0  0  0  0  0  0  0  0  0  0  0
   46.3810   35.3830   41.6660 H   0  0  0  0  0  0  0  0  0  0  0  0
   44.8550   34.5430   41.9280 H   0  0  0  0  0  0  0  0  0  0  0  0
   44.4850   36.6710   42.6280 H   0  0  0  0  0  0  0  0  0  0  0  0
   45.9980   36.9360   43.4790 H   0  0  0  0  0  0  0  0  0  0  0  0
   44.6590   36.5800   45.2680 H   0  0  0  0  0  0  0  0  0  0  0  0
   43.4040   35.7090   44.3570 H   0  0  0  0  0  0  0  0  0  0  0  0
   44.3350   33.6730   44.7720 H   0  0  0  0  0  0  0  0  0  0  0  0
   44.8960   34.5020   46.2550 H   0  0  0  0  0  0  0  0  0  0  0  0
   46.6960   33.2320   45.2160 H   0  0  0  0  0  0  0  0  0  0  0  0
   47.0980   34.9670   45.0920 H   0  0  0  0  0  0  0  0  0  0  0  0
   50.6770   31.5390   42.3990 C   0  0  0  0  0  0  0  0  0  0  0  0
   51.5560   31.4670   41.3600 N   0  0  0  0  0  0  0  0  0  0  0  0
   52.2210   30.2900   41.4380 C   0  0  0  0  0  0  0  0  0  0  0  0
   51.7430   29.6290   42.5440 N   0  0  0  0  0  0  0  0  0  0  0  0
   50.8120   30.3970   43.1110 N   0  0  0  0  0  0  0  0  0  0  0  0
   52.9890   29.8830   40.7940 H   0  0  0  0  0  0  0  0  0  0  0  0
   53.8460   29.6900   44.8630 Br  0  0  0  0  0  0  0  0  0  0  0  0
   53.0000   28.1600   44.1050 C   0  0  0  0  0  0  0  0  0  0  0  0
   52.0960   28.3600   43.0820 C   0  0  0  0  0  0  0  0  0  0  0  0
   51.4900   27.2180   42.5460 C   0  0  0  0  0  0  0  0  0  0  0  0
   50.7630   27.2660   41.7350 H   0  0  0  0  0  0  0  0  0  0  0  0
   51.8260   25.9690   43.0640 C   0  0  0  0  0  0  0  0  0  0  0  0
   51.3630   25.0730   42.6550 H   0  0  0  0  0  0  0  0  0  0  0  0
   52.7210   25.7960   44.0730 C   0  0  0  0  0  3  0  0  0  0  0  0
   53.3150   26.9170   44.5980 C   0  0  0  0  0  3  0  0  0  0  0  0
  1  9  1  0  0  0  0
  2  7  1  0  0  0  0
  2  1  2  0  0  0  0
  3  2  1  0  0  0  0
  4  3  2  0  0  0  0
  4  5  1  0  0  0  0
  5  6  2  0  0  0  0
  6  1  1  0  0  0  0
  8  3  1  0  0  0  0
  9 14  1  0  0  0  0
 10  9  1  0  0  0  0
 10 11  1  0  0  0  0
 11 19  1  0  0  0  0
 11 12  1  0  0  0  0
 12 13  1  0  0  0  0
 12 20  1  0  0  0  0
 13 23  1  0  0  0  0
 14 25  1  0  0  0  0
 14 13  1  0  0  0  0
 14 24  1  0  0  0  0
 15  9  1  0  0  0  0
 16 10  1  0  0  0  0
 17 10  1  0  0  0  0
 18 11  1  0  0  0  0
 21 12  1  0  0  0  0
 22 13  1  0  0  0  0
 26  5  1  0  0  0  0
 26 30  2  0  0  0  0
 27 28  2  0  0  0  0
 27 26  1  0  0  0  0
 28 29  1  0  0  0  0
 29 34  1  0  0  0  0
 29 30  1  0  0  0  0
 31 28  1  0  0  0  0
 33 40  1  0  0  0  0
 33 32  1  0  0  0  0
 34 33  2  0  0  0  0
 35 37  2  0  0  0  0
 35 34  1  0  0  0  0
 36 35  1  0  0  0  0
 37 39  1  0  0  0  0
 38 37  1  0  0  0  0
 39 40  2  0  0  0  0
M  END
>  <minimizedAffinity>
-4.35656357

>  <minimizedRMSD>
0.827149153

$$$$
