
 OpenBabel03252509293D

 21 22  0  0  0  0  0  0  0  0999 V2000
   46.6090   34.9680   42.0100 C   0  0  0  0  0  0  0  0  0  0  0  0
   47.5460   34.3560   42.1040 H   0  0  0  0  0  0  0  0  0  0  0  0
   46.8420   36.0160   41.7390 H   0  0  0  0  0  0  0  0  0  0  0  0
   44.4970   35.9890   44.8940 C   0  0  0  0  0  0  0  0  0  0  0  0
   45.1140   36.0290   43.6290 C   0  0  0  0  0  0  0  0  0  0  0  0
   45.9550   34.9560   43.3210 C   0  0  0  0  0  0  0  0  0  0  0  0
   46.1310   33.9530   44.2330 N   0  0  0  0  0  0  0  0  0  0  0  0
   45.5090   33.9730   45.4330 C   0  0  0  0  0  0  0  0  0  0  0  0
   44.6980   34.9860   45.7560 N   0  0  0  0  0  0  0  0  0  0  0  0
   43.8370   36.8120   45.1590 H   0  0  0  0  0  0  0  0  0  0  0  0
   44.9450   36.8460   42.9350 H   0  0  0  0  0  0  0  0  0  0  0  0
   45.7810   33.0880   46.0050 H   0  0  0  0  0  0  0  0  0  0  0  0
   48.3400   33.3640   39.9190 Br  0  0  0  0  0  0  0  0  0  0  0  0
   46.4390   33.6210   39.9930 C   0  0  0  0  0  0  0  0  0  0  0  0
   45.7550   34.3560   40.9560 C   0  0  0  0  0  0  0  0  0  0  0  0
   44.3900   34.4570   40.8770 C   0  0  0  0  0  0  0  0  0  0  0  0
   43.8890   35.0360   41.6440 H   0  0  0  0  0  0  0  0  0  0  0  0
   43.7400   33.8160   39.8320 C   0  0  0  0  0  0  0  0  0  0  0  0
   42.6550   33.9100   39.7940 H   0  0  0  0  0  0  0  0  0  0  0  0
   44.3870   33.0840   38.8700 C   0  0  0  0  0  0  0  0  0  0  0  0
   45.7730   32.9820   38.9490 C   0  0  0  0  0  0  0  0  0  0  0  0
  1  2  1  0  0  0  0
  1  6  1  0  0  0  0
  3  1  1  0  0  0  0
  4 10  1  0  0  0  0
  4  9  1  0  0  0  0
  5  4  2  0  0  0  0
  6  5  1  0  0  0  0
  6  7  2  0  0  0  0
  7  8  1  0  0  0  0
  8  9  2  0  0  0  0
  8 12  1  0  0  0  0
 11  5  1  0  0  0  0
 13 14  1  0  0  0  0
 14 15  1  0  0  0  0
 15  1  1  0  0  0  0
 16 15  2  0  0  0  0
 16 17  1  0  0  0  0
 18 16  1  0  0  0  0
 19 18  1  0  0  0  0
 20 21  1  0  0  0  0
 20 18  2  0  0  0  0
 21 14  2  0  0  0  0
M  END
>  <minimizedAffinity>
-4.28267479

>  <minimizedRMSD>
0.969086349

$$$$
