
     RDKit          3D

 23 24  0  0  0  0  0  0  0  0999 V2000
   45.4347   35.0754   43.9919 C   0  0  0  0  0  0  0  0  0  0  0  0
   46.4966   34.2932   43.5175 C   0  0  0  0  0  0  0  0  0  0  0  0
   47.0214   33.2866   44.3318 C   0  0  0  0  0  0  0  0  0  0  0  0
   46.4601   33.1264   45.5529 N   0  0  0  0  0  0  0  0  0  0  0  0
   45.4261   33.8951   46.0027 C   0  0  0  0  0  0  0  0  0  0  0  0
   44.9266   34.8609   45.2150 N   0  0  0  0  0  0  0  0  0  0  0  0
   44.8996   36.1354   43.0922 C   0  0  0  0  0  0  0  0  0  0  0  0
   46.9079   34.4766   42.5122 H   0  0  0  0  0  0  0  0  0  0  0  0
   47.8458   32.6637   43.9932 H   0  0  0  0  0  0  0  0  0  0  0  0
   44.9870   33.7488   46.9911 H   0  0  0  0  0  0  0  0  0  0  0  0
   44.6570   37.0091   43.7343 H   0  0  0  0  0  0  0  0  0  0  0  0
   45.7265   36.4422   42.4230 H   0  0  0  0  0  0  0  0  0  0  0  0
   45.8050   34.1674   40.7845 Br  0  0  0  0  0  0  0  0  0  0  0  0
   44.0500   34.7876   41.2439 C   0  0  0  0  0  0  0  0  0  0  0  0
   43.7624   35.6511   42.2803 C   0  0  0  0  0  0  0  0  0  0  0  0
   42.4274   36.0118   42.4925 C   0  0  0  0  0  0  0  0  0  0  0  0
   42.2457   36.7002   43.3281 H   0  0  0  0  0  0  0  0  0  0  0  0
   41.3929   35.5435   41.7140 C   0  0  0  0  0  0  0  0  0  0  0  0
   40.3584   35.8483   41.9099 H   0  0  0  0  0  0  0  0  0  0  0  0
   41.7309   34.6740   40.6791 C   0  0  0  0  0  0  0  0  0  0  0  0
   43.0343   34.2905   40.4325 C   0  0  0  0  0  0  0  0  0  0  0  0
   40.9020   34.2994   40.0558 H   0  0  0  0  0  0  0  0  0  0  0  0
   43.1594   33.6051   39.5905 H   0  0  0  0  0  0  0  0  0  0  0  0
  1  6  1  0
  2  1  2  0
  2  3  1  0
  3  4  2  0
  4  5  1  0
  6  5  2  0
  7  1  1  0
  2  8  1  0
  3  9  1  0
  5 10  1  0
  7 11  1  0
  7 12  1  0
 13 14  1  0
 14 15  2  0
 15 16  1  0
 16 17  1  0
 16 18  2  0
 18 19  1  0
 18 20  1  0
 20 21  2  0
 21 14  1  0
 20 22  1  0
 21 23  1  0
  7 15  1  0
M  ISO  7   8  14   9  14  10  14  11   8  12   8  17  15  19  16
M  END
>  <DihAtoms>  (1) 
0,6,14,13

>  <DihDeg>  (1) 
76.7706123420628

$$$$
