
     RDKit          3D

 23 24  0  0  0  0  0  0  0  0999 V2000
   45.4347   35.0754   43.9919 C   0  0  0  0  0  0  0  0  0  0  0  0
   46.4966   34.2932   43.5175 C   0  0  0  0  0  0  0  0  0  0  0  0
   47.0214   33.2866   44.3318 C   0  0  0  0  0  0  0  0  0  0  0  0
   46.4601   33.1264   45.5529 N   0  0  0  0  0  0  0  0  0  0  0  0
   45.4261   33.8951   46.0027 C   0  0  0  0  0  0  0  0  0  0  0  0
   44.9266   34.8609   45.2150 N   0  0  0  0  0  0  0  0  0  0  0  0
   44.8996   36.1354   43.0922 C   0  0  0  0  0  0  0  0  0  0  0  0
   46.9079   34.4766   42.5122 H   0  0  0  0  0  0  0  0  0  0  0  0
   47.8458   32.6637   43.9932 H   0  0  0  0  0  0  0  0  0  0  0  0
   44.9870   33.7488   46.9911 H   0  0  0  0  0  0  0  0  0  0  0  0
   44.6570   37.0091   43.7343 H   0  0  0  0  0  0  0  0  0  0  0  0
   45.7265   36.4422   42.4230 H   0  0  0  0  0  0  0  0  0  0  0  0
   45.8264   34.8088   40.3719 Br  0  0  0  0  0  0  0  0  0  0  0  0
   44.0586   35.0571   41.0712 C   0  0  0  0  0  0  0  0  0  0  0  0
   43.7624   35.6511   42.2803 C   0  0  0  0  0  0  0  0  0  0  0  0
   42.4189   35.7587   42.6554 C   0  0  0  0  0  0  0  0  0  0  0  0
   42.2306   36.2377   43.6251 H   0  0  0  0  0  0  0  0  0  0  0  0
   41.3841   35.2990   41.8721 C   0  0  0  0  0  0  0  0  0  0  0  0
   40.3427   35.4009   42.1988 H   0  0  0  0  0  0  0  0  0  0  0  0
   41.7309   34.7065   40.6597 C   0  0  0  0  0  0  0  0  0  0  0  0
   43.0429   34.5786   40.2486 C   0  0  0  0  0  0  0  0  0  0  0  0
   40.9017   34.3386   40.0328 H   0  0  0  0  0  0  0  0  0  0  0  0
   43.1743   34.0954   39.2772 H   0  0  0  0  0  0  0  0  0  0  0  0
  1  6  1  0
  2  1  2  0
  2  3  1  0
  3  4  2  0
  4  5  1  0
  6  5  2  0
  7  1  1  0
  2  8  1  0
  3  9  1  0
  5 10  1  0
  7 11  1  0
  7 12  1  0
 13 14  1  0
 14 15  2  0
 15 16  1  0
 16 17  1  0
 16 18  2  0
 18 19  1  0
 18 20  1  0
 20 21  2  0
 21 14  1  0
 20 22  1  0
 21 23  1  0
  7 15  1  0
M  ISO  7   8  14   9  14  10  14  11   8  12   8  17  15  19  16
M  END
>  <DihAtoms>  (1) 
0,6,14,13

>  <DihDeg>  (1) 
76.7706123420628

$$$$
