
 OpenBabel03242510573D

 36 38  0  0  0  0  0  0  0  0999 V2000
   45.6930   31.5180   47.0590 C   0  0  0  0  0  0  0  0  0  0  0  0
   45.7220   31.9060   48.4050 C   0  0  0  0  0  0  0  0  0  0  0  0
   45.5040   31.0340   49.4510 C   0  0  0  0  0  0  0  0  0  0  0  0
   45.2440   29.7200   49.1350 C   0  0  0  0  0  0  0  0  0  0  0  0
   45.2130   29.3300   47.7930 C   0  0  0  0  0  0  0  0  0  0  0  0
   45.4340   30.2300   46.8400 N   0  0  0  0  0  0  0  0  0  0  0  0
   45.9310   32.9530   48.6050 H   0  0  0  0  0  0  0  0  0  0  0  0
   45.5490   31.4330   50.4350 H   0  0  0  0  0  0  0  0  0  0  0  0
   45.0770   29.0670   49.9800 H   0  0  0  0  0  0  0  0  0  0  0  0
   44.7500   36.5770   43.8980 C   0  0  0  0  0  0  0  0  0  0  0  0
   45.6810   36.3340   42.8780 C   0  0  0  0  0  0  0  0  0  0  0  0
   46.3690   35.1200   42.8900 C   0  0  0  0  0  0  0  0  0  0  0  0
   46.1160   34.2210   43.8830 N   0  0  0  0  0  0  0  0  0  0  0  0
   45.2070   34.4970   44.8490 C   0  0  0  0  0  0  0  0  0  0  0  0
   44.5190   35.6810   44.8600 N   0  0  0  0  0  0  0  0  0  0  0  0
   45.9340   32.5020   46.0140 C   0  0  0  0  0  0  0  0  0  0  0  0
   46.9660   32.3870   45.3040 O   0  0  0  0  0  0  0  0  0  0  0  0
   44.9660   33.5450   45.8670 N   0  0  0  0  0  0  0  0  0  0  0  0
   44.2550   37.5430   43.8220 H   0  0  0  0  0  0  0  0  0  0  0  0
   45.9430   36.9790   42.0610 H   0  0  0  0  0  0  0  0  0  0  0  0
   47.1170   34.8400   42.1350 H   0  0  0  0  0  0  0  0  0  0  0  0
   44.1390   33.5740   46.4920 H   0  0  0  0  0  0  0  0  0  0  0  0
   44.9550   27.9430   47.4870 C   0  0  0  0  0  3  0  0  0  0  0  0
   44.3430   27.1680   48.3510 C   0  0  0  0  0  3  0  0  0  0  0  0
   44.0060   25.7270   48.2270 C   0  0  0  0  0  0  0  0  0  0  0  0
   43.0600   25.4610   48.7340 H   0  0  0  0  0  0  0  0  0  0  0  0
   44.0110   25.4330   47.1480 H   0  0  0  0  0  0  0  0  0  0  0  0
   45.7610   24.4140   46.0650 Br  0  0  0  0  0  0  0  0  0  0  0  0
   45.9940   24.3280   47.9650 C   0  0  0  0  0  0  0  0  0  0  0  0
   45.1280   24.9730   48.8510 C   0  0  0  0  0  0  0  0  0  0  0  0
   45.3830   24.8540   50.2240 C   0  0  0  0  0  0  0  0  0  0  0  0
   44.6780   25.3750   50.8600 H   0  0  0  0  0  0  0  0  0  0  0  0
   46.4700   24.1090   50.6370 C   0  0  0  0  0  0  0  0  0  0  0  0
   46.6340   24.0420   51.7240 H   0  0  0  0  0  0  0  0  0  0  0  0
   47.3120   23.4810   49.7430 C   0  0  0  0  0  3  0  0  0  0  0  0
   47.0790   23.5850   48.3740 C   0  0  0  0  0  3  0  0  0  0  0  0
  1  2  1  0  0  0  0
  2  7  1  0  0  0  0
  2  3  2  0  0  0  0
  3  8  1  0  0  0  0
  4  3  1  0  0  0  0
  4  9  1  0  0  0  0
  5  4  2  0  0  0  0
  6  1  2  0  0  0  0
  6  5  1  0  0  0  0
 10 15  1  0  0  0  0
 11 12  1  0  0  0  0
 11 10  2  0  0  0  0
 12 13  2  0  0  0  0
 13 14  1  0  0  0  0
 14 15  2  0  0  0  0
 14 18  1  0  0  0  0
 16  1  1  0  0  0  0
 17 16  2  0  0  0  0
 18 16  1  0  0  0  0
 18 22  1  0  0  0  0
 19 10  1  0  0  0  0
 20 11  1  0  0  0  0
 21 12  1  0  0  0  0
 23  5  1  0  0  0  0
 23 24  2  0  0  0  0
 25 24  1  0  0  0  0
 25 26  1  0  0  0  0
 25 30  1  0  0  0  0
 27 25  1  0  0  0  0
 28 29  1  0  0  0  0
 29 36  2  0  0  0  0
 29 30  1  0  0  0  0
 30 31  2  0  0  0  0
 31 33  1  0  0  0  0
 31 32  1  0  0  0  0
 33 34  1  0  0  0  0
 35 33  2  0  0  0  0
 36 35  1  0  0  0  0
M  END
>  <minimizedAffinity>
-5.61226892

>  <minimizedRMSD>
1.29849827

$$$$
