
 OpenBabel03242515113D

 36 38  0  0  0  0  0  0  0  0999 V2000
   36.6590   30.5610   39.3820 C   0  0  0  0  0  0  0  0  0  0  0  0
   36.3870   30.4290   38.0460 C   0  0  0  0  0  0  0  0  0  0  0  0
   35.5390   29.4920   37.5070 C   0  0  0  0  0  0  0  0  0  0  0  0
   34.9140   28.6200   38.3660 C   0  0  0  0  0  0  0  0  0  0  0  0
   35.1560   28.7160   39.7170 C   0  0  0  0  0  0  0  0  0  0  0  0
   36.0240   29.6820   40.2120 C   0  0  0  0  0  0  0  0  0  0  0  0
   36.8650   31.1010   37.3430 H   0  0  0  0  0  0  0  0  0  0  0  0
   35.3250   29.3890   36.4530 H   0  0  0  0  0  0  0  0  0  0  0  0
   34.2320   27.8630   37.9760 H   0  0  0  0  0  0  0  0  0  0  0  0
   34.6370   28.0030   40.3440 H   0  0  0  0  0  0  0  0  0  0  0  0
   38.0950   33.8670   40.0070 C   0  0  0  0  0  0  0  0  0  0  0  0
   39.2270   33.5900   40.7710 C   0  0  0  0  0  0  0  0  0  0  0  0
   39.5040   32.2530   41.0780 C   0  0  0  0  0  0  0  0  0  0  0  0
   38.6730   31.2670   40.6280 N   0  0  0  0  0  0  0  0  0  0  0  0
   37.5680   31.5770   39.8790 C   0  0  0  0  0  0  0  0  0  0  0  0
   37.3150   32.8670   39.5930 N   0  0  0  0  0  0  0  0  0  0  0  0
   37.8340   34.8850   39.7420 H   0  0  0  0  0  0  0  0  0  0  0  0
   39.8750   34.3900   41.1190 H   0  0  0  0  0  0  0  0  0  0  0  0
   40.3740   31.9890   41.6700 H   0  0  0  0  0  0  0  0  0  0  0  0
   36.1720   29.6550   41.6110 N   0  0  0  0  0  0  0  0  0  0  0  0
   35.5270   30.3430   42.0780 H   0  0  0  0  0  0  0  0  0  0  0  0
   37.1630   28.7520   42.6650 S   0  0  0  0  0  0  0  0  0  0  0  0
   38.0760   29.7120   43.4120 O   0  0  0  0  0  0  0  0  0  0  0  0
   38.5420   29.5480   44.2530 H   0  0  0  0  0  0  0  0  0  0  0  0
   36.4140   27.9490   43.6760 O   0  0  0  0  0  0  0  0  0  0  0  0
   35.4220   27.8200   43.5310 H   0  0  0  0  0  0  0  0  0  0  0  0
   38.1750   27.7960   41.7160 O   0  0  0  0  0  0  0  0  0  0  0  0
   39.9490   26.1350   43.6730 Br  0  0  0  0  0  0  0  0  0  0  0  0
   38.6880   25.4520   42.4280 C   0  0  0  0  0  0  0  0  0  0  0  0
   38.0430   26.4190   41.6870 C   0  0  0  0  0  0  0  0  0  0  0  0
   37.0930   26.0490   40.7360 C   0  0  0  0  0  0  0  0  0  0  0  0
   36.5170   26.6950   40.0930 H   0  0  0  0  0  0  0  0  0  0  0  0
   36.7800   24.7030   40.5180 C   0  0  0  0  0  0  0  0  0  0  0  0
   36.0620   24.3460   39.8050 H   0  0  0  0  0  0  0  0  0  0  0  0
   37.4440   23.7470   41.2760 C   0  0  0  0  0  3  0  0  0  0  0  0
   38.3810   24.1250   42.2130 C   0  0  0  0  0  3  0  0  0  0  0  0
  1 15  1  0  0  0  0
  1  6  1  0  0  0  0
  2  1  2  0  0  0  0
  3  2  1  0  0  0  0
  3  4  2  0  0  0  0
  4  5  1  0  0  0  0
  5  6  2  0  0  0  0
  5 10  1  0  0  0  0
  6 20  1  0  0  0  0
  7  2  1  0  0  0  0
  8  3  1  0  0  0  0
  9  4  1  0  0  0  0
 11 12  1  0  0  0  0
 12 13  2  0  0  0  0
 12 18  1  0  0  0  0
 13 19  1  0  0  0  0
 14 13  1  0  0  0  0
 15 14  2  0  0  0  0
 16 15  1  0  0  0  0
 16 11  2  0  0  0  0
 17 11  1  0  0  0  0
 20 21  1  0  0  0  0
 20 22  1  0  0  0  0
 22 23  1  0  0  0  0
 22 25  1  0  0  0  0
 23 24  1  0  0  0  0
 26 25  1  0  0  0  0
 27 22  1  0  0  0  0
 29 28  1  0  0  0  0
 30 27  1  0  0  0  0
 30 29  2  0  0  0  0
 31 30  1  0  0  0  0
 32 31  1  0  0  0  0
 33 31  2  0  0  0  0
 33 35  1  0  0  0  0
 34 33  1  0  0  0  0
 35 36  2  0  0  0  0
 36 29  1  0  0  0  0
M  END
>  <minimizedAffinity>
-6.50346994

$$$$

 OpenBabel03242515113D

 36 38  0  0  0  0  0  0  0  0999 V2000
   36.6260   30.5070   39.2150 C   0  0  0  0  0  0  0  0  0  0  0  0
   36.4500   30.3800   37.8620 C   0  0  0  0  0  0  0  0  0  0  0  0
   35.6860   29.4100   37.2590 C   0  0  0  0  0  0  0  0  0  0  0  0
   35.0480   28.4990   38.0650 C   0  0  0  0  0  0  0  0  0  0  0  0
   35.1950   28.5880   39.4300 C   0  0  0  0  0  0  0  0  0  0  0  0
   35.9810   29.5880   39.9910 C   0  0  0  0  0  0  0  0  0  0  0  0
   36.9410   31.0830   37.2000 H   0  0  0  0  0  0  0  0  0  0  0  0
   35.5480   29.3110   36.1910 H   0  0  0  0  0  0  0  0  0  0  0  0
   34.4320   27.7150   37.6220 H   0  0  0  0  0  0  0  0  0  0  0  0
   34.6700   27.8430   40.0140 H   0  0  0  0  0  0  0  0  0  0  0  0
   37.9020   33.8650   39.9090 C   0  0  0  0  0  0  0  0  0  0  0  0
   38.9510   33.6360   40.7970 C   0  0  0  0  0  0  0  0  0  0  0  0
   39.2270   32.3140   41.1650 C   0  0  0  0  0  0  0  0  0  0  0  0
   38.4740   31.2960   40.6530 N   0  0  0  0  0  0  0  0  0  0  0  0
   37.4500   31.5580   39.7810 C   0  0  0  0  0  0  0  0  0  0  0  0
   37.1970   32.8350   39.4380 N   0  0  0  0  0  0  0  0  0  0  0  0
   37.6460   34.8690   39.5910 H   0  0  0  0  0  0  0  0  0  0  0  0
   39.5370   34.4610   41.1930 H   0  0  0  0  0  0  0  0  0  0  0  0
   40.0340   32.0880   41.8540 H   0  0  0  0  0  0  0  0  0  0  0  0
   36.0360   29.5500   41.3970 N   0  0  0  0  0  0  0  0  0  0  0  0
   35.3450   30.2180   41.8260 H   0  0  0  0  0  0  0  0  0  0  0  0
   36.9760   28.6590   42.5070 S   0  0  0  0  0  0  0  0  0  0  0  0
   37.7490   29.6360   43.3790 O   0  0  0  0  0  0  0  0  0  0  0  0
   38.1420   29.4600   44.2550 H   0  0  0  0  0  0  0  0  0  0  0  0
   36.1860   27.7670   43.4050 O   0  0  0  0  0  0  0  0  0  0  0  0
   35.2220   27.5860   43.1570 H   0  0  0  0  0  0  0  0  0  0  0  0
   38.1340   27.8100   41.6250 O   0  0  0  0  0  0  0  0  0  0  0  0
   36.8980   25.3070   40.2310 Br  0  0  0  0  0  0  0  0  0  0  0  0
   38.2130   25.3090   41.6000 C   0  0  0  0  0  0  0  0  0  0  0  0
   38.5780   26.5660   42.0350 C   0  0  0  0  0  0  0  0  0  0  0  0
   39.5350   26.7050   43.0390 C   0  0  0  0  0  0  0  0  0  0  0  0
   39.9110   27.6190   43.4700 H   0  0  0  0  0  0  0  0  0  0  0  0
   40.1370   25.5830   43.6190 C   0  0  0  0  0  0  0  0  0  0  0  0
   40.8790   25.6150   44.3940 H   0  0  0  0  0  0  0  0  0  0  0  0
   39.7530   24.3270   43.1660 C   0  0  0  0  0  3  0  0  0  0  0  0
   38.8060   24.2020   42.1730 C   0  0  0  0  0  3  0  0  0  0  0  0
  1 15  1  0  0  0  0
  1  6  1  0  0  0  0
  2  1  2  0  0  0  0
  3  2  1  0  0  0  0
  3  4  2  0  0  0  0
  4  5  1  0  0  0  0
  5  6  2  0  0  0  0
  5 10  1  0  0  0  0
  6 20  1  0  0  0  0
  7  2  1  0  0  0  0
  8  3  1  0  0  0  0
  9  4  1  0  0  0  0
 11 12  1  0  0  0  0
 12 13  2  0  0  0  0
 12 18  1  0  0  0  0
 13 19  1  0  0  0  0
 14 13  1  0  0  0  0
 15 14  2  0  0  0  0
 16 15  1  0  0  0  0
 16 11  2  0  0  0  0
 17 11  1  0  0  0  0
 20 21  1  0  0  0  0
 20 22  1  0  0  0  0
 22 23  1  0  0  0  0
 22 25  1  0  0  0  0
 23 24  1  0  0  0  0
 26 25  1  0  0  0  0
 27 30  1  0  0  0  0
 27 22  1  0  0  0  0
 28 29  1  0  0  0  0
 29 30  2  0  0  0  0
 29 36  1  0  0  0  0
 30 31  1  0  0  0  0
 31 32  1  0  0  0  0
 31 33  2  0  0  0  0
 33 34  1  0  0  0  0
 35 33  1  0  0  0  0
 36 35  2  0  0  0  0
M  END
>  <minimizedAffinity>
-6.47892761

$$$$

 OpenBabel03242515113D

 36 38  0  0  0  0  0  0  0  0999 V2000
   37.6670   30.8870   38.0730 C   0  0  0  0  0  0  0  0  0  0  0  0
   37.3570   30.9440   36.7390 C   0  0  0  0  0  0  0  0  0  0  0  0
   36.7310   29.9430   36.0370 C   0  0  0  0  0  0  0  0  0  0  0  0
   36.3880   28.7980   36.7150 C   0  0  0  0  0  0  0  0  0  0  0  0
   36.6780   28.6970   38.0560 C   0  0  0  0  0  0  0  0  0  0  0  0
   37.3140   29.7390   38.7210 C   0  0  0  0  0  0  0  0  0  0  0  0
   37.6160   31.8330   36.1760 H   0  0  0  0  0  0  0  0  0  0  0  0
   36.4880   29.9880   34.9840 H   0  0  0  0  0  0  0  0  0  0  0  0
   35.8880   27.9810   36.1910 H   0  0  0  0  0  0  0  0  0  0  0  0
   36.3840   27.7730   38.5370 H   0  0  0  0  0  0  0  0  0  0  0  0
   40.2980   33.2520   39.0050 C   0  0  0  0  0  0  0  0  0  0  0  0
   39.6880   34.0520   39.9700 C   0  0  0  0  0  0  0  0  0  0  0  0
   38.3570   33.7790   40.3060 C   0  0  0  0  0  0  0  0  0  0  0  0
   37.6980   32.7520   39.6930 N   0  0  0  0  0  0  0  0  0  0  0  0
   38.3300   31.9860   38.7490 C   0  0  0  0  0  0  0  0  0  0  0  0
   39.6090   32.2610   38.4350 N   0  0  0  0  0  0  0  0  0  0  0  0
   41.3260   33.4210   38.7060 H   0  0  0  0  0  0  0  0  0  0  0  0
   40.2310   34.8640   40.4450 H   0  0  0  0  0  0  0  0  0  0  0  0
   37.8410   34.3750   41.0520 H   0  0  0  0  0  0  0  0  0  0  0  0
   37.5440   29.4890   40.0860 N   0  0  0  0  0  0  0  0  0  0  0  0
   38.5280   29.1570   40.2550 H   0  0  0  0  0  0  0  0  0  0  0  0
   36.5680   29.6180   41.4790 S   0  0  0  0  0  0  0  0  0  0  0  0
   35.7920   30.9240   41.4070 O   0  0  0  0  0  0  0  0  0  0  0  0
   34.9740   31.1510   41.8870 H   0  0  0  0  0  0  0  0  0  0  0  0
   35.5830   28.5080   41.6440 O   0  0  0  0  0  0  0  0  0  0  0  0
   35.7100   27.6810   41.0770 H   0  0  0  0  0  0  0  0  0  0  0  0
   37.5940   29.7610   42.8080 O   0  0  0  0  0  0  0  0  0  0  0  0
   40.3860   30.9290   42.0530 Br  0  0  0  0  0  0  0  0  0  0  0  0
   40.0260   29.1830   42.7060 C   0  0  0  0  0  0  0  0  0  0  0  0
   38.6930   28.9360   42.9590 C   0  0  0  0  0  0  0  0  0  0  0  0
   38.2950   27.6900   43.4420 C   0  0  0  0  0  0  0  0  0  0  0  0
   37.2960   27.3630   43.6810 H   0  0  0  0  0  0  0  0  0  0  0  0
   39.2310   26.6770   43.6770 C   0  0  0  0  0  0  0  0  0  0  0  0
   38.9970   25.6970   44.0470 H   0  0  0  0  0  0  0  0  0  0  0  0
   40.5680   26.9490   43.4150 C   0  0  0  0  0  3  0  0  0  0  0  0
   40.9500   28.1840   42.9370 C   0  0  0  0  0  3  0  0  0  0  0  0
  1  6  1  0  0  0  0
  1 15  1  0  0  0  0
  2  1  2  0  0  0  0
  3  4  2  0  0  0  0
  3  2  1  0  0  0  0
  4  5  1  0  0  0  0
  5 10  1  0  0  0  0
  5  6  2  0  0  0  0
  6 20  1  0  0  0  0
  7  2  1  0  0  0  0
  8  3  1  0  0  0  0
  9  4  1  0  0  0  0
 11 12  1  0  0  0  0
 12 13  2  0  0  0  0
 12 18  1  0  0  0  0
 13 19  1  0  0  0  0
 14 13  1  0  0  0  0
 15 14  2  0  0  0  0
 16 15  1  0  0  0  0
 16 11  2  0  0  0  0
 17 11  1  0  0  0  0
 20 21  1  0  0  0  0
 20 22  1  0  0  0  0
 22 25  1  0  0  0  0
 22 27  1  0  0  0  0
 23 22  1  0  0  0  0
 23 24  1  0  0  0  0
 26 25  1  0  0  0  0
 27 30  1  0  0  0  0
 28 29  1  0  0  0  0
 29 36  2  0  0  0  0
 29 30  1  0  0  0  0
 30 31  2  0  0  0  0
 31 33  1  0  0  0  0
 31 32  1  0  0  0  0
 33 34  1  0  0  0  0
 35 33  2  0  0  0  0
 36 35  1  0  0  0  0
M  END
>  <minimizedAffinity>
-6.08308458

$$$$

 OpenBabel03242515113D

 36 38  0  0  0  0  0  0  0  0999 V2000
   36.3190   27.0930   38.0520 C   0  0  0  0  0  0  0  0  0  0  0  0
   36.6960   26.8560   36.7550 C   0  0  0  0  0  0  0  0  0  0  0  0
   36.6280   27.7780   35.7390 C   0  0  0  0  0  0  0  0  0  0  0  0
   36.1490   29.0310   36.0370 C   0  0  0  0  0  0  0  0  0  0  0  0
   35.7600   29.3140   37.3250 C   0  0  0  0  0  0  0  0  0  0  0  0
   35.8480   28.3460   38.3180 C   0  0  0  0  0  0  0  0  0  0  0  0
   37.0760   25.8780   36.4890 H   0  0  0  0  0  0  0  0  0  0  0  0
   36.9250   27.5900   34.7160 H   0  0  0  0  0  0  0  0  0  0  0  0
   36.0820   29.7900   35.2560 H   0  0  0  0  0  0  0  0  0  0  0  0
   35.3910   30.3170   37.5000 H   0  0  0  0  0  0  0  0  0  0  0  0
   35.8230   23.8980   39.7630 C   0  0  0  0  0  0  0  0  0  0  0  0
   36.5410   24.0500   40.9480 C   0  0  0  0  0  0  0  0  0  0  0  0
   37.2060   25.2630   41.1650 C   0  0  0  0  0  0  0  0  0  0  0  0
   37.1350   26.2530   40.2270 N   0  0  0  0  0  0  0  0  0  0  0  0
   36.4190   26.0680   39.0740 C   0  0  0  0  0  0  0  0  0  0  0  0
   35.7860   24.8970   38.8790 N   0  0  0  0  0  0  0  0  0  0  0  0
   35.2910   22.9800   39.5450 H   0  0  0  0  0  0  0  0  0  0  0  0
   36.5840   23.2490   41.6810 H   0  0  0  0  0  0  0  0  0  0  0  0
   37.7770   25.4260   42.0730 H   0  0  0  0  0  0  0  0  0  0  0  0
   35.4130   28.7830   39.5840 N   0  0  0  0  0  0  0  0  0  0  0  0
   34.3800   28.6280   39.7100 H   0  0  0  0  0  0  0  0  0  0  0  0
   36.2120   29.4940   40.9120 S   0  0  0  0  0  0  0  0  0  0  0  0
   35.4280   30.7220   41.3480 O   0  0  0  0  0  0  0  0  0  0  0  0
   35.4630   31.1660   42.2160 H   0  0  0  0  0  0  0  0  0  0  0  0
   36.3540   28.5960   42.0960 O   0  0  0  0  0  0  0  0  0  0  0  0
   36.1840   27.6080   41.9590 H   0  0  0  0  0  0  0  0  0  0  0  0
   37.7000   30.0650   40.3650 O   0  0  0  0  0  0  0  0  0  0  0  0
   40.0000   31.0210   42.2430 Br  0  0  0  0  0  0  0  0  0  0  0  0
   38.9490   32.1070   41.0940 C   0  0  0  0  0  0  0  0  0  0  0  0
   37.9980   31.4160   40.3740 C   0  0  0  0  0  0  0  0  0  0  0  0
   37.1590   32.0970   39.4930 C   0  0  0  0  0  0  0  0  0  0  0  0
   36.3790   31.6860   38.8730 H   0  0  0  0  0  0  0  0  0  0  0  0
   37.2650   33.4820   39.3250 C   0  0  0  0  0  0  0  0  0  0  0  0
   36.6550   34.0710   38.6670 H   0  0  0  0  0  0  0  0  0  0  0  0
   38.2310   34.1570   40.0620 C   0  0  0  0  0  3  0  0  0  0  0  0
   39.0540   33.4730   40.9290 C   0  0  0  0  0  3  0  0  0  0  0  0
  1  6  1  0  0  0  0
  1 15  1  0  0  0  0
  2  1  2  0  0  0  0
  3  4  2  0  0  0  0
  3  2  1  0  0  0  0
  4  5  1  0  0  0  0
  5 10  1  0  0  0  0
  5  6  2  0  0  0  0
  6 20  1  0  0  0  0
  7  2  1  0  0  0  0
  8  3  1  0  0  0  0
  9  4  1  0  0  0  0
 11 12  1  0  0  0  0
 12 13  2  0  0  0  0
 12 18  1  0  0  0  0
 13 19  1  0  0  0  0
 14 13  1  0  0  0  0
 15 14  2  0  0  0  0
 16 15  1  0  0  0  0
 16 11  2  0  0  0  0
 17 11  1  0  0  0  0
 20 21  1  0  0  0  0
 20 22  1  0  0  0  0
 22 23  1  0  0  0  0
 22 25  1  0  0  0  0
 23 24  1  0  0  0  0
 26 25  1  0  0  0  0
 27 30  1  0  0  0  0
 27 22  1  0  0  0  0
 29 28  1  0  0  0  0
 30 29  2  0  0  0  0
 31 30  1  0  0  0  0
 32 31  1  0  0  0  0
 33 31  2  0  0  0  0
 33 35  1  0  0  0  0
 34 33  1  0  0  0  0
 35 36  2  0  0  0  0
 36 29  1  0  0  0  0
M  END
>  <minimizedAffinity>
-5.7964921

$$$$

 OpenBabel03242515113D

 36 38  0  0  0  0  0  0  0  0999 V2000
   40.1060   29.1350   42.5690 C   0  0  0  0  0  0  0  0  0  0  0  0
   40.8830   28.0670   42.9350 C   0  0  0  0  0  0  0  0  0  0  0  0
   40.4040   26.9010   43.4810 C   0  0  0  0  0  0  0  0  0  0  0  0
   39.0490   26.7900   43.6780 C   0  0  0  0  0  0  0  0  0  0  0  0
   38.2300   27.8380   43.3240 C   0  0  0  0  0  0  0  0  0  0  0  0
   38.7640   28.9970   42.7750 C   0  0  0  0  0  0  0  0  0  0  0  0
   41.9550   28.1240   42.7940 H   0  0  0  0  0  0  0  0  0  0  0  0
   41.0180   26.0590   43.7700 H   0  0  0  0  0  0  0  0  0  0  0  0
   38.6320   25.8790   44.1080 H   0  0  0  0  0  0  0  0  0  0  0  0
   37.1720   27.6930   43.5020 H   0  0  0  0  0  0  0  0  0  0  0  0
   40.7260   31.8430   40.1880 C   0  0  0  0  0  0  0  0  0  0  0  0
   41.7090   32.6070   40.8140 C   0  0  0  0  0  0  0  0  0  0  0  0
   42.1670   32.1900   42.0690 C   0  0  0  0  0  0  0  0  0  0  0  0
   41.6490   31.0640   42.6420 N   0  0  0  0  0  0  0  0  0  0  0  0
   40.6830   30.3370   41.9960 C   0  0  0  0  0  0  0  0  0  0  0  0
   40.2530   30.7500   40.7900 N   0  0  0  0  0  0  0  0  0  0  0  0
   40.3360   32.1200   39.2160 H   0  0  0  0  0  0  0  0  0  0  0  0
   42.1070   33.5000   40.3410 H   0  0  0  0  0  0  0  0  0  0  0  0
   42.9310   32.7540   42.5950 H   0  0  0  0  0  0  0  0  0  0  0  0
   37.8030   29.9780   42.4650 N   0  0  0  0  0  0  0  0  0  0  0  0
   37.7350   30.7020   43.2250 H   0  0  0  0  0  0  0  0  0  0  0  0
   36.7600   30.2140   41.1360 S   0  0  0  0  0  0  0  0  0  0  0  0
   35.7540   31.2960   41.4970 O   0  0  0  0  0  0  0  0  0  0  0  0
   35.2250   31.8370   40.8820 H   0  0  0  0  0  0  0  0  0  0  0  0
   37.4490   30.6290   39.8790 O   0  0  0  0  0  0  0  0  0  0  0  0
   38.4540   30.5250   39.8390 H   0  0  0  0  0  0  0  0  0  0  0  0
   35.8660   28.8000   40.9340 O   0  0  0  0  0  0  0  0  0  0  0  0
   37.7630   26.6170   39.7620 Br  0  0  0  0  0  0  0  0  0  0  0  0
   36.2280   27.3560   38.9230 C   0  0  0  0  0  0  0  0  0  0  0  0
   35.5740   28.3090   39.6750 C   0  0  0  0  0  0  0  0  0  0  0  0
   34.4320   28.9300   39.1710 C   0  0  0  0  0  0  0  0  0  0  0  0
   33.8270   29.6840   39.6470 H   0  0  0  0  0  0  0  0  0  0  0  0
   33.9330   28.6010   37.9060 C   0  0  0  0  0  0  0  0  0  0  0  0
   33.0620   29.0370   37.4560 H   0  0  0  0  0  0  0  0  0  0  0  0
   34.6100   27.6380   37.1670 C   0  0  0  0  0  3  0  0  0  0  0  0
   35.7380   27.0320   37.6750 C   0  0  0  0  0  3  0  0  0  0  0  0
  1  6  2  0  0  0  0
  1  2  1  0  0  0  0
  2  3  2  0  0  0  0
  3  4  1  0  0  0  0
  3  8  1  0  0  0  0
  4  9  1  0  0  0  0
  5 10  1  0  0  0  0
  5  4  2  0  0  0  0
  6  5  1  0  0  0  0
  7  2  1  0  0  0  0
 11 16  2  0  0  0  0
 11 12  1  0  0  0  0
 12 13  2  0  0  0  0
 13 19  1  0  0  0  0
 13 14  1  0  0  0  0
 15  1  1  0  0  0  0
 15 14  2  0  0  0  0
 16 15  1  0  0  0  0
 17 11  1  0  0  0  0
 18 12  1  0  0  0  0
 20  6  1  0  0  0  0
 20 21  1  0  0  0  0
 22 23  1  0  0  0  0
 22 20  1  0  0  0  0
 24 23  1  0  0  0  0
 25 22  1  0  0  0  0
 26 25  1  0  0  0  0
 27 22  1  0  0  0  0
 29 30  1  0  0  0  0
 29 28  1  0  0  0  0
 30 27  1  0  0  0  0
 31 32  1  0  0  0  0
 31 30  2  0  0  0  0
 33 31  1  0  0  0  0
 34 33  1  0  0  0  0
 35 36  1  0  0  0  0
 35 33  2  0  0  0  0
 36 29  2  0  0  0  0
M  END
>  <minimizedAffinity>
-5.65236712

$$$$

 OpenBabel03242515113D

 36 38  0  0  0  0  0  0  0  0999 V2000
   36.6360   28.1320   41.2300 C   0  0  0  0  0  0  0  0  0  0  0  0
   36.9700   26.9050   41.7400 C   0  0  0  0  0  0  0  0  0  0  0  0
   37.6980   26.7040   42.8880 C   0  0  0  0  0  0  0  0  0  0  0  0
   38.1260   27.8100   43.5810 C   0  0  0  0  0  0  0  0  0  0  0  0
   37.8130   29.0640   43.1070 C   0  0  0  0  0  0  0  0  0  0  0  0
   37.0740   29.2140   41.9400 C   0  0  0  0  0  0  0  0  0  0  0  0
   36.6480   26.0130   41.2160 H   0  0  0  0  0  0  0  0  0  0  0  0
   37.9600   25.7350   43.2880 H   0  0  0  0  0  0  0  0  0  0  0  0
   38.7050   27.6900   44.4980 H   0  0  0  0  0  0  0  0  0  0  0  0
   38.1770   29.8970   43.6950 H   0  0  0  0  0  0  0  0  0  0  0  0
   35.6540   27.7190   37.7310 C   0  0  0  0  0  0  0  0  0  0  0  0
   34.4730   28.4540   37.6360 C   0  0  0  0  0  0  0  0  0  0  0  0
   34.0060   29.1000   38.7860 C   0  0  0  0  0  0  0  0  0  0  0  0
   34.7060   28.9980   39.9550 N   0  0  0  0  0  0  0  0  0  0  0  0
   35.8630   28.2670   40.0100 C   0  0  0  0  0  0  0  0  0  0  0  0
   36.3000   27.6510   38.8960 N   0  0  0  0  0  0  0  0  0  0  0  0
   36.0600   27.1990   36.8710 H   0  0  0  0  0  0  0  0  0  0  0  0
   33.9320   28.5220   36.6960 H   0  0  0  0  0  0  0  0  0  0  0  0
   33.0910   29.6840   38.7610 H   0  0  0  0  0  0  0  0  0  0  0  0
   36.8350   30.5540   41.5830 N   0  0  0  0  0  0  0  0  0  0  0  0
   36.1070   30.9920   42.2020 H   0  0  0  0  0  0  0  0  0  0  0  0
   37.4780   31.5740   40.3760 S   0  0  0  0  0  0  0  0  0  0  0  0
   37.1510   30.9780   39.0150 O   0  0  0  0  0  0  0  0  0  0  0  0
   37.1330   31.4430   38.1580 H   0  0  0  0  0  0  0  0  0  0  0  0
   36.9490   32.9690   40.4060 O   0  0  0  0  0  0  0  0  0  0  0  0
   36.4490   33.2640   41.2330 H   0  0  0  0  0  0  0  0  0  0  0  0
   39.1570   31.5260   40.5110 O   0  0  0  0  0  0  0  0  0  0  0  0
   40.0340   28.6660   39.6250 Br  0  0  0  0  0  0  0  0  0  0  0  0
   40.4950   30.3050   38.7840 C   0  0  0  0  0  0  0  0  0  0  0  0
   39.9640   31.4230   39.3930 C   0  0  0  0  0  0  0  0  0  0  0  0
   40.2280   32.6900   38.8740 C   0  0  0  0  0  0  0  0  0  0  0  0
   39.8810   33.6410   39.2450 H   0  0  0  0  0  0  0  0  0  0  0  0
   41.0280   32.8490   37.7370 C   0  0  0  0  0  0  0  0  0  0  0  0
   41.2710   33.7910   37.2830 H   0  0  0  0  0  0  0  0  0  0  0  0
   41.5510   31.7080   37.1410 C   0  0  0  0  0  3  0  0  0  0  0  0
   41.2840   30.4610   37.6640 C   0  0  0  0  0  3  0  0  0  0  0  0
  1  2  2  0  0  0  0
  1  6  1  0  0  0  0
  2  3  1  0  0  0  0
  3  8  1  0  0  0  0
  3  4  2  0  0  0  0
  4  9  1  0  0  0  0
  5  4  1  0  0  0  0
  5 10  1  0  0  0  0
  6  5  2  0  0  0  0
  7  2  1  0  0  0  0
 11 16  1  0  0  0  0
 12 11  2  0  0  0  0
 12 13  1  0  0  0  0
 13 14  2  0  0  0  0
 14 15  1  0  0  0  0
 15  1  1  0  0  0  0
 16 15  2  0  0  0  0
 17 11  1  0  0  0  0
 18 12  1  0  0  0  0
 19 13  1  0  0  0  0
 20  6  1  0  0  0  0
 20 21  1  0  0  0  0
 22 25  1  0  0  0  0
 22 27  1  0  0  0  0
 22 20  1  0  0  0  0
 23 22  1  0  0  0  0
 24 23  1  0  0  0  0
 25 26  1  0  0  0  0
 29 30  1  0  0  0  0
 29 28  1  0  0  0  0
 30 27  1  0  0  0  0
 31 32  1  0  0  0  0
 31 30  2  0  0  0  0
 33 31  1  0  0  0  0
 34 33  1  0  0  0  0
 35 36  1  0  0  0  0
 35 33  2  0  0  0  0
 36 29  2  0  0  0  0
M  END
>  <minimizedAffinity>
-5.64400911

$$$$

 OpenBabel03242515113D

 36 38  0  0  0  0  0  0  0  0999 V2000
   37.6190   26.0400   39.9240 C   0  0  0  0  0  0  0  0  0  0  0  0
   37.1680   24.7460   39.8880 C   0  0  0  0  0  0  0  0  0  0  0  0
   36.7200   24.0420   40.9790 C   0  0  0  0  0  0  0  0  0  0  0  0
   36.7210   24.6740   42.1990 C   0  0  0  0  0  0  0  0  0  0  0  0
   37.1640   25.9740   42.2830 C   0  0  0  0  0  0  0  0  0  0  0  0
   37.6080   26.6430   41.1490 C   0  0  0  0  0  0  0  0  0  0  0  0
   37.1560   24.2200   38.9410 H   0  0  0  0  0  0  0  0  0  0  0  0
   36.3650   23.0210   40.9500 H   0  0  0  0  0  0  0  0  0  0  0  0
   36.3710   24.1470   43.0880 H   0  0  0  0  0  0  0  0  0  0  0  0
   37.1420   26.4200   43.2690 H   0  0  0  0  0  0  0  0  0  0  0  0
   37.7900   27.0730   36.4190 C   0  0  0  0  0  0  0  0  0  0  0  0
   38.8640   27.9610   36.3950 C   0  0  0  0  0  0  0  0  0  0  0  0
   39.5390   28.2110   37.5950 C   0  0  0  0  0  0  0  0  0  0  0  0
   39.1380   27.5890   38.7420 N   0  0  0  0  0  0  0  0  0  0  0  0
   38.0780   26.7210   38.7280 C   0  0  0  0  0  0  0  0  0  0  0  0
   37.4380   26.4910   37.5670 N   0  0  0  0  0  0  0  0  0  0  0  0
   37.2320   26.8440   35.5180 H   0  0  0  0  0  0  0  0  0  0  0  0
   39.1660   28.4460   35.4700 H   0  0  0  0  0  0  0  0  0  0  0  0
   40.3800   28.8960   37.6240 H   0  0  0  0  0  0  0  0  0  0  0  0
   38.0300   27.9640   41.3920 N   0  0  0  0  0  0  0  0  0  0  0  0
   38.8440   28.2250   40.7800 H   0  0  0  0  0  0  0  0  0  0  0  0
   37.4930   29.1850   42.4550 S   0  0  0  0  0  0  0  0  0  0  0  0
   36.4940   28.5750   43.4270 O   0  0  0  0  0  0  0  0  0  0  0  0
   36.2300   28.9270   44.2980 H   0  0  0  0  0  0  0  0  0  0  0  0
   38.5790   29.8250   43.2540 O   0  0  0  0  0  0  0  0  0  0  0  0
   39.5330   29.6640   42.9630 H   0  0  0  0  0  0  0  0  0  0  0  0
   36.6270   30.3070   41.5450 O   0  0  0  0  0  0  0  0  0  0  0  0
   38.3450   31.5050   39.2330 Br  0  0  0  0  0  0  0  0  0  0  0  0
   36.7970   30.4200   39.0510 C   0  0  0  0  0  0  0  0  0  0  0  0
   36.2350   30.0300   40.2480 C   0  0  0  0  0  0  0  0  0  0  0  0
   35.0920   29.2310   40.2520 C   0  0  0  0  0  0  0  0  0  0  0  0
   34.5530   28.8550   41.1070 H   0  0  0  0  0  0  0  0  0  0  0  0
   34.5010   28.8150   39.0540 C   0  0  0  0  0  0  0  0  0  0  0  0
   33.6230   28.2010   38.9820 H   0  0  0  0  0  0  0  0  0  0  0  0
   35.0850   29.2220   37.8610 C   0  0  0  0  0  3  0  0  0  0  0  0
   36.2140   30.0120   37.8690 C   0  0  0  0  0  3  0  0  0  0  0  0
  1  6  1  0  0  0  0
  2  1  2  0  0  0  0
  2  3  1  0  0  0  0
  3  4  2  0  0  0  0
  4  5  1  0  0  0  0
  4  9  1  0  0  0  0
  5 10  1  0  0  0  0
  6 20  1  0  0  0  0
  6  5  2  0  0  0  0
  7  2  1  0  0  0  0
  8  3  1  0  0  0  0
 11 16  1  0  0  0  0
 12 11  2  0  0  0  0
 12 13  1  0  0  0  0
 13 19  1  0  0  0  0
 13 14  2  0  0  0  0
 15 14  1  0  0  0  0
 15  1  1  0  0  0  0
 16 15  2  0  0  0  0
 17 11  1  0  0  0  0
 18 12  1  0  0  0  0
 20 22  1  0  0  0  0
 21 20  1  0  0  0  0
 22 25  1  0  0  0  0
 22 23  1  0  0  0  0
 23 24  1  0  0  0  0
 26 25  1  0  0  0  0
 27 22  1  0  0  0  0
 29 28  1  0  0  0  0
 29 30  1  0  0  0  0
 30 31  2  0  0  0  0
 30 27  1  0  0  0  0
 31 32  1  0  0  0  0
 33 31  1  0  0  0  0
 34 33  1  0  0  0  0
 35 36  1  0  0  0  0
 35 33  2  0  0  0  0
 36 29  2  0  0  0  0
M  END
>  <minimizedAffinity>
-5.63809729

$$$$

 OpenBabel03242515113D

 36 38  0  0  0  0  0  0  0  0999 V2000
   36.0960   26.9530   38.8380 C   0  0  0  0  0  0  0  0  0  0  0  0
   36.0390   26.6910   37.4940 C   0  0  0  0  0  0  0  0  0  0  0  0
   35.5600   27.5610   36.5450 C   0  0  0  0  0  0  0  0  0  0  0  0
   35.1050   28.7870   36.9670 C   0  0  0  0  0  0  0  0  0  0  0  0
   35.1450   29.0950   38.3070 C   0  0  0  0  0  0  0  0  0  0  0  0
   35.6380   28.1790   39.2280 C   0  0  0  0  0  0  0  0  0  0  0  0
   36.3890   25.7330   37.1300 H   0  0  0  0  0  0  0  0  0  0  0  0
   35.5150   27.3530   35.4850 H   0  0  0  0  0  0  0  0  0  0  0  0
   34.7180   29.5060   36.2420 H   0  0  0  0  0  0  0  0  0  0  0  0
   34.7720   30.0750   38.5800 H   0  0  0  0  0  0  0  0  0  0  0  0
   38.0740   25.5580   41.5810 C   0  0  0  0  0  0  0  0  0  0  0  0
   37.6710   24.2250   41.6260 C   0  0  0  0  0  0  0  0  0  0  0  0
   36.7080   23.7960   40.7060 C   0  0  0  0  0  0  0  0  0  0  0  0
   36.1950   24.6790   39.7990 N   0  0  0  0  0  0  0  0  0  0  0  0
   36.6160   25.9830   39.7830 C   0  0  0  0  0  0  0  0  0  0  0  0
   37.5420   26.3800   40.6750 N   0  0  0  0  0  0  0  0  0  0  0  0
   38.8160   25.9420   42.2710 H   0  0  0  0  0  0  0  0  0  0  0  0
   38.0920   23.5390   42.3560 H   0  0  0  0  0  0  0  0  0  0  0  0
   36.3630   22.7680   40.7030 H   0  0  0  0  0  0  0  0  0  0  0  0
   35.6140   28.6360   40.5590 N   0  0  0  0  0  0  0  0  0  0  0  0
   34.8860   28.1310   41.1250 H   0  0  0  0  0  0  0  0  0  0  0  0
   36.5100   29.8150   41.4060 S   0  0  0  0  0  0  0  0  0  0  0  0
   35.7760   31.1430   41.3080 O   0  0  0  0  0  0  0  0  0  0  0  0
   35.8750   31.9160   41.8950 H   0  0  0  0  0  0  0  0  0  0  0  0
   36.7140   29.5090   42.8530 O   0  0  0  0  0  0  0  0  0  0  0  0
   36.5190   28.5670   43.1650 H   0  0  0  0  0  0  0  0  0  0  0  0
   37.9680   30.0300   40.5890 O   0  0  0  0  0  0  0  0  0  0  0  0
   38.9320   32.9830   40.8760 Br  0  0  0  0  0  0  0  0  0  0  0  0
   39.8020   31.4350   41.5480 C   0  0  0  0  0  0  0  0  0  0  0  0
   39.1480   30.2520   41.2730 C   0  0  0  0  0  0  0  0  0  0  0  0
   39.6840   29.0420   41.7120 C   0  0  0  0  0  0  0  0  0  0  0  0
   39.2820   28.0520   41.5690 H   0  0  0  0  0  0  0  0  0  0  0  0
   40.8830   29.0050   42.4320 C   0  0  0  0  0  0  0  0  0  0  0  0
   41.3520   28.1130   42.8000 H   0  0  0  0  0  0  0  0  0  0  0  0
   41.5240   30.2100   42.6970 C   0  0  0  0  0  3  0  0  0  0  0  0
   40.9850   31.3990   42.2580 C   0  0  0  0  0  3  0  0  0  0  0  0
  1  6  1  0  0  0  0
  1 15  1  0  0  0  0
  2  1  2  0  0  0  0
  3  4  2  0  0  0  0
  3  2  1  0  0  0  0
  4  5  1  0  0  0  0
  5 10  1  0  0  0  0
  5  6  2  0  0  0  0
  6 20  1  0  0  0  0
  7  2  1  0  0  0  0
  8  3  1  0  0  0  0
  9  4  1  0  0  0  0
 11 12  1  0  0  0  0
 11 17  1  0  0  0  0
 12 18  1  0  0  0  0
 13 12  2  0  0  0  0
 14 13  1  0  0  0  0
 15 14  2  0  0  0  0
 15 16  1  0  0  0  0
 16 11  2  0  0  0  0
 19 13  1  0  0  0  0
 20 21  1  0  0  0  0
 20 22  1  0  0  0  0
 22 25  1  0  0  0  0
 23 22  1  0  0  0  0
 23 24  1  0  0  0  0
 25 26  1  0  0  0  0
 27 30  1  0  0  0  0
 27 22  1  0  0  0  0
 28 29  1  0  0  0  0
 29 36  1  0  0  0  0
 30 29  2  0  0  0  0
 30 31  1  0  0  0  0
 31 33  2  0  0  0  0
 32 31  1  0  0  0  0
 33 35  1  0  0  0  0
 33 34  1  0  0  0  0
 36 35  2  0  0  0  0
M  END
>  <minimizedAffinity>
-5.6130619

$$$$

 OpenBabel03242515113D

 36 38  0  0  0  0  0  0  0  0999 V2000
   36.5820   28.2830   39.6960 C   0  0  0  0  0  0  0  0  0  0  0  0
   36.3060   27.1930   38.9130 C   0  0  0  0  0  0  0  0  0  0  0  0
   35.6910   27.2450   37.6860 C   0  0  0  0  0  0  0  0  0  0  0  0
   35.3240   28.4770   37.2000 C   0  0  0  0  0  0  0  0  0  0  0  0
   35.5830   29.6000   37.9520 C   0  0  0  0  0  0  0  0  0  0  0  0
   36.2060   29.4940   39.1890 C   0  0  0  0  0  0  0  0  0  0  0  0
   36.5810   26.2070   39.2680 H   0  0  0  0  0  0  0  0  0  0  0  0
   35.4740   26.3840   37.0690 H   0  0  0  0  0  0  0  0  0  0  0  0
   34.8350   28.5580   36.2290 H   0  0  0  0  0  0  0  0  0  0  0  0
   35.2710   30.5420   37.5190 H   0  0  0  0  0  0  0  0  0  0  0  0
   38.9730   27.1670   42.2300 C   0  0  0  0  0  0  0  0  0  0  0  0
   38.5540   27.8260   43.3840 C   0  0  0  0  0  0  0  0  0  0  0  0
   37.4370   28.6650   43.2950 C   0  0  0  0  0  0  0  0  0  0  0  0
   36.7940   28.8150   42.1000 N   0  0  0  0  0  0  0  0  0  0  0  0
   37.2340   28.1510   40.9850 C   0  0  0  0  0  0  0  0  0  0  0  0
   38.3100   27.3490   41.0860 N   0  0  0  0  0  0  0  0  0  0  0  0
   39.8320   26.5070   42.2430 H   0  0  0  0  0  0  0  0  0  0  0  0
   39.0800   27.6920   44.3250 H   0  0  0  0  0  0  0  0  0  0  0  0
   37.0740   29.1980   44.1670 H   0  0  0  0  0  0  0  0  0  0  0  0
   36.4020   30.7270   39.8380 N   0  0  0  0  0  0  0  0  0  0  0  0
   35.7350   30.8480   40.6420 H   0  0  0  0  0  0  0  0  0  0  0  0
   37.4800   32.0250   39.5830 S   0  0  0  0  0  0  0  0  0  0  0  0
   37.1890   32.6340   38.2200 O   0  0  0  0  0  0  0  0  0  0  0  0
   37.4300   33.5270   37.9100 H   0  0  0  0  0  0  0  0  0  0  0  0
   37.3860   33.1120   40.6010 O   0  0  0  0  0  0  0  0  0  0  0  0
   36.8820   32.9120   41.4550 H   0  0  0  0  0  0  0  0  0  0  0  0
   39.0340   31.3820   39.4810 O   0  0  0  0  0  0  0  0  0  0  0  0
   40.2170   31.0590   42.3490 Br  0  0  0  0  0  0  0  0  0  0  0  0
   40.8670   32.1970   40.9760 C   0  0  0  0  0  0  0  0  0  0  0  0
   40.1470   32.1380   39.8020 C   0  0  0  0  0  0  0  0  0  0  0  0
   40.5210   32.9270   38.7150 C   0  0  0  0  0  0  0  0  0  0  0  0
   40.0520   32.9800   37.7450 H   0  0  0  0  0  0  0  0  0  0  0  0
   41.6240   33.7840   38.7940 C   0  0  0  0  0  0  0  0  0  0  0  0
   41.9680   34.4180   37.9990 H   0  0  0  0  0  0  0  0  0  0  0  0
   42.3340   33.8270   39.9870 C   0  0  0  0  0  3  0  0  0  0  0  0
   41.9540   33.0430   41.0550 C   0  0  0  0  0  3  0  0  0  0  0  0
  1 15  1  0  0  0  0
  2  7  1  0  0  0  0
  2  1  2  0  0  0  0
  3  2  1  0  0  0  0
  4  3  2  0  0  0  0
  4  5  1  0  0  0  0
  5  6  2  0  0  0  0
  6  1  1  0  0  0  0
  6 20  1  0  0  0  0
  8  3  1  0  0  0  0
  9  4  1  0  0  0  0
 10  5  1  0  0  0  0
 11 17  1  0  0  0  0
 11 12  1  0  0  0  0
 12 18  1  0  0  0  0
 13 12  2  0  0  0  0
 13 19  1  0  0  0  0
 14 13  1  0  0  0  0
 15 16  1  0  0  0  0
 15 14  2  0  0  0  0
 16 11  2  0  0  0  0
 20 21  1  0  0  0  0
 22 20  1  0  0  0  0
 22 25  1  0  0  0  0
 23 22  1  0  0  0  0
 24 23  1  0  0  0  0
 25 26  1  0  0  0  0
 27 22  1  0  0  0  0
 27 30  1  0  0  0  0
 29 36  1  0  0  0  0
 29 28  1  0  0  0  0
 30 29  2  0  0  0  0
 31 33  2  0  0  0  0
 31 30  1  0  0  0  0
 32 31  1  0  0  0  0
 33 35  1  0  0  0  0
 34 33  1  0  0  0  0
 35 36  2  0  0  0  0
M  END
>  <minimizedAffinity>
-5.46895456

$$$$
