
 OpenBabel03242519243D

 40 43  0  0  0  0  0  0  0  0999 V2000
   47.8940   33.7990   42.8980 C   0  0  0  0  0  0  0  0  0  0  0  0
   48.5660   35.0200   42.6450 C   0  0  0  0  0  0  0  0  0  0  0  0
   49.9310   35.0190   42.3220 C   0  0  0  0  0  0  0  0  0  0  0  0
   50.5380   33.7900   42.2740 N   0  0  0  0  0  0  0  0  0  0  0  0
   49.8610   32.6260   42.5250 C   0  0  0  0  0  0  0  0  0  0  0  0
   48.5710   32.6520   42.8280 N   0  0  0  0  0  0  0  0  0  0  0  0
   48.1620   36.0220   42.6630 H   0  0  0  0  0  0  0  0  0  0  0  0
   50.4970   35.8930   42.1200 H   0  0  0  0  0  0  0  0  0  0  0  0
   46.4690   33.9280   43.2310 C   0  0  0  0  0  0  0  0  0  0  0  0
   45.7610   34.9350   42.4420 C   0  0  0  0  0  0  0  0  0  0  0  0
   45.3110   36.1200   43.2180 C   0  0  0  0  0  0  0  0  0  0  0  0
   44.5240   35.7590   44.4730 C   0  0  0  0  0  0  0  0  0  0  0  0
   44.9740   34.5000   45.1450 C   0  0  0  0  0  0  0  0  0  0  0  0
   46.3990   34.1690   44.7490 C   0  0  0  0  0  0  0  0  0  0  0  0
   45.9900   32.9120   43.1070 H   0  0  0  0  0  0  0  0  0  0  0  0
   46.4260   35.3030   41.6410 H   0  0  0  0  0  0  0  0  0  0  0  0
   44.8870   34.4870   41.9070 H   0  0  0  0  0  0  0  0  0  0  0  0
   44.5410   36.6320   42.5670 H   0  0  0  0  0  0  0  0  0  0  0  0
   46.0510   36.8920   43.4240 H   0  0  0  0  0  0  0  0  0  0  0  0
   44.6960   36.5850   45.2090 H   0  0  0  0  0  0  0  0  0  0  0  0
   43.4360   35.7140   44.3050 H   0  0  0  0  0  0  0  0  0  0  0  0
   44.3380   33.6730   44.7620 H   0  0  0  0  0  0  0  0  0  0  0  0
   44.8990   34.5210   46.2340 H   0  0  0  0  0  0  0  0  0  0  0  0
   46.6900   33.2100   45.2300 H   0  0  0  0  0  0  0  0  0  0  0  0
   47.1150   34.9370   45.0780 H   0  0  0  0  0  0  0  0  0  0  0  0
   50.6590   31.4140   42.4370 C   0  0  0  0  0  0  0  0  0  0  0  0
   51.5130   31.3060   41.3810 N   0  0  0  0  0  0  0  0  0  0  0  0
   52.1630   30.1220   41.4700 C   0  0  0  0  0  0  0  0  0  0  0  0
   51.7010   29.4920   42.6010 N   0  0  0  0  0  0  0  0  0  0  0  0
   50.7930   30.2860   43.1710 N   0  0  0  0  0  0  0  0  0  0  0  0
   52.9110   29.6890   40.8190 H   0  0  0  0  0  0  0  0  0  0  0  0
   53.9320   29.5620   44.7980 Br  0  0  0  0  0  0  0  0  0  0  0  0
   53.0010   28.0350   44.1370 C   0  0  0  0  0  0  0  0  0  0  0  0
   52.0480   28.2310   43.1590 C   0  0  0  0  0  0  0  0  0  0  0  0
   51.3810   27.0910   42.6940 C   0  0  0  0  0  0  0  0  0  0  0  0
   50.6120   27.1360   41.9240 H   0  0  0  0  0  0  0  0  0  0  0  0
   51.7120   25.8490   43.2320 C   0  0  0  0  0  0  0  0  0  0  0  0
   51.2010   24.9540   42.8800 H   0  0  0  0  0  0  0  0  0  0  0  0
   52.6560   25.6800   44.1960 C   0  0  0  0  0  3  0  0  0  0  0  0
   53.3090   26.7980   44.6520 C   0  0  0  0  0  3  0  0  0  0  0  0
  1  9  1  0  0  0  0
  2  7  1  0  0  0  0
  2  1  2  0  0  0  0
  3  2  1  0  0  0  0
  4  3  2  0  0  0  0
  4  5  1  0  0  0  0
  5  6  2  0  0  0  0
  6  1  1  0  0  0  0
  8  3  1  0  0  0  0
  9 14  1  0  0  0  0
 10 11  1  0  0  0  0
 10  9  1  0  0  0  0
 11 19  1  0  0  0  0
 11 12  1  0  0  0  0
 12 13  1  0  0  0  0
 12 20  1  0  0  0  0
 13 23  1  0  0  0  0
 14 25  1  0  0  0  0
 14 13  1  0  0  0  0
 14 24  1  0  0  0  0
 15  9  1  0  0  0  0
 16 10  1  0  0  0  0
 17 10  1  0  0  0  0
 18 11  1  0  0  0  0
 21 12  1  0  0  0  0
 22 13  1  0  0  0  0
 26  5  1  0  0  0  0
 26 30  2  0  0  0  0
 27 28  2  0  0  0  0
 27 26  1  0  0  0  0
 28 29  1  0  0  0  0
 29 34  1  0  0  0  0
 29 30  1  0  0  0  0
 31 28  1  0  0  0  0
 33 40  1  0  0  0  0
 33 32  1  0  0  0  0
 34 33  2  0  0  0  0
 35 34  1  0  0  0  0
 35 37  2  0  0  0  0
 36 35  1  0  0  0  0
 37 39  1  0  0  0  0
 38 37  1  0  0  0  0
 39 40  2  0  0  0  0
M  END
>  <minimizedAffinity>
-4.3389616

>  <minimizedRMSD>
1.04270232

$$$$
