
 OpenBabel03242510573D

 36 38  0  0  0  0  0  0  0  0999 V2000
   45.7390   31.7110   47.0570 C   0  0  0  0  0  0  0  0  0  0  0  0
   45.6070   32.1640   48.3760 C   0  0  0  0  0  0  0  0  0  0  0  0
   45.4030   31.3250   49.4500 C   0  0  0  0  0  0  0  0  0  0  0  0
   45.3280   29.9740   49.1920 C   0  0  0  0  0  0  0  0  0  0  0  0
   45.4590   29.5180   47.8780 C   0  0  0  0  0  0  0  0  0  0  0  0
   45.6530   30.3910   46.8940 N   0  0  0  0  0  0  0  0  0  0  0  0
   45.6740   33.2370   48.5300 H   0  0  0  0  0  0  0  0  0  0  0  0
   45.3170   31.7730   50.4100 H   0  0  0  0  0  0  0  0  0  0  0  0
   45.1670   29.3470   50.0590 H   0  0  0  0  0  0  0  0  0  0  0  0
   44.7350   36.6970   43.8020 C   0  0  0  0  0  0  0  0  0  0  0  0
   45.6240   36.4180   42.7560 C   0  0  0  0  0  0  0  0  0  0  0  0
   46.2980   35.1960   42.7740 C   0  0  0  0  0  0  0  0  0  0  0  0
   46.0730   34.3250   43.7980 N   0  0  0  0  0  0  0  0  0  0  0  0
   45.2040   34.6380   44.7900 C   0  0  0  0  0  0  0  0  0  0  0  0
   44.5300   35.8290   44.7960 N   0  0  0  0  0  0  0  0  0  0  0  0
   45.9520   32.6640   45.9780 C   0  0  0  0  0  0  0  0  0  0  0  0
   46.9550   32.5180   45.2330 O   0  0  0  0  0  0  0  0  0  0  0  0
   44.9910   33.7150   45.8410 N   0  0  0  0  0  0  0  0  0  0  0  0
   44.2490   37.6680   43.7200 H   0  0  0  0  0  0  0  0  0  0  0  0
   45.8620   37.0380   41.9130 H   0  0  0  0  0  0  0  0  0  0  0  0
   47.0140   34.8880   41.9990 H   0  0  0  0  0  0  0  0  0  0  0  0
   44.1880   33.7690   46.4950 H   0  0  0  0  0  0  0  0  0  0  0  0
   45.3930   28.0970   47.6340 C   0  0  0  0  0  3  0  0  0  0  0  0
   44.2550   27.4500   47.7390 C   0  0  0  0  0  3  0  0  0  0  0  0
   43.9920   26.0020   47.5470 C   0  0  0  0  0  0  0  0  0  0  0  0
   43.0260   25.6790   47.9780 H   0  0  0  0  0  0  0  0  0  0  0  0
   44.0830   25.7470   46.4620 H   0  0  0  0  0  0  0  0  0  0  0  0
   43.6300   26.0820   50.6020 Br  0  0  0  0  0  0  0  0  0  0  0  0
   45.0460   25.2460   49.6190 C   0  0  0  0  0  0  0  0  0  0  0  0
   45.1010   25.2750   48.2230 C   0  0  0  0  0  0  0  0  0  0  0  0
   46.1760   24.6320   47.5930 C   0  0  0  0  0  0  0  0  0  0  0  0
   46.1630   24.6880   46.5110 H   0  0  0  0  0  0  0  0  0  0  0  0
   47.1250   24.0040   48.3740 C   0  0  0  0  0  0  0  0  0  0  0  0
   47.9530   23.5110   47.8380 H   0  0  0  0  0  0  0  0  0  0  0  0
   47.0510   23.9880   49.7500 C   0  0  0  0  0  3  0  0  0  0  0  0
   45.9930   24.6190   50.3990 C   0  0  0  0  0  3  0  0  0  0  0  0
  1  2  1  0  0  0  0
  2  7  1  0  0  0  0
  2  3  2  0  0  0  0
  3  8  1  0  0  0  0
  4  3  1  0  0  0  0
  4  9  1  0  0  0  0
  5  4  2  0  0  0  0
  6  1  2  0  0  0  0
  6  5  1  0  0  0  0
 10 15  1  0  0  0  0
 11 12  1  0  0  0  0
 11 10  2  0  0  0  0
 12 13  2  0  0  0  0
 13 14  1  0  0  0  0
 14 15  2  0  0  0  0
 14 18  1  0  0  0  0
 16  1  1  0  0  0  0
 17 16  2  0  0  0  0
 18 16  1  0  0  0  0
 18 22  1  0  0  0  0
 19 10  1  0  0  0  0
 20 11  1  0  0  0  0
 21 12  1  0  0  0  0
 23 24  2  0  0  0  0
 23  5  1  0  0  0  0
 25 24  1  0  0  0  0
 25 26  1  0  0  0  0
 25 30  1  0  0  0  0
 27 25  1  0  0  0  0
 29 36  1  0  0  0  0
 29 28  1  0  0  0  0
 30 29  2  0  0  0  0
 31 30  1  0  0  0  0
 31 33  2  0  0  0  0
 32 31  1  0  0  0  0
 33 35  1  0  0  0  0
 34 33  1  0  0  0  0
 35 36  2  0  0  0  0
M  END
>  <minimizedAffinity>
-5.82057476

>  <minimizedRMSD>
1.24971139

$$$$
