
 OpenBabel03242517363D

 23 24  0  0  0  0  0  0  0  0999 V2000
   35.3500   29.0630   40.5870 C   0  0  0  0  0  0  0  0  0  0  0  0
   34.4570   29.4560   41.1110 H   0  0  0  0  0  0  0  0  0  0  0  0
   34.9510   28.3490   39.8350 H   0  0  0  0  0  0  0  0  0  0  0  0
   35.7550   28.8280   37.4870 Br  0  0  0  0  0  0  0  0  0  0  0  0
   36.3930   30.2280   38.6000 C   0  0  0  0  0  0  0  0  0  0  0  0
   36.1120   30.1550   39.9450 C   0  0  0  0  0  0  0  0  0  0  0  0
   36.5790   31.1790   40.7560 C   0  0  0  0  0  0  0  0  0  0  0  0
   36.3650   31.1410   41.8330 H   0  0  0  0  0  0  0  0  0  0  0  0
   37.2990   32.2590   40.3180 C   0  0  0  0  0  0  0  0  0  0  0  0
   37.6510   33.0380   40.9580 H   0  0  0  0  0  0  0  0  0  0  0  0
   37.5390   32.2560   38.9500 C   0  0  0  0  0  3  0  0  0  0  0  0
   37.1190   31.2840   38.0500 C   0  0  0  0  0  3  0  0  0  0  0  0
   37.1510   27.4650   41.0960 C   0  0  0  0  0  3  0  0  0  0  0  0
   36.2150   28.2740   41.5320 C   0  0  0  0  0  3  0  0  0  0  0  0
   38.7830   27.1770   42.9580 C   0  0  0  0  0  0  0  0  0  0  0  0
   38.0410   26.6560   41.9020 C   0  0  0  0  0  0  0  0  0  0  0  0
   38.1710   25.3070   41.6230 C   0  0  0  0  0  0  0  0  0  0  0  0
   39.0100   24.5350   42.3790 N   0  0  0  0  0  0  0  0  0  0  0  0
   39.7180   25.0810   43.4040 C   0  0  0  0  0  0  0  0  0  0  0  0
   39.5970   26.3940   43.6800 N   0  0  0  0  0  0  0  0  0  0  0  0
   38.6200   28.2450   43.1050 H   0  0  0  0  0  0  0  0  0  0  0  0
   37.6130   24.8890   40.8210 H   0  0  0  0  0  0  0  0  0  0  0  0
   40.3960   24.5490   44.0460 H   0  0  0  0  0  0  0  0  0  0  0  0
  1  2  1  0  0  0  0
  1 14  1  0  0  0  0
  3  1  1  0  0  0  0
  4  5  1  0  0  0  0
  5  6  1  0  0  0  0
  6  1  1  0  0  0  0
  6  7  2  0  0  0  0
  7  8  1  0  0  0  0
  9  7  1  0  0  0  0
  9 10  1  0  0  0  0
 11  9  2  0  0  0  0
 12  5  2  0  0  0  0
 12 11  1  0  0  0  0
 13 14  2  0  0  0  0
 13 16  1  0  0  0  0
 15 21  1  0  0  0  0
 15 20  1  0  0  0  0
 16 15  2  0  0  0  0
 17 16  1  0  0  0  0
 17 18  2  0  0  0  0
 18 19  1  0  0  0  0
 19 20  2  0  0  0  0
 19 23  1  0  0  0  0
 22 17  1  0  0  0  0
M  END
>  <minimizedAffinity>
-4.80759048

$$$$

 OpenBabel03242517363D

 23 24  0  0  0  0  0  0  0  0999 V2000
   38.0100   27.9390   43.6800 C   0  0  0  0  0  0  0  0  0  0  0  0
   37.3190   27.8550   44.5410 H   0  0  0  0  0  0  0  0  0  0  0  0
   38.9760   28.2700   44.1160 H   0  0  0  0  0  0  0  0  0  0  0  0
   40.8750   26.6670   43.6790 Br  0  0  0  0  0  0  0  0  0  0  0  0
   39.3210   25.9330   42.8740 C   0  0  0  0  0  0  0  0  0  0  0  0
   38.1470   26.6430   42.9820 C   0  0  0  0  0  0  0  0  0  0  0  0
   37.0130   26.1030   42.3930 C   0  0  0  0  0  0  0  0  0  0  0  0
   36.0640   26.6540   42.4670 H   0  0  0  0  0  0  0  0  0  0  0  0
   36.9720   24.9160   41.7110 C   0  0  0  0  0  0  0  0  0  0  0  0
   36.0890   24.5170   41.2630 H   0  0  0  0  0  0  0  0  0  0  0  0
   38.1970   24.2630   41.6480 C   0  0  0  0  0  3  0  0  0  0  0  0
   39.3900   24.7130   42.2010 C   0  0  0  0  0  3  0  0  0  0  0  0
   38.4100   29.7280   42.0380 C   0  0  0  0  0  3  0  0  0  0  0  0
   37.5550   29.0210   42.7380 C   0  0  0  0  0  3  0  0  0  0  0  0
   37.0920   30.6810   40.1470 C   0  0  0  0  0  0  0  0  0  0  0  0
   38.0960   30.7910   41.1060 C   0  0  0  0  0  0  0  0  0  0  0  0
   38.8130   31.9730   41.1590 C   0  0  0  0  0  0  0  0  0  0  0  0
   38.5240   32.9830   40.2820 N   0  0  0  0  0  0  0  0  0  0  0  0
   37.5360   32.8370   39.3590 C   0  0  0  0  0  0  0  0  0  0  0  0
   36.8340   31.6890   39.3030 N   0  0  0  0  0  0  0  0  0  0  0  0
   36.5810   29.7190   40.1780 H   0  0  0  0  0  0  0  0  0  0  0  0
   39.5830   32.0790   41.8840 H   0  0  0  0  0  0  0  0  0  0  0  0
   37.2440   33.5770   38.6360 H   0  0  0  0  0  0  0  0  0  0  0  0
  1  3  1  0  0  0  0
  1  2  1  0  0  0  0
  5  6  1  0  0  0  0
  5  4  1  0  0  0  0
  6  1  1  0  0  0  0
  7  8  1  0  0  0  0
  7  6  2  0  0  0  0
  9  7  1  0  0  0  0
 10  9  1  0  0  0  0
 11  9  2  0  0  0  0
 11 12  1  0  0  0  0
 12  5  2  0  0  0  0
 13 14  2  0  0  0  0
 14  1  1  0  0  0  0
 15 21  1  0  0  0  0
 15 16  1  0  0  0  0
 16 17  2  0  0  0  0
 16 13  1  0  0  0  0
 17 22  1  0  0  0  0
 18 17  1  0  0  0  0
 19 18  2  0  0  0  0
 20 19  1  0  0  0  0
 20 15  2  0  0  0  0
 23 19  1  0  0  0  0
M  END
>  <minimizedAffinity>
-4.77240515

$$$$

 OpenBabel03242517363D

 23 24  0  0  0  0  0  0  0  0999 V2000
   35.7730   28.9930   41.0750 C   0  0  0  0  0  0  0  0  0  0  0  0
   35.4330   28.6550   40.0770 H   0  0  0  0  0  0  0  0  0  0  0  0
   34.8440   29.0940   41.6760 H   0  0  0  0  0  0  0  0  0  0  0  0
   36.5660   26.5500   39.2780 Br  0  0  0  0  0  0  0  0  0  0  0  0
   37.1650   26.8830   41.0480 C   0  0  0  0  0  0  0  0  0  0  0  0
   36.7040   28.0160   41.6780 C   0  0  0  0  0  0  0  0  0  0  0  0
   37.1440   28.2560   42.9710 C   0  0  0  0  0  0  0  0  0  0  0  0
   36.7880   29.1560   43.4930 H   0  0  0  0  0  0  0  0  0  0  0  0
   38.0050   27.4500   43.6700 C   0  0  0  0  0  0  0  0  0  0  0  0
   38.3320   27.6520   44.6660 H   0  0  0  0  0  0  0  0  0  0  0  0
   38.4220   26.3300   42.9620 C   0  0  0  0  0  3  0  0  0  0  0  0
   38.0440   25.9950   41.6680 C   0  0  0  0  0  3  0  0  0  0  0  0
   37.5970   30.5380   40.4920 C   0  0  0  0  0  3  0  0  0  0  0  0
   36.3960   30.3600   40.9880 C   0  0  0  0  0  3  0  0  0  0  0  0
   37.6510   32.9970   40.0810 C   0  0  0  0  0  0  0  0  0  0  0  0
   38.3000   31.7970   40.3580 C   0  0  0  0  0  0  0  0  0  0  0  0
   39.6750   31.8240   40.5090 C   0  0  0  0  0  0  0  0  0  0  0  0
   40.3480   33.0090   40.3830 N   0  0  0  0  0  0  0  0  0  0  0  0
   39.6780   34.1610   40.1120 C   0  0  0  0  0  0  0  0  0  0  0  0
   38.3400   34.1400   39.9640 N   0  0  0  0  0  0  0  0  0  0  0  0
   36.5720   32.8810   39.9780 H   0  0  0  0  0  0  0  0  0  0  0  0
   40.1910   30.9200   40.7210 H   0  0  0  0  0  0  0  0  0  0  0  0
   40.1270   35.1310   39.9990 H   0  0  0  0  0  0  0  0  0  0  0  0
  1  3  1  0  0  0  0
  1  6  1  0  0  0  0
  2  1  1  0  0  0  0
  4  5  1  0  0  0  0
  5 12  2  0  0  0  0
  5  6  1  0  0  0  0
  6  7  2  0  0  0  0
  7  8  1  0  0  0  0
  7  9  1  0  0  0  0
  9 10  1  0  0  0  0
 11  9  2  0  0  0  0
 12 11  1  0  0  0  0
 13 14  2  0  0  0  0
 14  1  1  0  0  0  0
 15 16  1  0  0  0  0
 16 13  1  0  0  0  0
 16 17  2  0  0  0  0
 17 22  1  0  0  0  0
 18 17  1  0  0  0  0
 19 18  2  0  0  0  0
 20 15  2  0  0  0  0
 20 19  1  0  0  0  0
 21 15  1  0  0  0  0
 23 19  1  0  0  0  0
M  END
>  <minimizedAffinity>
-4.62923193

$$$$

 OpenBabel03242517363D

 23 24  0  0  0  0  0  0  0  0999 V2000
   37.3270   27.5360   43.1940 C   0  0  0  0  0  0  0  0  0  0  0  0
   36.4290   27.1810   42.6510 H   0  0  0  0  0  0  0  0  0  0  0  0
   37.0430   27.5080   44.2680 H   0  0  0  0  0  0  0  0  0  0  0  0
   36.9600   25.4140   40.9170 Br  0  0  0  0  0  0  0  0  0  0  0  0
   38.5230   25.6820   41.9610 C   0  0  0  0  0  0  0  0  0  0  0  0
   38.4920   26.6690   42.9190 C   0  0  0  0  0  0  0  0  0  0  0  0
   39.6350   26.8630   43.6800 C   0  0  0  0  0  0  0  0  0  0  0  0
   39.6320   27.6470   44.4510 H   0  0  0  0  0  0  0  0  0  0  0  0
   40.7950   26.1450   43.5500 C   0  0  0  0  0  0  0  0  0  0  0  0
   41.6660   26.3080   44.1460 H   0  0  0  0  0  0  0  0  0  0  0  0
   40.7430   25.1700   42.5620 C   0  0  0  0  0  3  0  0  0  0  0  0
   39.6530   24.8930   41.7460 C   0  0  0  0  0  3  0  0  0  0  0  0
   37.6520   29.3900   41.6080 C   0  0  0  0  0  3  0  0  0  0  0  0
   37.6210   28.9720   42.8510 C   0  0  0  0  0  3  0  0  0  0  0  0
   37.0110   31.4800   40.4080 C   0  0  0  0  0  0  0  0  0  0  0  0
   37.9230   30.7380   41.1550 C   0  0  0  0  0  0  0  0  0  0  0  0
   39.1350   31.3280   41.4680 C   0  0  0  0  0  0  0  0  0  0  0  0
   39.4000   32.6010   41.0430 N   0  0  0  0  0  0  0  0  0  0  0  0
   38.4830   33.2940   40.3150 C   0  0  0  0  0  0  0  0  0  0  0  0
   37.3020   32.7250   40.0070 N   0  0  0  0  0  0  0  0  0  0  0  0
   36.0870   30.9380   40.2080 H   0  0  0  0  0  0  0  0  0  0  0  0
   39.8450   30.7790   42.0380 H   0  0  0  0  0  0  0  0  0  0  0  0
   38.6100   34.2940   39.9440 H   0  0  0  0  0  0  0  0  0  0  0  0
  1  3  1  0  0  0  0
  2  1  1  0  0  0  0
  4  5  1  0  0  0  0
  5  6  1  0  0  0  0
  6  1  1  0  0  0  0
  6  7  2  0  0  0  0
  7  8  1  0  0  0  0
  9  7  1  0  0  0  0
  9 10  1  0  0  0  0
 11  9  2  0  0  0  0
 12  5  2  0  0  0  0
 12 11  1  0  0  0  0
 13 14  2  0  0  0  0
 14  1  1  0  0  0  0
 15 16  1  0  0  0  0
 16 17  2  0  0  0  0
 16 13  1  0  0  0  0
 17 22  1  0  0  0  0
 18 17  1  0  0  0  0
 19 18  2  0  0  0  0
 20 19  1  0  0  0  0
 20 15  2  0  0  0  0
 21 15  1  0  0  0  0
 23 19  1  0  0  0  0
M  END
>  <minimizedAffinity>
-4.60538244

$$$$

 OpenBabel03242517363D

 23 24  0  0  0  0  0  0  0  0999 V2000
   35.4070   29.5170   40.1970 C   0  0  0  0  0  0  0  0  0  0  0  0
   35.0560   29.4120   39.1520 H   0  0  0  0  0  0  0  0  0  0  0  0
   34.4930   29.7410   40.7860 H   0  0  0  0  0  0  0  0  0  0  0  0
   35.9320   27.3280   38.0160 Br  0  0  0  0  0  0  0  0  0  0  0  0
   36.3740   27.2060   39.8580 C   0  0  0  0  0  0  0  0  0  0  0  0
   36.0630   28.2770   40.6640 C   0  0  0  0  0  0  0  0  0  0  0  0
   36.3870   28.1850   42.0090 C   0  0  0  0  0  0  0  0  0  0  0  0
   36.1470   29.0300   42.6710 H   0  0  0  0  0  0  0  0  0  0  0  0
   36.9940   27.1070   42.5980 C   0  0  0  0  0  0  0  0  0  0  0  0
   37.2350   27.0550   43.6370 H   0  0  0  0  0  0  0  0  0  0  0  0
   37.2740   26.0710   41.7170 C   0  0  0  0  0  3  0  0  0  0  0  0
   36.9920   26.0590   40.3560 C   0  0  0  0  0  3  0  0  0  0  0  0
   37.3490   30.8750   39.5320 C   0  0  0  0  0  3  0  0  0  0  0  0
   36.3230   30.7040   40.3310 C   0  0  0  0  0  3  0  0  0  0  0  0
   39.4860   31.9550   38.8370 C   0  0  0  0  0  0  0  0  0  0  0  0
   38.2980   31.9680   39.5630 C   0  0  0  0  0  0  0  0  0  0  0  0
   38.0270   33.0790   40.3410 C   0  0  0  0  0  0  0  0  0  0  0  0
   38.9180   34.1170   40.3770 N   0  0  0  0  0  0  0  0  0  0  0  0
   40.0690   34.0670   39.6530 C   0  0  0  0  0  0  0  0  0  0  0  0
   40.3380   32.9880   38.8940 N   0  0  0  0  0  0  0  0  0  0  0  0
   39.6160   31.0440   38.2540 H   0  0  0  0  0  0  0  0  0  0  0  0
   37.1260   33.1100   40.9030 H   0  0  0  0  0  0  0  0  0  0  0  0
   40.8200   34.8360   39.6230 H   0  0  0  0  0  0  0  0  0  0  0  0
  1 14  1  0  0  0  0
  1  6  1  0  0  0  0
  1  3  1  0  0  0  0
  2  1  1  0  0  0  0
  4  5  1  0  0  0  0
  5 12  2  0  0  0  0
  5  6  1  0  0  0  0
  6  7  2  0  0  0  0
  7  9  1  0  0  0  0
  7  8  1  0  0  0  0
  9 10  1  0  0  0  0
 11  9  2  0  0  0  0
 12 11  1  0  0  0  0
 13 16  1  0  0  0  0
 13 14  2  0  0  0  0
 15 20  2  0  0  0  0
 15 16  1  0  0  0  0
 16 17  2  0  0  0  0
 17 18  1  0  0  0  0
 17 22  1  0  0  0  0
 19 18  2  0  0  0  0
 20 19  1  0  0  0  0
 21 15  1  0  0  0  0
 23 19  1  0  0  0  0
M  END
>  <minimizedAffinity>
-4.5965724

$$$$

 OpenBabel03242517363D

 23 24  0  0  0  0  0  0  0  0999 V2000
   36.5840   30.4420   41.4410 C   0  0  0  0  0  0  0  0  0  0  0  0
   35.8360   30.8910   42.1230 H   0  0  0  0  0  0  0  0  0  0  0  0
   37.3060   31.2580   41.2280 H   0  0  0  0  0  0  0  0  0  0  0  0
   39.5720   30.8560   42.2920 Br  0  0  0  0  0  0  0  0  0  0  0  0
   38.5530   29.2700   42.5100 C   0  0  0  0  0  0  0  0  0  0  0  0
   37.2480   29.2820   42.0720 C   0  0  0  0  0  0  0  0  0  0  0  0
   36.5060   28.1210   42.2330 C   0  0  0  0  0  0  0  0  0  0  0  0
   35.4620   28.1090   41.8890 H   0  0  0  0  0  0  0  0  0  0  0  0
   36.9730   26.9620   42.7960 C   0  0  0  0  0  0  0  0  0  0  0  0
   36.3860   26.0780   42.9110 H   0  0  0  0  0  0  0  0  0  0  0  0
   38.2970   27.0350   43.2120 C   0  0  0  0  0  3  0  0  0  0  0  0
   39.1280   28.1430   43.0980 C   0  0  0  0  0  3  0  0  0  0  0  0
   36.6260   30.0630   39.0100 C   0  0  0  0  0  3  0  0  0  0  0  0
   35.9470   30.0610   40.1320 C   0  0  0  0  0  3  0  0  0  0  0  0
   34.8850   29.1240   37.4920 C   0  0  0  0  0  0  0  0  0  0  0  0
   36.1270   29.7210   37.6950 C   0  0  0  0  0  0  0  0  0  0  0  0
   36.9030   29.9920   36.5820 C   0  0  0  0  0  0  0  0  0  0  0  0
   36.4390   29.6720   35.3360 N   0  0  0  0  0  0  0  0  0  0  0  0
   35.2200   29.0890   35.1790 C   0  0  0  0  0  0  0  0  0  0  0  0
   34.4600   28.8220   36.2570 N   0  0  0  0  0  0  0  0  0  0  0  0
   34.3430   28.9470   38.4210 H   0  0  0  0  0  0  0  0  0  0  0  0
   37.8540   30.4480   36.7140 H   0  0  0  0  0  0  0  0  0  0  0  0
   34.7810   28.8070   34.2390 H   0  0  0  0  0  0  0  0  0  0  0  0
  1  6  1  0  0  0  0
  1  2  1  0  0  0  0
  3  1  1  0  0  0  0
  4  5  1  0  0  0  0
  5 12  1  0  0  0  0
  6  7  1  0  0  0  0
  6  5  2  0  0  0  0
  7  9  2  0  0  0  0
  8  7  1  0  0  0  0
  9 10  1  0  0  0  0
  9 11  1  0  0  0  0
 12 11  2  0  0  0  0
 13 14  2  0  0  0  0
 14  1  1  0  0  0  0
 15 16  1  0  0  0  0
 15 21  1  0  0  0  0
 16 13  1  0  0  0  0
 17 22  1  0  0  0  0
 17 16  2  0  0  0  0
 18 17  1  0  0  0  0
 19 18  2  0  0  0  0
 19 20  1  0  0  0  0
 20 15  2  0  0  0  0
 23 19  1  0  0  0  0
M  END
>  <minimizedAffinity>
-4.58533001

$$$$

 OpenBabel03242517363D

 23 24  0  0  0  0  0  0  0  0999 V2000
   31.9720   28.7140   36.5030 C   0  0  0  0  0  0  0  0  0  0  0  0
   31.2980   28.2810   37.2680 H   0  0  0  0  0  0  0  0  0  0  0  0
   31.9820   27.9720   35.6770 H   0  0  0  0  0  0  0  0  0  0  0  0
   30.0550   30.2320   38.4640 Br  0  0  0  0  0  0  0  0  0  0  0  0
   30.6330   30.8420   36.7620 C   0  0  0  0  0  0  0  0  0  0  0  0
   31.4810   30.0300   36.0440 C   0  0  0  0  0  0  0  0  0  0  0  0
   31.9020   30.4790   34.8010 C   0  0  0  0  0  0  0  0  0  0  0  0
   32.5790   29.8450   34.2110 H   0  0  0  0  0  0  0  0  0  0  0  0
   31.5380   31.6720   34.2330 C   0  0  0  0  0  0  0  0  0  0  0  0
   31.8720   32.0000   33.2730 H   0  0  0  0  0  0  0  0  0  0  0  0
   30.6830   32.4300   35.0220 C   0  0  0  0  0  3  0  0  0  0  0  0
   30.2010   32.0760   36.2770 C   0  0  0  0  0  3  0  0  0  0  0  0
   33.6240   29.0180   38.3020 C   0  0  0  0  0  3  0  0  0  0  0  0
   33.3790   28.8090   37.0310 C   0  0  0  0  0  3  0  0  0  0  0  0
   35.1170   29.0070   40.2990 C   0  0  0  0  0  0  0  0  0  0  0  0
   34.9260   29.1300   38.9260 C   0  0  0  0  0  0  0  0  0  0  0  0
   36.0370   29.3690   38.1370 C   0  0  0  0  0  0  0  0  0  0  0  0
   37.2710   29.4770   38.7180 N   0  0  0  0  0  0  0  0  0  0  0  0
   37.4170   29.3510   40.0640 C   0  0  0  0  0  0  0  0  0  0  0  0
   36.3390   29.1180   40.8370 N   0  0  0  0  0  0  0  0  0  0  0  0
   34.1890   28.8200   40.8410 H   0  0  0  0  0  0  0  0  0  0  0  0
   35.9140   29.4660   37.0860 H   0  0  0  0  0  0  0  0  0  0  0  0
   38.3460   29.4210   40.6000 H   0  0  0  0  0  0  0  0  0  0  0  0
  1 14  1  0  0  0  0
  1  2  1  0  0  0  0
  3  1  1  0  0  0  0
  5  4  1  0  0  0  0
  6  1  1  0  0  0  0
  6  5  2  0  0  0  0
  7  6  1  0  0  0  0
  8  7  1  0  0  0  0
  9  7  2  0  0  0  0
  9 11  1  0  0  0  0
 10  9  1  0  0  0  0
 11 12  2  0  0  0  0
 12  5  1  0  0  0  0
 13 16  1  0  0  0  0
 14 13  2  0  0  0  0
 15 20  1  0  0  0  0
 15 21  1  0  0  0  0
 16 15  2  0  0  0  0
 17 18  2  0  0  0  0
 17 16  1  0  0  0  0
 18 19  1  0  0  0  0
 19 23  1  0  0  0  0
 19 20  2  0  0  0  0
 22 17  1  0  0  0  0
M  END
>  <minimizedAffinity>
-4.5098877

$$$$

 OpenBabel03242517363D

 23 24  0  0  0  0  0  0  0  0999 V2000
   35.3840   29.4210   40.4240 C   0  0  0  0  0  0  0  0  0  0  0  0
   35.1420   30.3320   41.0070 H   0  0  0  0  0  0  0  0  0  0  0  0
   34.4180   28.8860   40.3120 H   0  0  0  0  0  0  0  0  0  0  0  0
   37.2960   31.9050   40.3770 Br  0  0  0  0  0  0  0  0  0  0  0  0
   36.8230   30.8240   38.8900 C   0  0  0  0  0  0  0  0  0  0  0  0
   35.9660   29.7700   39.1110 C   0  0  0  0  0  0  0  0  0  0  0  0
   35.6230   28.9820   38.0230 C   0  0  0  0  0  0  0  0  0  0  0  0
   34.9390   28.1350   38.1770 H   0  0  0  0  0  0  0  0  0  0  0  0
   36.0740   29.1720   36.7430 C   0  0  0  0  0  0  0  0  0  0  0  0
   35.7980   28.5540   35.9170 H   0  0  0  0  0  0  0  0  0  0  0  0
   36.9340   30.2550   36.6070 C   0  0  0  0  0  3  0  0  0  0  0  0
   37.3410   31.1060   37.6270 C   0  0  0  0  0  3  0  0  0  0  0  0
   36.5520   27.2920   40.8210 C   0  0  0  0  0  3  0  0  0  0  0  0
   36.3020   28.5200   41.2070 C   0  0  0  0  0  3  0  0  0  0  0  0
   38.5360   26.7090   42.2160 C   0  0  0  0  0  0  0  0  0  0  0  0
   37.4100   26.3340   41.4860 C   0  0  0  0  0  0  0  0  0  0  0  0
   37.1130   24.9850   41.4040 C   0  0  0  0  0  0  0  0  0  0  0  0
   37.9180   24.0730   42.0290 N   0  0  0  0  0  0  0  0  0  0  0  0
   39.0100   24.4790   42.7320 C   0  0  0  0  0  0  0  0  0  0  0  0
   39.3050   25.7900   42.8160 N   0  0  0  0  0  0  0  0  0  0  0  0
   38.6930   27.7880   42.2270 H   0  0  0  0  0  0  0  0  0  0  0  0
   36.2590   24.6770   40.8530 H   0  0  0  0  0  0  0  0  0  0  0  0
   39.6930   23.8320   43.2520 H   0  0  0  0  0  0  0  0  0  0  0  0
  1  2  1  0  0  0  0
  1 14  1  0  0  0  0
  3  1  1  0  0  0  0
  5  6  1  0  0  0  0
  5  4  1  0  0  0  0
  6  1  1  0  0  0  0
  7  8  1  0  0  0  0
  7  6  2  0  0  0  0
  9  7  1  0  0  0  0
 10  9  1  0  0  0  0
 11  9  2  0  0  0  0
 11 12  1  0  0  0  0
 12  5  2  0  0  0  0
 13 14  2  0  0  0  0
 13 16  1  0  0  0  0
 15 21  1  0  0  0  0
 15 20  1  0  0  0  0
 16 15  2  0  0  0  0
 17 16  1  0  0  0  0
 17 18  2  0  0  0  0
 18 19  1  0  0  0  0
 19 20  2  0  0  0  0
 19 23  1  0  0  0  0
 22 17  1  0  0  0  0
M  END
>  <minimizedAffinity>
-4.50704193

$$$$

 OpenBabel03242517363D

 23 24  0  0  0  0  0  0  0  0999 V2000
   36.6070   27.2980   42.4080 C   0  0  0  0  0  0  0  0  0  0  0  0
   35.8010   26.6710   41.9800 H   0  0  0  0  0  0  0  0  0  0  0  0
   36.1940   27.6880   43.3620 H   0  0  0  0  0  0  0  0  0  0  0  0
   36.6570   24.4390   41.1250 Br  0  0  0  0  0  0  0  0  0  0  0  0
   38.0420   25.2330   42.1510 C   0  0  0  0  0  0  0  0  0  0  0  0
   37.8340   26.5050   42.6320 C   0  0  0  0  0  0  0  0  0  0  0  0
   38.8480   27.0820   43.3820 C   0  0  0  0  0  0  0  0  0  0  0  0
   38.7030   28.0990   43.7750 H   0  0  0  0  0  0  0  0  0  0  0  0
   40.0430   26.4820   43.6800 C   0  0  0  0  0  0  0  0  0  0  0  0
   40.8120   26.9430   44.2600 H   0  0  0  0  0  0  0  0  0  0  0  0
   40.1730   25.2010   43.1570 C   0  0  0  0  0  3  0  0  0  0  0  0
   39.2220   24.5310   42.3960 C   0  0  0  0  0  3  0  0  0  0  0  0
   36.9780   28.3670   40.2220 C   0  0  0  0  0  3  0  0  0  0  0  0
   36.8780   28.4860   41.5240 C   0  0  0  0  0  3  0  0  0  0  0  0
   37.9620   30.5720   39.5990 C   0  0  0  0  0  0  0  0  0  0  0  0
   37.2370   29.4280   39.2720 C   0  0  0  0  0  0  0  0  0  0  0  0
   36.7520   29.3170   37.9810 C   0  0  0  0  0  0  0  0  0  0  0  0
   36.9910   30.3160   37.0770 N   0  0  0  0  0  0  0  0  0  0  0  0
   37.7040   31.4180   37.4350 C   0  0  0  0  0  0  0  0  0  0  0  0
   38.1790   31.5320   38.6900 N   0  0  0  0  0  0  0  0  0  0  0  0
   38.3040   30.5740   40.6340 H   0  0  0  0  0  0  0  0  0  0  0  0
   36.1970   28.4530   37.7100 H   0  0  0  0  0  0  0  0  0  0  0  0
   37.9380   32.2450   36.7900 H   0  0  0  0  0  0  0  0  0  0  0  0
  1  6  1  0  0  0  0
  1  3  1  0  0  0  0
  2  1  1  0  0  0  0
  4  5  1  0  0  0  0
  5 12  2  0  0  0  0
  5  6  1  0  0  0  0
  6  7  2  0  0  0  0
  7  9  1  0  0  0  0
  7  8  1  0  0  0  0
  9 10  1  0  0  0  0
 11  9  2  0  0  0  0
 12 11  1  0  0  0  0
 13 14  2  0  0  0  0
 14  1  1  0  0  0  0
 15 21  1  0  0  0  0
 16 15  1  0  0  0  0
 16 13  1  0  0  0  0
 17 16  2  0  0  0  0
 18 19  2  0  0  0  0
 18 17  1  0  0  0  0
 19 20  1  0  0  0  0
 20 15  2  0  0  0  0
 22 17  1  0  0  0  0
 23 19  1  0  0  0  0
M  END
>  <minimizedAffinity>
-4.42646837

$$$$
