
     RDKit          3D

 39 42  0  0  0  0  0  0  0  0999 V2000
   46.7376   32.5746   45.0630 C   0  0  2  0  0  0  0  0  0  0  0  0
   47.3450   31.4582   44.9293 N   0  0  0  0  0  0  0  0  0  0  0  0
   47.3473   30.2227   44.7032 C   0  0  0  0  0  0  0  0  0  0  0  0
   47.8185   30.0989   45.9795 N   0  0  0  0  0  0  0  0  0  0  0  0
   47.0960   30.8621   46.8621 C   0  0  0  0  0  0  0  0  0  0  0  0
   46.9768   30.3251   48.1772 C   0  0  0  0  0  0  0  0  0  0  0  0
   46.2352   31.0224   49.0477 C   0  0  0  0  0  0  0  0  0  0  0  0
   45.6023   32.1864   48.7608 C   0  0  0  0  0  0  0  0  0  0  0  0
   45.8083   32.5904   47.4444 C   0  0  0  0  0  0  0  0  0  0  0  0
   46.5214   32.0535   46.3722 C   0  0  0  0  0  0  0  0  0  0  0  0
   44.3156   35.3729   45.2432 C   0  0  0  0  0  0  0  0  0  0  0  0
   44.1426   35.5182   43.8592 C   0  0  0  0  0  0  0  0  0  0  0  0
   44.8449   34.6512   43.0400 C   0  0  0  0  0  0  0  0  0  0  0  0
   45.6387   33.7383   43.6520 N   0  0  0  0  0  0  0  0  0  0  0  0
   45.7957   33.6123   44.9928 C   0  0  0  0  0  0  0  0  0  0  0  0
   45.1161   34.4439   45.6528 N   0  0  0  0  0  0  0  0  0  0  0  0
   44.6421   34.8138   41.2926 S   0  0  0  0  0  0  0  0  0  0  0  0
   47.6310   33.3277   45.3514 H   0  0  0  0  0  0  0  0  0  0  0  0
   48.1338   31.7239   44.1949 H   0  0  0  0  0  0  0  0  0  0  0  0
   48.0163   29.6428   43.9908 H   0  0  0  0  0  0  0  0  0  0  0  0
   46.3738   29.7082   44.5514 H   0  0  0  0  0  0  0  0  0  0  0  0
   48.6497   29.4744   46.2428 H   0  0  0  0  0  0  0  0  0  0  0  0
   47.4487   29.4138   48.4829 H   0  0  0  0  0  0  0  0  0  0  0  0
   46.1497   30.5968   50.0652 H   0  0  0  0  0  0  0  0  0  0  0  0
   45.0369   32.6737   49.4992 H   0  0  0  0  0  0  0  0  0  0  0  0
   45.2519   33.5298   47.3747 H   0  0  0  0  0  0  0  0  0  0  0  0
   43.8110   36.0006   45.9669 H   0  0  0  0  0  0  0  0  0  0  0  0
   43.4854   36.2803   43.4830 H   0  0  0  0  0  0  0  0  0  0  0  0
   42.4027   34.2142   39.1218 Br  0  0  0  0  0  0  0  0  0  0  0  0
   42.5096   35.8966   40.0402 C   0  0  0  0  0  0  0  0  0  0  0  0
   43.4986   36.1544   40.9954 C   0  0  0  0  0  0  0  0  0  0  0  0
   43.5036   37.4059   41.6161 C   0  0  0  0  0  0  0  0  0  0  0  0
   44.2816   37.5291   42.3283 H   0  0  0  0  0  0  0  0  0  0  0  0
   42.5417   38.3115   41.2568 C   0  0  0  0  0  0  0  0  0  0  0  0
   42.5840   39.2770   41.7679 H   0  0  0  0  0  0  0  0  0  0  0  0
   41.5677   38.0552   40.3148 C   0  0  0  0  0  0  0  0  0  0  0  0
   41.5639   36.8252   39.7058 C   0  0  0  0  0  0  0  0  0  0  0  0
   40.8197   38.7924   40.0516 H   0  0  0  0  0  0  0  0  0  0  0  0
   40.7907   36.6452   38.9696 H   0  0  0  0  0  0  0  0  0  0  0  0
  1 15  1  0
  1 10  1  0
  2  1  1  0
  3  2  1  0
  3  4  1  0
  4  5  1  0
  5  6  2  0
  6  7  1  0
  8  7  2  0
  9  8  1  0
 10  5  1  0
 10  9  2  0
 11 16  2  0
 12 11  1  0
 13 14  1  0
 13 12  2  0
 14 15  2  0
 15 16  1  0
 17 13  1  0
  1 18  1  1
  2 19  1  0
  3 20  1  0
  3 21  1  0
  4 22  1  0
  6 23  1  0
  7 24  1  0
  8 25  1  0
  9 26  1  0
 11 27  1  0
 12 28  1  0
 29 30  1  0
 30 31  2  0
 31 32  1  0
 32 33  1  0
 32 34  2  0
 34 35  1  0
 34 36  1  0
 36 37  2  0
 37 30  1  0
 36 38  1  0
 37 39  1  0
 17 31  1  0
M  ISO  8  18  13  19   5  20  13  21  13  23  14  24  14  25  14  26  14
M  ISO  4  27  14  28  14  33  15  35  16
M  END
>  <DihAtoms>  (1) 
12,16,30,29

>  <DihDeg>  (1) 
-89.9975095880618

$$$$
