REMARK  Name = 
REMARK  2 active torsions:
REMARK  status: ('A' for Active; 'I' for Inactive)
REMARK    1  A    between atoms: C_1  and  C_7
REMARK    2  A    between atoms: C_7  and  C_15
REMARK                            x       y       z     vdW  Elec       q    Type
REMARK                         _______ _______ _______ _____ _____    ______ ____
ROOT
ATOM      1  C   UNL     1      44.900  36.135  43.092  0.00  0.00    +0.000 C 
ATOM      2  H   UNL     1      44.657  37.009  43.734  0.00  0.00    +0.000 HD
ATOM      3  H   UNL     1      45.727  36.442  42.423  0.00  0.00    +0.000 HD
ENDROOT
BRANCH   1   4
ATOM      4  C   UNL     1      45.435  35.075  43.992  0.00  0.00    +0.000 A 
ATOM      5  C   UNL     1      46.497  34.293  43.517  0.00  0.00    +0.000 A 
ATOM      6  C   UNL     1      47.021  33.287  44.332  0.00  0.00    +0.000 A 
ATOM      7  N   UNL     1      46.460  33.126  45.553  0.00  0.00    +0.000 NA
ATOM      8  C   UNL     1      45.426  33.895  46.003  0.00  0.00    +0.000 A 
ATOM      9  N   UNL     1      44.927  34.861  45.215  0.00  0.00    +0.000 NA
ATOM     10  H   UNL     1      46.908  34.477  42.512  0.00  0.00    +0.000 HD
ATOM     11  H   UNL     1      47.846  32.664  43.993  0.00  0.00    +0.000 HD
ATOM     12  H   UNL     1      44.987  33.749  46.991  0.00  0.00    +0.000 HD
ENDBRANCH   1   4
BRANCH   1  15
ATOM     13 BR   UNL     1      45.721  35.514  40.099  0.00  0.00    +0.000 Br
ATOM     14  C   UNL     1      44.014  35.353  40.957  0.00  0.00    +0.000 A 
ATOM     15  C   UNL     1      43.762  35.651  42.280  0.00  0.00    +0.000 A 
ATOM     16  C   UNL     1      42.460  35.481  42.763  0.00  0.00    +0.000 A 
ATOM     17  H   UNL     1      42.307  35.730  43.821  0.00  0.00    +0.000 HD
ATOM     18  C   UNL     1      41.424  35.030  41.977  0.00  0.00    +0.000 A 
ATOM     19  H   UNL     1      40.416  34.909  42.390  0.00  0.00    +0.000 HD
ATOM     20  C   UNL     1      41.725  34.742  40.647  0.00  0.00    +0.000 A 
ATOM     21  C   UNL     1      42.995  34.895  40.128  0.00  0.00    +0.000 A 
ENDBRANCH   1  15
TORSDOF 2
