REMARK  Name = 
REMARK  4 active torsions:
REMARK  status: ('A' for Active; 'I' for Inactive)
REMARK    1  A    between atoms: C_1  and  O_11
REMARK    2  A    between atoms: C_2  and  C_7
REMARK    3  A    between atoms: C_5  and  C_19
REMARK    4  A    between atoms: O_11  and  C_12
REMARK                            x       y       z     vdW  Elec       q    Type
REMARK                         _______ _______ _______ _____ _____    ______ ____
ROOT
ATOM      1  C   UNL     1      47.090  34.383  43.097  0.00  0.00    +0.000 A 
ATOM      2  C   UNL     1      45.776  34.596  43.498  0.00  0.00    +0.000 A 
ATOM      3  C   UNL     1      45.255  33.766  44.493  0.00  0.00    +0.000 A 
ATOM      4  N   UNL     1      46.058  32.798  45.014  0.00  0.00    +0.000 NA
ATOM      5  C   UNL     1      47.329  32.630  44.592  0.00  0.00    +0.000 A 
ATOM      6  N   UNL     1      47.854  33.407  43.644  0.00  0.00    +0.000 NA
ATOM      7  H   UNL     1      44.237  33.912  44.821  0.00  0.00    +0.000 HD
ENDROOT
BRANCH   5  10
ATOM      8 BR   UNL     1      46.075  31.478  47.243  0.00  0.00    +0.000 Br
ATOM      9  C   UNL     1      47.673  30.928  46.407  0.00  0.00    +0.000 A 
ATOM     10  C   UNL     1      48.066  31.553  45.243  0.00  0.00    +0.000 A 
ATOM     11  C   UNL     1      49.243  31.096  44.690  0.00  0.00    +0.000 A 
ATOM     12  H   UNL     1      49.651  31.519  43.767  0.00  0.00    +0.000 HD
ATOM     13  C   UNL     1      49.997  30.067  45.264  0.00  0.00    +0.000 A 
ATOM     14  H   UNL     1      50.921  29.750  44.779  0.00  0.00    +0.000 HD
ATOM     15  C   UNL     1      49.568  29.469  46.429  0.00  0.00    +0.000 A 
ATOM     16  C   UNL     1      48.407  29.915  46.979  0.00  0.00    +0.000 A 
ENDBRANCH   5  10
BRANCH   2  17
ATOM     17  C   UNL     1      44.981  35.679  42.868  0.00  0.00    +0.000 C 
ATOM     18  F   UNL     1      45.620  36.905  43.068  0.00  0.00    +0.000 F 
ATOM     19  F   UNL     1      44.959  35.467  41.512  0.00  0.00    +0.000 F 
ATOM     20  F   UNL     1      43.717  35.811  43.352  0.00  0.00    +0.000 F 
ENDBRANCH   2  17
BRANCH   1  21
ATOM     21  O   UNL     1      47.583  35.198  42.128  0.00  0.00    +0.000 OA
BRANCH  21  22
ATOM     22  C   UNL     1      48.872  35.181  41.570  0.00  0.00    +0.000 C 
ATOM     23  F   UNL     1      49.765  35.499  42.612  0.00  0.00    +0.000 F 
ATOM     24  F   UNL     1      49.119  33.973  41.006  0.00  0.00    +0.000 F 
ATOM     25  F   UNL     1      49.010  36.226  40.677  0.00  0.00    +0.000 F 
ENDBRANCH  21  22
ENDBRANCH   1  21
TORSDOF 4
