
 OpenBabel03252500573D

 38 40  0  0  0  0  0  0  0  0999 V2000
   43.5200   35.4190   40.1690 O   0  0  0  0  0  0  0  0  0  0  0  0
   43.2330   34.8910   41.5720 P   0  0  1  0  0  0  0  0  0  0  0  0
   43.4300   33.2150   41.5590 O   0  0  0  0  0  0  0  0  0  0  0  0
   43.3500   32.8310   40.6550 H   0  0  0  0  0  0  0  0  0  0  0  0
   44.3550   35.5370   42.6540 O   0  0  0  0  0  0  0  0  0  0  0  0
   46.3850   34.4200   43.0420 C   0  0  0  0  0  0  0  0  0  0  0  0
   45.1670   34.8290   43.5360 C   0  0  0  0  0  0  0  0  0  0  0  0
   44.8420   34.5080   44.8570 C   0  0  0  0  0  0  0  0  0  0  0  0
   45.7450   33.8140   45.5790 N   0  0  0  0  0  0  0  0  0  0  0  0
   46.9300   33.4250   45.0780 C   0  0  0  0  0  0  0  0  0  0  0  0
   47.2450   33.7270   43.8190 N   0  0  0  0  0  0  0  0  0  0  0  0
   43.8830   34.8470   45.1970 H   0  0  0  0  0  0  0  0  0  0  0  0
   47.5660   32.8740   45.7550 H   0  0  0  0  0  0  0  0  0  0  0  0
   46.7870   34.7220   41.6740 C   0  0  0  0  0  0  0  0  0  0  0  0
   46.0850   35.4630   41.2410 H   0  0  0  0  0  0  0  0  0  0  0  0
   46.7640   33.8470   41.0140 H   0  0  0  0  0  0  0  0  0  0  0  0
   48.1750   35.2840   41.6790 C   0  0  0  0  0  0  0  0  0  0  0  0
   48.1710   36.3220   41.2970 H   0  0  0  0  0  0  0  0  0  0  0  0
   48.5960   35.3150   42.7060 H   0  0  0  0  0  0  0  0  0  0  0  0
   48.8960   34.6430   41.1060 H   0  0  0  0  0  0  0  0  0  0  0  0
   41.6240   35.2280   41.9940 O   0  0  0  0  0  0  0  0  0  0  0  0
   40.6150   34.6050   41.2660 C   0  0  0  0  0  0  0  0  0  0  0  0
   39.9440   35.3820   40.3330 C   0  0  0  0  0  0  0  0  0  0  0  0
   38.9120   34.8510   39.5480 C   0  0  0  0  0  0  0  0  0  0  0  0
   38.5810   33.5400   39.7270 N   0  0  0  0  0  0  0  0  0  0  0  0
   39.2320   32.8080   40.6230 C   0  0  0  0  0  0  0  0  0  0  0  0
   40.2200   33.3280   41.3710 N   0  0  0  0  0  0  0  0  0  0  0  0
   40.2110   36.4320   40.1920 H   0  0  0  0  0  0  0  0  0  0  0  0
   38.4230   35.4820   38.8430 H   0  0  0  0  0  0  0  0  0  0  0  0
   41.3900   30.9360   39.6100 Br  0  0  0  0  0  0  0  0  0  0  0  0
   39.7720   30.3850   40.4470 C   0  0  0  0  0  0  0  0  0  0  0  0
   38.9070   31.4040   40.8430 C   0  0  0  0  0  0  0  0  0  0  0  0
   37.7220   30.9890   41.4550 C   0  0  0  0  0  0  0  0  0  0  0  0
   37.0090   31.7480   41.7850 H   0  0  0  0  0  0  0  0  0  0  0  0
   37.4750   29.6610   41.6320 C   0  0  0  0  0  0  0  0  0  0  0  0
   36.5720   29.2860   42.1020 H   0  0  0  0  0  0  0  0  0  0  0  0
   38.3430   28.6830   41.2330 C   0  0  0  0  0  3  0  0  0  0  0  0
   39.5410   29.0370   40.6160 C   0  0  0  0  0  3  0  0  0  0  0  0
  2  1  2  6  0  0  0
  2 21  1  0  0  0  0
  2  5  1  0  0  0  0
  3  2  1  0  0  0  0
  4  3  1  0  0  0  0
  5  7  1  0  0  0  0
  6  7  2  0  0  0  0
  6 11  1  0  0  0  0
  7  8  1  0  0  0  0
  8 12  1  0  0  0  0
  8  9  2  0  0  0  0
 10  9  1  0  0  0  0
 10 13  1  0  0  0  0
 11 10  2  0  0  0  0
 14 17  1  0  0  0  0
 14  6  1  0  0  0  0
 15 14  1  0  0  0  0
 16 14  1  0  0  0  0
 17 19  1  0  0  0  0
 18 17  1  0  0  0  0
 20 17  1  0  0  0  0
 22 27  1  0  0  0  0
 22 21  1  0  0  0  0
 23 22  2  0  0  0  0
 24 25  2  0  0  0  0
 24 23  1  0  0  0  0
 25 26  1  0  0  0  0
 26 32  1  0  0  0  0
 26 27  2  0  0  0  0
 28 23  1  0  0  0  0
 29 24  1  0  0  0  0
 30 31  1  0  0  0  0
 31 38  2  0  0  0  0
 31 32  1  0  0  0  0
 32 33  2  0  0  0  0
 33 35  1  0  0  0  0
 33 34  1  0  0  0  0
 35 36  1  0  0  0  0
 37 35  2  0  0  0  0
 38 37  1  0  0  0  0
M  END
>  <minimizedAffinity>
-5.55591774

>  <minimizedRMSD>
1.00659668

$$$$
