
 OpenBabel03242523063D

 45 49  0  0  1  0  0  0  0  0999 V2000
   45.1090   35.9320   43.5790 C   0  0  0  0  0  0  0  0  0  0  0  0
   45.9210   34.8410   43.2960 C   0  0  0  0  0  0  0  0  0  0  0  0
   46.0800   33.8870   44.2660 C   0  0  0  0  0  0  0  0  0  0  0  0
   45.4390   34.0480   45.4650 N   0  0  0  0  0  0  0  0  0  0  0  0
   44.6590   35.1170   45.7120 C   0  0  0  0  0  0  0  0  0  0  0  0
   44.5000   36.0380   44.7830 N   0  0  0  0  0  0  0  0  0  0  0  0
   44.9560   36.7120   42.8370 H   0  0  0  0  0  0  0  0  0  0  0  0
   44.1230   35.3150   46.6290 H   0  0  0  0  0  0  0  0  0  0  0  0
   46.5440   34.7930   42.0490 N   0  0  0  0  0  0  0  0  0  0  0  0
   47.8640   35.2460   41.8280 C   0  0  0  0  0  0  0  0  0  0  0  0
   48.4100   34.9590   40.4510 C   0  0  0  0  0  0  0  0  0  0  0  0
   48.0620   33.7100   39.8970 N   0  0  0  0  0  0  0  0  0  0  0  0
   46.7550   33.2680   40.1240 C   0  0  0  0  0  0  0  0  0  0  0  0
   45.9260   34.2980   40.8660 C   0  0  0  0  0  0  0  0  0  0  0  0
   47.8280   36.3710   41.9060 H   0  0  0  0  0  0  0  0  0  0  0  0
   48.6070   34.9570   42.6030 H   0  0  0  0  0  0  0  0  0  0  0  0
   49.5190   35.0130   40.5150 H   0  0  0  0  0  0  0  0  0  0  0  0
   48.1140   35.7720   39.7280 H   0  0  0  0  0  0  0  0  0  0  0  0
   48.7710   32.9900   40.1980 H   0  0  0  0  0  0  0  0  0  0  0  0
   46.6610   32.2570   40.5700 H   0  0  0  0  0  0  0  0  0  0  0  0
   46.2290   33.1610   39.1260 H   0  0  0  0  0  0  0  0  0  0  0  0
   44.9090   33.8820   41.0170 H   0  0  0  0  0  0  0  0  0  0  0  0
   45.7940   35.1770   40.1810 H   0  0  0  0  0  0  0  0  0  0  0  0
   46.7460   32.0300   45.5520 C   0  0  0  0  0  0  0  0  0  0  0  0
   46.8020   32.6790   44.2990 C   0  0  0  0  0  0  0  0  0  0  0  0
   47.6100   31.9730   43.4280 C   0  0  0  0  0  0  0  0  0  0  0  0
   48.2770   30.8190   43.6950 C   0  0  0  0  0  0  0  0  0  0  0  0
   48.1730   30.2560   44.9460 C   0  0  0  0  0  0  0  0  0  0  0  0
   47.4000   30.8580   45.8910 C   0  0  0  0  0  0  0  0  0  0  0  0
   48.9640   29.1290   44.8960 O   0  0  0  0  0  0  0  0  0  0  0  0
   49.5100   28.9670   43.6120 C   0  0  1  0  0  0  0  0  0  0  0  0
   49.0850   30.0890   42.8370 O   0  0  0  0  0  0  0  0  0  0  0  0
   46.1880   32.3060   46.4700 H   0  0  0  0  0  0  0  0  0  0  0  0
   47.6580   32.4530   42.5010 H   0  0  0  0  0  0  0  0  0  0  0  0
   47.3810   30.3490   46.8150 H   0  0  0  0  0  0  0  0  0  0  0  0
   49.0110   28.0610   43.1600 H   0  0  0  0  0  0  0  0  0  0  0  0
   50.7750   27.2880   41.2620 Br  0  0  0  0  0  0  0  0  0  0  0  0
   51.7380   28.1870   42.6340 C   0  0  0  0  0  0  0  0  0  0  0  0
   50.9750   28.8660   43.5650 C   0  0  0  0  0  0  0  0  0  0  0  0
   51.6470   29.5330   44.5820 C   0  0  0  0  0  0  0  0  0  0  0  0
   51.1840   30.1100   45.3870 H   0  0  0  0  0  0  0  0  0  0  0  0
   53.0390   29.5230   44.6640 C   0  0  0  0  0  0  0  0  0  0  0  0
   53.5830   30.0380   45.4490 H   0  0  0  0  0  0  0  0  0  0  0  0
   53.8130   28.8400   43.7260 C   0  0  0  0  0  3  0  0  0  0  0  0
   53.1210   28.1770   42.7160 C   0  0  0  0  0  3  0  0  0  0  0  0
  1  6  1  0  0  0  0
  2  1  2  0  0  0  0
  2  3  1  0  0  0  0
  3 25  1  0  0  0  0
  3  4  2  0  0  0  0
  4  5  1  0  0  0  0
  5  8  1  0  0  0  0
  6  5  2  0  0  0  0
  7  1  1  0  0  0  0
  9  2  1  0  0  0  0
 10 15  1  0  0  0  0
 10  9  1  0  0  0  0
 10 16  1  0  0  0  0
 11 17  1  0  0  0  0
 11 10  1  0  0  0  0
 12 13  1  0  0  0  0
 12 19  1  0  0  0  0
 12 11  1  0  0  0  0
 13 20  1  0  0  0  0
 13 14  1  0  0  0  0
 14 22  1  0  0  0  0
 14  9  1  0  0  0  0
 18 11  1  0  0  0  0
 21 13  1  0  0  0  0
 23 14  1  0  0  0  0
 24 29  1  0  0  0  0
 24 33  1  0  0  0  0
 25 24  2  0  0  0  0
 26 27  2  0  0  0  0
 26 25  1  0  0  0  0
 27 28  1  0  0  0  0
 28 29  2  0  0  0  0
 29 35  1  0  0  0  0
 30 28  1  0  0  0  0
 31 36  1  6  0  0  0
 31 30  1  0  0  0  0
 32 31  1  0  0  0  0
 32 27  1  0  0  0  0
 34 26  1  0  0  0  0
 37 38  1  0  0  0  0
 38 45  2  0  0  0  0
 38 39  1  0  0  0  0
 39 31  1  0  0  0  0
 39 40  2  0  0  0  0
 40 42  1  0  0  0  0
 40 41  1  0  0  0  0
 42 43  1  0  0  0  0
 44 42  2  0  0  0  0
 45 44  1  0  0  0  0
M  END
>  <minimizedAffinity>
-5.288764

>  <minimizedRMSD>
0.475630879

$$$$
