
 OpenBabel03252504113D

 25 26  0  0  0  0  0  0  0  0999 V2000
   45.8790   34.1950   43.6950 C   0  0  0  0  0  0  0  0  0  0  0  0
   45.7590   33.2890   42.6470 C   0  0  0  0  0  0  0  0  0  0  0  0
   45.7620   31.9280   42.9590 C   0  0  0  0  0  0  0  0  0  0  0  0
   45.8820   31.5630   44.2650 N   0  0  0  0  0  0  0  0  0  0  0  0
   45.9950   32.4810   45.2480 C   0  0  0  0  0  0  0  0  0  0  0  0
   45.9950   33.7870   44.9820 N   0  0  0  0  0  0  0  0  0  0  0  0
   45.6700   31.2050   42.1620 H   0  0  0  0  0  0  0  0  0  0  0  0
   47.9820   30.0630   45.6150 Br  0  0  0  0  0  0  0  0  0  0  0  0
   46.9310   30.8860   46.9470 C   0  0  0  0  0  0  0  0  0  0  0  0
   46.1150   31.9390   46.5970 C   0  0  0  0  0  0  0  0  0  0  0  0
   45.3790   32.4900   47.6250 C   0  0  0  0  0  0  0  0  0  0  0  0
   44.6990   33.3300   47.4620 H   0  0  0  0  0  0  0  0  0  0  0  0
   45.4490   32.0180   48.9390 C   0  0  0  0  0  0  0  0  0  0  0  0
   44.8420   32.4950   49.7090 H   0  0  0  0  0  0  0  0  0  0  0  0
   46.2790   30.9610   49.2470 C   0  0  0  0  0  3  0  0  0  0  0  0
   47.0070   30.4140   48.2370 C   0  0  0  0  0  3  0  0  0  0  0  0
   45.6330   33.7870   41.2550 C   0  0  0  0  0  0  0  0  0  0  0  0
   44.3930   34.4080   41.0910 F   0  0  0  0  0  0  0  0  0  0  0  0
   46.5850   34.7560   41.0550 F   0  0  0  0  0  0  0  0  0  0  0  0
   45.7210   32.8250   40.2980 F   0  0  0  0  0  0  0  0  0  0  0  0
   45.8740   35.5160   43.3770 O   0  0  0  0  0  0  0  0  0  0  0  0
   44.8160   36.4280   43.5250 C   0  0  0  0  0  0  0  0  0  0  0  0
   43.6450   35.6620   43.6900 F   0  0  0  0  0  0  0  0  0  0  0  0
   45.0610   37.2590   44.5680 F   0  0  0  0  0  0  0  0  0  0  0  0
   44.6110   37.1060   42.3390 F   0  0  0  0  0  0  0  0  0  0  0  0
  1  6  1  0  0  0  0
  2  3  1  0  0  0  0
  2  1  2  0  0  0  0
  3  4  2  0  0  0  0
  4  5  1  0  0  0  0
  5 10  1  0  0  0  0
  6  5  2  0  0  0  0
  7  3  1  0  0  0  0
  8  9  1  0  0  0  0
  9 16  1  0  0  0  0
 10  9  2  0  0  0  0
 10 11  1  0  0  0  0
 11 13  2  0  0  0  0
 12 11  1  0  0  0  0
 13 15  1  0  0  0  0
 13 14  1  0  0  0  0
 16 15  2  0  0  0  0
 17  2  1  0  0  0  0
 18 17  1  0  0  0  0
 19 17  1  0  0  0  0
 20 17  1  0  0  0  0
 21 22  1  0  0  0  0
 21  1  1  0  0  0  0
 22 23  1  0  0  0  0
 22 24  1  0  0  0  0
 25 22  1  0  0  0  0
M  END
>  <minimizedAffinity>
-5.09730148

>  <minimizedRMSD>
3.64685798

$$$$
