
 OpenBabel03242516253D

 43 47  0  0  0  0  0  0  0  0999 V2000
   49.7730   30.1910   49.4140 C   0  0  0  0  0  0  0  0  0  0  0  0
   50.0150   31.3570   50.0700 N   0  0  0  0  0  0  0  0  0  0  0  0
   50.6720   31.4220   51.2320 C   0  0  0  0  0  0  0  0  0  0  0  0
   51.1080   30.2660   51.7650 N   0  0  0  0  0  0  0  0  0  0  0  0
   50.9140   29.0620   51.1850 C   0  0  0  0  0  0  0  0  0  0  0  0
   51.3660   27.8790   51.7340 C   0  0  0  0  0  0  0  0  0  0  0  0
   51.1430   26.6800   51.0970 C   0  0  0  0  0  0  0  0  0  0  0  0
   50.4570   26.6130   49.8790 C   0  0  0  0  0  0  0  0  0  0  0  0
   50.0250   27.8230   49.3720 C   0  0  0  0  0  0  0  0  0  0  0  0
   50.2370   29.0260   49.9920 C   0  0  0  0  0  0  0  0  0  0  0  0
   50.8350   32.3820   51.7100 H   0  0  0  0  0  0  0  0  0  0  0  0
   51.8900   27.9880   52.6740 H   0  0  0  0  0  0  0  0  0  0  0  0
   51.5520   25.8450   51.6420 H   0  0  0  0  0  0  0  0  0  0  0  0
   50.3420   25.6230   49.4740 H   0  0  0  0  0  0  0  0  0  0  0  0
   52.1350   27.8160   47.2120 Br  0  0  0  0  0  0  0  0  0  0  0  0
   50.2440   27.5630   47.0520 C   0  0  0  0  0  0  0  0  0  0  0  0
   49.3320   27.5870   48.1150 C   0  0  0  0  0  0  0  0  0  0  0  0
   47.9790   27.4060   47.8130 C   0  0  0  0  0  0  0  0  0  0  0  0
   47.3980   27.4490   48.7310 H   0  0  0  0  0  0  0  0  0  0  0  0
   47.5860   27.2140   46.5200 C   0  0  0  0  0  0  0  0  0  0  0  0
   46.5310   27.0880   46.4120 H   0  0  0  0  0  0  0  0  0  0  0  0
   48.4820   27.1920   45.4850 C   0  0  0  0  0  0  0  0  0  0  0  0
   49.8250   27.3660   45.7390 C   0  0  0  0  0  0  0  0  0  0  0  0
   48.8960   30.0780   47.8780 S   0  0  0  0  0  0  0  0  0  0  0  0
   46.0310   32.7280   46.9060 C   0  0  0  0  0  0  0  0  0  0  0  0
   47.1620   31.9370   46.9040 C   0  0  0  0  0  0  0  0  0  0  0  0
   47.4280   31.0620   47.9330 C   0  0  0  0  0  0  0  0  0  0  0  0
   46.5440   30.9650   48.9990 C   0  0  0  0  0  0  0  0  0  0  0  0
   45.4220   31.7260   49.0340 C   0  0  0  0  0  0  0  0  0  0  0  0
   45.1890   32.5970   47.9810 C   0  0  0  0  0  0  0  0  0  0  0  0
   47.8400   32.0260   46.0640 H   0  0  0  0  0  0  0  0  0  0  0  0
   46.6880   30.3140   49.8260 H   0  0  0  0  0  0  0  0  0  0  0  0
   44.6720   31.7320   49.8090 H   0  0  0  0  0  0  0  0  0  0  0  0
   44.3030   33.2270   47.9660 H   0  0  0  0  0  0  0  0  0  0  0  0
   44.5530   35.5140   45.0600 C   0  0  0  0  0  0  0  0  0  0  0  0
   45.1970   35.4520   43.8010 C   0  0  0  0  0  0  0  0  0  0  0  0
   46.1410   34.4490   43.5870 C   0  0  0  0  0  0  0  0  0  0  0  0
   46.4100   33.5690   44.5920 N   0  0  0  0  0  0  0  0  0  0  0  0
   45.7710   33.6560   45.7950 C   0  0  0  0  0  0  0  0  0  0  0  0
   44.8510   34.6260   46.0170 N   0  0  0  0  0  0  0  0  0  0  0  0
   43.8140   36.2730   45.2760 H   0  0  0  0  0  0  0  0  0  0  0  0
   44.9560   36.1670   43.0320 H   0  0  0  0  0  0  0  0  0  0  0  0
   46.6630   34.3540   42.6440 H   0  0  0  0  0  0  0  0  0  0  0  0
  1 10  2  0  0  0  0
  1  2  1  0  0  0  0
  2  3  2  0  0  0  0
  3 11  1  0  0  0  0
  3  4  1  0  0  0  0
  5  6  1  0  0  0  0
  5  4  2  0  0  0  0
  6 12  1  0  0  0  0
  7 13  1  0  0  0  0
  7  6  2  0  0  0  0
  8  7  1  0  0  0  0
  9  8  2  0  0  0  0
  9 10  1  0  0  0  0
 10  5  1  0  0  0  0
 14  8  1  0  0  0  0
 16 15  1  0  0  0  0
 16 17  1  0  0  0  0
 17  9  1  0  0  0  0
 18 17  2  0  0  0  0
 18 19  1  0  0  0  0
 20 18  1  0  0  0  0
 21 20  1  0  0  0  0
 22 23  1  0  0  0  0
 22 20  2  0  0  0  0
 23 16  2  0  0  0  0
 24 27  1  0  0  0  0
 24  1  1  0  0  0  0
 25 30  1  0  0  0  0
 26 25  2  0  0  0  0
 26 27  1  0  0  0  0
 27 28  2  0  0  0  0
 28 29  1  0  0  0  0
 28 32  1  0  0  0  0
 29 33  1  0  0  0  0
 30 29  2  0  0  0  0
 31 26  1  0  0  0  0
 34 30  1  0  0  0  0
 35 41  1  0  0  0  0
 35 40  1  0  0  0  0
 36 35  2  0  0  0  0
 37 36  1  0  0  0  0
 37 38  2  0  0  0  0
 38 39  1  0  0  0  0
 39 40  2  0  0  0  0
 39 25  1  0  0  0  0
 42 36  1  0  0  0  0
 43 37  1  0  0  0  0
M  END
>  <minimizedAffinity>
-6.59234619

>  <minimizedRMSD>
0.95904088

$$$$
