
 OpenBabel03252504113D

 25 26  0  0  0  0  0  0  0  0999 V2000
   46.8390   34.1720   43.0450 C   0  0  0  0  0  0  0  0  0  0  0  0
   45.6050   33.8050   42.5190 C   0  0  0  0  0  0  0  0  0  0  0  0
   44.8870   32.8030   43.1750 C   0  0  0  0  0  0  0  0  0  0  0  0
   45.4320   32.2420   44.2900 N   0  0  0  0  0  0  0  0  0  0  0  0
   46.6340   32.6320   44.7630 C   0  0  0  0  0  0  0  0  0  0  0  0
   47.3420   33.5860   44.1580 N   0  0  0  0  0  0  0  0  0  0  0  0
   43.9270   32.5020   42.7850 H   0  0  0  0  0  0  0  0  0  0  0  0
   47.9130   29.7830   44.3400 Br  0  0  0  0  0  0  0  0  0  0  0  0
   47.6680   30.6900   45.9750 C   0  0  0  0  0  0  0  0  0  0  0  0
   47.0860   31.9400   45.9650 C   0  0  0  0  0  0  0  0  0  0  0  0
   46.9410   32.5400   47.1970 C   0  0  0  0  0  0  0  0  0  0  0  0
   46.4920   33.5310   47.3070 H   0  0  0  0  0  0  0  0  0  0  0  0
   47.3540   31.9310   48.3860 C   0  0  0  0  0  0  0  0  0  0  0  0
   47.2130   32.4570   49.3300 H   0  0  0  0  0  0  0  0  0  0  0  0
   47.9330   30.6800   48.3520 C   0  0  0  0  0  3  0  0  0  0  0  0
   48.0780   30.0830   47.1390 C   0  0  0  0  0  3  0  0  0  0  0  0
   45.0980   34.4780   41.2970 C   0  0  0  0  0  0  0  0  0  0  0  0
   44.8280   35.8190   41.5800 F   0  0  0  0  0  0  0  0  0  0  0  0
   46.0940   34.4710   40.3530 F   0  0  0  0  0  0  0  0  0  0  0  0
   43.9540   33.9460   40.7890 F   0  0  0  0  0  0  0  0  0  0  0  0
   47.5260   35.1470   42.3950 O   0  0  0  0  0  0  0  0  0  0  0  0
   48.8180   35.0670   41.8510 C   0  0  0  0  0  0  0  0  0  0  0  0
   49.7140   35.3490   42.9010 F   0  0  0  0  0  0  0  0  0  0  0  0
   49.0140   33.8450   41.2970 F   0  0  0  0  0  0  0  0  0  0  0  0
   49.0140   36.0980   40.9540 F   0  0  0  0  0  0  0  0  0  0  0  0
  1  6  1  0  0  0  0
  2  1  2  0  0  0  0
  2  3  1  0  0  0  0
  3  4  2  0  0  0  0
  4  5  1  0  0  0  0
  5 10  1  0  0  0  0
  6  5  2  0  0  0  0
  7  3  1  0  0  0  0
  8  9  1  0  0  0  0
  9 16  1  0  0  0  0
 10  9  2  0  0  0  0
 10 11  1  0  0  0  0
 11 12  1  0  0  0  0
 11 13  2  0  0  0  0
 13 14  1  0  0  0  0
 15 13  1  0  0  0  0
 16 15  2  0  0  0  0
 17 18  1  0  0  0  0
 17  2  1  0  0  0  0
 19 17  1  0  0  0  0
 20 17  1  0  0  0  0
 21  1  1  0  0  0  0
 22 21  1  0  0  0  0
 22 23  1  0  0  0  0
 24 22  1  0  0  0  0
 25 22  1  0  0  0  0
M  END
>  <minimizedAffinity>
-5.43889856

>  <minimizedRMSD>
1.60715783

$$$$
