REMARK  Name = 
REMARK  8 active torsions:
REMARK  status: ('A' for Active; 'I' for Inactive)
REMARK    1  A    between atoms: C_1  and  C_7
REMARK    2  A    between atoms: C_2  and  O_9
REMARK    3  A    between atoms: C_7  and  C_8
REMARK    4  A    between atoms: O_9  and  P_11
REMARK    5  A    between atoms: P_11  and  O_12
REMARK    6  A    between atoms: P_11  and  O_13
REMARK    7  A    between atoms: O_13  and  C_14
REMARK    8  A    between atoms: C_18  and  C_32
REMARK                            x       y       z     vdW  Elec       q    Type
REMARK                         _______ _______ _______ _____ _____    ______ ____
ROOT
ATOM      1  O   UNL     1      43.688  34.866  40.138  0.00  0.00    +0.000 OA
ATOM      2  P   UNL     1      43.265  34.737  41.598  0.00  0.00    +0.000 P 
ENDROOT
BRANCH   2   3
ATOM      3  O   UNL     1      43.149  33.096  41.975  0.00  0.00    +0.000 OA
ATOM      4  H   UNL     1      43.028  32.531  41.176  0.00  0.00    +0.000 HD
ENDBRANCH   2   3
BRANCH   2   5
ATOM      5  O   UNL     1      44.452  35.414  42.587  0.00  0.00    +0.000 OA
BRANCH   5   7
ATOM      6  C   UNL     1      46.519  34.373  42.996  0.00  0.00    +0.000 A 
ATOM      7  C   UNL     1      45.282  34.737  43.478  0.00  0.00    +0.000 A 
ATOM      8  C   UNL     1      44.957  34.406  44.797  0.00  0.00    +0.000 A 
ATOM      9  N   UNL     1      45.878  33.747  45.528  0.00  0.00    +0.000 NA
ATOM     10  C   UNL     1      47.081  33.401  45.039  0.00  0.00    +0.000 A 
ATOM     11  N   UNL     1      47.396  33.713  43.782  0.00  0.00    +0.000 NA
ATOM     12  H   UNL     1      43.983  34.710  45.127  0.00  0.00    +0.000 HD
ATOM     13  H   UNL     1      47.731  32.875  45.722  0.00  0.00    +0.000 HD
BRANCH   6  14
ATOM     14  C   UNL     1      46.922  34.687  41.631  0.00  0.00    +0.000 C 
ATOM     15  H   UNL     1      46.189  35.390  41.186  0.00  0.00    +0.000 HD
ATOM     16  H   UNL     1      46.950  33.809  40.976  0.00  0.00    +0.000 HD
BRANCH  14  17
ATOM     17  C   UNL     1      48.280  35.317  41.649  0.00  0.00    +0.000 C 
ATOM     18  H   UNL     1      48.229  36.352  41.261  0.00  0.00    +0.000 HD
ATOM     19  H   UNL     1      48.687  35.374  42.681  0.00  0.00    +0.000 HD
ATOM     20  H   UNL     1      49.039  34.710  41.088  0.00  0.00    +0.000 HD
ENDBRANCH  14  17
ENDBRANCH   6  14
ENDBRANCH   5   7
ENDBRANCH   2   5
BRANCH   2  21
ATOM     21  O   UNL     1      41.733  35.435  41.816  0.00  0.00    +0.000 OA
BRANCH  21  22
ATOM     22  C   UNL     1      40.630  34.761  41.300  0.00  0.00    +0.000 A 
ATOM     23  C   UNL     1      39.994  35.341  40.212  0.00  0.00    +0.000 A 
ATOM     24  C   UNL     1      38.875  34.743  39.618  0.00  0.00    +0.000 A 
ATOM     25  N   UNL     1      38.423  33.567  40.142  0.00  0.00    +0.000 NA
ATOM     26  C   UNL     1      39.042  33.024  41.183  0.00  0.00    +0.000 A 
ATOM     27  N   UNL     1      40.115  33.606  41.745  0.00  0.00    +0.000 NA
ATOM     28  H   UNL     1      40.358  36.283  39.795  0.00  0.00    +0.000 HD
ATOM     29  H   UNL     1      38.416  35.221  38.785  0.00  0.00    +0.000 HD
BRANCH  26  32
ATOM     30 BR   UNL     1      41.304  31.426  42.417  0.00  0.00    +0.000 Br
ATOM     31  C   UNL     1      39.478  30.890  42.387  0.00  0.00    +0.000 A 
ATOM     32  C   UNL     1      38.589  31.768  41.770  0.00  0.00    +0.000 A 
ATOM     33  C   UNL     1      37.252  31.365  41.752  0.00  0.00    +0.000 A 
ATOM     34  H   UNL     1      36.514  32.017  41.281  0.00  0.00    +0.000 HD
ATOM     35  C   UNL     1      36.891  30.179  42.318  0.00  0.00    +0.000 A 
ATOM     36  H   UNL     1      35.867  29.820  42.332  0.00  0.00    +0.000 HD
ATOM     37  C   UNL     1      37.786  29.337  42.917  0.00  0.00    +0.000 A 
ATOM     38  C   UNL     1      39.133  29.686  42.964  0.00  0.00    +0.000 A 
ENDBRANCH  26  32
ENDBRANCH  21  22
ENDBRANCH   2  21
TORSDOF 8
