
     RDKit          3D

 39 42  0  0  0  0  0  0  0  0999 V2000
   46.4841   33.5687   41.3485 C   0  0  0  0  0  0  0  0  0  0  0  0
   46.8347   34.6241   42.1862 C   0  0  0  0  0  0  0  0  0  0  0  0
   47.8599   35.4131   41.8003 C   0  0  0  0  0  0  0  0  0  0  0  0
   48.5509   35.2015   40.6226 C   0  0  0  0  0  0  0  0  0  0  0  0
   48.1985   34.1558   39.7995 C   0  0  0  0  0  0  0  0  0  0  0  0
   47.1447   33.3112   40.1548 C   0  0  0  0  0  0  0  0  0  0  0  0
   44.4715   35.9333   44.8188 C   0  0  0  0  0  0  0  0  0  0  0  0
   45.1863   35.8105   43.6235 C   0  0  0  0  0  0  0  0  0  0  0  0
   46.0734   34.7920   43.4048 C   0  0  0  0  0  0  0  0  0  0  0  0
   46.1960   33.9159   44.4486 N   0  0  0  0  0  0  0  0  0  0  0  0
   45.5118   34.0230   45.6079 C   0  0  0  0  0  0  0  0  0  0  0  0
   44.6466   35.0393   45.7875 N   0  0  0  0  0  0  0  0  0  0  0  0
   45.4421   32.7248   41.6885 O   0  0  0  0  0  0  0  0  0  0  0  0
   46.7666   32.2628   39.3627 O   0  0  0  0  0  0  0  0  0  0  0  0
   46.5893   32.2970   38.0192 C   0  0  0  0  0  0  0  0  0  0  0  0
   45.5321   32.7663   37.2707 C   0  0  0  0  0  0  0  0  0  0  0  0
   45.5907   32.6889   35.9183 C   0  0  0  0  0  0  0  0  0  0  0  0
   46.7657   32.1162   35.3637 C   0  0  0  0  0  0  0  0  0  0  0  0
   47.7662   31.6995   36.8089 S   0  0  0  0  0  0  0  0  0  0  0  0
   48.1089   36.2296   42.4778 H   0  0  0  0  0  0  0  0  0  0  0  0
   49.3501   35.8938   40.4171 H   0  0  0  0  0  0  0  0  0  0  0  0
   48.7485   33.9970   38.8741 H   0  0  0  0  0  0  0  0  0  0  0  0
   43.7751   36.7521   44.9623 H   0  0  0  0  0  0  0  0  0  0  0  0
   45.0480   36.5380   42.8272 H   0  0  0  0  0  0  0  0  0  0  0  0
   45.7609   33.2165   46.3066 H   0  0  0  0  0  0  0  0  0  0  0  0
   44.7940   32.4141   40.9617 H   0  0  0  0  0  0  0  0  0  0  0  0
   44.6847   33.1835   37.7822 H   0  0  0  0  0  0  0  0  0  0  0  0
   44.8417   33.0153   35.2227 H   0  0  0  0  0  0  0  0  0  0  0  0
   45.2236   29.7163   34.1874 Br  0  0  0  0  0  0  0  0  0  0  0  0
   46.5181   30.8310   33.3572 C   0  0  0  0  0  0  0  0  0  0  0  0
   47.1502   31.8844   33.9801 C   0  0  0  0  0  0  0  0  0  0  0  0
   48.0786   32.7263   33.4703 C   0  0  0  0  0  0  0  0  0  0  0  0
   48.5311   33.5320   34.0203 H   0  0  0  0  0  0  0  0  0  0  0  0
   48.4496   32.5044   32.1385 C   0  0  0  0  0  0  0  0  0  0  0  0
   49.1693   33.1098   31.6479 H   0  0  0  0  0  0  0  0  0  0  0  0
   47.8554   31.4535   31.4304 C   0  0  0  0  0  0  0  0  0  0  0  0
   46.8999   30.6220   32.0261 C   0  0  0  0  0  0  0  0  0  0  0  0
   48.1431   31.2757   30.3863 H   0  0  0  0  0  0  0  0  0  0  0  0
   46.4421   29.8114   31.4782 H   0  0  0  0  0  0  0  0  0  0  0  0
  1 13  1  0
  1  2  2  0
  2  9  1  0
  3  2  1  0
  4  3  2  0
  5  6  2  0
  5  4  1  0
  6  1  1  0
  7 12  2  0
  8  7  1  0
  9  8  2  0
  9 10  1  0
 10 11  2  0
 11 12  1  0
 14  6  1  0
 15 14  1  0
 16 15  2  0
 17 16  1  0
 18 17  2  0
 18 19  1  0
 19 15  1  0
  3 20  1  0
  4 21  1  0
  5 22  1  0
  7 23  1  0
  8 24  1  0
 11 25  1  0
 13 26  1  0
 16 27  1  0
 17 28  1  0
 29 30  1  0
 30 31  2  0
 31 32  1  0
 32 33  1  0
 32 34  2  0
 34 35  1  0
 34 36  1  0
 36 37  2  0
 37 30  1  0
 36 38  1  0
 37 39  1  0
 18 31  1  0
M  ISO  8  20  14  21  14  22  14  23  14  24  14  25  14  26   3  27  14
M  ISO  3  28  14  33  15  35  16
M  END
>  <DihAtoms>  (1) 
16,17,30,29

>  <DihDeg>  (1) 
179.9989180160133

$$$$
