
 OpenBabel03242523073D

 45 49  0  0  1  0  0  0  0  0999 V2000
   45.2220   35.9660   43.4620 C   0  0  0  0  0  0  0  0  0  0  0  0
   46.0450   34.8770   43.2090 C   0  0  0  0  0  0  0  0  0  0  0  0
   46.1550   33.9130   44.1770 C   0  0  0  0  0  0  0  0  0  0  0  0
   45.4560   34.0640   45.3440 N   0  0  0  0  0  0  0  0  0  0  0  0
   44.6650   35.1310   45.5630 C   0  0  0  0  0  0  0  0  0  0  0  0
   44.5540   36.0610   44.6350 N   0  0  0  0  0  0  0  0  0  0  0  0
   45.1060   36.7540   42.7210 H   0  0  0  0  0  0  0  0  0  0  0  0
   44.0850   35.3210   46.4530 H   0  0  0  0  0  0  0  0  0  0  0  0
   46.7290   34.8400   41.9940 N   0  0  0  0  0  0  0  0  0  0  0  0
   48.0190   35.3870   41.8180 C   0  0  0  0  0  0  0  0  0  0  0  0
   48.6510   35.1030   40.4770 C   0  0  0  0  0  0  0  0  0  0  0  0
   48.4270   33.8140   39.9510 N   0  0  0  0  0  0  0  0  0  0  0  0
   47.1480   33.2780   40.1320 C   0  0  0  0  0  0  0  0  0  0  0  0
   46.2080   34.2620   40.8010 C   0  0  0  0  0  0  0  0  0  0  0  0
   47.8950   36.5080   41.8570 H   0  0  0  0  0  0  0  0  0  0  0  0
   48.7440   35.1800   42.6350 H   0  0  0  0  0  0  0  0  0  0  0  0
   49.7490   35.2450   40.5900 H   0  0  0  0  0  0  0  0  0  0  0  0
   48.3290   35.8680   39.7150 H   0  0  0  0  0  0  0  0  0  0  0  0
   49.1730   33.1600   40.3080 H   0  0  0  0  0  0  0  0  0  0  0  0
   47.1100   32.2770   40.6080 H   0  0  0  0  0  0  0  0  0  0  0  0
   46.6800   33.1000   39.1170 H   0  0  0  0  0  0  0  0  0  0  0  0
   45.2200   33.7730   40.9200 H   0  0  0  0  0  0  0  0  0  0  0  0
   46.0430   35.1080   40.0820 H   0  0  0  0  0  0  0  0  0  0  0  0
   46.7420   32.0340   45.4690 C   0  0  0  0  0  0  0  0  0  0  0  0
   46.8730   32.7030   44.2330 C   0  0  0  0  0  0  0  0  0  0  0  0
   47.7320   32.0100   43.4010 C   0  0  0  0  0  0  0  0  0  0  0  0
   48.3810   30.8510   43.6890 C   0  0  0  0  0  0  0  0  0  0  0  0
   48.2020   30.2690   44.9210 C   0  0  0  0  0  0  0  0  0  0  0  0
   47.3740   30.8570   45.8280 C   0  0  0  0  0  0  0  0  0  0  0  0
   48.9930   29.1410   44.9020 O   0  0  0  0  0  0  0  0  0  0  0  0
   49.6150   28.9990   43.6490 C   0  0  1  0  0  0  0  0  0  0  0  0
   49.2380   30.1340   42.8690 O   0  0  0  0  0  0  0  0  0  0  0  0
   46.1300   32.2970   46.3580 H   0  0  0  0  0  0  0  0  0  0  0  0
   47.8350   32.5050   42.4860 H   0  0  0  0  0  0  0  0  0  0  0  0
   47.3000   30.3320   46.7420 H   0  0  0  0  0  0  0  0  0  0  0  0
   49.1440   28.1000   43.1550 H   0  0  0  0  0  0  0  0  0  0  0  0
   51.0270   27.4620   41.2860 Br  0  0  0  0  0  0  0  0  0  0  0  0
   51.9020   28.2740   42.7690 C   0  0  0  0  0  0  0  0  0  0  0  0
   51.0800   28.8960   43.6890 C   0  0  0  0  0  0  0  0  0  0  0  0
   51.6860   29.5000   44.7840 C   0  0  0  0  0  0  0  0  0  0  0  0
   51.1740   30.0270   45.5920 H   0  0  0  0  0  0  0  0  0  0  0  0
   53.0710   29.4810   44.9520 C   0  0  0  0  0  0  0  0  0  0  0  0
   53.5630   29.9460   45.8000 H   0  0  0  0  0  0  0  0  0  0  0  0
   53.9030   28.8540   44.0250 C   0  0  0  0  0  0  0  0  0  0  0  0
   53.2760   28.2550   42.9350 C   0  0  0  0  0  0  0  0  0  0  0  0
  1  6  1  0  0  0  0
  2  1  2  0  0  0  0
  2  3  1  0  0  0  0
  3 25  1  0  0  0  0
  3  4  2  0  0  0  0
  4  5  1  0  0  0  0
  5  8  1  0  0  0  0
  6  5  2  0  0  0  0
  7  1  1  0  0  0  0
  9  2  1  0  0  0  0
 10 15  1  0  0  0  0
 10  9  1  0  0  0  0
 10 16  1  0  0  0  0
 11 17  1  0  0  0  0
 11 10  1  0  0  0  0
 12 13  1  0  0  0  0
 12 19  1  0  0  0  0
 12 11  1  0  0  0  0
 13 20  1  0  0  0  0
 13 14  1  0  0  0  0
 14 22  1  0  0  0  0
 14  9  1  0  0  0  0
 18 11  1  0  0  0  0
 21 13  1  0  0  0  0
 23 14  1  0  0  0  0
 24 29  1  0  0  0  0
 24 33  1  0  0  0  0
 25 24  2  0  0  0  0
 26 27  2  0  0  0  0
 26 25  1  0  0  0  0
 27 28  1  0  0  0  0
 28 29  2  0  0  0  0
 29 35  1  0  0  0  0
 30 28  1  0  0  0  0
 31 36  1  6  0  0  0
 31 39  1  0  0  0  0
 31 30  1  0  0  0  0
 32 31  1  0  0  0  0
 32 27  1  0  0  0  0
 34 26  1  0  0  0  0
 37 38  1  0  0  0  0
 38 45  2  0  0  0  0
 38 39  1  0  0  0  0
 39 40  2  0  0  0  0
 40 42  1  0  0  0  0
 40 41  1  0  0  0  0
 42 43  1  0  0  0  0
 44 42  2  0  0  0  0
 45 44  1  0  0  0  0
M  END
>  <minimizedAffinity>
-5.34789181

>  <minimizedRMSD>
1.0619483

$$$$
