
     RDKit          3D

 38 40  0  0  0  0  0  0  0  0999 V2000
   46.2387   34.8395   43.3056 C   0  0  0  0  0  0  0  0  0  0  0  0
   46.3832   33.8661   44.2919 C   0  0  0  0  0  0  0  0  0  0  0  0
   45.5978   33.9141   45.4297 C   0  0  0  0  0  0  0  0  0  0  0  0
   44.7103   34.9308   45.5356 N   0  0  0  0  0  0  0  0  0  0  0  0
   44.5721   35.8754   44.5827 C   0  0  0  0  0  0  0  0  0  0  0  0
   45.3372   35.8298   43.4643 N   0  0  0  0  0  0  0  0  0  0  0  0
   45.6899   32.9146   46.4105 N   0  0  0  0  0  0  0  0  0  0  0  0
   45.1923   33.1761   47.7672 C   0  0  0  0  0  0  0  0  0  0  0  0
   45.9686   32.2399   48.6906 C   0  0  0  0  0  0  0  0  0  0  0  0
   45.4636   30.8465   48.4224 C   0  0  0  0  0  0  0  0  0  0  0  0
   45.6193   30.5613   46.9601 C   0  0  0  0  0  0  0  0  0  0  0  0
   46.2376   31.6469   46.1633 C   0  0  1  0  0  0  0  0  0  0  0  0
   47.0796   34.7154   42.0699 C   0  0  0  0  0  0  0  0  0  0  0  0
   46.2932   34.5764   40.9288 F   0  0  0  0  0  0  0  0  0  0  0  0
   47.8768   35.8384   42.0048 F   0  0  0  0  0  0  0  0  0  0  0  0
   47.9098   33.6068   42.1836 F   0  0  0  0  0  0  0  0  0  0  0  0
   47.1459   33.1559   44.0906 H   0  0  0  0  0  0  0  0  0  0  0  0
   43.8519   36.6731   44.7043 H   0  0  0  0  0  0  0  0  0  0  0  0
   45.4949   34.2111   48.0143 H   0  0  0  0  0  0  0  0  0  0  0  0
   44.1221   32.9755   47.8739 H   0  0  0  0  0  0  0  0  0  0  0  0
   47.0571   32.3403   48.5158 H   0  0  0  0  0  0  0  0  0  0  0  0
   45.6605   32.5287   49.7126 H   0  0  0  0  0  0  0  0  0  0  0  0
   46.0741   30.1403   49.0268 H   0  0  0  0  0  0  0  0  0  0  0  0
   44.4144   30.7955   48.7691 H   0  0  0  0  0  0  0  0  0  0  0  0
   46.2883   29.6587   46.8338 H   0  0  0  0  0  0  0  0  0  0  0  0
   44.6382   30.2124   46.5828 H   0  0  0  0  0  0  0  0  0  0  0  0
   47.3172   31.6779   46.4328 H   0  0  0  0  0  0  0  0  0  0  0  0
   43.7597   32.5176   44.3030 Br  0  0  0  0  0  0  0  0  0  0  0  0
   45.2050   31.3855   43.8309 C   0  0  0  0  0  0  0  0  0  0  0  0
   46.1741   31.1099   44.7655 C   0  0  0  0  0  0  0  0  0  0  0  0
   47.1558   30.2153   44.2967 C   0  0  0  0  0  0  0  0  0  0  0  0
   47.9528   29.9565   44.9949 H   0  0  0  0  0  0  0  0  0  0  0  0
   47.1962   29.6473   43.0512 C   0  0  0  0  0  0  0  0  0  0  0  0
   48.0049   28.9717   42.8063 H   0  0  0  0  0  0  0  0  0  0  0  0
   46.1879   29.9805   42.1807 C   0  0  0  0  0  0  0  0  0  0  0  0
   45.1887   30.8490   42.5635 C   0  0  0  0  0  0  0  0  0  0  0  0
   46.2061   29.5398   41.1913 H   0  0  0  0  0  0  0  0  0  0  0  0
   44.4050   31.0978   41.8638 H   0  0  0  0  0  0  0  0  0  0  0  0
  1  6  2  0
  1  2  1  0
  2  3  2  0
  3  4  1  0
  3  7  1  0
  5  4  2  0
  6  5  1  0
  7  8  1  0
  8  9  1  0
 10  9  1  0
 11 10  1  0
 12  7  1  0
 12 11  1  0
 13 16  1  0
 13  1  1  0
 14 13  1  0
 15 13  1  0
  2 17  1  0
  5 18  1  0
  8 19  1  0
  8 20  1  0
  9 21  1  0
  9 22  1  0
 10 23  1  0
 10 24  1  0
 11 25  1  0
 11 26  1  0
 12 27  1  1
 28 29  1  0
 29 30  2  0
 30 31  1  0
 31 32  1  0
 31 33  2  0
 33 34  1  0
 33 35  1  0
 35 36  2  0
 36 29  1  0
 35 37  1  0
 36 38  1  0
 12 30  1  0
M  ISO  8  17  14  18  14  19  13  20  13  21  13  22  13  23  13  24  13
M  ISO  5  25  13  26  13  27  13  32  15  34  16
M  END
>  <DihAtoms>  (1) 
6,11,29,28

>  <DihDeg>  (1) 
-44.892009838792

$$$$
