
 OpenBabel03242523073D

 45 49  0  0  1  0  0  0  0  0999 V2000
   45.1480   36.0190   43.5120 C   0  0  0  0  0  0  0  0  0  0  0  0
   45.9200   34.8930   43.2560 C   0  0  0  0  0  0  0  0  0  0  0  0
   46.0220   33.9450   44.2390 C   0  0  0  0  0  0  0  0  0  0  0  0
   45.3670   34.1460   45.4240 N   0  0  0  0  0  0  0  0  0  0  0  0
   44.6270   35.2480   45.6460 C   0  0  0  0  0  0  0  0  0  0  0  0
   44.5220   36.1630   44.7030 N   0  0  0  0  0  0  0  0  0  0  0  0
   45.0400   36.7960   42.7590 H   0  0  0  0  0  0  0  0  0  0  0  0
   44.0830   35.4780   46.5500 H   0  0  0  0  0  0  0  0  0  0  0  0
   46.5620   34.8060   42.0210 N   0  0  0  0  0  0  0  0  0  0  0  0
   47.8780   35.2710   41.8020 C   0  0  0  0  0  0  0  0  0  0  0  0
   48.4490   34.9380   40.4450 C   0  0  0  0  0  0  0  0  0  0  0  0
   48.1300   33.6630   39.9370 N   0  0  0  0  0  0  0  0  0  0  0  0
   46.8270   33.2080   40.1620 C   0  0  0  0  0  0  0  0  0  0  0  0
   45.9700   34.2530   40.8500 C   0  0  0  0  0  0  0  0  0  0  0  0
   47.8240   36.3970   41.8340 H   0  0  0  0  0  0  0  0  0  0  0  0
   48.6130   35.0250   42.5980 H   0  0  0  0  0  0  0  0  0  0  0  0
   49.5570   35.0130   40.5230 H   0  0  0  0  0  0  0  0  0  0  0  0
   48.1520   35.7170   39.6860 H   0  0  0  0  0  0  0  0  0  0  0  0
   48.8460   32.9660   40.2770 H   0  0  0  0  0  0  0  0  0  0  0  0
   46.7430   32.2150   40.6470 H   0  0  0  0  0  0  0  0  0  0  0  0
   46.3180   33.0520   39.1620 H   0  0  0  0  0  0  0  0  0  0  0  0
   44.9580   33.8270   41.0030 H   0  0  0  0  0  0  0  0  0  0  0  0
   45.8350   35.1020   40.1280 H   0  0  0  0  0  0  0  0  0  0  0  0
   46.2300   31.8720   45.3370 C   0  0  0  0  0  0  0  0  0  0  0  0
   46.6940   32.7090   44.2990 C   0  0  0  0  0  0  0  0  0  0  0  0
   47.7430   32.1080   43.6290 C   0  0  0  0  0  0  0  0  0  0  0  0
   48.2860   30.8910   43.8980 C   0  0  0  0  0  0  0  0  0  0  0  0
   47.7780   30.1420   44.9330 C   0  0  0  0  0  0  0  0  0  0  0  0
   46.7370   30.6270   45.6650 C   0  0  0  0  0  0  0  0  0  0  0  0
   48.5410   28.9950   44.9520 O   0  0  0  0  0  0  0  0  0  0  0  0
   49.4780   29.0110   43.9050 C   0  0  1  0  0  0  0  0  0  0  0  0
   49.3310   30.2640   43.2360 O   0  0  0  0  0  0  0  0  0  0  0  0
   45.4020   32.0280   46.0590 H   0  0  0  0  0  0  0  0  0  0  0  0
   48.0920   32.7270   42.8630 H   0  0  0  0  0  0  0  0  0  0  0  0
   46.4170   29.9770   46.4330 H   0  0  0  0  0  0  0  0  0  0  0  0
   49.1550   28.2170   43.1700 H   0  0  0  0  0  0  0  0  0  0  0  0
   51.5260   28.0260   41.7180 Br  0  0  0  0  0  0  0  0  0  0  0  0
   51.9370   28.4180   43.5350 C   0  0  0  0  0  0  0  0  0  0  0  0
   50.8770   28.8370   44.3180 C   0  0  0  0  0  0  0  0  0  0  0  0
   51.1410   29.1330   45.6500 C   0  0  0  0  0  0  0  0  0  0  0  0
   50.4130   29.4730   46.3900 H   0  0  0  0  0  0  0  0  0  0  0  0
   52.4270   29.0130   46.1810 C   0  0  0  0  0  0  0  0  0  0  0  0
   52.6540   29.2390   47.2180 H   0  0  0  0  0  0  0  0  0  0  0  0
   53.4970   28.5920   45.3940 C   0  0  0  0  0  3  0  0  0  0  0  0
   53.2110   28.3010   44.0630 C   0  0  0  0  0  3  0  0  0  0  0  0
  1  6  1  0  0  0  0
  2  1  2  0  0  0  0
  2  3  1  0  0  0  0
  3 25  1  0  0  0  0
  3  4  2  0  0  0  0
  4  5  1  0  0  0  0
  5  8  1  0  0  0  0
  6  5  2  0  0  0  0
  7  1  1  0  0  0  0
  9  2  1  0  0  0  0
 10 15  1  0  0  0  0
 10  9  1  0  0  0  0
 10 16  1  0  0  0  0
 11 17  1  0  0  0  0
 11 10  1  0  0  0  0
 12 13  1  0  0  0  0
 12 19  1  0  0  0  0
 12 11  1  0  0  0  0
 13 20  1  0  0  0  0
 13 14  1  0  0  0  0
 14 22  1  0  0  0  0
 14  9  1  0  0  0  0
 18 11  1  0  0  0  0
 21 13  1  0  0  0  0
 23 14  1  0  0  0  0
 24 29  1  0  0  0  0
 24 33  1  0  0  0  0
 25 24  2  0  0  0  0
 26 27  2  0  0  0  0
 26 25  1  0  0  0  0
 27 28  1  0  0  0  0
 28 30  1  0  0  0  0
 28 29  2  0  0  0  0
 29 35  1  0  0  0  0
 31 36  1  6  0  0  0
 31 39  1  0  0  0  0
 31 30  1  0  0  0  0
 32 27  1  0  0  0  0
 32 31  1  0  0  0  0
 34 26  1  0  0  0  0
 37 38  1  0  0  0  0
 38 45  2  0  0  0  0
 38 39  1  0  0  0  0
 39 40  2  0  0  0  0
 40 42  1  0  0  0  0
 40 41  1  0  0  0  0
 42 43  1  0  0  0  0
 44 42  2  0  0  0  0
 45 44  1  0  0  0  0
M  END
>  <minimizedAffinity>
-5.26437473

>  <minimizedRMSD>
0.593505204

$$$$
