
 OpenBabel03252506053D

 43 47  0  0  0  0  0  0  0  0999 V2000
   44.8690   35.9840   43.1840 Cl  0  0  0  0  0  0  0  0  0  0  0  0
   45.6000   34.7440   44.1470 C   0  0  0  0  0  0  0  0  0  0  0  0
   46.7120   34.0680   43.6820 C   0  0  0  0  0  0  0  0  0  0  0  0
   47.2190   33.0970   44.5270 C   0  0  0  0  0  0  0  0  0  0  0  0
   46.6950   32.7780   45.7610 C   0  0  0  0  0  0  0  0  0  0  0  0
   45.5940   33.4680   46.1870 C   0  0  0  0  0  0  0  0  0  0  0  0
   44.9660   33.0250   47.7650 Cl  0  0  0  0  0  0  0  0  0  0  0  0
   45.0520   34.4380   45.3940 C   0  0  0  0  0  0  0  0  0  0  0  0
   48.0970   32.5710   44.1480 H   0  0  0  0  0  0  0  0  0  0  0  0
   44.1800   34.9670   45.7580 H   0  0  0  0  0  0  0  0  0  0  0  0
   47.3780   31.7160   46.5060 C   0  0  0  0  0  0  0  0  0  0  0  0
   47.5020   30.4220   46.0350 C   0  0  0  0  0  0  0  0  0  0  0  0
   48.1400   29.4080   46.7220 C   0  0  0  0  0  0  0  0  0  0  0  0
   48.6940   29.6820   47.9520 C   0  0  0  0  0  0  0  0  0  0  0  0
   49.3110   28.6820   48.6040 N   0  0  0  0  0  0  0  0  0  0  0  0
   49.8850   28.8590   49.8190 C   0  0  0  0  0  0  0  0  0  0  0  0
   49.8020   30.1350   50.3570 C   0  0  0  0  0  0  0  0  0  0  0  0
   49.1750   31.1550   49.6980 C   0  0  0  0  0  0  0  0  0  0  0  0
   48.5950   30.9510   48.4570 C   0  0  0  0  0  0  0  0  0  0  0  0
   47.9530   31.9490   47.7560 C   0  0  0  0  0  0  0  0  0  0  0  0
   47.0660   30.2040   45.0680 H   0  0  0  0  0  0  0  0  0  0  0  0
   48.1860   28.4260   46.2720 H   0  0  0  0  0  0  0  0  0  0  0  0
   50.3670   28.0270   50.2980 H   0  0  0  0  0  0  0  0  0  0  0  0
   50.2540   30.2990   51.3280 H   0  0  0  0  0  0  0  0  0  0  0  0
   49.1110   32.1490   50.1200 H   0  0  0  0  0  0  0  0  0  0  0  0
   47.8950   32.9410   48.1850 H   0  0  0  0  0  0  0  0  0  0  0  0
   48.7630   35.6290   41.1070 C   0  0  0  0  0  0  0  0  0  0  0  0
   48.4500   34.8860   39.9600 C   0  0  0  0  0  0  0  0  0  0  0  0
   47.5210   33.8330   40.0730 C   0  0  0  0  0  0  0  0  0  0  0  0
   47.0110   33.6370   41.3020 N   0  0  0  0  0  0  0  0  0  0  0  0
   47.3180   34.3540   42.3900 C   0  0  0  0  0  0  0  0  0  0  0  0
   48.1980   35.3580   42.3040 N   0  0  0  0  0  0  0  0  0  0  0  0
   49.4830   36.4350   40.9920 H   0  0  0  0  0  0  0  0  0  0  0  0
   48.9020   35.1010   39.0030 H   0  0  0  0  0  0  0  0  0  0  0  0
   49.5380   31.5700   39.6200 Br  0  0  0  0  0  0  0  0  0  0  0  0
   47.9440   31.9420   38.6110 C   0  0  0  0  0  0  0  0  0  0  0  0
   47.1320   33.0060   38.9400 C   0  0  0  0  0  0  0  0  0  0  0  0
   46.0140   33.2120   38.1790 C   0  0  0  0  0  0  0  0  0  0  0  0
   45.3540   34.0320   38.4030 H   0  0  0  0  0  0  0  0  0  0  0  0
   45.7590   32.3590   37.1360 C   0  0  0  0  0  0  0  0  0  0  0  0
   44.8610   32.5400   36.5390 H   0  0  0  0  0  0  0  0  0  0  0  0
   46.5590   31.2890   36.7890 C   0  0  0  0  0  3  0  0  0  0  0  0
   47.6980   31.0890   37.5750 C   0  0  0  0  0  3  0  0  0  0  0  0
  1  2  1  0  0  0  0
  2  8  1  0  0  0  0
  3  2  2  0  0  0  0
  3  4  1  0  0  0  0
  4  5  2  0  0  0  0
  5  6  1  0  0  0  0
  5 11  1  0  0  0  0
  6  7  1  0  0  0  0
  8 10  1  0  0  0  0
  8  6  2  0  0  0  0
  9  4  1  0  0  0  0
 11 20  1  0  0  0  0
 12 11  2  0  0  0  0
 12 13  1  0  0  0  0
 13 14  2  0  0  0  0
 14 19  1  0  0  0  0
 14 15  1  0  0  0  0
 15 16  2  0  0  0  0
 16 23  1  0  0  0  0
 16 17  1  0  0  0  0
 17 24  1  0  0  0  0
 18 25  1  0  0  0  0
 18 17  2  0  0  0  0
 19 18  1  0  0  0  0
 20 26  1  0  0  0  0
 20 19  2  0  0  0  0
 21 12  1  0  0  0  0
 22 13  1  0  0  0  0
 27 32  1  0  0  0  0
 28 29  1  0  0  0  0
 28 27  2  0  0  0  0
 29 30  2  0  0  0  0
 30 31  1  0  0  0  0
 31  3  1  0  0  0  0
 32 31  2  0  0  0  0
 33 27  1  0  0  0  0
 34 28  1  0  0  0  0
 36 37  1  0  0  0  0
 36 35  1  0  0  0  0
 37 29  1  0  0  0  0
 38 39  1  0  0  0  0
 38 37  2  0  0  0  0
 40 38  1  0  0  0  0
 41 40  1  0  0  0  0
 42 40  2  0  0  0  0
 42 43  1  0  0  0  0
 43 36  2  0  0  0  0
M  END
>  <minimizedAffinity>
-7.01586723

>  <minimizedRMSD>
1.07844555

$$$$
