
 OpenBabel03242510103D

 28 30  0  0  0  0  0  0  0  0999 V2000
   39.6270   28.0090   39.8070 Br  0  0  0  0  0  0  0  0  0  0  0  0
   38.1140   29.1460   40.1590 C   0  0  0  0  0  0  0  0  0  0  0  0
   38.1980   30.5050   39.9290 C   0  0  0  0  0  0  0  0  0  0  0  0
   37.1050   31.3310   40.1830 C   0  0  0  0  0  0  0  0  0  0  0  0
   35.9600   30.7680   40.6610 C   0  0  0  0  0  0  0  0  0  0  0  0
   35.9200   29.4010   40.8770 C   0  0  0  0  0  0  0  0  0  0  0  0
   36.9640   28.5610   40.6410 C   0  0  0  0  0  0  0  0  0  0  0  0
   37.2470   32.3920   39.9770 H   0  0  0  0  0  0  0  0  0  0  0  0
   35.1120   31.4180   40.8560 H   0  0  0  0  0  0  0  0  0  0  0  0
   34.9910   28.9920   41.2570 H   0  0  0  0  0  0  0  0  0  0  0  0
   41.5610   31.9240   39.8560 C   0  0  0  0  0  0  0  0  0  0  0  0
   41.8270   32.0820   38.4870 C   0  0  0  0  0  0  0  0  0  0  0  0
   40.8160   31.6850   37.5920 C   0  0  0  0  0  0  0  0  0  0  0  0
   39.6670   31.1840   38.0950 N   0  0  0  0  0  0  0  0  0  0  0  0
   39.4430   31.0460   39.4210 C   0  0  0  0  0  0  0  0  0  0  0  0
   40.4060   31.4230   40.2960 N   0  0  0  0  0  0  0  0  0  0  0  0
   42.3090   32.2140   40.6010 H   0  0  0  0  0  0  0  0  0  0  0  0
   42.7630   32.4870   38.1380 H   0  0  0  0  0  0  0  0  0  0  0  0
   40.9890   31.7940   36.5220 H   0  0  0  0  0  0  0  0  0  0  0  0
   37.7120   27.6520   43.5440 Br  0  0  0  0  0  0  0  0  0  0  0  0
   37.2260   26.5140   42.0830 C   0  0  0  0  0  0  0  0  0  0  0  0
   36.9280   27.1200   40.8660 C   0  0  0  0  0  0  0  0  0  0  0  0
   36.5740   26.3190   39.7970 C   0  0  0  0  0  0  0  0  0  0  0  0
   36.3260   26.7200   38.8090 H   0  0  0  0  0  0  0  0  0  0  0  0
   36.5210   24.9480   39.9390 C   0  0  0  0  0  0  0  0  0  0  0  0
   36.2410   24.3100   39.0930 H   0  0  0  0  0  0  0  0  0  0  0  0
   36.8220   24.3740   41.1570 C   0  0  0  0  0  3  0  0  0  0  0  0
   37.1840   25.1490   42.2610 C   0  0  0  0  0  3  0  0  0  0  0  0
  1  2  1  0  0  0  0
  2  7  1  0  0  0  0
  3  2  2  0  0  0  0
  3  4  1  0  0  0  0
  4  5  2  0  0  0  0
  5  9  1  0  0  0  0
  5  6  1  0  0  0  0
  6 10  1  0  0  0  0
  7 22  1  0  0  0  0
  7  6  2  0  0  0  0
  8  4  1  0  0  0  0
 11 16  1  0  0  0  0
 11 17  1  0  0  0  0
 12 11  2  0  0  0  0
 13 14  2  0  0  0  0
 13 12  1  0  0  0  0
 14 15  1  0  0  0  0
 15  3  1  0  0  0  0
 15 16  2  0  0  0  0
 18 12  1  0  0  0  0
 19 13  1  0  0  0  0
 21 28  1  0  0  0  0
 21 20  1  0  0  0  0
 22 21  2  0  0  0  0
 23 25  2  0  0  0  0
 23 22  1  0  0  0  0
 24 23  1  0  0  0  0
 25 27  1  0  0  0  0
 26 25  1  0  0  0  0
 27 28  2  0  0  0  0
M  END
>  <minimizedAffinity>
-5.26353502

$$$$

 OpenBabel03242510103D

 28 30  0  0  0  0  0  0  0  0999 V2000
   40.5660   29.2280   40.4230 Br  0  0  0  0  0  0  0  0  0  0  0  0
   38.7670   29.8780   40.6420 C   0  0  0  0  0  0  0  0  0  0  0  0
   38.4000   31.0990   40.1110 C   0  0  0  0  0  0  0  0  0  0  0  0
   37.0990   31.5720   40.2680 C   0  0  0  0  0  0  0  0  0  0  0  0
   36.2060   30.8050   40.9520 C   0  0  0  0  0  0  0  0  0  0  0  0
   36.6150   29.5880   41.4670 C   0  0  0  0  0  0  0  0  0  0  0  0
   37.8750   29.0910   41.3360 C   0  0  0  0  0  0  0  0  0  0  0  0
   36.8860   32.5440   39.8220 H   0  0  0  0  0  0  0  0  0  0  0  0
   35.1930   31.1810   41.0690 H   0  0  0  0  0  0  0  0  0  0  0  0
   35.8750   29.0080   42.0040 H   0  0  0  0  0  0  0  0  0  0  0  0
   40.9440   33.6170   39.3900 C   0  0  0  0  0  0  0  0  0  0  0  0
   41.3000   33.3600   38.0570 C   0  0  0  0  0  0  0  0  0  0  0  0
   40.6390   32.2950   37.4150 C   0  0  0  0  0  0  0  0  0  0  0  0
   39.7160   31.5950   38.1100 N   0  0  0  0  0  0  0  0  0  0  0  0
   39.3970   31.8700   39.3940 C   0  0  0  0  0  0  0  0  0  0  0  0
   40.0240   32.8910   40.0260 N   0  0  0  0  0  0  0  0  0  0  0  0
   41.4230   34.4330   39.9420 H   0  0  0  0  0  0  0  0  0  0  0  0
   42.0450   33.9500   37.5480 H   0  0  0  0  0  0  0  0  0  0  0  0
   40.8910   32.0680   36.3810 H   0  0  0  0  0  0  0  0  0  0  0  0
   37.2880   26.6130   39.5110 Br  0  0  0  0  0  0  0  0  0  0  0  0
   38.1470   26.5910   41.2220 C   0  0  0  0  0  0  0  0  0  0  0  0
   38.3140   27.8080   41.8750 C   0  0  0  0  0  0  0  0  0  0  0  0
   38.9330   27.8170   43.1110 C   0  0  0  0  0  0  0  0  0  0  0  0
   39.1010   28.7330   43.6860 H   0  0  0  0  0  0  0  0  0  0  0  0
   39.3730   26.6390   43.6800 C   0  0  0  0  0  0  0  0  0  0  0  0
   39.8630   26.6430   44.6600 H   0  0  0  0  0  0  0  0  0  0  0  0
   39.1940   25.4470   43.0090 C   0  0  0  0  0  3  0  0  0  0  0  0
   38.5740   25.3960   41.7590 C   0  0  0  0  0  3  0  0  0  0  0  0
  1  2  1  0  0  0  0
  2  7  1  0  0  0  0
  3  4  1  0  0  0  0
  3  2  2  0  0  0  0
  4  5  2  0  0  0  0
  5  9  1  0  0  0  0
  5  6  1  0  0  0  0
  6 10  1  0  0  0  0
  7  6  2  0  0  0  0
  7 22  1  0  0  0  0
  8  4  1  0  0  0  0
 11 17  1  0  0  0  0
 11 16  1  0  0  0  0
 12 11  2  0  0  0  0
 13 12  1  0  0  0  0
 13 14  2  0  0  0  0
 14 15  1  0  0  0  0
 15 16  2  0  0  0  0
 15  3  1  0  0  0  0
 18 12  1  0  0  0  0
 19 13  1  0  0  0  0
 20 21  1  0  0  0  0
 21 28  2  0  0  0  0
 21 22  1  0  0  0  0
 22 23  2  0  0  0  0
 23 25  1  0  0  0  0
 23 24  1  0  0  0  0
 25 26  1  0  0  0  0
 27 25  2  0  0  0  0
 28 27  1  0  0  0  0
M  END
>  <minimizedAffinity>
-5.19575977

$$$$

 OpenBabel03242510103D

 28 30  0  0  0  0  0  0  0  0999 V2000
   40.4140   29.4860   40.4940 Br  0  0  0  0  0  0  0  0  0  0  0  0
   39.0080   30.7700   40.2090 C   0  0  0  0  0  0  0  0  0  0  0  0
   39.2510   31.9140   39.4740 C   0  0  0  0  0  0  0  0  0  0  0  0
   38.2360   32.8460   39.2660 C   0  0  0  0  0  0  0  0  0  0  0  0
   37.0090   32.6010   39.8030 C   0  0  0  0  0  0  0  0  0  0  0  0
   36.8090   31.4430   40.5330 C   0  0  0  0  0  0  0  0  0  0  0  0
   37.7730   30.5090   40.7580 C   0  0  0  0  0  0  0  0  0  0  0  0
   38.5040   33.7220   38.6760 H   0  0  0  0  0  0  0  0  0  0  0  0
   36.2220   33.3320   39.6360 H   0  0  0  0  0  0  0  0  0  0  0  0
   35.8190   31.2840   40.9420 H   0  0  0  0  0  0  0  0  0  0  0  0
   42.0570   31.8900   37.1380 C   0  0  0  0  0  0  0  0  0  0  0  0
   43.0980   32.4920   37.8610 C   0  0  0  0  0  0  0  0  0  0  0  0
   42.8060   32.9050   39.1750 C   0  0  0  0  0  0  0  0  0  0  0  0
   41.5600   32.7020   39.6540 N   0  0  0  0  0  0  0  0  0  0  0  0
   40.5780   32.1180   38.9290 C   0  0  0  0  0  0  0  0  0  0  0  0
   40.8440   31.7150   37.6630 N   0  0  0  0  0  0  0  0  0  0  0  0
   42.2230   31.5480   36.1100 H   0  0  0  0  0  0  0  0  0  0  0  0
   44.0770   32.6310   37.4300 H   0  0  0  0  0  0  0  0  0  0  0  0
   43.5910   33.3750   39.7640 H   0  0  0  0  0  0  0  0  0  0  0  0
   36.8180   28.0370   39.0870 Br  0  0  0  0  0  0  0  0  0  0  0  0
   37.1480   28.0800   40.9730 C   0  0  0  0  0  0  0  0  0  0  0  0
   37.5700   29.2840   41.5260 C   0  0  0  0  0  0  0  0  0  0  0  0
   37.8160   29.3390   42.8850 C   0  0  0  0  0  0  0  0  0  0  0  0
   38.1500   30.2490   43.3930 H   0  0  0  0  0  0  0  0  0  0  0  0
   37.6440   28.2180   43.6710 C   0  0  0  0  0  0  0  0  0  0  0  0
   37.8370   28.2580   44.7490 H   0  0  0  0  0  0  0  0  0  0  0  0
   37.2250   27.0370   43.0950 C   0  0  0  0  0  3  0  0  0  0  0  0
   36.9660   26.9410   41.7270 C   0  0  0  0  0  3  0  0  0  0  0  0
  2  1  1  0  0  0  0
  2  7  1  0  0  0  0
  3  2  2  0  0  0  0
  4  3  1  0  0  0  0
  4  5  2  0  0  0  0
  5  6  1  0  0  0  0
  6  7  2  0  0  0  0
  6 10  1  0  0  0  0
  7 22  1  0  0  0  0
  8  4  1  0  0  0  0
  9  5  1  0  0  0  0
 11 16  2  0  0  0  0
 11 12  1  0  0  0  0
 12 13  2  0  0  0  0
 13 14  1  0  0  0  0
 13 19  1  0  0  0  0
 15  3  1  0  0  0  0
 15 14  2  0  0  0  0
 16 15  1  0  0  0  0
 17 11  1  0  0  0  0
 18 12  1  0  0  0  0
 20 21  1  0  0  0  0
 21 22  2  0  0  0  0
 21 28  1  0  0  0  0
 22 23  1  0  0  0  0
 23 24  1  0  0  0  0
 23 25  2  0  0  0  0
 25 26  1  0  0  0  0
 27 25  1  0  0  0  0
 28 27  2  0  0  0  0
M  END
>  <minimizedAffinity>
-5.18917751

$$$$

 OpenBabel03242510103D

 28 30  0  0  0  0  0  0  0  0999 V2000
   38.3810   28.3110   39.2590 Br  0  0  0  0  0  0  0  0  0  0  0  0
   37.7840   28.0380   41.0690 C   0  0  0  0  0  0  0  0  0  0  0  0
   37.4570   26.7700   41.5090 C   0  0  0  0  0  0  0  0  0  0  0  0
   37.0240   26.5700   42.8180 C   0  0  0  0  0  0  0  0  0  0  0  0
   36.9340   27.6470   43.6460 C   0  0  0  0  0  0  0  0  0  0  0  0
   37.2710   28.8990   43.1640 C   0  0  0  0  0  0  0  0  0  0  0  0
   37.6980   29.1370   41.8940 C   0  0  0  0  0  0  0  0  0  0  0  0
   36.7850   25.5420   43.0910 H   0  0  0  0  0  0  0  0  0  0  0  0
   36.5960   27.4830   44.6650 H   0  0  0  0  0  0  0  0  0  0  0  0
   37.1860   29.7300   43.8530 H   0  0  0  0  0  0  0  0  0  0  0  0
   36.5860   24.3130   38.9520 C   0  0  0  0  0  0  0  0  0  0  0  0
   37.7600   23.5590   38.8010 C   0  0  0  0  0  0  0  0  0  0  0  0
   38.8580   23.9200   39.6050 C   0  0  0  0  0  0  0  0  0  0  0  0
   38.7190   24.9570   40.4600 N   0  0  0  0  0  0  0  0  0  0  0  0
   37.5730   25.6630   40.5800 C   0  0  0  0  0  0  0  0  0  0  0  0
   36.5070   25.3280   39.8140 N   0  0  0  0  0  0  0  0  0  0  0  0
   35.6990   24.0800   38.3540 H   0  0  0  0  0  0  0  0  0  0  0  0
   37.8180   22.7400   38.1020 H   0  0  0  0  0  0  0  0  0  0  0  0
   39.7850   23.3560   39.5130 H   0  0  0  0  0  0  0  0  0  0  0  0
   40.6730   29.9870   42.3790 Br  0  0  0  0  0  0  0  0  0  0  0  0
   39.3250   31.0160   41.4910 C   0  0  0  0  0  0  0  0  0  0  0  0
   38.0570   30.4550   41.3780 C   0  0  0  0  0  0  0  0  0  0  0  0
   37.0670   31.1780   40.7410 C   0  0  0  0  0  0  0  0  0  0  0  0
   36.0450   30.8050   40.6120 H   0  0  0  0  0  0  0  0  0  0  0  0
   37.3370   32.4310   40.2300 C   0  0  0  0  0  0  0  0  0  0  0  0
   36.5540   33.0080   39.7240 H   0  0  0  0  0  0  0  0  0  0  0  0
   38.6030   32.9630   40.3560 C   0  0  0  0  0  3  0  0  0  0  0  0
   39.6300   32.2630   40.9930 C   0  0  0  0  0  3  0  0  0  0  0  0
  1  2  1  0  0  0  0
  2  3  2  0  0  0  0
  2  7  1  0  0  0  0
  3  4  1  0  0  0  0
  4  8  1  0  0  0  0
  4  5  2  0  0  0  0
  5  9  1  0  0  0  0
  6  5  1  0  0  0  0
  6 10  1  0  0  0  0
  7  6  2  0  0  0  0
 11 16  1  0  0  0  0
 12 11  2  0  0  0  0
 12 13  1  0  0  0  0
 13 14  2  0  0  0  0
 14 15  1  0  0  0  0
 15  3  1  0  0  0  0
 16 15  2  0  0  0  0
 17 11  1  0  0  0  0
 18 12  1  0  0  0  0
 19 13  1  0  0  0  0
 21 20  1  0  0  0  0
 22 21  1  0  0  0  0
 22  7  1  0  0  0  0
 23 22  2  0  0  0  0
 24 23  1  0  0  0  0
 25 27  2  0  0  0  0
 25 23  1  0  0  0  0
 26 25  1  0  0  0  0
 27 28  1  0  0  0  0
 28 21  2  0  0  0  0
M  END
>  <minimizedAffinity>
-5.17724037

$$$$

 OpenBabel03242510103D

 28 30  0  0  0  0  0  0  0  0999 V2000
   39.4560   27.2470   40.0100 Br  0  0  0  0  0  0  0  0  0  0  0  0
   38.2940   27.5090   41.5230 C   0  0  0  0  0  0  0  0  0  0  0  0
   38.2910   28.7160   42.1960 C   0  0  0  0  0  0  0  0  0  0  0  0
   37.4520   28.9080   43.2920 C   0  0  0  0  0  0  0  0  0  0  0  0
   36.6410   27.8850   43.6780 C   0  0  0  0  0  0  0  0  0  0  0  0
   36.6760   26.6930   42.9760 C   0  0  0  0  0  0  0  0  0  0  0  0
   37.4800   26.4650   41.9020 C   0  0  0  0  0  0  0  0  0  0  0  0
   37.5060   29.8860   43.7710 H   0  0  0  0  0  0  0  0  0  0  0  0
   35.9900   28.0420   44.5330 H   0  0  0  0  0  0  0  0  0  0  0  0
   36.0160   25.9030   43.3140 H   0  0  0  0  0  0  0  0  0  0  0  0
   41.2510   30.8290   41.8750 C   0  0  0  0  0  0  0  0  0  0  0  0
   40.8910   31.7590   40.8870 C   0  0  0  0  0  0  0  0  0  0  0  0
   39.6010   31.6370   40.3360 C   0  0  0  0  0  0  0  0  0  0  0  0
   38.7990   30.6470   40.7840 N   0  0  0  0  0  0  0  0  0  0  0  0
   39.1770   29.7670   41.7380 C   0  0  0  0  0  0  0  0  0  0  0  0
   40.4160   29.8710   42.2780 N   0  0  0  0  0  0  0  0  0  0  0  0
   42.2410   30.8730   42.3410 H   0  0  0  0  0  0  0  0  0  0  0  0
   41.5710   32.5320   40.5650 H   0  0  0  0  0  0  0  0  0  0  0  0
   39.2890   32.3420   39.5670 H   0  0  0  0  0  0  0  0  0  0  0  0
   39.6370   24.4120   42.8750 Br  0  0  0  0  0  0  0  0  0  0  0  0
   38.4060   24.1720   41.4290 C   0  0  0  0  0  0  0  0  0  0  0  0
   37.5230   25.2120   41.1560 C   0  0  0  0  0  0  0  0  0  0  0  0
   36.6240   25.0610   40.1170 C   0  0  0  0  0  0  0  0  0  0  0  0
   35.8980   25.8320   39.8410 H   0  0  0  0  0  0  0  0  0  0  0  0
   36.6090   23.9010   39.3690 C   0  0  0  0  0  0  0  0  0  0  0  0
   35.8980   23.7790   38.5440 H   0  0  0  0  0  0  0  0  0  0  0  0
   37.4970   22.8870   39.6620 C   0  0  0  0  0  3  0  0  0  0  0  0
   38.4200   23.0010   40.7040 C   0  0  0  0  0  3  0  0  0  0  0  0
  1  2  1  0  0  0  0
  2  7  2  0  0  0  0
  2  3  1  0  0  0  0
  3  4  2  0  0  0  0
  4  5  1  0  0  0  0
  4  8  1  0  0  0  0
  5  9  1  0  0  0  0
  6 10  1  0  0  0  0
  6  5  2  0  0  0  0
  7  6  1  0  0  0  0
 11 16  1  0  0  0  0
 11 17  1  0  0  0  0
 12 11  2  0  0  0  0
 13 14  2  0  0  0  0
 13 12  1  0  0  0  0
 14 15  1  0  0  0  0
 15  3  1  0  0  0  0
 15 16  2  0  0  0  0
 18 12  1  0  0  0  0
 19 13  1  0  0  0  0
 21 20  1  0  0  0  0
 22 21  1  0  0  0  0
 22  7  1  0  0  0  0
 23 22  2  0  0  0  0
 24 23  1  0  0  0  0
 25 27  2  0  0  0  0
 25 23  1  0  0  0  0
 26 25  1  0  0  0  0
 27 28  1  0  0  0  0
 28 21  2  0  0  0  0
M  END
>  <minimizedAffinity>
-5.17601252

$$$$

 OpenBabel03242510103D

 28 30  0  0  0  0  0  0  0  0999 V2000
   38.5170   28.2060   39.3140 Br  0  0  0  0  0  0  0  0  0  0  0  0
   37.8800   27.9640   41.1150 C   0  0  0  0  0  0  0  0  0  0  0  0
   37.7720   29.0470   41.9650 C   0  0  0  0  0  0  0  0  0  0  0  0
   37.3120   28.8750   43.2690 C   0  0  0  0  0  0  0  0  0  0  0  0
   36.9730   27.6220   43.6790 C   0  0  0  0  0  0  0  0  0  0  0  0
   37.0970   26.5650   42.7950 C   0  0  0  0  0  0  0  0  0  0  0  0
   37.5420   26.6900   41.5150 C   0  0  0  0  0  0  0  0  0  0  0  0
   37.2540   29.7760   43.8790 H   0  0  0  0  0  0  0  0  0  0  0  0
   36.6150   27.4960   44.6970 H   0  0  0  0  0  0  0  0  0  0  0  0
   36.8170   25.5840   43.1590 H   0  0  0  0  0  0  0  0  0  0  0  0
   37.5290   32.3430   40.4140 C   0  0  0  0  0  0  0  0  0  0  0  0
   38.8310   32.8560   40.5140 C   0  0  0  0  0  0  0  0  0  0  0  0
   39.7940   32.0340   41.1300 C   0  0  0  0  0  0  0  0  0  0  0  0
   39.4130   30.8200   41.5820 N   0  0  0  0  0  0  0  0  0  0  0  0
   38.1480   30.3560   41.4700 C   0  0  0  0  0  0  0  0  0  0  0  0
   37.2100   31.1350   40.8790 N   0  0  0  0  0  0  0  0  0  0  0  0
   36.7360   32.9360   39.9450 H   0  0  0  0  0  0  0  0  0  0  0  0
   39.0830   33.8340   40.1360 H   0  0  0  0  0  0  0  0  0  0  0  0
   40.8150   32.4010   41.2250 H   0  0  0  0  0  0  0  0  0  0  0  0
   40.3490   25.3020   41.4880 Br  0  0  0  0  0  0  0  0  0  0  0  0
   38.8370   24.8350   40.4110 C   0  0  0  0  0  0  0  0  0  0  0  0
   37.6740   25.5810   40.5760 C   0  0  0  0  0  0  0  0  0  0  0  0
   36.5690   25.2620   39.8110 C   0  0  0  0  0  0  0  0  0  0  0  0
   35.6180   25.8010   39.8830 H   0  0  0  0  0  0  0  0  0  0  0  0
   36.6240   24.2250   38.9020 C   0  0  0  0  0  0  0  0  0  0  0  0
   35.7490   23.9700   38.2930 H   0  0  0  0  0  0  0  0  0  0  0  0
   37.7900   23.5030   38.7600 C   0  0  0  0  0  3  0  0  0  0  0  0
   38.9280   23.7930   39.5150 C   0  0  0  0  0  3  0  0  0  0  0  0
  1  2  1  0  0  0  0
  2  7  2  0  0  0  0
  2  3  1  0  0  0  0
  3  4  2  0  0  0  0
  4  5  1  0  0  0  0
  4  8  1  0  0  0  0
  5  9  1  0  0  0  0
  6 10  1  0  0  0  0
  6  5  2  0  0  0  0
  7  6  1  0  0  0  0
 11 12  2  0  0  0  0
 11 16  1  0  0  0  0
 12 13  1  0  0  0  0
 13 19  1  0  0  0  0
 13 14  2  0  0  0  0
 15 14  1  0  0  0  0
 15  3  1  0  0  0  0
 16 15  2  0  0  0  0
 17 11  1  0  0  0  0
 18 12  1  0  0  0  0
 21 22  1  0  0  0  0
 21 20  1  0  0  0  0
 22  7  1  0  0  0  0
 23 24  1  0  0  0  0
 23 22  2  0  0  0  0
 25 23  1  0  0  0  0
 26 25  1  0  0  0  0
 27 25  2  0  0  0  0
 27 28  1  0  0  0  0
 28 21  2  0  0  0  0
M  END
>  <minimizedAffinity>
-5.12875462

$$$$

 OpenBabel03242510103D

 28 30  0  0  0  0  0  0  0  0999 V2000
   40.4420   30.4600   40.9780 Br  0  0  0  0  0  0  0  0  0  0  0  0
   38.8570   30.5480   39.8890 C   0  0  0  0  0  0  0  0  0  0  0  0
   37.7570   29.7730   40.2000 C   0  0  0  0  0  0  0  0  0  0  0  0
   36.6080   29.8340   39.4140 C   0  0  0  0  0  0  0  0  0  0  0  0
   36.5980   30.6720   38.3410 C   0  0  0  0  0  0  0  0  0  0  0  0
   37.7210   31.4310   38.0660 C   0  0  0  0  0  0  0  0  0  0  0  0
   38.8620   31.4010   38.8070 C   0  0  0  0  0  0  0  0  0  0  0  0
   35.7820   29.1930   39.7220 H   0  0  0  0  0  0  0  0  0  0  0  0
   35.6980   30.7150   37.7330 H   0  0  0  0  0  0  0  0  0  0  0  0
   37.6740   32.0860   37.2040 H   0  0  0  0  0  0  0  0  0  0  0  0
   38.3500   26.8050   42.2420 C   0  0  0  0  0  0  0  0  0  0  0  0
   37.9770   27.2090   43.5330 C   0  0  0  0  0  0  0  0  0  0  0  0
   37.5160   28.5310   43.6800 C   0  0  0  0  0  0  0  0  0  0  0  0
   37.4610   29.3210   42.5850 N   0  0  0  0  0  0  0  0  0  0  0  0
   37.8280   28.9000   41.3540 C   0  0  0  0  0  0  0  0  0  0  0  0
   38.2740   27.6300   41.1970 N   0  0  0  0  0  0  0  0  0  0  0  0
   38.7170   25.7880   42.0660 H   0  0  0  0  0  0  0  0  0  0  0  0
   38.0410   26.5370   44.3750 H   0  0  0  0  0  0  0  0  0  0  0  0
   37.2180   28.8780   44.6680 H   0  0  0  0  0  0  0  0  0  0  0  0
   39.0380   34.1160   40.3590 Br  0  0  0  0  0  0  0  0  0  0  0  0
   40.3160   33.4330   39.1090 C   0  0  0  0  0  0  0  0  0  0  0  0
   40.0500   32.1980   38.5240 C   0  0  0  0  0  0  0  0  0  0  0  0
   40.9590   31.6840   37.6190 C   0  0  0  0  0  0  0  0  0  0  0  0
   40.8210   30.7210   37.1180 H   0  0  0  0  0  0  0  0  0  0  0  0
   42.1050   32.3860   37.3050 C   0  0  0  0  0  0  0  0  0  0  0  0
   42.8280   31.9820   36.5880 H   0  0  0  0  0  0  0  0  0  0  0  0
   42.3430   33.6080   37.9000 C   0  0  0  0  0  3  0  0  0  0  0  0
   41.4490   34.1610   38.8190 C   0  0  0  0  0  3  0  0  0  0  0  0
  2  3  1  0  0  0  0
  2  1  1  0  0  0  0
  3 15  1  0  0  0  0
  4  8  1  0  0  0  0
  4  3  2  0  0  0  0
  5  4  1  0  0  0  0
  6  5  2  0  0  0  0
  6  7  1  0  0  0  0
  7  2  2  0  0  0  0
  9  5  1  0  0  0  0
 10  6  1  0  0  0  0
 11 12  1  0  0  0  0
 12 13  2  0  0  0  0
 12 18  1  0  0  0  0
 13 19  1  0  0  0  0
 14 13  1  0  0  0  0
 15 14  2  0  0  0  0
 16 15  1  0  0  0  0
 16 11  2  0  0  0  0
 17 11  1  0  0  0  0
 21 20  1  0  0  0  0
 22  7  1  0  0  0  0
 22 21  2  0  0  0  0
 23 22  1  0  0  0  0
 24 23  1  0  0  0  0
 25 23  2  0  0  0  0
 25 27  1  0  0  0  0
 26 25  1  0  0  0  0
 27 28  2  0  0  0  0
 28 21  1  0  0  0  0
M  END
>  <minimizedAffinity>
-5.11275482

$$$$

 OpenBabel03242510103D

 28 30  0  0  0  0  0  0  0  0999 V2000
   37.5210   27.0970   39.4400 Br  0  0  0  0  0  0  0  0  0  0  0  0
   38.3220   26.9910   41.1870 C   0  0  0  0  0  0  0  0  0  0  0  0
   38.4600   28.1290   41.9590 C   0  0  0  0  0  0  0  0  0  0  0  0
   39.0390   28.0560   43.2230 C   0  0  0  0  0  0  0  0  0  0  0  0
   39.4630   26.8430   43.6760 C   0  0  0  0  0  0  0  0  0  0  0  0
   39.3060   25.7290   42.8710 C   0  0  0  0  0  0  0  0  0  0  0  0
   38.7450   25.7580   41.6310 C   0  0  0  0  0  0  0  0  0  0  0  0
   39.1130   28.9950   43.7720 H   0  0  0  0  0  0  0  0  0  0  0  0
   39.9130   26.7940   44.6640 H   0  0  0  0  0  0  0  0  0  0  0  0
   39.6550   24.7830   43.2670 H   0  0  0  0  0  0  0  0  0  0  0  0
   38.4650   31.3810   40.2990 C   0  0  0  0  0  0  0  0  0  0  0  0
   37.1290   31.8030   40.3880 C   0  0  0  0  0  0  0  0  0  0  0  0
   36.2280   30.9360   41.0340 C   0  0  0  0  0  0  0  0  0  0  0  0
   36.6960   29.7670   41.5240 N   0  0  0  0  0  0  0  0  0  0  0  0
   37.9900   29.3900   41.4220 C   0  0  0  0  0  0  0  0  0  0  0  0
   38.8700   30.2140   40.8020 N   0  0  0  0  0  0  0  0  0  0  0  0
   39.2120   32.0130   39.8070 H   0  0  0  0  0  0  0  0  0  0  0  0
   36.8080   32.7480   39.9790 H   0  0  0  0  0  0  0  0  0  0  0  0
   35.1840   31.2320   41.1210 H   0  0  0  0  0  0  0  0  0  0  0  0
   41.1060   25.2090   39.6470 Br  0  0  0  0  0  0  0  0  0  0  0  0
   39.5070   24.1730   39.8300 C   0  0  0  0  0  0  0  0  0  0  0  0
   38.5750   24.5880   40.7760 C   0  0  0  0  0  0  0  0  0  0  0  0
   37.4130   23.8550   40.9270 C   0  0  0  0  0  0  0  0  0  0  0  0
   36.6330   24.1170   41.6490 H   0  0  0  0  0  0  0  0  0  0  0  0
   37.1880   22.7370   40.1510 C   0  0  0  0  0  0  0  0  0  0  0  0
   36.2670   22.1540   40.2670 H   0  0  0  0  0  0  0  0  0  0  0  0
   38.1290   22.3490   39.2200 C   0  0  0  0  0  3  0  0  0  0  0  0
   39.3150   23.0620   39.0380 C   0  0  0  0  0  3  0  0  0  0  0  0
  1  2  1  0  0  0  0
  2  7  2  0  0  0  0
  2  3  1  0  0  0  0
  3  4  2  0  0  0  0
  4  5  1  0  0  0  0
  4  8  1  0  0  0  0
  5  9  1  0  0  0  0
  6 10  1  0  0  0  0
  6  5  2  0  0  0  0
  7  6  1  0  0  0  0
 11 12  2  0  0  0  0
 11 16  1  0  0  0  0
 12 13  1  0  0  0  0
 13 19  1  0  0  0  0
 13 14  2  0  0  0  0
 15 14  1  0  0  0  0
 15  3  1  0  0  0  0
 16 15  2  0  0  0  0
 17 11  1  0  0  0  0
 18 12  1  0  0  0  0
 20 21  1  0  0  0  0
 21 22  1  0  0  0  0
 22 23  2  0  0  0  0
 22  7  1  0  0  0  0
 23 24  1  0  0  0  0
 25 26  1  0  0  0  0
 25 23  1  0  0  0  0
 27 25  2  0  0  0  0
 28 27  1  0  0  0  0
 28 21  2  0  0  0  0
M  END
>  <minimizedAffinity>
-5.06354713

$$$$

 OpenBabel03242510103D

 28 30  0  0  0  0  0  0  0  0999 V2000
   39.1060   28.1150   39.5560 Br  0  0  0  0  0  0  0  0  0  0  0  0
   38.2160   27.9680   41.2580 C   0  0  0  0  0  0  0  0  0  0  0  0
   37.5420   26.8090   41.5910 C   0  0  0  0  0  0  0  0  0  0  0  0
   36.8970   26.7000   42.8210 C   0  0  0  0  0  0  0  0  0  0  0  0
   36.9490   27.7560   43.6800 C   0  0  0  0  0  0  0  0  0  0  0  0
   37.6360   28.8980   43.3050 C   0  0  0  0  0  0  0  0  0  0  0  0
   38.2780   29.0440   42.1150 C   0  0  0  0  0  0  0  0  0  0  0  0
   36.3860   25.7560   43.0120 H   0  0  0  0  0  0  0  0  0  0  0  0
   36.4440   27.6630   44.6370 H   0  0  0  0  0  0  0  0  0  0  0  0
   37.6540   29.7150   44.0160 H   0  0  0  0  0  0  0  0  0  0  0  0
   38.4510   23.7210   39.8690 C   0  0  0  0  0  0  0  0  0  0  0  0
   37.5130   23.6300   38.8290 C   0  0  0  0  0  0  0  0  0  0  0  0
   36.5600   24.6620   38.7390 C   0  0  0  0  0  0  0  0  0  0  0  0
   36.6030   25.6640   39.6450 N   0  0  0  0  0  0  0  0  0  0  0  0
   37.5220   25.7200   40.6350 C   0  0  0  0  0  0  0  0  0  0  0  0
   38.4460   24.7340   40.7360 N   0  0  0  0  0  0  0  0  0  0  0  0
   39.2170   22.9480   39.9910 H   0  0  0  0  0  0  0  0  0  0  0  0
   37.5220   22.8080   38.1320 H   0  0  0  0  0  0  0  0  0  0  0  0
   35.8170   24.6240   37.9440 H   0  0  0  0  0  0  0  0  0  0  0  0
   36.5830   31.1590   40.5440 Br  0  0  0  0  0  0  0  0  0  0  0  0
   38.4350   31.3000   41.0090 C   0  0  0  0  0  0  0  0  0  0  0  0
   39.0050   30.2440   41.7130 C   0  0  0  0  0  0  0  0  0  0  0  0
   40.3400   30.3230   42.0600 C   0  0  0  0  0  0  0  0  0  0  0  0
   40.8600   29.5340   42.6140 H   0  0  0  0  0  0  0  0  0  0  0  0
   41.0880   31.4300   41.7120 C   0  0  0  0  0  0  0  0  0  0  0  0
   42.1470   31.4960   41.9850 H   0  0  0  0  0  0  0  0  0  0  0  0
   40.4960   32.4620   41.0140 C   0  0  0  0  0  3  0  0  0  0  0  0
   39.1510   32.4200   40.6440 C   0  0  0  0  0  3  0  0  0  0  0  0
  1  2  1  0  0  0  0
  2  3  2  0  0  0  0
  2  7  1  0  0  0  0
  3  4  1  0  0  0  0
  4  8  1  0  0  0  0
  4  5  2  0  0  0  0
  5  9  1  0  0  0  0
  6  5  1  0  0  0  0
  6 10  1  0  0  0  0
  7  6  2  0  0  0  0
 11 17  1  0  0  0  0
 11 16  1  0  0  0  0
 12 11  2  0  0  0  0
 13 12  1  0  0  0  0
 13 14  2  0  0  0  0
 14 15  1  0  0  0  0
 15 16  2  0  0  0  0
 15  3  1  0  0  0  0
 18 12  1  0  0  0  0
 19 13  1  0  0  0  0
 20 21  1  0  0  0  0
 21 22  1  0  0  0  0
 22 23  2  0  0  0  0
 22  7  1  0  0  0  0
 23 24  1  0  0  0  0
 25 26  1  0  0  0  0
 25 23  1  0  0  0  0
 27 25  2  0  0  0  0
 28 21  2  0  0  0  0
 28 27  1  0  0  0  0
M  END
>  <minimizedAffinity>
-5.05558443

$$$$
