
     RDKit          3D

 30 32  0  0  0  0  0  0  0  0999 V2000
   44.4585   35.9647   44.8324 C   0  0  0  0  0  0  0  0  0  0  0  0
   45.1590   35.8633   43.6336 C   0  0  0  0  0  0  0  0  0  0  0  0
   46.0549   34.8398   43.3708 C   0  0  0  0  0  0  0  0  0  0  0  0
   46.2134   33.9251   44.3672 N   0  0  0  0  0  0  0  0  0  0  0  0
   45.5340   34.0237   45.5297 C   0  0  0  0  0  0  0  0  0  0  0  0
   44.6778   35.0156   45.7611 N   0  0  0  0  0  0  0  0  0  0  0  0
   44.5402   33.0902   41.3008 Br  0  0  0  0  0  0  0  0  0  0  0  0
   46.2263   33.9883   41.0990 C   0  0  0  0  0  0  0  0  0  0  0  0
   46.7920   34.7381   42.1023 C   0  0  0  0  0  0  0  0  0  0  0  0
   48.0109   35.3439   41.8527 C   0  0  0  0  0  0  0  0  0  0  0  0
   48.6684   35.2247   40.6533 C   0  0  0  0  0  0  0  0  0  0  0  0
   48.1052   34.4716   39.6385 C   0  0  0  0  0  0  0  0  0  0  0  0
   46.8843   33.8690   39.8986 C   0  0  0  0  0  0  0  0  0  0  0  0
   43.7929   36.8061   44.9122 H   0  0  0  0  0  0  0  0  0  0  0  0
   45.0106   36.6142   42.8504 H   0  0  0  0  0  0  0  0  0  0  0  0
   45.7354   33.2396   46.2583 H   0  0  0  0  0  0  0  0  0  0  0  0
   48.4351   35.9321   42.6669 H   0  0  0  0  0  0  0  0  0  0  0  0
   49.6063   35.6909   40.4612 H   0  0  0  0  0  0  0  0  0  0  0  0
   48.5546   34.3292   38.6733 H   0  0  0  0  0  0  0  0  0  0  0  0
   49.1192   32.6838   38.2039 Br  0  0  0  0  0  0  0  0  0  0  0  0
   47.2148   32.4809   37.9945 C   0  0  0  0  0  0  0  0  0  0  0  0
   46.2764   33.0643   38.8230 C   0  0  0  0  0  0  0  0  0  0  0  0
   44.9361   32.8656   38.5996 C   0  0  0  0  0  0  0  0  0  0  0  0
   44.2835   33.3655   39.3042 H   0  0  0  0  0  0  0  0  0  0  0  0
   44.5430   32.0780   37.5398 C   0  0  0  0  0  0  0  0  0  0  0  0
   43.4603   31.9482   37.4010 H   0  0  0  0  0  0  0  0  0  0  0  0
   45.4747   31.4936   36.7101 C   0  0  0  0  0  0  0  0  0  0  0  0
   46.8421   31.6818   36.9183 C   0  0  0  0  0  0  0  0  0  0  0  0
   45.1468   30.8695   35.8708 H   0  0  0  0  0  0  0  0  0  0  0  0
   47.5668   31.2087   36.2476 H   0  0  0  0  0  0  0  0  0  0  0  0
  1  6  2  0
  2  1  1  0
  3  2  2  0
  3  4  1  0
  4  5  2  0
  5  6  1  0
  8  7  1  0
  8  9  2  0
  9  3  1  0
 10  9  1  0
 11 10  2  0
 12 13  2  0
 12 11  1  0
 13  8  1  0
  1 14  1  0
  2 15  1  0
  5 16  1  0
 10 17  1  0
 11 18  1  0
 12 19  1  0
 20 21  1  0
 21 22  2  0
 22 23  1  0
 23 24  1  0
 23 25  2  0
 25 26  1  0
 25 27  1  0
 27 28  2  0
 28 21  1  0
 27 29  1  0
 28 30  1  0
 13 22  1  0
M  ISO  8  14  14  15  14  16  14  17  14  18  14  19  14  24  15  26  16
M  END
>  <DihAtoms>  (1) 
11,12,21,20

>  <DihDeg>  (1) 
90.00163110259498

$$$$
