
 OpenBabel03242510273D

 18 19  0  0  0  0  0  0  0  0999 V2000
   44.4600   35.9540   44.8370 C   0  0  0  0  0  0  0  0  0  0  0  0
   45.1560   35.8740   43.6250 C   0  0  0  0  0  0  0  0  0  0  0  0
   46.0590   34.8420   43.3680 C   0  0  0  0  0  0  0  0  0  0  0  0
   46.2090   33.9360   44.3660 N   0  0  0  0  0  0  0  0  0  0  0  0
   45.5400   34.0170   45.5310 C   0  0  0  0  0  0  0  0  0  0  0  0
   44.6750   35.0140   45.7620 N   0  0  0  0  0  0  0  0  0  0  0  0
   43.7750   36.7870   44.9620 H   0  0  0  0  0  0  0  0  0  0  0  0
   44.9740   36.6380   42.8870 H   0  0  0  0  0  0  0  0  0  0  0  0
   45.7460   33.2240   46.2620 H   0  0  0  0  0  0  0  0  0  0  0  0
   44.5450   33.0930   41.2970 Br  0  0  0  0  0  0  0  0  0  0  0  0
   46.2220   33.9880   41.1030 C   0  0  0  0  0  0  0  0  0  0  0  0
   46.7940   34.7420   42.1090 C   0  0  0  0  0  0  0  0  0  0  0  0
   48.0090   35.3440   41.8600 C   0  0  0  0  0  0  0  0  0  0  0  0
   48.4630   35.9310   42.6290 H   0  0  0  0  0  0  0  0  0  0  0  0
   48.6670   35.2210   40.6530 C   0  0  0  0  0  0  0  0  0  0  0  0
   49.6280   35.7170   40.5020 H   0  0  0  0  0  0  0  0  0  0  0  0
   48.1040   34.4660   39.6330 C   0  0  0  0  0  0  0  0  0  0  0  0
   46.8850   33.8670   39.8960 C   0  0  0  0  0  0  0  0  0  0  0  0
  1  7  1  0  0  0  0
  1  6  1  0  0  0  0
  2  1  2  0  0  0  0
  3  2  1  0  0  0  0
  3  4  2  0  0  0  0
  4  5  1  0  0  0  0
  5  6  2  0  0  0  0
  5  9  1  0  0  0  0
  8  2  1  0  0  0  0
 11 10  1  0  0  0  0
 11 12  1  0  0  0  0
 12  3  1  0  0  0  0
 13 12  2  0  0  0  0
 13 14  1  0  0  0  0
 15 13  1  0  0  0  0
 16 15  1  0  0  0  0
 17 18  1  0  0  0  0
 17 15  2  0  0  0  0
 18 11  2  0  0  0  0
M  END
>  <minimizedAffinity>
-5.03126621

>  <minimizedRMSD>
1.03932154

$$$$
