
     RDKit          3D

 23 24  0  0  0  0  0  0  0  0999 V2000
   44.3825   35.7801   44.4360 C   0  0  0  0  0  0  0  0  0  0  0  0
   44.6663   35.0635   43.2561 C   0  0  0  0  0  0  0  0  0  0  0  0
   45.2895   33.8341   43.4063 C   0  0  0  0  0  0  0  0  0  0  0  0
   45.5949   33.3764   44.6354 N   0  0  0  0  0  0  0  0  0  0  0  0
   45.3078   34.0917   45.7523 C   0  0  0  0  0  0  0  0  0  0  0  0
   44.7020   35.2922   45.6494 N   0  0  0  0  0  0  0  0  0  0  0  0
   44.2561   35.7280   42.0015 C   0  0  0  0  0  0  0  0  0  0  0  0
   43.9012   36.7488   44.4738 H   0  0  0  0  0  0  0  0  0  0  0  0
   45.4776   33.3400   42.4713 H   0  0  0  0  0  0  0  0  0  0  0  0
   43.1727   35.6014   41.8774 H   0  0  0  0  0  0  0  0  0  0  0  0
   44.7310   35.2704   41.1174 H   0  0  0  0  0  0  0  0  0  0  0  0
   44.4697   36.8190   42.0405 H   0  0  0  0  0  0  0  0  0  0  0  0
   47.2866   31.7510   45.5752 Br  0  0  0  0  0  0  0  0  0  0  0  0
   46.5296   32.5069   47.1632 C   0  0  0  0  0  0  0  0  0  0  0  0
   45.6583   33.5540   47.0642 C   0  0  0  0  0  0  0  0  0  0  0  0
   45.0952   34.1214   48.1896 C   0  0  0  0  0  0  0  0  0  0  0  0
   44.4067   34.9489   48.1104 H   0  0  0  0  0  0  0  0  0  0  0  0
   45.4360   33.6016   49.4304 C   0  0  0  0  0  0  0  0  0  0  0  0
   45.0193   34.0142   50.3443 H   0  0  0  0  0  0  0  0  0  0  0  0
   46.3165   32.5430   49.5387 C   0  0  0  0  0  0  0  0  0  0  0  0
   46.8626   31.9970   48.3984 C   0  0  0  0  0  0  0  0  0  0  0  0
   46.6239   32.0912   50.4709 H   0  0  0  0  0  0  0  0  0  0  0  0
   47.5642   31.1572   48.4432 H   0  0  0  0  0  0  0  0  0  0  0  0
  1  6  2  0
  2  3  2  0
  2  1  1  0
  3  4  1  0
  4  5  2  0
  6  5  1  0
  7  2  1  0
  1  8  1  0
  3  9  1  0
  7 10  1  0
  7 11  1  0
  7 12  1  0
 13 14  1  0
 14 15  2  0
 15 16  1  0
 16 17  1  0
 16 18  2  0
 18 19  1  0
 18 20  1  0
 20 21  2  0
 21 14  1  0
 20 22  1  0
 21 23  1  0
  5 15  1  0
M  ISO  7   8  14   9  14  10   8  11   8  12   8  17  15  19  16
M  END
>  <DihAtoms>  (1) 
3,4,14,13

>  <DihDeg>  (1) 
179.99815310788804

$$$$
