
 OpenBabel03242521393D

 21 22  0  0  0  0  0  0  0  0999 V2000
   42.0450   34.5360   40.5510 C   0  0  0  0  0  0  0  0  0  0  0  0
   43.3940   34.8750   40.4960 C   0  0  0  0  0  0  0  0  0  0  0  0
   44.3380   33.9740   40.9950 C   0  0  0  0  0  0  0  0  0  0  0  0
   43.8710   32.8160   41.5050 N   0  0  0  0  0  0  0  0  0  0  0  0
   42.5550   32.5150   41.5460 C   0  0  0  0  0  0  0  0  0  0  0  0
   41.6400   33.3780   41.0670 N   0  0  0  0  0  0  0  0  0  0  0  0
   43.6760   35.8060   40.0770 H   0  0  0  0  0  0  0  0  0  0  0  0
   42.2620   31.5620   41.9740 H   0  0  0  0  0  0  0  0  0  0  0  0
   45.1870   35.4710   43.4930 Br  0  0  0  0  0  0  0  0  0  0  0  0
   46.3090   34.9560   42.0330 C   0  0  0  0  0  0  0  0  0  0  0  0
   45.7650   34.2750   40.9620 C   0  0  0  0  0  0  0  0  0  0  0  0
   46.6270   33.9380   39.9530 C   0  0  0  0  0  0  0  0  0  0  0  0
   46.2360   33.4070   39.1050 H   0  0  0  0  0  0  0  0  0  0  0  0
   47.9680   34.2640   40.0050 C   0  0  0  0  0  0  0  0  0  0  0  0
   48.6060   33.9670   39.1690 H   0  0  0  0  0  0  0  0  0  0  0  0
   48.4700   34.9460   41.0950 C   0  0  0  0  0  3  0  0  0  0  0  0
   47.6380   35.3090   42.1410 C   0  0  0  0  0  3  0  0  0  0  0  0
   41.0670   35.5260   40.0080 C   0  0  0  0  0  0  0  0  0  0  0  0
   40.1180   35.0460   39.7050 H   0  0  0  0  0  0  0  0  0  0  0  0
   41.5300   36.0720   39.1680 H   0  0  0  0  0  0  0  0  0  0  0  0
   40.9070   36.2590   40.8270 H   0  0  0  0  0  0  0  0  0  0  0  0
  1  6  1  0  0  0  0
  2  1  2  0  0  0  0
  2  3  1  0  0  0  0
  3  4  2  0  0  0  0
  4  5  1  0  0  0  0
  5  8  1  0  0  0  0
  6  5  2  0  0  0  0
  7  2  1  0  0  0  0
 10 17  1  0  0  0  0
 10  9  1  0  0  0  0
 11  3  1  0  0  0  0
 11 10  2  0  0  0  0
 12 14  2  0  0  0  0
 12 11  1  0  0  0  0
 13 12  1  0  0  0  0
 14 16  1  0  0  0  0
 15 14  1  0  0  0  0
 16 17  2  0  0  0  0
 18  1  1  0  0  0  0
 18 21  1  0  0  0  0
 19 18  1  0  0  0  0
 20 18  1  0  0  0  0
M  END
>  <minimizedAffinity>
-4.55502892

>  <minimizedRMSD>
4.76215982

$$$$
