
 OpenBabel03242521403D

 21 22  0  0  0  0  0  0  0  0999 V2000
   45.1650   35.0420   43.2480 C   0  0  0  0  0  0  0  0  0  0  0  0
   46.3760   34.6360   42.6940 C   0  0  0  0  0  0  0  0  0  0  0  0
   47.2490   33.8690   43.4700 C   0  0  0  0  0  0  0  0  0  0  0  0
   46.8530   33.5680   44.7240 N   0  0  0  0  0  0  0  0  0  0  0  0
   45.6710   33.9770   45.2340 C   0  0  0  0  0  0  0  0  0  0  0  0
   44.8250   34.7160   44.4920 N   0  0  0  0  0  0  0  0  0  0  0  0
   46.6090   34.9160   41.7010 H   0  0  0  0  0  0  0  0  0  0  0  0
   45.4280   33.6920   46.2510 H   0  0  0  0  0  0  0  0  0  0  0  0
   47.1190   30.9440   42.6750 Br  0  0  0  0  0  0  0  0  0  0  0  0
   48.6360   32.1000   42.5360 C   0  0  0  0  0  0  0  0  0  0  0  0
   48.5310   33.4150   42.9430 C   0  0  0  0  0  0  0  0  0  0  0  0
   49.6550   34.1850   42.8140 C   0  0  0  0  0  0  0  0  0  0  0  0
   49.6080   35.2130   43.1230 H   0  0  0  0  0  0  0  0  0  0  0  0
   50.8330   33.6710   42.3040 C   0  0  0  0  0  0  0  0  0  0  0  0
   51.6980   34.3360   42.2250 H   0  0  0  0  0  0  0  0  0  0  0  0
   50.8920   32.3500   41.9090 C   0  0  0  0  0  3  0  0  0  0  0  0
   49.7820   31.5310   42.0190 C   0  0  0  0  0  3  0  0  0  0  0  0
   44.2590   35.8610   42.3870 C   0  0  0  0  0  0  0  0  0  0  0  0
   43.2030   35.7870   42.7090 H   0  0  0  0  0  0  0  0  0  0  0  0
   44.3830   35.5550   41.3340 H   0  0  0  0  0  0  0  0  0  0  0  0
   44.6360   36.9030   42.4730 H   0  0  0  0  0  0  0  0  0  0  0  0
  1  6  1  0  0  0  0
  2  1  2  0  0  0  0
  2  3  1  0  0  0  0
  3  4  2  0  0  0  0
  4  5  1  0  0  0  0
  5  8  1  0  0  0  0
  6  5  2  0  0  0  0
  7  2  1  0  0  0  0
 10  9  1  0  0  0  0
 10 11  1  0  0  0  0
 11  3  1  0  0  0  0
 12 11  2  0  0  0  0
 12 13  1  0  0  0  0
 14 12  1  0  0  0  0
 15 14  1  0  0  0  0
 16 17  1  0  0  0  0
 16 14  2  0  0  0  0
 17 10  2  0  0  0  0
 18 21  1  0  0  0  0
 18 19  1  0  0  0  0
 18  1  1  0  0  0  0
 20 18  1  0  0  0  0
M  END
>  <minimizedAffinity>
-4.22744608

>  <minimizedRMSD>
1.85334849

$$$$
