REMARK  Name = 
REMARK  2 active torsions:
REMARK  status: ('A' for Active; 'I' for Inactive)
REMARK    1  A    between atoms: C_5  and  C_9
REMARK    2  A    between atoms: C_13  and  C_22
REMARK                            x       y       z     vdW  Elec       q    Type
REMARK                         _______ _______ _______ _____ _____    ______ ____
ROOT
ATOM      1 BR   UNL     1      44.577  33.137  41.188  0.00  0.00    +0.000 Br
ATOM      2  C   UNL     1      46.283  33.997  40.949  0.00  0.00    +0.000 A 
ATOM      3  C   UNL     1      46.830  34.751  41.969  0.00  0.00    +0.000 A 
ATOM      4  C   UNL     1      48.064  35.375  41.799  0.00  0.00    +0.000 A 
ATOM      5  C   UNL     1      48.712  35.223  40.611  0.00  0.00    +0.000 A 
ATOM      6  C   UNL     1      48.128  34.459  39.616  0.00  0.00    +0.000 A 
ATOM      7  C   UNL     1      46.926  33.834  39.742  0.00  0.00    +0.000 A 
ATOM      8  H   UNL     1      48.430  35.952  42.648  0.00  0.00    +0.000 HD
ATOM      9  H   UNL     1      49.674  35.712  40.486  0.00  0.00    +0.000 HD
ATOM     10  H   UNL     1      48.675  34.362  38.686  0.00  0.00    +0.000 HD
ENDROOT
BRANCH   3  15
ATOM     11  C   UNL     1      45.599  34.036  45.331  0.00  0.00    +0.000 A 
ATOM     12  C   UNL     1      44.700  35.083  45.587  0.00  0.00    +0.000 A 
ATOM     13  C   UNL     1      44.531  36.041  44.569  0.00  0.00    +0.000 A 
ATOM     14  N   UNL     1      45.233  35.898  43.424  0.00  0.00    +0.000 NA
ATOM     15  C   UNL     1      46.092  34.876  43.210  0.00  0.00    +0.000 A 
ATOM     16  N   UNL     1      46.266  33.946  44.180  0.00  0.00    +0.000 NA
ATOM     17  H   UNL     1      45.773  33.261  46.085  0.00  0.00    +0.000 HD
ATOM     18  H   UNL     1      44.164  35.151  46.520  0.00  0.00    +0.000 HD
ATOM     19  H   UNL     1      43.841  36.867  44.734  0.00  0.00    +0.000 HD
ENDBRANCH   3  15
BRANCH   7  22
ATOM     20 BR   UNL     1      48.194  31.000  39.325  0.00  0.00    +0.000 Br
ATOM     21  C   UNL     1      46.717  31.742  38.358  0.00  0.00    +0.000 A 
ATOM     22  C   UNL     1      46.304  33.026  38.698  0.00  0.00    +0.000 A 
ATOM     23  C   UNL     1      45.240  33.582  38.014  0.00  0.00    +0.000 A 
ATOM     24  H   UNL     1      44.857  34.586  38.223  0.00  0.00    +0.000 HD
ATOM     25  C   UNL     1      44.605  32.874  37.014  0.00  0.00    +0.000 A 
ATOM     26  H   UNL     1      43.761  33.312  36.469  0.00  0.00    +0.000 HD
ATOM     27  C   UNL     1      45.037  31.603  36.698  0.00  0.00    +0.000 A 
ATOM     28  C   UNL     1      46.108  31.005  37.366  0.00  0.00    +0.000 A 
ENDBRANCH   7  22
TORSDOF 2
