
 OpenBabel03252503413D

 21 22  0  0  0  0  0  0  0  0999 V2000
   45.2220   34.7810   44.4260 C   0  0  0  0  0  0  0  0  0  0  0  0
   45.2180   35.5410   43.2380 C   0  0  0  0  0  0  0  0  0  0  0  0
   45.3490   34.8420   42.0490 C   0  0  0  0  0  0  0  0  0  0  0  0
   45.4720   33.5010   42.0620 N   0  0  0  0  0  0  0  0  0  0  0  0
   45.4710   32.7990   43.2240 C   0  0  0  0  0  0  0  0  0  0  0  0
   45.3460   33.4410   44.4030 N   0  0  0  0  0  0  0  0  0  0  0  0
   45.1280   35.1890   45.4240 H   0  0  0  0  0  0  0  0  0  0  0  0
   45.3410   35.4770   41.1830 H   0  0  0  0  0  0  0  0  0  0  0  0
   48.4000   31.8910   43.0580 Br  0  0  0  0  0  0  0  0  0  0  0  0
   46.8450   30.7750   43.1160 C   0  0  0  0  0  0  0  0  0  0  0  0
   45.6060   31.3450   43.1890 C   0  0  0  0  0  0  0  0  0  0  0  0
   44.4660   30.5670   43.2310 C   0  0  0  0  0  0  0  0  0  0  0  0
   43.4870   31.0190   43.2890 H   0  0  0  0  0  0  0  0  0  0  0  0
   44.6070   29.1880   43.1980 C   0  0  0  0  0  0  0  0  0  0  0  0
   43.7400   28.5350   43.2300 H   0  0  0  0  0  0  0  0  0  0  0  0
   45.8570   28.6040   43.1230 C   0  0  0  0  0  3  0  0  0  0  0  0
   46.9770   29.4050   43.0830 C   0  0  0  0  0  3  0  0  0  0  0  0
   45.0750   37.0000   43.4250 C   0  0  0  0  0  0  0  0  0  0  0  0
   44.0200   37.2240   43.6290 H   0  0  0  0  0  0  0  0  0  0  0  0
   45.3460   37.5610   42.5140 H   0  0  0  0  0  0  0  0  0  0  0  0
   45.6730   37.3510   44.2950 H   0  0  0  0  0  0  0  0  0  0  0  0
  1  7  1  0  0  0  0
  2 18  1  0  0  0  0
  2  1  2  0  0  0  0
  3  4  2  0  0  0  0
  3  2  1  0  0  0  0
  4  5  1  0  0  0  0
  5  6  2  0  0  0  0
  6  1  1  0  0  0  0
  8  3  1  0  0  0  0
  9 10  1  0  0  0  0
 10 11  1  0  0  0  0
 11  5  1  0  0  0  0
 11 12  2  0  0  0  0
 12 13  1  0  0  0  0
 14 15  1  0  0  0  0
 14 12  1  0  0  0  0
 16 14  2  0  0  0  0
 17 10  2  0  0  0  0
 17 16  1  0  0  0  0
 18 19  1  0  0  0  0
 18 21  1  0  0  0  0
 20 18  1  0  0  0  0
M  END
>  <minimizedAffinity>
-2.59355998

>  <minimizedRMSD>
4.32810879

$$$$
