
 OpenBabel03242521393D

 21 22  0  0  0  0  0  0  0  0999 V2000
   45.1980   35.1090   43.2010 C   0  0  0  0  0  0  0  0  0  0  0  0
   46.4090   34.6910   42.6570 C   0  0  0  0  0  0  0  0  0  0  0  0
   47.2610   33.9000   43.4330 C   0  0  0  0  0  0  0  0  0  0  0  0
   46.8440   33.5900   44.6780 N   0  0  0  0  0  0  0  0  0  0  0  0
   45.6630   34.0120   45.1790 C   0  0  0  0  0  0  0  0  0  0  0  0
   44.8380   34.7740   44.4370 N   0  0  0  0  0  0  0  0  0  0  0  0
   46.6590   34.9780   41.6700 H   0  0  0  0  0  0  0  0  0  0  0  0
   45.4030   33.7190   46.1900 H   0  0  0  0  0  0  0  0  0  0  0  0
   47.0960   30.9850   42.6110 Br  0  0  0  0  0  0  0  0  0  0  0  0
   48.6310   32.1190   42.4980 C   0  0  0  0  0  0  0  0  0  0  0  0
   48.5420   33.4310   42.9160 C   0  0  0  0  0  0  0  0  0  0  0  0
   49.6780   34.1850   42.8070 C   0  0  0  0  0  0  0  0  0  0  0  0
   49.6440   35.2110   43.1240 H   0  0  0  0  0  0  0  0  0  0  0  0
   50.8530   33.6590   42.3050 C   0  0  0  0  0  0  0  0  0  0  0  0
   51.7280   34.3110   42.2410 H   0  0  0  0  0  0  0  0  0  0  0  0
   50.8970   32.3410   41.8980 C   0  0  0  0  0  3  0  0  0  0  0  0
   49.7740   31.5370   41.9880 C   0  0  0  0  0  3  0  0  0  0  0  0
   44.3160   35.9530   42.3400 C   0  0  0  0  0  0  0  0  0  0  0  0
   43.2560   35.8930   42.6480 H   0  0  0  0  0  0  0  0  0  0  0  0
   44.4480   35.6580   41.2840 H   0  0  0  0  0  0  0  0  0  0  0  0
   44.7090   36.9870   42.4430 H   0  0  0  0  0  0  0  0  0  0  0  0
  1  6  1  0  0  0  0
  2  1  2  0  0  0  0
  2  3  1  0  0  0  0
  3  4  2  0  0  0  0
  4  5  1  0  0  0  0
  5  8  1  0  0  0  0
  6  5  2  0  0  0  0
  7  2  1  0  0  0  0
 10  9  1  0  0  0  0
 10 11  1  0  0  0  0
 11  3  1  0  0  0  0
 12 11  2  0  0  0  0
 12 13  1  0  0  0  0
 14 12  1  0  0  0  0
 15 14  1  0  0  0  0
 16 17  1  0  0  0  0
 16 14  2  0  0  0  0
 17 10  2  0  0  0  0
 18 21  1  0  0  0  0
 18 19  1  0  0  0  0
 18  1  1  0  0  0  0
 20 18  1  0  0  0  0
M  END
>  <minimizedAffinity>
-4.22975016

>  <minimizedRMSD>
1.7733438

$$$$
