
 OpenBabel03242513313D

 37 40  0  0  0  0  0  0  0  0999 V2000
   46.3810   33.5100   41.1770 C   0  0  0  0  0  0  0  0  0  0  0  0
   46.7950   34.5680   41.9810 C   0  0  0  0  0  0  0  0  0  0  0  0
   47.8590   35.2880   41.5660 C   0  0  0  0  0  0  0  0  0  0  0  0
   48.5290   35.0040   40.3920 C   0  0  0  0  0  0  0  0  0  0  0  0
   48.1140   33.9560   39.6020 C   0  0  0  0  0  0  0  0  0  0  0  0
   47.0180   33.1810   39.9880 C   0  0  0  0  0  0  0  0  0  0  0  0
   48.1570   36.1090   42.2180 H   0  0  0  0  0  0  0  0  0  0  0  0
   49.3630   35.6450   40.1610 H   0  0  0  0  0  0  0  0  0  0  0  0
   48.6470   33.7400   38.6780 H   0  0  0  0  0  0  0  0  0  0  0  0
   44.5360   36.0890   44.5920 C   0  0  0  0  0  0  0  0  0  0  0  0
   45.2350   35.8920   43.3960 C   0  0  0  0  0  0  0  0  0  0  0  0
   46.0520   34.8130   43.1980 C   0  0  0  0  0  0  0  0  0  0  0  0
   46.1220   33.9550   44.2620 N   0  0  0  0  0  0  0  0  0  0  0  0
   45.4530   34.1330   45.4200 C   0  0  0  0  0  0  0  0  0  0  0  0
   44.6580   35.2080   45.5800 N   0  0  0  0  0  0  0  0  0  0  0  0
   43.8960   36.9550   44.7190 H   0  0  0  0  0  0  0  0  0  0  0  0
   45.1410   36.6100   42.5840 H   0  0  0  0  0  0  0  0  0  0  0  0
   45.6510   33.3280   46.1370 H   0  0  0  0  0  0  0  0  0  0  0  0
   45.2960   32.7350   41.5470 O   0  0  0  0  0  0  0  0  0  0  0  0
   44.6270   32.4390   40.8340 H   0  0  0  0  0  0  0  0  0  0  0  0
   46.5770   32.1320   39.2300 O   0  0  0  0  0  0  0  0  0  0  0  0
   46.6860   32.0150   37.8830 C   0  0  0  0  0  0  0  0  0  0  0  0
   46.4970   32.9490   36.8880 C   0  0  0  0  0  0  0  0  0  0  0  0
   46.6690   32.5840   35.5940 C   0  0  0  0  0  0  0  0  0  0  0  0
   47.0390   31.2330   35.3570 C   0  0  0  0  0  0  0  0  0  0  0  0
   47.1330   30.5160   37.0120 S   0  0  0  0  0  0  0  0  0  0  0  0
   46.2180   33.9480   37.1670 H   0  0  0  0  0  0  0  0  0  0  0  0
   46.5530   33.2080   34.7290 H   0  0  0  0  0  0  0  0  0  0  0  0
   50.0700   31.0620   34.8090 Br  0  0  0  0  0  0  0  0  0  0  0  0
   48.6270   30.3870   33.7750 C   0  0  0  0  0  0  0  0  0  0  0  0
   47.2980   30.5210   34.1160 C   0  0  0  0  0  0  0  0  0  0  0  0
   46.2110   30.0760   33.4440 C   0  0  0  0  0  0  0  0  0  0  0  0
   45.1980   30.2190   33.7740 H   0  0  0  0  0  0  0  0  0  0  0  0
   46.4600   29.3900   32.2490 C   0  0  0  0  0  0  0  0  0  0  0  0
   45.6750   29.0030   31.6510 H   0  0  0  0  0  0  0  0  0  0  0  0
   47.7820   29.2100   31.8290 C   0  0  0  0  0  3  0  0  0  0  0  0
   48.8590   29.7000   32.5780 C   0  0  0  0  0  3  0  0  0  0  0  0
  1 19  1  0  0  0  0
  1  2  1  0  0  0  0
  2 12  1  0  0  0  0
  3  2  2  0  0  0  0
  3  7  1  0  0  0  0
  4  3  1  0  0  0  0
  5  6  1  0  0  0  0
  5  4  2  0  0  0  0
  6  1  2  0  0  0  0
  8  4  1  0  0  0  0
  9  5  1  0  0  0  0
 10 16  1  0  0  0  0
 10 15  1  0  0  0  0
 11 10  2  0  0  0  0
 12 11  1  0  0  0  0
 12 13  2  0  0  0  0
 13 14  1  0  0  0  0
 14 15  2  0  0  0  0
 14 18  1  0  0  0  0
 17 11  1  0  0  0  0
 20 19  1  0  0  0  0
 21  6  1  0  0  0  0
 22 21  1  0  0  0  0
 23 27  1  0  0  0  0
 23 22  2  0  0  0  0
 24 23  1  0  0  0  0
 25 24  2  0  0  0  0
 25 26  1  0  0  0  0
 26 22  1  0  0  0  0
 28 24  1  0  0  0  0
 30 31  1  0  0  0  0
 30 29  1  0  0  0  0
 31 25  1  0  0  0  0
 32 33  1  0  0  0  0
 32 31  2  0  0  0  0
 34 32  1  0  0  0  0
 35 34  1  0  0  0  0
 36 34  2  0  0  0  0
 36 37  1  0  0  0  0
 37 30  2  0  0  0  0
M  END
>  <minimizedAffinity>
-5.76749945

>  <minimizedRMSD>
1.08775496

$$$$
