
 OpenBabel03242521403D

 21 22  0  0  0  0  0  0  0  0999 V2000
   44.8940   34.6610   43.9650 C   0  0  0  0  0  0  0  0  0  0  0  0
   44.5290   34.4720   42.6350 C   0  0  0  0  0  0  0  0  0  0  0  0
   44.7600   33.2280   42.0410 C   0  0  0  0  0  0  0  0  0  0  0  0
   45.3310   32.2780   42.8100 N   0  0  0  0  0  0  0  0  0  0  0  0
   45.6750   32.4910   44.0990 C   0  0  0  0  0  0  0  0  0  0  0  0
   45.4560   33.6870   44.6770 N   0  0  0  0  0  0  0  0  0  0  0  0
   44.0840   35.2710   42.1030 H   0  0  0  0  0  0  0  0  0  0  0  0
   46.1310   31.6740   44.6470 H   0  0  0  0  0  0  0  0  0  0  0  0
   42.0810   31.8180   41.8620 Br  0  0  0  0  0  0  0  0  0  0  0  0
   43.2000   32.3330   40.4000 C   0  0  0  0  0  0  0  0  0  0  0  0
   44.3970   32.9720   40.6510 C   0  0  0  0  0  0  0  0  0  0  0  0
   45.1480   33.3130   39.5590 C   0  0  0  0  0  0  0  0  0  0  0  0
   46.0860   33.8120   39.7190 H   0  0  0  0  0  0  0  0  0  0  0  0
   44.7280   33.0320   38.2720 C   0  0  0  0  0  0  0  0  0  0  0  0
   45.3700   33.3290   37.4400 H   0  0  0  0  0  0  0  0  0  0  0  0
   43.5220   32.3910   38.0680 C   0  0  0  0  0  3  0  0  0  0  0  0
   42.7280   32.0270   39.1410 C   0  0  0  0  0  3  0  0  0  0  0  0
   44.6310   36.0040   44.5630 C   0  0  0  0  0  0  0  0  0  0  0  0
   44.5480   35.9570   45.6650 H   0  0  0  0  0  0  0  0  0  0  0  0
   43.7220   36.4340   44.1080 H   0  0  0  0  0  0  0  0  0  0  0  0
   45.4870   36.6380   44.2480 H   0  0  0  0  0  0  0  0  0  0  0  0
  1 18  1  0  0  0  0
  1  6  1  0  0  0  0
  2  1  2  0  0  0  0
  3  2  1  0  0  0  0
  3  4  2  0  0  0  0
  4  5  1  0  0  0  0
  5  8  1  0  0  0  0
  5  6  2  0  0  0  0
  7  2  1  0  0  0  0
 10 11  1  0  0  0  0
 10  9  1  0  0  0  0
 11  3  1  0  0  0  0
 12 13  1  0  0  0  0
 12 11  2  0  0  0  0
 14 12  1  0  0  0  0
 15 14  1  0  0  0  0
 16 14  2  0  0  0  0
 16 17  1  0  0  0  0
 17 10  2  0  0  0  0
 18 19  1  0  0  0  0
 20 18  1  0  0  0  0
 21 18  1  0  0  0  0
M  END
>  <minimizedAffinity>
-2.96972585

>  <minimizedRMSD>
4.88423395

$$$$
