REMARK  Name = 
REMARK  2 active torsions:
REMARK  status: ('A' for Active; 'I' for Inactive)
REMARK    1  A    between atoms: C_1  and  C_7
REMARK    2  A    between atoms: C_3  and  C_15
REMARK                            x       y       z     vdW  Elec       q    Type
REMARK                         _______ _______ _______ _____ _____    ______ ____
ROOT
ATOM      1  C   UNL     1      45.437  35.066  43.999  0.00  0.00    +0.000 A 
ATOM      2  C   UNL     1      46.492  34.295  43.520  0.00  0.00    +0.000 A 
ATOM      3  C   UNL     1      47.018  33.289  44.335  0.00  0.00    +0.000 A 
ATOM      4  N   UNL     1      46.458  33.130  45.552  0.00  0.00    +0.000 NA
ATOM      5  C   UNL     1      45.434  33.895  45.990  0.00  0.00    +0.000 A 
ATOM      6  N   UNL     1      44.923  34.866  45.210  0.00  0.00    +0.000 NA
ATOM      7  H   UNL     1      46.873  34.485  42.551  0.00  0.00    +0.000 HD
ATOM      8  H   UNL     1      45.041  33.703  46.982  0.00  0.00    +0.000 HD
ENDROOT
BRANCH   3  11
ATOM      9 BR   UNL     1      48.813  34.798  42.412  0.00  0.00    +0.000 Br
ATOM     10  C   UNL     1      49.033  32.994  43.003  0.00  0.00    +0.000 A 
ATOM     11  C   UNL     1      48.123  32.449  43.886  0.00  0.00    +0.000 A 
ATOM     12  C   UNL     1      48.342  31.153  44.266  0.00  0.00    +0.000 A 
ATOM     13  H   UNL     1      47.652  30.699  44.953  0.00  0.00    +0.000 HD
ATOM     14  C   UNL     1      49.419  30.429  43.790  0.00  0.00    +0.000 A 
ATOM     15  H   UNL     1      49.541  29.397  44.130  0.00  0.00    +0.000 HD
ATOM     16  C   UNL     1      50.305  31.013  42.908  0.00  0.00    +0.000 A 
ATOM     17  C   UNL     1      50.126  32.322  42.494  0.00  0.00    +0.000 A 
ENDBRANCH   3  11
BRANCH   1  18
ATOM     18  C   UNL     1      44.903  36.131  43.098  0.00  0.00    +0.000 C 
ATOM     19  H   UNL     1      43.859  36.398  43.346  0.00  0.00    +0.000 HD
ATOM     20  H   UNL     1      44.998  35.802  42.049  0.00  0.00    +0.000 HD
ATOM     21  H   UNL     1      45.585  36.998  43.233  0.00  0.00    +0.000 HD
ENDBRANCH   1  18
TORSDOF 2
