
     RDKit          3D

 47 51  0  0  0  0  0  0  0  0999 V2000
   45.1462   36.0078   43.4743 C   0  0  0  0  0  0  0  0  0  0  0  0
   45.9380   34.8920   43.2391 C   0  0  0  0  0  0  0  0  0  0  0  0
   46.0646   33.9689   44.2438 C   0  0  0  0  0  0  0  0  0  0  0  0
   45.4132   34.1848   45.4281 N   0  0  0  0  0  0  0  0  0  0  0  0
   44.6521   35.2770   45.6279 C   0  0  0  0  0  0  0  0  0  0  0  0
   44.5243   36.1678   44.6653 N   0  0  0  0  0  0  0  0  0  0  0  0
   46.5747   34.7878   42.0030 N   0  0  0  0  0  0  0  0  0  0  0  0
   47.8854   35.2623   41.7682 C   0  0  0  0  0  0  0  0  0  0  0  0
   48.4526   34.9101   40.4149 C   0  0  0  0  0  0  0  0  0  0  0  0
   48.1437   33.6218   39.9320 N   0  0  0  0  0  0  0  0  0  0  0  0
   46.8459   33.1587   40.1719 C   0  0  0  0  0  0  0  0  0  0  0  0
   45.9826   34.2077   40.8454 C   0  0  0  0  0  0  0  0  0  0  0  0
   46.4674   32.0179   45.4998 C   0  0  0  0  0  0  0  0  0  0  0  0
   46.7613   32.7482   44.3277 C   0  0  0  0  0  0  0  0  0  0  0  0
   47.7149   32.0871   43.5765 C   0  0  0  0  0  0  0  0  0  0  0  0
   48.3128   30.9061   43.8841 C   0  0  0  0  0  0  0  0  0  0  0  0
   47.9728   30.2630   45.0514 C   0  0  0  0  0  0  0  0  0  0  0  0
   47.0394   30.8148   45.8738 C   0  0  0  0  0  0  0  0  0  0  0  0
   48.7516   29.1273   45.0729 O   0  0  0  0  0  0  0  0  0  0  0  0
   49.5288   29.0407   43.9048 C   0  0  1  0  0  0  0  0  0  0  0  0
   49.2638   30.2199   43.1440 O   0  0  0  0  0  0  0  0  0  0  0  0
   45.0182   36.7647   42.7025 H   0  0  0  0  0  0  0  0  0  0  0  0
   44.1086   35.5183   46.5300 H   0  0  0  0  0  0  0  0  0  0  0  0
   47.8204   36.3879   41.7797 H   0  0  0  0  0  0  0  0  0  0  0  0
   48.6267   35.0375   42.5647 H   0  0  0  0  0  0  0  0  0  0  0  0
   49.5596   34.9970   40.4860 H   0  0  0  0  0  0  0  0  0  0  0  0
   48.1442   35.6706   39.6426 H   0  0  0  0  0  0  0  0  0  0  0  0
   48.8684   32.9394   40.2814 H   0  0  0  0  0  0  0  0  0  0  0  0
   46.7740   32.1741   40.6756 H   0  0  0  0  0  0  0  0  0  0  0  0
   46.3342   32.9800   39.1778 H   0  0  0  0  0  0  0  0  0  0  0  0
   44.9757   33.7750   41.0106 H   0  0  0  0  0  0  0  0  0  0  0  0
   45.8356   35.0417   40.1086 H   0  0  0  0  0  0  0  0  0  0  0  0
   45.7480   32.2435   46.3153 H   0  0  0  0  0  0  0  0  0  0  0  0
   47.9387   32.6272   42.7114 H   0  0  0  0  0  0  0  0  0  0  0  0
   46.8440   30.2448   46.7414 H   0  0  0  0  0  0  0  0  0  0  0  0
   49.1188   28.1764   43.3067 H   0  0  0  0  0  0  0  0  0  0  0  0
   51.2978   28.1195   41.4627 Br  0  0  0  0  0  0  0  0  0  0  0  0
   51.9344   28.5309   43.2084 C   0  0  0  0  0  0  0  0  0  0  0  0
   50.9761   28.9156   44.1273 C   0  0  0  0  0  0  0  0  0  0  0  0
   51.4061   29.2233   45.4119 C   0  0  0  0  0  0  0  0  0  0  0  0
   50.7719   29.5410   46.2430 H   0  0  0  0  0  0  0  0  0  0  0  0
   52.7541   29.1483   45.7662 C   0  0  0  0  0  0  0  0  0  0  0  0
   53.1103   29.3844   46.7639 H   0  0  0  0  0  0  0  0  0  0  0  0
   53.7231   28.7609   44.8422 C   0  0  0  0  0  0  0  0  0  0  0  0
   53.2714   28.4569   43.5609 C   0  0  0  0  0  0  0  0  0  0  0  0
   54.7705   28.6791   45.0341 H   0  0  0  0  0  0  0  0  0  0  0  0
   53.9423   28.1393   42.7468 H   0  0  0  0  0  0  0  0  0  0  0  0
  1  6  2  0
  2  1  1  0
  2  3  2  0
  3 14  1  0
  3  4  1  0
  4  5  2  0
  6  5  1  0
  7  2  1  0
  8  7  1  0
  9  8  1  0
 10 11  1  0
 10  9  1  0
 11 12  1  0
 12  7  1  0
 13 18  2  0
 14 13  1  0
 15 16  1  0
 15 14  2  0
 16 17  2  0
 17 19  1  0
 17 18  1  0
 20 19  1  0
 21 16  1  0
 21 20  1  0
  1 22  1  0
  5 23  1  0
  8 24  1  0
  8 25  1  0
  9 26  1  0
  9 27  1  0
 10 28  1  0
 11 29  1  0
 11 30  1  0
 12 31  1  0
 12 32  1  0
 13 33  1  0
 15 34  1  0
 18 35  1  0
 20 36  1  6
 37 38  1  0
 38 39  2  0
 39 40  1  0
 40 41  1  0
 40 42  2  0
 42 43  1  0
 42 44  1  0
 44 45  2  0
 45 38  1  0
 44 46  1  0
 45 47  1  0
 20 39  1  0
M  ISO  8  22  14  23  14  24  13  25  13  26  13  27  13  28   5  29  13
M  ISO  8  30  13  31  13  32  13  33  14  34  14  35  14  36  13  41  15
M  ISO  1  43  16
M  END
>  <DihAtoms>  (1) 
18,19,38,37

>  <DihDeg>  (1) 
-135.0000349357886

$$$$
