
 OpenBabel03252502533D

 31 33  0  0  0  0  0  0  0  0999 V2000
   47.0050   31.2800   42.8870 Br  0  0  0  0  0  0  0  0  0  0  0  0
   48.9020   30.9490   42.7250 C   0  0  0  0  0  0  0  0  0  0  0  0
   49.4590   30.1490   43.6980 C   0  0  0  0  0  0  0  0  0  0  0  0
   50.8390   29.9310   43.5460 C   0  0  0  0  0  0  0  0  0  0  0  0
   51.5750   30.4720   42.5120 C   0  0  0  0  0  0  0  0  0  0  0  0
   50.9510   31.2560   41.5850 C   0  0  0  0  0  0  0  0  0  0  0  0
   49.5820   31.5140   41.6750 C   0  0  0  0  0  0  0  0  0  0  0  0
   51.3770   29.3170   44.2560 H   0  0  0  0  0  0  0  0  0  0  0  0
   52.6370   30.2690   42.4470 H   0  0  0  0  0  0  0  0  0  0  0  0
   51.4980   31.6980   40.7580 H   0  0  0  0  0  0  0  0  0  0  0  0
   49.6560   34.4080   42.5660 Br  0  0  0  0  0  0  0  0  0  0  0  0
   48.8660   33.7040   40.9570 C   0  0  0  0  0  0  0  0  0  0  0  0
   48.9140   32.3490   40.6880 C   0  0  0  0  0  0  0  0  0  0  0  0
   48.3440   31.8280   39.5220 C   0  0  0  0  0  0  0  0  0  0  0  0
   48.3960   30.7640   39.3380 H   0  0  0  0  0  0  0  0  0  0  0  0
   47.7380   32.7260   38.6650 C   0  0  0  0  0  0  0  0  0  0  0  0
   47.2930   32.3040   37.7510 H   0  0  0  0  0  0  0  0  0  0  0  0
   47.6910   34.0780   38.9340 C   0  0  0  0  0  3  0  0  0  0  0  0
   48.2510   34.5990   40.0810 C   0  0  0  0  0  3  0  0  0  0  0  0
   48.7660   29.5280   44.8350 C   0  0  0  0  0  0  0  0  0  0  0  0
   47.9650   30.2530   45.1470 H   0  0  0  0  0  0  0  0  0  0  0  0
   49.4330   29.2750   45.6830 H   0  0  0  0  0  0  0  0  0  0  0  0
   47.8480   26.2710   43.2640 C   0  0  0  0  0  0  0  0  0  0  0  0
   46.6560   25.9630   43.9420 C   0  0  0  0  0  0  0  0  0  0  0  0
   46.2010   26.8480   44.8960 C   0  0  0  0  0  0  0  0  0  0  0  0
   46.9120   27.9870   45.1530 N   0  0  0  0  0  0  0  0  0  0  0  0
   48.0710   28.2580   44.4740 C   0  0  0  0  0  0  0  0  0  0  0  0
   48.5060   27.3910   43.5480 N   0  0  0  0  0  0  0  0  0  0  0  0
   48.3250   25.6700   42.4920 H   0  0  0  0  0  0  0  0  0  0  0  0
   46.1850   25.0370   43.6540 H   0  0  0  0  0  0  0  0  0  0  0  0
   45.2900   26.6050   45.4090 H   0  0  0  0  0  0  0  0  0  0  0  0
  2  1  1  0  0  0  0
  2  3  1  0  0  0  0
  3 20  1  0  0  0  0
  4  3  2  0  0  0  0
  4  8  1  0  0  0  0
  5  4  1  0  0  0  0
  6  7  1  0  0  0  0
  6  5  2  0  0  0  0
  7  2  2  0  0  0  0
  9  5  1  0  0  0  0
 10  6  1  0  0  0  0
 12 11  1  0  0  0  0
 13 12  1  0  0  0  0
 13  7  1  0  0  0  0
 14 13  2  0  0  0  0
 15 14  1  0  0  0  0
 16 18  2  0  0  0  0
 16 14  1  0  0  0  0
 17 16  1  0  0  0  0
 18 19  1  0  0  0  0
 19 12  2  0  0  0  0
 20 21  1  0  0  0  0
 20 22  1  0  0  0  0
 23 28  2  0  0  0  0
 23 24  1  0  0  0  0
 24 25  2  0  0  0  0
 25 26  1  0  0  0  0
 25 31  1  0  0  0  0
 27 20  1  0  0  0  0
 27 26  2  0  0  0  0
 28 27  1  0  0  0  0
 29 23  1  0  0  0  0
 30 24  1  0  0  0  0
M  END
>  <minimizedAffinity>
-3.03300166

>  <minimizedRMSD>
8.62101173

$$$$
