
 OpenBabel03242510433D

 41 44  0  0  0  0  0  0  0  0999 V2000
   41.9660   31.0740   41.1510 Cl  0  0  0  0  0  0  0  0  0  0  0  0
   40.7040   32.2730   40.8280 C   0  0  0  0  0  0  0  0  0  0  0  0
   39.3960   31.8260   40.7380 C   0  0  0  0  0  0  0  0  0  0  0  0
   38.4390   32.7480   40.4920 C   0  0  0  0  0  0  0  0  0  0  0  0
   38.8090   34.0970   40.3400 C   0  0  0  0  0  0  0  0  0  0  0  0
   40.1160   34.5180   40.4320 C   0  0  0  0  0  0  0  0  0  0  0  0
   41.1130   33.5780   40.6860 C   0  0  0  0  0  0  0  0  0  0  0  0
   37.4230   32.4100   40.4220 H   0  0  0  0  0  0  0  0  0  0  0  0
   38.0130   34.8130   40.1420 H   0  0  0  0  0  0  0  0  0  0  0  0
   40.3860   35.5590   40.3130 H   0  0  0  0  0  0  0  0  0  0  0  0
   42.6160   33.3890   38.4200 F   0  0  0  0  0  0  0  0  0  0  0  0
   43.1850   33.8120   39.5840 C   0  0  0  0  0  0  0  0  0  0  0  0
   42.5260   33.9480   40.7970 C   0  0  0  0  0  0  0  0  0  0  0  0
   43.2050   34.3840   41.9070 C   0  0  0  0  0  0  0  0  0  0  0  0
   44.5390   34.6870   41.8180 C   0  0  0  0  0  0  0  0  0  0  0  0
   45.2270   34.5610   40.6180 C   0  0  0  0  0  0  0  0  0  0  0  0
   44.5390   34.1180   39.4900 C   0  0  0  0  0  0  0  0  0  0  0  0
   42.5920   34.4520   42.7970 H   0  0  0  0  0  0  0  0  0  0  0  0
   45.0300   35.0260   42.7200 H   0  0  0  0  0  0  0  0  0  0  0  0
   46.2810   34.8060   40.5790 H   0  0  0  0  0  0  0  0  0  0  0  0
   45.0930   34.0240   38.5580 H   0  0  0  0  0  0  0  0  0  0  0  0
   39.1010   28.2520   40.1020 C   0  0  0  0  0  0  0  0  0  0  0  0
   38.5200   27.7390   41.2810 C   0  0  0  0  0  0  0  0  0  0  0  0
   38.2350   28.6740   42.2980 C   0  0  0  0  0  0  0  0  0  0  0  0
   38.5360   29.9790   42.0780 N   0  0  0  0  0  0  0  0  0  0  0  0
   39.1010   30.4080   40.9090 C   0  0  0  0  0  0  0  0  0  0  0  0
   39.3740   29.5420   39.9450 N   0  0  0  0  0  0  0  0  0  0  0  0
   39.3420   27.5830   39.2860 H   0  0  0  0  0  0  0  0  0  0  0  0
   40.7520   25.8360   42.4860 Br  0  0  0  0  0  0  0  0  0  0  0  0
   39.0480   25.2870   41.8040 C   0  0  0  0  0  0  0  0  0  0  0  0
   38.2860   26.3170   41.3310 C   0  0  0  0  0  0  0  0  0  0  0  0
   37.0310   26.0040   40.8000 C   0  0  0  0  0  0  0  0  0  0  0  0
   36.2990   26.7090   40.3800 H   0  0  0  0  0  0  0  0  0  0  0  0
   36.5740   24.6810   40.7560 C   0  0  0  0  0  0  0  0  0  0  0  0
   35.6090   24.4110   40.3510 H   0  0  0  0  0  0  0  0  0  0  0  0
   37.3670   23.6610   41.2420 C   0  0  0  0  0  3  0  0  0  0  0  0
   38.5970   23.9850   41.7610 C   0  0  0  0  0  3  0  0  0  0  0  0
   37.6300   28.1130   43.4930 C   0  0  0  0  0  0  0  0  0  0  0  0
   37.3240   29.1500   44.3720 F   0  0  0  0  0  0  0  0  0  0  0  0
   38.5990   27.3760   44.1250 F   0  0  0  0  0  0  0  0  0  0  0  0
   36.4770   27.4120   43.2620 F   0  0  0  0  0  0  0  0  0  0  0  0
  2  1  1  0  0  0  0
  3  2  1  0  0  0  0
  3 26  1  0  0  0  0
  4  3  2  0  0  0  0
  5  6  2  0  0  0  0
  5  4  1  0  0  0  0
  6  7  1  0  0  0  0
  7 13  1  0  0  0  0
  7  2  2  0  0  0  0
  8  4  1  0  0  0  0
  9  5  1  0  0  0  0
 10  6  1  0  0  0  0
 11 12  1  0  0  0  0
 12 13  1  0  0  0  0
 13 14  2  0  0  0  0
 14 18  1  0  0  0  0
 15 14  1  0  0  0  0
 15 19  1  0  0  0  0
 16 15  2  0  0  0  0
 17 12  2  0  0  0  0
 17 16  1  0  0  0  0
 20 16  1  0  0  0  0
 21 17  1  0  0  0  0
 22 23  1  0  0  0  0
 23 31  1  0  0  0  0
 23 24  2  0  0  0  0
 24 38  1  0  0  0  0
 25 24  1  0  0  0  0
 26 25  2  0  0  0  0
 27 22  2  0  0  0  0
 27 26  1  0  0  0  0
 28 22  1  0  0  0  0
 30 29  1  0  0  0  0
 31 30  2  0  0  0  0
 32 31  1  0  0  0  0
 33 32  1  0  0  0  0
 34 32  2  0  0  0  0
 34 36  1  0  0  0  0
 35 34  1  0  0  0  0
 36 37  2  0  0  0  0
 37 30  1  0  0  0  0
 38 40  1  0  0  0  0
 38 39  1  0  0  0  0
 41 38  1  0  0  0  0
M  END
>  <minimizedAffinity>
-7.09207869

$$$$

 OpenBabel03242510433D

 41 44  0  0  0  0  0  0  0  0999 V2000
   41.9500   31.2000   40.1860 Cl  0  0  0  0  0  0  0  0  0  0  0  0
   40.8580   32.5830   40.3600 C   0  0  0  0  0  0  0  0  0  0  0  0
   39.5290   32.3240   40.6520 C   0  0  0  0  0  0  0  0  0  0  0  0
   38.7030   33.3850   40.7840 C   0  0  0  0  0  0  0  0  0  0  0  0
   39.2210   34.6830   40.6210 C   0  0  0  0  0  0  0  0  0  0  0  0
   40.5460   34.9170   40.3300 C   0  0  0  0  0  0  0  0  0  0  0  0
   41.4100   33.8310   40.1920 C   0  0  0  0  0  0  0  0  0  0  0  0
   37.6710   33.1930   41.0110 H   0  0  0  0  0  0  0  0  0  0  0  0
   38.5290   35.5150   40.7340 H   0  0  0  0  0  0  0  0  0  0  0  0
   40.9320   35.9200   40.2080 H   0  0  0  0  0  0  0  0  0  0  0  0
   43.0830   34.2600   42.2990 F   0  0  0  0  0  0  0  0  0  0  0  0
   43.5800   34.2090   41.0320 C   0  0  0  0  0  0  0  0  0  0  0  0
   42.8320   33.9980   39.8830 C   0  0  0  0  0  0  0  0  0  0  0  0
   43.4430   33.9670   38.6550 C   0  0  0  0  0  0  0  0  0  0  0  0
   44.7990   34.1450   38.5620 C   0  0  0  0  0  0  0  0  0  0  0  0
   45.5770   34.3590   39.6920 C   0  0  0  0  0  0  0  0  0  0  0  0
   44.9570   34.3910   40.9400 C   0  0  0  0  0  0  0  0  0  0  0  0
   42.7630   33.7960   37.8310 H   0  0  0  0  0  0  0  0  0  0  0  0
   45.2350   34.1120   37.5720 H   0  0  0  0  0  0  0  0  0  0  0  0
   46.6460   34.4970   39.5870 H   0  0  0  0  0  0  0  0  0  0  0  0
   45.5810   34.5600   41.8170 H   0  0  0  0  0  0  0  0  0  0  0  0
   39.3920   28.8120   41.6080 C   0  0  0  0  0  0  0  0  0  0  0  0
   38.1760   28.3530   41.0610 C   0  0  0  0  0  0  0  0  0  0  0  0
   37.4100   29.3020   40.3520 C   0  0  0  0  0  0  0  0  0  0  0  0
   37.8850   30.5680   40.2480 N   0  0  0  0  0  0  0  0  0  0  0  0
   39.0750   30.9470   40.8040 C   0  0  0  0  0  0  0  0  0  0  0  0
   39.8060   30.0670   41.4730 N   0  0  0  0  0  0  0  0  0  0  0  0
   40.0240   28.1300   42.1630 H   0  0  0  0  0  0  0  0  0  0  0  0
   36.5730   27.5580   43.6790 Br  0  0  0  0  0  0  0  0  0  0  0  0
   37.1480   26.3600   42.3000 C   0  0  0  0  0  0  0  0  0  0  0  0
   37.8340   26.9710   41.2900 C   0  0  0  0  0  0  0  0  0  0  0  0
   38.3060   26.1670   40.2470 C   0  0  0  0  0  0  0  0  0  0  0  0
   38.8720   26.4980   39.3650 H   0  0  0  0  0  0  0  0  0  0  0  0
   38.0800   24.7850   40.2410 C   0  0  0  0  0  0  0  0  0  0  0  0
   38.4330   24.1400   39.4490 H   0  0  0  0  0  0  0  0  0  0  0  0
   37.3830   24.1960   41.2760 C   0  0  0  0  0  3  0  0  0  0  0  0
   36.9260   24.9990   42.2930 C   0  0  0  0  0  3  0  0  0  0  0  0
   36.1680   28.7930   39.7960 C   0  0  0  0  0  0  0  0  0  0  0  0
   35.5430   29.8140   39.0830 F   0  0  0  0  0  0  0  0  0  0  0  0
   35.3350   28.5260   40.8530 F   0  0  0  0  0  0  0  0  0  0  0  0
   36.3270   27.7310   38.9460 F   0  0  0  0  0  0  0  0  0  0  0  0
  1  2  1  0  0  0  0
  2  3  1  0  0  0  0
  3  4  2  0  0  0  0
  3 26  1  0  0  0  0
  4  8  1  0  0  0  0
  5  9  1  0  0  0  0
  5  4  1  0  0  0  0
  6  5  2  0  0  0  0
  7  6  1  0  0  0  0
  7  2  2  0  0  0  0
 10  6  1  0  0  0  0
 12 11  1  0  0  0  0
 13  7  1  0  0  0  0
 13 12  2  0  0  0  0
 14 13  1  0  0  0  0
 15 14  2  0  0  0  0
 15 16  1  0  0  0  0
 16 17  2  0  0  0  0
 17 12  1  0  0  0  0
 17 21  1  0  0  0  0
 18 14  1  0  0  0  0
 19 15  1  0  0  0  0
 20 16  1  0  0  0  0
 22 28  1  0  0  0  0
 23 31  1  0  0  0  0
 23 22  2  0  0  0  0
 24 23  1  0  0  0  0
 25 24  2  0  0  0  0
 25 26  1  0  0  0  0
 26 27  2  0  0  0  0
 27 22  1  0  0  0  0
 30 29  1  0  0  0  0
 31 30  2  0  0  0  0
 32 31  1  0  0  0  0
 33 32  1  0  0  0  0
 34 32  2  0  0  0  0
 34 36  1  0  0  0  0
 35 34  1  0  0  0  0
 36 37  2  0  0  0  0
 37 30  1  0  0  0  0
 38 24  1  0  0  0  0
 38 40  1  0  0  0  0
 39 38  1  0  0  0  0
 41 38  1  0  0  0  0
M  END
>  <minimizedAffinity>
-7.0532589

$$$$

 OpenBabel03242510433D

 41 44  0  0  0  0  0  0  0  0999 V2000
   38.5030   27.1410   39.7110 Cl  0  0  0  0  0  0  0  0  0  0  0  0
   37.8380   27.2930   41.3450 C   0  0  0  0  0  0  0  0  0  0  0  0
   37.9590   28.5180   41.9800 C   0  0  0  0  0  0  0  0  0  0  0  0
   37.4470   28.6250   43.2270 C   0  0  0  0  0  0  0  0  0  0  0  0
   36.8280   27.5070   43.8130 C   0  0  0  0  0  0  0  0  0  0  0  0
   36.7200   26.2980   43.1630 C   0  0  0  0  0  0  0  0  0  0  0  0
   37.2430   26.1730   41.8770 C   0  0  0  0  0  0  0  0  0  0  0  0
   37.5360   29.5720   43.7260 H   0  0  0  0  0  0  0  0  0  0  0  0
   36.4270   27.6270   44.8180 H   0  0  0  0  0  0  0  0  0  0  0  0
   36.2410   25.4450   43.6260 H   0  0  0  0  0  0  0  0  0  0  0  0
   39.2700   24.3910   42.2490 F   0  0  0  0  0  0  0  0  0  0  0  0
   38.2510   24.0980   41.3930 C   0  0  0  0  0  0  0  0  0  0  0  0
   37.1680   24.9200   41.1210 C   0  0  0  0  0  0  0  0  0  0  0  0
   36.1980   24.5190   40.2370 C   0  0  0  0  0  0  0  0  0  0  0  0
   36.3000   23.2990   39.6200 C   0  0  0  0  0  0  0  0  0  0  0  0
   37.3710   22.4520   39.8700 C   0  0  0  0  0  0  0  0  0  0  0  0
   38.3570   22.8590   40.7670 C   0  0  0  0  0  0  0  0  0  0  0  0
   35.4020   25.2390   40.1030 H   0  0  0  0  0  0  0  0  0  0  0  0
   35.5100   23.0270   38.9310 H   0  0  0  0  0  0  0  0  0  0  0  0
   37.4240   21.4950   39.3660 H   0  0  0  0  0  0  0  0  0  0  0  0
   39.1900   22.1830   40.9520 H   0  0  0  0  0  0  0  0  0  0  0  0
   40.4660   30.9560   40.9650 C   0  0  0  0  0  0  0  0  0  0  0  0
   39.8130   31.7340   39.9860 C   0  0  0  0  0  0  0  0  0  0  0  0
   38.4790   31.3830   39.6930 C   0  0  0  0  0  0  0  0  0  0  0  0
   37.9250   30.3400   40.3600 N   0  0  0  0  0  0  0  0  0  0  0  0
   38.6160   29.6260   41.2990 C   0  0  0  0  0  0  0  0  0  0  0  0
   39.8700   29.9440   41.5850 N   0  0  0  0  0  0  0  0  0  0  0  0
   41.4920   31.1770   41.2330 H   0  0  0  0  0  0  0  0  0  0  0  0
   41.6010   31.1110   37.4410 Br  0  0  0  0  0  0  0  0  0  0  0  0
   41.3980   32.8170   38.2870 C   0  0  0  0  0  0  0  0  0  0  0  0
   40.5750   32.7970   39.3780 C   0  0  0  0  0  0  0  0  0  0  0  0
   40.3830   33.9990   40.0670 C   0  0  0  0  0  0  0  0  0  0  0  0
   39.7580   34.1540   40.9580 H   0  0  0  0  0  0  0  0  0  0  0  0
   41.0110   35.1790   39.6500 C   0  0  0  0  0  0  0  0  0  0  0  0
   40.8800   36.1210   40.1640 H   0  0  0  0  0  0  0  0  0  0  0  0
   41.8360   35.1680   38.5440 C   0  0  0  0  0  3  0  0  0  0  0  0
   42.0150   33.9790   37.8780 C   0  0  0  0  0  3  0  0  0  0  0  0
   37.8360   32.2100   38.6860 C   0  0  0  0  0  0  0  0  0  0  0  0
   36.5900   31.6640   38.3860 F   0  0  0  0  0  0  0  0  0  0  0  0
   38.5730   32.0870   37.5360 F   0  0  0  0  0  0  0  0  0  0  0  0
   37.6380   33.5090   39.0700 F   0  0  0  0  0  0  0  0  0  0  0  0
  1  2  1  0  0  0  0
  2  7  2  0  0  0  0
  2  3  1  0  0  0  0
  3  4  2  0  0  0  0
  4  8  1  0  0  0  0
  4  5  1  0  0  0  0
  5  9  1  0  0  0  0
  6 10  1  0  0  0  0
  6  5  2  0  0  0  0
  7  6  1  0  0  0  0
 12 11  1  0  0  0  0
 13 12  1  0  0  0  0
 13  7  1  0  0  0  0
 14 13  2  0  0  0  0
 15 16  2  0  0  0  0
 15 14  1  0  0  0  0
 16 17  1  0  0  0  0
 17 21  1  0  0  0  0
 17 12  2  0  0  0  0
 18 14  1  0  0  0  0
 19 15  1  0  0  0  0
 20 16  1  0  0  0  0
 22 28  1  0  0  0  0
 22 27  1  0  0  0  0
 23 22  2  0  0  0  0
 24 23  1  0  0  0  0
 24 25  2  0  0  0  0
 25 26  1  0  0  0  0
 26 27  2  0  0  0  0
 26  3  1  0  0  0  0
 29 30  1  0  0  0  0
 30 31  1  0  0  0  0
 31 23  1  0  0  0  0
 31 32  2  0  0  0  0
 32 33  1  0  0  0  0
 34 32  1  0  0  0  0
 34 35  1  0  0  0  0
 36 34  2  0  0  0  0
 37 30  2  0  0  0  0
 37 36  1  0  0  0  0
 38 41  1  0  0  0  0
 38 24  1  0  0  0  0
 39 38  1  0  0  0  0
 40 38  1  0  0  0  0
M  END
>  <minimizedAffinity>
-7.00916529

$$$$

 OpenBabel03242510433D

 41 44  0  0  0  0  0  0  0  0999 V2000
   42.2310   31.1090   40.3800 Cl  0  0  0  0  0  0  0  0  0  0  0  0
   41.0580   32.4310   40.4840 C   0  0  0  0  0  0  0  0  0  0  0  0
   39.7420   32.1060   40.7680 C   0  0  0  0  0  0  0  0  0  0  0  0
   38.8530   33.1220   40.8460 C   0  0  0  0  0  0  0  0  0  0  0  0
   39.2980   34.4400   40.6380 C   0  0  0  0  0  0  0  0  0  0  0  0
   40.6110   34.7400   40.3560 C   0  0  0  0  0  0  0  0  0  0  0  0
   41.5390   33.7020   40.2730 C   0  0  0  0  0  0  0  0  0  0  0  0
   37.8310   32.8780   41.0660 H   0  0  0  0  0  0  0  0  0  0  0  0
   38.5560   35.2340   40.7080 H   0  0  0  0  0  0  0  0  0  0  0  0
   40.9400   35.7580   40.1990 H   0  0  0  0  0  0  0  0  0  0  0  0
   43.1650   34.2360   42.3930 F   0  0  0  0  0  0  0  0  0  0  0  0
   43.6770   34.2000   41.1310 C   0  0  0  0  0  0  0  0  0  0  0  0
   42.9530   33.9400   39.9760 C   0  0  0  0  0  0  0  0  0  0  0  0
   43.5780   33.9310   38.7550 C   0  0  0  0  0  0  0  0  0  0  0  0
   44.9240   34.1780   38.6740 C   0  0  0  0  0  0  0  0  0  0  0  0
   45.6780   34.4420   39.8100 C   0  0  0  0  0  0  0  0  0  0  0  0
   45.0440   34.4520   41.0520 C   0  0  0  0  0  0  0  0  0  0  0  0
   42.9170   33.7170   37.9260 H   0  0  0  0  0  0  0  0  0  0  0  0
   45.3710   34.1590   37.6890 H   0  0  0  0  0  0  0  0  0  0  0  0
   46.7390   34.6340   39.7140 H   0  0  0  0  0  0  0  0  0  0  0  0
   45.6490   34.6610   41.9330 H   0  0  0  0  0  0  0  0  0  0  0  0
   38.0130   28.9130   40.4860 C   0  0  0  0  0  0  0  0  0  0  0  0
   38.6940   28.0720   41.3910 C   0  0  0  0  0  0  0  0  0  0  0  0
   39.7680   28.6500   42.0980 C   0  0  0  0  0  0  0  0  0  0  0  0
   40.0690   29.9520   41.8630 N   0  0  0  0  0  0  0  0  0  0  0  0
   39.3670   30.7120   40.9690 C   0  0  0  0  0  0  0  0  0  0  0  0
   38.3550   30.1820   40.2980 N   0  0  0  0  0  0  0  0  0  0  0  0
   37.1790   28.5250   39.9130 H   0  0  0  0  0  0  0  0  0  0  0  0
   36.4550   27.3390   43.5140 Br  0  0  0  0  0  0  0  0  0  0  0  0
   37.2870   26.1260   42.2870 C   0  0  0  0  0  0  0  0  0  0  0  0
   38.2330   26.7090   41.4920 C   0  0  0  0  0  0  0  0  0  0  0  0
   38.9030   25.8920   40.5770 C   0  0  0  0  0  0  0  0  0  0  0  0
   39.6860   26.2000   39.8690 H   0  0  0  0  0  0  0  0  0  0  0  0
   38.6120   24.5260   40.4790 C   0  0  0  0  0  0  0  0  0  0  0  0
   39.1150   23.8710   39.7810 H   0  0  0  0  0  0  0  0  0  0  0  0
   37.6510   23.9650   41.2960 C   0  0  0  0  0  3  0  0  0  0  0  0
   37.0020   24.7810   42.1900 C   0  0  0  0  0  3  0  0  0  0  0  0
   40.4410   27.7580   43.0260 C   0  0  0  0  0  0  0  0  0  0  0  0
   41.4740   28.4540   43.6500 F   0  0  0  0  0  0  0  0  0  0  0  0
   41.0570   26.7890   42.2750 F   0  0  0  0  0  0  0  0  0  0  0  0
   39.6300   27.2530   44.0070 F   0  0  0  0  0  0  0  0  0  0  0  0
  1  2  1  0  0  0  0
  2  3  1  0  0  0  0
  3  4  2  0  0  0  0
  3 26  1  0  0  0  0
  4  8  1  0  0  0  0
  5  9  1  0  0  0  0
  5  4  1  0  0  0  0
  6  5  2  0  0  0  0
  7  6  1  0  0  0  0
  7  2  2  0  0  0  0
 10  6  1  0  0  0  0
 12 11  1  0  0  0  0
 13  7  1  0  0  0  0
 13 12  2  0  0  0  0
 14 13  1  0  0  0  0
 15 14  2  0  0  0  0
 15 16  1  0  0  0  0
 16 17  2  0  0  0  0
 17 12  1  0  0  0  0
 17 21  1  0  0  0  0
 18 14  1  0  0  0  0
 19 15  1  0  0  0  0
 20 16  1  0  0  0  0
 22 23  1  0  0  0  0
 23 31  1  0  0  0  0
 23 24  2  0  0  0  0
 24 38  1  0  0  0  0
 25 24  1  0  0  0  0
 26 25  2  0  0  0  0
 27 22  2  0  0  0  0
 27 26  1  0  0  0  0
 28 22  1  0  0  0  0
 30 29  1  0  0  0  0
 31 30  2  0  0  0  0
 32 31  1  0  0  0  0
 33 32  1  0  0  0  0
 34 32  2  0  0  0  0
 34 36  1  0  0  0  0
 35 34  1  0  0  0  0
 36 37  2  0  0  0  0
 37 30  1  0  0  0  0
 38 39  1  0  0  0  0
 38 41  1  0  0  0  0
 40 38  1  0  0  0  0
M  END
>  <minimizedAffinity>
-6.96581173

$$$$

 OpenBabel03242510433D

 41 44  0  0  0  0  0  0  0  0999 V2000
   39.3410   27.4430   40.2510 Cl  0  0  0  0  0  0  0  0  0  0  0  0
   38.3610   27.6370   41.7130 C   0  0  0  0  0  0  0  0  0  0  0  0
   38.5630   28.7730   42.4790 C   0  0  0  0  0  0  0  0  0  0  0  0
   37.8090   28.9140   43.5920 C   0  0  0  0  0  0  0  0  0  0  0  0
   36.8710   27.9180   43.9170 C   0  0  0  0  0  0  0  0  0  0  0  0
   36.6880   26.7960   43.1410 C   0  0  0  0  0  0  0  0  0  0  0  0
   37.4580   26.6380   41.9890 C   0  0  0  0  0  0  0  0  0  0  0  0
   37.9600   29.7920   44.1920 H   0  0  0  0  0  0  0  0  0  0  0  0
   36.2810   28.0620   44.8210 H   0  0  0  0  0  0  0  0  0  0  0  0
   35.9620   26.0370   43.4020 H   0  0  0  0  0  0  0  0  0  0  0  0
   38.8500   24.4030   42.6900 F   0  0  0  0  0  0  0  0  0  0  0  0
   38.0740   24.4010   41.5710 C   0  0  0  0  0  0  0  0  0  0  0  0
   37.3220   25.4720   41.1120 C   0  0  0  0  0  0  0  0  0  0  0  0
   36.5750   25.3540   39.9670 C   0  0  0  0  0  0  0  0  0  0  0  0
   36.5710   24.1720   39.2730 C   0  0  0  0  0  0  0  0  0  0  0  0
   37.3140   23.0800   39.7050 C   0  0  0  0  0  0  0  0  0  0  0  0
   38.0730   23.1990   40.8670 C   0  0  0  0  0  0  0  0  0  0  0  0
   36.0300   26.2510   39.7050 H   0  0  0  0  0  0  0  0  0  0  0  0
   35.9670   24.1280   38.3760 H   0  0  0  0  0  0  0  0  0  0  0  0
   37.2910   22.1600   39.1340 H   0  0  0  0  0  0  0  0  0  0  0  0
   38.6490   22.3350   41.1920 H   0  0  0  0  0  0  0  0  0  0  0  0
   41.7490   30.4500   41.9310 C   0  0  0  0  0  0  0  0  0  0  0  0
   41.3990   31.6500   41.2790 C   0  0  0  0  0  0  0  0  0  0  0  0
   40.0240   31.8560   41.0380 C   0  0  0  0  0  0  0  0  0  0  0  0
   39.1490   30.9010   41.4410 N   0  0  0  0  0  0  0  0  0  0  0  0
   39.5580   29.7570   42.0690 C   0  0  0  0  0  0  0  0  0  0  0  0
   40.8450   29.5500   42.3020 N   0  0  0  0  0  0  0  0  0  0  0  0
   42.7890   30.2360   42.1430 H   0  0  0  0  0  0  0  0  0  0  0  0
   42.6170   31.5050   38.3540 Br  0  0  0  0  0  0  0  0  0  0  0  0
   43.1630   32.7020   39.7460 C   0  0  0  0  0  0  0  0  0  0  0  0
   42.4760   32.5380   40.9150 C   0  0  0  0  0  0  0  0  0  0  0  0
   42.8210   33.3610   41.9910 C   0  0  0  0  0  0  0  0  0  0  0  0
   42.3700   33.3580   42.9940 H   0  0  0  0  0  0  0  0  0  0  0  0
   43.8350   34.3190   41.8720 C   0  0  0  0  0  0  0  0  0  0  0  0
   44.1230   34.9690   42.6870 H   0  0  0  0  0  0  0  0  0  0  0  0
   44.5120   34.4630   40.6770 C   0  0  0  0  0  3  0  0  0  0  0  0
   44.1610   33.6460   39.6300 C   0  0  0  0  0  3  0  0  0  0  0  0
   39.6990   33.1050   40.3720 C   0  0  0  0  0  0  0  0  0  0  0  0
   38.3340   33.3460   40.5110 F   0  0  0  0  0  0  0  0  0  0  0  0
   39.8980   32.9070   39.0290 F   0  0  0  0  0  0  0  0  0  0  0  0
   40.3650   34.1940   40.8670 F   0  0  0  0  0  0  0  0  0  0  0  0
  1  2  1  0  0  0  0
  2  7  2  0  0  0  0
  2  3  1  0  0  0  0
  3  4  2  0  0  0  0
  4  5  1  0  0  0  0
  4  8  1  0  0  0  0
  5  9  1  0  0  0  0
  6 10  1  0  0  0  0
  6  5  2  0  0  0  0
  7  6  1  0  0  0  0
 12 11  1  0  0  0  0
 13 12  1  0  0  0  0
 13  7  1  0  0  0  0
 14 13  2  0  0  0  0
 15 16  2  0  0  0  0
 15 14  1  0  0  0  0
 16 17  1  0  0  0  0
 17 21  1  0  0  0  0
 17 12  2  0  0  0  0
 18 14  1  0  0  0  0
 19 15  1  0  0  0  0
 20 16  1  0  0  0  0
 22 28  1  0  0  0  0
 22 27  1  0  0  0  0
 23 22  2  0  0  0  0
 24 23  1  0  0  0  0
 24 25  2  0  0  0  0
 25 26  1  0  0  0  0
 26 27  2  0  0  0  0
 26  3  1  0  0  0  0
 29 30  1  0  0  0  0
 30 31  1  0  0  0  0
 31 23  1  0  0  0  0
 31 32  2  0  0  0  0
 32 33  1  0  0  0  0
 34 32  1  0  0  0  0
 34 35  1  0  0  0  0
 36 34  2  0  0  0  0
 37 30  2  0  0  0  0
 37 36  1  0  0  0  0
 38 39  1  0  0  0  0
 38 41  1  0  0  0  0
 38 24  1  0  0  0  0
 40 38  1  0  0  0  0
M  END
>  <minimizedAffinity>
-6.66890907

$$$$

 OpenBabel03242510433D

 41 44  0  0  0  0  0  0  0  0999 V2000
   40.7930   31.4640   39.0470 Cl  0  0  0  0  0  0  0  0  0  0  0  0
   40.0380   32.9830   39.5510 C   0  0  0  0  0  0  0  0  0  0  0  0
   38.6540   33.0490   39.5480 C   0  0  0  0  0  0  0  0  0  0  0  0
   38.0860   34.2130   39.9350 C   0  0  0  0  0  0  0  0  0  0  0  0
   38.9110   35.2860   40.3150 C   0  0  0  0  0  0  0  0  0  0  0  0
   40.2840   35.1990   40.3090 C   0  0  0  0  0  0  0  0  0  0  0  0
   40.8840   34.0050   39.9130 C   0  0  0  0  0  0  0  0  0  0  0  0
   37.0140   34.2710   39.9360 H   0  0  0  0  0  0  0  0  0  0  0  0
   38.4210   36.2100   40.6210 H   0  0  0  0  0  0  0  0  0  0  0  0
   40.9080   36.0330   40.6050 H   0  0  0  0  0  0  0  0  0  0  0  0
   42.1350   34.5740   37.5600 F   0  0  0  0  0  0  0  0  0  0  0  0
   42.8600   34.1530   38.6350 C   0  0  0  0  0  0  0  0  0  0  0  0
   42.3390   33.8340   39.8800 C   0  0  0  0  0  0  0  0  0  0  0  0
   43.1680   33.4190   40.8910 C   0  0  0  0  0  0  0  0  0  0  0  0
   44.5180   33.3200   40.6710 C   0  0  0  0  0  0  0  0  0  0  0  0
   45.0710   33.6310   39.4360 C   0  0  0  0  0  0  0  0  0  0  0  0
   44.2290   34.0520   38.4080 C   0  0  0  0  0  0  0  0  0  0  0  0
   42.6540   33.1980   41.8170 H   0  0  0  0  0  0  0  0  0  0  0  0
   45.1300   32.9890   41.4990 H   0  0  0  0  0  0  0  0  0  0  0  0
   46.1400   33.5420   39.2920 H   0  0  0  0  0  0  0  0  0  0  0  0
   44.6790   34.2930   37.4450 H   0  0  0  0  0  0  0  0  0  0  0  0
   36.9750   30.5620   37.4840 C   0  0  0  0  0  0  0  0  0  0  0  0
   36.3870   29.6810   38.4160 C   0  0  0  0  0  0  0  0  0  0  0  0
   36.5940   29.9800   39.7790 C   0  0  0  0  0  0  0  0  0  0  0  0
   37.3310   31.0740   40.0950 N   0  0  0  0  0  0  0  0  0  0  0  0
   37.8740   31.8870   39.1380 C   0  0  0  0  0  0  0  0  0  0  0  0
   37.6890   31.6190   37.8550 N   0  0  0  0  0  0  0  0  0  0  0  0
   36.8520   30.3840   36.4230 H   0  0  0  0  0  0  0  0  0  0  0  0
   37.8840   26.9370   37.8790 Br  0  0  0  0  0  0  0  0  0  0  0  0
   36.0250   27.2850   37.5800 C   0  0  0  0  0  0  0  0  0  0  0  0
   35.6480   28.5630   37.8850 C   0  0  0  0  0  0  0  0  0  0  0  0
   34.3080   28.9090   37.6810 C   0  0  0  0  0  0  0  0  0  0  0  0
   33.8440   29.8870   37.8740 H   0  0  0  0  0  0  0  0  0  0  0  0
   33.3890   27.9770   37.1840 C   0  0  0  0  0  0  0  0  0  0  0  0
   32.3480   28.2170   37.0170 H   0  0  0  0  0  0  0  0  0  0  0  0
   33.7990   26.6930   36.8860 C   0  0  0  0  0  3  0  0  0  0  0  0
   35.1190   26.3690   37.0910 C   0  0  0  0  0  3  0  0  0  0  0  0
   35.9680   29.0570   40.7100 C   0  0  0  0  0  0  0  0  0  0  0  0
   36.2580   29.4650   42.0100 F   0  0  0  0  0  0  0  0  0  0  0  0
   36.5980   27.8480   40.5600 F   0  0  0  0  0  0  0  0  0  0  0  0
   34.6060   28.9810   40.5930 F   0  0  0  0  0  0  0  0  0  0  0  0
  1  2  1  0  0  0  0
  2  7  1  0  0  0  0
  3  2  2  0  0  0  0
  3  4  1  0  0  0  0
  4  8  1  0  0  0  0
  4  5  2  0  0  0  0
  5  9  1  0  0  0  0
  6  5  1  0  0  0  0
  6 10  1  0  0  0  0
  7  6  2  0  0  0  0
 11 12  1  0  0  0  0
 12 13  1  0  0  0  0
 13  7  1  0  0  0  0
 13 14  2  0  0  0  0
 14 18  1  0  0  0  0
 15 14  1  0  0  0  0
 15 19  1  0  0  0  0
 16 15  2  0  0  0  0
 17 12  2  0  0  0  0
 17 16  1  0  0  0  0
 20 16  1  0  0  0  0
 21 17  1  0  0  0  0
 22 27  2  0  0  0  0
 22 23  1  0  0  0  0
 23 24  2  0  0  0  0
 24 25  1  0  0  0  0
 24 38  1  0  0  0  0
 26  3  1  0  0  0  0
 26 25  2  0  0  0  0
 27 26  1  0  0  0  0
 28 22  1  0  0  0  0
 30 29  1  0  0  0  0
 30 31  1  0  0  0  0
 31 23  1  0  0  0  0
 32 33  1  0  0  0  0
 32 31  2  0  0  0  0
 34 32  1  0  0  0  0
 35 34  1  0  0  0  0
 36 37  1  0  0  0  0
 36 34  2  0  0  0  0
 37 30  2  0  0  0  0
 38 39  1  0  0  0  0
 40 38  1  0  0  0  0
 41 38  1  0  0  0  0
M  END
>  <minimizedAffinity>
-6.64547634

$$$$

 OpenBabel03242510433D

 41 44  0  0  0  0  0  0  0  0999 V2000
   38.7650   26.6840   38.8990 Cl  0  0  0  0  0  0  0  0  0  0  0  0
   37.9580   26.3000   40.4270 C   0  0  0  0  0  0  0  0  0  0  0  0
   37.7480   27.3340   41.3240 C   0  0  0  0  0  0  0  0  0  0  0  0
   37.1300   27.0310   42.4880 C   0  0  0  0  0  0  0  0  0  0  0  0
   36.7360   25.7040   42.7310 C   0  0  0  0  0  0  0  0  0  0  0  0
   36.9550   24.6910   41.8240 C   0  0  0  0  0  0  0  0  0  0  0  0
   37.5910   24.9890   40.6200 C   0  0  0  0  0  0  0  0  0  0  0  0
   36.9630   27.8280   43.1890 H   0  0  0  0  0  0  0  0  0  0  0  0
   36.2410   25.4940   43.6780 H   0  0  0  0  0  0  0  0  0  0  0  0
   36.6470   23.6740   42.0240 H   0  0  0  0  0  0  0  0  0  0  0  0
   35.6040   24.4850   38.8240 F   0  0  0  0  0  0  0  0  0  0  0  0
   36.7800   23.8000   38.7520 C   0  0  0  0  0  0  0  0  0  0  0  0
   37.8610   23.9660   39.6050 C   0  0  0  0  0  0  0  0  0  0  0  0
   38.9980   23.2170   39.4360 C   0  0  0  0  0  0  0  0  0  0  0  0
   39.0670   22.3000   38.4190 C   0  0  0  0  0  0  0  0  0  0  0  0
   38.0030   22.1090   37.5480 C   0  0  0  0  0  0  0  0  0  0  0  0
   36.8470   22.8700   37.7190 C   0  0  0  0  0  0  0  0  0  0  0  0
   39.7750   23.4310   40.1580 H   0  0  0  0  0  0  0  0  0  0  0  0
   39.9840   21.7340   38.3270 H   0  0  0  0  0  0  0  0  0  0  0  0
   38.0870   21.3770   36.7550 H   0  0  0  0  0  0  0  0  0  0  0  0
   36.0220   22.7080   37.0270 H   0  0  0  0  0  0  0  0  0  0  0  0
   39.5920   30.4740   41.3440 C   0  0  0  0  0  0  0  0  0  0  0  0
   38.9820   31.2390   40.3290 C   0  0  0  0  0  0  0  0  0  0  0  0
   37.9130   30.6280   39.6400 C   0  0  0  0  0  0  0  0  0  0  0  0
   37.5520   29.3690   39.9950 N   0  0  0  0  0  0  0  0  0  0  0  0
   38.1890   28.6830   40.9920 C   0  0  0  0  0  0  0  0  0  0  0  0
   39.1950   29.2430   41.6470 N   0  0  0  0  0  0  0  0  0  0  0  0
   40.4190   30.8890   41.9080 H   0  0  0  0  0  0  0  0  0  0  0  0
   41.4430   31.5870   38.3600 Br  0  0  0  0  0  0  0  0  0  0  0  0
   40.5370   32.9930   39.2930 C   0  0  0  0  0  0  0  0  0  0  0  0
   39.5160   32.5560   40.0890 C   0  0  0  0  0  0  0  0  0  0  0  0
   38.8090   33.5160   40.8210 C   0  0  0  0  0  0  0  0  0  0  0  0
   37.9670   33.3350   41.5030 H   0  0  0  0  0  0  0  0  0  0  0  0
   39.1380   34.8750   40.7370 C   0  0  0  0  0  0  0  0  0  0  0  0
   38.6090   35.6380   41.2910 H   0  0  0  0  0  0  0  0  0  0  0  0
   40.1740   35.2850   39.9240 C   0  0  0  0  0  3  0  0  0  0  0  0
   40.8600   34.3300   39.2120 C   0  0  0  0  0  3  0  0  0  0  0  0
   37.3030   31.4470   38.6070 C   0  0  0  0  0  0  0  0  0  0  0  0
   36.6860   32.5430   39.2070 F   0  0  0  0  0  0  0  0  0  0  0  0
   36.2820   30.7100   38.0620 F   0  0  0  0  0  0  0  0  0  0  0  0
   38.1860   31.9260   37.6770 F   0  0  0  0  0  0  0  0  0  0  0  0
  1  2  1  0  0  0  0
  2  7  2  0  0  0  0
  2  3  1  0  0  0  0
  3  4  2  0  0  0  0
  4  5  1  0  0  0  0
  4  8  1  0  0  0  0
  5  9  1  0  0  0  0
  6 10  1  0  0  0  0
  6  5  2  0  0  0  0
  7  6  1  0  0  0  0
 12 11  1  0  0  0  0
 12 13  1  0  0  0  0
 13  7  1  0  0  0  0
 14 13  2  0  0  0  0
 14 18  1  0  0  0  0
 15 14  1  0  0  0  0
 16 17  1  0  0  0  0
 16 15  2  0  0  0  0
 17 12  2  0  0  0  0
 19 15  1  0  0  0  0
 20 16  1  0  0  0  0
 21 17  1  0  0  0  0
 22 27  1  0  0  0  0
 22 28  1  0  0  0  0
 23 22  2  0  0  0  0
 24 25  2  0  0  0  0
 24 23  1  0  0  0  0
 25 26  1  0  0  0  0
 26  3  1  0  0  0  0
 26 27  2  0  0  0  0
 29 30  1  0  0  0  0
 30 31  1  0  0  0  0
 31 23  1  0  0  0  0
 31 32  2  0  0  0  0
 32 33  1  0  0  0  0
 34 32  1  0  0  0  0
 34 35  1  0  0  0  0
 36 34  2  0  0  0  0
 37 30  2  0  0  0  0
 37 36  1  0  0  0  0
 38 39  1  0  0  0  0
 38 24  1  0  0  0  0
 40 38  1  0  0  0  0
 41 38  1  0  0  0  0
M  END
>  <minimizedAffinity>
-6.52551079

$$$$

 OpenBabel03242510433D

 41 44  0  0  0  0  0  0  0  0999 V2000
   39.5440   27.2430   39.9380 Cl  0  0  0  0  0  0  0  0  0  0  0  0
   38.7360   27.7550   41.4270 C   0  0  0  0  0  0  0  0  0  0  0  0
   39.0450   29.0080   41.9310 C   0  0  0  0  0  0  0  0  0  0  0  0
   38.4220   29.3910   43.0680 C   0  0  0  0  0  0  0  0  0  0  0  0
   37.5060   28.5150   43.6780 C   0  0  0  0  0  0  0  0  0  0  0  0
   37.2160   27.2730   43.1600 C   0  0  0  0  0  0  0  0  0  0  0  0
   37.8500   26.8650   41.9870 C   0  0  0  0  0  0  0  0  0  0  0  0
   38.6550   30.3610   43.4650 H   0  0  0  0  0  0  0  0  0  0  0  0
   37.0230   28.8550   44.5930 H   0  0  0  0  0  0  0  0  0  0  0  0
   36.5090   26.6090   43.6390 H   0  0  0  0  0  0  0  0  0  0  0  0
   36.0770   26.8040   39.9190 F   0  0  0  0  0  0  0  0  0  0  0  0
   36.6790   25.6550   40.3370 C   0  0  0  0  0  0  0  0  0  0  0  0
   37.5950   25.5590   41.3750 C   0  0  0  0  0  0  0  0  0  0  0  0
   38.1370   24.3440   41.7090 C   0  0  0  0  0  0  0  0  0  0  0  0
   37.7740   23.2190   41.0140 C   0  0  0  0  0  0  0  0  0  0  0  0
   36.8600   23.2810   39.9700 C   0  0  0  0  0  0  0  0  0  0  0  0
   36.3070   24.5150   39.6300 C   0  0  0  0  0  0  0  0  0  0  0  0
   38.8380   24.3880   42.5310 H   0  0  0  0  0  0  0  0  0  0  0  0
   38.2290   22.2850   41.3140 H   0  0  0  0  0  0  0  0  0  0  0  0
   36.5920   22.3750   39.4410 H   0  0  0  0  0  0  0  0  0  0  0  0
   35.5930   24.5460   38.8100 H   0  0  0  0  0  0  0  0  0  0  0  0
   42.1790   30.5060   40.8370 C   0  0  0  0  0  0  0  0  0  0  0  0
   41.7850   31.4790   39.8950 C   0  0  0  0  0  0  0  0  0  0  0  0
   40.4000   31.5950   39.6550 C   0  0  0  0  0  0  0  0  0  0  0  0
   39.5560   30.7770   40.3330 N   0  0  0  0  0  0  0  0  0  0  0  0
   40.0070   29.8530   41.2350 C   0  0  0  0  0  0  0  0  0  0  0  0
   41.3040   29.7320   41.4700 N   0  0  0  0  0  0  0  0  0  0  0  0
   43.2290   30.3690   41.0630 H   0  0  0  0  0  0  0  0  0  0  0  0
   42.7680   34.1750   41.2440 Br  0  0  0  0  0  0  0  0  0  0  0  0
   43.4510   33.4080   39.6280 C   0  0  0  0  0  0  0  0  0  0  0  0
   42.8330   32.2440   39.2660 C   0  0  0  0  0  0  0  0  0  0  0  0
   43.2590   31.6230   38.0880 C   0  0  0  0  0  0  0  0  0  0  0  0
   42.8700   30.6890   37.6580 H   0  0  0  0  0  0  0  0  0  0  0  0
   44.2830   32.1750   37.3090 C   0  0  0  0  0  0  0  0  0  0  0  0
   44.6320   31.7160   36.3940 H   0  0  0  0  0  0  0  0  0  0  0  0
   44.8890   33.3520   37.7010 C   0  0  0  0  0  3  0  0  0  0  0  0
   44.4590   33.9500   38.8600 C   0  0  0  0  0  3  0  0  0  0  0  0
   40.0300   32.6120   38.6850 C   0  0  0  0  0  0  0  0  0  0  0  0
   38.6410   32.7060   38.6410 F   0  0  0  0  0  0  0  0  0  0  0  0
   40.4010   32.1420   37.4510 F   0  0  0  0  0  0  0  0  0  0  0  0
   40.5220   33.8590   38.9650 F   0  0  0  0  0  0  0  0  0  0  0  0
  1  2  1  0  0  0  0
  2  3  2  0  0  0  0
  2  7  1  0  0  0  0
  3  4  1  0  0  0  0
  4  8  1  0  0  0  0
  4  5  2  0  0  0  0
  5  9  1  0  0  0  0
  6 10  1  0  0  0  0
  6  5  1  0  0  0  0
  7  6  2  0  0  0  0
 11 12  1  0  0  0  0
 12 13  1  0  0  0  0
 13 14  2  0  0  0  0
 13  7  1  0  0  0  0
 14 18  1  0  0  0  0
 15 19  1  0  0  0  0
 15 14  1  0  0  0  0
 16 15  2  0  0  0  0
 17 16  1  0  0  0  0
 17 12  2  0  0  0  0
 20 16  1  0  0  0  0
 21 17  1  0  0  0  0
 22 28  1  0  0  0  0
 22 27  1  0  0  0  0
 23 22  2  0  0  0  0
 24 23  1  0  0  0  0
 24 25  2  0  0  0  0
 25 26  1  0  0  0  0
 26 27  2  0  0  0  0
 26  3  1  0  0  0  0
 30 29  1  0  0  0  0
 31 30  1  0  0  0  0
 31 23  1  0  0  0  0
 32 31  2  0  0  0  0
 33 32  1  0  0  0  0
 34 36  2  0  0  0  0
 34 32  1  0  0  0  0
 35 34  1  0  0  0  0
 36 37  1  0  0  0  0
 37 30  2  0  0  0  0
 38 41  1  0  0  0  0
 38 24  1  0  0  0  0
 39 38  1  0  0  0  0
 40 38  1  0  0  0  0
M  END
>  <minimizedAffinity>
-6.46679401

$$$$

 OpenBabel03242510433D

 41 44  0  0  0  0  0  0  0  0999 V2000
   38.7860   27.1720   39.7100 Cl  0  0  0  0  0  0  0  0  0  0  0  0
   38.0280   27.4200   41.2910 C   0  0  0  0  0  0  0  0  0  0  0  0
   38.1710   28.6620   41.8880 C   0  0  0  0  0  0  0  0  0  0  0  0
   37.5880   28.8430   43.0940 C   0  0  0  0  0  0  0  0  0  0  0  0
   36.8760   27.7800   43.6780 C   0  0  0  0  0  0  0  0  0  0  0  0
   36.7470   26.5540   43.0670 C   0  0  0  0  0  0  0  0  0  0  0  0
   37.3430   26.3530   41.8230 C   0  0  0  0  0  0  0  0  0  0  0  0
   37.6930   29.8030   43.5630 H   0  0  0  0  0  0  0  0  0  0  0  0
   36.4190   27.9590   44.6510 H   0  0  0  0  0  0  0  0  0  0  0  0
   36.1970   25.7440   43.5280 H   0  0  0  0  0  0  0  0  0  0  0  0
   39.2710   24.5040   42.3600 F   0  0  0  0  0  0  0  0  0  0  0  0
   38.2840   24.2210   41.4650 C   0  0  0  0  0  0  0  0  0  0  0  0
   37.2520   25.0760   41.1090 C   0  0  0  0  0  0  0  0  0  0  0  0
   36.3100   24.6820   40.1920 C   0  0  0  0  0  0  0  0  0  0  0  0
   36.3890   23.4360   39.6250 C   0  0  0  0  0  0  0  0  0  0  0  0
   37.4100   22.5560   39.9590 C   0  0  0  0  0  0  0  0  0  0  0  0
   38.3670   22.9550   40.8900 C   0  0  0  0  0  0  0  0  0  0  0  0
   35.5540   25.4290   39.9920 H   0  0  0  0  0  0  0  0  0  0  0  0
   35.6240   23.1710   38.9080 H   0  0  0  0  0  0  0  0  0  0  0  0
   37.4460   21.5790   39.4930 H   0  0  0  0  0  0  0  0  0  0  0  0
   39.1600   22.2540   41.1410 H   0  0  0  0  0  0  0  0  0  0  0  0
   39.0470   31.4050   39.6580 C   0  0  0  0  0  0  0  0  0  0  0  0
   40.3990   31.6730   39.9570 C   0  0  0  0  0  0  0  0  0  0  0  0
   40.9920   30.8720   40.9550 C   0  0  0  0  0  0  0  0  0  0  0  0
   40.2350   29.9160   41.5490 N   0  0  0  0  0  0  0  0  0  0  0  0
   38.9260   29.7090   41.2110 C   0  0  0  0  0  0  0  0  0  0  0  0
   38.3550   30.4540   40.2760 N   0  0  0  0  0  0  0  0  0  0  0  0
   38.5370   31.9870   38.9010 H   0  0  0  0  0  0  0  0  0  0  0  0
   41.8990   31.0240   37.2390 Br  0  0  0  0  0  0  0  0  0  0  0  0
   41.7180   32.7530   38.0430 C   0  0  0  0  0  0  0  0  0  0  0  0
   41.0320   32.7420   39.2250 C   0  0  0  0  0  0  0  0  0  0  0  0
   40.8660   33.9610   39.8890 C   0  0  0  0  0  0  0  0  0  0  0  0
   40.3450   34.1260   40.8420 H   0  0  0  0  0  0  0  0  0  0  0  0
   41.3840   35.1490   39.3590 C   0  0  0  0  0  0  0  0  0  0  0  0
   41.2710   36.1050   39.8510 H   0  0  0  0  0  0  0  0  0  0  0  0
   42.0720   35.1290   38.1620 C   0  0  0  0  0  3  0  0  0  0  0  0
   42.2270   33.9230   37.5220 C   0  0  0  0  0  3  0  0  0  0  0  0
   42.3870   31.1700   41.2310 C   0  0  0  0  0  0  0  0  0  0  0  0
   43.1510   30.8120   40.1220 F   0  0  0  0  0  0  0  0  0  0  0  0
   42.7860   30.3260   42.2350 F   0  0  0  0  0  0  0  0  0  0  0  0
   42.6350   32.4900   41.4970 F   0  0  0  0  0  0  0  0  0  0  0  0
  1  2  1  0  0  0  0
  2  7  2  0  0  0  0
  2  3  1  0  0  0  0
  3  4  2  0  0  0  0
  4  8  1  0  0  0  0
  4  5  1  0  0  0  0
  5  9  1  0  0  0  0
  6 10  1  0  0  0  0
  6  5  2  0  0  0  0
  7  6  1  0  0  0  0
 12 11  1  0  0  0  0
 13 12  1  0  0  0  0
 13  7  1  0  0  0  0
 14 13  2  0  0  0  0
 15 16  2  0  0  0  0
 15 14  1  0  0  0  0
 16 17  1  0  0  0  0
 17 21  1  0  0  0  0
 17 12  2  0  0  0  0
 18 14  1  0  0  0  0
 19 15  1  0  0  0  0
 20 16  1  0  0  0  0
 22 23  2  0  0  0  0
 22 27  1  0  0  0  0
 23 24  1  0  0  0  0
 24 38  1  0  0  0  0
 24 25  2  0  0  0  0
 26 25  1  0  0  0  0
 26  3  1  0  0  0  0
 27 26  2  0  0  0  0
 28 22  1  0  0  0  0
 29 30  1  0  0  0  0
 30 31  1  0  0  0  0
 31 32  2  0  0  0  0
 31 23  1  0  0  0  0
 32 33  1  0  0  0  0
 34 35  1  0  0  0  0
 34 32  1  0  0  0  0
 36 34  2  0  0  0  0
 37 30  2  0  0  0  0
 37 36  1  0  0  0  0
 38 41  1  0  0  0  0
 38 40  1  0  0  0  0
 39 38  1  0  0  0  0
M  END
>  <minimizedAffinity>
-6.41922188

$$$$
