
 OpenBabel03242523073D

 45 49  0  0  1  0  0  0  0  0999 V2000
   45.1010   35.9290   43.5800 C   0  0  0  0  0  0  0  0  0  0  0  0
   45.9200   34.8430   43.2980 C   0  0  0  0  0  0  0  0  0  0  0  0
   46.0860   33.8920   44.2700 C   0  0  0  0  0  0  0  0  0  0  0  0
   45.4450   34.0510   45.4690 N   0  0  0  0  0  0  0  0  0  0  0  0
   44.6570   35.1140   45.7150 C   0  0  0  0  0  0  0  0  0  0  0  0
   44.4920   36.0320   44.7830 N   0  0  0  0  0  0  0  0  0  0  0  0
   44.9420   36.7070   42.8360 H   0  0  0  0  0  0  0  0  0  0  0  0
   44.1200   35.3110   46.6310 H   0  0  0  0  0  0  0  0  0  0  0  0
   46.5420   34.7970   42.0510 N   0  0  0  0  0  0  0  0  0  0  0  0
   47.8610   35.2550   41.8300 C   0  0  0  0  0  0  0  0  0  0  0  0
   48.4070   34.9690   40.4520 C   0  0  0  0  0  0  0  0  0  0  0  0
   48.0640   33.7190   39.8990 N   0  0  0  0  0  0  0  0  0  0  0  0
   46.7580   33.2720   40.1260 C   0  0  0  0  0  0  0  0  0  0  0  0
   45.9260   34.2990   40.8680 C   0  0  0  0  0  0  0  0  0  0  0  0
   47.8220   36.3790   41.9080 H   0  0  0  0  0  0  0  0  0  0  0  0
   48.6050   34.9680   42.6040 H   0  0  0  0  0  0  0  0  0  0  0  0
   49.5160   35.0270   40.5160 H   0  0  0  0  0  0  0  0  0  0  0  0
   48.1080   35.7810   39.7290 H   0  0  0  0  0  0  0  0  0  0  0  0
   48.7750   33.0010   40.1990 H   0  0  0  0  0  0  0  0  0  0  0  0
   46.6680   32.2610   40.5720 H   0  0  0  0  0  0  0  0  0  0  0  0
   46.2320   33.1630   39.1290 H   0  0  0  0  0  0  0  0  0  0  0  0
   44.9110   33.8800   41.0200 H   0  0  0  0  0  0  0  0  0  0  0  0
   45.7910   35.1780   40.1830 H   0  0  0  0  0  0  0  0  0  0  0  0
   46.7380   32.0250   45.5480 C   0  0  0  0  0  0  0  0  0  0  0  0
   46.8160   32.6880   44.3050 C   0  0  0  0  0  0  0  0  0  0  0  0
   47.6480   31.9980   43.4430 C   0  0  0  0  0  0  0  0  0  0  0  0
   48.3170   30.8460   43.7110 C   0  0  0  0  0  0  0  0  0  0  0  0
   48.1920   30.2690   44.9530 C   0  0  0  0  0  0  0  0  0  0  0  0
   47.3940   30.8550   45.8880 C   0  0  0  0  0  0  0  0  0  0  0  0
   48.9910   29.1480   44.9080 O   0  0  0  0  0  0  0  0  0  0  0  0
   49.5650   29.0040   43.6330 C   0  0  1  0  0  0  0  0  0  0  0  0
   49.1490   30.1320   42.8620 O   0  0  0  0  0  0  0  0  0  0  0  0
   46.1600   32.2870   46.4580 H   0  0  0  0  0  0  0  0  0  0  0  0
   47.7120   32.4890   42.5230 H   0  0  0  0  0  0  0  0  0  0  0  0
   47.3600   30.3340   46.8060 H   0  0  0  0  0  0  0  0  0  0  0  0
   49.0830   28.0990   43.1610 H   0  0  0  0  0  0  0  0  0  0  0  0
   50.8980   27.4710   41.2210 Br  0  0  0  0  0  0  0  0  0  0  0  0
   51.8220   28.2940   42.6660 C   0  0  0  0  0  0  0  0  0  0  0  0
   51.0320   28.9140   43.6170 C   0  0  0  0  0  0  0  0  0  0  0  0
   51.6740   29.5250   44.6860 C   0  0  0  0  0  0  0  0  0  0  0  0
   51.1890   30.0510   45.5110 H   0  0  0  0  0  0  0  0  0  0  0  0
   53.0650   29.5180   44.8010 C   0  0  0  0  0  0  0  0  0  0  0  0
   53.5860   29.9900   45.6270 H   0  0  0  0  0  0  0  0  0  0  0  0
   53.8650   28.8940   43.8440 C   0  0  0  0  0  3  0  0  0  0  0  0
   53.2010   28.2880   42.7810 C   0  0  0  0  0  3  0  0  0  0  0  0
  1  6  1  0  0  0  0
  2  1  2  0  0  0  0
  2  3  1  0  0  0  0
  3 25  1  0  0  0  0
  3  4  2  0  0  0  0
  4  5  1  0  0  0  0
  5  8  1  0  0  0  0
  6  5  2  0  0  0  0
  7  1  1  0  0  0  0
  9  2  1  0  0  0  0
 10 15  1  0  0  0  0
 10  9  1  0  0  0  0
 10 16  1  0  0  0  0
 11 17  1  0  0  0  0
 11 10  1  0  0  0  0
 12 13  1  0  0  0  0
 12 19  1  0  0  0  0
 12 11  1  0  0  0  0
 13 20  1  0  0  0  0
 13 14  1  0  0  0  0
 14 22  1  0  0  0  0
 14  9  1  0  0  0  0
 18 11  1  0  0  0  0
 21 13  1  0  0  0  0
 23 14  1  0  0  0  0
 24 29  1  0  0  0  0
 24 33  1  0  0  0  0
 25 24  2  0  0  0  0
 26 27  2  0  0  0  0
 26 25  1  0  0  0  0
 27 28  1  0  0  0  0
 28 29  2  0  0  0  0
 29 35  1  0  0  0  0
 30 28  1  0  0  0  0
 31 36  1  6  0  0  0
 31 30  1  0  0  0  0
 32 31  1  0  0  0  0
 32 27  1  0  0  0  0
 34 26  1  0  0  0  0
 37 38  1  0  0  0  0
 38 45  2  0  0  0  0
 38 39  1  0  0  0  0
 39 31  1  0  0  0  0
 39 40  2  0  0  0  0
 40 42  1  0  0  0  0
 40 41  1  0  0  0  0
 42 43  1  0  0  0  0
 44 42  2  0  0  0  0
 45 44  1  0  0  0  0
M  END
>  <minimizedAffinity>
-5.30710936

>  <minimizedRMSD>
0.55857408

$$$$
