
 OpenBabel03252506063D

 43 47  0  0  0  0  0  0  0  0999 V2000
   44.8220   35.9620   43.1390 Cl  0  0  0  0  0  0  0  0  0  0  0  0
   45.5600   34.7280   44.1050 C   0  0  0  0  0  0  0  0  0  0  0  0
   46.6430   34.0200   43.6200 C   0  0  0  0  0  0  0  0  0  0  0  0
   47.1580   33.0570   44.4690 C   0  0  0  0  0  0  0  0  0  0  0  0
   46.6690   32.7750   45.7260 C   0  0  0  0  0  0  0  0  0  0  0  0
   45.5960   33.4970   46.1720 C   0  0  0  0  0  0  0  0  0  0  0  0
   45.0120   33.1010   47.7790 Cl  0  0  0  0  0  0  0  0  0  0  0  0
   45.0480   34.4600   45.3760 C   0  0  0  0  0  0  0  0  0  0  0  0
   48.0130   32.5060   44.0740 H   0  0  0  0  0  0  0  0  0  0  0  0
   44.1990   35.0150   45.7560 H   0  0  0  0  0  0  0  0  0  0  0  0
   47.3550   31.7160   46.4720 C   0  0  0  0  0  0  0  0  0  0  0  0
   47.4870   30.4230   45.9990 C   0  0  0  0  0  0  0  0  0  0  0  0
   48.1290   29.4120   46.6870 C   0  0  0  0  0  0  0  0  0  0  0  0
   48.6770   29.6870   47.9190 C   0  0  0  0  0  0  0  0  0  0  0  0
   49.2970   28.6900   48.5730 N   0  0  0  0  0  0  0  0  0  0  0  0
   49.8670   28.8690   49.7890 C   0  0  0  0  0  0  0  0  0  0  0  0
   49.7760   30.1430   50.3280 C   0  0  0  0  0  0  0  0  0  0  0  0
   49.1450   31.1610   49.6690 C   0  0  0  0  0  0  0  0  0  0  0  0
   48.5700   30.9560   48.4250 C   0  0  0  0  0  0  0  0  0  0  0  0
   47.9250   31.9510   47.7230 C   0  0  0  0  0  0  0  0  0  0  0  0
   47.0560   30.2040   45.0310 H   0  0  0  0  0  0  0  0  0  0  0  0
   48.1810   28.4310   46.2360 H   0  0  0  0  0  0  0  0  0  0  0  0
   50.3510   28.0380   50.2680 H   0  0  0  0  0  0  0  0  0  0  0  0
   50.2240   30.3080   51.3010 H   0  0  0  0  0  0  0  0  0  0  0  0
   49.0740   32.1540   50.0920 H   0  0  0  0  0  0  0  0  0  0  0  0
   47.8600   32.9420   48.1540 H   0  0  0  0  0  0  0  0  0  0  0  0
   48.6810   35.4440   40.9570 C   0  0  0  0  0  0  0  0  0  0  0  0
   48.2730   34.7230   39.8250 C   0  0  0  0  0  0  0  0  0  0  0  0
   47.2830   33.7320   39.9800 C   0  0  0  0  0  0  0  0  0  0  0  0
   46.8130   33.5700   41.2300 N   0  0  0  0  0  0  0  0  0  0  0  0
   47.2120   34.2660   42.3020 C   0  0  0  0  0  0  0  0  0  0  0  0
   48.1510   35.2100   42.1760 N   0  0  0  0  0  0  0  0  0  0  0  0
   49.4460   36.2010   40.8100 H   0  0  0  0  0  0  0  0  0  0  0  0
   48.6970   34.9080   38.8500 H   0  0  0  0  0  0  0  0  0  0  0  0
   49.0290   31.2470   39.5620 Br  0  0  0  0  0  0  0  0  0  0  0  0
   47.4780   31.7770   38.5550 C   0  0  0  0  0  0  0  0  0  0  0  0
   46.7930   32.9320   38.8670 C   0  0  0  0  0  0  0  0  0  0  0  0
   45.7000   33.2470   38.1100 C   0  0  0  0  0  0  0  0  0  0  0  0
   45.1370   34.1410   38.3200 H   0  0  0  0  0  0  0  0  0  0  0  0
   45.3400   32.4080   37.0850 C   0  0  0  0  0  0  0  0  0  0  0  0
   44.4630   32.6770   36.4900 H   0  0  0  0  0  0  0  0  0  0  0  0
   46.0120   31.2490   36.7560 C   0  0  0  0  0  3  0  0  0  0  0  0
   47.1290   30.9360   37.5390 C   0  0  0  0  0  3  0  0  0  0  0  0
  1  2  1  0  0  0  0
  2  8  1  0  0  0  0
  3  2  2  0  0  0  0
  3  4  1  0  0  0  0
  4  5  2  0  0  0  0
  5  6  1  0  0  0  0
  5 11  1  0  0  0  0
  6  7  1  0  0  0  0
  8 10  1  0  0  0  0
  8  6  2  0  0  0  0
  9  4  1  0  0  0  0
 11 20  1  0  0  0  0
 12 11  2  0  0  0  0
 12 13  1  0  0  0  0
 13 14  2  0  0  0  0
 14 19  1  0  0  0  0
 14 15  1  0  0  0  0
 15 16  2  0  0  0  0
 16 23  1  0  0  0  0
 16 17  1  0  0  0  0
 17 24  1  0  0  0  0
 18 25  1  0  0  0  0
 18 17  2  0  0  0  0
 19 18  1  0  0  0  0
 20 26  1  0  0  0  0
 20 19  2  0  0  0  0
 21 12  1  0  0  0  0
 22 13  1  0  0  0  0
 27 32  1  0  0  0  0
 28 29  1  0  0  0  0
 28 27  2  0  0  0  0
 29 30  2  0  0  0  0
 30 31  1  0  0  0  0
 31  3  1  0  0  0  0
 32 31  2  0  0  0  0
 33 27  1  0  0  0  0
 34 28  1  0  0  0  0
 36 37  1  0  0  0  0
 36 35  1  0  0  0  0
 37 29  1  0  0  0  0
 38 39  1  0  0  0  0
 38 37  2  0  0  0  0
 40 38  1  0  0  0  0
 41 40  1  0  0  0  0
 42 40  2  0  0  0  0
 42 43  1  0  0  0  0
 43 36  2  0  0  0  0
M  END
>  <minimizedAffinity>
-7.01762581

>  <minimizedRMSD>
0.66920805

$$$$
