
 OpenBabel03252503423D

 21 22  0  0  0  0  0  0  0  0999 V2000
   38.3320   30.4600   40.1780 C   0  0  0  0  0  0  0  0  0  0  0  0
   37.2170   31.3020   40.3630 C   0  0  0  0  0  0  0  0  0  0  0  0
   36.0330   30.6940   40.7500 C   0  0  0  0  0  0  0  0  0  0  0  0
   35.9850   29.3600   40.9320 N   0  0  0  0  0  0  0  0  0  0  0  0
   37.0790   28.5780   40.7460 C   0  0  0  0  0  0  0  0  0  0  0  0
   38.2490   29.1310   40.3700 N   0  0  0  0  0  0  0  0  0  0  0  0
   39.3180   30.7930   39.8780 H   0  0  0  0  0  0  0  0  0  0  0  0
   35.2220   31.3880   40.8720 H   0  0  0  0  0  0  0  0  0  0  0  0
   37.5170   27.7840   43.6800 Br  0  0  0  0  0  0  0  0  0  0  0  0
   37.1480   26.6150   42.2080 C   0  0  0  0  0  0  0  0  0  0  0  0
   36.9790   27.1360   40.9570 C   0  0  0  0  0  0  0  0  0  0  0  0
   36.7130   26.3200   39.8760 C   0  0  0  0  0  0  0  0  0  0  0  0
   36.5780   26.7340   38.8880 H   0  0  0  0  0  0  0  0  0  0  0  0
   36.6200   24.9520   40.0880 C   0  0  0  0  0  0  0  0  0  0  0  0
   36.4120   24.2710   39.2690 H   0  0  0  0  0  0  0  0  0  0  0  0
   36.7900   24.4180   41.3500 C   0  0  0  0  0  3  0  0  0  0  0  0
   37.0550   25.2560   42.4110 C   0  0  0  0  0  3  0  0  0  0  0  0
   37.4630   32.7370   40.1140 C   0  0  0  0  0  0  0  0  0  0  0  0
   37.9850   33.1580   40.9830 H   0  0  0  0  0  0  0  0  0  0  0  0
   36.5230   33.3050   40.0070 H   0  0  0  0  0  0  0  0  0  0  0  0
   38.1120   32.8820   39.2230 H   0  0  0  0  0  0  0  0  0  0  0  0
  1  2  2  0  0  0  0
  1  6  1  0  0  0  0
  2  3  1  0  0  0  0
  3  8  1  0  0  0  0
  3  4  2  0  0  0  0
  5  4  1  0  0  0  0
  5 11  1  0  0  0  0
  6  5  2  0  0  0  0
  7  1  1  0  0  0  0
 10 17  1  0  0  0  0
 10  9  1  0  0  0  0
 11 10  2  0  0  0  0
 12 14  2  0  0  0  0
 12 11  1  0  0  0  0
 13 12  1  0  0  0  0
 14 16  1  0  0  0  0
 15 14  1  0  0  0  0
 16 17  2  0  0  0  0
 18  2  1  0  0  0  0
 18 19  1  0  0  0  0
 20 18  1  0  0  0  0
 21 18  1  0  0  0  0
M  END
>  <minimizedAffinity>
-4.70546246

$$$$

 OpenBabel03252503423D

 21 22  0  0  0  0  0  0  0  0999 V2000
   38.0950   27.2980   40.7120 C   0  0  0  0  0  0  0  0  0  0  0  0
   37.2900   26.9420   41.8120 C   0  0  0  0  0  0  0  0  0  0  0  0
   36.6820   27.9780   42.5040 C   0  0  0  0  0  0  0  0  0  0  0  0
   36.8720   29.2530   42.1150 N   0  0  0  0  0  0  0  0  0  0  0  0
   37.6540   29.5630   41.0500 C   0  0  0  0  0  0  0  0  0  0  0  0
   38.2630   28.5840   40.3510 N   0  0  0  0  0  0  0  0  0  0  0  0
   38.6290   26.6000   40.0800 H   0  0  0  0  0  0  0  0  0  0  0  0
   36.0850   27.6400   43.3300 H   0  0  0  0  0  0  0  0  0  0  0  0
   39.9840   30.9080   42.5310 Br  0  0  0  0  0  0  0  0  0  0  0  0
   38.8250   31.7060   41.2320 C   0  0  0  0  0  0  0  0  0  0  0  0
   37.8290   30.9610   40.6650 C   0  0  0  0  0  0  0  0  0  0  0  0
   36.9770   31.5070   39.7270 C   0  0  0  0  0  0  0  0  0  0  0  0
   36.1920   30.9170   39.2790 H   0  0  0  0  0  0  0  0  0  0  0  0
   37.1540   32.8360   39.3690 C   0  0  0  0  0  0  0  0  0  0  0  0
   36.5090   33.3100   38.6350 H   0  0  0  0  0  0  0  0  0  0  0  0
   38.1580   33.5960   39.9380 C   0  0  0  0  0  3  0  0  0  0  0  0
   38.9940   33.0250   40.8720 C   0  0  0  0  0  3  0  0  0  0  0  0
   37.2030   25.4920   42.0850 C   0  0  0  0  0  0  0  0  0  0  0  0
   36.5050   25.0430   41.3660 H   0  0  0  0  0  0  0  0  0  0  0  0
   36.7970   25.2840   43.0900 H   0  0  0  0  0  0  0  0  0  0  0  0
   38.1920   25.0020   41.9520 H   0  0  0  0  0  0  0  0  0  0  0  0
  1  2  1  0  0  0  0
  2 18  1  0  0  0  0
  2  3  2  0  0  0  0
  3  8  1  0  0  0  0
  4  3  1  0  0  0  0
  5  4  2  0  0  0  0
  6  1  2  0  0  0  0
  6  5  1  0  0  0  0
  7  1  1  0  0  0  0
 10  9  1  0  0  0  0
 11  5  1  0  0  0  0
 11 10  2  0  0  0  0
 12 11  1  0  0  0  0
 13 12  1  0  0  0  0
 14 12  2  0  0  0  0
 14 16  1  0  0  0  0
 15 14  1  0  0  0  0
 16 17  2  0  0  0  0
 17 10  1  0  0  0  0
 18 20  1  0  0  0  0
 19 18  1  0  0  0  0
 21 18  1  0  0  0  0
M  END
>  <minimizedAffinity>
-4.49714327

$$$$

 OpenBabel03252503423D

 21 22  0  0  0  0  0  0  0  0999 V2000
   38.2340   30.4680   39.8430 C   0  0  0  0  0  0  0  0  0  0  0  0
   37.1850   31.3290   40.2220 C   0  0  0  0  0  0  0  0  0  0  0  0
   36.0680   30.7400   40.7920 C   0  0  0  0  0  0  0  0  0  0  0  0
   36.0190   29.4050   40.9630 N   0  0  0  0  0  0  0  0  0  0  0  0
   37.0480   28.6030   40.5870 C   0  0  0  0  0  0  0  0  0  0  0  0
   38.1530   29.1370   40.0290 N   0  0  0  0  0  0  0  0  0  0  0  0
   39.1640   30.7840   39.3880 H   0  0  0  0  0  0  0  0  0  0  0  0
   35.3050   31.4490   41.0560 H   0  0  0  0  0  0  0  0  0  0  0  0
   36.2020   27.1050   38.0440 Br  0  0  0  0  0  0  0  0  0  0  0  0
   36.5860   26.3450   39.7590 C   0  0  0  0  0  0  0  0  0  0  0  0
   36.9510   27.1600   40.7930 C   0  0  0  0  0  0  0  0  0  0  0  0
   37.2340   26.6440   42.0420 C   0  0  0  0  0  0  0  0  0  0  0  0
   37.5230   27.2890   42.8570 H   0  0  0  0  0  0  0  0  0  0  0  0
   37.1390   25.2720   42.2250 C   0  0  0  0  0  0  0  0  0  0  0  0
   37.3510   24.8190   43.1890 H   0  0  0  0  0  0  0  0  0  0  0  0
   36.7700   24.4410   41.1850 C   0  0  0  0  0  3  0  0  0  0  0  0
   36.4940   24.9840   39.9500 C   0  0  0  0  0  3  0  0  0  0  0  0
   37.4210   32.7630   39.9540 C   0  0  0  0  0  0  0  0  0  0  0  0
   38.0890   33.1580   40.7300 H   0  0  0  0  0  0  0  0  0  0  0  0
   36.4890   33.3530   40.0120 H   0  0  0  0  0  0  0  0  0  0  0  0
   37.9160   32.9090   38.9690 H   0  0  0  0  0  0  0  0  0  0  0  0
  1  6  2  0  0  0  0
  1  2  1  0  0  0  0
  2  3  2  0  0  0  0
  3  4  1  0  0  0  0
  3  8  1  0  0  0  0
  5 11  1  0  0  0  0
  5  4  2  0  0  0  0
  6  5  1  0  0  0  0
  7  1  1  0  0  0  0
  9 10  1  0  0  0  0
 10 17  2  0  0  0  0
 10 11  1  0  0  0  0
 11 12  2  0  0  0  0
 12 14  1  0  0  0  0
 12 13  1  0  0  0  0
 14 15  1  0  0  0  0
 16 14  2  0  0  0  0
 17 16  1  0  0  0  0
 18 20  1  0  0  0  0
 18  2  1  0  0  0  0
 18 19  1  0  0  0  0
 21 18  1  0  0  0  0
M  END
>  <minimizedAffinity>
-4.36095524

$$$$

 OpenBabel03252503423D

 21 22  0  0  0  0  0  0  0  0999 V2000
   39.7370   27.8180   41.7270 C   0  0  0  0  0  0  0  0  0  0  0  0
   39.1310   27.4810   42.9530 C   0  0  0  0  0  0  0  0  0  0  0  0
   38.2630   28.4150   43.4980 C   0  0  0  0  0  0  0  0  0  0  0  0
   38.0320   29.5780   42.8600 N   0  0  0  0  0  0  0  0  0  0  0  0
   38.6330   29.8710   41.6780 C   0  0  0  0  0  0  0  0  0  0  0  0
   39.4830   28.9900   41.1150 N   0  0  0  0  0  0  0  0  0  0  0  0
   40.4340   27.1910   41.1850 H   0  0  0  0  0  0  0  0  0  0  0  0
   37.8360   28.0990   44.4320 H   0  0  0  0  0  0  0  0  0  0  0  0
   36.1160   29.7600   39.9220 Br  0  0  0  0  0  0  0  0  0  0  0  0
   37.2640   31.2670   40.2040 C   0  0  0  0  0  0  0  0  0  0  0  0
   38.3500   31.1450   41.0220 C   0  0  0  0  0  0  0  0  0  0  0  0
   39.1970   32.2130   41.2450 C   0  0  0  0  0  0  0  0  0  0  0  0
   40.0550   32.1150   41.8930 H   0  0  0  0  0  0  0  0  0  0  0  0
   38.9190   33.4180   40.6170 C   0  0  0  0  0  0  0  0  0  0  0  0
   39.5550   34.2860   40.7620 H   0  0  0  0  0  0  0  0  0  0  0  0
   37.8220   33.5490   39.7870 C   0  0  0  0  0  3  0  0  0  0  0  0
   36.9940   32.4670   39.5830 C   0  0  0  0  0  3  0  0  0  0  0  0
   39.5080   26.1620   43.5010 C   0  0  0  0  0  0  0  0  0  0  0  0
   38.9530   25.3870   42.9570 H   0  0  0  0  0  0  0  0  0  0  0  0
   39.2310   26.0610   44.5640 H   0  0  0  0  0  0  0  0  0  0  0  0
   40.5940   25.9670   43.3590 H   0  0  0  0  0  0  0  0  0  0  0  0
  1  2  1  0  0  0  0
  2  3  2  0  0  0  0
  2 18  1  0  0  0  0
  3  8  1  0  0  0  0
  4  3  1  0  0  0  0
  5  4  2  0  0  0  0
  6  5  1  0  0  0  0
  6  1  2  0  0  0  0
  7  1  1  0  0  0  0
  9 10  1  0  0  0  0
 10 11  1  0  0  0  0
 11 12  2  0  0  0  0
 11  5  1  0  0  0  0
 12 13  1  0  0  0  0
 14 15  1  0  0  0  0
 14 12  1  0  0  0  0
 16 14  2  0  0  0  0
 17 16  1  0  0  0  0
 17 10  2  0  0  0  0
 18 20  1  0  0  0  0
 19 18  1  0  0  0  0
 21 18  1  0  0  0  0
M  END
>  <minimizedAffinity>
-4.27883673

$$$$

 OpenBabel03252503423D

 21 22  0  0  0  0  0  0  0  0999 V2000
   40.5980   31.5840   39.7740 C   0  0  0  0  0  0  0  0  0  0  0  0
   40.1230   32.9110   39.7960 C   0  0  0  0  0  0  0  0  0  0  0  0
   38.9350   33.1380   40.4730 C   0  0  0  0  0  0  0  0  0  0  0  0
   38.2910   32.1180   41.0710 N   0  0  0  0  0  0  0  0  0  0  0  0
   38.7770   30.8500   41.0310 C   0  0  0  0  0  0  0  0  0  0  0  0
   39.9300   30.5880   40.3830 N   0  0  0  0  0  0  0  0  0  0  0  0
   41.5090   31.2580   39.2870 H   0  0  0  0  0  0  0  0  0  0  0  0
   38.6280   34.1670   40.4520 H   0  0  0  0  0  0  0  0  0  0  0  0
   36.5670   29.6630   39.2590 Br  0  0  0  0  0  0  0  0  0  0  0  0
   37.0260   29.1380   41.0430 C   0  0  0  0  0  0  0  0  0  0  0  0
   38.0440   29.7750   41.6940 C   0  0  0  0  0  0  0  0  0  0  0  0
   38.3980   29.4210   42.9810 C   0  0  0  0  0  0  0  0  0  0  0  0
   39.2030   29.9250   43.4940 H   0  0  0  0  0  0  0  0  0  0  0  0
   37.6960   28.3980   43.6010 C   0  0  0  0  0  0  0  0  0  0  0  0
   37.9380   28.0830   44.6110 H   0  0  0  0  0  0  0  0  0  0  0  0
   36.6650   27.7490   42.9490 C   0  0  0  0  0  3  0  0  0  0  0  0
   36.3330   28.1230   41.6660 C   0  0  0  0  0  3  0  0  0  0  0  0
   40.9670   33.8940   39.0850 C   0  0  0  0  0  0  0  0  0  0  0  0
   41.8280   34.1400   39.7190 H   0  0  0  0  0  0  0  0  0  0  0  0
   40.4310   34.8410   38.8990 H   0  0  0  0  0  0  0  0  0  0  0  0
   41.3550   33.4700   38.1320 H   0  0  0  0  0  0  0  0  0  0  0  0
  1  2  2  0  0  0  0
  1  6  1  0  0  0  0
  2  3  1  0  0  0  0
  3  4  2  0  0  0  0
  5  4  1  0  0  0  0
  5 11  1  0  0  0  0
  6  5  2  0  0  0  0
  7  1  1  0  0  0  0
  8  3  1  0  0  0  0
  9 10  1  0  0  0  0
 10 17  2  0  0  0  0
 10 11  1  0  0  0  0
 11 12  2  0  0  0  0
 12 13  1  0  0  0  0
 12 14  1  0  0  0  0
 14 15  1  0  0  0  0
 16 14  2  0  0  0  0
 17 16  1  0  0  0  0
 18 19  1  0  0  0  0
 18  2  1  0  0  0  0
 20 18  1  0  0  0  0
 21 18  1  0  0  0  0
M  END
>  <minimizedAffinity>
-4.25765419

$$$$

 OpenBabel03252503423D

 21 22  0  0  0  0  0  0  0  0999 V2000
   38.7010   30.9340   39.9570 C   0  0  0  0  0  0  0  0  0  0  0  0
   37.4520   31.5390   40.2030 C   0  0  0  0  0  0  0  0  0  0  0  0
   36.5850   30.8630   41.0470 C   0  0  0  0  0  0  0  0  0  0  0  0
   36.9510   29.6860   41.5910 N   0  0  0  0  0  0  0  0  0  0  0  0
   38.1630   29.1310   41.3340 C   0  0  0  0  0  0  0  0  0  0  0  0
   39.0340   29.7570   40.5180 N   0  0  0  0  0  0  0  0  0  0  0  0
   39.4760   31.3440   39.3220 H   0  0  0  0  0  0  0  0  0  0  0  0
   35.6520   31.3750   41.1920 H   0  0  0  0  0  0  0  0  0  0  0  0
   37.0670   26.7280   39.7650 Br  0  0  0  0  0  0  0  0  0  0  0  0
   38.1060   26.6830   41.3730 C   0  0  0  0  0  0  0  0  0  0  0  0
   38.5160   27.8530   41.9470 C   0  0  0  0  0  0  0  0  0  0  0  0
   39.2650   27.8530   43.1070 C   0  0  0  0  0  0  0  0  0  0  0  0
   39.5890   28.7790   43.5580 H   0  0  0  0  0  0  0  0  0  0  0  0
   39.5950   26.6340   43.6800 C   0  0  0  0  0  0  0  0  0  0  0  0
   40.1830   26.5830   44.5910 H   0  0  0  0  0  0  0  0  0  0  0  0
   39.1840   25.4460   43.1060 C   0  0  0  0  0  3  0  0  0  0  0  0
   38.4370   25.4760   41.9490 C   0  0  0  0  0  3  0  0  0  0  0  0
   37.2310   32.8290   39.5170 C   0  0  0  0  0  0  0  0  0  0  0  0
   37.7720   33.6120   40.0630 H   0  0  0  0  0  0  0  0  0  0  0  0
   36.1670   33.1220   39.5190 H   0  0  0  0  0  0  0  0  0  0  0  0
   37.6280   32.8000   38.4780 H   0  0  0  0  0  0  0  0  0  0  0  0
  1  2  2  0  0  0  0
  1  6  1  0  0  0  0
  2  3  1  0  0  0  0
  3  8  1  0  0  0  0
  3  4  2  0  0  0  0
  5  4  1  0  0  0  0
  5 11  1  0  0  0  0
  6  5  2  0  0  0  0
  7  1  1  0  0  0  0
  9 10  1  0  0  0  0
 10 11  2  0  0  0  0
 10 17  1  0  0  0  0
 11 12  1  0  0  0  0
 12 13  1  0  0  0  0
 12 14  2  0  0  0  0
 14 15  1  0  0  0  0
 16 14  1  0  0  0  0
 17 16  2  0  0  0  0
 18 20  1  0  0  0  0
 18 19  1  0  0  0  0
 18  2  1  0  0  0  0
 21 18  1  0  0  0  0
M  END
>  <minimizedAffinity>
-4.22310972

$$$$

 OpenBabel03252503423D

 21 22  0  0  0  0  0  0  0  0999 V2000
   35.8150   28.2430   37.7530 C   0  0  0  0  0  0  0  0  0  0  0  0
   34.5010   28.7520   37.7230 C   0  0  0  0  0  0  0  0  0  0  0  0
   33.9590   29.1540   38.9330 C   0  0  0  0  0  0  0  0  0  0  0  0
   34.6810   29.0500   40.0660 N   0  0  0  0  0  0  0  0  0  0  0  0
   35.9450   28.5560   40.0600 C   0  0  0  0  0  0  0  0  0  0  0  0
   36.5090   28.1540   38.9020 N   0  0  0  0  0  0  0  0  0  0  0  0
   36.3660   27.8930   36.8880 H   0  0  0  0  0  0  0  0  0  0  0  0
   32.9570   29.5300   38.8430 H   0  0  0  0  0  0  0  0  0  0  0  0
   37.4330   31.1550   40.7400 Br  0  0  0  0  0  0  0  0  0  0  0  0
   37.4080   29.5350   41.7620 C   0  0  0  0  0  0  0  0  0  0  0  0
   36.6900   28.4630   41.3130 C   0  0  0  0  0  0  0  0  0  0  0  0
   36.6520   27.2820   42.0260 C   0  0  0  0  0  0  0  0  0  0  0  0
   36.0840   26.4360   41.6700 H   0  0  0  0  0  0  0  0  0  0  0  0
   37.3630   27.2060   43.2150 C   0  0  0  0  0  0  0  0  0  0  0  0
   37.3640   26.2980   43.8100 H   0  0  0  0  0  0  0  0  0  0  0  0
   38.0920   28.2850   43.6750 C   0  0  0  0  0  3  0  0  0  0  0  0
   38.1110   29.4520   42.9430 C   0  0  0  0  0  3  0  0  0  0  0  0
   33.8700   28.7880   36.3870 C   0  0  0  0  0  0  0  0  0  0  0  0
   34.2680   29.6490   35.8350 H   0  0  0  0  0  0  0  0  0  0  0  0
   32.7770   28.9310   36.4500 H   0  0  0  0  0  0  0  0  0  0  0  0
   34.1120   27.8690   35.8080 H   0  0  0  0  0  0  0  0  0  0  0  0
  1  6  1  0  0  0  0
  2  1  2  0  0  0  0
  2  3  1  0  0  0  0
  3  4  2  0  0  0  0
  5  4  1  0  0  0  0
  5 11  1  0  0  0  0
  6  5  2  0  0  0  0
  7  1  1  0  0  0  0
  8  3  1  0  0  0  0
  9 10  1  0  0  0  0
 10 17  1  0  0  0  0
 11 10  2  0  0  0  0
 11 12  1  0  0  0  0
 12 14  2  0  0  0  0
 13 12  1  0  0  0  0
 14 16  1  0  0  0  0
 14 15  1  0  0  0  0
 17 16  2  0  0  0  0
 18 20  1  0  0  0  0
 18  2  1  0  0  0  0
 19 18  1  0  0  0  0
 21 18  1  0  0  0  0
M  END
>  <minimizedAffinity>
-4.20700312

$$$$

 OpenBabel03252503423D

 21 22  0  0  0  0  0  0  0  0999 V2000
   33.9370   29.1300   38.8120 C   0  0  0  0  0  0  0  0  0  0  0  0
   34.5200   28.8040   37.5710 C   0  0  0  0  0  0  0  0  0  0  0  0
   35.8400   28.3820   37.5920 C   0  0  0  0  0  0  0  0  0  0  0  0
   36.5050   28.2990   38.7600 N   0  0  0  0  0  0  0  0  0  0  0  0
   35.9140   28.6200   39.9390 C   0  0  0  0  0  0  0  0  0  0  0  0
   34.6310   29.0340   39.9610 N   0  0  0  0  0  0  0  0  0  0  0  0
   32.9190   29.4720   38.9500 H   0  0  0  0  0  0  0  0  0  0  0  0
   36.2250   28.1510   36.6160 H   0  0  0  0  0  0  0  0  0  0  0  0
   37.3440   31.2360   40.6740 Br  0  0  0  0  0  0  0  0  0  0  0  0
   37.3710   29.5900   41.6520 C   0  0  0  0  0  0  0  0  0  0  0  0
   36.6750   28.5130   41.1810 C   0  0  0  0  0  0  0  0  0  0  0  0
   36.6750   27.3120   41.8620 C   0  0  0  0  0  0  0  0  0  0  0  0
   36.1240   26.4620   41.4890 H   0  0  0  0  0  0  0  0  0  0  0  0
   37.4010   27.2220   43.0410 C   0  0  0  0  0  0  0  0  0  0  0  0
   37.4310   26.2990   43.6120 H   0  0  0  0  0  0  0  0  0  0  0  0
   38.1070   28.3060   43.5230 C   0  0  0  0  0  3  0  0  0  0  0  0
   38.0890   29.4920   42.8230 C   0  0  0  0  0  3  0  0  0  0  0  0
   33.6330   28.9590   36.3990 C   0  0  0  0  0  0  0  0  0  0  0  0
   32.9520   28.1000   36.3600 H   0  0  0  0  0  0  0  0  0  0  0  0
   34.1980   28.9580   35.4510 H   0  0  0  0  0  0  0  0  0  0  0  0
   33.0160   29.8810   36.4860 H   0  0  0  0  0  0  0  0  0  0  0  0
  1  7  1  0  0  0  0
  1  6  1  0  0  0  0
  2  3  1  0  0  0  0
  2  1  2  0  0  0  0
  3  4  2  0  0  0  0
  4  5  1  0  0  0  0
  5  6  2  0  0  0  0
  5 11  1  0  0  0  0
  8  3  1  0  0  0  0
  9 10  1  0  0  0  0
 10 17  1  0  0  0  0
 11 10  2  0  0  0  0
 11 12  1  0  0  0  0
 12 14  2  0  0  0  0
 13 12  1  0  0  0  0
 14 16  1  0  0  0  0
 14 15  1  0  0  0  0
 17 16  2  0  0  0  0
 18 21  1  0  0  0  0
 18  2  1  0  0  0  0
 19 18  1  0  0  0  0
 20 18  1  0  0  0  0
M  END
>  <minimizedAffinity>
-4.19024086

$$$$

 OpenBabel03252503423D

 21 22  0  0  0  0  0  0  0  0999 V2000
   36.6590   27.9620   38.8330 C   0  0  0  0  0  0  0  0  0  0  0  0
   35.5290   28.6690   39.2900 C   0  0  0  0  0  0  0  0  0  0  0  0
   35.4480   28.9040   40.6540 C   0  0  0  0  0  0  0  0  0  0  0  0
   36.4220   28.4660   41.4750 N   0  0  0  0  0  0  0  0  0  0  0  0
   37.4990   27.7880   41.0010 C   0  0  0  0  0  0  0  0  0  0  0  0
   37.6150   27.5390   39.6810 N   0  0  0  0  0  0  0  0  0  0  0  0
   36.8570   27.7070   37.7990 H   0  0  0  0  0  0  0  0  0  0  0  0
   34.5640   29.4450   40.9370 H   0  0  0  0  0  0  0  0  0  0  0  0
   37.1430   24.8470   41.8070 Br  0  0  0  0  0  0  0  0  0  0  0  0
   38.5180   26.0460   42.3880 C   0  0  0  0  0  0  0  0  0  0  0  0
   38.5300   27.3330   41.9300 C   0  0  0  0  0  0  0  0  0  0  0  0
   39.5080   28.2220   42.3300 C   0  0  0  0  0  0  0  0  0  0  0  0
   39.5160   29.2390   41.9660 H   0  0  0  0  0  0  0  0  0  0  0  0
   40.4830   27.7790   43.2110 C   0  0  0  0  0  0  0  0  0  0  0  0
   41.2720   28.4410   43.5540 H   0  0  0  0  0  0  0  0  0  0  0  0
   40.4770   26.4790   43.6800 C   0  0  0  0  0  3  0  0  0  0  0  0
   39.4900   25.6130   43.2630 C   0  0  0  0  0  3  0  0  0  0  0  0
   34.5690   29.0670   38.2400 C   0  0  0  0  0  0  0  0  0  0  0  0
   34.9670   29.9460   37.7180 H   0  0  0  0  0  0  0  0  0  0  0  0
   33.5940   29.3660   38.6630 H   0  0  0  0  0  0  0  0  0  0  0  0
   34.4370   28.2540   37.4910 H   0  0  0  0  0  0  0  0  0  0  0  0
  1  2  2  0  0  0  0
  1  6  1  0  0  0  0
  2  3  1  0  0  0  0
  3  8  1  0  0  0  0
  3  4  2  0  0  0  0
  5  4  1  0  0  0  0
  5 11  1  0  0  0  0
  6  5  2  0  0  0  0
  7  1  1  0  0  0  0
  9 10  1  0  0  0  0
 10 17  1  0  0  0  0
 11 12  1  0  0  0  0
 11 10  2  0  0  0  0
 12 14  2  0  0  0  0
 13 12  1  0  0  0  0
 14 15  1  0  0  0  0
 14 16  1  0  0  0  0
 17 16  2  0  0  0  0
 18 20  1  0  0  0  0
 18  2  1  0  0  0  0
 19 18  1  0  0  0  0
 21 18  1  0  0  0  0
M  END
>  <minimizedAffinity>
-4.1603775

$$$$
