
 OpenBabel03242514043D

 27 29  0  0  0  0  0  0  0  0999 V2000
   39.2010   30.0480   41.4320 C   0  0  0  0  0  0  0  0  0  0  0  0
   40.3330   30.1860   42.2230 C   0  0  0  0  0  0  0  0  0  0  0  0
   40.9600   29.1410   42.8580 C   0  0  0  0  0  0  0  0  0  0  0  0
   40.3600   27.8830   42.6470 C   0  0  0  0  0  0  0  0  0  0  0  0
   39.2310   27.7300   41.8620 C   0  0  0  0  0  0  0  0  0  0  0  0
   38.6870   28.8260   41.2780 N   0  0  0  0  0  0  0  0  0  0  0  0
   40.7180   31.1920   42.3230 H   0  0  0  0  0  0  0  0  0  0  0  0
   41.8330   29.2670   43.4650 H   0  0  0  0  0  0  0  0  0  0  0  0
   40.8450   27.0520   43.1430 H   0  0  0  0  0  0  0  0  0  0  0  0
   37.0410   32.1490   39.3550 C   0  0  0  0  0  0  0  0  0  0  0  0
   37.5080   33.4360   39.6230 C   0  0  0  0  0  0  0  0  0  0  0  0
   38.5680   33.5700   40.5200 C   0  0  0  0  0  0  0  0  0  0  0  0
   39.0920   32.4380   41.0880 N   0  0  0  0  0  0  0  0  0  0  0  0
   38.6040   31.2080   40.7960 C   0  0  0  0  0  0  0  0  0  0  0  0
   37.5930   31.0530   39.9440 N   0  0  0  0  0  0  0  0  0  0  0  0
   36.2310   31.9780   38.6770 H   0  0  0  0  0  0  0  0  0  0  0  0
   37.0660   34.3020   39.1530 H   0  0  0  0  0  0  0  0  0  0  0  0
   38.9690   34.5420   40.7630 H   0  0  0  0  0  0  0  0  0  0  0  0
   36.6930   27.3930   43.5100 Br  0  0  0  0  0  0  0  0  0  0  0  0
   37.4620   26.0960   42.3200 C   0  0  0  0  0  0  0  0  0  0  0  0
   38.6290   26.4420   41.6560 C   0  0  0  0  0  0  0  0  0  0  0  0
   39.1060   25.4590   40.8290 C   0  0  0  0  0  0  0  0  0  0  0  0
   40.0100   25.6380   40.2710 H   0  0  0  0  0  0  0  0  0  0  0  0
   38.5180   24.2330   40.6440 C   0  0  0  0  0  0  0  0  0  0  0  0
   38.9540   23.5030   39.9720 H   0  0  0  0  0  0  0  0  0  0  0  0
   37.3650   23.9280   41.3180 C   0  0  0  0  0  3  0  0  0  0  0  0
   36.8470   24.8750   42.1550 C   0  0  0  0  0  3  0  0  0  0  0  0
  1  2  1  0  0  0  0
  2  7  1  0  0  0  0
  2  3  2  0  0  0  0
  3  8  1  0  0  0  0
  4  3  1  0  0  0  0
  4  9  1  0  0  0  0
  5  4  2  0  0  0  0
  6  1  2  0  0  0  0
  6  5  1  0  0  0  0
 10 11  2  0  0  0  0
 10 15  1  0  0  0  0
 11 12  1  0  0  0  0
 12 18  1  0  0  0  0
 12 13  2  0  0  0  0
 14 13  1  0  0  0  0
 14  1  1  0  0  0  0
 15 14  2  0  0  0  0
 16 10  1  0  0  0  0
 17 11  1  0  0  0  0
 20 19  1  0  0  0  0
 21  5  1  0  0  0  0
 21 20  2  0  0  0  0
 22 21  1  0  0  0  0
 23 22  1  0  0  0  0
 24 22  2  0  0  0  0
 24 26  1  0  0  0  0
 25 24  1  0  0  0  0
 26 27  2  0  0  0  0
 27 20  1  0  0  0  0
M  END
>  <minimizedAffinity>
-5.38175917

$$$$

 OpenBabel03242514043D

 27 29  0  0  0  0  0  0  0  0999 V2000
   39.2660   30.7700   38.4640 C   0  0  0  0  0  0  0  0  0  0  0  0
   38.4160   31.8130   38.1230 C   0  0  0  0  0  0  0  0  0  0  0  0
   37.2600   32.1180   38.8020 C   0  0  0  0  0  0  0  0  0  0  0  0
   36.9870   31.2770   39.8990 C   0  0  0  0  0  0  0  0  0  0  0  0
   37.8240   30.2330   40.2510 C   0  0  0  0  0  0  0  0  0  0  0  0
   38.9420   30.0140   39.5160 N   0  0  0  0  0  0  0  0  0  0  0  0
   38.7130   32.4020   37.2650 H   0  0  0  0  0  0  0  0  0  0  0  0
   36.6170   32.9280   38.5230 H   0  0  0  0  0  0  0  0  0  0  0  0
   36.0790   31.5080   40.4410 H   0  0  0  0  0  0  0  0  0  0  0  0
   42.4040   31.2780   36.6520 C   0  0  0  0  0  0  0  0  0  0  0  0
   42.7310   29.9890   36.2290 C   0  0  0  0  0  0  0  0  0  0  0  0
   41.8640   28.9520   36.5730 C   0  0  0  0  0  0  0  0  0  0  0  0
   40.7430   29.2500   37.3020 N   0  0  0  0  0  0  0  0  0  0  0  0
   40.4680   30.5200   37.6910 C   0  0  0  0  0  0  0  0  0  0  0  0
   41.2790   31.5270   37.3770 N   0  0  0  0  0  0  0  0  0  0  0  0
   43.0270   32.1170   36.4220 H   0  0  0  0  0  0  0  0  0  0  0  0
   43.6250   29.7980   35.6550 H   0  0  0  0  0  0  0  0  0  0  0  0
   42.0680   27.9360   36.2710 H   0  0  0  0  0  0  0  0  0  0  0  0
   39.6300   30.8370   42.6270 Br  0  0  0  0  0  0  0  0  0  0  0  0
   38.2510   29.5030   42.5520 C   0  0  0  0  0  0  0  0  0  0  0  0
   37.5330   29.3820   41.3720 C   0  0  0  0  0  0  0  0  0  0  0  0
   36.5700   28.4080   41.4070 C   0  0  0  0  0  0  0  0  0  0  0  0
   35.9620   28.2410   40.5340 H   0  0  0  0  0  0  0  0  0  0  0  0
   36.3050   27.6030   42.4870 C   0  0  0  0  0  0  0  0  0  0  0  0
   35.5260   26.8510   42.4420 H   0  0  0  0  0  0  0  0  0  0  0  0
   37.0360   27.7520   43.6360 C   0  0  0  0  0  3  0  0  0  0  0  0
   38.0090   28.7110   43.6530 C   0  0  0  0  0  3  0  0  0  0  0  0
  1  6  1  0  0  0  0
  2  1  2  0  0  0  0
  2  3  1  0  0  0  0
  3  4  2  0  0  0  0
  4  5  1  0  0  0  0
  4  9  1  0  0  0  0
  5 21  1  0  0  0  0
  6  5  2  0  0  0  0
  7  2  1  0  0  0  0
  8  3  1  0  0  0  0
 10 15  1  0  0  0  0
 11 12  1  0  0  0  0
 11 10  2  0  0  0  0
 12 13  2  0  0  0  0
 13 14  1  0  0  0  0
 14  1  1  0  0  0  0
 15 14  2  0  0  0  0
 16 10  1  0  0  0  0
 17 11  1  0  0  0  0
 18 12  1  0  0  0  0
 20 19  1  0  0  0  0
 20 27  1  0  0  0  0
 21 22  1  0  0  0  0
 21 20  2  0  0  0  0
 22 24  2  0  0  0  0
 23 22  1  0  0  0  0
 24 26  1  0  0  0  0
 25 24  1  0  0  0  0
 26 27  2  0  0  0  0
M  END
>  <minimizedAffinity>
-5.27403879

$$$$

 OpenBabel03242514043D

 27 29  0  0  0  0  0  0  0  0999 V2000
   39.1610   31.6810   39.2030 C   0  0  0  0  0  0  0  0  0  0  0  0
   38.2050   32.6850   39.1470 C   0  0  0  0  0  0  0  0  0  0  0  0
   37.0280   32.6680   39.8570 C   0  0  0  0  0  0  0  0  0  0  0  0
   36.8510   31.5300   40.6690 C   0  0  0  0  0  0  0  0  0  0  0  0
   37.7950   30.5210   40.7360 C   0  0  0  0  0  0  0  0  0  0  0  0
   38.9250   30.6320   39.9950 N   0  0  0  0  0  0  0  0  0  0  0  0
   38.4340   33.5170   38.4940 H   0  0  0  0  0  0  0  0  0  0  0  0
   36.3030   33.4530   39.8000 H   0  0  0  0  0  0  0  0  0  0  0  0
   35.9270   31.5060   41.2330 H   0  0  0  0  0  0  0  0  0  0  0  0
   42.0860   33.0480   37.4800 C   0  0  0  0  0  0  0  0  0  0  0  0
   42.6810   31.9120   36.9300 C   0  0  0  0  0  0  0  0  0  0  0  0
   42.0680   30.6800   37.1580 C   0  0  0  0  0  0  0  0  0  0  0  0
   40.9200   30.6490   37.9050 N   0  0  0  0  0  0  0  0  0  0  0  0
   40.3780   31.7800   38.4190 C   0  0  0  0  0  0  0  0  0  0  0  0
   40.9440   32.9680   38.2170 N   0  0  0  0  0  0  0  0  0  0  0  0
   42.5070   34.0210   37.3420 H   0  0  0  0  0  0  0  0  0  0  0  0
   43.5880   31.9810   36.3470 H   0  0  0  0  0  0  0  0  0  0  0  0
   42.4860   29.7700   36.7560 H   0  0  0  0  0  0  0  0  0  0  0  0
   36.5680   28.2050   39.1850 Br  0  0  0  0  0  0  0  0  0  0  0  0
   37.0520   28.2050   41.0440 C   0  0  0  0  0  0  0  0  0  0  0  0
   37.6020   29.3660   41.5670 C   0  0  0  0  0  0  0  0  0  0  0  0
   37.9170   29.2760   42.8980 C   0  0  0  0  0  0  0  0  0  0  0  0
   38.3490   30.1310   43.3920 H   0  0  0  0  0  0  0  0  0  0  0  0
   37.7250   28.1640   43.6790 C   0  0  0  0  0  0  0  0  0  0  0  0
   37.9990   28.1670   44.7270 H   0  0  0  0  0  0  0  0  0  0  0  0
   37.1790   27.0360   43.1260 C   0  0  0  0  0  3  0  0  0  0  0  0
   36.8480   27.0720   41.8010 C   0  0  0  0  0  3  0  0  0  0  0  0
  1  6  1  0  0  0  0
  2  1  2  0  0  0  0
  2  3  1  0  0  0  0
  3  4  2  0  0  0  0
  4  5  1  0  0  0  0
  4  9  1  0  0  0  0
  5 21  1  0  0  0  0
  6  5  2  0  0  0  0
  7  2  1  0  0  0  0
  8  3  1  0  0  0  0
 10 15  1  0  0  0  0
 11 12  1  0  0  0  0
 11 10  2  0  0  0  0
 12 13  2  0  0  0  0
 13 14  1  0  0  0  0
 14  1  1  0  0  0  0
 15 14  2  0  0  0  0
 16 10  1  0  0  0  0
 17 11  1  0  0  0  0
 18 12  1  0  0  0  0
 19 20  1  0  0  0  0
 20 21  2  0  0  0  0
 20 27  1  0  0  0  0
 21 22  1  0  0  0  0
 22 23  1  0  0  0  0
 22 24  2  0  0  0  0
 24 25  1  0  0  0  0
 26 24  1  0  0  0  0
 27 26  2  0  0  0  0
M  END
>  <minimizedAffinity>
-5.22051573

$$$$

 OpenBabel03242514043D

 27 29  0  0  0  0  0  0  0  0999 V2000
   37.4010   29.0170   41.2330 C   0  0  0  0  0  0  0  0  0  0  0  0
   37.3950   29.2080   42.6070 C   0  0  0  0  0  0  0  0  0  0  0  0
   37.4300   28.1860   43.5260 C   0  0  0  0  0  0  0  0  0  0  0  0
   37.4750   26.8950   42.9640 C   0  0  0  0  0  0  0  0  0  0  0  0
   37.4810   26.6890   41.5950 C   0  0  0  0  0  0  0  0  0  0  0  0
   37.4430   27.7650   40.7720 N   0  0  0  0  0  0  0  0  0  0  0  0
   37.3600   30.2370   42.9400 H   0  0  0  0  0  0  0  0  0  0  0  0
   37.4260   28.3530   44.5840 H   0  0  0  0  0  0  0  0  0  0  0  0
   37.5030   26.0820   43.6780 H   0  0  0  0  0  0  0  0  0  0  0  0
   37.2520   31.0380   38.1850 C   0  0  0  0  0  0  0  0  0  0  0  0
   37.2890   32.3440   38.6760 C   0  0  0  0  0  0  0  0  0  0  0  0
   37.3650   32.5180   40.0580 C   0  0  0  0  0  0  0  0  0  0  0  0
   37.4000   31.4050   40.8570 N   0  0  0  0  0  0  0  0  0  0  0  0
   37.3620   30.1560   40.3330 C   0  0  0  0  0  0  0  0  0  0  0  0
   37.2880   29.9620   39.0180 N   0  0  0  0  0  0  0  0  0  0  0  0
   37.1920   30.8370   37.1370 H   0  0  0  0  0  0  0  0  0  0  0  0
   37.2580   33.1940   38.0100 H   0  0  0  0  0  0  0  0  0  0  0  0
   37.3970   33.5060   40.4910 H   0  0  0  0  0  0  0  0  0  0  0  0
   40.3410   25.6910   41.2800 Br  0  0  0  0  0  0  0  0  0  0  0  0
   38.7410   24.7370   40.8130 C   0  0  0  0  0  0  0  0  0  0  0  0
   37.5260   25.3670   41.0350 C   0  0  0  0  0  0  0  0  0  0  0  0
   36.4390   24.6140   40.6740 C   0  0  0  0  0  0  0  0  0  0  0  0
   35.4510   25.0220   40.8100 H   0  0  0  0  0  0  0  0  0  0  0  0
   36.4990   23.3520   40.1390 C   0  0  0  0  0  0  0  0  0  0  0  0
   35.5950   22.8150   39.8770 H   0  0  0  0  0  0  0  0  0  0  0  0
   37.7190   22.7620   39.9350 C   0  0  0  0  0  3  0  0  0  0  0  0
   38.8350   23.4700   40.2790 C   0  0  0  0  0  3  0  0  0  0  0  0
  1  2  1  0  0  0  0
  2  7  1  0  0  0  0
  2  3  2  0  0  0  0
  3  8  1  0  0  0  0
  4  3  1  0  0  0  0
  4  9  1  0  0  0  0
  5  4  2  0  0  0  0
  6  1  2  0  0  0  0
  6  5  1  0  0  0  0
 10 11  2  0  0  0  0
 10 15  1  0  0  0  0
 11 12  1  0  0  0  0
 12 18  1  0  0  0  0
 12 13  2  0  0  0  0
 14 13  1  0  0  0  0
 14  1  1  0  0  0  0
 15 14  2  0  0  0  0
 16 10  1  0  0  0  0
 17 11  1  0  0  0  0
 20 21  1  0  0  0  0
 20 19  1  0  0  0  0
 21  5  1  0  0  0  0
 22 23  1  0  0  0  0
 22 21  2  0  0  0  0
 24 22  1  0  0  0  0
 25 24  1  0  0  0  0
 26 24  2  0  0  0  0
 26 27  1  0  0  0  0
 27 20  2  0  0  0  0
M  END
>  <minimizedAffinity>
-5.18989515

$$$$

 OpenBabel03242514043D

 27 29  0  0  0  0  0  0  0  0999 V2000
   38.2810   30.5770   40.4660 C   0  0  0  0  0  0  0  0  0  0  0  0
   37.1180   31.3330   40.5190 C   0  0  0  0  0  0  0  0  0  0  0  0
   35.8630   30.8020   40.6980 C   0  0  0  0  0  0  0  0  0  0  0  0
   35.8330   29.3990   40.8280 C   0  0  0  0  0  0  0  0  0  0  0  0
   36.9840   28.6320   40.7760 C   0  0  0  0  0  0  0  0  0  0  0  0
   38.1750   29.2520   40.5960 N   0  0  0  0  0  0  0  0  0  0  0  0
   37.2460   32.4010   40.4090 H   0  0  0  0  0  0  0  0  0  0  0  0
   34.9770   31.4030   40.7370 H   0  0  0  0  0  0  0  0  0  0  0  0
   34.8490   28.9710   40.9690 H   0  0  0  0  0  0  0  0  0  0  0  0
   40.9720   33.0570   40.5200 C   0  0  0  0  0  0  0  0  0  0  0  0
   42.0220   32.3890   39.8880 C   0  0  0  0  0  0  0  0  0  0  0  0
   41.7940   31.0860   39.4470 C   0  0  0  0  0  0  0  0  0  0  0  0
   40.5580   30.5320   39.6550 N   0  0  0  0  0  0  0  0  0  0  0  0
   39.5680   31.2200   40.2740 C   0  0  0  0  0  0  0  0  0  0  0  0
   39.7600   32.4650   40.7050 N   0  0  0  0  0  0  0  0  0  0  0  0
   41.0830   34.0570   40.8820 H   0  0  0  0  0  0  0  0  0  0  0  0
   42.9810   32.8640   39.7450 H   0  0  0  0  0  0  0  0  0  0  0  0
   42.5710   30.5240   38.9520 H   0  0  0  0  0  0  0  0  0  0  0  0
   37.2640   27.7580   43.6800 Br  0  0  0  0  0  0  0  0  0  0  0  0
   37.0510   26.6070   42.1570 C   0  0  0  0  0  0  0  0  0  0  0  0
   36.9390   27.2030   40.9090 C   0  0  0  0  0  0  0  0  0  0  0  0
   36.7900   26.3080   39.8820 C   0  0  0  0  0  0  0  0  0  0  0  0
   36.6950   26.6790   38.8750 H   0  0  0  0  0  0  0  0  0  0  0  0
   36.7500   24.9440   40.0260 C   0  0  0  0  0  0  0  0  0  0  0  0
   36.6290   24.2970   39.1650 H   0  0  0  0  0  0  0  0  0  0  0  0
   36.8640   24.3930   41.2750 C   0  0  0  0  0  3  0  0  0  0  0  0
   37.0140   25.2420   42.3350 C   0  0  0  0  0  3  0  0  0  0  0  0
  1  2  2  0  0  0  0
  1  6  1  0  0  0  0
  2  3  1  0  0  0  0
  3  8  1  0  0  0  0
  3  4  2  0  0  0  0
  4  9  1  0  0  0  0
  5  4  1  0  0  0  0
  5 21  1  0  0  0  0
  6  5  2  0  0  0  0
  7  2  1  0  0  0  0
 10 15  1  0  0  0  0
 10 16  1  0  0  0  0
 11 10  2  0  0  0  0
 12 13  2  0  0  0  0
 12 11  1  0  0  0  0
 13 14  1  0  0  0  0
 14  1  1  0  0  0  0
 14 15  2  0  0  0  0
 17 11  1  0  0  0  0
 18 12  1  0  0  0  0
 20 27  1  0  0  0  0
 20 19  1  0  0  0  0
 21 20  2  0  0  0  0
 22 24  2  0  0  0  0
 22 21  1  0  0  0  0
 23 22  1  0  0  0  0
 24 26  1  0  0  0  0
 25 24  1  0  0  0  0
 26 27  2  0  0  0  0
M  END
>  <minimizedAffinity>
-5.18426132

$$$$

 OpenBabel03242514043D

 27 29  0  0  0  0  0  0  0  0999 V2000
   37.1930   27.0710   41.4560 C   0  0  0  0  0  0  0  0  0  0  0  0
   37.2210   26.9770   42.8410 C   0  0  0  0  0  0  0  0  0  0  0  0
   37.4930   28.0330   43.6780 C   0  0  0  0  0  0  0  0  0  0  0  0
   37.7480   29.2520   43.0200 C   0  0  0  0  0  0  0  0  0  0  0  0
   37.7240   29.3610   41.6400 C   0  0  0  0  0  0  0  0  0  0  0  0
   37.4460   28.2590   40.9020 N   0  0  0  0  0  0  0  0  0  0  0  0
   37.0110   25.9980   43.2510 H   0  0  0  0  0  0  0  0  0  0  0  0
   37.5090   27.9410   44.7450 H   0  0  0  0  0  0  0  0  0  0  0  0
   37.9630   30.0910   43.6690 H   0  0  0  0  0  0  0  0  0  0  0  0
   36.7330   23.5980   40.3980 C   0  0  0  0  0  0  0  0  0  0  0  0
   36.3210   23.7290   39.0720 C   0  0  0  0  0  0  0  0  0  0  0  0
   36.2040   25.0180   38.5510 C   0  0  0  0  0  0  0  0  0  0  0  0
   36.4990   26.0820   39.3630 N   0  0  0  0  0  0  0  0  0  0  0  0
   36.8960   25.9040   40.6470 C   0  0  0  0  0  0  0  0  0  0  0  0
   37.0150   24.6850   41.1680 N   0  0  0  0  0  0  0  0  0  0  0  0
   36.8420   22.6380   40.8570 H   0  0  0  0  0  0  0  0  0  0  0  0
   36.0980   22.8640   38.4660 H   0  0  0  0  0  0  0  0  0  0  0  0
   35.8890   25.1770   37.5310 H   0  0  0  0  0  0  0  0  0  0  0  0
   40.6990   29.7660   41.1330 Br  0  0  0  0  0  0  0  0  0  0  0  0
   39.2860   30.9790   40.6630 C   0  0  0  0  0  0  0  0  0  0  0  0
   37.9870   30.6100   40.9810 C   0  0  0  0  0  0  0  0  0  0  0  0
   37.0440   31.5330   40.6100 C   0  0  0  0  0  0  0  0  0  0  0  0
   36.0060   31.3330   40.8170 H   0  0  0  0  0  0  0  0  0  0  0  0
   37.3130   32.7230   39.9810 C   0  0  0  0  0  0  0  0  0  0  0  0
   36.5140   33.4050   39.7170 H   0  0  0  0  0  0  0  0  0  0  0  0
   38.6090   33.0520   39.6830 C   0  0  0  0  0  3  0  0  0  0  0  0
   39.5880   32.1650   40.0320 C   0  0  0  0  0  3  0  0  0  0  0  0
  1  2  1  0  0  0  0
  2  7  1  0  0  0  0
  2  3  2  0  0  0  0
  3  8  1  0  0  0  0
  4  9  1  0  0  0  0
  4  3  1  0  0  0  0
  5  4  2  0  0  0  0
  6  1  2  0  0  0  0
  6  5  1  0  0  0  0
 10 16  1  0  0  0  0
 10 15  1  0  0  0  0
 11 10  2  0  0  0  0
 12 11  1  0  0  0  0
 12 13  2  0  0  0  0
 13 14  1  0  0  0  0
 14 15  2  0  0  0  0
 14  1  1  0  0  0  0
 17 11  1  0  0  0  0
 18 12  1  0  0  0  0
 20 21  1  0  0  0  0
 20 19  1  0  0  0  0
 21  5  1  0  0  0  0
 22 23  1  0  0  0  0
 22 21  2  0  0  0  0
 24 22  1  0  0  0  0
 25 24  1  0  0  0  0
 26 24  2  0  0  0  0
 26 27  1  0  0  0  0
 27 20  2  0  0  0  0
M  END
>  <minimizedAffinity>
-5.03989601

$$$$

 OpenBabel03242514043D

 27 29  0  0  0  0  0  0  0  0999 V2000
   37.2450   30.5010   40.2470 C   0  0  0  0  0  0  0  0  0  0  0  0
   35.9010   30.4820   39.9000 C   0  0  0  0  0  0  0  0  0  0  0  0
   35.1350   29.3420   39.8520 C   0  0  0  0  0  0  0  0  0  0  0  0
   35.8230   28.1590   40.1880 C   0  0  0  0  0  0  0  0  0  0  0  0
   37.1620   28.1620   40.5360 C   0  0  0  0  0  0  0  0  0  0  0  0
   37.8310   29.3400   40.5530 N   0  0  0  0  0  0  0  0  0  0  0  0
   35.4640   31.4420   39.6600 H   0  0  0  0  0  0  0  0  0  0  0  0
   34.0990   29.3480   39.5820 H   0  0  0  0  0  0  0  0  0  0  0  0
   35.2290   27.2550   40.1540 H   0  0  0  0  0  0  0  0  0  0  0  0
   39.9400   32.9440   40.6520 C   0  0  0  0  0  0  0  0  0  0  0  0
   39.3230   34.1460   40.3030 C   0  0  0  0  0  0  0  0  0  0  0  0
   37.9800   34.1060   39.9310 C   0  0  0  0  0  0  0  0  0  0  0  0
   37.3380   32.8950   39.9270 N   0  0  0  0  0  0  0  0  0  0  0  0
   37.9800   31.7520   40.2730 C   0  0  0  0  0  0  0  0  0  0  0  0
   39.2620   31.7630   40.6320 N   0  0  0  0  0  0  0  0  0  0  0  0
   40.9670   32.9070   40.9460 H   0  0  0  0  0  0  0  0  0  0  0  0
   39.8670   35.0790   40.3200 H   0  0  0  0  0  0  0  0  0  0  0  0
   37.4540   35.0060   39.6520 H   0  0  0  0  0  0  0  0  0  0  0  0
   37.0150   27.5760   43.5200 Br  0  0  0  0  0  0  0  0  0  0  0  0
   37.9000   26.5090   42.1900 C   0  0  0  0  0  0  0  0  0  0  0  0
   37.8520   26.9480   40.8750 C   0  0  0  0  0  0  0  0  0  0  0  0
   38.5080   26.1280   39.9950 C   0  0  0  0  0  0  0  0  0  0  0  0
   38.5250   26.3890   38.9500 H   0  0  0  0  0  0  0  0  0  0  0  0
   39.1630   24.9710   40.3360 C   0  0  0  0  0  0  0  0  0  0  0  0
   39.6610   24.3710   39.5840 H   0  0  0  0  0  0  0  0  0  0  0  0
   39.1880   24.5700   41.6460 C   0  0  0  0  0  3  0  0  0  0  0  0
   38.5480   25.3530   42.5650 C   0  0  0  0  0  3  0  0  0  0  0  0
  1 14  1  0  0  0  0
  1  6  1  0  0  0  0
  2  1  2  0  0  0  0
  3  2  1  0  0  0  0
  3  4  2  0  0  0  0
  4  5  1  0  0  0  0
  5  6  2  0  0  0  0
  5 21  1  0  0  0  0
  7  2  1  0  0  0  0
  8  3  1  0  0  0  0
  9  4  1  0  0  0  0
 10 16  1  0  0  0  0
 11 17  1  0  0  0  0
 11 10  2  0  0  0  0
 12 11  1  0  0  0  0
 13 12  2  0  0  0  0
 13 14  1  0  0  0  0
 14 15  2  0  0  0  0
 15 10  1  0  0  0  0
 18 12  1  0  0  0  0
 20 27  1  0  0  0  0
 20 19  1  0  0  0  0
 21 20  2  0  0  0  0
 22 24  2  0  0  0  0
 22 21  1  0  0  0  0
 23 22  1  0  0  0  0
 24 26  1  0  0  0  0
 25 24  1  0  0  0  0
 26 27  2  0  0  0  0
M  END
>  <minimizedAffinity>
-5.02140617

$$$$

 OpenBabel03242514043D

 27 29  0  0  0  0  0  0  0  0999 V2000
   38.1820   29.6820   38.2270 C   0  0  0  0  0  0  0  0  0  0  0  0
   36.9910   30.2210   37.7620 C   0  0  0  0  0  0  0  0  0  0  0  0
   35.7480   29.7320   38.0850 C   0  0  0  0  0  0  0  0  0  0  0  0
   35.7620   28.6150   38.9440 C   0  0  0  0  0  0  0  0  0  0  0  0
   36.9420   28.0660   39.4150 C   0  0  0  0  0  0  0  0  0  0  0  0
   38.1190   28.6220   39.0370 N   0  0  0  0  0  0  0  0  0  0  0  0
   37.0860   31.0780   37.1090 H   0  0  0  0  0  0  0  0  0  0  0  0
   34.8390   30.1630   37.7160 H   0  0  0  0  0  0  0  0  0  0  0  0
   34.7880   28.2220   39.2040 H   0  0  0  0  0  0  0  0  0  0  0  0
   41.6850   30.0310   37.2240 C   0  0  0  0  0  0  0  0  0  0  0  0
   41.8350   31.4130   37.0980 C   0  0  0  0  0  0  0  0  0  0  0  0
   40.7250   32.2160   37.3600 C   0  0  0  0  0  0  0  0  0  0  0  0
   39.5520   31.6100   37.7270 N   0  0  0  0  0  0  0  0  0  0  0  0
   39.4540   30.2620   37.8360 C   0  0  0  0  0  0  0  0  0  0  0  0
   40.4980   29.4740   37.5910 N   0  0  0  0  0  0  0  0  0  0  0  0
   42.4970   29.3610   37.0360 H   0  0  0  0  0  0  0  0  0  0  0  0
   42.7790   31.8490   36.8060 H   0  0  0  0  0  0  0  0  0  0  0  0
   40.7860   33.2900   37.2780 H   0  0  0  0  0  0  0  0  0  0  0  0
   37.3460   28.8730   42.3230 Br  0  0  0  0  0  0  0  0  0  0  0  0
   37.1140   27.0870   41.6550 C   0  0  0  0  0  0  0  0  0  0  0  0
   36.9430   26.9260   40.2890 C   0  0  0  0  0  0  0  0  0  0  0  0
   36.7840   25.6210   39.9020 C   0  0  0  0  0  0  0  0  0  0  0  0
   36.6450   25.3990   38.8570 H   0  0  0  0  0  0  0  0  0  0  0  0
   36.7880   24.5430   40.7510 C   0  0  0  0  0  0  0  0  0  0  0  0
   36.6570   23.5360   40.3710 H   0  0  0  0  0  0  0  0  0  0  0  0
   36.9600   24.7420   42.0950 C   0  0  0  0  0  3  0  0  0  0  0  0
   37.1220   26.0260   42.5340 C   0  0  0  0  0  3  0  0  0  0  0  0
  1  6  1  0  0  0  0
  2  3  1  0  0  0  0
  2  1  2  0  0  0  0
  3  4  2  0  0  0  0
  4  9  1  0  0  0  0
  4  5  1  0  0  0  0
  5 21  1  0  0  0  0
  6  5  2  0  0  0  0
  7  2  1  0  0  0  0
  8  3  1  0  0  0  0
 10 15  1  0  0  0  0
 11 10  2  0  0  0  0
 11 12  1  0  0  0  0
 12 13  2  0  0  0  0
 13 14  1  0  0  0  0
 14  1  1  0  0  0  0
 15 14  2  0  0  0  0
 16 10  1  0  0  0  0
 17 11  1  0  0  0  0
 18 12  1  0  0  0  0
 20 19  1  0  0  0  0
 20 27  1  0  0  0  0
 21 20  2  0  0  0  0
 22 21  1  0  0  0  0
 22 24  2  0  0  0  0
 23 22  1  0  0  0  0
 24 26  1  0  0  0  0
 25 24  1  0  0  0  0
 26 27  2  0  0  0  0
M  END
>  <minimizedAffinity>
-4.99400997

$$$$

 OpenBabel03242514043D

 27 29  0  0  0  0  0  0  0  0999 V2000
   38.6110   29.6460   42.0390 C   0  0  0  0  0  0  0  0  0  0  0  0
   38.3450   29.0070   43.2420 C   0  0  0  0  0  0  0  0  0  0  0  0
   37.2870   28.1530   43.4420 C   0  0  0  0  0  0  0  0  0  0  0  0
   36.4660   27.9630   42.3120 C   0  0  0  0  0  0  0  0  0  0  0  0
   36.7180   28.5930   41.1070 C   0  0  0  0  0  0  0  0  0  0  0  0
   37.7890   29.4190   41.0120 N   0  0  0  0  0  0  0  0  0  0  0  0
   39.0340   29.2170   44.0490 H   0  0  0  0  0  0  0  0  0  0  0  0
   37.0980   27.6680   44.3780 H   0  0  0  0  0  0  0  0  0  0  0  0
   35.6290   27.2920   42.4580 H   0  0  0  0  0  0  0  0  0  0  0  0
   40.8200   32.3340   40.9040 C   0  0  0  0  0  0  0  0  0  0  0  0
   41.9380   32.1840   41.7240 C   0  0  0  0  0  0  0  0  0  0  0  0
   41.9230   31.1540   42.6650 C   0  0  0  0  0  0  0  0  0  0  0  0
   40.8170   30.3480   42.7340 N   0  0  0  0  0  0  0  0  0  0  0  0
   39.7530   30.5330   41.9150 C   0  0  0  0  0  0  0  0  0  0  0  0
   39.7420   31.5080   41.0100 N   0  0  0  0  0  0  0  0  0  0  0  0
   40.7690   33.1040   40.1640 H   0  0  0  0  0  0  0  0  0  0  0  0
   42.7900   32.8430   41.6370 H   0  0  0  0  0  0  0  0  0  0  0  0
   42.7620   30.9930   43.3250 H   0  0  0  0  0  0  0  0  0  0  0  0
   37.6750   26.2670   39.3900 Br  0  0  0  0  0  0  0  0  0  0  0  0
   36.1440   27.3780   39.0570 C   0  0  0  0  0  0  0  0  0  0  0  0
   35.8730   28.3920   39.9630 C   0  0  0  0  0  0  0  0  0  0  0  0
   34.7640   29.1320   39.6470 C   0  0  0  0  0  0  0  0  0  0  0  0
   34.4750   29.9440   40.2950 H   0  0  0  0  0  0  0  0  0  0  0  0
   33.9670   28.9260   38.5490 C   0  0  0  0  0  0  0  0  0  0  0  0
   33.1030   29.5540   38.3640 H   0  0  0  0  0  0  0  0  0  0  0  0
   34.2670   27.9140   37.6770 C   0  0  0  0  0  3  0  0  0  0  0  0
   35.3630   27.1450   37.9460 C   0  0  0  0  0  3  0  0  0  0  0  0
  1  2  1  0  0  0  0
  2  3  2  0  0  0  0
  2  7  1  0  0  0  0
  3  8  1  0  0  0  0
  4  9  1  0  0  0  0
  4  3  1  0  0  0  0
  5  4  2  0  0  0  0
  6  5  1  0  0  0  0
  6  1  2  0  0  0  0
 10 15  2  0  0  0  0
 10 11  1  0  0  0  0
 11 12  2  0  0  0  0
 12 13  1  0  0  0  0
 12 18  1  0  0  0  0
 14  1  1  0  0  0  0
 14 13  2  0  0  0  0
 15 14  1  0  0  0  0
 16 10  1  0  0  0  0
 17 11  1  0  0  0  0
 20 19  1  0  0  0  0
 20 21  1  0  0  0  0
 21  5  1  0  0  0  0
 22 21  2  0  0  0  0
 22 23  1  0  0  0  0
 24 22  1  0  0  0  0
 25 24  1  0  0  0  0
 26 27  1  0  0  0  0
 26 24  2  0  0  0  0
 27 20  2  0  0  0  0
M  END
>  <minimizedAffinity>
-4.98344278

$$$$
