
 OpenBabel03252506053D

 43 47  0  0  0  0  0  0  0  0999 V2000
   44.7430   35.9450   43.3200 Cl  0  0  0  0  0  0  0  0  0  0  0  0
   45.5010   34.7070   44.2640 C   0  0  0  0  0  0  0  0  0  0  0  0
   46.5740   34.0020   43.7530 C   0  0  0  0  0  0  0  0  0  0  0  0
   47.1060   33.0350   44.5860 C   0  0  0  0  0  0  0  0  0  0  0  0
   46.6440   32.7460   45.8520 C   0  0  0  0  0  0  0  0  0  0  0  0
   45.5810   33.4650   46.3230 C   0  0  0  0  0  0  0  0  0  0  0  0
   45.0310   33.0620   47.9400 Cl  0  0  0  0  0  0  0  0  0  0  0  0
   45.0160   34.4320   45.5440 C   0  0  0  0  0  0  0  0  0  0  0  0
   47.9530   32.4850   44.1700 H   0  0  0  0  0  0  0  0  0  0  0  0
   44.1750   34.9850   45.9450 H   0  0  0  0  0  0  0  0  0  0  0  0
   47.3460   31.6840   46.5780 C   0  0  0  0  0  0  0  0  0  0  0  0
   47.4610   30.3910   46.1010 C   0  0  0  0  0  0  0  0  0  0  0  0
   48.1170   29.3760   46.7700 C   0  0  0  0  0  0  0  0  0  0  0  0
   48.6990   29.6490   47.9870 C   0  0  0  0  0  0  0  0  0  0  0  0
   49.3330   28.6480   48.6230 N   0  0  0  0  0  0  0  0  0  0  0  0
   49.9350   28.8230   49.8240 C   0  0  0  0  0  0  0  0  0  0  0  0
   49.8630   30.0970   50.3670 C   0  0  0  0  0  0  0  0  0  0  0  0
   49.2190   31.1180   49.7250 C   0  0  0  0  0  0  0  0  0  0  0  0
   48.6100   30.9170   48.4970 C   0  0  0  0  0  0  0  0  0  0  0  0
   47.9500   31.9150   47.8140 C   0  0  0  0  0  0  0  0  0  0  0  0
   47.0030   30.1750   45.1440 H   0  0  0  0  0  0  0  0  0  0  0  0
   48.1530   28.3960   46.3160 H   0  0  0  0  0  0  0  0  0  0  0  0
   50.4290   27.9910   50.2890 H   0  0  0  0  0  0  0  0  0  0  0  0
   50.3370   30.2600   51.3270 H   0  0  0  0  0  0  0  0  0  0  0  0
   49.1630   32.1110   50.1510 H   0  0  0  0  0  0  0  0  0  0  0  0
   47.9000   32.9060   48.2480 H   0  0  0  0  0  0  0  0  0  0  0  0
   48.6750   35.3060   41.0780 C   0  0  0  0  0  0  0  0  0  0  0  0
   48.1220   34.7240   39.9280 C   0  0  0  0  0  0  0  0  0  0  0  0
   47.0110   33.8700   40.0740 C   0  0  0  0  0  0  0  0  0  0  0  0
   46.5760   33.6910   41.3350 N   0  0  0  0  0  0  0  0  0  0  0  0
   47.1140   34.2540   42.4240 C   0  0  0  0  0  0  0  0  0  0  0  0
   48.1700   35.0670   42.3070 N   0  0  0  0  0  0  0  0  0  0  0  0
   49.5320   35.9590   40.9370 H   0  0  0  0  0  0  0  0  0  0  0  0
   48.5260   34.9130   38.9450 H   0  0  0  0  0  0  0  0  0  0  0  0
   48.5260   34.4380   37.4710 Br  0  0  0  0  0  0  0  0  0  0  0  0
   46.9340   33.3830   37.6970 C   0  0  0  0  0  0  0  0  0  0  0  0
   46.3670   33.2200   38.9420 C   0  0  0  0  0  0  0  0  0  0  0  0
   45.2350   32.4570   39.0310 C   0  0  0  0  0  0  0  0  0  0  0  0
   44.7600   32.3050   39.9850 H   0  0  0  0  0  0  0  0  0  0  0  0
   44.7250   31.8960   37.8860 C   0  0  0  0  0  0  0  0  0  0  0  0
   43.8190   31.2910   37.9770 H   0  0  0  0  0  0  0  0  0  0  0  0
   45.2770   32.0480   36.6320 C   0  0  0  0  0  3  0  0  0  0  0  0
   46.4340   32.8310   36.5540 C   0  0  0  0  0  3  0  0  0  0  0  0
  1  2  1  0  0  0  0
  2  8  1  0  0  0  0
  3  2  2  0  0  0  0
  3  4  1  0  0  0  0
  4  5  2  0  0  0  0
  5  6  1  0  0  0  0
  5 11  1  0  0  0  0
  6  7  1  0  0  0  0
  8 10  1  0  0  0  0
  8  6  2  0  0  0  0
  9  4  1  0  0  0  0
 11 20  1  0  0  0  0
 12 11  2  0  0  0  0
 12 13  1  0  0  0  0
 13 14  2  0  0  0  0
 14 19  1  0  0  0  0
 14 15  1  0  0  0  0
 15 16  2  0  0  0  0
 16 23  1  0  0  0  0
 16 17  1  0  0  0  0
 17 24  1  0  0  0  0
 18 25  1  0  0  0  0
 18 17  2  0  0  0  0
 19 18  1  0  0  0  0
 20 26  1  0  0  0  0
 20 19  2  0  0  0  0
 21 12  1  0  0  0  0
 22 13  1  0  0  0  0
 27 32  1  0  0  0  0
 28 29  1  0  0  0  0
 28 27  2  0  0  0  0
 29 30  2  0  0  0  0
 30 31  1  0  0  0  0
 31  3  1  0  0  0  0
 32 31  2  0  0  0  0
 33 27  1  0  0  0  0
 34 28  1  0  0  0  0
 35 36  1  0  0  0  0
 36 37  1  0  0  0  0
 37 38  2  0  0  0  0
 37 29  1  0  0  0  0
 38 39  1  0  0  0  0
 40 41  1  0  0  0  0
 40 38  1  0  0  0  0
 42 40  2  0  0  0  0
 43 42  1  0  0  0  0
 43 36  2  0  0  0  0
M  END
>  <minimizedAffinity>
-7.62321663

>  <minimizedRMSD>
0.272544473

$$$$
