
 OpenBabel03252500573D

 38 40  0  0  0  0  0  0  0  0999 V2000
   43.6400   34.8090   40.1860 O   0  0  0  0  0  0  0  0  0  0  0  0
   43.2340   34.6040   41.6420 P   0  0  1  0  0  0  0  0  0  0  0  0
   43.2240   32.9470   41.9620 O   0  0  0  0  0  0  0  0  0  0  0  0
   43.1340   32.4030   41.1440 H   0  0  0  0  0  0  0  0  0  0  0  0
   44.3820   35.3190   42.6500 O   0  0  0  0  0  0  0  0  0  0  0  0
   46.4670   34.3020   43.0290 C   0  0  0  0  0  0  0  0  0  0  0  0
   45.2390   34.6670   43.5340 C   0  0  0  0  0  0  0  0  0  0  0  0
   44.9490   34.3620   44.8670 C   0  0  0  0  0  0  0  0  0  0  0  0
   45.8930   33.7250   45.5890 N   0  0  0  0  0  0  0  0  0  0  0  0
   47.0870   33.3780   45.0770 C   0  0  0  0  0  0  0  0  0  0  0  0
   47.3680   33.6660   43.8070 N   0  0  0  0  0  0  0  0  0  0  0  0
   43.9810   34.6650   45.2150 H   0  0  0  0  0  0  0  0  0  0  0  0
   47.7570   32.8710   45.7550 H   0  0  0  0  0  0  0  0  0  0  0  0
   46.8340   34.5910   41.6480 C   0  0  0  0  0  0  0  0  0  0  0  0
   46.0770   35.2670   41.2030 H   0  0  0  0  0  0  0  0  0  0  0  0
   46.8660   33.6970   41.0150 H   0  0  0  0  0  0  0  0  0  0  0  0
   48.1780   35.2490   41.6210 C   0  0  0  0  0  0  0  0  0  0  0  0
   48.0970   36.2720   41.2090 H   0  0  0  0  0  0  0  0  0  0  0  0
   48.6060   35.3400   42.6420 H   0  0  0  0  0  0  0  0  0  0  0  0
   48.9370   34.6440   41.0580 H   0  0  0  0  0  0  0  0  0  0  0  0
   41.6630   35.1960   41.8900 O   0  0  0  0  0  0  0  0  0  0  0  0
   40.6240   34.6100   41.1720 C   0  0  0  0  0  0  0  0  0  0  0  0
   39.9360   35.4250   40.2860 C   0  0  0  0  0  0  0  0  0  0  0  0
   38.8750   34.9330   39.5160 C   0  0  0  0  0  0  0  0  0  0  0  0
   38.5320   33.6200   39.6620 N   0  0  0  0  0  0  0  0  0  0  0  0
   39.2000   32.8520   40.5140 C   0  0  0  0  0  0  0  0  0  0  0  0
   40.2170   33.3340   41.2480 N   0  0  0  0  0  0  0  0  0  0  0  0
   40.2130   36.4760   40.1720 H   0  0  0  0  0  0  0  0  0  0  0  0
   38.3730   35.5920   38.8480 H   0  0  0  0  0  0  0  0  0  0  0  0
   41.2540   30.9900   39.2880 Br  0  0  0  0  0  0  0  0  0  0  0  0
   39.6830   30.4300   40.2040 C   0  0  0  0  0  0  0  0  0  0  0  0
   38.8640   31.4440   40.6970 C   0  0  0  0  0  0  0  0  0  0  0  0
   37.7140   31.0240   41.3680 C   0  0  0  0  0  0  0  0  0  0  0  0
   37.0370   31.7780   41.7730 H   0  0  0  0  0  0  0  0  0  0  0  0
   37.4550   29.6930   41.5050 C   0  0  0  0  0  0  0  0  0  0  0  0
   36.5760   29.3120   42.0180 H   0  0  0  0  0  0  0  0  0  0  0  0
   38.2780   28.7180   41.0120 C   0  0  0  0  0  3  0  0  0  0  0  0
   39.4390   29.0790   40.3330 C   0  0  0  0  0  3  0  0  0  0  0  0
  2  1  2  6  0  0  0
  2 21  1  0  0  0  0
  2  3  1  0  0  0  0
  2  5  1  0  0  0  0
  4  3  1  0  0  0  0
  5  7  1  0  0  0  0
  6  7  2  0  0  0  0
  6 11  1  0  0  0  0
  7  8  1  0  0  0  0
  8 12  1  0  0  0  0
  8  9  2  0  0  0  0
 10  9  1  0  0  0  0
 10 13  1  0  0  0  0
 11 10  2  0  0  0  0
 14  6  1  0  0  0  0
 15 14  1  0  0  0  0
 16 14  1  0  0  0  0
 17 14  1  0  0  0  0
 17 19  1  0  0  0  0
 18 17  1  0  0  0  0
 20 17  1  0  0  0  0
 22 27  1  0  0  0  0
 22 21  1  0  0  0  0
 23 22  2  0  0  0  0
 24 25  2  0  0  0  0
 24 23  1  0  0  0  0
 25 26  1  0  0  0  0
 26 32  1  0  0  0  0
 26 27  2  0  0  0  0
 28 23  1  0  0  0  0
 29 24  1  0  0  0  0
 30 31  1  0  0  0  0
 31 38  2  0  0  0  0
 31 32  1  0  0  0  0
 32 33  2  0  0  0  0
 33 35  1  0  0  0  0
 33 34  1  0  0  0  0
 35 36  1  0  0  0  0
 37 35  2  0  0  0  0
 38 37  1  0  0  0  0
M  END
>  <minimizedAffinity>
-5.48739004

>  <minimizedRMSD>
0.855502129

$$$$
