
     RDKit          3D

 40 42  0  0  0  0  0  0  0  0999 V2000
   46.5192   34.3735   42.9962 C   0  0  0  0  0  0  0  0  0  0  0  0
   45.2815   34.7369   43.4785 C   0  0  0  0  0  0  0  0  0  0  0  0
   44.9574   34.4062   44.7974 C   0  0  0  0  0  0  0  0  0  0  0  0
   45.8779   33.7467   45.5284 N   0  0  0  0  0  0  0  0  0  0  0  0
   47.0808   33.4009   45.0389 C   0  0  0  0  0  0  0  0  0  0  0  0
   47.3960   33.7134   43.7818 N   0  0  0  0  0  0  0  0  0  0  0  0
   46.9222   34.6865   41.6311 C   0  0  0  0  0  0  0  0  0  0  0  0
   48.2798   35.3171   41.6491 C   0  0  0  0  0  0  0  0  0  0  0  0
   44.4524   35.4142   42.5869 O   0  0  0  0  0  0  0  0  0  0  0  0
   43.6880   34.8663   40.1380 O   0  0  0  0  0  0  0  0  0  0  0  0
   43.2648   34.7375   41.5980 P   0  0  1  0  0  0  0  0  0  0  0  0
   43.1487   33.0962   41.9754 O   0  0  0  0  0  0  0  0  0  0  0  0
   41.7329   35.4355   41.8157 O   0  0  0  0  0  0  0  0  0  0  0  0
   40.6298   34.7611   41.2999 C   0  0  0  0  0  0  0  0  0  0  0  0
   39.9937   35.3414   40.2119 C   0  0  0  0  0  0  0  0  0  0  0  0
   38.8747   34.7433   39.6185 C   0  0  0  0  0  0  0  0  0  0  0  0
   38.4233   33.5670   40.1418 N   0  0  0  0  0  0  0  0  0  0  0  0
   39.0425   33.0236   41.1833 C   0  0  0  0  0  0  0  0  0  0  0  0
   40.1151   33.6057   41.7450 N   0  0  0  0  0  0  0  0  0  0  0  0
   43.9828   34.7103   45.1270 H   0  0  0  0  0  0  0  0  0  0  0  0
   47.7313   32.8754   45.7219 H   0  0  0  0  0  0  0  0  0  0  0  0
   46.1893   35.3897   41.1862 H   0  0  0  0  0  0  0  0  0  0  0  0
   46.9496   33.8090   40.9764 H   0  0  0  0  0  0  0  0  0  0  0  0
   48.2290   36.3522   41.2605 H   0  0  0  0  0  0  0  0  0  0  0  0
   48.6869   35.3743   42.6810 H   0  0  0  0  0  0  0  0  0  0  0  0
   49.0390   34.7098   41.0877 H   0  0  0  0  0  0  0  0  0  0  0  0
   43.0280   32.5312   41.1758 H   0  0  0  0  0  0  0  0  0  0  0  0
   40.3577   36.2833   39.7954 H   0  0  0  0  0  0  0  0  0  0  0  0
   38.4156   35.2213   38.7850 H   0  0  0  0  0  0  0  0  0  0  0  0
   41.3040   31.4263   42.4170 Br  0  0  0  0  0  0  0  0  0  0  0  0
   39.4780   30.8903   42.3866 C   0  0  0  0  0  0  0  0  0  0  0  0
   38.5894   31.7681   41.7695 C   0  0  0  0  0  0  0  0  0  0  0  0
   37.2521   31.3654   41.7525 C   0  0  0  0  0  0  0  0  0  0  0  0
   36.5138   32.0169   41.2810 H   0  0  0  0  0  0  0  0  0  0  0  0
   36.8909   30.1793   42.3179 C   0  0  0  0  0  0  0  0  0  0  0  0
   35.8665   29.8195   42.3320 H   0  0  0  0  0  0  0  0  0  0  0  0
   37.7857   29.3368   42.9173 C   0  0  0  0  0  0  0  0  0  0  0  0
   39.1326   29.6863   42.9640 C   0  0  0  0  0  0  0  0  0  0  0  0
   37.5751   28.3744   43.3902 H   0  0  0  0  0  0  0  0  0  0  0  0
   39.9153   29.0784   43.4201 H   0  0  0  0  0  0  0  0  0  0  0  0
  1  2  2  0
  1  6  1  0
  2  3  1  0
  3  4  2  0
  5  4  1  0
  6  5  2  0
  7  8  1  0
  7  1  1  0
  9  2  1  0
 11 10  2  0
 11 13  1  6
 11 12  1  0
 11  9  1  0
 14 19  1  0
 14 13  1  0
 15 14  2  0
 16 17  2  0
 16 15  1  0
 17 18  1  0
 18 19  2  0
  3 20  1  0
  5 21  1  0
  7 22  1  0
  7 23  1  0
  8 24  1  0
  8 25  1  0
  8 26  1  0
 12 27  1  0
 15 28  1  0
 16 29  1  0
 30 31  1  0
 31 32  2  0
 32 33  1  0
 33 34  1  0
 33 35  2  0
 35 36  1  0
 35 37  1  0
 37 38  2  0
 38 31  1  0
 37 39  1  0
 38 40  1  0
 18 32  1  0
M  ISO  8  20  14  21  14  22   8  23   8  24   8  25   8  26   8  27   3
M  ISO  4  28  14  29  14  34  15  36  16
M  END
>  <DihAtoms>  (1) 
16,17,31,30

>  <DihDeg>  (1) 
0.0011600059239619508

$$$$
