
     RDKit          3D

 33 35  0  0  0  0  0  0  0  0999 V2000
   46.9420   32.4760   45.6976 C   0  0  0  0  0  0  0  0  0  0  0  0
   44.5725   35.3354   45.3465 C   0  0  0  0  0  0  0  0  0  0  0  0
   44.8443   35.7615   44.0350 C   0  0  0  0  0  0  0  0  0  0  0  0
   45.8050   35.0828   43.3156 C   0  0  0  0  0  0  0  0  0  0  0  0
   46.4580   34.0282   43.8902 N   0  0  0  0  0  0  0  0  0  0  0  0
   46.1695   33.6381   45.1710 C   0  0  0  0  0  0  0  0  0  0  0  0
   45.2334   34.3043   45.8631 N   0  0  0  0  0  0  0  0  0  0  0  0
   45.4404   29.7589   45.1259 Br  0  0  0  0  0  0  0  0  0  0  0  0
   45.5882   30.6440   46.8381 C   0  0  0  0  0  0  0  0  0  0  0  0
   46.2949   31.8255   46.8463 C   0  0  0  0  0  0  0  0  0  0  0  0
   46.3805   32.4386   48.1073 C   0  0  0  0  0  0  0  0  0  0  0  0
   45.8060   31.9037   49.2416 C   0  0  0  0  0  0  0  0  0  0  0  0
   45.1195   30.7265   49.1544 C   0  0  0  0  0  0  0  0  0  0  0  0
   44.9958   30.0644   47.9324 C   0  0  0  0  0  0  0  0  0  0  0  0
   46.9663   31.7094   44.8755 H   0  0  0  0  0  0  0  0  0  0  0  0
   47.9571   32.8645   45.9167 H   0  0  0  0  0  0  0  0  0  0  0  0
   43.8450   35.7723   46.0293 H   0  0  0  0  0  0  0  0  0  0  0  0
   44.2661   36.6029   43.6917 H   0  0  0  0  0  0  0  0  0  0  0  0
   46.0072   35.4139   42.3146 H   0  0  0  0  0  0  0  0  0  0  0  0
   46.9137   33.3722   48.2269 H   0  0  0  0  0  0  0  0  0  0  0  0
   45.9053   32.4223   50.1884 H   0  0  0  0  0  0  0  0  0  0  0  0
   44.6547   30.2766   50.0261 H   0  0  0  0  0  0  0  0  0  0  0  0
   46.9464   27.7618   47.6599 Br  0  0  0  0  0  0  0  0  0  0  0  0
   45.0225   27.6612   47.7053 C   0  0  0  0  0  0  0  0  0  0  0  0
   44.2651   28.8096   47.8351 C   0  0  0  0  0  0  0  0  0  0  0  0
   42.8679   28.7465   47.8689 C   0  0  0  0  0  0  0  0  0  0  0  0
   42.3003   29.6610   47.9713 H   0  0  0  0  0  0  0  0  0  0  0  0
   42.2938   27.4953   47.7674 C   0  0  0  0  0  0  0  0  0  0  0  0
   41.1944   27.4578   47.7952 H   0  0  0  0  0  0  0  0  0  0  0  0
   43.0518   26.3497   47.6378 C   0  0  0  0  0  0  0  0  0  0  0  0
   44.4292   26.4029   47.6036 C   0  0  0  0  0  0  0  0  0  0  0  0
   42.5839   25.3683   47.5587 H   0  0  0  0  0  0  0  0  0  0  0  0
   45.0601   25.5335   47.5037 H   0  0  0  0  0  0  0  0  0  0  0  0
  1 10  1  0
  2  7  2  0
  3  2  1  0
  4  5  1  0
  4  3  2  0
  5  6  2  0
  6  1  1  0
  6  7  1  0
  8  9  1  0
  9 10  2  0
  9 14  1  0
 10 11  1  0
 11 12  2  0
 13 12  1  0
 14 13  2  0
  1 15  1  0
  1 16  1  0
  2 17  1  0
  3 18  1  0
  4 19  1  0
 11 20  1  0
 12 21  1  0
 13 22  1  0
 23 24  1  0
 24 25  2  0
 25 26  1  0
 26 27  1  0
 26 28  2  0
 28 29  1  0
 28 30  1  0
 30 31  2  0
 31 24  1  0
 30 32  1  0
 31 33  1  0
 14 25  1  0
M  ISO  8  15   8  16   8  17  14  18  14  19  14  20  14  21  14  22  14
M  ISO  2  27  15  29  16
M  END
>  <DihAtoms>  (1) 
8,13,24,23

>  <DihDeg>  (1) 
-90.00019948139435

$$$$
