
     RDKit          3D

 36 39  0  0  0  0  0  0  0  0999 V2000
   45.8959   33.7139   45.4223 C   0  0  0  0  0  0  0  0  0  0  0  0
   44.9223   34.6239   45.6664 N   0  0  0  0  0  0  0  0  0  0  0  0
   44.5441   35.6010   44.8592 C   0  0  0  0  0  0  0  0  0  0  0  0
   45.1647   35.7433   43.6585 N   0  0  0  0  0  0  0  0  0  0  0  0
   46.1503   34.9088   43.2861 C   0  0  0  0  0  0  0  0  0  0  0  0
   46.7659   35.0700   42.0672 C   0  0  0  0  0  0  0  0  0  0  0  0
   47.7704   34.2283   41.6762 C   0  0  0  0  0  0  0  0  0  0  0  0
   48.1422   33.2158   42.5448 C   0  0  0  0  0  0  0  0  0  0  0  0
   47.4950   33.0967   43.7533 C   0  0  0  0  0  0  0  0  0  0  0  0
   46.4818   33.9171   44.1892 C   0  0  0  0  0  0  0  0  0  0  0  0
   47.6660   32.2973   48.1992 C   0  0  0  0  0  0  0  0  0  0  0  0
   47.2761   30.9576   48.2793 C   0  0  0  0  0  0  0  0  0  0  0  0
   46.3756   30.5139   47.3562 C   0  0  0  0  0  0  0  0  0  0  0  0
   45.9091   31.3731   46.4223 N   0  0  0  0  0  0  0  0  0  0  0  0
   46.2829   32.6478   46.3491 C   0  0  0  0  0  0  0  0  0  0  0  0
   47.1570   33.0727   47.2480 N   0  0  0  0  0  0  0  0  0  0  0  0
   47.8165   30.1379   49.2786 N   0  0  0  0  0  0  0  0  0  0  0  0
   43.7551   36.2923   45.1240 H   0  0  0  0  0  0  0  0  0  0  0  0
   46.4649   35.8557   41.4129 H   0  0  0  0  0  0  0  0  0  0  0  0
   48.3108   34.2765   40.7411 H   0  0  0  0  0  0  0  0  0  0  0  0
   48.9287   32.5176   42.2953 H   0  0  0  0  0  0  0  0  0  0  0  0
   47.8182   32.2843   44.4107 H   0  0  0  0  0  0  0  0  0  0  0  0
   48.3879   32.6368   48.9463 H   0  0  0  0  0  0  0  0  0  0  0  0
   47.1056   30.3146   50.0314 H   0  0  0  0  0  0  0  0  0  0  0  0
   48.6586   29.7718   48.7462 H   0  0  0  0  0  0  0  0  0  0  0  0
   48.6223   28.4029   46.9141 Br  0  0  0  0  0  0  0  0  0  0  0  0
   46.7246   28.1101   47.0822 C   0  0  0  0  0  0  0  0  0  0  0  0
   45.8523   29.1626   47.2771 C   0  0  0  0  0  0  0  0  0  0  0  0
   44.5684   28.7288   47.3674 C   0  0  0  0  0  0  0  0  0  0  0  0
   43.8112   29.4716   47.5193 H   0  0  0  0  0  0  0  0  0  0  0  0
   44.1128   27.4360   47.2866 C   0  0  0  0  0  0  0  0  0  0  0  0
   43.0793   27.1941   47.3699 H   0  0  0  0  0  0  0  0  0  0  0  0
   45.0356   26.4367   47.0918 C   0  0  0  0  0  0  0  0  0  0  0  0
   46.3576   26.7878   46.9893 C   0  0  0  0  0  0  0  0  0  0  0  0
   44.6979   25.4156   47.0256 H   0  0  0  0  0  0  0  0  0  0  0  0
   47.0556   25.9804   46.8368 H   0  0  0  0  0  0  0  0  0  0  0  0
  1  2  2  0
  1 15  1  0
  3  2  1  0
  4  3  2  0
  5  4  1  0
  5 10  2  0
  6  5  1  0
  7  6  2  0
  7  8  1  0
  8  9  2  0
  9 10  1  0
 10  1  1  0
 11 12  2  0
 12 17  1  0
 13 12  1  0
 14 13  2  0
 15 14  1  0
 15 16  2  0
 16 11  1  0
  3 18  1  0
  6 19  1  0
  7 20  1  0
  8 21  1  0
  9 22  1  0
 11 23  1  0
 17 24  1  0
 17 25  1  0
 26 27  1  0
 27 28  2  0
 28 29  1  0
 29 30  1  0
 29 31  2  0
 31 32  1  0
 31 33  1  0
 33 34  2  0
 34 27  1  0
 33 35  1  0
 34 36  1  0
 13 28  1  0
M  ISO  8  18  14  19  14  20  14  21  14  22  14  23  14  30  15  32  16
M  END
>  <DihAtoms>  (1) 
11,12,27,26

>  <DihDeg>  (1) 
-179.92772181917013

$$$$
