REMARK  Name = 
REMARK  2 active torsions:
REMARK  status: ('A' for Active; 'I' for Inactive)
REMARK    1  A    between atoms: C_2  and  C_7
REMARK    2  A    between atoms: C_3  and  C_15
REMARK                            x       y       z     vdW  Elec       q    Type
REMARK                         _______ _______ _______ _____ _____    ______ ____
ROOT
ATOM      1  C   UNL     1      44.386  35.775  44.437  0.00  0.00    +0.000 A 
ATOM      2  C   UNL     1      44.665  35.066  43.251  0.00  0.00    +0.000 A 
ATOM      3  C   UNL     1      45.298  33.817  43.388  0.00  0.00    +0.000 A 
ATOM      4  N   UNL     1      45.589  33.387  44.641  0.00  0.00    +0.000 NA
ATOM      5  C   UNL     1      45.310  34.086  45.750  0.00  0.00    +0.000 A 
ATOM      6  N   UNL     1      44.697  35.304  45.672  0.00  0.00    +0.000 NA
ATOM      7  H   UNL     1      43.907  36.743  44.492  0.00  0.00    +0.000 HD
ATOM      8  H   UNL     1      45.599  33.621  46.689  0.00  0.00    +0.000 HD
ENDROOT
BRANCH   3  11
ATOM      9 BR   UNL     1      42.823  33.553  41.508  0.00  0.00    +0.000 Br
ATOM     10  C   UNL     1      44.589  32.894  41.184  0.00  0.00    +0.000 A 
ATOM     11  C   UNL     1      45.575  33.113  42.153  0.00  0.00    +0.000 A 
ATOM     12  C   UNL     1      46.858  32.617  41.879  0.00  0.00    +0.000 A 
ATOM     13  H   UNL     1      47.602  32.806  42.660  0.00  0.00    +0.000 HD
ATOM     14  C   UNL     1      47.215  31.925  40.717  0.00  0.00    +0.000 A 
ATOM     15  H   UNL     1      48.210  31.559  40.541  0.00  0.00    +0.000 HD
ATOM     16  C   UNL     1      46.136  31.799  39.881  0.00  0.00    +0.000 A 
ATOM     17  C   UNL     1      44.842  32.214  39.987  0.00  0.00    +0.000 A 
ENDBRANCH   3  11
BRANCH   2  18
ATOM     18  C   UNL     1      44.254  35.730  41.999  0.00  0.00    +0.000 C 
ATOM     19  H   UNL     1      44.108  35.004  41.169  0.00  0.00    +0.000 HD
ATOM     20  H   UNL     1      44.986  36.496  41.633  0.00  0.00    +0.000 HD
ATOM     21  H   UNL     1      43.253  36.225  42.182  0.00  0.00    +0.000 HD
ENDBRANCH   2  18
TORSDOF 2
