
 OpenBabel03252506053D

 43 47  0  0  0  0  0  0  0  0999 V2000
   44.7400   35.9470   43.3160 Cl  0  0  0  0  0  0  0  0  0  0  0  0
   45.4980   34.7100   44.2620 C   0  0  0  0  0  0  0  0  0  0  0  0
   46.5710   34.0040   43.7520 C   0  0  0  0  0  0  0  0  0  0  0  0
   47.1030   33.0380   44.5870 C   0  0  0  0  0  0  0  0  0  0  0  0
   46.6400   32.7510   45.8520 C   0  0  0  0  0  0  0  0  0  0  0  0
   45.5760   33.4700   46.3230 C   0  0  0  0  0  0  0  0  0  0  0  0
   45.0250   33.0670   47.9400 Cl  0  0  0  0  0  0  0  0  0  0  0  0
   45.0110   34.4360   45.5420 C   0  0  0  0  0  0  0  0  0  0  0  0
   47.9500   32.4890   44.1720 H   0  0  0  0  0  0  0  0  0  0  0  0
   44.1700   34.9890   45.9420 H   0  0  0  0  0  0  0  0  0  0  0  0
   47.3410   31.6890   46.5800 C   0  0  0  0  0  0  0  0  0  0  0  0
   47.4510   30.3940   46.1070 C   0  0  0  0  0  0  0  0  0  0  0  0
   48.1060   29.3800   46.7780 C   0  0  0  0  0  0  0  0  0  0  0  0
   48.6940   29.6550   47.9920 C   0  0  0  0  0  0  0  0  0  0  0  0
   49.3270   28.6550   48.6280 N   0  0  0  0  0  0  0  0  0  0  0  0
   49.9350   28.8330   49.8270 C   0  0  0  0  0  0  0  0  0  0  0  0
   49.8680   30.1090   50.3650 C   0  0  0  0  0  0  0  0  0  0  0  0
   49.2240   31.1290   49.7230 C   0  0  0  0  0  0  0  0  0  0  0  0
   48.6110   30.9250   48.4980 C   0  0  0  0  0  0  0  0  0  0  0  0
   47.9510   31.9230   47.8130 C   0  0  0  0  0  0  0  0  0  0  0  0
   46.9890   30.1750   45.1530 H   0  0  0  0  0  0  0  0  0  0  0  0
   48.1390   28.3980   46.3270 H   0  0  0  0  0  0  0  0  0  0  0  0
   50.4280   28.0000   50.2930 H   0  0  0  0  0  0  0  0  0  0  0  0
   50.3460   30.2730   51.3240 H   0  0  0  0  0  0  0  0  0  0  0  0
   49.1730   32.1240   50.1450 H   0  0  0  0  0  0  0  0  0  0  0  0
   47.9050   32.9150   48.2430 H   0  0  0  0  0  0  0  0  0  0  0  0
   48.6750   35.3060   41.0780 C   0  0  0  0  0  0  0  0  0  0  0  0
   48.1230   34.7240   39.9280 C   0  0  0  0  0  0  0  0  0  0  0  0
   47.0100   33.8710   40.0740 C   0  0  0  0  0  0  0  0  0  0  0  0
   46.5750   33.6930   41.3350 N   0  0  0  0  0  0  0  0  0  0  0  0
   47.1130   34.2560   42.4240 C   0  0  0  0  0  0  0  0  0  0  0  0
   48.1680   35.0680   42.3070 N   0  0  0  0  0  0  0  0  0  0  0  0
   49.5320   35.9590   40.9380 H   0  0  0  0  0  0  0  0  0  0  0  0
   48.5270   34.9130   38.9460 H   0  0  0  0  0  0  0  0  0  0  0  0
   48.5260   34.4390   37.4710 Br  0  0  0  0  0  0  0  0  0  0  0  0
   46.9350   33.3840   37.6970 C   0  0  0  0  0  0  0  0  0  0  0  0
   46.3670   33.2200   38.9420 C   0  0  0  0  0  0  0  0  0  0  0  0
   45.2350   32.4570   39.0300 C   0  0  0  0  0  0  0  0  0  0  0  0
   44.7610   32.3050   39.9840 H   0  0  0  0  0  0  0  0  0  0  0  0
   44.7250   31.8970   37.8860 C   0  0  0  0  0  0  0  0  0  0  0  0
   43.8200   31.2900   37.9770 H   0  0  0  0  0  0  0  0  0  0  0  0
   45.2780   32.0480   36.6310 C   0  0  0  0  0  3  0  0  0  0  0  0
   46.4350   32.8310   36.5540 C   0  0  0  0  0  3  0  0  0  0  0  0
  1  2  1  0  0  0  0
  2  8  1  0  0  0  0
  3  2  2  0  0  0  0
  3  4  1  0  0  0  0
  4  5  2  0  0  0  0
  5  6  1  0  0  0  0
  5 11  1  0  0  0  0
  6  7  1  0  0  0  0
  8 10  1  0  0  0  0
  8  6  2  0  0  0  0
  9  4  1  0  0  0  0
 11 20  1  0  0  0  0
 12 11  2  0  0  0  0
 12 13  1  0  0  0  0
 13 14  2  0  0  0  0
 14 19  1  0  0  0  0
 14 15  1  0  0  0  0
 15 16  2  0  0  0  0
 16 23  1  0  0  0  0
 16 17  1  0  0  0  0
 17 24  1  0  0  0  0
 18 25  1  0  0  0  0
 18 17  2  0  0  0  0
 19 18  1  0  0  0  0
 20 26  1  0  0  0  0
 20 19  2  0  0  0  0
 21 12  1  0  0  0  0
 22 13  1  0  0  0  0
 27 32  1  0  0  0  0
 28 29  1  0  0  0  0
 28 27  2  0  0  0  0
 29 30  2  0  0  0  0
 30 31  1  0  0  0  0
 31  3  1  0  0  0  0
 32 31  2  0  0  0  0
 33 27  1  0  0  0  0
 34 28  1  0  0  0  0
 35 36  1  0  0  0  0
 36 37  1  0  0  0  0
 37 38  2  0  0  0  0
 37 29  1  0  0  0  0
 38 39  1  0  0  0  0
 40 41  1  0  0  0  0
 40 38  1  0  0  0  0
 42 40  2  0  0  0  0
 43 42  1  0  0  0  0
 43 36  2  0  0  0  0
M  END
>  <minimizedAffinity>
-7.6195097

>  <minimizedRMSD>
0.416547686

$$$$
