
 OpenBabel03242517183D

 33 35  0  0  0  0  0  0  0  0999 V2000
   36.8150   28.0160   38.3870 C   0  0  0  0  0  0  0  0  0  0  0  0
   35.5590   28.5990   38.7020 C   0  0  0  0  0  0  0  0  0  0  0  0
   35.2420   28.8420   40.0330 C   0  0  0  0  0  0  0  0  0  0  0  0
   36.1910   28.4910   40.9530 N   0  0  0  0  0  0  0  0  0  0  0  0
   37.3640   27.9450   40.6480 C   0  0  0  0  0  0  0  0  0  0  0  0
   37.6700   27.7100   39.3720 N   0  0  0  0  0  0  0  0  0  0  0  0
   36.9750   27.8630   37.3250 H   0  0  0  0  0  0  0  0  0  0  0  0
   34.3010   29.2830   40.3130 H   0  0  0  0  0  0  0  0  0  0  0  0
   37.0460   25.0450   41.5530 Br  0  0  0  0  0  0  0  0  0  0  0  0
   38.3230   26.3100   42.2300 C   0  0  0  0  0  0  0  0  0  0  0  0
   38.3200   27.5990   41.6920 C   0  0  0  0  0  0  0  0  0  0  0  0
   39.2280   28.5330   42.1580 C   0  0  0  0  0  0  0  0  0  0  0  0
   39.2540   29.5410   41.7650 H   0  0  0  0  0  0  0  0  0  0  0  0
   40.1170   28.1930   43.1380 C   0  0  0  0  0  0  0  0  0  0  0  0
   40.8480   28.9050   43.5300 H   0  0  0  0  0  0  0  0  0  0  0  0
   40.1210   26.9300   43.6650 C   0  0  0  0  0  3  0  0  0  0  0  0
   39.2240   25.9500   43.2280 C   0  0  0  0  0  3  0  0  0  0  0  0
   34.6130   28.9370   37.6290 C   0  0  0  0  0  3  0  0  0  0  0  0
   33.3050   28.8870   37.7410 C   0  0  0  0  0  3  0  0  0  0  0  0
   32.3900   29.2430   36.6120 C   0  0  0  0  0  0  0  0  0  0  0  0
   31.9870   28.3440   36.1120 H   0  0  0  0  0  0  0  0  0  0  0  0
   33.0010   29.8240   35.8860 H   0  0  0  0  0  0  0  0  0  0  0  0
   31.5360   31.4850   35.1840 F   0  0  0  0  0  0  0  0  0  0  0  0
   30.8890   31.1850   36.3330 C   0  0  0  0  0  0  0  0  0  0  0  0
   31.2840   30.0700   37.0790 C   0  0  0  0  0  0  0  0  0  0  0  0
   30.5510   29.8800   38.2170 C   0  0  0  0  0  0  0  0  0  0  0  0
   29.5030   30.6490   38.6790 C   0  0  0  0  0  0  0  0  0  0  0  0
   29.1800   31.7400   37.8670 C   0  0  0  0  0  0  0  0  0  0  0  0
   29.8440   32.0340   36.7010 C   0  0  0  0  0  0  0  0  0  0  0  0
   30.8060   29.0290   38.8460 H   0  0  0  0  0  0  0  0  0  0  0  0
   28.9700   30.4440   39.5800 H   0  0  0  0  0  0  0  0  0  0  0  0
   28.3540   32.3840   38.1870 H   0  0  0  0  0  0  0  0  0  0  0  0
   29.5920   32.8780   36.0740 H   0  0  0  0  0  0  0  0  0  0  0  0
  1  2  2  0  0  0  0
  1  6  1  0  0  0  0
  2  3  1  0  0  0  0
  3  8  1  0  0  0  0
  3  4  2  0  0  0  0
  5  4  1  0  0  0  0
  5 11  1  0  0  0  0
  6  5  2  0  0  0  0
  7  1  1  0  0  0  0
  9 10  1  0  0  0  0
 10 17  1  0  0  0  0
 11 12  1  0  0  0  0
 11 10  2  0  0  0  0
 12 14  2  0  0  0  0
 13 12  1  0  0  0  0
 14 15  1  0  0  0  0
 14 16  1  0  0  0  0
 17 16  2  0  0  0  0
 18 19  2  0  0  0  0
 18  2  1  0  0  0  0
 20 25  1  0  0  0  0
 20 19  1  0  0  0  0
 21 20  1  0  0  0  0
 22 20  1  0  0  0  0
 23 24  1  0  0  0  0
 24 29  2  0  0  0  0
 24 25  1  0  0  0  0
 25 26  2  0  0  0  0
 26 27  1  0  0  0  0
 26 30  1  0  0  0  0
 27 31  1  0  0  0  0
 28 32  1  0  0  0  0
 28 27  2  0  0  0  0
 29 28  1  0  0  0  0
 33 29  1  0  0  0  0
M  END
>  <minimizedAffinity>
-5.97099733

$$$$

 OpenBabel03242517183D

 33 35  0  0  0  0  0  0  0  0999 V2000
   36.1830   28.1560   38.1040 C   0  0  0  0  0  0  0  0  0  0  0  0
   34.9600   28.8290   38.3660 C   0  0  0  0  0  0  0  0  0  0  0  0
   34.6440   29.1720   39.6750 C   0  0  0  0  0  0  0  0  0  0  0  0
   35.5630   28.8250   40.6280 N   0  0  0  0  0  0  0  0  0  0  0  0
   36.7050   28.1940   40.3730 C   0  0  0  0  0  0  0  0  0  0  0  0
   37.0090   27.8640   39.1180 N   0  0  0  0  0  0  0  0  0  0  0  0
   36.3440   27.9280   37.0560 H   0  0  0  0  0  0  0  0  0  0  0  0
   33.7280   29.6830   39.9150 H   0  0  0  0  0  0  0  0  0  0  0  0
   38.5930   30.5130   40.9980 Br  0  0  0  0  0  0  0  0  0  0  0  0
   38.5700   28.8020   41.8720 C   0  0  0  0  0  0  0  0  0  0  0  0
   37.6290   27.8600   41.4490 C   0  0  0  0  0  0  0  0  0  0  0  0
   37.5860   26.6190   42.0580 C   0  0  0  0  0  0  0  0  0  0  0  0
   36.8710   25.8650   41.7570 H   0  0  0  0  0  0  0  0  0  0  0  0
   38.4610   26.3220   43.0650 C   0  0  0  0  0  0  0  0  0  0  0  0
   38.4560   25.3520   43.5700 H   0  0  0  0  0  0  0  0  0  0  0  0
   39.3820   27.2450   43.4810 C   0  0  0  0  0  3  0  0  0  0  0  0
   39.4660   28.5120   42.8970 C   0  0  0  0  0  3  0  0  0  0  0  0
   34.0460   29.1530   37.2620 C   0  0  0  0  0  3  0  0  0  0  0  0
   33.0420   28.3990   36.8760 C   0  0  0  0  0  3  0  0  0  0  0  0
   32.1430   28.7800   35.7420 C   0  0  0  0  0  0  0  0  0  0  0  0
   31.4260   27.9760   35.4990 H   0  0  0  0  0  0  0  0  0  0  0  0
   32.8050   28.9600   34.8650 H   0  0  0  0  0  0  0  0  0  0  0  0
   31.9510   30.8700   33.9000 F   0  0  0  0  0  0  0  0  0  0  0  0
   31.3380   31.0250   35.0960 C   0  0  0  0  0  0  0  0  0  0  0  0
   31.4090   30.0020   36.0480 C   0  0  0  0  0  0  0  0  0  0  0  0
   30.7490   30.2850   37.2110 C   0  0  0  0  0  0  0  0  0  0  0  0
   30.0500   31.4330   37.5230 C   0  0  0  0  0  0  0  0  0  0  0  0
   30.0340   32.3970   36.5100 C   0  0  0  0  0  0  0  0  0  0  0  0
   30.6600   32.2280   35.2990 C   0  0  0  0  0  0  0  0  0  0  0  0
   30.7650   29.5310   37.9960 H   0  0  0  0  0  0  0  0  0  0  0  0
   29.5560   31.5900   38.4540 H   0  0  0  0  0  0  0  0  0  0  0  0
   29.4920   33.3290   36.7050 H   0  0  0  0  0  0  0  0  0  0  0  0
   30.6460   32.9750   34.5180 H   0  0  0  0  0  0  0  0  0  0  0  0
  1  2  2  0  0  0  0
  1  6  1  0  0  0  0
  2  3  1  0  0  0  0
  3  8  1  0  0  0  0
  3  4  2  0  0  0  0
  5  4  1  0  0  0  0
  5 11  1  0  0  0  0
  6  5  2  0  0  0  0
  7  1  1  0  0  0  0
  9 10  1  0  0  0  0
 10 17  1  0  0  0  0
 11 10  2  0  0  0  0
 11 12  1  0  0  0  0
 12 14  2  0  0  0  0
 13 12  1  0  0  0  0
 14 16  1  0  0  0  0
 14 15  1  0  0  0  0
 17 16  2  0  0  0  0
 18  2  1  0  0  0  0
 19 18  2  0  0  0  0
 20 25  1  0  0  0  0
 20 19  1  0  0  0  0
 21 20  1  0  0  0  0
 22 20  1  0  0  0  0
 23 24  1  0  0  0  0
 24 29  2  0  0  0  0
 24 25  1  0  0  0  0
 25 26  2  0  0  0  0
 26 27  1  0  0  0  0
 26 30  1  0  0  0  0
 27 31  1  0  0  0  0
 28 32  1  0  0  0  0
 28 27  2  0  0  0  0
 29 28  1  0  0  0  0
 33 29  1  0  0  0  0
M  END
>  <minimizedAffinity>
-5.862957

$$$$

 OpenBabel03242517183D

 33 35  0  0  0  0  0  0  0  0999 V2000
   38.0060   29.3680   40.7790 C   0  0  0  0  0  0  0  0  0  0  0  0
   38.3530   28.9190   42.0810 C   0  0  0  0  0  0  0  0  0  0  0  0
   39.1050   29.7480   42.9040 C   0  0  0  0  0  0  0  0  0  0  0  0
   39.4570   30.9620   42.3780 N   0  0  0  0  0  0  0  0  0  0  0  0
   39.1280   31.3720   41.1580 C   0  0  0  0  0  0  0  0  0  0  0  0
   38.4070   30.5780   40.3670 N   0  0  0  0  0  0  0  0  0  0  0  0
   37.4200   28.6550   40.2100 H   0  0  0  0  0  0  0  0  0  0  0  0
   39.3880   29.4450   43.8970 H   0  0  0  0  0  0  0  0  0  0  0  0
   41.9080   31.2740   39.8960 Br  0  0  0  0  0  0  0  0  0  0  0  0
   40.7940   32.8300   40.0650 C   0  0  0  0  0  0  0  0  0  0  0  0
   39.5460   32.6820   40.6740 C   0  0  0  0  0  0  0  0  0  0  0  0
   38.7190   33.7830   40.8100 C   0  0  0  0  0  0  0  0  0  0  0  0
   37.7460   33.7060   41.2770 H   0  0  0  0  0  0  0  0  0  0  0  0
   39.1270   35.0040   40.3510 C   0  0  0  0  0  0  0  0  0  0  0  0
   38.5010   35.8950   40.4420 H   0  0  0  0  0  0  0  0  0  0  0  0
   40.3500   35.1500   39.7540 C   0  0  0  0  0  3  0  0  0  0  0  0
   41.2200   34.0680   39.5930 C   0  0  0  0  0  3  0  0  0  0  0  0
   37.9190   27.5930   42.5430 C   0  0  0  0  0  3  0  0  0  0  0  0
   37.2610   26.7240   41.8110 C   0  0  0  0  0  3  0  0  0  0  0  0
   36.8440   25.3860   42.3350 C   0  0  0  0  0  0  0  0  0  0  0  0
   35.7990   25.3930   42.6940 H   0  0  0  0  0  0  0  0  0  0  0  0
   37.5230   25.1590   43.1880 H   0  0  0  0  0  0  0  0  0  0  0  0
   39.1990   23.9060   42.0890 F   0  0  0  0  0  0  0  0  0  0  0  0
   38.1920   23.6380   41.2260 C   0  0  0  0  0  0  0  0  0  0  0  0
   36.9950   24.3570   41.3150 C   0  0  0  0  0  0  0  0  0  0  0  0
   36.0620   23.9900   40.3850 C   0  0  0  0  0  0  0  0  0  0  0  0
   36.1830   23.0210   39.4110 C   0  0  0  0  0  0  0  0  0  0  0  0
   37.4130   22.3570   39.4000 C   0  0  0  0  0  0  0  0  0  0  0  0
   38.4280   22.6370   40.2830 C   0  0  0  0  0  0  0  0  0  0  0  0
   35.1060   24.5100   40.3980 H   0  0  0  0  0  0  0  0  0  0  0  0
   35.4120   22.7830   38.7130 H   0  0  0  0  0  0  0  0  0  0  0  0
   37.5620   21.5770   38.6460 H   0  0  0  0  0  0  0  0  0  0  0  0
   39.3780   22.1220   40.2730 H   0  0  0  0  0  0  0  0  0  0  0  0
  1  2  1  0  0  0  0
  2 18  1  0  0  0  0
  2  3  2  0  0  0  0
  3  8  1  0  0  0  0
  4  3  1  0  0  0  0
  5  4  2  0  0  0  0
  6  1  2  0  0  0  0
  6  5  1  0  0  0  0
  7  1  1  0  0  0  0
  9 10  1  0  0  0  0
 10 11  1  0  0  0  0
 11 12  2  0  0  0  0
 11  5  1  0  0  0  0
 12 13  1  0  0  0  0
 14 15  1  0  0  0  0
 14 12  1  0  0  0  0
 16 14  2  0  0  0  0
 17 16  1  0  0  0  0
 17 10  2  0  0  0  0
 19 20  1  0  0  0  0
 19 18  2  0  0  0  0
 20 21  1  0  0  0  0
 20 22  1  0  0  0  0
 24 25  1  0  0  0  0
 24 23  1  0  0  0  0
 25 20  1  0  0  0  0
 26 30  1  0  0  0  0
 26 25  2  0  0  0  0
 27 26  1  0  0  0  0
 28 27  2  0  0  0  0
 28 29  1  0  0  0  0
 29 24  2  0  0  0  0
 31 27  1  0  0  0  0
 32 28  1  0  0  0  0
 33 29  1  0  0  0  0
M  END
>  <minimizedAffinity>
-5.78007746

$$$$

 OpenBabel03242517183D

 33 35  0  0  0  0  0  0  0  0999 V2000
   34.7440   29.2740   40.0290 C   0  0  0  0  0  0  0  0  0  0  0  0
   34.8280   28.7030   38.7310 C   0  0  0  0  0  0  0  0  0  0  0  0
   36.0580   28.2520   38.2690 C   0  0  0  0  0  0  0  0  0  0  0  0
   37.1150   28.3970   39.1270 N   0  0  0  0  0  0  0  0  0  0  0  0
   37.0260   28.9330   40.3400 C   0  0  0  0  0  0  0  0  0  0  0  0
   35.8470   29.3670   40.7840 N   0  0  0  0  0  0  0  0  0  0  0  0
   33.7460   29.5970   40.3030 H   0  0  0  0  0  0  0  0  0  0  0  0
   36.1640   27.8130   37.2920 H   0  0  0  0  0  0  0  0  0  0  0  0
   37.2810   26.5610   42.2490 Br  0  0  0  0  0  0  0  0  0  0  0  0
   38.4830   28.0560   42.1300 C   0  0  0  0  0  0  0  0  0  0  0  0
   38.2030   29.0510   41.1910 C   0  0  0  0  0  0  0  0  0  0  0  0
   39.0490   30.1400   41.0810 C   0  0  0  0  0  0  0  0  0  0  0  0
   38.8640   30.9310   40.3650 H   0  0  0  0  0  0  0  0  0  0  0  0
   40.1480   30.2360   41.8870 C   0  0  0  0  0  0  0  0  0  0  0  0
   40.8380   31.0810   41.8280 H   0  0  0  0  0  0  0  0  0  0  0  0
   40.4230   29.2600   42.8070 C   0  0  0  0  0  3  0  0  0  0  0  0
   39.5990   28.1410   42.9570 C   0  0  0  0  0  3  0  0  0  0  0  0
   33.6250   28.5970   37.8930 C   0  0  0  0  0  3  0  0  0  0  0  0
   33.5360   29.0230   36.6540 C   0  0  0  0  0  3  0  0  0  0  0  0
   32.2820   28.8870   35.8480 C   0  0  0  0  0  0  0  0  0  0  0  0
   31.5690   28.1830   36.3130 H   0  0  0  0  0  0  0  0  0  0  0  0
   32.5920   28.4930   34.8540 H   0  0  0  0  0  0  0  0  0  0  0  0
   30.6490   29.9870   37.8280 F   0  0  0  0  0  0  0  0  0  0  0  0
   30.8240   30.6950   36.6890 C   0  0  0  0  0  0  0  0  0  0  0  0
   31.6350   30.1810   35.6710 C   0  0  0  0  0  0  0  0  0  0  0  0
   31.7260   30.9940   34.5760 C   0  0  0  0  0  0  0  0  0  0  0  0
   31.1230   32.2190   34.3860 C   0  0  0  0  0  0  0  0  0  0  0  0
   30.3330   32.6500   35.4560 C   0  0  0  0  0  0  0  0  0  0  0  0
   30.1630   31.9220   36.6090 C   0  0  0  0  0  0  0  0  0  0  0  0
   32.3430   30.6530   33.7460 H   0  0  0  0  0  0  0  0  0  0  0  0
   31.2360   32.8050   33.5020 H   0  0  0  0  0  0  0  0  0  0  0  0
   29.8300   33.6190   35.3590 H   0  0  0  0  0  0  0  0  0  0  0  0
   29.5520   32.2580   37.4350 H   0  0  0  0  0  0  0  0  0  0  0  0
  1  7  1  0  0  0  0
  1  6  1  0  0  0  0
  2  1  2  0  0  0  0
  3  2  1  0  0  0  0
  3  4  2  0  0  0  0
  4  5  1  0  0  0  0
  5  6  2  0  0  0  0
  5 11  1  0  0  0  0
  8  3  1  0  0  0  0
 10  9  1  0  0  0  0
 10 17  1  0  0  0  0
 11 10  2  0  0  0  0
 12 11  1  0  0  0  0
 12 14  2  0  0  0  0
 13 12  1  0  0  0  0
 14 16  1  0  0  0  0
 15 14  1  0  0  0  0
 16 17  2  0  0  0  0
 18  2  1  0  0  0  0
 19 18  2  0  0  0  0
 20 21  1  0  0  0  0
 20 19  1  0  0  0  0
 22 20  1  0  0  0  0
 24 23  1  0  0  0  0
 25 20  1  0  0  0  0
 25 24  2  0  0  0  0
 26 25  1  0  0  0  0
 27 26  2  0  0  0  0
 27 28  1  0  0  0  0
 28 29  2  0  0  0  0
 29 24  1  0  0  0  0
 29 33  1  0  0  0  0
 30 26  1  0  0  0  0
 31 27  1  0  0  0  0
 32 28  1  0  0  0  0
M  END
>  <minimizedAffinity>
-5.71555042

$$$$

 OpenBabel03242517183D

 33 35  0  0  0  0  0  0  0  0999 V2000
   36.2350   28.9880   38.3230 C   0  0  0  0  0  0  0  0  0  0  0  0
   34.9730   28.9850   38.9750 C   0  0  0  0  0  0  0  0  0  0  0  0
   34.9230   29.1570   40.3530 C   0  0  0  0  0  0  0  0  0  0  0  0
   36.1260   29.3210   40.9840 N   0  0  0  0  0  0  0  0  0  0  0  0
   37.3020   29.3220   40.3650 C   0  0  0  0  0  0  0  0  0  0  0  0
   37.3520   29.1570   39.0440 N   0  0  0  0  0  0  0  0  0  0  0  0
   36.1760   28.8470   37.2500 H   0  0  0  0  0  0  0  0  0  0  0  0
   33.9870   29.1620   40.8840 H   0  0  0  0  0  0  0  0  0  0  0  0
   38.1370   32.2590   40.4740 Br  0  0  0  0  0  0  0  0  0  0  0  0
   39.0750   30.7830   41.2700 C   0  0  0  0  0  0  0  0  0  0  0  0
   38.5400   29.5020   41.1150 C   0  0  0  0  0  0  0  0  0  0  0  0
   39.1910   28.4190   41.6760 C   0  0  0  0  0  0  0  0  0  0  0  0
   38.8050   27.4130   41.5760 H   0  0  0  0  0  0  0  0  0  0  0  0
   40.3500   28.6060   42.3750 C   0  0  0  0  0  0  0  0  0  0  0  0
   40.8920   27.7740   42.8320 H   0  0  0  0  0  0  0  0  0  0  0  0
   40.8750   29.8610   42.5280 C   0  0  0  0  0  3  0  0  0  0  0  0
   40.2550   30.9870   41.9800 C   0  0  0  0  0  3  0  0  0  0  0  0
   33.7410   28.8000   38.1950 C   0  0  0  0  0  3  0  0  0  0  0  0
   33.5910   29.1550   36.9390 C   0  0  0  0  0  3  0  0  0  0  0  0
   32.3110   28.9420   36.1940 C   0  0  0  0  0  0  0  0  0  0  0  0
   31.7170   28.1170   36.6260 H   0  0  0  0  0  0  0  0  0  0  0  0
   32.5980   28.6790   35.1500 H   0  0  0  0  0  0  0  0  0  0  0  0
   32.2590   30.6340   33.9730 F   0  0  0  0  0  0  0  0  0  0  0  0
   31.5110   30.9780   35.0460 C   0  0  0  0  0  0  0  0  0  0  0  0
   31.5080   30.1580   36.1790 C   0  0  0  0  0  0  0  0  0  0  0  0
   30.7130   30.6200   37.1910 C   0  0  0  0  0  0  0  0  0  0  0  0
   29.9460   31.7660   37.2000 C   0  0  0  0  0  0  0  0  0  0  0  0
   30.0120   32.5190   36.0250 C   0  0  0  0  0  0  0  0  0  0  0  0
   30.7750   32.1600   34.9410 C   0  0  0  0  0  0  0  0  0  0  0  0
   30.6640   30.0280   38.1040 H   0  0  0  0  0  0  0  0  0  0  0  0
   29.3440   32.0690   38.0270 H   0  0  0  0  0  0  0  0  0  0  0  0
   29.4210   33.4410   35.9780 H   0  0  0  0  0  0  0  0  0  0  0  0
   30.8250   32.7440   34.0330 H   0  0  0  0  0  0  0  0  0  0  0  0
  1  2  2  0  0  0  0
  1  6  1  0  0  0  0
  2  3  1  0  0  0  0
  3  8  1  0  0  0  0
  3  4  2  0  0  0  0
  5  4  1  0  0  0  0
  5 11  1  0  0  0  0
  6  5  2  0  0  0  0
  7  1  1  0  0  0  0
  9 10  1  0  0  0  0
 10 17  1  0  0  0  0
 11 10  2  0  0  0  0
 11 12  1  0  0  0  0
 12 14  2  0  0  0  0
 13 12  1  0  0  0  0
 14 16  1  0  0  0  0
 14 15  1  0  0  0  0
 17 16  2  0  0  0  0
 18  2  1  0  0  0  0
 19 18  2  0  0  0  0
 20 21  1  0  0  0  0
 20 19  1  0  0  0  0
 22 20  1  0  0  0  0
 23 24  1  0  0  0  0
 24 25  1  0  0  0  0
 25 20  1  0  0  0  0
 25 26  2  0  0  0  0
 26 27  1  0  0  0  0
 26 30  1  0  0  0  0
 27 31  1  0  0  0  0
 28 27  2  0  0  0  0
 29 24  2  0  0  0  0
 29 28  1  0  0  0  0
 32 28  1  0  0  0  0
 33 29  1  0  0  0  0
M  END
>  <minimizedAffinity>
-5.60613346

$$$$

 OpenBabel03242517183D

 33 35  0  0  0  0  0  0  0  0999 V2000
   37.9460   28.0570   40.2150 C   0  0  0  0  0  0  0  0  0  0  0  0
   37.4320   27.6460   41.4740 C   0  0  0  0  0  0  0  0  0  0  0  0
   37.1170   28.6110   42.4230 C   0  0  0  0  0  0  0  0  0  0  0  0
   37.3330   29.9110   42.0560 N   0  0  0  0  0  0  0  0  0  0  0  0
   37.8160   30.2850   40.8760 C   0  0  0  0  0  0  0  0  0  0  0  0
   38.1190   29.3620   39.9640 N   0  0  0  0  0  0  0  0  0  0  0  0
   38.1630   27.2370   39.5400 H   0  0  0  0  0  0  0  0  0  0  0  0
   36.7240   28.3400   43.3880 H   0  0  0  0  0  0  0  0  0  0  0  0
   40.4370   31.3340   42.0440 Br  0  0  0  0  0  0  0  0  0  0  0  0
   39.1660   32.3480   41.0200 C   0  0  0  0  0  0  0  0  0  0  0  0
   38.0180   31.6960   40.5660 C   0  0  0  0  0  0  0  0  0  0  0  0
   37.0840   32.3980   39.8260 C   0  0  0  0  0  0  0  0  0  0  0  0
   36.1820   31.9250   39.4580 H   0  0  0  0  0  0  0  0  0  0  0  0
   37.2880   33.7190   39.5440 C   0  0  0  0  0  0  0  0  0  0  0  0
   36.5720   34.3050   38.9620 H   0  0  0  0  0  0  0  0  0  0  0  0
   38.4140   34.3580   39.9880 C   0  0  0  0  0  3  0  0  0  0  0  0
   39.3870   33.6930   40.7400 C   0  0  0  0  0  3  0  0  0  0  0  0
   37.2390   26.2180   41.7600 C   0  0  0  0  0  3  0  0  0  0  0  0
   37.6350   25.2380   40.9800 C   0  0  0  0  0  3  0  0  0  0  0  0
   37.4120   23.7990   41.3230 C   0  0  0  0  0  0  0  0  0  0  0  0
   36.8150   23.6850   42.2460 H   0  0  0  0  0  0  0  0  0  0  0  0
   38.4210   23.3550   41.4820 H   0  0  0  0  0  0  0  0  0  0  0  0
   38.5030   21.4970   40.1810 F   0  0  0  0  0  0  0  0  0  0  0  0
   37.3280   21.9500   39.6870 C   0  0  0  0  0  0  0  0  0  0  0  0
   36.7460   23.1000   40.2310 C   0  0  0  0  0  0  0  0  0  0  0  0
   35.5640   23.4510   39.6420 C   0  0  0  0  0  0  0  0  0  0  0  0
   34.9160   22.8070   38.6080 C   0  0  0  0  0  0  0  0  0  0  0  0
   35.5720   21.6680   38.1310 C   0  0  0  0  0  0  0  0  0  0  0  0
   36.7650   21.2170   38.6410 C   0  0  0  0  0  0  0  0  0  0  0  0
   35.0570   24.3380   40.0180 H   0  0  0  0  0  0  0  0  0  0  0  0
   33.9900   23.1350   38.1930 H   0  0  0  0  0  0  0  0  0  0  0  0
   35.1010   21.1180   37.3090 H   0  0  0  0  0  0  0  0  0  0  0  0
   37.2710   20.3360   38.2700 H   0  0  0  0  0  0  0  0  0  0  0  0
  1  2  1  0  0  0  0
  2 18  1  0  0  0  0
  2  3  2  0  0  0  0
  3  8  1  0  0  0  0
  4  3  1  0  0  0  0
  5  4  2  0  0  0  0
  6  1  2  0  0  0  0
  6  5  1  0  0  0  0
  7  1  1  0  0  0  0
 10  9  1  0  0  0  0
 11  5  1  0  0  0  0
 11 10  2  0  0  0  0
 12 11  1  0  0  0  0
 13 12  1  0  0  0  0
 14 12  2  0  0  0  0
 14 16  1  0  0  0  0
 15 14  1  0  0  0  0
 16 17  2  0  0  0  0
 17 10  1  0  0  0  0
 19 20  1  0  0  0  0
 19 18  2  0  0  0  0
 20 22  1  0  0  0  0
 20 21  1  0  0  0  0
 24 23  1  0  0  0  0
 24 25  1  0  0  0  0
 25 20  1  0  0  0  0
 26 30  1  0  0  0  0
 26 25  2  0  0  0  0
 27 26  1  0  0  0  0
 28 27  2  0  0  0  0
 28 29  1  0  0  0  0
 29 24  2  0  0  0  0
 31 27  1  0  0  0  0
 32 28  1  0  0  0  0
 33 29  1  0  0  0  0
M  END
>  <minimizedAffinity>
-5.52506828

$$$$

 OpenBabel03242517183D

 33 35  0  0  0  0  0  0  0  0999 V2000
   40.2170   28.9570   40.1070 C   0  0  0  0  0  0  0  0  0  0  0  0
   39.8020   28.4490   41.3670 C   0  0  0  0  0  0  0  0  0  0  0  0
   39.5100   29.3400   42.3920 C   0  0  0  0  0  0  0  0  0  0  0  0
   39.6500   30.6680   42.0950 N   0  0  0  0  0  0  0  0  0  0  0  0
   40.0390   31.1340   40.9130 C   0  0  0  0  0  0  0  0  0  0  0  0
   40.3200   30.2810   39.9280 N   0  0  0  0  0  0  0  0  0  0  0  0
   40.4230   28.1900   39.3690 H   0  0  0  0  0  0  0  0  0  0  0  0
   39.1920   28.9950   43.3610 H   0  0  0  0  0  0  0  0  0  0  0  0
   37.3550   32.3930   40.1770 Br  0  0  0  0  0  0  0  0  0  0  0  0
   39.0350   33.3130   40.3320 C   0  0  0  0  0  0  0  0  0  0  0  0
   40.1630   32.5680   40.6810 C   0  0  0  0  0  0  0  0  0  0  0  0
   41.3870   33.2010   40.8000 C   0  0  0  0  0  0  0  0  0  0  0  0
   42.2830   32.6550   41.0680 H   0  0  0  0  0  0  0  0  0  0  0  0
   41.4860   34.5450   40.5780 C   0  0  0  0  0  0  0  0  0  0  0  0
   42.4360   35.0790   40.6640 H   0  0  0  0  0  0  0  0  0  0  0  0
   40.3800   35.2770   40.2380 C   0  0  0  0  0  3  0  0  0  0  0  0
   39.1210   34.6830   40.1040 C   0  0  0  0  0  3  0  0  0  0  0  0
   39.6860   26.9990   41.5740 C   0  0  0  0  0  3  0  0  0  0  0  0
   39.3270   26.4300   42.7020 C   0  0  0  0  0  3  0  0  0  0  0  0
   39.2260   24.9450   42.8550 C   0  0  0  0  0  0  0  0  0  0  0  0
   38.7630   24.6620   43.8170 H   0  0  0  0  0  0  0  0  0  0  0  0
   40.2690   24.5560   42.8220 H   0  0  0  0  0  0  0  0  0  0  0  0
   36.4410   25.1190   42.7650 F   0  0  0  0  0  0  0  0  0  0  0  0
   37.0650   24.4690   41.7570 C   0  0  0  0  0  0  0  0  0  0  0  0
   38.4600   24.3590   41.7620 C   0  0  0  0  0  0  0  0  0  0  0  0
   38.9640   23.6800   40.6880 C   0  0  0  0  0  0  0  0  0  0  0  0
   38.2590   23.1170   39.6450 C   0  0  0  0  0  0  0  0  0  0  0  0
   36.8730   23.2780   39.7250 C   0  0  0  0  0  0  0  0  0  0  0  0
   36.2500   23.9400   40.7550 C   0  0  0  0  0  0  0  0  0  0  0  0
   40.0440   23.5580   40.6310 H   0  0  0  0  0  0  0  0  0  0  0  0
   38.7170   22.5970   38.8330 H   0  0  0  0  0  0  0  0  0  0  0  0
   36.2650   22.8500   38.9210 H   0  0  0  0  0  0  0  0  0  0  0  0
   35.1770   24.0640   40.8150 H   0  0  0  0  0  0  0  0  0  0  0  0
  1  2  1  0  0  0  0
  2 18  1  0  0  0  0
  2  3  2  0  0  0  0
  3  8  1  0  0  0  0
  4  3  1  0  0  0  0
  5  4  2  0  0  0  0
  6  1  2  0  0  0  0
  6  5  1  0  0  0  0
  7  1  1  0  0  0  0
  9 10  1  0  0  0  0
 10 11  1  0  0  0  0
 11 12  2  0  0  0  0
 11  5  1  0  0  0  0
 12 13  1  0  0  0  0
 14 15  1  0  0  0  0
 14 12  1  0  0  0  0
 16 14  2  0  0  0  0
 17 16  1  0  0  0  0
 17 10  2  0  0  0  0
 18 19  2  0  0  0  0
 19 20  1  0  0  0  0
 20 21  1  0  0  0  0
 22 20  1  0  0  0  0
 24 25  1  0  0  0  0
 24 23  1  0  0  0  0
 25 20  1  0  0  0  0
 26 25  2  0  0  0  0
 27 28  2  0  0  0  0
 27 26  1  0  0  0  0
 28 29  1  0  0  0  0
 29 33  1  0  0  0  0
 29 24  2  0  0  0  0
 30 26  1  0  0  0  0
 31 27  1  0  0  0  0
 32 28  1  0  0  0  0
M  END
>  <minimizedAffinity>
-5.43296194

$$$$

 OpenBabel03242517183D

 33 35  0  0  0  0  0  0  0  0999 V2000
   37.6200   30.7970   38.2030 C   0  0  0  0  0  0  0  0  0  0  0  0
   36.5790   30.5330   39.1320 C   0  0  0  0  0  0  0  0  0  0  0  0
   36.6270   31.1260   40.3880 C   0  0  0  0  0  0  0  0  0  0  0  0
   37.7030   31.9370   40.6310 N   0  0  0  0  0  0  0  0  0  0  0  0
   38.6720   32.1770   39.7550 C   0  0  0  0  0  0  0  0  0  0  0  0
   38.6280   31.6100   38.5500 N   0  0  0  0  0  0  0  0  0  0  0  0
   37.4990   30.2930   37.2510 H   0  0  0  0  0  0  0  0  0  0  0  0
   35.8580   30.9520   41.1200 H   0  0  0  0  0  0  0  0  0  0  0  0
   41.0450   30.6100   40.8720 Br  0  0  0  0  0  0  0  0  0  0  0  0
   40.9590   32.5140   40.6220 C   0  0  0  0  0  0  0  0  0  0  0  0
   39.7850   33.0560   40.0950 C   0  0  0  0  0  0  0  0  0  0  0  0
   39.6920   34.4220   39.9030 C   0  0  0  0  0  0  0  0  0  0  0  0
   38.7980   34.8770   39.4980 H   0  0  0  0  0  0  0  0  0  0  0  0
   40.7440   35.2310   40.2290 C   0  0  0  0  0  0  0  0  0  0  0  0
   40.7060   36.3140   40.0900 H   0  0  0  0  0  0  0  0  0  0  0  0
   41.8960   34.7000   40.7440 C   0  0  0  0  0  3  0  0  0  0  0  0
   42.0380   33.3260   40.9570 C   0  0  0  0  0  3  0  0  0  0  0  0
   35.4700   29.6430   38.7620 C   0  0  0  0  0  3  0  0  0  0  0  0
   35.1570   29.3100   37.5310 C   0  0  0  0  0  3  0  0  0  0  0  0
   34.0140   28.3980   37.2130 C   0  0  0  0  0  0  0  0  0  0  0  0
   33.6380   27.8810   38.1150 H   0  0  0  0  0  0  0  0  0  0  0  0
   34.4070   27.6430   36.4950 H   0  0  0  0  0  0  0  0  0  0  0  0
   31.9870   29.5740   38.7320 F   0  0  0  0  0  0  0  0  0  0  0  0
   31.9250   29.7040   37.3870 C   0  0  0  0  0  0  0  0  0  0  0  0
   32.9200   29.1310   36.5890 C   0  0  0  0  0  0  0  0  0  0  0  0
   32.7380   29.3350   35.2490 C   0  0  0  0  0  0  0  0  0  0  0  0
   31.7120   30.0230   34.6360 C   0  0  0  0  0  0  0  0  0  0  0  0
   30.7670   30.5610   35.5140 C   0  0  0  0  0  0  0  0  0  0  0  0
   30.8410   30.4230   36.8790 C   0  0  0  0  0  0  0  0  0  0  0  0
   33.4780   28.9140   34.5700 H   0  0  0  0  0  0  0  0  0  0  0  0
   31.6290   30.1460   33.5800 H   0  0  0  0  0  0  0  0  0  0  0  0
   29.9290   31.1190   35.0790 H   0  0  0  0  0  0  0  0  0  0  0  0
   30.1090   30.8390   37.5560 H   0  0  0  0  0  0  0  0  0  0  0  0
  1  6  2  0  0  0  0
  1  2  1  0  0  0  0
  2  3  2  0  0  0  0
  3  4  1  0  0  0  0
  3  8  1  0  0  0  0
  5 11  1  0  0  0  0
  5  4  2  0  0  0  0
  6  5  1  0  0  0  0
  7  1  1  0  0  0  0
 10  9  1  0  0  0  0
 10 17  1  0  0  0  0
 11 10  2  0  0  0  0
 12 11  1  0  0  0  0
 12 14  2  0  0  0  0
 13 12  1  0  0  0  0
 14 16  1  0  0  0  0
 15 14  1  0  0  0  0
 16 17  2  0  0  0  0
 18  2  1  0  0  0  0
 19 18  2  0  0  0  0
 20 19  1  0  0  0  0
 20 21  1  0  0  0  0
 22 20  1  0  0  0  0
 24 23  1  0  0  0  0
 25 20  1  0  0  0  0
 25 24  2  0  0  0  0
 26 25  1  0  0  0  0
 27 26  2  0  0  0  0
 27 28  1  0  0  0  0
 28 29  2  0  0  0  0
 29 24  1  0  0  0  0
 29 33  1  0  0  0  0
 30 26  1  0  0  0  0
 31 27  1  0  0  0  0
 32 28  1  0  0  0  0
M  END
>  <minimizedAffinity>
-5.31905365

$$$$

 OpenBabel03242517183D

 33 35  0  0  0  0  0  0  0  0999 V2000
   36.6240   27.3930   40.1050 C   0  0  0  0  0  0  0  0  0  0  0  0
   36.8760   28.4930   40.9670 C   0  0  0  0  0  0  0  0  0  0  0  0
   36.3390   29.7350   40.6520 C   0  0  0  0  0  0  0  0  0  0  0  0
   35.5910   29.7970   39.5080 N   0  0  0  0  0  0  0  0  0  0  0  0
   35.3620   28.7610   38.7070 C   0  0  0  0  0  0  0  0  0  0  0  0
   35.8760   27.5680   39.0070 N   0  0  0  0  0  0  0  0  0  0  0  0
   37.0820   26.4650   40.4300 H   0  0  0  0  0  0  0  0  0  0  0  0
   36.5060   30.5930   41.2800 H   0  0  0  0  0  0  0  0  0  0  0  0
   37.0980   29.0600   36.2120 Br  0  0  0  0  0  0  0  0  0  0  0  0
   35.1780   29.0630   36.2640 C   0  0  0  0  0  0  0  0  0  0  0  0
   34.5530   28.9130   37.5040 C   0  0  0  0  0  0  0  0  0  0  0  0
   33.1720   28.9100   37.5750 C   0  0  0  0  0  0  0  0  0  0  0  0
   32.6540   28.7960   38.5180 H   0  0  0  0  0  0  0  0  0  0  0  0
   32.4290   29.0550   36.4370 C   0  0  0  0  0  0  0  0  0  0  0  0
   31.3360   29.0570   36.4550 H   0  0  0  0  0  0  0  0  0  0  0  0
   33.0410   29.2010   35.2210 C   0  0  0  0  0  3  0  0  0  0  0  0
   34.4330   29.2100   35.0970 C   0  0  0  0  0  3  0  0  0  0  0  0
   37.6950   28.3110   42.1740 C   0  0  0  0  0  3  0  0  0  0  0  0
   37.9180   27.1580   42.7600 C   0  0  0  0  0  3  0  0  0  0  0  0
   38.7620   27.0320   43.9890 C   0  0  0  0  0  0  0  0  0  0  0  0
   38.4080   26.2200   44.6490 H   0  0  0  0  0  0  0  0  0  0  0  0
   38.6790   28.0040   44.5260 H   0  0  0  0  0  0  0  0  0  0  0  0
   39.7360   24.4550   43.5330 F   0  0  0  0  0  0  0  0  0  0  0  0
   40.6040   25.4870   43.4210 C   0  0  0  0  0  0  0  0  0  0  0  0
   40.1570   26.7940   43.6400 C   0  0  0  0  0  0  0  0  0  0  0  0
   41.1330   27.7410   43.4960 C   0  0  0  0  0  0  0  0  0  0  0  0
   42.4570   27.5400   43.1680 C   0  0  0  0  0  0  0  0  0  0  0  0
   42.8100   26.2020   42.9670 C   0  0  0  0  0  0  0  0  0  0  0  0
   41.9190   25.1630   43.0840 C   0  0  0  0  0  0  0  0  0  0  0  0
   40.8520   28.7820   43.6530 H   0  0  0  0  0  0  0  0  0  0  0  0
   43.1700   28.3280   43.0710 H   0  0  0  0  0  0  0  0  0  0  0  0
   43.8510   25.9850   42.7040 H   0  0  0  0  0  0  0  0  0  0  0  0
   42.1940   24.1290   42.9280 H   0  0  0  0  0  0  0  0  0  0  0  0
  1  7  1  0  0  0  0
  1  2  1  0  0  0  0
  2 18  1  0  0  0  0
  3  2  2  0  0  0  0
  3  8  1  0  0  0  0
  4  3  1  0  0  0  0
  5  6  1  0  0  0  0
  5  4  2  0  0  0  0
  6  1  2  0  0  0  0
  9 10  1  0  0  0  0
 10 11  1  0  0  0  0
 11 12  2  0  0  0  0
 11  5  1  0  0  0  0
 12 13  1  0  0  0  0
 14 15  1  0  0  0  0
 14 12  1  0  0  0  0
 16 14  2  0  0  0  0
 17 16  1  0  0  0  0
 17 10  2  0  0  0  0
 18 19  2  0  0  0  0
 19 20  1  0  0  0  0
 20 22  1  0  0  0  0
 20 21  1  0  0  0  0
 24 23  1  0  0  0  0
 24 25  1  0  0  0  0
 25 20  1  0  0  0  0
 26 25  2  0  0  0  0
 26 30  1  0  0  0  0
 27 26  1  0  0  0  0
 28 29  1  0  0  0  0
 28 27  2  0  0  0  0
 29 24  2  0  0  0  0
 31 27  1  0  0  0  0
 32 28  1  0  0  0  0
 33 29  1  0  0  0  0
M  END
>  <minimizedAffinity>
-5.30345583

$$$$
