
 OpenBabel03242519583D

 28 29  0  0  0  0  0  0  0  0999 V2000
   44.4740   33.1800   41.2670 Br  0  0  0  0  0 10  0  0  0  0  0  0
   46.2010   34.0020   41.0870 C   0  0  0  0  0  0  0  0  0  0  0  0
   46.7820   34.7350   42.0940 C   0  0  0  0  0  0  0  0  0  0  0  0
   48.0310   35.2850   41.8620 C   0  0  0  0  0  0  0  0  0  0  0  0
   48.7020   35.1280   40.6750 C   0  0  0  0  0  0  0  0  0  0  0  0
   48.1240   34.3910   39.6570 C   0  0  0  0  0  0  0  0  0  0  0  0
   46.8740   33.8440   39.9000 C   0  0  0  0  0  0  0  0  0  0  0  0
   48.4660   35.8610   42.6790 H   0  0  0  0  0  0  0  0  0  0  0  0
   49.6630   35.5510   40.4960 H   0  0  0  0  0  0  0  0  0  0  0  0
   48.5840   34.2210   38.7000 H   0  0  0  0  0  0  0  0  0  0  0  0
   44.4440   36.0760   44.7660 C   0  0  0  0  0  0  0  0  0  0  0  0
   45.1590   35.9330   43.5810 C   0  0  0  0  0  0  0  0  0  0  0  0
   46.0290   34.8800   43.3490 C   0  0  0  0  0  0  0  0  0  0  0  0
   46.1440   33.9780   44.3630 N   0  0  0  0  0  0  0  0  0  0  0  0
   45.4500   34.1160   45.5130 C   0  0  0  0  0  0  0  0  0  0  0  0
   44.6200   35.1360   45.7130 N   0  0  0  0  0  0  0  0  0  0  0  0
   43.8010   36.9370   44.8210 H   0  0  0  0  0  0  0  0  0  0  0  0
   45.0450   36.6750   42.7820 H   0  0  0  0  0  0  0  0  0  0  0  0
   45.6160   33.3390   46.2570 H   0  0  0  0  0  0  0  0  0  0  0  0
   48.3140   34.4780   37.2930 Br  0  0  0  0  0  0  0  0  0  0  0  0
   46.8370   33.2770   37.5900 C   0  0  0  0  0  0  0  0  0  0  0  0
   46.2500   33.0580   38.8200 C   0  0  0  0  0  0  0  0  0  0  0  0
   45.1990   32.1820   38.9390 C   0  0  0  0  0  0  0  0  0  0  0  0
   44.8110   32.0810   39.9450 H   0  0  0  0  0  0  0  0  0  0  0  0
   44.7410   31.5280   37.8170 C   0  0  0  0  0  0  0  0  0  0  0  0
   43.8990   30.8370   37.9620 H   0  0  0  0  0  0  0  0  0  0  0  0
   45.3230   31.7430   36.5870 C   0  0  0  0  0  0  0  0  0  0  0  0
   46.3920   32.6280   36.4420 C   0  0  0  0  0  0  0  0  0  0  0  0
  2  3  1  0  0  0  0
  3 13  1  0  0  0  0
  4  3  2  0  0  0  0
  4  8  1  0  0  0  0
  5  4  1  0  0  0  0
  6  7  1  0  0  0  0
  6  5  2  0  0  0  0
  7  2  2  0  0  0  0
  9  5  1  0  0  0  0
 10  6  1  0  0  0  0
 11 17  1  0  0  0  0
 11 16  1  0  0  0  0
 12 11  2  0  0  0  0
 13 12  1  0  0  0  0
 13 14  2  0  0  0  0
 14 15  1  0  0  0  0
 15 16  2  0  0  0  0
 15 19  1  0  0  0  0
 18 12  1  0  0  0  0
 20 21  1  0  0  0  0
 21 22  1  0  0  0  0
 22 23  2  0  0  0  0
 22  7  1  0  0  0  0
 23 24  1  0  0  0  0
 25 26  1  0  0  0  0
 25 23  1  0  0  0  0
 27 25  2  0  0  0  0
 28 27  1  0  0  0  0
 28 21  2  0  0  0  0
M  END
>  <minimizedAffinity>
-6.13161421

>  <minimizedRMSD>
0.243167579

$$$$
