REMARK  Name = 
REMARK  3 active torsions:
REMARK  status: ('A' for Active; 'I' for Inactive)
REMARK    1  A    between atoms: C_1  and  C_15
REMARK    2  A    between atoms: C_12  and  N_17
REMARK    3  A    between atoms: C_13  and  C_28
REMARK                            x       y       z     vdW  Elec       q    Type
REMARK                         _______ _______ _______ _____ _____    ______ ____
ROOT
ATOM      1  C   UNL     1      47.666  32.297  48.199  0.00  0.00    +0.000 A 
ATOM      2  C   UNL     1      47.276  30.958  48.279  0.00  0.00    +0.000 A 
ATOM      3  C   UNL     1      46.376  30.514  47.356  0.00  0.00    +0.000 A 
ATOM      4  N   UNL     1      45.909  31.373  46.422  0.00  0.00    +0.000 NA
ATOM      5  C   UNL     1      46.283  32.648  46.349  0.00  0.00    +0.000 A 
ATOM      6  N   UNL     1      47.157  33.073  47.248  0.00  0.00    +0.000 NA
ATOM      7  H   UNL     1      48.388  32.637  48.946  0.00  0.00    +0.000 HD
ENDROOT
BRANCH   5   8
ATOM      8  C   UNL     1      45.896  33.714  45.422  0.00  0.00    +0.000 A 
ATOM      9  N   UNL     1      44.922  34.624  45.666  0.00  0.00    +0.000 NA
ATOM     10  C   UNL     1      44.544  35.601  44.859  0.00  0.00    +0.000 A 
ATOM     11  N   UNL     1      45.165  35.743  43.658  0.00  0.00    +0.000 NA
ATOM     12  C   UNL     1      46.150  34.909  43.286  0.00  0.00    +0.000 A 
ATOM     13  C   UNL     1      46.766  35.070  42.067  0.00  0.00    +0.000 A 
ATOM     14  C   UNL     1      47.770  34.228  41.676  0.00  0.00    +0.000 A 
ATOM     15  C   UNL     1      48.142  33.216  42.545  0.00  0.00    +0.000 A 
ATOM     16  C   UNL     1      47.495  33.097  43.753  0.00  0.00    +0.000 A 
ATOM     17  C   UNL     1      46.482  33.917  44.189  0.00  0.00    +0.000 A 
ATOM     18  H   UNL     1      43.755  36.292  45.124  0.00  0.00    +0.000 HD
ATOM     19  H   UNL     1      46.465  35.856  41.413  0.00  0.00    +0.000 HD
ATOM     20  H   UNL     1      48.311  34.276  40.741  0.00  0.00    +0.000 HD
ATOM     21  H   UNL     1      48.929  32.518  42.295  0.00  0.00    +0.000 HD
ATOM     22  H   UNL     1      47.818  32.284  44.411  0.00  0.00    +0.000 HD
ENDBRANCH   5   8
BRANCH   3  25
ATOM     23 BR   UNL     1      48.622  28.403  46.914  0.00  0.00    +0.000 Br
ATOM     24  C   UNL     1      46.725  28.110  47.082  0.00  0.00    +0.000 A 
ATOM     25  C   UNL     1      45.852  29.163  47.277  0.00  0.00    +0.000 A 
ATOM     26  C   UNL     1      44.568  28.729  47.367  0.00  0.00    +0.000 A 
ATOM     27  H   UNL     1      43.811  29.472  47.519  0.00  0.00    +0.000 HD
ATOM     28  C   UNL     1      44.113  27.436  47.287  0.00  0.00    +0.000 A 
ATOM     29  H   UNL     1      43.079  27.194  47.370  0.00  0.00    +0.000 HD
ATOM     30  C   UNL     1      45.036  26.437  47.092  0.00  0.00    +0.000 A 
ATOM     31  C   UNL     1      46.358  26.788  46.989  0.00  0.00    +0.000 A 
ENDBRANCH   3  25
BRANCH   2  32
ATOM     32  N   UNL     1      47.816  30.138  49.279  0.00  0.00    +0.000 N 
ATOM     33  H   UNL     1      47.106  30.315  50.031  0.00  0.00    +0.000 HD
ATOM     34  H   UNL     1      48.659  29.772  48.746  0.00  0.00    +0.000 HD
ENDBRANCH   2  32
TORSDOF 3
