
 OpenBabel03242514453D

 21 22  0  0  0  0  0  0  0  0999 V2000
   37.6310   31.2820   40.9160 C   0  0  0  0  0  0  0  0  0  0  0  0
   38.4410   30.3060   41.4930 C   0  0  0  0  0  0  0  0  0  0  0  0
   39.7850   30.6080   41.7330 C   0  0  0  0  0  0  0  0  0  0  0  0
   40.2320   31.8330   41.3950 N   0  0  0  0  0  0  0  0  0  0  0  0
   39.4120   32.7720   40.8300 C   0  0  0  0  0  0  0  0  0  0  0  0
   38.1020   32.4880   40.5910 N   0  0  0  0  0  0  0  0  0  0  0  0
   40.4060   29.8480   42.1800 H   0  0  0  0  0  0  0  0  0  0  0  0
   39.8060   33.7430   40.5720 H   0  0  0  0  0  0  0  0  0  0  0  0
   38.4520   28.1650   39.2320 Br  0  0  0  0  0  0  0  0  0  0  0  0
   37.8530   27.8920   41.0220 C   0  0  0  0  0  0  0  0  0  0  0  0
   37.9400   28.9830   41.8520 C   0  0  0  0  0  0  0  0  0  0  0  0
   37.5340   28.9180   43.1830 C   0  0  0  0  0  0  0  0  0  0  0  0
   37.5770   29.7450   43.8910 H   0  0  0  0  0  0  0  0  0  0  0  0
   37.0300   27.7190   43.6800 C   0  0  0  0  0  0  0  0  0  0  0  0
   36.6950   27.5900   44.7030 H   0  0  0  0  0  0  0  0  0  0  0  0
   36.9510   26.6500   42.8450 C   0  0  0  0  0  3  0  0  0  0  0  0
   37.3460   26.6870   41.5190 C   0  0  0  0  0  3  0  0  0  0  0  0
   36.2010   30.9290   40.6720 C   0  0  0  0  0  0  0  0  0  0  0  0
   35.5750   31.4140   41.4760 H   0  0  0  0  0  0  0  0  0  0  0  0
   36.0270   29.8530   40.7890 H   0  0  0  0  0  0  0  0  0  0  0  0
   35.8780   31.3100   39.6710 H   0  0  0  0  0  0  0  0  0  0  0  0
  1  2  1  0  0  0  0
  2  3  2  0  0  0  0
  2 11  1  0  0  0  0
  3  7  1  0  0  0  0
  4  3  1  0  0  0  0
  5  4  2  0  0  0  0
  6  5  1  0  0  0  0
  6  1  2  0  0  0  0
  8  5  1  0  0  0  0
  9 10  1  0  0  0  0
 10 17  2  0  0  0  0
 10 11  1  0  0  0  0
 11 12  2  0  0  0  0
 12 14  1  0  0  0  0
 12 13  1  0  0  0  0
 14 15  1  0  0  0  0
 16 14  2  0  0  0  0
 17 16  1  0  0  0  0
 18 20  1  0  0  0  0
 18  1  1  0  0  0  0
 18 19  1  0  0  0  0
 21 18  1  0  0  0  0
M  END
>  <minimizedAffinity>
-4.43557024

$$$$

 OpenBabel03242514453D

 21 22  0  0  0  0  0  0  0  0999 V2000
   37.6970   28.0180   42.8580 C   0  0  0  0  0  0  0  0  0  0  0  0
   38.3210   27.3440   41.8120 C   0  0  0  0  0  0  0  0  0  0  0  0
   39.3990   27.9590   41.1680 C   0  0  0  0  0  0  0  0  0  0  0  0
   39.7830   29.1780   41.5930 N   0  0  0  0  0  0  0  0  0  0  0  0
   39.1510   29.8170   42.6260 C   0  0  0  0  0  0  0  0  0  0  0  0
   38.0990   29.2260   43.2590 N   0  0  0  0  0  0  0  0  0  0  0  0
   39.8780   27.4310   40.3580 H   0  0  0  0  0  0  0  0  0  0  0  0
   39.4860   30.7930   42.9390 H   0  0  0  0  0  0  0  0  0  0  0  0
   39.6980   24.9060   43.1750 Br  0  0  0  0  0  0  0  0  0  0  0  0
   38.3590   24.8150   41.8210 C   0  0  0  0  0  0  0  0  0  0  0  0
   37.8910   26.0230   41.3630 C   0  0  0  0  0  0  0  0  0  0  0  0
   36.9120   26.0960   40.3740 C   0  0  0  0  0  0  0  0  0  0  0  0
   36.5010   27.0210   39.9690 H   0  0  0  0  0  0  0  0  0  0  0  0
   36.3990   24.9180   39.8410 C   0  0  0  0  0  0  0  0  0  0  0  0
   35.6360   24.8930   39.0700 H   0  0  0  0  0  0  0  0  0  0  0  0
   36.8720   23.7320   40.3050 C   0  0  0  0  0  3  0  0  0  0  0  0
   37.8440   23.6300   41.2860 C   0  0  0  0  0  3  0  0  0  0  0  0
   36.5490   27.3350   43.5260 C   0  0  0  0  0  0  0  0  0  0  0  0
   36.9110   26.9130   44.5080 H   0  0  0  0  0  0  0  0  0  0  0  0
   36.2100   26.4660   42.9520 H   0  0  0  0  0  0  0  0  0  0  0  0
   35.7270   28.0690   43.7200 H   0  0  0  0  0  0  0  0  0  0  0  0
  1  6  1  0  0  0  0
  1 18  1  0  0  0  0
  2  1  2  0  0  0  0
  3  4  2  0  0  0  0
  3  2  1  0  0  0  0
  4  5  1  0  0  0  0
  5  8  1  0  0  0  0
  5  6  2  0  0  0  0
  7  3  1  0  0  0  0
 10  9  1  0  0  0  0
 11  2  1  0  0  0  0
 11 10  1  0  0  0  0
 12 11  2  0  0  0  0
 13 12  1  0  0  0  0
 14 16  2  0  0  0  0
 14 12  1  0  0  0  0
 15 14  1  0  0  0  0
 16 17  1  0  0  0  0
 17 10  2  0  0  0  0
 18 21  1  0  0  0  0
 18 19  1  0  0  0  0
 20 18  1  0  0  0  0
M  END
>  <minimizedAffinity>
-4.37426901

$$$$

 OpenBabel03242514453D

 21 22  0  0  0  0  0  0  0  0999 V2000
   38.1940   29.3600   40.4910 C   0  0  0  0  0  0  0  0  0  0  0  0
   37.0060   28.6900   40.7740 C   0  0  0  0  0  0  0  0  0  0  0  0
   35.8250   29.4320   40.8690 C   0  0  0  0  0  0  0  0  0  0  0  0
   35.8930   30.7640   40.6790 N   0  0  0  0  0  0  0  0  0  0  0  0
   37.0750   31.3960   40.4010 C   0  0  0  0  0  0  0  0  0  0  0  0
   38.2320   30.6820   40.3070 N   0  0  0  0  0  0  0  0  0  0  0  0
   34.9090   28.9070   41.0880 H   0  0  0  0  0  0  0  0  0  0  0  0
   37.0910   32.4650   40.2550 H   0  0  0  0  0  0  0  0  0  0  0  0
   37.5000   27.6850   43.6800 Br  0  0  0  0  0  0  0  0  0  0  0  0
   37.1360   26.5830   42.1670 C   0  0  0  0  0  0  0  0  0  0  0  0
   36.9500   27.2450   40.9780 C   0  0  0  0  0  0  0  0  0  0  0  0
   36.6780   26.5580   39.7970 C   0  0  0  0  0  0  0  0  0  0  0  0
   36.5220   27.0230   38.8240 H   0  0  0  0  0  0  0  0  0  0  0  0
   36.5930   25.1690   39.8270 C   0  0  0  0  0  0  0  0  0  0  0  0
   36.3850   24.5640   38.9510 H   0  0  0  0  0  0  0  0  0  0  0  0
   36.7790   24.5300   41.0110 C   0  0  0  0  0  3  0  0  0  0  0  0
   37.0510   25.1880   42.1980 C   0  0  0  0  0  3  0  0  0  0  0  0
   39.4380   28.5400   40.3970 C   0  0  0  0  0  0  0  0  0  0  0  0
   39.6900   28.4030   39.3050 H   0  0  0  0  0  0  0  0  0  0  0  0
   39.2800   27.5260   40.7790 H   0  0  0  0  0  0  0  0  0  0  0  0
   40.2830   29.0660   40.9080 H   0  0  0  0  0  0  0  0  0  0  0  0
  1  2  1  0  0  0  0
  2  3  2  0  0  0  0
  2 11  1  0  0  0  0
  3  7  1  0  0  0  0
  4  3  1  0  0  0  0
  5  4  2  0  0  0  0
  6  5  1  0  0  0  0
  6  1  2  0  0  0  0
  8  5  1  0  0  0  0
 10 17  1  0  0  0  0
 10  9  1  0  0  0  0
 11 10  2  0  0  0  0
 12 14  2  0  0  0  0
 12 11  1  0  0  0  0
 13 12  1  0  0  0  0
 14 16  1  0  0  0  0
 15 14  1  0  0  0  0
 16 17  2  0  0  0  0
 18  1  1  0  0  0  0
 18 20  1  0  0  0  0
 18 21  1  0  0  0  0
 19 18  1  0  0  0  0
M  END
>  <minimizedAffinity>
-4.37326002

$$$$

 OpenBabel03242514453D

 21 22  0  0  0  0  0  0  0  0999 V2000
   36.6670   27.8510   42.0270 C   0  0  0  0  0  0  0  0  0  0  0  0
   37.8490   27.3800   41.4610 C   0  0  0  0  0  0  0  0  0  0  0  0
   38.1170   27.6820   40.1220 C   0  0  0  0  0  0  0  0  0  0  0  0
   37.2150   28.4170   39.4430 N   0  0  0  0  0  0  0  0  0  0  0  0
   36.0620   28.8680   40.0260 C   0  0  0  0  0  0  0  0  0  0  0  0
   35.7910   28.5780   41.3300 N   0  0  0  0  0  0  0  0  0  0  0  0
   39.0340   27.3140   39.6900 H   0  0  0  0  0  0  0  0  0  0  0  0
   35.3630   29.4540   39.4510 H   0  0  0  0  0  0  0  0  0  0  0  0
   37.3440   24.3090   41.5360 Br  0  0  0  0  0  0  0  0  0  0  0  0
   38.7910   25.2200   42.3780 C   0  0  0  0  0  0  0  0  0  0  0  0
   38.8150   26.5830   42.2110 C   0  0  0  0  0  0  0  0  0  0  0  0
   39.8180   27.3670   42.7760 C   0  0  0  0  0  0  0  0  0  0  0  0
   39.8930   28.4510   42.6810 H   0  0  0  0  0  0  0  0  0  0  0  0
   40.8180   26.7530   43.5250 C   0  0  0  0  0  0  0  0  0  0  0  0
   41.6310   27.2950   43.9950 H   0  0  0  0  0  0  0  0  0  0  0  0
   40.7790   25.4040   43.6800 C   0  0  0  0  0  3  0  0  0  0  0  0
   39.7940   24.6010   43.1310 C   0  0  0  0  0  3  0  0  0  0  0  0
   36.4100   27.5120   43.4580 C   0  0  0  0  0  0  0  0  0  0  0  0
   36.6360   28.4240   44.0840 H   0  0  0  0  0  0  0  0  0  0  0  0
   37.1020   26.7430   43.8190 H   0  0  0  0  0  0  0  0  0  0  0  0
   35.3370   27.2250   43.5970 H   0  0  0  0  0  0  0  0  0  0  0  0
  1 18  1  0  0  0  0
  2  1  1  0  0  0  0
  2 11  1  0  0  0  0
  3  2  2  0  0  0  0
  4  5  2  0  0  0  0
  4  3  1  0  0  0  0
  5  6  1  0  0  0  0
  6  1  2  0  0  0  0
  7  3  1  0  0  0  0
  8  5  1  0  0  0  0
  9 10  1  0  0  0  0
 10 17  1  0  0  0  0
 11 10  2  0  0  0  0
 11 12  1  0  0  0  0
 12 14  2  0  0  0  0
 13 12  1  0  0  0  0
 14 16  1  0  0  0  0
 14 15  1  0  0  0  0
 17 16  2  0  0  0  0
 18 21  1  0  0  0  0
 18 20  1  0  0  0  0
 18 19  1  0  0  0  0
M  END
>  <minimizedAffinity>
-4.32666683

$$$$

 OpenBabel03242514453D

 21 22  0  0  0  0  0  0  0  0999 V2000
   38.3540   30.0100   39.1940 C   0  0  0  0  0  0  0  0  0  0  0  0
   37.6150   30.3200   40.3330 C   0  0  0  0  0  0  0  0  0  0  0  0
   36.9030   31.5240   40.3620 C   0  0  0  0  0  0  0  0  0  0  0  0
   36.9670   32.3260   39.2820 N   0  0  0  0  0  0  0  0  0  0  0  0
   37.7000   31.9940   38.1750 C   0  0  0  0  0  0  0  0  0  0  0  0
   38.3980   30.8240   38.1370 N   0  0  0  0  0  0  0  0  0  0  0  0
   36.3340   31.7580   41.2470 H   0  0  0  0  0  0  0  0  0  0  0  0
   37.7270   32.6630   37.3280 H   0  0  0  0  0  0  0  0  0  0  0  0
   39.8090   30.7530   42.5000 Br  0  0  0  0  0  0  0  0  0  0  0  0
   38.4180   29.4500   42.5680 C   0  0  0  0  0  0  0  0  0  0  0  0
   37.5590   29.4390   41.4960 C   0  0  0  0  0  0  0  0  0  0  0  0
   36.5010   28.5360   41.4210 C   0  0  0  0  0  0  0  0  0  0  0  0
   35.7870   28.4770   40.6000 H   0  0  0  0  0  0  0  0  0  0  0  0
   36.3130   27.6250   42.4570 C   0  0  0  0  0  0  0  0  0  0  0  0
   35.5130   26.8930   42.4700 H   0  0  0  0  0  0  0  0  0  0  0  0
   37.1720   27.6500   43.5080 C   0  0  0  0  0  3  0  0  0  0  0  0
   38.2310   28.5350   43.6090 C   0  0  0  0  0  3  0  0  0  0  0  0
   39.1030   28.7180   39.1930 C   0  0  0  0  0  0  0  0  0  0  0  0
   38.5260   27.9750   38.5690 H   0  0  0  0  0  0  0  0  0  0  0  0
   39.1410   28.2760   40.1950 H   0  0  0  0  0  0  0  0  0  0  0  0
   40.1190   28.8650   38.7490 H   0  0  0  0  0  0  0  0  0  0  0  0
  1  2  1  0  0  0  0
  2  3  2  0  0  0  0
  2 11  1  0  0  0  0
  3  7  1  0  0  0  0
  4  3  1  0  0  0  0
  5  4  2  0  0  0  0
  6  5  1  0  0  0  0
  6  1  2  0  0  0  0
  8  5  1  0  0  0  0
  9 10  1  0  0  0  0
 10 17  1  0  0  0  0
 11 10  2  0  0  0  0
 12 11  1  0  0  0  0
 12 14  2  0  0  0  0
 13 12  1  0  0  0  0
 14 15  1  0  0  0  0
 14 16  1  0  0  0  0
 16 17  2  0  0  0  0
 18  1  1  0  0  0  0
 18 20  1  0  0  0  0
 19 18  1  0  0  0  0
 21 18  1  0  0  0  0
M  END
>  <minimizedAffinity>
-4.30935097

$$$$

 OpenBabel03242514453D

 21 22  0  0  0  0  0  0  0  0999 V2000
   36.0440   29.3830   39.1110 C   0  0  0  0  0  0  0  0  0  0  0  0
   37.2210   28.9520   39.7170 C   0  0  0  0  0  0  0  0  0  0  0  0
   38.4270   29.1100   39.0250 C   0  0  0  0  0  0  0  0  0  0  0  0
   38.3900   29.6740   37.8030 N   0  0  0  0  0  0  0  0  0  0  0  0
   37.2170   30.0900   37.2330 C   0  0  0  0  0  0  0  0  0  0  0  0
   36.0370   29.9400   37.8980 N   0  0  0  0  0  0  0  0  0  0  0  0
   39.3350   28.7730   39.5000 H   0  0  0  0  0  0  0  0  0  0  0  0
   37.2260   30.5390   36.2510 H   0  0  0  0  0  0  0  0  0  0  0  0
   36.7420   25.8770   39.8270 Br  0  0  0  0  0  0  0  0  0  0  0  0
   37.0570   27.0090   41.3280 C   0  0  0  0  0  0  0  0  0  0  0  0
   37.2430   28.3400   41.0420 C   0  0  0  0  0  0  0  0  0  0  0  0
   37.4820   29.2740   42.0480 C   0  0  0  0  0  0  0  0  0  0  0  0
   37.6370   30.3400   41.8880 H   0  0  0  0  0  0  0  0  0  0  0  0
   37.5320   28.8450   43.3720 C   0  0  0  0  0  0  0  0  0  0  0  0
   37.7130   29.5110   44.2090 H   0  0  0  0  0  0  0  0  0  0  0  0
   37.3460   27.5260   43.6360 C   0  0  0  0  0  3  0  0  0  0  0  0
   37.1070   26.5780   42.6570 C   0  0  0  0  0  3  0  0  0  0  0  0
   34.7740   29.2010   39.8750 C   0  0  0  0  0  0  0  0  0  0  0  0
   34.4770   30.1990   40.3110 H   0  0  0  0  0  0  0  0  0  0  0  0
   34.9170   28.5450   40.7410 H   0  0  0  0  0  0  0  0  0  0  0  0
   33.9650   28.8400   39.1910 H   0  0  0  0  0  0  0  0  0  0  0  0
  1  2  1  0  0  0  0
  1 18  1  0  0  0  0
  2 11  1  0  0  0  0
  3  7  1  0  0  0  0
  3  2  2  0  0  0  0
  4  3  1  0  0  0  0
  5  4  2  0  0  0  0
  5  6  1  0  0  0  0
  6  1  2  0  0  0  0
  8  5  1  0  0  0  0
  9 10  1  0  0  0  0
 10 17  1  0  0  0  0
 11 10  2  0  0  0  0
 11 12  1  0  0  0  0
 12 14  2  0  0  0  0
 13 12  1  0  0  0  0
 14 16  1  0  0  0  0
 14 15  1  0  0  0  0
 17 16  2  0  0  0  0
 18 19  1  0  0  0  0
 18 20  1  0  0  0  0
 21 18  1  0  0  0  0
M  END
>  <minimizedAffinity>
-4.27462912

$$$$

 OpenBabel03242514453D

 21 22  0  0  0  0  0  0  0  0999 V2000
   36.5150   28.7470   41.6000 C   0  0  0  0  0  0  0  0  0  0  0  0
   37.5950   29.5820   41.3220 C   0  0  0  0  0  0  0  0  0  0  0  0
   38.6930   29.5670   42.1880 C   0  0  0  0  0  0  0  0  0  0  0  0
   38.6520   28.7430   43.2520 N   0  0  0  0  0  0  0  0  0  0  0  0
   37.5770   27.9320   43.5000 C   0  0  0  0  0  0  0  0  0  0  0  0
   36.5020   27.9390   42.6620 N   0  0  0  0  0  0  0  0  0  0  0  0
   39.5250   30.2160   41.9670 H   0  0  0  0  0  0  0  0  0  0  0  0
   37.5800   27.2840   44.3630 H   0  0  0  0  0  0  0  0  0  0  0  0
   38.6300   28.3470   38.6570 Br  0  0  0  0  0  0  0  0  0  0  0  0
   38.0370   30.1430   38.8960 C   0  0  0  0  0  0  0  0  0  0  0  0
   37.6210   30.4710   40.1640 C   0  0  0  0  0  0  0  0  0  0  0  0
   37.1650   31.7500   40.4720 C   0  0  0  0  0  0  0  0  0  0  0  0
   36.8230   32.0720   41.4560 H   0  0  0  0  0  0  0  0  0  0  0  0
   37.1310   32.7160   39.4710 C   0  0  0  0  0  0  0  0  0  0  0  0
   36.7890   33.7330   39.6330 H   0  0  0  0  0  0  0  0  0  0  0  0
   37.5450   32.3760   38.2230 C   0  0  0  0  0  3  0  0  0  0  0  0
   38.0030   31.1130   37.8890 C   0  0  0  0  0  3  0  0  0  0  0  0
   35.3580   28.7860   40.6560 C   0  0  0  0  0  0  0  0  0  0  0  0
   35.4130   27.8750   39.9920 H   0  0  0  0  0  0  0  0  0  0  0  0
   35.4270   29.6390   39.9720 H   0  0  0  0  0  0  0  0  0  0  0  0
   34.3970   28.7690   41.2280 H   0  0  0  0  0  0  0  0  0  0  0  0
  1  6  1  0  0  0  0
  2  1  2  0  0  0  0
  2  3  1  0  0  0  0
  3  4  2  0  0  0  0
  4  5  1  0  0  0  0
  5  8  1  0  0  0  0
  6  5  2  0  0  0  0
  7  3  1  0  0  0  0
  9 10  1  0  0  0  0
 10 11  1  0  0  0  0
 11 12  2  0  0  0  0
 11  2  1  0  0  0  0
 12 13  1  0  0  0  0
 14 15  1  0  0  0  0
 14 12  1  0  0  0  0
 16 14  2  0  0  0  0
 17 16  1  0  0  0  0
 17 10  2  0  0  0  0
 18 21  1  0  0  0  0
 18  1  1  0  0  0  0
 19 18  1  0  0  0  0
 20 18  1  0  0  0  0
M  END
>  <minimizedAffinity>
-4.26753902

$$$$

 OpenBabel03242514453D

 21 22  0  0  0  0  0  0  0  0999 V2000
   37.6800   28.0740   42.8480 C   0  0  0  0  0  0  0  0  0  0  0  0
   38.2560   27.4030   41.7730 C   0  0  0  0  0  0  0  0  0  0  0  0
   39.3920   27.9540   41.1710 C   0  0  0  0  0  0  0  0  0  0  0  0
   39.8760   29.1100   41.6630 N   0  0  0  0  0  0  0  0  0  0  0  0
   39.2890   29.7480   42.7230 C   0  0  0  0  0  0  0  0  0  0  0  0
   38.1810   29.2200   43.3160 N   0  0  0  0  0  0  0  0  0  0  0  0
   39.8330   27.4280   40.3380 H   0  0  0  0  0  0  0  0  0  0  0  0
   39.7040   30.6730   43.0900 H   0  0  0  0  0  0  0  0  0  0  0  0
   36.2130   27.6460   39.4360 Br  0  0  0  0  0  0  0  0  0  0  0  0
   36.8100   26.0180   40.2280 C   0  0  0  0  0  0  0  0  0  0  0  0
   37.7180   26.1500   41.2510 C   0  0  0  0  0  0  0  0  0  0  0  0
   38.2330   25.0390   41.9150 C   0  0  0  0  0  0  0  0  0  0  0  0
   38.9540   25.0770   42.7310 H   0  0  0  0  0  0  0  0  0  0  0  0
   37.8150   23.7680   41.5320 C   0  0  0  0  0  0  0  0  0  0  0  0
   38.1700   22.8560   42.0010 H   0  0  0  0  0  0  0  0  0  0  0  0
   36.9170   23.6550   40.5200 C   0  0  0  0  0  3  0  0  0  0  0  0
   36.3890   24.7410   39.8430 C   0  0  0  0  0  3  0  0  0  0  0  0
   36.4680   27.4610   43.4690 C   0  0  0  0  0  0  0  0  0  0  0  0
   36.7800   26.9580   44.4300 H   0  0  0  0  0  0  0  0  0  0  0  0
   36.0620   26.6560   42.8470 H   0  0  0  0  0  0  0  0  0  0  0  0
   35.7110   28.2540   43.6950 H   0  0  0  0  0  0  0  0  0  0  0  0
  1  6  1  0  0  0  0
  1 18  1  0  0  0  0
  2  1  2  0  0  0  0
  3  4  2  0  0  0  0
  3  2  1  0  0  0  0
  4  5  1  0  0  0  0
  5  8  1  0  0  0  0
  5  6  2  0  0  0  0
  7  3  1  0  0  0  0
  9 10  1  0  0  0  0
 10 11  1  0  0  0  0
 11  2  1  0  0  0  0
 11 12  2  0  0  0  0
 12 13  1  0  0  0  0
 14 12  1  0  0  0  0
 14 15  1  0  0  0  0
 16 14  2  0  0  0  0
 17 10  2  0  0  0  0
 17 16  1  0  0  0  0
 18 21  1  0  0  0  0
 18 19  1  0  0  0  0
 20 18  1  0  0  0  0
M  END
>  <minimizedAffinity>
-4.23124123

$$$$

 OpenBabel03242514453D

 21 22  0  0  0  0  0  0  0  0999 V2000
   36.5330   30.2890   38.1790 C   0  0  0  0  0  0  0  0  0  0  0  0
   36.7200   30.7830   39.4670 C   0  0  0  0  0  0  0  0  0  0  0  0
   35.9080   30.2950   40.4960 C   0  0  0  0  0  0  0  0  0  0  0  0
   34.9810   29.3680   40.1900 N   0  0  0  0  0  0  0  0  0  0  0  0
   34.8200   28.8990   38.9130 C   0  0  0  0  0  0  0  0  0  0  0  0
   35.6060   29.3680   37.9040 N   0  0  0  0  0  0  0  0  0  0  0  0
   36.0580   30.6830   41.4920 H   0  0  0  0  0  0  0  0  0  0  0  0
   34.0670   28.1550   38.7050 H   0  0  0  0  0  0  0  0  0  0  0  0
   39.5410   29.7170   40.2430 Br  0  0  0  0  0  0  0  0  0  0  0  0
   39.0320   31.5510   40.1470 C   0  0  0  0  0  0  0  0  0  0  0  0
   37.7290   31.7900   39.7820 C   0  0  0  0  0  0  0  0  0  0  0  0
   37.2290   33.0860   39.6760 C   0  0  0  0  0  0  0  0  0  0  0  0
   36.2090   33.3420   39.3920 H   0  0  0  0  0  0  0  0  0  0  0  0
   38.0720   34.1610   39.9460 C   0  0  0  0  0  0  0  0  0  0  0  0
   37.7570   35.1970   39.8840 H   0  0  0  0  0  0  0  0  0  0  0  0
   39.3570   33.9070   40.3050 C   0  0  0  0  0  3  0  0  0  0  0  0
   39.8790   32.6300   40.4190 C   0  0  0  0  0  3  0  0  0  0  0  0
   37.4150   30.8290   37.1020 C   0  0  0  0  0  0  0  0  0  0  0  0
   38.2130   30.0620   36.8810 H   0  0  0  0  0  0  0  0  0  0  0  0
   37.9630   31.7160   37.4400 H   0  0  0  0  0  0  0  0  0  0  0  0
   36.8170   31.0200   36.1770 H   0  0  0  0  0  0  0  0  0  0  0  0
  1  2  1  0  0  0  0
  2 11  1  0  0  0  0
  2  3  2  0  0  0  0
  3  7  1  0  0  0  0
  4  3  1  0  0  0  0
  5  4  2  0  0  0  0
  6  1  2  0  0  0  0
  6  5  1  0  0  0  0
  8  5  1  0  0  0  0
 10  9  1  0  0  0  0
 10 17  1  0  0  0  0
 11 10  2  0  0  0  0
 12 11  1  0  0  0  0
 12 14  2  0  0  0  0
 13 12  1  0  0  0  0
 14 16  1  0  0  0  0
 15 14  1  0  0  0  0
 16 17  2  0  0  0  0
 18 20  1  0  0  0  0
 18  1  1  0  0  0  0
 19 18  1  0  0  0  0
 21 18  1  0  0  0  0
M  END
>  <minimizedAffinity>
-4.1899395

$$$$
