
     RDKit          3D

 39 41  0  0  0  0  0  0  0  0999 V2000
   41.9023   35.2298   41.5334 C   0  0  0  0  0  0  0  0  0  0  0  0
   40.9595   36.0895   40.7517 C   0  0  0  0  0  0  0  0  0  0  0  0
   41.7663   36.2922   37.8135 Cl  0  0  0  0  0  0  0  0  0  0  0  0
   40.4629   35.3081   38.4083 C   0  0  0  0  0  0  0  0  0  0  0  0
   40.1772   35.2904   39.7882 C   0  0  0  0  0  0  0  0  0  0  0  0
   39.1370   34.4885   40.1624 C   0  0  0  0  0  0  0  0  0  0  0  0
   38.3445   33.7014   39.3374 C   0  0  0  0  0  0  0  0  0  0  0  0
   38.6407   33.7337   37.9958 C   0  0  0  0  0  0  0  0  0  0  0  0
   37.7095   32.7795   36.8599 Cl  0  0  0  0  0  0  0  0  0  0  0  0
   39.6776   34.5229   37.5578 C   0  0  0  0  0  0  0  0  0  0  0  0
   43.5168   35.0720   40.7832 S   0  0  0  0  0  0  0  0  0  0  0  0
   44.8116   34.7143   41.9883 C   0  0  0  0  0  0  0  0  0  0  0  0
   46.1029   34.5468   41.4824 C   0  0  0  0  0  0  0  0  0  0  0  0
   47.1264   34.2706   42.3770 C   0  0  0  0  0  0  0  0  0  0  0  0
   46.8185   34.1789   43.6859 N   0  0  0  0  0  0  0  0  0  0  0  0
   45.5803   34.3398   44.1657 C   0  0  0  0  0  0  0  0  0  0  0  0
   44.5876   34.6073   43.3039 N   0  0  0  0  0  0  0  0  0  0  0  0
   45.3241   34.2130   45.6040 C   0  0  0  0  0  0  0  0  0  0  0  0
   44.5504   35.0964   46.1172 O   0  0  0  0  0  0  0  0  0  0  0  0
   41.9619   35.5635   42.6004 H   0  0  0  0  0  0  0  0  0  0  0  0
   41.4317   34.2078   41.5812 H   0  0  0  0  0  0  0  0  0  0  0  0
   41.4694   36.9381   40.2553 H   0  0  0  0  0  0  0  0  0  0  0  0
   40.2336   36.5490   41.4744 H   0  0  0  0  0  0  0  0  0  0  0  0
   38.8885   34.4525   41.2324 H   0  0  0  0  0  0  0  0  0  0  0  0
   37.5424   33.1028   39.7504 H   0  0  0  0  0  0  0  0  0  0  0  0
   39.9591   34.5875   36.4950 H   0  0  0  0  0  0  0  0  0  0  0  0
   46.3455   34.6212   40.4308 H   0  0  0  0  0  0  0  0  0  0  0  0
   48.1554   34.1288   42.0499 H   0  0  0  0  0  0  0  0  0  0  0  0
   47.9625   32.3836   45.1738 Br  0  0  0  0  0  0  0  0  0  0  0  0
   46.7947   32.4232   46.6494 C   0  0  0  0  0  0  0  0  0  0  0  0
   45.7410   33.3000   46.6296 C   0  0  0  0  0  0  0  0  0  0  0  0
   44.9747   33.2243   47.8040 C   0  0  0  0  0  0  0  0  0  0  0  0
   44.1043   33.8924   47.8829 H   0  0  0  0  0  0  0  0  0  0  0  0
   45.1855   32.4009   48.8863 C   0  0  0  0  0  0  0  0  0  0  0  0
   44.5291   32.4319   49.7326 H   0  0  0  0  0  0  0  0  0  0  0  0
   46.2756   31.5656   48.7860 C   0  0  0  0  0  0  0  0  0  0  0  0
   47.0893   31.5627   47.6784 C   0  0  0  0  0  0  0  0  0  0  0  0
   46.4784   30.9007   49.6145 H   0  0  0  0  0  0  0  0  0  0  0  0
   47.9149   30.8972   47.6573 H   0  0  0  0  0  0  0  0  0  0  0  0
  2  1  1  0
  3  4  1  0
  4  5  2  0
  5  6  1  0
  5  2  1  0
  7  6  2  0
  8  7  1  0
  9  8  1  0
 10  8  2  0
 10  4  1  0
 11  1  1  0
 11 12  1  0
 12 17  1  0
 13 12  2  0
 13 14  1  0
 14 15  2  0
 15 16  1  0
 16 18  1  0
 17 16  2  0
 18 19  2  0
  1 20  1  0
  1 21  1  0
  2 22  1  0
  2 23  1  0
  6 24  1  0
  7 25  1  0
 10 26  1  0
 13 27  1  0
 14 28  1  0
 29 30  1  0
 30 31  2  0
 31 32  1  0
 32 33  1  0
 32 34  2  0
 34 35  1  0
 34 36  1  0
 36 37  2  0
 37 30  1  0
 36 38  1  0
 37 39  1  0
 18 31  1  0
M  ISO  8  20   8  21   8  22   8  23   8  24  14  25  14  26  14  27  14
M  ISO  3  28  14  33  15  35  16
M  END
>  <DihAtoms>  (1) 
15,17,30,29

>  <DihDeg>  (1) 
48.417956830257424

$$$$
