
 OpenBabel03242515003D

 37 39  0  0  0  0  0  0  0  0999 V2000
   45.1860   34.4600   42.1640 C   0  0  0  0  0  0  0  0  0  0  0  0
   46.5270   34.5250   41.7810 C   0  0  0  0  0  0  0  0  0  0  0  0
   47.4960   34.3160   42.7510 C   0  0  0  0  0  0  0  0  0  0  0  0
   47.0910   34.0600   44.0110 N   0  0  0  0  0  0  0  0  0  0  0  0
   45.8040   33.9990   44.3730 C   0  0  0  0  0  0  0  0  0  0  0  0
   44.8640   34.2010   43.4380 N   0  0  0  0  0  0  0  0  0  0  0  0
   46.8490   34.7300   40.7690 H   0  0  0  0  0  0  0  0  0  0  0  0
   48.5600   34.3520   42.5200 H   0  0  0  0  0  0  0  0  0  0  0  0
   45.4420   33.7040   45.7630 C   0  0  0  0  0  0  0  0  0  0  0  0
   44.7480   34.5980   46.3640 O   0  0  0  0  0  0  0  0  0  0  0  0
   46.1260   30.7630   44.5910 Br  0  0  0  0  0  0  0  0  0  0  0  0
   45.9560   31.2950   46.3890 C   0  0  0  0  0  0  0  0  0  0  0  0
   45.6800   32.6100   46.6610 C   0  0  0  0  0  0  0  0  0  0  0  0
   45.6020   32.8540   48.0420 C   0  0  0  0  0  0  0  0  0  0  0  0
   45.3840   33.8840   48.3610 H   0  0  0  0  0  0  0  0  0  0  0  0
   45.7670   31.9440   49.0600 C   0  0  0  0  0  0  0  0  0  0  0  0
   45.6840   32.2490   50.0840 H   0  0  0  0  0  0  0  0  0  0  0  0
   46.0390   30.6550   48.6590 C   0  0  0  0  0  3  0  0  0  0  0  0
   46.1370   30.3130   47.3310 C   0  0  0  0  0  3  0  0  0  0  0  0
   43.9650   34.7400   40.8650 S   0  0  0  0  0  0  0  0  0  0  0  0
   42.2880   34.7500   41.4860 C   0  0  0  0  0  0  0  0  0  0  0  0
   42.2510   34.8380   42.6010 H   0  0  0  0  0  0  0  0  0  0  0  0
   41.8220   33.7490   41.2640 H   0  0  0  0  0  0  0  0  0  0  0  0
   41.4130   35.7740   40.8340 C   0  0  0  0  0  0  0  0  0  0  0  0
   41.9930   36.5930   40.3660 H   0  0  0  0  0  0  0  0  0  0  0  0
   40.7930   36.2560   41.6350 H   0  0  0  0  0  0  0  0  0  0  0  0
   42.1110   36.0400   37.8720 Cl  0  0  0  0  0  0  0  0  0  0  0  0
   40.7090   35.2130   38.4800 C   0  0  0  0  0  0  0  0  0  0  0  0
   40.4840   35.1510   39.8700 C   0  0  0  0  0  0  0  0  0  0  0  0
   39.3590   34.4800   40.2540 C   0  0  0  0  0  0  0  0  0  0  0  0
   38.4260   33.8620   39.4300 C   0  0  0  0  0  0  0  0  0  0  0  0
   38.6660   33.9350   38.0790 C   0  0  0  0  0  0  0  0  0  0  0  0
   37.5590   33.1890   36.9430 Cl  0  0  0  0  0  0  0  0  0  0  0  0
   39.7840   34.5970   37.6310 C   0  0  0  0  0  0  0  0  0  0  0  0
   39.1550   34.4140   41.3320 H   0  0  0  0  0  0  0  0  0  0  0  0
   37.5670   33.3570   39.8510 H   0  0  0  0  0  0  0  0  0  0  0  0
   40.0240   34.6860   36.5600 H   0  0  0  0  0  0  0  0  0  0  0  0
  1  6  1  0  0  0  0
  2  1  2  0  0  0  0
  2  3  1  0  0  0  0
  3  4  2  0  0  0  0
  4  5  1  0  0  0  0
  5  9  1  0  0  0  0
  6  5  2  0  0  0  0
  7  2  1  0  0  0  0
  8  3  1  0  0  0  0
  9 10  2  0  0  0  0
  9 13  1  0  0  0  0
 11 12  1  0  0  0  0
 12 13  2  0  0  0  0
 12 19  1  0  0  0  0
 13 14  1  0  0  0  0
 14 15  1  0  0  0  0
 14 16  2  0  0  0  0
 16 17  1  0  0  0  0
 18 16  1  0  0  0  0
 19 18  2  0  0  0  0
 20 21  1  0  0  0  0
 20  1  1  0  0  0  0
 21 22  1  0  0  0  0
 23 21  1  0  0  0  0
 24 21  1  0  0  0  0
 24 26  1  0  0  0  0
 25 24  1  0  0  0  0
 27 28  1  0  0  0  0
 28 29  1  0  0  0  0
 29 30  2  0  0  0  0
 29 24  1  0  0  0  0
 30 35  1  0  0  0  0
 31 36  1  0  0  0  0
 31 30  1  0  0  0  0
 32 31  2  0  0  0  0
 33 32  1  0  0  0  0
 34 32  1  0  0  0  0
 34 28  2  0  0  0  0
 37 34  1  0  0  0  0
M  END
>  <minimizedAffinity>
-6.9106822

>  <minimizedRMSD>
0.641136527

$$$$
