
 OpenBabel03242515003D

 37 39  0  0  0  0  0  0  0  0999 V2000
   45.2040   34.2770   41.8640 C   0  0  0  0  0  0  0  0  0  0  0  0
   46.4170   34.7990   41.4080 C   0  0  0  0  0  0  0  0  0  0  0  0
   47.5100   34.7550   42.2600 C   0  0  0  0  0  0  0  0  0  0  0  0
   47.3430   34.2110   43.4820 N   0  0  0  0  0  0  0  0  0  0  0  0
   46.1780   33.7130   43.9150 C   0  0  0  0  0  0  0  0  0  0  0  0
   45.1190   33.7530   43.0940 N   0  0  0  0  0  0  0  0  0  0  0  0
   46.5480   35.2340   40.4270 H   0  0  0  0  0  0  0  0  0  0  0  0
   48.4840   35.1430   41.9680 H   0  0  0  0  0  0  0  0  0  0  0  0
   46.0800   33.1270   45.2550 C   0  0  0  0  0  0  0  0  0  0  0  0
   45.4570   33.8270   46.1300 O   0  0  0  0  0  0  0  0  0  0  0  0
   45.2040   32.4070   48.2900 Br  0  0  0  0  0  0  0  0  0  0  0  0
   46.3000   31.4180   47.1220 C   0  0  0  0  0  0  0  0  0  0  0  0
   46.5250   31.9050   45.8620 C   0  0  0  0  0  0  0  0  0  0  0  0
   47.3440   31.0490   45.1080 C   0  0  0  0  0  0  0  0  0  0  0  0
   47.5810   31.3550   44.0770 H   0  0  0  0  0  0  0  0  0  0  0  0
   47.8950   29.8540   45.5100 C   0  0  0  0  0  0  0  0  0  0  0  0
   48.5090   29.2830   44.8410 H   0  0  0  0  0  0  0  0  0  0  0  0
   47.5980   29.4740   46.7980 C   0  0  0  0  0  3  0  0  0  0  0  0
   46.8040   30.2400   47.6180 C   0  0  0  0  0  3  0  0  0  0  0  0
   43.8120   34.3590   40.7180 S   0  0  0  0  0  0  0  0  0  0  0  0
   42.2710   34.7550   41.5320 C   0  0  0  0  0  0  0  0  0  0  0  0
   42.4190   35.0340   42.6060 H   0  0  0  0  0  0  0  0  0  0  0  0
   41.6380   33.8240   41.5660 H   0  0  0  0  0  0  0  0  0  0  0  0
   41.4610   35.7880   40.8130 C   0  0  0  0  0  0  0  0  0  0  0  0
   42.0900   36.5540   40.3190 H   0  0  0  0  0  0  0  0  0  0  0  0
   40.8510   36.3380   41.5760 H   0  0  0  0  0  0  0  0  0  0  0  0
   42.1200   36.0610   37.8430 Cl  0  0  0  0  0  0  0  0  0  0  0  0
   40.7280   35.2290   38.4680 C   0  0  0  0  0  0  0  0  0  0  0  0
   40.5210   35.1640   39.8600 C   0  0  0  0  0  0  0  0  0  0  0  0
   39.4020   34.4910   40.2570 C   0  0  0  0  0  0  0  0  0  0  0  0
   38.4600   33.8720   39.4440 C   0  0  0  0  0  0  0  0  0  0  0  0
   38.6820   33.9480   38.0900 C   0  0  0  0  0  0  0  0  0  0  0  0
   37.5620   33.2030   36.9670 Cl  0  0  0  0  0  0  0  0  0  0  0  0
   39.7930   34.6140   37.6290 C   0  0  0  0  0  0  0  0  0  0  0  0
   39.2120   34.4230   41.3380 H   0  0  0  0  0  0  0  0  0  0  0  0
   37.6070   33.3650   39.8750 H   0  0  0  0  0  0  0  0  0  0  0  0
   40.0190   34.7050   36.5550 H   0  0  0  0  0  0  0  0  0  0  0  0
  1  6  1  0  0  0  0
  2  1  2  0  0  0  0
  2  3  1  0  0  0  0
  3  4  2  0  0  0  0
  4  5  1  0  0  0  0
  5  9  1  0  0  0  0
  6  5  2  0  0  0  0
  7  2  1  0  0  0  0
  8  3  1  0  0  0  0
  9 13  1  0  0  0  0
  9 10  2  0  0  0  0
 12 19  1  0  0  0  0
 12 11  1  0  0  0  0
 13 12  2  0  0  0  0
 14 16  2  0  0  0  0
 14 13  1  0  0  0  0
 15 14  1  0  0  0  0
 16 18  1  0  0  0  0
 17 16  1  0  0  0  0
 18 19  2  0  0  0  0
 20 21  1  0  0  0  0
 20  1  1  0  0  0  0
 21 23  1  0  0  0  0
 21 22  1  0  0  0  0
 24 21  1  0  0  0  0
 24 26  1  0  0  0  0
 25 24  1  0  0  0  0
 27 28  1  0  0  0  0
 28 29  1  0  0  0  0
 29 30  2  0  0  0  0
 29 24  1  0  0  0  0
 30 35  1  0  0  0  0
 31 36  1  0  0  0  0
 31 30  1  0  0  0  0
 32 31  2  0  0  0  0
 33 32  1  0  0  0  0
 34 32  1  0  0  0  0
 34 28  2  0  0  0  0
 37 34  1  0  0  0  0
M  END
>  <minimizedAffinity>
-6.53730583

>  <minimizedRMSD>
1.34066522

$$$$
