
 OpenBabel03252502273D

 35 37  0  0  0  0  0  0  0  0999 V2000
   45.2470   34.3980   40.9850 C   0  0  0  0  0  0  0  0  0  0  0  0
   45.4480   35.0140   42.2100 C   0  0  0  0  0  0  0  0  0  0  0  0
   46.7470   35.2780   42.6220 C   0  0  0  0  0  0  0  0  0  0  0  0
   47.8060   34.9280   41.8140 C   0  0  0  0  0  0  0  0  0  0  0  0
   47.6280   34.3180   40.5980 C   0  0  0  0  0  0  0  0  0  0  0  0
   46.3080   34.0650   40.2080 C   0  0  0  0  0  0  0  0  0  0  0  0
   44.6100   35.2860   42.8470 H   0  0  0  0  0  0  0  0  0  0  0  0
   46.9700   35.7530   43.5690 H   0  0  0  0  0  0  0  0  0  0  0  0
   48.8670   35.0930   42.0470 H   0  0  0  0  0  0  0  0  0  0  0  0
   48.3510   33.9980   39.8800 H   0  0  0  0  0  0  0  0  0  0  0  0
   41.6190   34.7490   40.0410 C   0  0  0  0  0  0  0  0  0  0  0  0
   42.9220   35.1220   40.3930 C   0  0  0  0  0  0  0  0  0  0  0  0
   43.8650   34.1550   40.6150 C   0  0  0  0  0  0  0  0  0  0  0  0
   43.4580   32.8590   40.4750 N   0  0  0  0  0  0  0  0  0  0  0  0
   42.2000   32.5000   40.1360 C   0  0  0  0  0  0  0  0  0  0  0  0
   41.2750   33.4560   39.9170 N   0  0  0  0  0  0  0  0  0  0  0  0
   43.2230   36.1430   40.4970 H   0  0  0  0  0  0  0  0  0  0  0  0
   41.9460   31.4420   40.0370 H   0  0  0  0  0  0  0  0  0  0  0  0
   40.5910   35.7880   39.7970 C   0  0  0  0  0  0  0  0  0  0  0  0
   39.3700   35.1330   39.5640 F   0  0  0  0  0  0  0  0  0  0  0  0
   40.9080   36.3940   38.5860 F   0  0  0  0  0  0  0  0  0  0  0  0
   40.4620   36.6710   40.8360 F   0  0  0  0  0  0  0  0  0  0  0  0
   46.2690   32.2180   38.3640 C   0  0  0  0  0  0  0  0  0  0  0  0
   46.8880   31.2760   38.8800 O   0  0  0  0  0  0  0  0  0  0  0  0
   45.9830   33.4510   38.9800 N   0  0  0  0  0  0  0  0  0  0  0  0
   45.3760   34.1390   38.4350 H   0  0  0  0  0  0  0  0  0  0  0  0
   48.3930   33.0720   36.2490 Br  0  0  0  0  0  0  0  0  0  0  0  0
   46.6890   32.3140   35.9530 C   0  0  0  0  0  0  0  0  0  0  0  0
   45.8230   31.9720   36.9960 C   0  0  0  0  0  0  0  0  0  0  0  0
   44.5670   31.4160   36.8120 C   0  0  0  0  0  0  0  0  0  0  0  0
   43.9470   31.1710   37.6550 H   0  0  0  0  0  0  0  0  0  0  0  0
   44.1580   31.1910   35.4970 C   0  0  0  0  0  0  0  0  0  0  0  0
   43.1620   30.7510   35.3970 H   0  0  0  0  0  0  0  0  0  0  0  0
   44.9630   31.5050   34.4410 C   0  0  0  0  0  3  0  0  0  0  0  0
   46.2220   32.0650   34.6680 C   0  0  0  0  0  3  0  0  0  0  0  0
  1  2  1  0  0  0  0
  2  3  2  0  0  0  0
  2  7  1  0  0  0  0
  3  8  1  0  0  0  0
  4  9  1  0  0  0  0
  4  3  1  0  0  0  0
  5  4  2  0  0  0  0
  6  5  1  0  0  0  0
  6  1  2  0  0  0  0
 10  5  1  0  0  0  0
 11 12  1  0  0  0  0
 12 17  1  0  0  0  0
 12 13  2  0  0  0  0
 13  1  1  0  0  0  0
 14 13  1  0  0  0  0
 15 14  2  0  0  0  0
 16 11  2  0  0  0  0
 16 15  1  0  0  0  0
 18 15  1  0  0  0  0
 19 11  1  0  0  0  0
 19 22  1  0  0  0  0
 20 19  1  0  0  0  0
 21 19  1  0  0  0  0
 23 24  2  0  0  0  0
 23 25  1  0  0  0  0
 25  6  1  0  0  0  0
 26 25  1  0  0  0  0
 28 27  1  0  0  0  0
 28 29  1  0  0  0  0
 29 23  1  0  0  0  0
 30 29  2  0  0  0  0
 30 31  1  0  0  0  0
 32 30  1  0  0  0  0
 33 32  1  0  0  0  0
 34 35  1  0  0  0  0
 34 32  2  0  0  0  0
 35 28  2  0  0  0  0
M  END
>  <minimizedAffinity>
-6.2579217

>  <minimizedRMSD>
1.04999304

$$$$
