
 OpenBabel03252502273D

 35 37  0  0  0  0  0  0  0  0999 V2000
   45.1070   34.4610   41.2530 C   0  0  0  0  0  0  0  0  0  0  0  0
   45.4260   35.1390   42.4190 C   0  0  0  0  0  0  0  0  0  0  0  0
   46.7590   35.4120   42.6920 C   0  0  0  0  0  0  0  0  0  0  0  0
   47.7350   35.0100   41.8080 C   0  0  0  0  0  0  0  0  0  0  0  0
   47.4410   34.3380   40.6480 C   0  0  0  0  0  0  0  0  0  0  0  0
   46.0880   34.0780   40.3980 C   0  0  0  0  0  0  0  0  0  0  0  0
   44.6530   35.4520   43.1160 H   0  0  0  0  0  0  0  0  0  0  0  0
   47.0720   35.9340   43.5870 H   0  0  0  0  0  0  0  0  0  0  0  0
   48.8140   35.1780   41.9300 H   0  0  0  0  0  0  0  0  0  0  0  0
   48.0910   33.9740   39.8830 H   0  0  0  0  0  0  0  0  0  0  0  0
   41.4430   34.7690   40.4430 C   0  0  0  0  0  0  0  0  0  0  0  0
   42.7800   35.1450   40.6220 C   0  0  0  0  0  0  0  0  0  0  0  0
   43.6950   34.2110   41.0280 C   0  0  0  0  0  0  0  0  0  0  0  0
   43.2280   32.9450   41.2360 N   0  0  0  0  0  0  0  0  0  0  0  0
   41.9370   32.5850   41.0640 C   0  0  0  0  0  0  0  0  0  0  0  0
   41.0390   33.5080   40.6630 N   0  0  0  0  0  0  0  0  0  0  0  0
   43.1280   36.1420   40.4530 H   0  0  0  0  0  0  0  0  0  0  0  0
   41.6340   31.5510   41.2440 H   0  0  0  0  0  0  0  0  0  0  0  0
   40.4440   35.7730   40.0030 C   0  0  0  0  0  0  0  0  0  0  0  0
   39.2540   35.0870   39.7070 F   0  0  0  0  0  0  0  0  0  0  0  0
   40.8830   36.2700   38.7800 F   0  0  0  0  0  0  0  0  0  0  0  0
   40.2090   36.7440   40.9390 F   0  0  0  0  0  0  0  0  0  0  0  0
   45.7790   32.1010   38.7220 C   0  0  0  0  0  0  0  0  0  0  0  0
   46.3240   31.1450   39.2920 O   0  0  0  0  0  0  0  0  0  0  0  0
   45.6460   33.4020   39.2410 N   0  0  0  0  0  0  0  0  0  0  0  0
   45.0860   34.1030   38.6630 H   0  0  0  0  0  0  0  0  0  0  0  0
   47.7580   32.8600   36.4380 Br  0  0  0  0  0  0  0  0  0  0  0  0
   46.0420   32.0880   36.2870 C   0  0  0  0  0  0  0  0  0  0  0  0
   45.2460   31.7920   37.3980 C   0  0  0  0  0  0  0  0  0  0  0  0
   43.9840   31.2260   37.3210 C   0  0  0  0  0  0  0  0  0  0  0  0
   43.4200   31.0200   38.2120 H   0  0  0  0  0  0  0  0  0  0  0  0
   43.4920   30.9410   36.0470 C   0  0  0  0  0  0  0  0  0  0  0  0
   42.4940   30.4960   36.0310 H   0  0  0  0  0  0  0  0  0  0  0  0
   44.2260   31.2090   34.9280 C   0  0  0  0  0  3  0  0  0  0  0  0
   45.4950   31.7790   35.0480 C   0  0  0  0  0  3  0  0  0  0  0  0
  1  2  1  0  0  0  0
  2  3  2  0  0  0  0
  2  7  1  0  0  0  0
  3  8  1  0  0  0  0
  4  9  1  0  0  0  0
  4  3  1  0  0  0  0
  5  4  2  0  0  0  0
  6  5  1  0  0  0  0
  6  1  2  0  0  0  0
 10  5  1  0  0  0  0
 11 12  2  0  0  0  0
 11 16  1  0  0  0  0
 12 13  1  0  0  0  0
 13 14  2  0  0  0  0
 13  1  1  0  0  0  0
 15 14  1  0  0  0  0
 15 18  1  0  0  0  0
 16 15  2  0  0  0  0
 17 12  1  0  0  0  0
 19 11  1  0  0  0  0
 19 22  1  0  0  0  0
 20 19  1  0  0  0  0
 21 19  1  0  0  0  0
 23 25  1  0  0  0  0
 23 24  2  0  0  0  0
 25  6  1  0  0  0  0
 26 25  1  0  0  0  0
 28 27  1  0  0  0  0
 28 29  1  0  0  0  0
 29 23  1  0  0  0  0
 30 29  2  0  0  0  0
 30 31  1  0  0  0  0
 32 30  1  0  0  0  0
 33 32  1  0  0  0  0
 34 35  1  0  0  0  0
 34 32  2  0  0  0  0
 35 28  2  0  0  0  0
M  END
>  <minimizedAffinity>
-6.14287329

>  <minimizedRMSD>
0.341306508

$$$$
