
 OpenBabel03252507323D

 43 45  0  0  1  0  0  0  0  0999 V2000
   47.5950   31.8210   46.3420 C   0  0  2  0  0  0  0  0  0  0  0  0
   47.3530   30.3710   45.8280 C   0  0  0  0  0  0  0  0  0  0  0  0
   48.1710   29.4190   46.6380 C   0  0  0  0  0  0  0  0  0  0  0  0
   48.1460   29.6330   48.1150 C   0  0  0  0  0  0  0  0  0  0  0  0
   48.1500   31.0220   48.5120 C   0  0  0  0  0  0  0  0  0  0  0  0
   47.1520   31.8970   47.7210 C   0  0  2  0  0  0  0  0  0  0  0  0
   48.6890   31.9300   46.2390 H   0  0  0  0  0  0  0  0  0  0  0  0
   46.2940   30.1240   45.7840 H   0  0  0  0  0  0  0  0  0  0  0  0
   47.7130   30.3980   44.7790 H   0  0  0  0  0  0  0  0  0  0  0  0
   49.1700   29.3990   46.1600 H   0  0  0  0  0  0  0  0  0  0  0  0
   47.7660   28.3870   46.4640 H   0  0  0  0  0  0  0  0  0  0  0  0
   49.2590   29.3760   48.3490 H   0  0  0  0  0  0  0  0  0  0  0  0
   47.7710   28.8350   48.7500 H   0  0  0  0  0  0  0  0  0  0  0  0
   47.8660   31.0950   49.5980 H   0  0  0  0  0  0  0  0  0  0  0  0
   49.0950   31.6010   48.4340 H   0  0  0  0  0  0  0  0  0  0  0  0
   47.2270   32.8370   48.2690 H   0  0  0  0  0  0  0  0  0  0  0  0
   46.9490   32.8000   45.4900 C   0  0  0  0  0  0  0  0  0  0  0  0
   45.8460   33.4650   46.0060 C   0  0  0  0  0  0  0  0  0  0  0  0
   45.1660   34.4130   45.2070 C   0  0  0  0  0  0  0  0  0  0  0  0
   45.6730   34.6170   43.9220 N   0  0  0  0  0  0  0  0  0  0  0  0
   46.7400   33.9440   43.4890 C   0  0  0  0  0  0  0  0  0  0  0  0
   47.3690   33.0510   44.2560 N   0  0  0  0  0  0  0  0  0  0  0  0
   45.3270   33.4920   46.9380 H   0  0  0  0  0  0  0  0  0  0  0  0
   44.3140   35.0070   45.4340 H   0  0  0  0  0  0  0  0  0  0  0  0
   47.2300   34.2210   42.1350 C   0  0  0  0  0  0  0  0  0  0  0  0
   48.2300   35.1390   41.9140 C   0  0  0  0  0  0  0  0  0  0  0  0
   48.7540   35.4650   40.6880 C   0  0  0  0  0  0  0  0  0  0  0  0
   48.1890   34.7800   39.6360 C   0  0  0  0  0  0  0  0  0  0  0  0
   47.1730   33.8430   39.8270 C   0  0  0  0  0  0  0  0  0  0  0  0
   46.7010   33.5720   41.0850 N   0  0  0  0  0  0  0  0  0  0  0  0
   48.6380   35.6500   42.7990 H   0  0  0  0  0  0  0  0  0  0  0  0
   49.5320   36.1790   40.5200 H   0  0  0  0  0  0  0  0  0  0  0  0
   48.4950   34.9260   38.6010 H   0  0  0  0  0  0  0  0  0  0  0  0
   46.5600   33.1050   38.7100 C   0  0  0  0  0  0  0  0  0  0  0  0
   47.1260   33.5430   37.3690 C   0  0  0  0  0  0  0  0  0  0  0  0
   48.1300   33.0620   37.2530 H   0  0  0  0  0  0  0  0  0  0  0  0
   45.8140   31.3130   47.8480 N   0  0  0  0  0  0  0  0  0  0  0  0
   45.1450   30.7320   48.9400 C   0  0  0  0  0  0  0  0  0  0  0  0
   44.6210   31.4240   49.8860 O   0  0  0  0  0  0  0  0  0  0  0  0
   45.0830   29.3030   48.9120 N   0  0  0  0  0  0  0  0  0  0  0  0
   45.1560   31.2020   46.9870 H   0  0  0  0  0  0  0  0  0  0  0  0
   45.4020   28.7590   49.7580 H   0  0  0  0  0  0  0  0  0  0  0  0
   44.7530   28.6760   48.1450 H   0  0  0  0  0  0  0  0  0  0  0  0
  1  7  1  6  0  0  0
  1  6  1  0  0  0  0
  2  1  1  0  0  0  0
  2  3  1  0  0  0  0
  3  4  1  0  0  0  0
  4 12  1  0  0  0  0
  4  5  1  0  0  0  0
  4 13  1  0  0  0  0
  5 14  1  0  0  0  0
  6 37  1  0  0  0  0
  6 16  1  1  0  0  0
  6  5  1  0  0  0  0
  8  2  1  0  0  0  0
  9  2  1  0  0  0  0
 10  3  1  0  0  0  0
 11  3  1  0  0  0  0
 15  5  1  0  0  0  0
 17 18  1  0  0  0  0
 17  1  1  0  0  0  0
 18 23  1  0  0  0  0
 19 24  1  0  0  0  0
 19 18  2  0  0  0  0
 20 19  1  0  0  0  0
 21 20  2  0  0  0  0
 21 22  1  0  0  0  0
 22 17  2  0  0  0  0
 25 21  1  0  0  0  0
 26 25  1  0  0  0  0
 26 31  1  0  0  0  0
 27 26  2  0  0  0  0
 28 29  2  0  0  0  0
 28 27  1  0  0  0  0
 29 30  1  0  0  0  0
 30 25  2  0  0  0  0
 32 27  1  0  0  0  0
 33 28  1  0  0  0  0
 34 29  1  0  0  0  0
 35 34  1  0  0  0  0
 36 35  1  0  0  0  0
 37 38  1  0  0  0  0
 38 39  2  0  0  0  0
 40 38  1  0  0  0  0
 40 42  1  0  0  0  0
 41 37  1  0  0  0  0
 43 40  1  0  0  0  0
M  END
>  <minimizedAffinity>
-6.0053997

>  <minimizedRMSD>
0.15894635

$$$$
