
 OpenBabel03252501463D

 17 17  0  0  0  0  0  0  0  0999 V2000
   38.1120   29.2350   41.9190 C   0  0  0  0  0  0  0  0  0  0  0  0
   37.0010   28.4240   41.7140 C   0  0  0  0  0  0  0  0  0  0  0  0
   35.9230   28.9480   40.9990 C   0  0  0  0  0  0  0  0  0  0  0  0
   35.9950   30.2290   40.5280 N   0  0  0  0  0  0  0  0  0  0  0  0
   37.0970   30.9900   40.7490 C   0  0  0  0  0  0  0  0  0  0  0  0
   38.1410   30.4910   41.4390 N   0  0  0  0  0  0  0  0  0  0  0  0
   38.9460   28.8270   42.4740 H   0  0  0  0  0  0  0  0  0  0  0  0
   35.0270   28.3640   40.8060 H   0  0  0  0  0  0  0  0  0  0  0  0
   36.8920   27.0650   42.1980 C   0  0  0  0  0  3  0  0  0  0  0  0
   37.0970   25.9620   41.4870 C   0  0  0  0  0  3  0  0  0  0  0  0
   36.9480   24.6000   42.1230 C   0  0  0  0  0  0  0  0  0  0  0  0
   37.9110   24.1080   42.2650 H   0  0  0  0  0  0  0  0  0  0  0  0
   36.4170   24.7570   43.1040 H   0  0  0  0  0  0  0  0  0  0  0  0
   36.2230   24.0510   41.4850 H   0  0  0  0  0  0  0  0  0  0  0  0
   37.2220   32.3770   40.2610 C   0  0  0  0  0  2  0  0  0  0  0  0
   37.2550   32.4760   38.7600 C   0  0  0  0  0  2  0  0  0  0  0  0
   38.1880   32.0120   38.3840 H   0  0  0  0  0  0  0  0  0  0  0  0
  1  7  1  0  0  0  0
  2  1  1  0  0  0  0
  2  9  1  0  0  0  0
  3  2  2  0  0  0  0
  4  5  2  0  0  0  0
  4  3  1  0  0  0  0
  5  6  1  0  0  0  0
  6  1  2  0  0  0  0
  8  3  1  0  0  0  0
 10 11  1  0  0  0  0
 10  9  2  0  0  0  0
 11 12  1  0  0  0  0
 11 13  1  0  0  0  0
 14 11  1  0  0  0  0
 15  5  1  0  0  0  0
 16 15  1  0  0  0  0
 17 16  1  0  0  0  0
M  END
>  <minimizedAffinity>
-3.71494246

$$$$

 OpenBabel03252501463D

 17 17  0  0  0  0  0  0  0  0999 V2000
   35.7860   29.5120   40.7590 C   0  0  0  0  0  0  0  0  0  0  0  0
   36.7810   30.4740   40.8960 C   0  0  0  0  0  0  0  0  0  0  0  0
   37.8700   30.1860   41.7210 C   0  0  0  0  0  0  0  0  0  0  0  0
   37.9210   28.9780   42.3600 N   0  0  0  0  0  0  0  0  0  0  0  0
   36.9300   28.0660   42.2000 C   0  0  0  0  0  0  0  0  0  0  0  0
   35.8760   28.3360   41.4070 N   0  0  0  0  0  0  0  0  0  0  0  0
   34.9440   29.7380   40.1200 H   0  0  0  0  0  0  0  0  0  0  0  0
   38.6790   30.8960   41.8680 H   0  0  0  0  0  0  0  0  0  0  0  0
   36.7580   31.7600   40.2350 C   0  0  0  0  0  3  0  0  0  0  0  0
   37.6960   32.6980   40.3130 C   0  0  0  0  0  3  0  0  0  0  0  0
   37.5420   34.0010   39.5660 C   0  0  0  0  0  0  0  0  0  0  0  0
   38.2250   34.0700   38.7190 H   0  0  0  0  0  0  0  0  0  0  0  0
   36.4660   34.0590   39.2330 H   0  0  0  0  0  0  0  0  0  0  0  0
   37.6520   34.7990   40.3310 H   0  0  0  0  0  0  0  0  0  0  0  0
   36.9410   26.7490   42.8680 C   0  0  0  0  0  2  0  0  0  0  0  0
   37.1970   25.6080   41.9230 C   0  0  0  0  0  2  0  0  0  0  0  0
   36.3400   25.5090   41.2280 H   0  0  0  0  0  0  0  0  0  0  0  0
  1  2  2  0  0  0  0
  1  6  1  0  0  0  0
  2  3  1  0  0  0  0
  3  8  1  0  0  0  0
  3  4  2  0  0  0  0
  5  4  1  0  0  0  0
  5 15  1  0  0  0  0
  6  5  2  0  0  0  0
  7  1  1  0  0  0  0
  9 10  2  0  0  0  0
  9  2  1  0  0  0  0
 11 10  1  0  0  0  0
 11 14  1  0  0  0  0
 12 11  1  0  0  0  0
 13 11  1  0  0  0  0
 16 15  1  0  0  0  0
 17 16  1  0  0  0  0
M  END
>  <minimizedAffinity>
-3.69458842

$$$$

 OpenBabel03252501463D

 17 17  0  0  0  0  0  0  0  0999 V2000
   38.8420   30.8030   41.6900 C   0  0  0  0  0  0  0  0  0  0  0  0
   37.5600   30.3450   41.4060 C   0  0  0  0  0  0  0  0  0  0  0  0
   36.7070   31.1750   40.6760 C   0  0  0  0  0  0  0  0  0  0  0  0
   37.1580   32.4000   40.2680 N   0  0  0  0  0  0  0  0  0  0  0  0
   38.4170   32.8110   40.5660 C   0  0  0  0  0  0  0  0  0  0  0  0
   39.2450   32.0150   41.2700 N   0  0  0  0  0  0  0  0  0  0  0  0
   39.4990   30.1570   42.2560 H   0  0  0  0  0  0  0  0  0  0  0  0
   35.6950   30.8740   40.4220 H   0  0  0  0  0  0  0  0  0  0  0  0
   37.0510   29.0560   41.8210 C   0  0  0  0  0  3  0  0  0  0  0  0
   37.2250   28.4910   43.0110 C   0  0  0  0  0  3  0  0  0  0  0  0
   36.6350   27.1340   43.3100 C   0  0  0  0  0  0  0  0  0  0  0  0
   35.7930   27.1980   44.0010 H   0  0  0  0  0  0  0  0  0  0  0  0
   36.3240   26.6910   42.3220 H   0  0  0  0  0  0  0  0  0  0  0  0
   37.4860   26.5080   43.6550 H   0  0  0  0  0  0  0  0  0  0  0  0
   38.9490   34.1230   40.1480 C   0  0  0  0  0  2  0  0  0  0  0  0
   40.4520   34.1610   40.0900 C   0  0  0  0  0  2  0  0  0  0  0  0
   40.8600   34.0600   41.1150 H   0  0  0  0  0  0  0  0  0  0  0  0
  1  7  1  0  0  0  0
  2  1  1  0  0  0  0
  2  9  1  0  0  0  0
  3  2  2  0  0  0  0
  4  5  2  0  0  0  0
  4  3  1  0  0  0  0
  5  6  1  0  0  0  0
  6  1  2  0  0  0  0
  8  3  1  0  0  0  0
  9 10  2  0  0  0  0
 10 11  1  0  0  0  0
 11 14  1  0  0  0  0
 11 12  1  0  0  0  0
 13 11  1  0  0  0  0
 15  5  1  0  0  0  0
 16 15  1  0  0  0  0
 16 17  1  0  0  0  0
M  END
>  <minimizedAffinity>
-3.58619022

$$$$

 OpenBabel03252501463D

 17 17  0  0  0  0  0  0  0  0999 V2000
   37.3310   29.6940   42.1550 C   0  0  0  0  0  0  0  0  0  0  0  0
   36.7050   29.9840   40.9480 C   0  0  0  0  0  0  0  0  0  0  0  0
   36.1910   28.9230   40.1990 C   0  0  0  0  0  0  0  0  0  0  0  0
   36.3190   27.6480   40.6740 N   0  0  0  0  0  0  0  0  0  0  0  0
   36.9380   27.4070   41.8580 C   0  0  0  0  0  0  0  0  0  0  0  0
   37.4370   28.4240   42.5860 N   0  0  0  0  0  0  0  0  0  0  0  0
   37.7290   30.5180   42.7330 H   0  0  0  0  0  0  0  0  0  0  0  0
   35.6900   29.0850   39.2480 H   0  0  0  0  0  0  0  0  0  0  0  0
   36.5510   31.3200   40.4160 C   0  0  0  0  0  3  0  0  0  0  0  0
   37.5340   32.1370   40.0540 C   0  0  0  0  0  3  0  0  0  0  0  0
   37.2290   33.5120   39.5110 C   0  0  0  0  0  0  0  0  0  0  0  0
   37.4250   33.5820   38.4410 H   0  0  0  0  0  0  0  0  0  0  0  0
   36.1460   33.7200   39.7460 H   0  0  0  0  0  0  0  0  0  0  0  0
   37.8040   34.2180   40.1470 H   0  0  0  0  0  0  0  0  0  0  0  0
   37.1010   26.0480   42.4120 C   0  0  0  0  0  2  0  0  0  0  0  0
   36.8620   24.9630   41.3980 C   0  0  0  0  0  2  0  0  0  0  0  0
   35.7950   24.9670   41.1030 H   0  0  0  0  0  0  0  0  0  0  0  0
  1  6  1  0  0  0  0
  1  7  1  0  0  0  0
  2  1  2  0  0  0  0
  3  4  2  0  0  0  0
  3  2  1  0  0  0  0
  4  5  1  0  0  0  0
  5 15  1  0  0  0  0
  5  6  2  0  0  0  0
  8  3  1  0  0  0  0
  9  2  1  0  0  0  0
 10  9  2  0  0  0  0
 11 13  1  0  0  0  0
 11 10  1  0  0  0  0
 11 14  1  0  0  0  0
 12 11  1  0  0  0  0
 16 15  1  0  0  0  0
 17 16  1  0  0  0  0
M  END
>  <minimizedAffinity>
-3.55835891

$$$$

 OpenBabel03252501463D

 17 17  0  0  0  0  0  0  0  0999 V2000
   36.1490   30.5610   40.6050 C   0  0  0  0  0  0  0  0  0  0  0  0
   35.5380   29.3410   40.3360 C   0  0  0  0  0  0  0  0  0  0  0  0
   36.0360   28.1990   40.9660 C   0  0  0  0  0  0  0  0  0  0  0  0
   37.0990   28.3180   41.8180 N   0  0  0  0  0  0  0  0  0  0  0  0
   37.6690   29.5270   42.0530 C   0  0  0  0  0  0  0  0  0  0  0  0
   37.1930   30.6330   41.4490 N   0  0  0  0  0  0  0  0  0  0  0  0
   35.7600   31.4430   40.1150 H   0  0  0  0  0  0  0  0  0  0  0  0
   35.6020   27.2170   40.7970 H   0  0  0  0  0  0  0  0  0  0  0  0
   34.4120   29.1800   39.4420 C   0  0  0  0  0  3  0  0  0  0  0  0
   34.4770   28.9650   38.1320 C   0  0  0  0  0  3  0  0  0  0  0  0
   33.2160   28.8150   37.3160 C   0  0  0  0  0  0  0  0  0  0  0  0
   33.0610   27.7860   36.9890 H   0  0  0  0  0  0  0  0  0  0  0  0
   32.3660   29.1740   37.9640 H   0  0  0  0  0  0  0  0  0  0  0  0
   33.2960   29.5660   36.5010 H   0  0  0  0  0  0  0  0  0  0  0  0
   38.8160   29.7060   42.9640 C   0  0  0  0  0  2  0  0  0  0  0  0
   39.7170   30.8440   42.5650 C   0  0  0  0  0  2  0  0  0  0  0  0
   40.2160   30.5970   41.6080 H   0  0  0  0  0  0  0  0  0  0  0  0
  1  6  1  0  0  0  0
  2  1  2  0  0  0  0
  2  3  1  0  0  0  0
  3  4  2  0  0  0  0
  4  5  1  0  0  0  0
  5 15  1  0  0  0  0
  6  5  2  0  0  0  0
  7  1  1  0  0  0  0
  8  3  1  0  0  0  0
  9  2  1  0  0  0  0
 10  9  2  0  0  0  0
 11 13  1  0  0  0  0
 11 10  1  0  0  0  0
 12 11  1  0  0  0  0
 14 11  1  0  0  0  0
 16 15  1  0  0  0  0
 17 16  1  0  0  0  0
M  END
>  <minimizedAffinity>
-3.55276799

$$$$

 OpenBabel03252501463D

 17 17  0  0  0  0  0  0  0  0999 V2000
   36.1620   28.0210   40.7840 C   0  0  0  0  0  0  0  0  0  0  0  0
   35.5340   29.1840   40.3530 C   0  0  0  0  0  0  0  0  0  0  0  0
   36.0190   30.4090   40.8170 C   0  0  0  0  0  0  0  0  0  0  0  0
   37.0860   30.4220   41.6720 N   0  0  0  0  0  0  0  0  0  0  0  0
   37.6720   29.2640   42.0700 C   0  0  0  0  0  0  0  0  0  0  0  0
   37.2090   28.0790   41.6260 N   0  0  0  0  0  0  0  0  0  0  0  0
   35.7840   27.0740   40.4230 H   0  0  0  0  0  0  0  0  0  0  0  0
   35.5710   31.3520   40.5170 H   0  0  0  0  0  0  0  0  0  0  0  0
   34.4040   29.2060   39.4500 C   0  0  0  0  0  3  0  0  0  0  0  0
   34.4120   28.8320   38.1750 C   0  0  0  0  0  3  0  0  0  0  0  0
   33.1530   28.9080   37.3450 C   0  0  0  0  0  0  0  0  0  0  0  0
   32.7450   27.9190   37.1310 H   0  0  0  0  0  0  0  0  0  0  0  0
   32.4210   29.5390   37.9230 H   0  0  0  0  0  0  0  0  0  0  0  0
   33.4200   29.5150   36.4540 H   0  0  0  0  0  0  0  0  0  0  0  0
   38.8250   29.2270   42.9900 C   0  0  0  0  0  2  0  0  0  0  0  0
   39.3290   27.8340   43.2520 C   0  0  0  0  0  2  0  0  0  0  0  0
   38.5620   27.2680   43.8170 H   0  0  0  0  0  0  0  0  0  0  0  0
  1  6  1  0  0  0  0
  2  1  2  0  0  0  0
  2  3  1  0  0  0  0
  3  4  2  0  0  0  0
  4  5  1  0  0  0  0
  5 15  1  0  0  0  0
  6  5  2  0  0  0  0
  7  1  1  0  0  0  0
  8  3  1  0  0  0  0
  9  2  1  0  0  0  0
 10  9  2  0  0  0  0
 11 13  1  0  0  0  0
 11 10  1  0  0  0  0
 12 11  1  0  0  0  0
 14 11  1  0  0  0  0
 15 16  1  0  0  0  0
 16 17  1  0  0  0  0
M  END
>  <minimizedAffinity>
-3.55187368

$$$$

 OpenBabel03252501463D

 17 17  0  0  0  0  0  0  0  0999 V2000
   36.5750   28.3140   40.1080 C   0  0  0  0  0  0  0  0  0  0  0  0
   36.8350   29.3700   40.9750 C   0  0  0  0  0  0  0  0  0  0  0  0
   37.2160   29.0720   42.2850 C   0  0  0  0  0  0  0  0  0  0  0  0
   37.3190   27.7640   42.6670 N   0  0  0  0  0  0  0  0  0  0  0  0
   37.0560   26.7610   41.7910 C   0  0  0  0  0  0  0  0  0  0  0  0
   36.6880   27.0410   40.5260 N   0  0  0  0  0  0  0  0  0  0  0  0
   36.2800   28.5480   39.0940 H   0  0  0  0  0  0  0  0  0  0  0  0
   37.4330   29.8530   43.0080 H   0  0  0  0  0  0  0  0  0  0  0  0
   36.7360   30.7650   40.6030 C   0  0  0  0  0  3  0  0  0  0  0  0
   37.2980   31.3340   39.5430 C   0  0  0  0  0  3  0  0  0  0  0  0
   37.1100   32.8080   39.2740 C   0  0  0  0  0  0  0  0  0  0  0  0
   36.4550   32.9880   38.4210 H   0  0  0  0  0  0  0  0  0  0  0  0
   36.6900   33.2590   40.2180 H   0  0  0  0  0  0  0  0  0  0  0  0
   38.1350   33.2280   39.1830 H   0  0  0  0  0  0  0  0  0  0  0  0
   37.1540   25.3340   42.1570 C   0  0  0  0  0  2  0  0  0  0  0  0
   36.6190   24.4120   41.0940 C   0  0  0  0  0  2  0  0  0  0  0  0
   35.5250   24.5550   41.0040 H   0  0  0  0  0  0  0  0  0  0  0  0
  1  6  2  0  0  0  0
  1  2  1  0  0  0  0
  2  3  2  0  0  0  0
  3  4  1  0  0  0  0
  3  8  1  0  0  0  0
  5 15  1  0  0  0  0
  5  4  2  0  0  0  0
  6  5  1  0  0  0  0
  7  1  1  0  0  0  0
  9  2  1  0  0  0  0
 10  9  2  0  0  0  0
 11 10  1  0  0  0  0
 11 13  1  0  0  0  0
 12 11  1  0  0  0  0
 14 11  1  0  0  0  0
 16 15  1  0  0  0  0
 17 16  1  0  0  0  0
M  END
>  <minimizedAffinity>
-3.40685654

$$$$

 OpenBabel03252501463D

 17 17  0  0  0  0  0  0  0  0999 V2000
   37.6860   26.9050   40.7960 C   0  0  0  0  0  0  0  0  0  0  0  0
   36.8160   27.8710   41.2900 C   0  0  0  0  0  0  0  0  0  0  0  0
   36.9370   28.2490   42.6290 C   0  0  0  0  0  0  0  0  0  0  0  0
   37.8990   27.6610   43.4020 N   0  0  0  0  0  0  0  0  0  0  0  0
   38.7300   26.7210   42.8830 C   0  0  0  0  0  0  0  0  0  0  0  0
   38.6190   26.3520   41.5930 N   0  0  0  0  0  0  0  0  0  0  0  0
   37.5890   26.6150   39.7590 H   0  0  0  0  0  0  0  0  0  0  0  0
   36.2870   28.9970   43.0730 H   0  0  0  0  0  0  0  0  0  0  0  0
   35.7870   28.5130   40.5000 C   0  0  0  0  0  3  0  0  0  0  0  0
   35.5100   28.2640   39.2250 C   0  0  0  0  0  3  0  0  0  0  0  0
   34.4030   29.0110   38.5210 C   0  0  0  0  0  0  0  0  0  0  0  0
   33.5360   28.3770   38.3330 H   0  0  0  0  0  0  0  0  0  0  0  0
   34.1370   29.8890   39.1760 H   0  0  0  0  0  0  0  0  0  0  0  0
   34.8720   29.4560   37.6170 H   0  0  0  0  0  0  0  0  0  0  0  0
   39.7830   26.0600   43.6770 C   0  0  0  0  0  2  0  0  0  0  0  0
   40.1390   24.6910   43.1650 C   0  0  0  0  0  2  0  0  0  0  0  0
   39.2770   24.0110   43.3100 H   0  0  0  0  0  0  0  0  0  0  0  0
  1  2  2  0  0  0  0
  1  6  1  0  0  0  0
  2  3  1  0  0  0  0
  3  8  1  0  0  0  0
  3  4  2  0  0  0  0
  5  4  1  0  0  0  0
  5 15  1  0  0  0  0
  6  5  2  0  0  0  0
  7  1  1  0  0  0  0
  9  2  1  0  0  0  0
 10  9  2  0  0  0  0
 11 13  1  0  0  0  0
 11 10  1  0  0  0  0
 12 11  1  0  0  0  0
 14 11  1  0  0  0  0
 16 17  1  0  0  0  0
 16 15  1  0  0  0  0
M  END
>  <minimizedAffinity>
-3.32469702

$$$$

 OpenBabel03252501463D

 17 17  0  0  0  0  0  0  0  0999 V2000
   35.8140   30.2780   40.5380 C   0  0  0  0  0  0  0  0  0  0  0  0
   36.7410   31.0450   39.8390 C   0  0  0  0  0  0  0  0  0  0  0  0
   36.8510   30.8560   38.4600 C   0  0  0  0  0  0  0  0  0  0  0  0
   36.0520   29.9300   37.8490 N   0  0  0  0  0  0  0  0  0  0  0  0
   35.1600   29.2010   38.5660 C   0  0  0  0  0  0  0  0  0  0  0  0
   35.0480   29.3780   39.8960 N   0  0  0  0  0  0  0  0  0  0  0  0
   35.7320   30.4270   41.6050 H   0  0  0  0  0  0  0  0  0  0  0  0
   37.5560   31.4240   37.8600 H   0  0  0  0  0  0  0  0  0  0  0  0
   37.6010   32.0320   40.4550 C   0  0  0  0  0  3  0  0  0  0  0  0
   37.9090   33.2240   39.9550 C   0  0  0  0  0  3  0  0  0  0  0  0
   38.8240   34.1590   40.7090 C   0  0  0  0  0  0  0  0  0  0  0  0
   38.2850   35.0090   41.1260 H   0  0  0  0  0  0  0  0  0  0  0  0
   39.3190   33.5470   41.5160 H   0  0  0  0  0  0  0  0  0  0  0  0
   39.6400   34.4150   39.9980 H   0  0  0  0  0  0  0  0  0  0  0  0
   34.2760   28.1910   37.9510 C   0  0  0  0  0  2  0  0  0  0  0  0
   33.1500   28.7960   37.1560 C   0  0  0  0  0  2  0  0  0  0  0  0
   32.4590   29.3220   37.8440 H   0  0  0  0  0  0  0  0  0  0  0  0
  1  7  1  0  0  0  0
  2  9  1  0  0  0  0
  2  1  2  0  0  0  0
  3  2  1  0  0  0  0
  4  3  2  0  0  0  0
  4  5  1  0  0  0  0
  5  6  2  0  0  0  0
  6  1  1  0  0  0  0
  8  3  1  0  0  0  0
 10  9  2  0  0  0  0
 10 11  1  0  0  0  0
 11 12  1  0  0  0  0
 11 13  1  0  0  0  0
 14 11  1  0  0  0  0
 15  5  1  0  0  0  0
 16 17  1  0  0  0  0
 16 15  1  0  0  0  0
M  END
>  <minimizedAffinity>
-3.30374837

$$$$
