
     RDKit          3D

 25 26  0  0  0  0  0  0  0  0999 V2000
   44.6233   35.4613   45.1305 C   0  0  0  0  0  0  0  0  0  0  0  0
   45.0995   35.7131   43.8048 C   0  0  0  0  0  0  0  0  0  0  0  0
   46.0428   34.8253   43.3621 C   0  0  0  0  0  0  0  0  0  0  0  0
   46.4986   33.7682   44.1461 N   0  0  0  0  0  0  0  0  0  0  0  0
   46.0107   33.5930   45.3763 C   0  0  0  0  0  0  0  0  0  0  0  0
   45.0703   34.4391   45.8729 N   0  0  0  0  0  0  0  0  0  0  0  0
   46.5327   34.9620   41.9392 C   0  0  1  0  0  0  0  0  0  0  0  0
   48.0505   35.2891   41.9260 C   0  0  0  0  0  0  0  0  0  0  0  0
   47.3961   33.9728   41.4073 C   0  0  2  0  0  0  0  0  0  0  0  0
   44.6584   36.8169   43.0228 N   0  0  0  0  0  0  0  0  0  0  0  0
   43.8743   36.1376   45.5230 H   0  0  0  0  0  0  0  0  0  0  0  0
   46.4546   32.7369   45.8650 H   0  0  0  0  0  0  0  0  0  0  0  0
   45.9465   35.6603   41.3142 H   0  0  0  0  0  0  0  0  0  0  0  0
   48.4177   35.9606   41.1368 H   0  0  0  0  0  0  0  0  0  0  0  0
   48.6203   35.2402   42.8478 H   0  0  0  0  0  0  0  0  0  0  0  0
   47.7719   33.0826   41.9520 H   0  0  0  0  0  0  0  0  0  0  0  0
   44.5917   37.7664   43.4931 H   0  0  0  0  0  0  0  0  0  0  0  0
   44.3980   36.7742   42.0385 H   0  0  0  0  0  0  0  0  0  0  0  0
   47.4068   33.7940   39.8948 C   0  0  0  0  0  0  0  0  0  0  0  0
   46.7494   34.9657   39.2323 C   0  0  0  0  0  0  0  0  0  0  0  0
   45.7428   34.6714   38.8885 H   0  0  0  0  0  0  0  0  0  0  0  0
   46.9349   32.8397   39.5842 H   0  0  0  0  0  0  0  0  0  0  0  0
   48.4667   33.7623   39.5547 H   0  0  0  0  0  0  0  0  0  0  0  0
   47.3075   35.3596   38.3604 H   0  0  0  0  0  0  0  0  0  0  0  0
   46.6455   35.8313   39.9319 H   0  0  0  0  0  0  0  0  0  0  0  0
  1  6  2  0
  2  1  1  0
  3  2  2  0
  3  4  1  0
  4  5  2  0
  5  6  1  0
  7  3  1  0
  8  7  1  0
  9  8  1  0
  9  7  1  0
 10  2  1  0
  1 11  1  0
  5 12  1  0
  7 13  1  6
  8 14  1  0
  8 15  1  0
  9 16  1  1
 10 17  1  0
 10 18  1  0
 19 20  1  0
 20 21  1  0
 19 22  1  0
 19 23  1  0
 20 24  1  0
 20 25  1  0
  9 19  1  0
M  ISO  7  11  14  12  14  13  13  14  13  15  13  16  13  21   8
M  END
>  <DihAtoms>  (1) 
7,8,18,19

>  <DihDeg>  (1) 
109.09266899677495

$$$$
