
 OpenBabel03242523353D

 31 33  0  0  0  0  0  0  0  0999 V2000
   38.0060   26.4840   42.7020 C   0  0  0  0  0  0  0  0  0  0  0  0
   39.1680   25.7800   42.9160 C   0  0  0  0  0  0  0  0  0  0  0  0
   39.3310   24.5780   42.2600 C   0  0  0  0  0  0  0  0  0  0  0  0
   38.3690   24.0660   41.4050 C   0  0  0  0  0  0  0  0  0  0  0  0
   38.5650   22.8970   40.7880 N   0  0  0  0  0  0  0  0  0  0  0  0
   37.6230   22.3860   39.9440 C   0  0  0  0  0  0  0  0  0  0  0  0
   36.4620   23.0850   39.7260 C   0  0  0  0  0  0  0  0  0  0  0  0
   36.2630   24.2910   40.3660 C   0  0  0  0  0  0  0  0  0  0  0  0
   37.2220   24.8320   41.2370 C   0  0  0  0  0  0  0  0  0  0  0  0
   37.0110   26.0380   41.8690 C   0  0  0  0  0  0  0  0  0  0  0  0
   39.9940   26.0530   43.5480 H   0  0  0  0  0  0  0  0  0  0  0  0
   40.2290   23.9680   42.3840 H   0  0  0  0  0  0  0  0  0  0  0  0
   37.7320   21.4480   39.4220 H   0  0  0  0  0  0  0  0  0  0  0  0
   35.6360   22.8000   39.0870 H   0  0  0  0  0  0  0  0  0  0  0  0
   35.3780   24.9000   40.2480 H   0  0  0  0  0  0  0  0  0  0  0  0
   36.1080   26.6040   41.7140 H   0  0  0  0  0  0  0  0  0  0  0  0
   37.8210   28.0320   43.5600 S   0  0  0  0  0  0  0  0  0  0  0  0
   38.9110   29.2890   42.8730 C   0  0  0  0  0  0  0  0  0  0  0  0
   39.7730   28.9170   42.3250 H   0  0  0  0  0  0  0  0  0  0  0  0
   39.3130   29.9490   43.6900 H   0  0  0  0  0  0  0  0  0  0  0  0
   36.1150   30.5790   40.7830 C   0  0  0  0  0  0  0  0  0  0  0  0
   36.7290   31.6410   40.1270 C   0  0  0  0  0  0  0  0  0  0  0  0
   38.0920   31.9100   40.4010 C   0  0  0  0  0  0  0  0  0  0  0  0
   38.7600   31.1310   41.2900 N   0  0  0  0  0  0  0  0  0  0  0  0
   38.1050   30.0920   41.9130 C   0  0  0  0  0  0  0  0  0  0  0  0
   36.8070   29.8290   41.6580 N   0  0  0  0  0  0  0  0  0  0  0  0
   35.0680   30.4140   40.5380 H   0  0  0  0  0  0  0  0  0  0  0  0
   36.2600   32.2820   39.4250 H   0  0  0  0  0  0  0  0  0  0  0  0
   38.8860   32.9980   39.7900 C   0  0  0  0  0  2  0  0  0  0  0  0
   39.0960   34.1560   40.7020 C   0  0  0  0  0  2  0  0  0  0  0  0
   38.2340   34.8700   40.6690 H   0  0  0  0  0  0  0  0  0  0  0  0
  1  2  1  0  0  0  0
  1 17  1  0  0  0  0
  2 11  1  0  0  0  0
  3 12  1  0  0  0  0
  3  2  2  0  0  0  0
  4  3  1  0  0  0  0
  5  4  2  0  0  0  0
  6  5  1  0  0  0  0
  7  6  2  0  0  0  0
  7  8  1  0  0  0  0
  8  9  2  0  0  0  0
  9  4  1  0  0  0  0
  9 10  1  0  0  0  0
 10  1  2  0  0  0  0
 13  6  1  0  0  0  0
 14  7  1  0  0  0  0
 15  8  1  0  0  0  0
 16 10  1  0  0  0  0
 18 17  1  0  0  0  0
 18 20  1  0  0  0  0
 19 18  1  0  0  0  0
 21 26  1  0  0  0  0
 22 23  1  0  0  0  0
 22 21  2  0  0  0  0
 23 24  2  0  0  0  0
 24 25  1  0  0  0  0
 25 18  1  0  0  0  0
 26 25  2  0  0  0  0
 27 21  1  0  0  0  0
 28 22  1  0  0  0  0
 29 23  1  0  0  0  0
 29 30  1  0  0  0  0
 31 30  1  0  0  0  0
M  END
>  <minimizedAffinity>
-5.19921064

$$$$

 OpenBabel03242523353D

 31 33  0  0  0  0  0  0  0  0999 V2000
   37.5590   30.8410   39.4560 C   0  0  0  0  0  0  0  0  0  0  0  0
   36.9500   32.0660   39.6000 C   0  0  0  0  0  0  0  0  0  0  0  0
   37.7480   33.1650   39.8370 C   0  0  0  0  0  0  0  0  0  0  0  0
   39.1260   33.0710   39.9330 C   0  0  0  0  0  0  0  0  0  0  0  0
   39.8650   34.1610   40.1630 N   0  0  0  0  0  0  0  0  0  0  0  0
   41.2220   34.0780   40.2590 C   0  0  0  0  0  0  0  0  0  0  0  0
   41.8360   32.8580   40.1150 C   0  0  0  0  0  0  0  0  0  0  0  0
   41.0700   31.7350   39.8780 C   0  0  0  0  0  0  0  0  0  0  0  0
   39.6710   31.8030   39.7760 C   0  0  0  0  0  0  0  0  0  0  0  0
   38.9180   30.6740   39.5380 C   0  0  0  0  0  0  0  0  0  0  0  0
   35.8980   32.2850   39.5500 H   0  0  0  0  0  0  0  0  0  0  0  0
   37.3300   34.1670   39.9600 H   0  0  0  0  0  0  0  0  0  0  0  0
   41.8630   34.9260   40.4430 H   0  0  0  0  0  0  0  0  0  0  0  0
   42.8960   32.6480   40.1670 H   0  0  0  0  0  0  0  0  0  0  0  0
   41.4750   30.7410   39.7540 H   0  0  0  0  0  0  0  0  0  0  0  0
   39.3770   29.7060   39.4230 H   0  0  0  0  0  0  0  0  0  0  0  0
   36.5070   29.4380   39.1510 S   0  0  0  0  0  0  0  0  0  0  0  0
   35.6020   28.9710   40.6340 C   0  0  0  0  0  0  0  0  0  0  0  0
   34.8530   28.1930   40.5050 H   0  0  0  0  0  0  0  0  0  0  0  0
   35.0670   29.8610   41.0640 H   0  0  0  0  0  0  0  0  0  0  0  0
   38.1190   28.7340   43.3650 C   0  0  0  0  0  0  0  0  0  0  0  0
   38.4070   27.3730   43.3570 C   0  0  0  0  0  0  0  0  0  0  0  0
   37.7420   26.5450   42.4200 C   0  0  0  0  0  0  0  0  0  0  0  0
   36.8470   27.0960   41.5610 N   0  0  0  0  0  0  0  0  0  0  0  0
   36.5970   28.4490   41.6110 C   0  0  0  0  0  0  0  0  0  0  0  0
   37.2260   29.2450   42.4990 N   0  0  0  0  0  0  0  0  0  0  0  0
   38.6560   29.3260   44.1020 H   0  0  0  0  0  0  0  0  0  0  0  0
   39.0950   26.8880   44.0020 H   0  0  0  0  0  0  0  0  0  0  0  0
   37.9360   25.0850   42.2840 C   0  0  0  0  0  2  0  0  0  0  0  0
   36.8400   24.4140   41.5310 C   0  0  0  0  0  2  0  0  0  0  0  0
   35.9760   24.1600   42.1980 H   0  0  0  0  0  0  0  0  0  0  0  0
  1 10  2  0  0  0  0
  1  2  1  0  0  0  0
  2  3  2  0  0  0  0
  3  4  1  0  0  0  0
  3 12  1  0  0  0  0
  4  5  1  0  0  0  0
  5  6  2  0  0  0  0
  6 13  1  0  0  0  0
  7 14  1  0  0  0  0
  7  6  1  0  0  0  0
  8  7  2  0  0  0  0
  9  8  1  0  0  0  0
  9  4  2  0  0  0  0
 10  9  1  0  0  0  0
 11  2  1  0  0  0  0
 15  8  1  0  0  0  0
 16 10  1  0  0  0  0
 17  1  1  0  0  0  0
 17 18  1  0  0  0  0
 18 20  1  0  0  0  0
 18 25  1  0  0  0  0
 19 18  1  0  0  0  0
 21 27  1  0  0  0  0
 22 21  1  0  0  0  0
 22 28  1  0  0  0  0
 23 22  2  0  0  0  0
 24 25  2  0  0  0  0
 24 23  1  0  0  0  0
 25 26  1  0  0  0  0
 26 21  2  0  0  0  0
 29 23  1  0  0  0  0
 30 31  1  0  0  0  0
 30 29  1  0  0  0  0
M  END
>  <minimizedAffinity>
-5.13280153

$$$$

 OpenBabel03242523353D

 31 33  0  0  0  0  0  0  0  0999 V2000
   37.7560   29.3260   42.3930 C   0  0  0  0  0  0  0  0  0  0  0  0
   39.0140   29.7090   42.7960 C   0  0  0  0  0  0  0  0  0  0  0  0
   39.5470   30.8610   42.2580 C   0  0  0  0  0  0  0  0  0  0  0  0
   38.8600   31.6320   41.3360 C   0  0  0  0  0  0  0  0  0  0  0  0
   39.4120   32.7440   40.8380 N   0  0  0  0  0  0  0  0  0  0  0  0
   38.7430   33.5090   39.9300 C   0  0  0  0  0  0  0  0  0  0  0  0
   37.4870   33.1320   39.5240 C   0  0  0  0  0  0  0  0  0  0  0  0
   36.9210   31.9840   40.0390 C   0  0  0  0  0  0  0  0  0  0  0  0
   37.5960   31.1850   40.9760 C   0  0  0  0  0  0  0  0  0  0  0  0
   37.0190   30.0410   41.4830 C   0  0  0  0  0  0  0  0  0  0  0  0
   39.6580   29.2100   43.4990 H   0  0  0  0  0  0  0  0  0  0  0  0
   40.5400   31.2230   42.5350 H   0  0  0  0  0  0  0  0  0  0  0  0
   39.1430   34.4140   39.4980 H   0  0  0  0  0  0  0  0  0  0  0  0
   36.8470   33.6420   38.8140 H   0  0  0  0  0  0  0  0  0  0  0  0
   35.9390   31.6200   39.7710 H   0  0  0  0  0  0  0  0  0  0  0  0
   36.0350   29.7250   41.1800 H   0  0  0  0  0  0  0  0  0  0  0  0
   37.0910   27.8340   43.1010 S   0  0  0  0  0  0  0  0  0  0  0  0
   38.0940   26.4050   42.6660 C   0  0  0  0  0  0  0  0  0  0  0  0
   38.2510   25.6790   43.4590 H   0  0  0  0  0  0  0  0  0  0  0  0
   39.1160   26.7310   42.3260 H   0  0  0  0  0  0  0  0  0  0  0  0
   36.4500   23.7750   40.6110 C   0  0  0  0  0  0  0  0  0  0  0  0
   36.0930   24.4950   39.4760 C   0  0  0  0  0  0  0  0  0  0  0  0
   36.4150   25.8730   39.4180 C   0  0  0  0  0  0  0  0  0  0  0  0
   37.0590   26.4510   40.4630 N   0  0  0  0  0  0  0  0  0  0  0  0
   37.3900   25.6930   41.5640 C   0  0  0  0  0  0  0  0  0  0  0  0
   37.0870   24.3800   41.6270 N   0  0  0  0  0  0  0  0  0  0  0  0
   36.1800   22.7210   40.6060 H   0  0  0  0  0  0  0  0  0  0  0  0
   35.5900   24.0980   38.6300 H   0  0  0  0  0  0  0  0  0  0  0  0
   36.1060   26.7740   38.2870 C   0  0  0  0  0  2  0  0  0  0  0  0
   35.5550   28.0900   38.7170 C   0  0  0  0  0  2  0  0  0  0  0  0
   34.4480   28.0400   38.8810 H   0  0  0  0  0  0  0  0  0  0  0  0
  1  2  1  0  0  0  0
  1 17  1  0  0  0  0
  2 11  1  0  0  0  0
  3 12  1  0  0  0  0
  3  2  2  0  0  0  0
  4  3  1  0  0  0  0
  5  4  2  0  0  0  0
  6  5  1  0  0  0  0
  7  6  2  0  0  0  0
  7  8  1  0  0  0  0
  8  9  2  0  0  0  0
  9  4  1  0  0  0  0
  9 10  1  0  0  0  0
 10  1  2  0  0  0  0
 13  6  1  0  0  0  0
 14  7  1  0  0  0  0
 15  8  1  0  0  0  0
 16 10  1  0  0  0  0
 18 17  1  0  0  0  0
 18 19  1  0  0  0  0
 20 18  1  0  0  0  0
 21 26  1  0  0  0  0
 22 21  2  0  0  0  0
 23 22  1  0  0  0  0
 23 24  2  0  0  0  0
 24 25  1  0  0  0  0
 25 26  2  0  0  0  0
 25 18  1  0  0  0  0
 27 21  1  0  0  0  0
 28 22  1  0  0  0  0
 29 30  1  0  0  0  0
 29 23  1  0  0  0  0
 30 31  1  0  0  0  0
M  END
>  <minimizedAffinity>
-5.13082409

$$$$

 OpenBabel03242523353D

 31 33  0  0  0  0  0  0  0  0999 V2000
   38.0940   27.5060   42.5010 C   0  0  0  0  0  0  0  0  0  0  0  0
   39.1080   26.7870   43.0900 C   0  0  0  0  0  0  0  0  0  0  0  0
   39.2530   25.4610   42.7400 C   0  0  0  0  0  0  0  0  0  0  0  0
   38.4190   24.8420   41.8250 C   0  0  0  0  0  0  0  0  0  0  0  0
   38.5940   23.5550   41.5120 N   0  0  0  0  0  0  0  0  0  0  0  0
   37.7770   22.9370   40.6120 C   0  0  0  0  0  0  0  0  0  0  0  0
   36.7640   23.6500   40.0190 C   0  0  0  0  0  0  0  0  0  0  0  0
   36.5860   24.9790   40.3450 C   0  0  0  0  0  0  0  0  0  0  0  0
   37.4180   25.6300   41.2700 C   0  0  0  0  0  0  0  0  0  0  0  0
   37.2310   26.9580   41.5860 C   0  0  0  0  0  0  0  0  0  0  0  0
   39.8250   27.1350   43.8130 H   0  0  0  0  0  0  0  0  0  0  0  0
   40.0380   24.8320   43.1690 H   0  0  0  0  0  0  0  0  0  0  0  0
   37.8750   21.9020   40.3240 H   0  0  0  0  0  0  0  0  0  0  0  0
   36.0460   23.2900   39.2930 H   0  0  0  0  0  0  0  0  0  0  0  0
   35.8140   25.6080   39.9250 H   0  0  0  0  0  0  0  0  0  0  0  0
   36.4430   27.5370   41.1360 H   0  0  0  0  0  0  0  0  0  0  0  0
   37.9270   29.2150   42.9700 S   0  0  0  0  0  0  0  0  0  0  0  0
   39.1700   30.2340   42.1610 C   0  0  0  0  0  0  0  0  0  0  0  0
   39.9740   29.6950   41.6660 H   0  0  0  0  0  0  0  0  0  0  0  0
   39.6580   30.9220   42.9040 H   0  0  0  0  0  0  0  0  0  0  0  0
   37.9370   33.0440   40.0560 C   0  0  0  0  0  0  0  0  0  0  0  0
   37.1460   32.3700   39.1320 C   0  0  0  0  0  0  0  0  0  0  0  0
   37.0370   30.9610   39.2330 C   0  0  0  0  0  0  0  0  0  0  0  0
   37.7030   30.3100   40.2210 N   0  0  0  0  0  0  0  0  0  0  0  0
   38.4730   31.0250   41.1090 C   0  0  0  0  0  0  0  0  0  0  0  0
   38.5830   32.3670   41.0210 N   0  0  0  0  0  0  0  0  0  0  0  0
   37.9880   34.1240   39.9350 H   0  0  0  0  0  0  0  0  0  0  0  0
   36.6030   32.8230   38.3420 H   0  0  0  0  0  0  0  0  0  0  0  0
   36.2380   30.1010   38.3330 C   0  0  0  0  0  2  0  0  0  0  0  0
   35.4110   29.0980   39.0600 C   0  0  0  0  0  2  0  0  0  0  0  0
   35.9980   28.1740   39.2980 H   0  0  0  0  0  0  0  0  0  0  0  0
  1 17  1  0  0  0  0
  1  2  1  0  0  0  0
  2 11  1  0  0  0  0
  3  2  2  0  0  0  0
  3 12  1  0  0  0  0
  4  3  1  0  0  0  0
  5  4  1  0  0  0  0
  6  5  2  0  0  0  0
  7  8  2  0  0  0  0
  7  6  1  0  0  0  0
  8  9  1  0  0  0  0
  9 10  1  0  0  0  0
  9  4  2  0  0  0  0
 10  1  2  0  0  0  0
 13  6  1  0  0  0  0
 14  7  1  0  0  0  0
 15  8  1  0  0  0  0
 16 10  1  0  0  0  0
 18 20  1  0  0  0  0
 18 17  1  0  0  0  0
 19 18  1  0  0  0  0
 21 26  1  0  0  0  0
 22 23  1  0  0  0  0
 22 21  2  0  0  0  0
 23 24  2  0  0  0  0
 24 25  1  0  0  0  0
 25 18  1  0  0  0  0
 26 25  2  0  0  0  0
 27 21  1  0  0  0  0
 28 22  1  0  0  0  0
 29 30  1  0  0  0  0
 29 23  1  0  0  0  0
 30 31  1  0  0  0  0
M  END
>  <minimizedAffinity>
-5.04581499

$$$$

 OpenBabel03242523353D

 31 33  0  0  0  0  0  0  0  0999 V2000
   37.1710   28.8220   41.7410 C   0  0  0  0  0  0  0  0  0  0  0  0
   38.0800   29.1990   42.7020 C   0  0  0  0  0  0  0  0  0  0  0  0
   38.8680   28.2220   43.2710 C   0  0  0  0  0  0  0  0  0  0  0  0
   38.7710   26.8890   42.9070 C   0  0  0  0  0  0  0  0  0  0  0  0
   39.5550   25.9710   43.4830 N   0  0  0  0  0  0  0  0  0  0  0  0
   39.4660   24.6570   43.1310 C   0  0  0  0  0  0  0  0  0  0  0  0
   38.5610   24.2750   42.1720 C   0  0  0  0  0  0  0  0  0  0  0  0
   37.7540   25.2250   41.5810 C   0  0  0  0  0  0  0  0  0  0  0  0
   37.8320   26.5820   41.9310 C   0  0  0  0  0  0  0  0  0  0  0  0
   37.0210   27.5210   41.3320 C   0  0  0  0  0  0  0  0  0  0  0  0
   38.2620   30.1900   43.0800 H   0  0  0  0  0  0  0  0  0  0  0  0
   39.6110   28.4520   44.0390 H   0  0  0  0  0  0  0  0  0  0  0  0
   40.0740   23.8790   43.5640 H   0  0  0  0  0  0  0  0  0  0  0  0
   38.3850   23.2740   41.7990 H   0  0  0  0  0  0  0  0  0  0  0  0
   37.0180   25.0050   40.8200 H   0  0  0  0  0  0  0  0  0  0  0  0
   36.3030   27.2450   40.5780 H   0  0  0  0  0  0  0  0  0  0  0  0
   36.1650   30.1020   41.0220 S   0  0  0  0  0  0  0  0  0  0  0  0
   36.8730   30.6930   39.4770 C   0  0  0  0  0  0  0  0  0  0  0  0
   36.1600   31.0310   38.7290 H   0  0  0  0  0  0  0  0  0  0  0  0
   37.4850   29.8850   38.9910 H   0  0  0  0  0  0  0  0  0  0  0  0
   38.1140   34.1610   40.0070 C   0  0  0  0  0  0  0  0  0  0  0  0
   39.4140   33.9250   40.4430 C   0  0  0  0  0  0  0  0  0  0  0  0
   39.8590   32.5850   40.5540 C   0  0  0  0  0  0  0  0  0  0  0  0
   39.0120   31.5730   40.2340 N   0  0  0  0  0  0  0  0  0  0  0  0
   37.7360   31.8610   39.8070 C   0  0  0  0  0  0  0  0  0  0  0  0
   37.3040   33.1340   39.6990 N   0  0  0  0  0  0  0  0  0  0  0  0
   37.8210   35.2060   39.9400 H   0  0  0  0  0  0  0  0  0  0  0  0
   40.1180   34.6730   40.7060 H   0  0  0  0  0  0  0  0  0  0  0  0
   41.2060   32.1680   41.0010 C   0  0  0  0  0  2  0  0  0  0  0  0
   41.2430   30.7780   41.5340 C   0  0  0  0  0  2  0  0  0  0  0  0
   40.9570   30.7430   42.6170 H   0  0  0  0  0  0  0  0  0  0  0  0
  1  2  1  0  0  0  0
  2 11  1  0  0  0  0
  2  3  2  0  0  0  0
  3 12  1  0  0  0  0
  4  3  1  0  0  0  0
  4  5  1  0  0  0  0
  6  5  2  0  0  0  0
  6 13  1  0  0  0  0
  7  6  1  0  0  0  0
  8  9  1  0  0  0  0
  8  7  2  0  0  0  0
  9  4  2  0  0  0  0
 10  1  2  0  0  0  0
 10  9  1  0  0  0  0
 14  7  1  0  0  0  0
 15  8  1  0  0  0  0
 16 10  1  0  0  0  0
 17  1  1  0  0  0  0
 18 25  1  0  0  0  0
 18 17  1  0  0  0  0
 19 18  1  0  0  0  0
 20 18  1  0  0  0  0
 21 22  1  0  0  0  0
 22 23  2  0  0  0  0
 22 28  1  0  0  0  0
 23 29  1  0  0  0  0
 24 23  1  0  0  0  0
 25 24  2  0  0  0  0
 26 25  1  0  0  0  0
 26 21  2  0  0  0  0
 27 21  1  0  0  0  0
 29 30  1  0  0  0  0
 30 31  1  0  0  0  0
M  END
>  <minimizedAffinity>
-5.02910566

$$$$

 OpenBabel03242523353D

 31 33  0  0  0  0  0  0  0  0999 V2000
   39.1820   29.1940   42.6240 C   0  0  0  0  0  0  0  0  0  0  0  0
   37.8110   29.2360   42.7230 C   0  0  0  0  0  0  0  0  0  0  0  0
   37.1160   28.0480   42.6380 C   0  0  0  0  0  0  0  0  0  0  0  0
   37.7510   26.8310   42.4570 C   0  0  0  0  0  0  0  0  0  0  0  0
   37.0410   25.7010   42.3790 N   0  0  0  0  0  0  0  0  0  0  0  0
   37.6580   24.4990   42.2010 C   0  0  0  0  0  0  0  0  0  0  0  0
   39.0270   24.4500   42.1020 C   0  0  0  0  0  0  0  0  0  0  0  0
   39.7570   25.6190   42.1820 C   0  0  0  0  0  0  0  0  0  0  0  0
   39.1370   26.8650   42.3650 C   0  0  0  0  0  0  0  0  0  0  0  0
   39.8780   28.0250   42.4440 C   0  0  0  0  0  0  0  0  0  0  0  0
   37.1900   30.1020   42.8630 H   0  0  0  0  0  0  0  0  0  0  0  0
   36.0260   28.0090   42.7090 H   0  0  0  0  0  0  0  0  0  0  0  0
   37.1320   23.5590   42.1330 H   0  0  0  0  0  0  0  0  0  0  0  0
   39.6430   23.5720   41.9610 H   0  0  0  0  0  0  0  0  0  0  0  0
   40.8340   25.6660   42.1130 H   0  0  0  0  0  0  0  0  0  0  0  0
   40.9510   28.0120   42.3690 H   0  0  0  0  0  0  0  0  0  0  0  0
   40.0560   30.7400   42.7370 S   0  0  0  0  0  0  0  0  0  0  0  0
   40.5660   31.3180   41.1110 C   0  0  0  0  0  0  0  0  0  0  0  0
   40.9330   30.5530   40.4320 H   0  0  0  0  0  0  0  0  0  0  0  0
   41.3860   32.0820   41.2040 H   0  0  0  0  0  0  0  0  0  0  0  0
   37.9720   33.7430   39.9960 C   0  0  0  0  0  0  0  0  0  0  0  0
   37.1450   32.9280   39.2300 C   0  0  0  0  0  0  0  0  0  0  0  0
   37.4760   31.5580   39.0990 C   0  0  0  0  0  0  0  0  0  0  0  0
   38.5840   31.0770   39.7190 N   0  0  0  0  0  0  0  0  0  0  0  0
   39.3700   31.9260   40.4650 C   0  0  0  0  0  0  0  0  0  0  0  0
   39.0620   33.2330   40.5960 N   0  0  0  0  0  0  0  0  0  0  0  0
   37.6750   34.7860   40.0650 H   0  0  0  0  0  0  0  0  0  0  0  0
   36.2690   33.2460   38.7240 H   0  0  0  0  0  0  0  0  0  0  0  0
   36.7020   30.5640   38.3230 C   0  0  0  0  0  2  0  0  0  0  0  0
   36.1480   29.4660   39.1630 C   0  0  0  0  0  2  0  0  0  0  0  0
   36.8970   28.6470   39.3200 H   0  0  0  0  0  0  0  0  0  0  0  0
  1  2  1  0  0  0  0
  1 17  1  0  0  0  0
  2 11  1  0  0  0  0
  3 12  1  0  0  0  0
  3  2  2  0  0  0  0
  4  3  1  0  0  0  0
  5  4  1  0  0  0  0
  6  5  2  0  0  0  0
  7  8  2  0  0  0  0
  7  6  1  0  0  0  0
  8  9  1  0  0  0  0
  9 10  1  0  0  0  0
  9  4  2  0  0  0  0
 10  1  2  0  0  0  0
 13  6  1  0  0  0  0
 14  7  1  0  0  0  0
 15  8  1  0  0  0  0
 16 10  1  0  0  0  0
 18 20  1  0  0  0  0
 18 17  1  0  0  0  0
 19 18  1  0  0  0  0
 21 27  1  0  0  0  0
 21 26  1  0  0  0  0
 22 21  2  0  0  0  0
 23 22  1  0  0  0  0
 23 24  2  0  0  0  0
 24 25  1  0  0  0  0
 25 26  2  0  0  0  0
 25 18  1  0  0  0  0
 28 22  1  0  0  0  0
 29 23  1  0  0  0  0
 29 30  1  0  0  0  0
 30 31  1  0  0  0  0
M  END
>  <minimizedAffinity>
-5.01819849

$$$$

 OpenBabel03242523353D

 31 33  0  0  0  0  0  0  0  0999 V2000
   36.8140   29.3520   41.1930 C   0  0  0  0  0  0  0  0  0  0  0  0
   37.2470   29.1350   42.4800 C   0  0  0  0  0  0  0  0  0  0  0  0
   37.4760   27.8360   42.8790 C   0  0  0  0  0  0  0  0  0  0  0  0
   37.2860   26.7580   42.0320 C   0  0  0  0  0  0  0  0  0  0  0  0
   37.5200   25.5120   42.4570 N   0  0  0  0  0  0  0  0  0  0  0  0
   37.3350   24.4450   41.6300 C   0  0  0  0  0  0  0  0  0  0  0  0
   36.9040   24.6540   40.3430 C   0  0  0  0  0  0  0  0  0  0  0  0
   36.6630   25.9410   39.9080 C   0  0  0  0  0  0  0  0  0  0  0  0
   36.8480   27.0520   40.7470 C   0  0  0  0  0  0  0  0  0  0  0  0
   36.6040   28.3320   40.2990 C   0  0  0  0  0  0  0  0  0  0  0  0
   37.4350   29.8720   43.2410 H   0  0  0  0  0  0  0  0  0  0  0  0
   37.8220   27.5930   43.8880 H   0  0  0  0  0  0  0  0  0  0  0  0
   37.5100   23.4210   41.9230 H   0  0  0  0  0  0  0  0  0  0  0  0
   36.7170   23.9060   39.5840 H   0  0  0  0  0  0  0  0  0  0  0  0
   36.3220   26.1900   38.9130 H   0  0  0  0  0  0  0  0  0  0  0  0
   36.2650   28.5210   39.2950 H   0  0  0  0  0  0  0  0  0  0  0  0
   36.5250   31.0380   40.7020 S   0  0  0  0  0  0  0  0  0  0  0  0
   37.1230   31.3390   39.0320 C   0  0  0  0  0  0  0  0  0  0  0  0
   36.4540   31.9010   38.3840 H   0  0  0  0  0  0  0  0  0  0  0  0
   37.3320   30.3670   38.5080 H   0  0  0  0  0  0  0  0  0  0  0  0
   39.7060   33.7530   40.1950 C   0  0  0  0  0  0  0  0  0  0  0  0
   40.7180   33.5420   39.2640 C   0  0  0  0  0  0  0  0  0  0  0  0
   40.5140   32.5790   38.2470 C   0  0  0  0  0  0  0  0  0  0  0  0
   39.3440   31.8910   38.2050 N   0  0  0  0  0  0  0  0  0  0  0  0
   38.3740   32.1370   39.1500 C   0  0  0  0  0  0  0  0  0  0  0  0
   38.5610   33.0530   40.1230 N   0  0  0  0  0  0  0  0  0  0  0  0
   39.9120   34.5020   40.9550 H   0  0  0  0  0  0  0  0  0  0  0  0
   41.6500   34.0480   39.2460 H   0  0  0  0  0  0  0  0  0  0  0  0
   41.4880   32.2390   37.1870 C   0  0  0  0  0  2  0  0  0  0  0  0
   41.8520   30.7940   37.1650 C   0  0  0  0  0  2  0  0  0  0  0  0
   42.6760   30.5650   37.8890 H   0  0  0  0  0  0  0  0  0  0  0  0
  1  2  1  0  0  0  0
  2  3  2  0  0  0  0
  2 11  1  0  0  0  0
  3 12  1  0  0  0  0
  4  5  1  0  0  0  0
  4  3  1  0  0  0  0
  6 13  1  0  0  0  0
  6  5  2  0  0  0  0
  7  6  1  0  0  0  0
  8  7  2  0  0  0  0
  8  9  1  0  0  0  0
  9  4  2  0  0  0  0
 10  9  1  0  0  0  0
 10  1  2  0  0  0  0
 14  7  1  0  0  0  0
 15  8  1  0  0  0  0
 16 10  1  0  0  0  0
 17  1  1  0  0  0  0
 18 25  1  0  0  0  0
 18 17  1  0  0  0  0
 19 18  1  0  0  0  0
 20 18  1  0  0  0  0
 21 27  1  0  0  0  0
 22 21  2  0  0  0  0
 23 22  1  0  0  0  0
 24 23  2  0  0  0  0
 24 25  1  0  0  0  0
 25 26  2  0  0  0  0
 26 21  1  0  0  0  0
 28 22  1  0  0  0  0
 29 23  1  0  0  0  0
 30 29  1  0  0  0  0
 30 31  1  0  0  0  0
M  END
>  <minimizedAffinity>
-4.96638727

$$$$

 OpenBabel03242523353D

 31 33  0  0  0  0  0  0  0  0999 V2000
   35.1170   29.1180   37.5360 C   0  0  0  0  0  0  0  0  0  0  0  0
   34.5790   28.8760   38.7790 C   0  0  0  0  0  0  0  0  0  0  0  0
   35.1280   29.5250   39.8640 C   0  0  0  0  0  0  0  0  0  0  0  0
   36.1930   30.4020   39.7390 C   0  0  0  0  0  0  0  0  0  0  0  0
   36.6970   31.0120   40.8170 N   0  0  0  0  0  0  0  0  0  0  0  0
   37.7440   31.8770   40.7030 C   0  0  0  0  0  0  0  0  0  0  0  0
   38.2850   32.1240   39.4660 C   0  0  0  0  0  0  0  0  0  0  0  0
   37.7630   31.4920   38.3560 C   0  0  0  0  0  0  0  0  0  0  0  0
   36.6840   30.5990   38.4550 C   0  0  0  0  0  0  0  0  0  0  0  0
   36.1710   29.9750   37.3390 C   0  0  0  0  0  0  0  0  0  0  0  0
   33.7590   28.2240   39.0220 H   0  0  0  0  0  0  0  0  0  0  0  0
   34.7490   29.3790   40.8780 H   0  0  0  0  0  0  0  0  0  0  0  0
   38.1870   32.3950   41.5400 H   0  0  0  0  0  0  0  0  0  0  0  0
   39.1120   32.7820   39.2320 H   0  0  0  0  0  0  0  0  0  0  0  0
   38.1310   31.6320   37.3500 H   0  0  0  0  0  0  0  0  0  0  0  0
   36.5790   30.1520   36.3580 H   0  0  0  0  0  0  0  0  0  0  0  0
   34.3900   28.2680   36.1520 S   0  0  0  0  0  0  0  0  0  0  0  0
   32.6070   28.1210   36.3440 C   0  0  0  0  0  0  0  0  0  0  0  0
   32.2550   27.9300   37.3550 H   0  0  0  0  0  0  0  0  0  0  0  0
   32.2100   27.2850   35.7050 H   0  0  0  0  0  0  0  0  0  0  0  0
   31.6390   31.1060   34.3440 C   0  0  0  0  0  0  0  0  0  0  0  0
   30.8620   31.8100   35.2580 C   0  0  0  0  0  0  0  0  0  0  0  0
   30.6740   31.2630   36.5510 C   0  0  0  0  0  0  0  0  0  0  0  0
   31.2520   30.0750   36.8630 N   0  0  0  0  0  0  0  0  0  0  0  0
   32.0110   29.4180   35.9200 C   0  0  0  0  0  0  0  0  0  0  0  0
   32.1950   29.9320   34.6870 N   0  0  0  0  0  0  0  0  0  0  0  0
   31.7520   31.5680   33.3660 H   0  0  0  0  0  0  0  0  0  0  0  0
   30.3880   32.7400   35.0730 H   0  0  0  0  0  0  0  0  0  0  0  0
   29.8810   31.8860   37.6330 C   0  0  0  0  0  2  0  0  0  0  0  0
   29.2130   30.8910   38.5190 C   0  0  0  0  0  2  0  0  0  0  0  0
   28.2320   30.5550   38.0960 H   0  0  0  0  0  0  0  0  0  0  0  0
  1  2  1  0  0  0  0
  2 11  1  0  0  0  0
  2  3  2  0  0  0  0
  3 12  1  0  0  0  0
  4  3  1  0  0  0  0
  4  5  1  0  0  0  0
  6  5  2  0  0  0  0
  6 13  1  0  0  0  0
  7  6  1  0  0  0  0
  8  9  1  0  0  0  0
  8  7  2  0  0  0  0
  9  4  2  0  0  0  0
 10  1  2  0  0  0  0
 10  9  1  0  0  0  0
 14  7  1  0  0  0  0
 15  8  1  0  0  0  0
 16 10  1  0  0  0  0
 17 18  1  0  0  0  0
 17  1  1  0  0  0  0
 18 19  1  0  0  0  0
 20 18  1  0  0  0  0
 21 26  2  0  0  0  0
 21 22  1  0  0  0  0
 22 23  2  0  0  0  0
 23 24  1  0  0  0  0
 23 29  1  0  0  0  0
 25 18  1  0  0  0  0
 25 24  2  0  0  0  0
 26 25  1  0  0  0  0
 27 21  1  0  0  0  0
 28 22  1  0  0  0  0
 29 30  1  0  0  0  0
 31 30  1  0  0  0  0
M  END
>  <minimizedAffinity>
-4.93353653

$$$$

 OpenBabel03242523353D

 31 33  0  0  0  0  0  0  0  0999 V2000
   36.5980   27.8550   41.0170 C   0  0  0  0  0  0  0  0  0  0  0  0
   36.6600   26.8170   40.1170 C   0  0  0  0  0  0  0  0  0  0  0  0
   37.5510   25.7940   40.3650 C   0  0  0  0  0  0  0  0  0  0  0  0
   38.3730   25.7830   41.4790 C   0  0  0  0  0  0  0  0  0  0  0  0
   39.2230   24.7720   41.6840 N   0  0  0  0  0  0  0  0  0  0  0  0
   40.0370   24.7530   42.7770 C   0  0  0  0  0  0  0  0  0  0  0  0
   39.9790   25.7870   43.6800 C   0  0  0  0  0  0  0  0  0  0  0  0
   39.1000   26.8290   43.4650 C   0  0  0  0  0  0  0  0  0  0  0  0
   38.2560   26.8640   42.3440 C   0  0  0  0  0  0  0  0  0  0  0  0
   37.3820   27.9110   42.1420 C   0  0  0  0  0  0  0  0  0  0  0  0
   36.0860   26.6950   39.2160 H   0  0  0  0  0  0  0  0  0  0  0  0
   37.6510   24.9380   39.6920 H   0  0  0  0  0  0  0  0  0  0  0  0
   40.7390   23.9620   42.9890 H   0  0  0  0  0  0  0  0  0  0  0  0
   40.5620   25.9000   44.5840 H   0  0  0  0  0  0  0  0  0  0  0  0
   38.9950   27.6780   44.1250 H   0  0  0  0  0  0  0  0  0  0  0  0
   37.3200   28.7320   42.8340 H   0  0  0  0  0  0  0  0  0  0  0  0
   35.4410   29.1640   40.6740 S   0  0  0  0  0  0  0  0  0  0  0  0
   36.1850   30.7780   40.9550 C   0  0  0  0  0  0  0  0  0  0  0  0
   36.8270   30.8570   41.8290 H   0  0  0  0  0  0  0  0  0  0  0  0
   35.3880   31.5630   41.0720 H   0  0  0  0  0  0  0  0  0  0  0  0
   38.8610   32.1290   38.7490 C   0  0  0  0  0  0  0  0  0  0  0  0
   38.5170   31.5680   37.5240 C   0  0  0  0  0  0  0  0  0  0  0  0
   37.3750   30.7330   37.4570 C   0  0  0  0  0  0  0  0  0  0  0  0
   36.6510   30.5030   38.5820 N   0  0  0  0  0  0  0  0  0  0  0  0
   37.0340   31.0820   39.7700 C   0  0  0  0  0  0  0  0  0  0  0  0
   38.1200   31.8790   39.8430 N   0  0  0  0  0  0  0  0  0  0  0  0
   39.7450   32.7620   38.7470 H   0  0  0  0  0  0  0  0  0  0  0  0
   39.0430   31.7110   36.6140 H   0  0  0  0  0  0  0  0  0  0  0  0
   36.8790   30.0640   36.2350 C   0  0  0  0  0  2  0  0  0  0  0  0
   36.9630   28.5780   36.3030 C   0  0  0  0  0  2  0  0  0  0  0  0
   37.9770   28.2070   36.0020 H   0  0  0  0  0  0  0  0  0  0  0  0
  1 10  1  0  0  0  0
  2  3  1  0  0  0  0
  2  1  2  0  0  0  0
  3  4  2  0  0  0  0
  4  5  1  0  0  0  0
  4  9  1  0  0  0  0
  5  6  2  0  0  0  0
  6 13  1  0  0  0  0
  6  7  1  0  0  0  0
  7 14  1  0  0  0  0
  8  7  2  0  0  0  0
  8 15  1  0  0  0  0
  9  8  1  0  0  0  0
 10  9  2  0  0  0  0
 10 16  1  0  0  0  0
 11  2  1  0  0  0  0
 12  3  1  0  0  0  0
 17 18  1  0  0  0  0
 17  1  1  0  0  0  0
 18 20  1  0  0  0  0
 18 19  1  0  0  0  0
 21 26  1  0  0  0  0
 22 21  2  0  0  0  0
 23 22  1  0  0  0  0
 23 24  2  0  0  0  0
 24 25  1  0  0  0  0
 25 26  2  0  0  0  0
 25 18  1  0  0  0  0
 27 21  1  0  0  0  0
 28 22  1  0  0  0  0
 29 30  1  0  0  0  0
 29 23  1  0  0  0  0
 31 30  1  0  0  0  0
M  END
>  <minimizedAffinity>
-4.91458654

$$$$
