
 OpenBabel03252508243D

 42 44  0  0  0  0  0  0  0  0999 V2000
   36.3710   30.3340   38.9300 C   0  0  0  0  0  0  0  0  0  0  0  0
   35.7400   29.3850   38.1520 C   0  0  0  0  0  0  0  0  0  0  0  0
   35.9220   29.2380   36.8030 C   0  0  0  0  0  0  0  0  0  0  0  0
   36.8230   30.1330   36.2080 C   0  0  0  0  0  0  0  0  0  0  0  0
   37.4770   31.0960   36.9310 C   0  0  0  0  0  0  0  0  0  0  0  0
   37.2640   31.2060   38.2740 C   0  0  0  0  0  0  0  0  0  0  0  0
   35.0460   28.6540   38.5350 H   0  0  0  0  0  0  0  0  0  0  0  0
   35.4580   28.5240   36.1720 H   0  0  0  0  0  0  0  0  0  0  0  0
   37.0100   30.0650   35.1300 H   0  0  0  0  0  0  0  0  0  0  0  0
   38.1600   31.7510   36.3930 H   0  0  0  0  0  0  0  0  0  0  0  0
   37.9850   32.2180   38.9310 N   0  0  0  0  0  0  0  0  0  0  0  0
   37.4340   33.4910   39.2990 C   0  0  0  0  0  0  0  0  0  0  0  0
   38.2630   34.1580   40.3690 C   0  0  0  0  0  0  0  0  0  0  0  0
   38.7840   33.2730   41.3560 N   0  0  0  0  0  0  0  0  0  0  0  0
   39.5140   32.1720   40.8380 C   0  0  0  0  0  0  0  0  0  0  0  0
   39.3980   32.1300   39.3350 C   0  0  0  0  0  0  0  0  0  0  0  0
   37.5980   34.1330   38.3820 H   0  0  0  0  0  0  0  0  0  0  0  0
   36.3500   33.5330   39.4500 H   0  0  0  0  0  0  0  0  0  0  0  0
   39.1240   34.7110   39.9380 H   0  0  0  0  0  0  0  0  0  0  0  0
   37.5870   34.8700   40.8860 H   0  0  0  0  0  0  0  0  0  0  0  0
   39.2540   33.8450   42.0690 H   0  0  0  0  0  0  0  0  0  0  0  0
   39.0290   31.2240   41.2120 H   0  0  0  0  0  0  0  0  0  0  0  0
   40.5670   32.2000   41.1230 H   0  0  0  0  0  0  0  0  0  0  0  0
   39.8550   31.2020   38.9460 H   0  0  0  0  0  0  0  0  0  0  0  0
   39.9460   33.0160   38.9370 H   0  0  0  0  0  0  0  0  0  0  0  0
   36.1670   30.4910   40.3710 C   0  0  0  0  0  0  0  0  0  0  0  0
   37.1840   30.7380   40.7940 H   0  0  0  0  0  0  0  0  0  0  0  0
   35.5340   31.3330   40.6560 H   0  0  0  0  0  0  0  0  0  0  0  0
   35.6390   29.2170   40.9980 C   0  0  0  0  0  0  0  0  0  0  0  0
   35.3620   28.5050   40.1640 H   0  0  0  0  0  0  0  0  0  0  0  0
   34.8140   29.3340   41.6810 H   0  0  0  0  0  0  0  0  0  0  0  0
   38.6390   28.5980   43.2030 C   0  0  0  0  0  0  0  0  0  0  0  0
   37.6060   29.2790   42.5200 C   0  0  0  0  0  0  0  0  0  0  0  0
   36.7370   28.5320   41.7200 C   0  0  0  0  0  0  0  0  0  0  0  0
   36.9350   27.1780   41.6390 N   0  0  0  0  0  0  0  0  0  0  0  0
   37.9250   26.5710   42.3010 C   0  0  0  0  0  0  0  0  0  0  0  0
   38.7730   27.2730   43.0780 N   0  0  0  0  0  0  0  0  0  0  0  0
   39.3120   29.1790   43.8230 H   0  0  0  0  0  0  0  0  0  0  0  0
   37.5060   30.3470   42.6270 H   0  0  0  0  0  0  0  0  0  0  0  0
   38.1590   25.1030   42.2280 C   0  0  0  0  0  2  0  0  0  0  0  0
   36.8610   24.4510   41.7670 C   0  0  0  0  0  2  0  0  0  0  0  0
   36.0170   25.1930   41.7630 H   0  0  0  0  0  0  0  0  0  0  0  0
  1 26  1  0  0  0  0
  2  7  1  0  0  0  0
  2  1  2  0  0  0  0
  3  2  1  0  0  0  0
  4  3  2  0  0  0  0
  4  5  1  0  0  0  0
  5  6  2  0  0  0  0
  6  1  1  0  0  0  0
  6 11  1  0  0  0  0
  8  3  1  0  0  0  0
  9  4  1  0  0  0  0
 10  5  1  0  0  0  0
 11 12  1  0  0  0  0
 11 16  1  0  0  0  0
 12 18  1  0  0  0  0
 12 13  1  0  0  0  0
 13 20  1  0  0  0  0
 13 14  1  0  0  0  0
 14 21  1  0  0  0  0
 15 23  1  0  0  0  0
 15 22  1  0  0  0  0
 15 14  1  0  0  0  0
 16 15  1  0  0  0  0
 17 12  1  0  0  0  0
 19 13  1  0  0  0  0
 24 16  1  0  0  0  0
 25 16  1  0  0  0  0
 26 28  1  0  0  0  0
 26 27  1  0  0  0  0
 26 29  1  0  0  0  0
 29 31  1  0  0  0  0
 29 34  1  0  0  0  0
 30 29  1  0  0  0  0
 32 38  1  0  0  0  0
 33 39  1  0  0  0  0
 33 32  2  0  0  0  0
 34 33  1  0  0  0  0
 35 34  2  0  0  0  0
 35 36  1  0  0  0  0
 36 37  2  0  0  0  0
 37 32  1  0  0  0  0
 40 36  1  0  0  0  0
 41 40  1  0  0  0  0
 42 41  1  0  0  0  0
M  END
>  <minimizedAffinity>
-5.76058245

$$$$

 OpenBabel03252508243D

 42 44  0  0  0  0  0  0  0  0999 V2000
   36.9960   29.5020   41.3360 C   0  0  0  0  0  0  0  0  0  0  0  0
   35.7990   28.8730   41.0620 C   0  0  0  0  0  0  0  0  0  0  0  0
   35.1100   28.9890   39.8840 C   0  0  0  0  0  0  0  0  0  0  0  0
   35.6970   29.8140   38.9130 C   0  0  0  0  0  0  0  0  0  0  0  0
   36.8850   30.4630   39.1310 C   0  0  0  0  0  0  0  0  0  0  0  0
   37.5360   30.3180   40.3210 C   0  0  0  0  0  0  0  0  0  0  0  0
   35.2910   28.2140   41.7490 H   0  0  0  0  0  0  0  0  0  0  0  0
   34.1910   28.5240   39.6360 H   0  0  0  0  0  0  0  0  0  0  0  0
   35.1920   29.9460   37.9500 H   0  0  0  0  0  0  0  0  0  0  0  0
   37.2720   31.0840   38.3250 H   0  0  0  0  0  0  0  0  0  0  0  0
   38.7490   31.0160   40.4480 N   0  0  0  0  0  0  0  0  0  0  0  0
   40.0310   30.4740   40.1020 C   0  0  0  0  0  0  0  0  0  0  0  0
   41.0520   31.5660   39.9000 C   0  0  0  0  0  0  0  0  0  0  0  0
   40.5530   32.7350   39.2570 N   0  0  0  0  0  0  0  0  0  0  0  0
   39.4010   33.2970   39.8620 C   0  0  0  0  0  0  0  0  0  0  0  0
   38.8890   32.3910   40.9540 C   0  0  0  0  0  0  0  0  0  0  0  0
   40.3700   29.9510   41.0470 H   0  0  0  0  0  0  0  0  0  0  0  0
   40.0420   29.6760   39.3510 H   0  0  0  0  0  0  0  0  0  0  0  0
   41.5050   31.8900   40.8620 H   0  0  0  0  0  0  0  0  0  0  0  0
   41.8400   31.1380   39.2460 H   0  0  0  0  0  0  0  0  0  0  0  0
   41.3490   33.3670   39.1000 H   0  0  0  0  0  0  0  0  0  0  0  0
   38.5820   33.3380   39.0850 H   0  0  0  0  0  0  0  0  0  0  0  0
   39.5890   34.2920   40.2710 H   0  0  0  0  0  0  0  0  0  0  0  0
   37.9210   32.7660   41.3330 H   0  0  0  0  0  0  0  0  0  0  0  0
   39.6450   32.4030   41.7730 H   0  0  0  0  0  0  0  0  0  0  0  0
   37.7250   29.3790   42.6000 C   0  0  0  0  0  0  0  0  0  0  0  0
   38.7990   29.1860   42.3110 H   0  0  0  0  0  0  0  0  0  0  0  0
   37.7560   30.2880   43.2020 H   0  0  0  0  0  0  0  0  0  0  0  0
   37.1970   28.2300   43.4340 C   0  0  0  0  0  0  0  0  0  0  0  0
   36.1660   27.9640   43.0520 H   0  0  0  0  0  0  0  0  0  0  0  0
   37.1720   28.3910   44.4990 H   0  0  0  0  0  0  0  0  0  0  0  0
   40.0650   25.7750   43.4190 C   0  0  0  0  0  0  0  0  0  0  0  0
   39.3140   26.9450   43.6760 C   0  0  0  0  0  0  0  0  0  0  0  0
   38.0110   27.0190   43.1750 C   0  0  0  0  0  0  0  0  0  0  0  0
   37.5320   25.9530   42.4600 N   0  0  0  0  0  0  0  0  0  0  0  0
   38.2740   24.8630   42.2380 C   0  0  0  0  0  0  0  0  0  0  0  0
   39.5330   24.7720   42.7130 N   0  0  0  0  0  0  0  0  0  0  0  0
   41.0750   25.7200   43.8080 H   0  0  0  0  0  0  0  0  0  0  0  0
   39.7520   27.7480   44.2460 H   0  0  0  0  0  0  0  0  0  0  0  0
   37.7750   23.6930   41.4650 C   0  0  0  0  0  2  0  0  0  0  0  0
   36.5760   24.1580   40.6460 C   0  0  0  0  0  2  0  0  0  0  0  0
   36.2600   25.1940   40.9490 H   0  0  0  0  0  0  0  0  0  0  0  0
  1 26  1  0  0  0  0
  2  1  1  0  0  0  0
  2  7  1  0  0  0  0
  3  2  2  0  0  0  0
  4  5  2  0  0  0  0
  4  3  1  0  0  0  0
  5  6  1  0  0  0  0
  6 11  1  0  0  0  0
  6  1  2  0  0  0  0
  8  3  1  0  0  0  0
  9  4  1  0  0  0  0
 10  5  1  0  0  0  0
 11 16  1  0  0  0  0
 12 11  1  0  0  0  0
 12 17  1  0  0  0  0
 13 12  1  0  0  0  0
 13 19  1  0  0  0  0
 14 15  1  0  0  0  0
 14 13  1  0  0  0  0
 15 23  1  0  0  0  0
 15 16  1  0  0  0  0
 16 24  1  0  0  0  0
 16 25  1  0  0  0  0
 18 12  1  0  0  0  0
 20 13  1  0  0  0  0
 21 14  1  0  0  0  0
 22 15  1  0  0  0  0
 26 28  1  0  0  0  0
 26 29  1  0  0  0  0
 27 26  1  0  0  0  0
 29 31  1  0  0  0  0
 30 29  1  0  0  0  0
 32 33  1  0  0  0  0
 32 38  1  0  0  0  0
 33 39  1  0  0  0  0
 34 29  1  0  0  0  0
 34 33  2  0  0  0  0
 35 34  1  0  0  0  0
 36 35  2  0  0  0  0
 36 37  1  0  0  0  0
 37 32  2  0  0  0  0
 40 36  1  0  0  0  0
 41 42  1  0  0  0  0
 41 40  1  0  0  0  0
M  END
>  <minimizedAffinity>
-5.54719973

$$$$

 OpenBabel03252508243D

 42 44  0  0  0  0  0  0  0  0999 V2000
   37.9860   26.1210   42.5120 C   0  0  0  0  0  0  0  0  0  0  0  0
   36.7690   25.5520   42.1980 C   0  0  0  0  0  0  0  0  0  0  0  0
   36.6110   24.3370   41.5870 C   0  0  0  0  0  0  0  0  0  0  0  0
   37.7950   23.6530   41.2760 C   0  0  0  0  0  0  0  0  0  0  0  0
   39.0310   24.1690   41.5650 C   0  0  0  0  0  0  0  0  0  0  0  0
   39.1400   25.3840   42.1740 C   0  0  0  0  0  0  0  0  0  0  0  0
   35.8150   26.0080   42.4140 H   0  0  0  0  0  0  0  0  0  0  0  0
   35.6960   23.8680   41.3290 H   0  0  0  0  0  0  0  0  0  0  0  0
   37.7320   22.6750   40.7860 H   0  0  0  0  0  0  0  0  0  0  0  0
   39.9000   23.5730   41.2910 H   0  0  0  0  0  0  0  0  0  0  0  0
   40.4480   25.8270   42.4360 N   0  0  0  0  0  0  0  0  0  0  0  0
   41.1350   25.6210   43.6800 C   0  0  0  0  0  0  0  0  0  0  0  0
   42.6270   25.7740   43.5140 C   0  0  0  0  0  0  0  0  0  0  0  0
   43.1460   25.2510   42.2950 N   0  0  0  0  0  0  0  0  0  0  0  0
   42.5080   25.7340   41.1240 C   0  0  0  0  0  0  0  0  0  0  0  0
   41.3020   26.5630   41.4900 C   0  0  0  0  0  0  0  0  0  0  0  0
   40.8340   26.5130   44.3080 H   0  0  0  0  0  0  0  0  0  0  0  0
   40.8140   24.7650   44.2830 H   0  0  0  0  0  0  0  0  0  0  0  0
   42.9410   26.8380   43.5740 H   0  0  0  0  0  0  0  0  0  0  0  0
   43.0920   25.2040   44.3450 H   0  0  0  0  0  0  0  0  0  0  0  0
   44.1700   25.3360   42.3330 H   0  0  0  0  0  0  0  0  0  0  0  0
   42.1110   24.8460   40.5510 H   0  0  0  0  0  0  0  0  0  0  0  0
   43.1800   26.3230   40.4970 H   0  0  0  0  0  0  0  0  0  0  0  0
   40.7350   26.8260   40.5800 H   0  0  0  0  0  0  0  0  0  0  0  0
   41.6780   27.4900   41.9830 H   0  0  0  0  0  0  0  0  0  0  0  0
   38.1490   27.4240   43.1600 C   0  0  0  0  0  0  0  0  0  0  0  0
   38.0410   27.2260   44.2650 H   0  0  0  0  0  0  0  0  0  0  0  0
   39.1390   27.8690   43.0500 H   0  0  0  0  0  0  0  0  0  0  0  0
   37.0910   28.4060   42.7010 C   0  0  0  0  0  0  0  0  0  0  0  0
   36.5750   28.8190   43.6180 H   0  0  0  0  0  0  0  0  0  0  0  0
   36.3660   28.0260   42.0010 H   0  0  0  0  0  0  0  0  0  0  0  0
   39.6040   31.1180   41.9380 C   0  0  0  0  0  0  0  0  0  0  0  0
   38.9990   29.9970   42.5500 C   0  0  0  0  0  0  0  0  0  0  0  0
   37.7480   29.5830   42.0840 C   0  0  0  0  0  0  0  0  0  0  0  0
   37.1730   30.2880   41.0590 N   0  0  0  0  0  0  0  0  0  0  0  0
   37.7790   31.3450   40.5060 C   0  0  0  0  0  0  0  0  0  0  0  0
   38.9860   31.7590   40.9400 N   0  0  0  0  0  0  0  0  0  0  0  0
   40.5740   31.4370   42.3010 H   0  0  0  0  0  0  0  0  0  0  0  0
   39.5050   29.4860   43.3530 H   0  0  0  0  0  0  0  0  0  0  0  0
   37.1750   32.1260   39.3920 C   0  0  0  0  0  2  0  0  0  0  0  0
   37.3940   33.6040   39.6910 C   0  0  0  0  0  2  0  0  0  0  0  0
   37.7890   33.7490   40.7340 H   0  0  0  0  0  0  0  0  0  0  0  0
  1 26  1  0  0  0  0
  2  7  1  0  0  0  0
  2  1  1  0  0  0  0
  3  2  2  0  0  0  0
  4  5  2  0  0  0  0
  4  3  1  0  0  0  0
  5  6  1  0  0  0  0
  6 11  1  0  0  0  0
  6  1  2  0  0  0  0
  8  3  1  0  0  0  0
  9  4  1  0  0  0  0
 10  5  1  0  0  0  0
 11 12  1  0  0  0  0
 12 18  1  0  0  0  0
 12 17  1  0  0  0  0
 13 19  1  0  0  0  0
 13 12  1  0  0  0  0
 13 20  1  0  0  0  0
 14 21  1  0  0  0  0
 14 13  1  0  0  0  0
 15 16  1  0  0  0  0
 15 14  1  0  0  0  0
 16 25  1  0  0  0  0
 16 11  1  0  0  0  0
 22 15  1  0  0  0  0
 23 15  1  0  0  0  0
 24 16  1  0  0  0  0
 26 27  1  0  0  0  0
 28 26  1  0  0  0  0
 29 26  1  0  0  0  0
 29 30  1  0  0  0  0
 31 29  1  0  0  0  0
 32 38  1  0  0  0  0
 32 33  1  0  0  0  0
 33 39  1  0  0  0  0
 34 33  2  0  0  0  0
 34 29  1  0  0  0  0
 35 34  1  0  0  0  0
 36 37  1  0  0  0  0
 36 35  2  0  0  0  0
 37 32  2  0  0  0  0
 40 41  1  0  0  0  0
 40 36  1  0  0  0  0
 41 42  1  0  0  0  0
M  END
>  <minimizedAffinity>
-5.47496462

$$$$

 OpenBabel03252508243D

 42 44  0  0  0  0  0  0  0  0999 V2000
   36.6350   30.1760   39.8650 C   0  0  0  0  0  0  0  0  0  0  0  0
   36.8080   31.2880   40.6630 C   0  0  0  0  0  0  0  0  0  0  0  0
   37.2650   32.5010   40.2230 C   0  0  0  0  0  0  0  0  0  0  0  0
   37.5670   32.5780   38.8550 C   0  0  0  0  0  0  0  0  0  0  0  0
   37.4140   31.5060   38.0140 C   0  0  0  0  0  0  0  0  0  0  0  0
   36.9560   30.3160   38.4980 C   0  0  0  0  0  0  0  0  0  0  0  0
   36.5870   31.3130   41.7190 H   0  0  0  0  0  0  0  0  0  0  0  0
   37.4110   33.3750   40.8030 H   0  0  0  0  0  0  0  0  0  0  0  0
   37.9370   33.5230   38.4430 H   0  0  0  0  0  0  0  0  0  0  0  0
   37.6710   31.6500   36.9660 H   0  0  0  0  0  0  0  0  0  0  0  0
   36.8260   29.2780   37.5600 N   0  0  0  0  0  0  0  0  0  0  0  0
   35.7830   29.2060   36.5770 C   0  0  0  0  0  0  0  0  0  0  0  0
   36.1560   28.2770   35.4490 C   0  0  0  0  0  0  0  0  0  0  0  0
   37.5250   28.3320   35.0610 N   0  0  0  0  0  0  0  0  0  0  0  0
   38.4490   28.1520   36.1210 C   0  0  0  0  0  0  0  0  0  0  0  0
   37.7250   28.1190   37.4440 C   0  0  0  0  0  0  0  0  0  0  0  0
   34.9420   28.6690   37.1110 H   0  0  0  0  0  0  0  0  0  0  0  0
   35.3270   30.1550   36.2730 H   0  0  0  0  0  0  0  0  0  0  0  0
   35.9290   27.2180   35.6950 H   0  0  0  0  0  0  0  0  0  0  0  0
   35.5490   28.5910   34.5740 H   0  0  0  0  0  0  0  0  0  0  0  0
   37.6390   27.7260   34.2380 H   0  0  0  0  0  0  0  0  0  0  0  0
   39.1210   29.0580   36.1580 H   0  0  0  0  0  0  0  0  0  0  0  0
   39.0420   27.2420   36.0060 H   0  0  0  0  0  0  0  0  0  0  0  0
   38.4550   28.1110   38.2740 H   0  0  0  0  0  0  0  0  0  0  0  0
   37.1190   27.1830   37.4650 H   0  0  0  0  0  0  0  0  0  0  0  0
   36.1510   28.8800   40.3430 C   0  0  0  0  0  0  0  0  0  0  0  0
   35.0750   28.8180   40.0120 H   0  0  0  0  0  0  0  0  0  0  0  0
   36.6340   28.0140   39.8870 H   0  0  0  0  0  0  0  0  0  0  0  0
   36.2380   28.7790   41.8520 C   0  0  0  0  0  0  0  0  0  0  0  0
   35.2470   28.3900   42.2350 H   0  0  0  0  0  0  0  0  0  0  0  0
   36.5110   29.6830   42.3700 H   0  0  0  0  0  0  0  0  0  0  0  0
   39.2430   27.0410   43.3330 C   0  0  0  0  0  0  0  0  0  0  0  0
   38.3310   28.0650   42.9910 C   0  0  0  0  0  0  0  0  0  0  0  0
   37.2160   27.7280   42.2190 C   0  0  0  0  0  0  0  0  0  0  0  0
   37.0670   26.4210   41.8330 N   0  0  0  0  0  0  0  0  0  0  0  0
   37.9530   25.4810   42.1760 C   0  0  0  0  0  0  0  0  0  0  0  0
   39.0350   25.7850   42.9210 N   0  0  0  0  0  0  0  0  0  0  0  0
   40.1080   27.3040   43.9320 H   0  0  0  0  0  0  0  0  0  0  0  0
   38.5080   29.0740   43.3280 H   0  0  0  0  0  0  0  0  0  0  0  0
   37.8120   24.0560   41.7690 C   0  0  0  0  0  2  0  0  0  0  0  0
   36.5650   23.9450   40.9000 C   0  0  0  0  0  2  0  0  0  0  0  0
   35.9740   24.9010   40.9220 H   0  0  0  0  0  0  0  0  0  0  0  0
  1 26  1  0  0  0  0
  1  2  1  0  0  0  0
  2  7  1  0  0  0  0
  3  2  2  0  0  0  0
  3  8  1  0  0  0  0
  4  3  1  0  0  0  0
  5  6  1  0  0  0  0
  5  4  2  0  0  0  0
  6  1  2  0  0  0  0
  9  4  1  0  0  0  0
 10  5  1  0  0  0  0
 11  6  1  0  0  0  0
 12 17  1  0  0  0  0
 12 11  1  0  0  0  0
 13 19  1  0  0  0  0
 13 12  1  0  0  0  0
 14 13  1  0  0  0  0
 14 15  1  0  0  0  0
 15 22  1  0  0  0  0
 15 16  1  0  0  0  0
 16 25  1  0  0  0  0
 16 11  1  0  0  0  0
 16 24  1  0  0  0  0
 18 12  1  0  0  0  0
 20 13  1  0  0  0  0
 21 14  1  0  0  0  0
 23 15  1  0  0  0  0
 26 29  1  0  0  0  0
 27 26  1  0  0  0  0
 28 26  1  0  0  0  0
 29 34  1  0  0  0  0
 29 30  1  0  0  0  0
 29 31  1  0  0  0  0
 32 38  1  0  0  0  0
 33 39  1  0  0  0  0
 33 32  1  0  0  0  0
 34 33  2  0  0  0  0
 35 36  2  0  0  0  0
 35 34  1  0  0  0  0
 36 37  1  0  0  0  0
 37 32  2  0  0  0  0
 40 36  1  0  0  0  0
 41 42  1  0  0  0  0
 41 40  1  0  0  0  0
M  END
>  <minimizedAffinity>
-5.45631838

$$$$

 OpenBabel03252508243D

 42 44  0  0  0  0  0  0  0  0999 V2000
   36.9470   27.2630   41.9050 C   0  0  0  0  0  0  0  0  0  0  0  0
   37.2480   26.0730   42.5340 C   0  0  0  0  0  0  0  0  0  0  0  0
   37.2440   24.8470   41.9250 C   0  0  0  0  0  0  0  0  0  0  0  0
   36.9050   24.8440   40.5640 C   0  0  0  0  0  0  0  0  0  0  0  0
   36.5970   25.9950   39.8880 C   0  0  0  0  0  0  0  0  0  0  0  0
   36.6150   27.1950   40.5360 C   0  0  0  0  0  0  0  0  0  0  0  0
   37.5290   25.9930   43.5730 H   0  0  0  0  0  0  0  0  0  0  0  0
   37.4680   23.9130   42.3730 H   0  0  0  0  0  0  0  0  0  0  0  0
   36.8840   23.8920   40.0220 H   0  0  0  0  0  0  0  0  0  0  0  0
   36.3460   25.9050   38.8320 H   0  0  0  0  0  0  0  0  0  0  0  0
   36.2920   28.3210   39.7590 N   0  0  0  0  0  0  0  0  0  0  0  0
   37.1720   28.9090   38.7900 C   0  0  0  0  0  0  0  0  0  0  0  0
   36.4120   29.7710   37.8120 C   0  0  0  0  0  0  0  0  0  0  0  0
   35.1400   29.2570   37.4290 N   0  0  0  0  0  0  0  0  0  0  0  0
   34.2820   28.9340   38.5110 C   0  0  0  0  0  0  0  0  0  0  0  0
   35.0210   29.0610   39.8200 C   0  0  0  0  0  0  0  0  0  0  0  0
   37.7840   29.6470   39.3910 H   0  0  0  0  0  0  0  0  0  0  0  0
   37.9280   28.2510   38.3470 H   0  0  0  0  0  0  0  0  0  0  0  0
   36.2450   30.7950   38.2090 H   0  0  0  0  0  0  0  0  0  0  0  0
   37.0370   29.8270   36.8960 H   0  0  0  0  0  0  0  0  0  0  0  0
   34.7580   29.8790   36.7050 H   0  0  0  0  0  0  0  0  0  0  0  0
   33.9980   27.8450   38.4200 H   0  0  0  0  0  0  0  0  0  0  0  0
   33.3880   29.5610   38.5350 H   0  0  0  0  0  0  0  0  0  0  0  0
   34.3930   28.6840   40.6470 H   0  0  0  0  0  0  0  0  0  0  0  0
   35.2370   30.1440   39.9730 H   0  0  0  0  0  0  0  0  0  0  0  0
   36.9480   28.5710   42.5630 C   0  0  0  0  0  0  0  0  0  0  0  0
   36.6260   29.3080   41.7710 H   0  0  0  0  0  0  0  0  0  0  0  0
   36.2140   28.6820   43.3630 H   0  0  0  0  0  0  0  0  0  0  0  0
   38.3260   28.9310   43.0780 C   0  0  0  0  0  0  0  0  0  0  0  0
   39.0280   28.0810   42.8240 H   0  0  0  0  0  0  0  0  0  0  0  0
   38.3910   29.1710   44.1260 H   0  0  0  0  0  0  0  0  0  0  0  0
   40.6760   31.5300   41.6720 C   0  0  0  0  0  0  0  0  0  0  0  0
   40.2010   30.4280   42.4200 C   0  0  0  0  0  0  0  0  0  0  0  0
   38.8510   30.0860   42.3120 C   0  0  0  0  0  0  0  0  0  0  0  0
   38.0570   30.8390   41.4860 N   0  0  0  0  0  0  0  0  0  0  0  0
   38.5440   31.8750   40.7940 C   0  0  0  0  0  0  0  0  0  0  0  0
   39.8440   32.2200   40.8840 N   0  0  0  0  0  0  0  0  0  0  0  0
   41.7240   31.7940   41.7580 H   0  0  0  0  0  0  0  0  0  0  0  0
   40.8800   29.8780   43.0520 H   0  0  0  0  0  0  0  0  0  0  0  0
   37.7010   32.7060   39.8910 C   0  0  0  0  0  2  0  0  0  0  0  0
   38.1330   34.1580   40.0620 C   0  0  0  0  0  2  0  0  0  0  0  0
   38.8390   34.2670   40.9300 H   0  0  0  0  0  0  0  0  0  0  0  0
  1  2  1  0  0  0  0
  1 26  1  0  0  0  0
  2  7  1  0  0  0  0
  3  8  1  0  0  0  0
  3  2  2  0  0  0  0
  4  3  1  0  0  0  0
  5  6  1  0  0  0  0
  5  4  2  0  0  0  0
  6  1  2  0  0  0  0
  9  4  1  0  0  0  0
 10  5  1  0  0  0  0
 11 16  1  0  0  0  0
 11  6  1  0  0  0  0
 12 17  1  0  0  0  0
 12 11  1  0  0  0  0
 13 19  1  0  0  0  0
 13 12  1  0  0  0  0
 14 13  1  0  0  0  0
 14 15  1  0  0  0  0
 15 23  1  0  0  0  0
 15 16  1  0  0  0  0
 16 25  1  0  0  0  0
 16 24  1  0  0  0  0
 18 12  1  0  0  0  0
 20 13  1  0  0  0  0
 21 14  1  0  0  0  0
 22 15  1  0  0  0  0
 26 29  1  0  0  0  0
 26 28  1  0  0  0  0
 27 26  1  0  0  0  0
 29 31  1  0  0  0  0
 30 29  1  0  0  0  0
 32 38  1  0  0  0  0
 32 33  1  0  0  0  0
 33 39  1  0  0  0  0
 34 33  2  0  0  0  0
 34 29  1  0  0  0  0
 35 34  1  0  0  0  0
 36 37  1  0  0  0  0
 36 35  2  0  0  0  0
 37 32  2  0  0  0  0
 40 41  1  0  0  0  0
 40 36  1  0  0  0  0
 41 42  1  0  0  0  0
M  END
>  <minimizedAffinity>
-5.33612728

$$$$

 OpenBabel03252508243D

 42 44  0  0  0  0  0  0  0  0999 V2000
   37.1240   29.4840   41.6490 C   0  0  0  0  0  0  0  0  0  0  0  0
   36.9760   28.4940   42.5980 C   0  0  0  0  0  0  0  0  0  0  0  0
   37.9980   27.9640   43.3390 C   0  0  0  0  0  0  0  0  0  0  0  0
   39.2720   28.4940   43.0860 C   0  0  0  0  0  0  0  0  0  0  0  0
   39.4790   29.4790   42.1550 C   0  0  0  0  0  0  0  0  0  0  0  0
   38.4290   29.9770   41.4400 C   0  0  0  0  0  0  0  0  0  0  0  0
   36.0300   28.0440   42.8590 H   0  0  0  0  0  0  0  0  0  0  0  0
   37.9250   27.2050   44.0740 H   0  0  0  0  0  0  0  0  0  0  0  0
   40.1310   28.1100   43.6480 H   0  0  0  0  0  0  0  0  0  0  0  0
   40.4990   29.8360   42.0210 H   0  0  0  0  0  0  0  0  0  0  0  0
   38.7380   30.9880   40.5150 N   0  0  0  0  0  0  0  0  0  0  0  0
   39.1600   30.7440   39.1650 C   0  0  0  0  0  0  0  0  0  0  0  0
   38.9660   31.9660   38.3010 C   0  0  0  0  0  0  0  0  0  0  0  0
   37.7810   32.7060   38.5750 N   0  0  0  0  0  0  0  0  0  0  0  0
   37.6190   33.0820   39.9330 C   0  0  0  0  0  0  0  0  0  0  0  0
   38.6820   32.4340   40.7850 C   0  0  0  0  0  0  0  0  0  0  0  0
   40.2830   30.6380   39.2450 H   0  0  0  0  0  0  0  0  0  0  0  0
   38.8460   29.7960   38.7150 H   0  0  0  0  0  0  0  0  0  0  0  0
   39.8200   32.6710   38.3870 H   0  0  0  0  0  0  0  0  0  0  0  0
   38.8940   31.5980   37.2560 H   0  0  0  0  0  0  0  0  0  0  0  0
   37.7160   33.4580   37.8760 H   0  0  0  0  0  0  0  0  0  0  0  0
   36.6350   32.6640   40.2960 H   0  0  0  0  0  0  0  0  0  0  0  0
   37.6480   34.1640   40.0730 H   0  0  0  0  0  0  0  0  0  0  0  0
   38.4750   32.6210   41.8540 H   0  0  0  0  0  0  0  0  0  0  0  0
   39.6570   32.8960   40.5020 H   0  0  0  0  0  0  0  0  0  0  0  0
   36.0280   30.0420   40.8550 C   0  0  0  0  0  0  0  0  0  0  0  0
   35.5040   30.7730   41.5370 H   0  0  0  0  0  0  0  0  0  0  0  0
   36.3400   30.6350   39.9950 H   0  0  0  0  0  0  0  0  0  0  0  0
   35.0620   28.9630   40.4100 C   0  0  0  0  0  0  0  0  0  0  0  0
   34.0380   29.2190   40.8170 H   0  0  0  0  0  0  0  0  0  0  0  0
   35.3290   27.9530   40.6730 H   0  0  0  0  0  0  0  0  0  0  0  0
   35.8460   29.2350   36.7280 C   0  0  0  0  0  0  0  0  0  0  0  0
   36.0290   29.1880   38.1280 C   0  0  0  0  0  0  0  0  0  0  0  0
   34.9020   29.0240   38.9380 C   0  0  0  0  0  0  0  0  0  0  0  0
   33.6780   28.9210   38.3300 N   0  0  0  0  0  0  0  0  0  0  0  0
   33.5460   28.9710   36.9990 C   0  0  0  0  0  0  0  0  0  0  0  0
   34.6210   29.1270   36.2010 N   0  0  0  0  0  0  0  0  0  0  0  0
   36.7220   29.3620   36.1010 H   0  0  0  0  0  0  0  0  0  0  0  0
   37.0200   29.2750   38.5430 H   0  0  0  0  0  0  0  0  0  0  0  0
   32.2280   28.8600   36.3170 C   0  0  0  0  0  2  0  0  0  0  0  0
   32.2670   29.7600   35.0870 C   0  0  0  0  0  2  0  0  0  0  0  0
   33.1880   30.4040   35.0900 H   0  0  0  0  0  0  0  0  0  0  0  0
  1  2  1  0  0  0  0
  2  7  1  0  0  0  0
  2  3  2  0  0  0  0
  3  8  1  0  0  0  0
  4  3  1  0  0  0  0
  4  9  1  0  0  0  0
  5  4  2  0  0  0  0
  6  1  2  0  0  0  0
  6  5  1  0  0  0  0
 10  5  1  0  0  0  0
 11 16  1  0  0  0  0
 11  6  1  0  0  0  0
 12 17  1  0  0  0  0
 12 11  1  0  0  0  0
 13 19  1  0  0  0  0
 13 14  1  0  0  0  0
 13 12  1  0  0  0  0
 14 15  1  0  0  0  0
 15 23  1  0  0  0  0
 15 22  1  0  0  0  0
 15 16  1  0  0  0  0
 16 24  1  0  0  0  0
 18 12  1  0  0  0  0
 20 13  1  0  0  0  0
 21 14  1  0  0  0  0
 25 16  1  0  0  0  0
 26 27  1  0  0  0  0
 26  1  1  0  0  0  0
 28 26  1  0  0  0  0
 29 31  1  0  0  0  0
 29 30  1  0  0  0  0
 29 26  1  0  0  0  0
 32 33  1  0  0  0  0
 33 39  1  0  0  0  0
 33 34  2  0  0  0  0
 34 29  1  0  0  0  0
 35 34  1  0  0  0  0
 36 35  2  0  0  0  0
 37 32  2  0  0  0  0
 37 36  1  0  0  0  0
 38 32  1  0  0  0  0
 40 36  1  0  0  0  0
 41 42  1  0  0  0  0
 41 40  1  0  0  0  0
M  END
>  <minimizedAffinity>
-5.21682453

$$$$

 OpenBabel03252508243D

 42 44  0  0  0  0  0  0  0  0999 V2000
   36.3340   27.8570   41.1960 C   0  0  0  0  0  0  0  0  0  0  0  0
   35.5840   28.9620   40.8530 C   0  0  0  0  0  0  0  0  0  0  0  0
   35.1340   29.2370   39.5890 C   0  0  0  0  0  0  0  0  0  0  0  0
   35.4800   28.3020   38.6030 C   0  0  0  0  0  0  0  0  0  0  0  0
   36.2220   27.1850   38.8860 C   0  0  0  0  0  0  0  0  0  0  0  0
   36.6490   26.9530   40.1610 C   0  0  0  0  0  0  0  0  0  0  0  0
   35.2670   29.7190   41.5540 H   0  0  0  0  0  0  0  0  0  0  0  0
   34.5570   30.0730   39.2860 H   0  0  0  0  0  0  0  0  0  0  0  0
   35.1480   28.4670   37.5710 H   0  0  0  0  0  0  0  0  0  0  0  0
   36.4470   26.5100   38.0630 H   0  0  0  0  0  0  0  0  0  0  0  0
   37.3980   25.7800   40.3550 N   0  0  0  0  0  0  0  0  0  0  0  0
   38.8300   25.7170   40.2830 C   0  0  0  0  0  0  0  0  0  0  0  0
   39.3600   24.4860   40.9770 C   0  0  0  0  0  0  0  0  0  0  0  0
   38.6710   24.1350   42.1730 N   0  0  0  0  0  0  0  0  0  0  0  0
   37.2660   24.0050   42.0300 C   0  0  0  0  0  0  0  0  0  0  0  0
   36.8370   24.4530   40.6550 C   0  0  0  0  0  0  0  0  0  0  0  0
   39.0400   25.5270   39.1870 H   0  0  0  0  0  0  0  0  0  0  0  0
   39.3750   26.6440   40.4900 H   0  0  0  0  0  0  0  0  0  0  0  0
   39.3370   23.5960   40.3130 H   0  0  0  0  0  0  0  0  0  0  0  0
   40.4110   24.7140   41.2540 H   0  0  0  0  0  0  0  0  0  0  0  0
   39.1690   23.3410   42.5960 H   0  0  0  0  0  0  0  0  0  0  0  0
   36.7740   24.7170   42.7550 H   0  0  0  0  0  0  0  0  0  0  0  0
   36.9220   22.9830   42.2060 H   0  0  0  0  0  0  0  0  0  0  0  0
   35.7340   24.4750   40.5920 H   0  0  0  0  0  0  0  0  0  0  0  0
   37.2420   23.7120   39.9260 H   0  0  0  0  0  0  0  0  0  0  0  0
   36.8170   27.5720   42.5490 C   0  0  0  0  0  0  0  0  0  0  0  0
   35.9220   27.1790   43.1130 H   0  0  0  0  0  0  0  0  0  0  0  0
   37.5590   26.7740   42.6120 H   0  0  0  0  0  0  0  0  0  0  0  0
   37.3490   28.8210   43.2210 C   0  0  0  0  0  0  0  0  0  0  0  0
   37.1880   28.7150   44.3350 H   0  0  0  0  0  0  0  0  0  0  0  0
   36.9440   29.7550   42.8700 H   0  0  0  0  0  0  0  0  0  0  0  0
   40.9780   27.7920   43.0800 C   0  0  0  0  0  0  0  0  0  0  0  0
   39.5770   27.7130   43.2440 C   0  0  0  0  0  0  0  0  0  0  0  0
   38.8220   28.8750   43.0630 C   0  0  0  0  0  0  0  0  0  0  0  0
   39.4820   30.0310   42.7390 N   0  0  0  0  0  0  0  0  0  0  0  0
   40.8110   30.0660   42.5930 C   0  0  0  0  0  0  0  0  0  0  0  0
   41.5570   28.9550   42.7610 N   0  0  0  0  0  0  0  0  0  0  0  0
   41.5620   26.8900   43.2200 H   0  0  0  0  0  0  0  0  0  0  0  0
   39.1200   26.7700   43.5000 H   0  0  0  0  0  0  0  0  0  0  0  0
   41.5490   31.3090   42.2400 C   0  0  0  0  0  2  0  0  0  0  0  0
   42.7460   31.4170   43.1770 C   0  0  0  0  0  2  0  0  0  0  0  0
   42.6860   30.6510   43.9970 H   0  0  0  0  0  0  0  0  0  0  0  0
  1 26  1  0  0  0  0
  2  1  1  0  0  0  0
  2  7  1  0  0  0  0
  3  2  2  0  0  0  0
  4  5  2  0  0  0  0
  4  3  1  0  0  0  0
  5  6  1  0  0  0  0
  6 11  1  0  0  0  0
  6  1  2  0  0  0  0
  8  3  1  0  0  0  0
  9  4  1  0  0  0  0
 10  5  1  0  0  0  0
 11 16  1  0  0  0  0
 12 11  1  0  0  0  0
 12 18  1  0  0  0  0
 12 13  1  0  0  0  0
 13 20  1  0  0  0  0
 13 14  1  0  0  0  0
 14 21  1  0  0  0  0
 15 14  1  0  0  0  0
 15 23  1  0  0  0  0
 15 22  1  0  0  0  0
 16 15  1  0  0  0  0
 17 12  1  0  0  0  0
 19 13  1  0  0  0  0
 24 16  1  0  0  0  0
 25 16  1  0  0  0  0
 26 28  1  0  0  0  0
 26 27  1  0  0  0  0
 26 29  1  0  0  0  0
 29 30  1  0  0  0  0
 31 29  1  0  0  0  0
 32 38  1  0  0  0  0
 32 33  1  0  0  0  0
 33 39  1  0  0  0  0
 34 29  1  0  0  0  0
 34 33  2  0  0  0  0
 35 34  1  0  0  0  0
 36 35  2  0  0  0  0
 36 37  1  0  0  0  0
 37 32  2  0  0  0  0
 40 36  1  0  0  0  0
 40 41  1  0  0  0  0
 41 42  1  0  0  0  0
M  END
>  <minimizedAffinity>
-5.12390709

$$$$

 OpenBabel03252508243D

 42 44  0  0  0  0  0  0  0  0999 V2000
   37.0470   30.0760   40.3660 C   0  0  0  0  0  0  0  0  0  0  0  0
   36.2150   29.0090   40.0960 C   0  0  0  0  0  0  0  0  0  0  0  0
   35.6920   28.7210   38.8630 C   0  0  0  0  0  0  0  0  0  0  0  0
   36.0540   29.5960   37.8280 C   0  0  0  0  0  0  0  0  0  0  0  0
   36.8780   30.6710   38.0390 C   0  0  0  0  0  0  0  0  0  0  0  0
   37.3750   30.9190   39.2840 C   0  0  0  0  0  0  0  0  0  0  0  0
   35.9010   28.2860   40.8320 H   0  0  0  0  0  0  0  0  0  0  0  0
   35.0510   27.9150   38.6160 H   0  0  0  0  0  0  0  0  0  0  0  0
   35.6670   29.4170   36.8190 H   0  0  0  0  0  0  0  0  0  0  0  0
   37.1100   31.3010   37.1810 H   0  0  0  0  0  0  0  0  0  0  0  0
   38.2160   32.0400   39.4000 N   0  0  0  0  0  0  0  0  0  0  0  0
   37.7870   33.3220   39.8810 C   0  0  0  0  0  0  0  0  0  0  0  0
   38.9600   34.1590   40.3290 C   0  0  0  0  0  0  0  0  0  0  0  0
   39.9880   33.4340   40.9950 N   0  0  0  0  0  0  0  0  0  0  0  0
   40.4800   32.3110   40.2810 C   0  0  0  0  0  0  0  0  0  0  0  0
   39.6450   32.0710   39.0480 C   0  0  0  0  0  0  0  0  0  0  0  0
   37.4110   33.8490   38.9530 H   0  0  0  0  0  0  0  0  0  0  0  0
   36.9200   33.3320   40.5490 H   0  0  0  0  0  0  0  0  0  0  0  0
   39.4350   34.6920   39.4770 H   0  0  0  0  0  0  0  0  0  0  0  0
   38.5550   34.9000   41.0500 H   0  0  0  0  0  0  0  0  0  0  0  0
   40.6860   34.1140   41.3240 H   0  0  0  0  0  0  0  0  0  0  0  0
   40.3440   31.3970   40.9290 H   0  0  0  0  0  0  0  0  0  0  0  0
   41.5270   32.4250   39.9960 H   0  0  0  0  0  0  0  0  0  0  0  0
   39.9460   31.1230   38.5670 H   0  0  0  0  0  0  0  0  0  0  0  0
   39.8300   32.9230   38.3530 H   0  0  0  0  0  0  0  0  0  0  0  0
   37.5990   30.3820   41.6870 C   0  0  0  0  0  0  0  0  0  0  0  0
   38.6960   30.5790   41.5180 H   0  0  0  0  0  0  0  0  0  0  0  0
   37.2170   31.2970   42.1420 H   0  0  0  0  0  0  0  0  0  0  0  0
   37.4200   29.2210   42.6440 C   0  0  0  0  0  0  0  0  0  0  0  0
   36.8240   28.4190   42.1150 H   0  0  0  0  0  0  0  0  0  0  0  0
   36.9720   29.4570   43.5940 H   0  0  0  0  0  0  0  0  0  0  0  0
   40.0600   26.7270   43.6740 C   0  0  0  0  0  0  0  0  0  0  0  0
   38.7910   27.3040   43.4430 C   0  0  0  0  0  0  0  0  0  0  0  0
   38.7370   28.5930   42.9050 C   0  0  0  0  0  0  0  0  0  0  0  0
   39.9200   29.2290   42.6320 N   0  0  0  0  0  0  0  0  0  0  0  0
   41.1020   28.6490   42.8650 C   0  0  0  0  0  0  0  0  0  0  0  0
   41.1750   27.4060   43.3820 N   0  0  0  0  0  0  0  0  0  0  0  0
   40.0990   25.7270   44.0910 H   0  0  0  0  0  0  0  0  0  0  0  0
   37.8980   26.7480   43.6800 H   0  0  0  0  0  0  0  0  0  0  0  0
   42.3980   29.3210   42.5760 C   0  0  0  0  0  2  0  0  0  0  0  0
   42.2950   30.7580   43.0720 C   0  0  0  0  0  2  0  0  0  0  0  0
   41.2390   31.0070   43.3670 H   0  0  0  0  0  0  0  0  0  0  0  0
  1 26  1  0  0  0  0
  2  1  1  0  0  0  0
  2  7  1  0  0  0  0
  3  2  2  0  0  0  0
  4  5  2  0  0  0  0
  4  3  1  0  0  0  0
  5  6  1  0  0  0  0
  6 11  1  0  0  0  0
  6  1  2  0  0  0  0
  8  3  1  0  0  0  0
  9  4  1  0  0  0  0
 10  5  1  0  0  0  0
 11 12  1  0  0  0  0
 12 13  1  0  0  0  0
 12 18  1  0  0  0  0
 13 14  1  0  0  0  0
 13 20  1  0  0  0  0
 14 21  1  0  0  0  0
 15 22  1  0  0  0  0
 15 14  1  0  0  0  0
 16 11  1  0  0  0  0
 16 15  1  0  0  0  0
 17 12  1  0  0  0  0
 19 13  1  0  0  0  0
 23 15  1  0  0  0  0
 24 16  1  0  0  0  0
 25 16  1  0  0  0  0
 26 28  1  0  0  0  0
 26 29  1  0  0  0  0
 27 26  1  0  0  0  0
 29 34  1  0  0  0  0
 29 31  1  0  0  0  0
 30 29  1  0  0  0  0
 32 38  1  0  0  0  0
 33 32  1  0  0  0  0
 33 39  1  0  0  0  0
 34 33  2  0  0  0  0
 35 36  2  0  0  0  0
 35 34  1  0  0  0  0
 36 37  1  0  0  0  0
 37 32  2  0  0  0  0
 40 36  1  0  0  0  0
 40 41  1  0  0  0  0
 41 42  1  0  0  0  0
M  END
>  <minimizedAffinity>
-5.09906816

$$$$

 OpenBabel03252508243D

 42 44  0  0  0  0  0  0  0  0999 V2000
   36.3480   27.8220   41.3830 C   0  0  0  0  0  0  0  0  0  0  0  0
   35.6880   28.9880   41.0590 C   0  0  0  0  0  0  0  0  0  0  0  0
   35.4690   29.4320   39.7820 C   0  0  0  0  0  0  0  0  0  0  0  0
   35.9670   28.6120   38.7590 C   0  0  0  0  0  0  0  0  0  0  0  0
   36.6310   27.4410   39.0220 C   0  0  0  0  0  0  0  0  0  0  0  0
   36.8250   27.0400   40.3110 C   0  0  0  0  0  0  0  0  0  0  0  0
   35.2650   29.6660   41.7850 H   0  0  0  0  0  0  0  0  0  0  0  0
   34.9690   30.3200   39.4930 H   0  0  0  0  0  0  0  0  0  0  0  0
   35.8240   28.9140   37.7160 H   0  0  0  0  0  0  0  0  0  0  0  0
   36.9850   26.8630   38.1700 H   0  0  0  0  0  0  0  0  0  0  0  0
   37.5100   25.8240   40.4800 N   0  0  0  0  0  0  0  0  0  0  0  0
   38.9330   25.6780   40.3680 C   0  0  0  0  0  0  0  0  0  0  0  0
   39.4090   24.4150   41.0430 C   0  0  0  0  0  0  0  0  0  0  0  0
   38.7340   24.0980   42.2560 N   0  0  0  0  0  0  0  0  0  0  0  0
   37.3200   24.0510   42.1520 C   0  0  0  0  0  0  0  0  0  0  0  0
   36.8810   24.5300   40.7910 C   0  0  0  0  0  0  0  0  0  0  0  0
   39.1000   25.4820   39.2660 H   0  0  0  0  0  0  0  0  0  0  0  0
   39.5360   26.5710   40.5630 H   0  0  0  0  0  0  0  0  0  0  0  0
   39.3160   23.5310   40.3770 H   0  0  0  0  0  0  0  0  0  0  0  0
   40.4780   24.5800   41.2910 H   0  0  0  0  0  0  0  0  0  0  0  0
   39.1960   23.2740   42.6630 H   0  0  0  0  0  0  0  0  0  0  0  0
   36.8900   24.7860   42.8930 H   0  0  0  0  0  0  0  0  0  0  0  0
   36.9230   23.0500   42.3340 H   0  0  0  0  0  0  0  0  0  0  0  0
   35.7790   24.6170   40.7590 H   0  0  0  0  0  0  0  0  0  0  0  0
   37.2220   23.7710   40.0490 H   0  0  0  0  0  0  0  0  0  0  0  0
   36.5840   27.3550   42.7510 C   0  0  0  0  0  0  0  0  0  0  0  0
   35.5590   27.2000   43.1980 H   0  0  0  0  0  0  0  0  0  0  0  0
   37.0720   26.3830   42.8260 H   0  0  0  0  0  0  0  0  0  0  0  0
   37.3530   28.3800   43.5600 C   0  0  0  0  0  0  0  0  0  0  0  0
   37.2600   28.1060   44.6530 H   0  0  0  0  0  0  0  0  0  0  0  0
   37.0750   29.4090   43.4050 H   0  0  0  0  0  0  0  0  0  0  0  0
   40.8560   29.1520   42.3830 C   0  0  0  0  0  0  0  0  0  0  0  0
   39.4740   29.3020   42.6420 C   0  0  0  0  0  0  0  0  0  0  0  0
   38.8000   28.2490   43.2680 C   0  0  0  0  0  0  0  0  0  0  0  0
   39.5160   27.1270   43.5950 N   0  0  0  0  0  0  0  0  0  0  0  0
   40.8230   27.0240   43.3330 C   0  0  0  0  0  0  0  0  0  0  0  0
   41.4910   28.0280   42.7310 N   0  0  0  0  0  0  0  0  0  0  0  0
   41.3770   29.9700   41.8980 H   0  0  0  0  0  0  0  0  0  0  0  0
   38.9720   30.2120   42.3580 H   0  0  0  0  0  0  0  0  0  0  0  0
   41.6200   25.8150   43.6800 C   0  0  0  0  0  2  0  0  0  0  0  0
   42.5970   25.5620   42.5370 C   0  0  0  0  0  2  0  0  0  0  0  0
   42.3660   26.2230   41.6580 H   0  0  0  0  0  0  0  0  0  0  0  0
  1 26  1  0  0  0  0
  2  1  1  0  0  0  0
  2  7  1  0  0  0  0
  3  2  2  0  0  0  0
  4  5  2  0  0  0  0
  4  3  1  0  0  0  0
  5  6  1  0  0  0  0
  6 11  1  0  0  0  0
  6  1  2  0  0  0  0
  8  3  1  0  0  0  0
  9  4  1  0  0  0  0
 10  5  1  0  0  0  0
 11 16  1  0  0  0  0
 12 11  1  0  0  0  0
 12 18  1  0  0  0  0
 12 13  1  0  0  0  0
 13 20  1  0  0  0  0
 13 14  1  0  0  0  0
 14 21  1  0  0  0  0
 15 14  1  0  0  0  0
 15 23  1  0  0  0  0
 15 22  1  0  0  0  0
 16 15  1  0  0  0  0
 17 12  1  0  0  0  0
 19 13  1  0  0  0  0
 24 16  1  0  0  0  0
 25 16  1  0  0  0  0
 26 28  1  0  0  0  0
 26 27  1  0  0  0  0
 26 29  1  0  0  0  0
 29 30  1  0  0  0  0
 31 29  1  0  0  0  0
 32 33  2  0  0  0  0
 32 37  1  0  0  0  0
 33 34  1  0  0  0  0
 34 29  1  0  0  0  0
 34 35  2  0  0  0  0
 36 35  1  0  0  0  0
 36 40  1  0  0  0  0
 37 36  2  0  0  0  0
 38 32  1  0  0  0  0
 39 33  1  0  0  0  0
 41 40  1  0  0  0  0
 42 41  1  0  0  0  0
M  END
>  <minimizedAffinity>
-5.08788872

$$$$
