
 OpenBabel03252509233D

 21 22  0  0  1  0  0  0  0  0999 V2000
   44.6340   35.4170   45.1520 C   0  0  0  0  0  0  0  0  0  0  0  0
   45.1120   35.7120   43.8370 C   0  0  0  0  0  0  0  0  0  0  0  0
   46.0680   34.8480   43.3730 C   0  0  0  0  0  0  0  0  0  0  0  0
   46.5340   33.7750   44.1280 N   0  0  0  0  0  0  0  0  0  0  0  0
   46.0440   33.5590   45.3510 C   0  0  0  0  0  0  0  0  0  0  0  0
   45.0910   34.3790   45.8680 N   0  0  0  0  0  0  0  0  0  0  0  0
   43.8760   36.0730   45.5620 H   0  0  0  0  0  0  0  0  0  0  0  0
   46.4970   32.6950   45.8170 H   0  0  0  0  0  0  0  0  0  0  0  0
   46.5620   35.0320   41.9560 C   0  0  1  0  0  0  0  0  0  0  0  0
   48.0870   35.3160   41.9550 C   0  0  0  0  0  0  0  0  0  0  0  0
   47.3960   34.0420   41.3810 C   0  0  2  0  0  0  0  0  0  0  0  0
   45.9960   35.7720   41.3620 H   0  0  0  0  0  0  0  0  0  0  0  0
   48.4740   36.0100   41.1950 H   0  0  0  0  0  0  0  0  0  0  0  0
   48.6560   35.2120   42.8730 H   0  0  0  0  0  0  0  0  0  0  0  0
   47.7470   33.1200   41.8870 H   0  0  0  0  0  0  0  0  0  0  0  0
   47.4020   33.9280   39.8630 C   0  0  0  0  0  2  0  0  0  0  0  0
   46.1530   33.2450   39.3930 C   0  0  0  0  0  2  0  0  0  0  0  0
   46.3930   32.2080   39.1030 H   0  0  0  0  0  0  0  0  0  0  0  0
   44.6600   36.8320   43.0850 N   0  0  0  0  0  0  0  0  0  0  0  0
   44.5810   37.7670   43.5820 H   0  0  0  0  0  0  0  0  0  0  0  0
   44.4040   36.8140   42.0980 H   0  0  0  0  0  0  0  0  0  0  0  0
  1  7  1  0  0  0  0
  1  6  1  0  0  0  0
  2  1  2  0  0  0  0
  3  2  1  0  0  0  0
  3  4  2  0  0  0  0
  4  5  1  0  0  0  0
  5  8  1  0  0  0  0
  5  6  2  0  0  0  0
  9 12  1  6  0  0  0
  9  3  1  0  0  0  0
 10  9  1  0  0  0  0
 10 14  1  0  0  0  0
 11 15  1  1  0  0  0
 11 10  1  0  0  0  0
 11  9  1  0  0  0  0
 13 10  1  0  0  0  0
 16 11  1  0  0  0  0
 17 16  1  0  0  0  0
 18 17  1  0  0  0  0
 19 20  1  0  0  0  0
 19  2  1  0  0  0  0
 21 19  1  0  0  0  0
M  END
>  <minimizedAffinity>
-4.26326036

>  <minimizedRMSD>
0.268271506

$$$$
