
 OpenBabel03252506043D

 37 40  0  0  0  0  0  0  0  0999 V2000
   44.8320   36.0140   43.2130 Cl  0  0  0  0  0  0  0  0  0  0  0  0
   45.5740   34.7620   44.1690 C   0  0  0  0  0  0  0  0  0  0  0  0
   46.6750   34.0790   43.6930 C   0  0  0  0  0  0  0  0  0  0  0  0
   47.1790   33.1110   44.5340 C   0  0  0  0  0  0  0  0  0  0  0  0
   46.6710   32.7900   45.7790 C   0  0  0  0  0  0  0  0  0  0  0  0
   45.5720   33.4940   46.2170 C   0  0  0  0  0  0  0  0  0  0  0  0
   44.9620   33.0560   47.7970 Cl  0  0  0  0  0  0  0  0  0  0  0  0
   45.0360   34.4640   45.4220 C   0  0  0  0  0  0  0  0  0  0  0  0
   48.0560   32.5720   44.1470 H   0  0  0  0  0  0  0  0  0  0  0  0
   44.1650   35.0040   45.7980 H   0  0  0  0  0  0  0  0  0  0  0  0
   47.3580   31.7230   46.5130 C   0  0  0  0  0  0  0  0  0  0  0  0
   47.4820   30.4380   46.0340 C   0  0  0  0  0  0  0  0  0  0  0  0
   48.1240   29.4290   46.7120 C   0  0  0  0  0  0  0  0  0  0  0  0
   48.6850   29.6910   47.9420 C   0  0  0  0  0  0  0  0  0  0  0  0
   49.3060   28.6920   48.5870 N   0  0  0  0  0  0  0  0  0  0  0  0
   49.8810   28.8630   49.7950 C   0  0  0  0  0  0  0  0  0  0  0  0
   49.8010   30.1350   50.3490 C   0  0  0  0  0  0  0  0  0  0  0  0
   49.1670   31.1500   49.6910 C   0  0  0  0  0  0  0  0  0  0  0  0
   48.5860   30.9660   48.4630 C   0  0  0  0  0  0  0  0  0  0  0  0
   47.9360   31.9650   47.7650 C   0  0  0  0  0  0  0  0  0  0  0  0
   47.0250   30.2850   45.0650 H   0  0  0  0  0  0  0  0  0  0  0  0
   48.1600   28.4570   46.2380 H   0  0  0  0  0  0  0  0  0  0  0  0
   50.3520   27.9990   50.2220 H   0  0  0  0  0  0  0  0  0  0  0  0
   50.2770   30.2340   51.3260 H   0  0  0  0  0  0  0  0  0  0  0  0
   49.1230   32.1380   50.1590 H   0  0  0  0  0  0  0  0  0  0  0  0
   47.8840   32.9560   48.2180 H   0  0  0  0  0  0  0  0  0  0  0  0
   48.8330   35.5440   41.1480 C   0  0  0  0  0  0  0  0  0  0  0  0
   48.4140   34.9460   39.9740 C   0  0  0  0  0  0  0  0  0  0  0  0
   47.3600   34.0110   40.0520 C   0  0  0  0  0  0  0  0  0  0  0  0
   46.8200   33.7560   41.2710 N   0  0  0  0  0  0  0  0  0  0  0  0
   47.2590   34.3630   42.4000 C   0  0  0  0  0  0  0  0  0  0  0  0
   48.2600   35.2480   42.3270 N   0  0  0  0  0  0  0  0  0  0  0  0
   49.6360   36.2520   41.0740 H   0  0  0  0  0  0  0  0  0  0  0  0
   48.8550   35.1650   39.0280 H   0  0  0  0  0  0  0  0  0  0  0  0
   46.9080   33.3710   38.8070 C   0  0  0  0  0  0  0  0  0  0  0  0
   47.6580   33.8720   37.5860 C   0  0  0  0  0  0  0  0  0  0  0  0
   48.2170   33.0850   37.0760 H   0  0  0  0  0  0  0  0  0  0  0  0
  1  2  1  0  0  0  0
  2  8  1  0  0  0  0
  3  2  2  0  0  0  0
  3  4  1  0  0  0  0
  4  5  2  0  0  0  0
  5  6  1  0  0  0  0
  5 11  1  0  0  0  0
  6  7  1  0  0  0  0
  8 10  1  0  0  0  0
  8  6  2  0  0  0  0
  9  4  1  0  0  0  0
 11 20  1  0  0  0  0
 12 11  2  0  0  0  0
 12 13  1  0  0  0  0
 13 14  2  0  0  0  0
 14 19  1  0  0  0  0
 14 15  1  0  0  0  0
 15 16  2  0  0  0  0
 16 23  1  0  0  0  0
 16 17  1  0  0  0  0
 17 24  1  0  0  0  0
 18 25  1  0  0  0  0
 18 17  2  0  0  0  0
 19 18  1  0  0  0  0
 20 26  1  0  0  0  0
 20 19  2  0  0  0  0
 21 12  1  0  0  0  0
 22 13  1  0  0  0  0
 27 32  1  0  0  0  0
 28 29  1  0  0  0  0
 28 27  2  0  0  0  0
 29 30  2  0  0  0  0
 30 31  1  0  0  0  0
 31  3  1  0  0  0  0
 32 31  2  0  0  0  0
 33 27  1  0  0  0  0
 34 28  1  0  0  0  0
 35 29  1  0  0  0  0
 36 35  1  0  0  0  0
 37 36  1  0  0  0  0
M  END
>  <minimizedAffinity>
-6.73837137

>  <minimizedRMSD>
0.259491891

$$$$
