
 OpenBabel03252509223D

 21 22  0  0  1  0  0  0  0  0999 V2000
   44.7110   35.2580   45.0850 C   0  0  0  0  0  0  0  0  0  0  0  0
   45.2020   35.6270   43.7930 C   0  0  0  0  0  0  0  0  0  0  0  0
   46.2170   34.8360   43.3240 C   0  0  0  0  0  0  0  0  0  0  0  0
   46.7260   33.7640   44.0540 N   0  0  0  0  0  0  0  0  0  0  0  0
   46.2210   33.4780   45.2550 C   0  0  0  0  0  0  0  0  0  0  0  0
   45.2100   34.2230   45.7760 N   0  0  0  0  0  0  0  0  0  0  0  0
   43.9070   35.8550   45.4970 H   0  0  0  0  0  0  0  0  0  0  0  0
   46.7110   32.6240   45.7030 H   0  0  0  0  0  0  0  0  0  0  0  0
   46.7320   35.0970   41.9270 C   0  0  1  0  0  0  0  0  0  0  0  0
   48.2420   35.4500   41.9730 C   0  0  0  0  0  0  0  0  0  0  0  0
   47.6230   34.1700   41.3350 C   0  0  2  0  0  0  0  0  0  0  0  0
   46.1450   35.8330   41.3490 H   0  0  0  0  0  0  0  0  0  0  0  0
   48.6130   36.1900   41.2490 H   0  0  0  0  0  0  0  0  0  0  0  0
   48.7950   35.3360   42.8990 H   0  0  0  0  0  0  0  0  0  0  0  0
   48.0050   33.2450   41.8130 H   0  0  0  0  0  0  0  0  0  0  0  0
   47.6670   34.1150   39.8140 C   0  0  0  0  0  2  0  0  0  0  0  0
   48.2450   32.8100   39.3610 C   0  0  0  0  0  2  0  0  0  0  0  0
   49.2810   32.9710   39.0160 H   0  0  0  0  0  0  0  0  0  0  0  0
   44.7040   36.7460   43.0690 N   0  0  0  0  0  0  0  0  0  0  0  0
   44.5600   37.6560   43.5950 H   0  0  0  0  0  0  0  0  0  0  0  0
   44.4730   36.7480   42.0760 H   0  0  0  0  0  0  0  0  0  0  0  0
  1  7  1  0  0  0  0
  1  6  1  0  0  0  0
  2  1  2  0  0  0  0
  3  2  1  0  0  0  0
  3  4  2  0  0  0  0
  4  5  1  0  0  0  0
  5  8  1  0  0  0  0
  5  6  2  0  0  0  0
  9 12  1  6  0  0  0
  9 10  1  0  0  0  0
  9  3  1  0  0  0  0
 10 14  1  0  0  0  0
 11 15  1  1  0  0  0
 11  9  1  0  0  0  0
 11 10  1  0  0  0  0
 13 10  1  0  0  0  0
 16 11  1  0  0  0  0
 17 16  1  0  0  0  0
 18 17  1  0  0  0  0
 19 20  1  0  0  0  0
 19  2  1  0  0  0  0
 21 19  1  0  0  0  0
M  END
>  <minimizedAffinity>
-4.2122035

>  <minimizedRMSD>
0.657227337

$$$$
