REMARK  Name = 
REMARK  4 active torsions:
REMARK  status: ('A' for Active; 'I' for Inactive)
REMARK    1  A    between atoms: C_2  and  N_10
REMARK    2  A    between atoms: C_3  and  C_7
REMARK    3  A    between atoms: C_9  and  C_19
REMARK    4  A    between atoms: C_19  and  C_20
REMARK                            x       y       z     vdW  Elec       q    Type
REMARK                         _______ _______ _______ _____ _____    ______ ____
ROOT
ATOM      1  C   UNL     1      44.623  35.461  45.130  0.00  0.00    +0.000 A 
ATOM      2  C   UNL     1      45.099  35.713  43.805  0.00  0.00    +0.000 A 
ATOM      3  C   UNL     1      46.043  34.825  43.362  0.00  0.00    +0.000 A 
ATOM      4  N   UNL     1      46.499  33.768  44.146  0.00  0.00    +0.000 NA
ATOM      5  C   UNL     1      46.011  33.593  45.376  0.00  0.00    +0.000 A 
ATOM      6  N   UNL     1      45.070  34.439  45.873  0.00  0.00    +0.000 NA
ATOM      7  H   UNL     1      43.874  36.138  45.523  0.00  0.00    +0.000 HD
ATOM      8  H   UNL     1      46.455  32.737  45.865  0.00  0.00    +0.000 HD
ENDROOT
BRANCH   3   9
ATOM      9  C   UNL     1      46.533  34.962  41.939  0.00  0.00    +0.000 C 
ATOM     10  C   UNL     1      48.050  35.289  41.926  0.00  0.00    +0.000 C 
ATOM     11  C   UNL     1      47.396  33.973  41.407  0.00  0.00    +0.000 C 
ATOM     12  H   UNL     1      45.947  35.660  41.314  0.00  0.00    +0.000 HD
ATOM     13  H   UNL     1      48.418  35.961  41.137  0.00  0.00    +0.000 HD
ATOM     14  H   UNL     1      48.620  35.240  42.848  0.00  0.00    +0.000 HD
ATOM     15  H   UNL     1      47.772  33.083  41.952  0.00  0.00    +0.000 HD
BRANCH  11  16
ATOM     16  C   UNL     1      47.407  33.794  39.895  0.00  0.00    +0.000 C 
BRANCH  16  17
ATOM     17  C   UNL     1      48.370  32.713  39.510  0.00  0.00    +0.000 C 
ATOM     18  H   UNL     1      49.282  33.172  39.091  0.00  0.00    +0.000 HD
ENDBRANCH  16  17
ENDBRANCH  11  16
ENDBRANCH   3   9
BRANCH   2  19
ATOM     19  N   UNL     1      44.658  36.817  43.023  0.00  0.00    +0.000 N 
ATOM     20  H   UNL     1      44.592  37.766  43.493  0.00  0.00    +0.000 HD
ATOM     21  H   UNL     1      44.398  36.774  42.038  0.00  0.00    +0.000 HD
ENDBRANCH   2  19
TORSDOF 4
