
 OpenBabel03252504443D

 15 15  0  0  0  0  0  0  0  0999 V2000
   45.5970   34.9790   43.8790 C   0  0  0  0  0  0  0  0  0  0  0  0
   45.9600   33.8600   44.6560 C   0  0  0  0  0  0  0  0  0  0  0  0
   47.0790   33.1140   44.2430 C   0  0  0  0  0  0  0  0  0  0  0  0
   47.7440   33.5150   43.1190 N   0  0  0  0  0  0  0  0  0  0  0  0
   47.3500   34.5980   42.4110 C   0  0  0  0  0  0  0  0  0  0  0  0
   46.2840   35.3270   42.7860 N   0  0  0  0  0  0  0  0  0  0  0  0
   45.3980   33.5830   45.5410 H   0  0  0  0  0  0  0  0  0  0  0  0
   47.4010   32.2390   44.8090 H   0  0  0  0  0  0  0  0  0  0  0  0
   44.4080   35.7640   44.3250 C   0  0  0  0  0  0  0  0  0  0  0  0
   44.3600   35.6880   45.4370 H   0  0  0  0  0  0  0  0  0  0  0  0
   43.5180   35.2050   43.9570 H   0  0  0  0  0  0  0  0  0  0  0  0
   44.4460   36.8160   44.0030 H   0  0  0  0  0  0  0  0  0  0  0  0
   48.1600   34.9390   41.1950 C   0  0  0  0  0  0  0  0  0  0  0  0
   49.1460   36.0280   41.4690 C   0  0  0  0  0  0  0  0  0  0  0  0
   48.7990   36.6960   42.2970 H   0  0  0  0  0  0  0  0  0  0  0  0
  1  9  1  0  0  0  0
  1  2  1  0  0  0  0
  2  7  1  0  0  0  0
  3  2  2  0  0  0  0
  3  8  1  0  0  0  0
  4  3  1  0  0  0  0
  5  6  1  0  0  0  0
  5  4  2  0  0  0  0
  6  1  2  0  0  0  0
  9 10  1  0  0  0  0
 11  9  1  0  0  0  0
 12  9  1  0  0  0  0
 13 14  1  0  0  0  0
 13  5  1  0  0  0  0
 14 15  1  0  0  0  0
M  END
>  <minimizedAffinity>
-3.56921315

>  <minimizedRMSD>
4.12103796

$$$$
