
 OpenBabel03252509233D

 21 22  0  0  1  0  0  0  0  0999 V2000
   44.5290   35.5590   45.1140 C   0  0  0  0  0  0  0  0  0  0  0  0
   45.1030   35.6930   43.8110 C   0  0  0  0  0  0  0  0  0  0  0  0
   46.0490   34.7500   43.5070 C   0  0  0  0  0  0  0  0  0  0  0  0
   46.4170   33.7480   44.4010 N   0  0  0  0  0  0  0  0  0  0  0  0
   45.8400   33.6830   45.6020 C   0  0  0  0  0  0  0  0  0  0  0  0
   44.8920   34.5880   45.9640 N   0  0  0  0  0  0  0  0  0  0  0  0
   43.7750   36.2830   45.3990 H   0  0  0  0  0  0  0  0  0  0  0  0
   46.2230   32.8570   46.1870 H   0  0  0  0  0  0  0  0  0  0  0  0
   46.6400   34.7620   42.1160 C   0  0  1  0  0  0  0  0  0  0  0  0
   48.1760   34.9700   42.1910 C   0  0  0  0  0  0  0  0  0  0  0  0
   47.4530   33.6790   41.7020 C   0  0  2  0  0  0  0  0  0  0  0  0
   46.1540   35.4630   41.4140 H   0  0  0  0  0  0  0  0  0  0  0  0
   48.6480   35.5630   41.3940 H   0  0  0  0  0  0  0  0  0  0  0  0
   48.6790   34.9340   43.1520 H   0  0  0  0  0  0  0  0  0  0  0  0
   47.7200   32.7980   42.3210 H   0  0  0  0  0  0  0  0  0  0  0  0
   47.5490   33.4080   40.2070 C   0  0  0  0  0  2  0  0  0  0  0  0
   48.1580   34.5840   39.5060 C   0  0  0  0  0  2  0  0  0  0  0  0
   47.3660   35.1430   38.9790 H   0  0  0  0  0  0  0  0  0  0  0  0
   44.7510   36.7430   42.9170 N   0  0  0  0  0  0  0  0  0  0  0  0
   44.6810   37.7270   43.3060 H   0  0  0  0  0  0  0  0  0  0  0  0
   44.5590   36.6280   41.9220 H   0  0  0  0  0  0  0  0  0  0  0  0
  1  7  1  0  0  0  0
  1  6  1  0  0  0  0
  2  1  2  0  0  0  0
  3  2  1  0  0  0  0
  3  4  2  0  0  0  0
  4  5  1  0  0  0  0
  5  6  2  0  0  0  0
  5  8  1  0  0  0  0
  9 12  1  6  0  0  0
  9 10  1  0  0  0  0
  9  3  1  0  0  0  0
 10 14  1  0  0  0  0
 11  9  1  0  0  0  0
 11 10  1  0  0  0  0
 11 15  1  1  0  0  0
 13 10  1  0  0  0  0
 16 11  1  0  0  0  0
 17 16  1  0  0  0  0
 18 17  1  0  0  0  0
 19 20  1  0  0  0  0
 19  2  1  0  0  0  0
 21 19  1  0  0  0  0
M  END
>  <minimizedAffinity>
-4.23360586

>  <minimizedRMSD>
0.345754206

$$$$
