
 OpenBabel03242515253D

 25 26  0  0  0  0  0  0  0  0999 V2000
   43.6820   35.5770   41.1220 C   0  0  0  0  0  0  0  0  0  0  0  0
   43.6390   36.6560   41.2260 H   0  0  0  0  0  0  0  0  0  0  0  0
   44.3600   35.3660   40.2690 H   0  0  0  0  0  0  0  0  0  0  0  0
   42.3510   35.0270   40.8670 N   0  0  0  0  0  0  0  0  0  0  0  0
   41.3410   35.3190   41.6940 C   0  0  0  0  0  0  0  0  0  0  0  0
   40.1010   34.7630   41.3950 C   0  0  0  0  0  0  0  0  0  0  0  0
   39.9170   33.9550   40.3100 C   0  0  0  0  0  0  0  0  0  0  0  0
   38.7870   33.4670   40.0650 O   0  0  0  0  0  0  0  0  0  0  0  0
   40.9770   33.6890   39.5030 N   0  0  0  0  0  0  0  0  0  0  0  0
   42.1910   34.2270   39.7850 C   0  0  0  0  0  0  0  0  0  0  0  0
   43.1290   33.9350   38.9880 O   0  0  0  0  0  0  0  0  0  0  0  0
   41.5080   35.9610   42.5480 H   0  0  0  0  0  0  0  0  0  0  0  0
   39.2980   35.0190   42.0870 H   0  0  0  0  0  0  0  0  0  0  0  0
   40.8610   33.0710   38.6630 H   0  0  0  0  0  0  0  0  0  0  0  0
   44.4530   35.7610   43.4310 C   0  0  0  0  0  0  0  0  0  0  0  0
   44.2290   34.9430   42.3110 C   0  0  0  0  0  0  0  0  0  0  0  0
   44.5560   33.6110   42.4630 C   0  0  0  0  0  0  0  0  0  0  0  0
   45.0560   33.1680   43.6280 N   0  0  0  0  0  0  0  0  0  0  0  0
   45.2540   34.0020   44.6820 C   0  0  0  0  0  0  0  0  0  0  0  0
   44.9540   35.3260   44.6060 N   0  0  0  0  0  0  0  0  0  0  0  0
   44.2150   36.8330   43.3800 H   0  0  0  0  0  0  0  0  0  0  0  0
   44.3800   32.9850   41.5940 H   0  0  0  0  0  0  0  0  0  0  0  0
   45.8040   33.5240   45.9730 C   0  0  0  0  0  0  0  0  0  0  0  0
   46.8580   32.4870   45.7040 C   0  0  0  0  0  0  0  0  0  0  0  0
   46.4570   31.7770   44.9350 H   0  0  0  0  0  0  0  0  0  0  0  0
  1  2  1  0  0  0  0
  1 16  1  0  0  0  0
  3  1  1  0  0  0  0
  4  1  1  0  0  0  0
  4  5  1  0  0  0  0
  5 12  1  0  0  0  0
  6  5  2  0  0  0  0
  6 13  1  0  0  0  0
  7  6  1  0  0  0  0
  8  7  2  0  0  0  0
  9 10  1  0  0  0  0
  9  7  1  0  0  0  0
 10  4  1  0  0  0  0
 11 10  2  0  0  0  0
 14  9  1  0  0  0  0
 15 20  1  0  0  0  0
 16 17  1  0  0  0  0
 16 15  2  0  0  0  0
 17 18  2  0  0  0  0
 18 19  1  0  0  0  0
 19 23  1  0  0  0  0
 20 19  2  0  0  0  0
 21 15  1  0  0  0  0
 22 17  1  0  0  0  0
 24 23  1  0  0  0  0
 25 24  1  0  0  0  0
M  END
>  <minimizedAffinity>
-4.59179401

>  <minimizedRMSD>
0.989748418

$$$$
