
 OpenBabel03252508353D

 25 26  0  0  0  0  0  0  0  0999 V2000
   46.2860   34.6170   41.4240 C   0  0  0  0  0  0  0  0  0  0  0  0
   45.4510   34.0370   40.4980 C   0  0  0  0  0  0  0  0  0  0  0  0
   46.0140   33.5660   39.3550 C   0  0  0  0  0  0  0  0  0  0  0  0
   47.3670   33.6410   39.0800 C   0  0  0  0  0  0  0  0  0  0  0  0
   48.1800   34.2320   40.0360 C   0  0  0  0  0  0  0  0  0  0  0  0
   47.6540   34.7190   41.1990 C   0  0  0  0  0  0  0  0  0  0  0  0
   45.3570   33.1010   38.6130 H   0  0  0  0  0  0  0  0  0  0  0  0
   47.7520   33.2460   38.1470 H   0  0  0  0  0  0  0  0  0  0  0  0
   49.2470   34.3010   39.8400 H   0  0  0  0  0  0  0  0  0  0  0  0
   41.8790   35.0480   41.2030 C   0  0  0  0  0  0  0  0  0  0  0  0
   43.2430   35.1310   40.8820 C   0  0  0  0  0  0  0  0  0  0  0  0
   44.0290   33.9800   40.8280 C   0  0  0  0  0  0  0  0  0  0  0  0
   43.3960   32.8200   41.0980 N   0  0  0  0  0  0  0  0  0  0  0  0
   42.0980   32.7480   41.4020 C   0  0  0  0  0  0  0  0  0  0  0  0
   41.3450   33.8700   41.4540 N   0  0  0  0  0  0  0  0  0  0  0  0
   41.1270   36.2400   41.2480 N   0  0  0  0  0  0  0  0  0  0  0  0
   43.7190   36.0960   40.6700 H   0  0  0  0  0  0  0  0  0  0  0  0
   41.5810   31.8020   41.6260 H   0  0  0  0  0  0  0  0  0  0  0  0
   41.4360   37.1450   40.8270 H   0  0  0  0  0  0  0  0  0  0  0  0
   40.1920   36.2180   41.7350 H   0  0  0  0  0  0  0  0  0  0  0  0
   45.3600   35.5660   43.6810 N   0  0  0  0  0  0  0  0  0  0  0  0
   45.7700   35.1460   42.6690 C   0  0  0  0  0  0  0  0  0  0  0  0
   48.5130   35.3580   42.2410 C   0  0  0  0  0  0  0  0  0  0  0  0
   49.8390   34.6830   42.3960 C   0  0  0  0  0  0  0  0  0  0  0  0
   50.6910   35.4030   42.2740 H   0  0  0  0  0  0  0  0  0  0  0  0
  1 22  1  0  0  0  0
  2 12  1  0  0  0  0
  2  1  2  0  0  0  0
  3  2  1  0  0  0  0
  4  3  2  0  0  0  0
  4  5  1  0  0  0  0
  5  6  2  0  0  0  0
  6  1  1  0  0  0  0
  6 23  1  0  0  0  0
  7  3  1  0  0  0  0
  8  4  1  0  0  0  0
  9  5  1  0  0  0  0
 10 16  1  0  0  0  0
 10 15  1  0  0  0  0
 11 10  2  0  0  0  0
 12 11  1  0  0  0  0
 12 13  2  0  0  0  0
 13 14  1  0  0  0  0
 14 15  2  0  0  0  0
 14 18  1  0  0  0  0
 16 20  1  0  0  0  0
 17 11  1  0  0  0  0
 19 16  1  0  0  0  0
 22 21  3  0  0  0  0
 23 24  1  0  0  0  0
 25 24  1  0  0  0  0
M  END
>  <minimizedAffinity>
-4.9010601

>  <minimizedRMSD>
3.49249601

$$$$
