
 OpenBabel03252509233D

 21 22  0  0  1  0  0  0  0  0999 V2000
   44.7320   35.2340   45.0670 C   0  0  0  0  0  0  0  0  0  0  0  0
   45.2250   35.6130   43.7790 C   0  0  0  0  0  0  0  0  0  0  0  0
   46.2450   34.8290   43.3080 C   0  0  0  0  0  0  0  0  0  0  0  0
   46.7560   33.7560   44.0320 N   0  0  0  0  0  0  0  0  0  0  0  0
   46.2480   33.4590   45.2310 C   0  0  0  0  0  0  0  0  0  0  0  0
   45.2330   34.1970   45.7520 N   0  0  0  0  0  0  0  0  0  0  0  0
   43.9230   35.8250   45.4800 H   0  0  0  0  0  0  0  0  0  0  0  0
   46.7410   32.6050   45.6740 H   0  0  0  0  0  0  0  0  0  0  0  0
   46.7630   35.1020   41.9150 C   0  0  1  0  0  0  0  0  0  0  0  0
   48.2700   35.4730   41.9690 C   0  0  0  0  0  0  0  0  0  0  0  0
   47.6690   34.1880   41.3230 C   0  0  2  0  0  0  0  0  0  0  0  0
   46.1710   35.8340   41.3370 H   0  0  0  0  0  0  0  0  0  0  0  0
   48.6350   36.2200   41.2500 H   0  0  0  0  0  0  0  0  0  0  0  0
   48.8190   35.3610   42.8980 H   0  0  0  0  0  0  0  0  0  0  0  0
   48.0590   33.2650   41.8000 H   0  0  0  0  0  0  0  0  0  0  0  0
   47.7200   34.1400   39.8020 C   0  0  0  0  0  2  0  0  0  0  0  0
   48.4470   32.9100   39.3490 C   0  0  0  0  0  2  0  0  0  0  0  0
   49.4570   33.1910   39.0050 H   0  0  0  0  0  0  0  0  0  0  0  0
   44.7250   36.7340   43.0600 N   0  0  0  0  0  0  0  0  0  0  0  0
   44.5740   37.6400   43.5910 H   0  0  0  0  0  0  0  0  0  0  0  0
   44.4970   36.7420   42.0660 H   0  0  0  0  0  0  0  0  0  0  0  0
  1  7  1  0  0  0  0
  1  6  1  0  0  0  0
  2  1  2  0  0  0  0
  3  2  1  0  0  0  0
  3  4  2  0  0  0  0
  4  5  1  0  0  0  0
  5  8  1  0  0  0  0
  5  6  2  0  0  0  0
  9 12  1  6  0  0  0
  9 10  1  0  0  0  0
  9  3  1  0  0  0  0
 10 14  1  0  0  0  0
 11 15  1  1  0  0  0
 11  9  1  0  0  0  0
 11 10  1  0  0  0  0
 13 10  1  0  0  0  0
 16 11  1  0  0  0  0
 17 16  1  0  0  0  0
 18 17  1  0  0  0  0
 19 20  1  0  0  0  0
 19  2  1  0  0  0  0
 21 19  1  0  0  0  0
M  END
>  <minimizedAffinity>
-4.22868395

>  <minimizedRMSD>
0.326362848

$$$$
