
 OpenBabel03242522223D

 22 23  0  0  0  0  0  0  0  0999 V2000
   44.6960   33.0320   41.4000 Cl  0  0  0  0  0  0  0  0  0  0  0  0
   46.2100   33.8730   41.0700 C   0  0  0  0  0  0  0  0  0  0  0  0
   46.8100   34.6250   42.0590 C   0  0  0  0  0  0  0  0  0  0  0  0
   47.9860   35.2590   41.7540 C   0  0  0  0  0  0  0  0  0  0  0  0
   48.5570   35.1560   40.5030 C   0  0  0  0  0  0  0  0  0  0  0  0
   47.9020   34.3800   39.5430 C   0  0  0  0  0  0  0  0  0  0  0  0
   48.6360   34.2570   37.9590 Cl  0  0  0  0  0  0  0  0  0  0  0  0
   46.7260   33.7280   39.8010 C   0  0  0  0  0  0  0  0  0  0  0  0
   48.4200   35.8430   42.5730 H   0  0  0  0  0  0  0  0  0  0  0  0
   49.4940   35.6780   40.3010 H   0  0  0  0  0  0  0  0  0  0  0  0
   46.2550   33.1390   39.0260 H   0  0  0  0  0  0  0  0  0  0  0  0
   44.5360   35.7020   44.8960 C   0  0  0  0  0  0  0  0  0  0  0  0
   45.1770   35.6560   43.6480 C   0  0  0  0  0  0  0  0  0  0  0  0
   46.1390   34.6810   43.3520 C   0  0  0  0  0  0  0  0  0  0  0  0
   46.3980   33.8050   44.3430 N   0  0  0  0  0  0  0  0  0  0  0  0
   45.7930   33.8380   45.5380 C   0  0  0  0  0  0  0  0  0  0  0  0
   44.8770   34.7750   45.8030 N   0  0  0  0  0  0  0  0  0  0  0  0
   43.7940   36.4680   45.0960 H   0  0  0  0  0  0  0  0  0  0  0  0
   44.9150   36.3950   42.9020 H   0  0  0  0  0  0  0  0  0  0  0  0
   46.1890   32.7970   46.5310 C   0  0  0  0  0  0  0  0  0  0  0  0
   45.2370   32.7710   47.7120 C   0  0  0  0  0  0  0  0  0  0  0  0
   45.3710   31.7680   48.1930 H   0  0  0  0  0  0  0  0  0  0  0  0
  2  1  1  0  0  0  0
  2  3  1  0  0  0  0
  3 14  1  0  0  0  0
  4  3  2  0  0  0  0
  4  9  1  0  0  0  0
  5  4  1  0  0  0  0
  6  8  1  0  0  0  0
  6  5  2  0  0  0  0
  7  6  1  0  0  0  0
  8  2  2  0  0  0  0
 10  5  1  0  0  0  0
 11  8  1  0  0  0  0
 12 18  1  0  0  0  0
 12 17  1  0  0  0  0
 13 12  2  0  0  0  0
 14 13  1  0  0  0  0
 14 15  2  0  0  0  0
 15 16  1  0  0  0  0
 16 17  2  0  0  0  0
 16 20  1  0  0  0  0
 19 13  1  0  0  0  0
 20 21  1  0  0  0  0
 21 22  1  0  0  0  0
M  END
>  <minimizedAffinity>
-5.52733469

>  <minimizedRMSD>
0.231076151

$$$$
