
 OpenBabel03242521483D

 14 14  0  0  0  0  0  0  0  0999 V2000
   44.4970   35.8750   44.7260 C   0  0  0  0  0  0  0  0  0  0  0  0
   45.1240   35.8720   43.4730 C   0  0  0  0  0  0  0  0  0  0  0  0
   46.0700   34.8760   43.2160 C   0  0  0  0  0  0  0  0  0  0  0  0
   46.3230   33.9710   44.1960 N   0  0  0  0  0  0  0  0  0  0  0  0
   45.7030   34.0030   45.3850 C   0  0  0  0  0  0  0  0  0  0  0  0
   44.7940   34.9510   45.6480 N   0  0  0  0  0  0  0  0  0  0  0  0
   43.7610   36.6320   44.9570 H   0  0  0  0  0  0  0  0  0  0  0  0
   44.8670   36.6380   42.7310 H   0  0  0  0  0  0  0  0  0  0  0  0
   46.7280   34.8370   41.9610 N   0  0  0  0  0  0  0  0  0  0  0  0
   47.1150   35.7950   41.7170 H   0  0  0  0  0  0  0  0  0  0  0  0
   46.8450   34.0050   41.3260 H   0  0  0  0  0  0  0  0  0  0  0  0
   46.1540   32.9050   46.2840 C   0  0  0  0  0  0  0  0  0  0  0  0
   45.2920   32.8670   47.5310 C   0  0  0  0  0  0  0  0  0  0  0  0
   45.7440   32.1800   48.2710 H   0  0  0  0  0  0  0  0  0  0  0  0
  1  7  1  0  0  0  0
  1  6  1  0  0  0  0
  2  1  2  0  0  0  0
  3  2  1  0  0  0  0
  3  4  2  0  0  0  0
  4  5  1  0  0  0  0
  5  6  2  0  0  0  0
  5 12  1  0  0  0  0
  8  2  1  0  0  0  0
  9  3  1  0  0  0  0
 10  9  1  0  0  0  0
 11  9  1  0  0  0  0
 12 13  1  0  0  0  0
 13 14  1  0  0  0  0
M  END
>  <minimizedAffinity>
-3.49274635

>  <minimizedRMSD>
0.316143006

$$$$
