
 OpenBabel03252506033D

 22 23  0  0  0  0  0  0  0  0999 V2000
   40.8190   30.6860   42.9250 Cl  0  0  0  0  0  0  0  0  0  0  0  0
   39.2680   30.1930   42.3170 C   0  0  0  0  0  0  0  0  0  0  0  0
   38.7350   30.8010   41.2090 C   0  0  0  0  0  0  0  0  0  0  0  0
   37.5060   30.3420   40.8040 C   0  0  0  0  0  0  0  0  0  0  0  0
   36.7810   29.3450   41.4040 C   0  0  0  0  0  0  0  0  0  0  0  0
   37.3480   28.7550   42.5170 C   0  0  0  0  0  0  0  0  0  0  0  0
   36.4270   27.4720   43.2970 Cl  0  0  0  0  0  0  0  0  0  0  0  0
   38.5880   29.1770   42.9720 C   0  0  0  0  0  0  0  0  0  0  0  0
   37.0740   30.8220   39.9220 H   0  0  0  0  0  0  0  0  0  0  0  0
   39.0100   28.6900   43.8560 H   0  0  0  0  0  0  0  0  0  0  0  0
   39.8410   34.1570   40.2770 C   0  0  0  0  0  0  0  0  0  0  0  0
   40.6920   33.9340   39.1960 C   0  0  0  0  0  0  0  0  0  0  0  0
   40.8890   32.6020   38.7790 C   0  0  0  0  0  0  0  0  0  0  0  0
   40.2420   31.6150   39.4510 N   0  0  0  0  0  0  0  0  0  0  0  0
   39.4270   31.8760   40.4930 C   0  0  0  0  0  0  0  0  0  0  0  0
   39.2190   33.1500   40.9150 N   0  0  0  0  0  0  0  0  0  0  0  0
   39.6340   35.1520   40.6630 H   0  0  0  0  0  0  0  0  0  0  0  0
   41.1570   34.7810   38.7310 H   0  0  0  0  0  0  0  0  0  0  0  0
   41.5370   32.4320   37.9550 H   0  0  0  0  0  0  0  0  0  0  0  0
   35.4500   28.8990   40.9100 C   0  0  0  0  0  2  0  0  0  0  0  0
   35.2650   29.2810   39.4560 C   0  0  0  0  0  2  0  0  0  0  0  0
   35.2100   30.3760   39.4050 H   0  0  0  0  0  0  0  0  0  0  0  0
  2  1  1  0  0  0  0
  2  8  1  0  0  0  0
  3  2  2  0  0  0  0
  4  3  1  0  0  0  0
  4  5  2  0  0  0  0
  5  6  1  0  0  0  0
  6  8  2  0  0  0  0
  6  7  1  0  0  0  0
  8 10  1  0  0  0  0
  9  4  1  0  0  0  0
 11 17  1  0  0  0  0
 11 16  1  0  0  0  0
 12 11  2  0  0  0  0
 13 12  1  0  0  0  0
 13 14  2  0  0  0  0
 14 15  1  0  0  0  0
 15 16  2  0  0  0  0
 15  3  1  0  0  0  0
 18 12  1  0  0  0  0
 19 13  1  0  0  0  0
 20  5  1  0  0  0  0
 21 20  1  0  0  0  0
 22 21  1  0  0  0  0
M  END
>  <minimizedAffinity>
-4.62645578

$$$$

 OpenBabel03252506033D

 22 23  0  0  0  0  0  0  0  0999 V2000
   36.8570   29.6550   38.3030 Cl  0  0  0  0  0  0  0  0  0  0  0  0
   37.2960   29.0370   39.8670 C   0  0  0  0  0  0  0  0  0  0  0  0
   37.9430   29.8420   40.7700 C   0  0  0  0  0  0  0  0  0  0  0  0
   38.2480   29.2630   41.9790 C   0  0  0  0  0  0  0  0  0  0  0  0
   37.9640   27.9750   42.3500 C   0  0  0  0  0  0  0  0  0  0  0  0
   37.3120   27.1940   41.4150 C   0  0  0  0  0  0  0  0  0  0  0  0
   36.9400   25.5370   41.8800 Cl  0  0  0  0  0  0  0  0  0  0  0  0
   36.9780   27.7230   40.1770 C   0  0  0  0  0  0  0  0  0  0  0  0
   38.7640   29.8980   42.7040 H   0  0  0  0  0  0  0  0  0  0  0  0
   36.4620   27.0800   39.4590 H   0  0  0  0  0  0  0  0  0  0  0  0
   39.9610   32.8090   40.0810 C   0  0  0  0  0  0  0  0  0  0  0  0
   39.0150   33.8190   39.9230 C   0  0  0  0  0  0  0  0  0  0  0  0
   37.6550   33.4730   40.0560 C   0  0  0  0  0  0  0  0  0  0  0  0
   37.3440   32.1800   40.3310 N   0  0  0  0  0  0  0  0  0  0  0  0
   38.2930   31.2330   40.4750 C   0  0  0  0  0  0  0  0  0  0  0  0
   39.6100   31.5400   40.3520 N   0  0  0  0  0  0  0  0  0  0  0  0
   41.0300   32.9890   39.9940 H   0  0  0  0  0  0  0  0  0  0  0  0
   39.3600   34.8120   39.7080 H   0  0  0  0  0  0  0  0  0  0  0  0
   36.9340   34.2440   39.9360 H   0  0  0  0  0  0  0  0  0  0  0  0
   38.3260   27.4150   43.6800 C   0  0  0  0  0  2  0  0  0  0  0  0
   39.7570   26.9200   43.6790 C   0  0  0  0  0  2  0  0  0  0  0  0
   39.8090   26.0540   43.0070 H   0  0  0  0  0  0  0  0  0  0  0  0
  1  2  1  0  0  0  0
  2  8  2  0  0  0  0
  2  3  1  0  0  0  0
  3  4  2  0  0  0  0
  4  5  1  0  0  0  0
  4  9  1  0  0  0  0
  5 20  1  0  0  0  0
  6  7  1  0  0  0  0
  6  5  2  0  0  0  0
  8  6  1  0  0  0  0
 10  8  1  0  0  0  0
 11 16  1  0  0  0  0
 12 13  1  0  0  0  0
 12 11  2  0  0  0  0
 13 14  2  0  0  0  0
 14 15  1  0  0  0  0
 15  3  1  0  0  0  0
 16 15  2  0  0  0  0
 17 11  1  0  0  0  0
 18 12  1  0  0  0  0
 19 13  1  0  0  0  0
 21 20  1  0  0  0  0
 22 21  1  0  0  0  0
M  END
>  <minimizedAffinity>
-4.45187759

$$$$

 OpenBabel03252506033D

 22 23  0  0  0  0  0  0  0  0999 V2000
   40.6340   29.3100   41.6190 Cl  0  0  0  0  0  0  0  0  0  0  0  0
   39.5200   27.9840   41.7590 C   0  0  0  0  0  0  0  0  0  0  0  0
   38.2450   28.0980   41.2640 C   0  0  0  0  0  0  0  0  0  0  0  0
   37.4390   26.9970   41.4220 C   0  0  0  0  0  0  0  0  0  0  0  0
   37.7960   25.8170   42.0200 C   0  0  0  0  0  0  0  0  0  0  0  0
   39.0860   25.7380   42.5060 C   0  0  0  0  0  0  0  0  0  0  0  0
   39.5570   24.2260   43.2770 Cl  0  0  0  0  0  0  0  0  0  0  0  0
   39.9460   26.8180   42.3760 C   0  0  0  0  0  0  0  0  0  0  0  0
   36.4210   27.0800   41.0310 H   0  0  0  0  0  0  0  0  0  0  0  0
   40.9620   26.7240   42.7710 H   0  0  0  0  0  0  0  0  0  0  0  0
   37.5080   30.5250   38.6330 C   0  0  0  0  0  0  0  0  0  0  0  0
   36.8850   31.5680   39.3140 C   0  0  0  0  0  0  0  0  0  0  0  0
   36.7140   31.4340   40.7070 C   0  0  0  0  0  0  0  0  0  0  0  0
   37.1650   30.3010   41.3050 N   0  0  0  0  0  0  0  0  0  0  0  0
   37.7630   29.3160   40.6060 C   0  0  0  0  0  0  0  0  0  0  0  0
   37.9410   29.4190   39.2640 N   0  0  0  0  0  0  0  0  0  0  0  0
   37.6800   30.5460   37.5590 H   0  0  0  0  0  0  0  0  0  0  0  0
   36.5640   32.4230   38.7520 H   0  0  0  0  0  0  0  0  0  0  0  0
   36.2390   32.2300   41.2260 H   0  0  0  0  0  0  0  0  0  0  0  0
   36.8670   24.6630   42.1560 C   0  0  0  0  0  2  0  0  0  0  0  0
   36.5580   24.0630   40.8000 C   0  0  0  0  0  2  0  0  0  0  0  0
   35.9760   24.8020   40.2350 H   0  0  0  0  0  0  0  0  0  0  0  0
  1  2  1  0  0  0  0
  2  8  1  0  0  0  0
  3  4  1  0  0  0  0
  3  2  2  0  0  0  0
  4  5  2  0  0  0  0
  5 20  1  0  0  0  0
  5  6  1  0  0  0  0
  6  7  1  0  0  0  0
  8  6  2  0  0  0  0
  8 10  1  0  0  0  0
  9  4  1  0  0  0  0
 11 16  2  0  0  0  0
 11 12  1  0  0  0  0
 12 13  2  0  0  0  0
 13 19  1  0  0  0  0
 13 14  1  0  0  0  0
 15  3  1  0  0  0  0
 15 14  2  0  0  0  0
 16 15  1  0  0  0  0
 17 11  1  0  0  0  0
 18 12  1  0  0  0  0
 21 20  1  0  0  0  0
 22 21  1  0  0  0  0
M  END
>  <minimizedAffinity>
-4.39758968

$$$$

 OpenBabel03252506033D

 22 23  0  0  0  0  0  0  0  0999 V2000
   40.4430   29.9830   38.7570 Cl  0  0  0  0  0  0  0  0  0  0  0  0
   39.6920   29.3380   40.1850 C   0  0  0  0  0  0  0  0  0  0  0  0
   38.8430   30.1160   40.9300 C   0  0  0  0  0  0  0  0  0  0  0  0
   38.2980   29.5170   42.0400 C   0  0  0  0  0  0  0  0  0  0  0  0
   38.5290   28.2320   42.4570 C   0  0  0  0  0  0  0  0  0  0  0  0
   39.3890   27.4780   41.6830 C   0  0  0  0  0  0  0  0  0  0  0  0
   39.6930   25.8250   42.2070 Cl  0  0  0  0  0  0  0  0  0  0  0  0
   39.9690   28.0290   40.5500 C   0  0  0  0  0  0  0  0  0  0  0  0
   37.6210   30.1310   42.6400 H   0  0  0  0  0  0  0  0  0  0  0  0
   40.6460   27.4060   39.9580 H   0  0  0  0  0  0  0  0  0  0  0  0
   37.1890   32.9730   39.3630 C   0  0  0  0  0  0  0  0  0  0  0  0
   37.8880   34.0700   39.8610 C   0  0  0  0  0  0  0  0  0  0  0  0
   38.9500   33.8230   40.7550 C   0  0  0  0  0  0  0  0  0  0  0  0
   39.2310   32.5340   41.0780 N   0  0  0  0  0  0  0  0  0  0  0  0
   38.5280   31.5020   40.5720 C   0  0  0  0  0  0  0  0  0  0  0  0
   37.5010   31.7120   39.7090 N   0  0  0  0  0  0  0  0  0  0  0  0
   36.3580   33.0740   38.6690 H   0  0  0  0  0  0  0  0  0  0  0  0
   37.5900   35.0510   39.5440 H   0  0  0  0  0  0  0  0  0  0  0  0
   39.4820   34.6590   41.1340 H   0  0  0  0  0  0  0  0  0  0  0  0
   37.9030   27.6490   43.6740 C   0  0  0  0  0  2  0  0  0  0  0  0
   36.4380   27.3530   43.4320 C   0  0  0  0  0  2  0  0  0  0  0  0
   35.9210   28.3130   43.3060 H   0  0  0  0  0  0  0  0  0  0  0  0
  1  2  1  0  0  0  0
  2  8  2  0  0  0  0
  2  3  1  0  0  0  0
  3  4  2  0  0  0  0
  4  5  1  0  0  0  0
  4  9  1  0  0  0  0
  5 20  1  0  0  0  0
  6  7  1  0  0  0  0
  6  5  2  0  0  0  0
  8  6  1  0  0  0  0
 10  8  1  0  0  0  0
 11 16  2  0  0  0  0
 11 12  1  0  0  0  0
 12 13  2  0  0  0  0
 13 14  1  0  0  0  0
 13 19  1  0  0  0  0
 15  3  1  0  0  0  0
 15 14  2  0  0  0  0
 16 15  1  0  0  0  0
 17 11  1  0  0  0  0
 18 12  1  0  0  0  0
 21 20  1  0  0  0  0
 22 21  1  0  0  0  0
M  END
>  <minimizedAffinity>
-4.37581396

$$$$

 OpenBabel03252506033D

 22 23  0  0  0  0  0  0  0  0999 V2000
   37.1630   29.7590   38.0950 Cl  0  0  0  0  0  0  0  0  0  0  0  0
   37.4600   29.1090   39.6790 C   0  0  0  0  0  0  0  0  0  0  0  0
   38.0040   29.9000   40.6600 C   0  0  0  0  0  0  0  0  0  0  0  0
   38.2000   29.2970   41.8780 C   0  0  0  0  0  0  0  0  0  0  0  0
   37.9020   27.9960   42.1900 C   0  0  0  0  0  0  0  0  0  0  0  0
   37.3560   27.2290   41.1790 C   0  0  0  0  0  0  0  0  0  0  0  0
   36.9670   25.5560   41.5670 Cl  0  0  0  0  0  0  0  0  0  0  0  0
   37.1340   27.7840   39.9270 C   0  0  0  0  0  0  0  0  0  0  0  0
   38.6340   29.9200   42.6650 H   0  0  0  0  0  0  0  0  0  0  0  0
   36.7000   27.1510   39.1480 H   0  0  0  0  0  0  0  0  0  0  0  0
   37.6380   33.4840   40.0460 C   0  0  0  0  0  0  0  0  0  0  0  0
   38.9520   33.9440   39.9990 C   0  0  0  0  0  0  0  0  0  0  0  0
   39.9860   33.0030   40.1820 C   0  0  0  0  0  0  0  0  0  0  0  0
   39.6440   31.7050   40.3920 N   0  0  0  0  0  0  0  0  0  0  0  0
   38.3580   31.3030   40.4310 C   0  0  0  0  0  0  0  0  0  0  0  0
   37.3430   32.1890   40.2580 N   0  0  0  0  0  0  0  0  0  0  0  0
   36.7820   34.1410   39.9160 H   0  0  0  0  0  0  0  0  0  0  0  0
   39.1200   34.9890   39.8260 H   0  0  0  0  0  0  0  0  0  0  0  0
   40.9870   33.3540   40.1450 H   0  0  0  0  0  0  0  0  0  0  0  0
   38.1430   27.4080   43.5350 C   0  0  0  0  0  2  0  0  0  0  0  0
   39.5880   26.9790   43.6790 C   0  0  0  0  0  2  0  0  0  0  0  0
   39.7550   26.1390   42.9930 H   0  0  0  0  0  0  0  0  0  0  0  0
  1  2  1  0  0  0  0
  2  8  2  0  0  0  0
  2  3  1  0  0  0  0
  3  4  2  0  0  0  0
  4  5  1  0  0  0  0
  4  9  1  0  0  0  0
  5 20  1  0  0  0  0
  6  7  1  0  0  0  0
  6  5  2  0  0  0  0
  8  6  1  0  0  0  0
 10  8  1  0  0  0  0
 11 16  1  0  0  0  0
 12 11  2  0  0  0  0
 12 13  1  0  0  0  0
 13 14  2  0  0  0  0
 14 15  1  0  0  0  0
 15  3  1  0  0  0  0
 16 15  2  0  0  0  0
 17 11  1  0  0  0  0
 18 12  1  0  0  0  0
 19 13  1  0  0  0  0
 20 21  1  0  0  0  0
 22 21  1  0  0  0  0
M  END
>  <minimizedAffinity>
-4.36495447

$$$$

 OpenBabel03252506033D

 22 23  0  0  0  0  0  0  0  0999 V2000
   36.6830   31.5420   40.0550 Cl  0  0  0  0  0  0  0  0  0  0  0  0
   37.4740   30.3600   41.0540 C   0  0  0  0  0  0  0  0  0  0  0  0
   38.8430   30.3230   41.1280 C   0  0  0  0  0  0  0  0  0  0  0  0
   39.3740   29.3550   41.9450 C   0  0  0  0  0  0  0  0  0  0  0  0
   38.6640   28.4400   42.6770 C   0  0  0  0  0  0  0  0  0  0  0  0
   37.2880   28.5060   42.5780 C   0  0  0  0  0  0  0  0  0  0  0  0
   36.3620   27.3370   43.5150 Cl  0  0  0  0  0  0  0  0  0  0  0  0
   36.6940   29.4640   41.7690 C   0  0  0  0  0  0  0  0  0  0  0  0
   40.4650   29.3180   42.0090 H   0  0  0  0  0  0  0  0  0  0  0  0
   35.6020   29.4910   41.7120 H   0  0  0  0  0  0  0  0  0  0  0  0
   40.8540   33.2760   40.3560 C   0  0  0  0  0  0  0  0  0  0  0  0
   41.2910   33.0430   39.0550 C   0  0  0  0  0  0  0  0  0  0  0  0
   40.8870   31.8460   38.4290 C   0  0  0  0  0  0  0  0  0  0  0  0
   40.0960   30.9910   39.1270 N   0  0  0  0  0  0  0  0  0  0  0  0
   39.6960   31.2550   40.3870 C   0  0  0  0  0  0  0  0  0  0  0  0
   40.0710   32.4010   41.0130 N   0  0  0  0  0  0  0  0  0  0  0  0
   41.1180   34.1720   40.9120 H   0  0  0  0  0  0  0  0  0  0  0  0
   41.9130   33.7810   38.5870 H   0  0  0  0  0  0  0  0  0  0  0  0
   41.2200   31.6700   37.4360 H   0  0  0  0  0  0  0  0  0  0  0  0
   39.3080   27.4150   43.5420 C   0  0  0  0  0  2  0  0  0  0  0  0
   39.7750   26.2360   42.7150 C   0  0  0  0  0  2  0  0  0  0  0  0
   38.8830   25.7280   42.3280 H   0  0  0  0  0  0  0  0  0  0  0  0
  1  2  1  0  0  0  0
  2  3  2  0  0  0  0
  2  8  1  0  0  0  0
  3  4  1  0  0  0  0
  4  9  1  0  0  0  0
  4  5  2  0  0  0  0
  5 20  1  0  0  0  0
  6  5  1  0  0  0  0
  6  7  1  0  0  0  0
  8  6  2  0  0  0  0
 10  8  1  0  0  0  0
 11 17  1  0  0  0  0
 11 16  1  0  0  0  0
 12 11  2  0  0  0  0
 13 12  1  0  0  0  0
 13 14  2  0  0  0  0
 14 15  1  0  0  0  0
 15 16  2  0  0  0  0
 15  3  1  0  0  0  0
 18 12  1  0  0  0  0
 19 13  1  0  0  0  0
 21 20  1  0  0  0  0
 22 21  1  0  0  0  0
M  END
>  <minimizedAffinity>
-4.34259796

$$$$

 OpenBabel03252506033D

 22 23  0  0  0  0  0  0  0  0999 V2000
   35.4920   28.9080   41.0300 Cl  0  0  0  0  0  0  0  0  0  0  0  0
   36.7760   30.0650   40.8540 C   0  0  0  0  0  0  0  0  0  0  0  0
   38.0530   29.7430   41.2380 C   0  0  0  0  0  0  0  0  0  0  0  0
   38.9990   30.7230   41.0580 C   0  0  0  0  0  0  0  0  0  0  0  0
   38.7770   31.9710   40.5370 C   0  0  0  0  0  0  0  0  0  0  0  0
   37.4800   32.2610   40.1620 C   0  0  0  0  0  0  0  0  0  0  0  0
   37.1810   33.8610   39.4910 Cl  0  0  0  0  0  0  0  0  0  0  0  0
   36.4820   31.3100   40.3190 C   0  0  0  0  0  0  0  0  0  0  0  0
   40.0200   30.4750   41.3620 H   0  0  0  0  0  0  0  0  0  0  0  0
   35.4650   31.5700   40.0120 H   0  0  0  0  0  0  0  0  0  0  0  0
   38.9930   26.2170   41.4310 C   0  0  0  0  0  0  0  0  0  0  0  0
   39.0500   25.9680   42.8000 C   0  0  0  0  0  0  0  0  0  0  0  0
   38.7600   27.0340   43.6750 C   0  0  0  0  0  0  0  0  0  0  0  0
   38.4410   28.2400   43.1370 N   0  0  0  0  0  0  0  0  0  0  0  0
   38.3980   28.4370   41.8050 C   0  0  0  0  0  0  0  0  0  0  0  0
   38.6730   27.4270   40.9390 N   0  0  0  0  0  0  0  0  0  0  0  0
   39.2020   25.4520   40.6870 H   0  0  0  0  0  0  0  0  0  0  0  0
   39.3110   24.9800   43.1270 H   0  0  0  0  0  0  0  0  0  0  0  0
   38.8030   26.8430   44.7190 H   0  0  0  0  0  0  0  0  0  0  0  0
   39.8540   32.9850   40.3730 C   0  0  0  0  0  2  0  0  0  0  0  0
   41.1460   32.4980   40.9930 C   0  0  0  0  0  2  0  0  0  0  0  0
   40.9950   32.4500   42.0800 H   0  0  0  0  0  0  0  0  0  0  0  0
  2  1  1  0  0  0  0
  2  3  1  0  0  0  0
  3 15  1  0  0  0  0
  4  3  2  0  0  0  0
  4  9  1  0  0  0  0
  5  4  1  0  0  0  0
  6  8  1  0  0  0  0
  6  5  2  0  0  0  0
  7  6  1  0  0  0  0
  8  2  2  0  0  0  0
 10  8  1  0  0  0  0
 11 12  1  0  0  0  0
 12 18  1  0  0  0  0
 12 13  2  0  0  0  0
 13 19  1  0  0  0  0
 14 13  1  0  0  0  0
 15 14  2  0  0  0  0
 16 11  2  0  0  0  0
 16 15  1  0  0  0  0
 17 11  1  0  0  0  0
 20  5  1  0  0  0  0
 20 21  1  0  0  0  0
 21 22  1  0  0  0  0
M  END
>  <minimizedAffinity>
-4.33120251

$$$$

 OpenBabel03252506033D

 22 23  0  0  0  0  0  0  0  0999 V2000
   36.4370   31.0550   40.0540 Cl  0  0  0  0  0  0  0  0  0  0  0  0
   36.6810   29.4090   40.5530 C   0  0  0  0  0  0  0  0  0  0  0  0
   36.2230   28.3760   39.7740 C   0  0  0  0  0  0  0  0  0  0  0  0
   36.4650   27.1110   40.2520 C   0  0  0  0  0  0  0  0  0  0  0  0
   37.1130   26.8010   41.4190 C   0  0  0  0  0  0  0  0  0  0  0  0
   37.5600   27.8650   42.1770 C   0  0  0  0  0  0  0  0  0  0  0  0
   38.3960   27.4800   43.6790 Cl  0  0  0  0  0  0  0  0  0  0  0  0
   37.3460   29.1660   41.7450 C   0  0  0  0  0  0  0  0  0  0  0  0
   36.1030   26.2820   39.6380 H   0  0  0  0  0  0  0  0  0  0  0  0
   37.7120   29.9870   42.3680 H   0  0  0  0  0  0  0  0  0  0  0  0
   33.4930   28.9220   37.4070 C   0  0  0  0  0  0  0  0  0  0  0  0
   34.1400   29.0130   36.1770 C   0  0  0  0  0  0  0  0  0  0  0  0
   35.5430   28.8850   36.1600 C   0  0  0  0  0  0  0  0  0  0  0  0
   36.1840   28.6790   37.3400 N   0  0  0  0  0  0  0  0  0  0  0  0
   35.5190   28.5980   38.5090 C   0  0  0  0  0  0  0  0  0  0  0  0
   34.1660   28.7180   38.5530 N   0  0  0  0  0  0  0  0  0  0  0  0
   32.4140   29.0100   37.5100 H   0  0  0  0  0  0  0  0  0  0  0  0
   33.5440   29.1760   35.3000 H   0  0  0  0  0  0  0  0  0  0  0  0
   36.0350   28.9540   35.2220 H   0  0  0  0  0  0  0  0  0  0  0  0
   37.3390   25.4030   41.8750 C   0  0  0  0  0  2  0  0  0  0  0  0
   36.6810   24.4200   40.9300 C   0  0  0  0  0  2  0  0  0  0  0  0
   35.5950   24.5510   41.0170 H   0  0  0  0  0  0  0  0  0  0  0  0
  1  2  1  0  0  0  0
  2  8  1  0  0  0  0
  3  4  1  0  0  0  0
  3  2  2  0  0  0  0
  4  5  2  0  0  0  0
  5 20  1  0  0  0  0
  5  6  1  0  0  0  0
  6  7  1  0  0  0  0
  8  6  2  0  0  0  0
  8 10  1  0  0  0  0
  9  4  1  0  0  0  0
 11 17  1  0  0  0  0
 11 16  1  0  0  0  0
 12 11  2  0  0  0  0
 13 12  1  0  0  0  0
 13 14  2  0  0  0  0
 14 15  1  0  0  0  0
 15 16  2  0  0  0  0
 15  3  1  0  0  0  0
 18 12  1  0  0  0  0
 19 13  1  0  0  0  0
 21 22  1  0  0  0  0
 21 20  1  0  0  0  0
M  END
>  <minimizedAffinity>
-4.33116198

$$$$

 OpenBabel03252506033D

 22 23  0  0  0  0  0  0  0  0999 V2000
   36.9020   31.2930   38.4010 Cl  0  0  0  0  0  0  0  0  0  0  0  0
   36.8380   30.0960   39.6590 C   0  0  0  0  0  0  0  0  0  0  0  0
   36.0430   28.9870   39.5160 C   0  0  0  0  0  0  0  0  0  0  0  0
   36.0600   28.0980   40.5630 C   0  0  0  0  0  0  0  0  0  0  0  0
   36.7900   28.2240   41.7160 C   0  0  0  0  0  0  0  0  0  0  0  0
   37.5790   29.3530   41.8250 C   0  0  0  0  0  0  0  0  0  0  0  0
   38.5230   29.5280   43.3010 Cl  0  0  0  0  0  0  0  0  0  0  0  0
   37.6030   30.2870   40.7990 C   0  0  0  0  0  0  0  0  0  0  0  0
   35.4290   27.2110   40.4580 H   0  0  0  0  0  0  0  0  0  0  0  0
   38.2380   31.1700   40.9160 H   0  0  0  0  0  0  0  0  0  0  0  0
   35.1100   28.0160   36.1190 C   0  0  0  0  0  0  0  0  0  0  0  0
   33.7470   28.2970   36.0610 C   0  0  0  0  0  0  0  0  0  0  0  0
   33.1360   28.8310   37.2130 C   0  0  0  0  0  0  0  0  0  0  0  0
   33.9060   29.0410   38.3110 N   0  0  0  0  0  0  0  0  0  0  0  0
   35.2230   28.7540   38.3240 C   0  0  0  0  0  0  0  0  0  0  0  0
   35.8380   28.2400   37.2280 N   0  0  0  0  0  0  0  0  0  0  0  0
   35.6600   27.6030   35.2770 H   0  0  0  0  0  0  0  0  0  0  0  0
   33.2240   28.0960   35.1460 H   0  0  0  0  0  0  0  0  0  0  0  0
   32.0970   29.0450   37.1680 H   0  0  0  0  0  0  0  0  0  0  0  0
   36.7580   27.2190   42.8120 C   0  0  0  0  0  2  0  0  0  0  0  0
   37.1600   25.8530   42.2950 C   0  0  0  0  0  2  0  0  0  0  0  0
   36.3750   25.5140   41.6060 H   0  0  0  0  0  0  0  0  0  0  0  0
  1  2  1  0  0  0  0
  2  8  1  0  0  0  0
  3  2  2  0  0  0  0
  3  4  1  0  0  0  0
  4  5  2  0  0  0  0
  5  6  1  0  0  0  0
  5 20  1  0  0  0  0
  6  7  1  0  0  0  0
  8 10  1  0  0  0  0
  8  6  2  0  0  0  0
  9  4  1  0  0  0  0
 11 16  1  0  0  0  0
 12 11  2  0  0  0  0
 12 13  1  0  0  0  0
 13 14  2  0  0  0  0
 14 15  1  0  0  0  0
 15  3  1  0  0  0  0
 16 15  2  0  0  0  0
 17 11  1  0  0  0  0
 18 12  1  0  0  0  0
 19 13  1  0  0  0  0
 21 20  1  0  0  0  0
 22 21  1  0  0  0  0
M  END
>  <minimizedAffinity>
-4.19815922

$$$$
