
 OpenBabel03252509203D

 19 20  0  0  0  0  0  0  0  0999 V2000
   45.3710   34.2260   44.6760 C   0  0  0  0  0  0  0  0  0  0  0  0
   45.7380   34.9090   43.5010 C   0  0  0  0  0  0  0  0  0  0  0  0
   46.9210   34.4480   42.9250 C   0  0  0  0  0  0  0  0  0  0  0  0
   47.6340   33.4060   43.4960 N   0  0  0  0  0  0  0  0  0  0  0  0
   47.2260   32.7970   44.6180 C   0  0  0  0  0  0  0  0  0  0  0  0
   46.0790   33.2230   45.2050 N   0  0  0  0  0  0  0  0  0  0  0  0
   44.4460   34.5360   45.1890 H   0  0  0  0  0  0  0  0  0  0  0  0
   47.8880   32.0210   44.9190 H   0  0  0  0  0  0  0  0  0  0  0  0
   47.3470   35.0580   41.6080 C   0  0  0  0  0  0  0  0  0  0  0  0
   48.7700   35.6340   41.7220 C   0  0  0  0  0  0  0  0  0  0  0  0
   48.3750   34.3940   40.8580 C   0  0  0  0  0  0  0  0  0  0  0  0
   46.7020   35.8720   41.2170 H   0  0  0  0  0  0  0  0  0  0  0  0
   49.3400   35.4080   42.6380 H   0  0  0  0  0  0  0  0  0  0  0  0
   49.0150   36.5400   41.1430 H   0  0  0  0  0  0  0  0  0  0  0  0
   48.5190   34.5280   39.7560 H   0  0  0  0  0  0  0  0  0  0  0  0
   48.7680   33.4100   41.2510 H   0  0  0  0  0  0  0  0  0  0  0  0
   44.9470   36.0010   42.9440 C   0  0  0  0  0  2  0  0  0  0  0  0
   45.1270   37.3330   43.5880 C   0  0  0  0  0  2  0  0  0  0  0  0
   45.7690   37.3210   44.4950 H   0  0  0  0  0  0  0  0  0  0  0  0
  1  7  1  0  0  0  0
  1  6  1  0  0  0  0
  2  1  2  0  0  0  0
  3  4  2  0  0  0  0
  3  2  1  0  0  0  0
  4  5  1  0  0  0  0
  5  8  1  0  0  0  0
  5  6  2  0  0  0  0
  9 10  1  0  0  0  0
  9  3  1  0  0  0  0
 10 13  1  0  0  0  0
 11 16  1  0  0  0  0
 11  9  1  0  0  0  0
 11 10  1  0  0  0  0
 12  9  1  0  0  0  0
 14 10  1  0  0  0  0
 15 11  1  0  0  0  0
 17  2  1  0  0  0  0
 17 18  1  0  0  0  0
 18 19  1  0  0  0  0
M  END
>  <minimizedAffinity>
-3.70459461

>  <minimizedRMSD>
1.41484904

$$$$
