
 OpenBabel03252508423D

 22 23  0  0  0  0  0  0  0  0999 V2000
   36.9170   27.0140   40.8750 C   0  0  0  0  0  0  0  0  0  0  0  0
   37.1270   26.4320   42.0920 C   0  0  0  0  0  0  0  0  0  0  0  0
   37.0380   25.0540   42.2250 C   0  0  0  0  0  0  0  0  0  0  0  0
   36.7380   24.2960   41.1190 C   0  0  0  0  0  0  0  0  0  0  0  0
   36.5160   24.8200   39.8690 C   0  0  0  0  0  0  0  0  0  0  0  0
   36.6190   26.2120   39.8010 C   0  0  0  0  0  0  0  0  0  0  0  0
   37.1970   24.5440   43.1730 H   0  0  0  0  0  0  0  0  0  0  0  0
   36.6690   23.2150   41.2250 H   0  0  0  0  0  0  0  0  0  0  0  0
   36.2810   24.2190   39.0050 H   0  0  0  0  0  0  0  0  0  0  0  0
   36.4480   26.6600   38.8200 H   0  0  0  0  0  0  0  0  0  0  0  0
   36.1330   30.7080   40.8280 C   0  0  0  0  0  0  0  0  0  0  0  0
   35.9170   29.3090   40.9260 C   0  0  0  0  0  0  0  0  0  0  0  0
   37.0210   28.4530   40.7910 C   0  0  0  0  0  0  0  0  0  0  0  0
   38.2220   29.0220   40.5770 N   0  0  0  0  0  0  0  0  0  0  0  0
   38.4120   30.3550   40.4860 C   0  0  0  0  0  0  0  0  0  0  0  0
   37.3660   31.2020   40.6130 N   0  0  0  0  0  0  0  0  0  0  0  0
   35.2000   31.2440   40.9510 H   0  0  0  0  0  0  0  0  0  0  0  0
   34.9730   28.8470   41.0950 H   0  0  0  0  0  0  0  0  0  0  0  0
   39.4040   30.7560   40.3130 H   0  0  0  0  0  0  0  0  0  0  0  0
   37.4510   27.2630   43.2790 C   0  0  0  0  0  2  0  0  0  0  0  0
   38.8950   27.0820   43.6780 C   0  0  0  0  0  2  0  0  0  0  0  0
   39.0870   26.0420   43.9590 H   0  0  0  0  0  0  0  0  0  0  0  0
  1  2  1  0  0  0  0
  2  3  2  0  0  0  0
  2 20  1  0  0  0  0
  3  7  1  0  0  0  0
  4  8  1  0  0  0  0
  4  3  1  0  0  0  0
  5  4  2  0  0  0  0
  6  5  1  0  0  0  0
  6  1  2  0  0  0  0
  9  5  1  0  0  0  0
 10  6  1  0  0  0  0
 11 12  1  0  0  0  0
 11 17  1  0  0  0  0
 12 18  1  0  0  0  0
 13  1  1  0  0  0  0
 13 12  2  0  0  0  0
 14 13  1  0  0  0  0
 15 14  2  0  0  0  0
 15 16  1  0  0  0  0
 16 11  2  0  0  0  0
 19 15  1  0  0  0  0
 20 21  1  0  0  0  0
 21 22  1  0  0  0  0
M  END
>  <minimizedAffinity>
-4.58801365

$$$$

 OpenBabel03252508423D

 22 23  0  0  0  0  0  0  0  0999 V2000
   36.9620   27.0460   40.8840 C   0  0  0  0  0  0  0  0  0  0  0  0
   37.1620   26.4650   42.1030 C   0  0  0  0  0  0  0  0  0  0  0  0
   37.0340   25.0910   42.2450 C   0  0  0  0  0  0  0  0  0  0  0  0
   36.7060   24.3360   41.1440 C   0  0  0  0  0  0  0  0  0  0  0  0
   36.4930   24.8600   39.8930 C   0  0  0  0  0  0  0  0  0  0  0  0
   36.6360   26.2480   39.8160 C   0  0  0  0  0  0  0  0  0  0  0  0
   37.1840   24.5830   43.1950 H   0  0  0  0  0  0  0  0  0  0  0  0
   36.6060   23.2580   41.2580 H   0  0  0  0  0  0  0  0  0  0  0  0
   36.2350   24.2600   39.0340 H   0  0  0  0  0  0  0  0  0  0  0  0
   36.4720   26.6950   38.8330 H   0  0  0  0  0  0  0  0  0  0  0  0
   38.3490   30.5240   40.3890 C   0  0  0  0  0  0  0  0  0  0  0  0
   38.3170   29.1070   40.4530 C   0  0  0  0  0  0  0  0  0  0  0  0
   37.1080   28.4820   40.7910 C   0  0  0  0  0  0  0  0  0  0  0  0
   36.0480   29.2750   41.0350 N   0  0  0  0  0  0  0  0  0  0  0  0
   36.0930   30.6220   40.9700 C   0  0  0  0  0  0  0  0  0  0  0  0
   37.2450   31.2500   40.6460 N   0  0  0  0  0  0  0  0  0  0  0  0
   39.3390   30.8690   40.1180 H   0  0  0  0  0  0  0  0  0  0  0  0
   39.1480   28.4690   40.2620 H   0  0  0  0  0  0  0  0  0  0  0  0
   35.2060   31.2100   41.1770 H   0  0  0  0  0  0  0  0  0  0  0  0
   37.5170   27.2940   43.2830 C   0  0  0  0  0  2  0  0  0  0  0  0
   38.9550   27.0680   43.6800 C   0  0  0  0  0  2  0  0  0  0  0  0
   39.1150   26.0250   43.9670 H   0  0  0  0  0  0  0  0  0  0  0  0
  1  2  1  0  0  0  0
  2  3  2  0  0  0  0
  2 20  1  0  0  0  0
  3  7  1  0  0  0  0
  4  8  1  0  0  0  0
  4  3  1  0  0  0  0
  5  4  2  0  0  0  0
  6  5  1  0  0  0  0
  6  1  2  0  0  0  0
  9  5  1  0  0  0  0
 10  6  1  0  0  0  0
 11 12  2  0  0  0  0
 11 16  1  0  0  0  0
 12 13  1  0  0  0  0
 13  1  1  0  0  0  0
 13 14  2  0  0  0  0
 15 14  1  0  0  0  0
 15 19  1  0  0  0  0
 16 15  2  0  0  0  0
 17 11  1  0  0  0  0
 18 12  1  0  0  0  0
 20 21  1  0  0  0  0
 21 22  1  0  0  0  0
M  END
>  <minimizedAffinity>
-4.47685957

$$$$

 OpenBabel03252508423D

 22 23  0  0  0  0  0  0  0  0999 V2000
   37.7030   29.5110   41.6230 C   0  0  0  0  0  0  0  0  0  0  0  0
   36.9590   28.5560   40.9910 C   0  0  0  0  0  0  0  0  0  0  0  0
   36.5740   27.4130   41.6770 C   0  0  0  0  0  0  0  0  0  0  0  0
   36.9530   27.2640   42.9900 C   0  0  0  0  0  0  0  0  0  0  0  0
   37.6990   28.1880   43.6800 C   0  0  0  0  0  0  0  0  0  0  0  0
   38.0560   29.3150   42.9350 C   0  0  0  0  0  0  0  0  0  0  0  0
   35.9820   26.6250   41.2170 H   0  0  0  0  0  0  0  0  0  0  0  0
   36.6500   26.3670   43.5250 H   0  0  0  0  0  0  0  0  0  0  0  0
   37.9930   28.0640   44.7110 H   0  0  0  0  0  0  0  0  0  0  0  0
   38.6500   30.0680   43.4560 H   0  0  0  0  0  0  0  0  0  0  0  0
   37.6930   32.8810   39.9180 C   0  0  0  0  0  0  0  0  0  0  0  0
   37.2230   31.7810   40.6810 C   0  0  0  0  0  0  0  0  0  0  0  0
   38.0770   30.6830   40.8630 C   0  0  0  0  0  0  0  0  0  0  0  0
   39.2960   30.7470   40.2960 N   0  0  0  0  0  0  0  0  0  0  0  0
   39.7290   31.8010   39.5720 C   0  0  0  0  0  0  0  0  0  0  0  0
   38.9270   32.8720   39.3820 N   0  0  0  0  0  0  0  0  0  0  0  0
   36.9340   33.6530   39.8600 H   0  0  0  0  0  0  0  0  0  0  0  0
   36.2620   31.7190   41.1340 H   0  0  0  0  0  0  0  0  0  0  0  0
   40.7230   31.7960   39.1400 H   0  0  0  0  0  0  0  0  0  0  0  0
   36.5570   28.7310   39.5730 C   0  0  0  0  0  2  0  0  0  0  0  0
   35.0640   28.9180   39.4620 C   0  0  0  0  0  2  0  0  0  0  0  0
   34.5380   28.0330   39.8330 H   0  0  0  0  0  0  0  0  0  0  0  0
  1  6  1  0  0  0  0
  2  1  2  0  0  0  0
  2  3  1  0  0  0  0
  3  4  2  0  0  0  0
  4  8  1  0  0  0  0
  4  5  1  0  0  0  0
  5  9  1  0  0  0  0
  6 10  1  0  0  0  0
  6  5  2  0  0  0  0
  7  3  1  0  0  0  0
 11 12  1  0  0  0  0
 12 13  2  0  0  0  0
 12 18  1  0  0  0  0
 13  1  1  0  0  0  0
 14 13  1  0  0  0  0
 15 14  2  0  0  0  0
 16 15  1  0  0  0  0
 16 11  2  0  0  0  0
 17 11  1  0  0  0  0
 19 15  1  0  0  0  0
 20  2  1  0  0  0  0
 21 20  1  0  0  0  0
 21 22  1  0  0  0  0
M  END
>  <minimizedAffinity>
-4.28821039

$$$$

 OpenBabel03252508423D

 22 23  0  0  0  0  0  0  0  0999 V2000
   36.9890   30.8800   38.8260 C   0  0  0  0  0  0  0  0  0  0  0  0
   36.1990   30.2270   39.7280 C   0  0  0  0  0  0  0  0  0  0  0  0
   35.3350   29.2310   39.2970 C   0  0  0  0  0  0  0  0  0  0  0  0
   35.2930   28.9180   37.9590 C   0  0  0  0  0  0  0  0  0  0  0  0
   36.0620   29.5370   37.0040 C   0  0  0  0  0  0  0  0  0  0  0  0
   36.9090   30.5310   37.5010 C   0  0  0  0  0  0  0  0  0  0  0  0
   34.6870   28.6820   39.9760 H   0  0  0  0  0  0  0  0  0  0  0  0
   34.6150   28.1360   37.6240 H   0  0  0  0  0  0  0  0  0  0  0  0
   36.0220   29.2860   35.9560 H   0  0  0  0  0  0  0  0  0  0  0  0
   37.5340   31.0430   36.7650 H   0  0  0  0  0  0  0  0  0  0  0  0
   38.3990   34.1580   40.0660 C   0  0  0  0  0  0  0  0  0  0  0  0
   37.4490   33.2260   39.5720 C   0  0  0  0  0  0  0  0  0  0  0  0
   37.8720   31.9100   39.3280 C   0  0  0  0  0  0  0  0  0  0  0  0
   39.1610   31.6170   39.5810 N   0  0  0  0  0  0  0  0  0  0  0  0
   40.0520   32.5150   40.0510 C   0  0  0  0  0  0  0  0  0  0  0  0
   39.6720   33.7890   40.2950 N   0  0  0  0  0  0  0  0  0  0  0  0
   37.9380   35.1280   40.2080 H   0  0  0  0  0  0  0  0  0  0  0  0
   36.4280   33.4450   39.3680 H   0  0  0  0  0  0  0  0  0  0  0  0
   41.0790   32.2200   40.2360 H   0  0  0  0  0  0  0  0  0  0  0  0
   36.2560   30.5750   41.1700 C   0  0  0  0  0  2  0  0  0  0  0  0
   37.0230   29.5290   41.9400 C   0  0  0  0  0  2  0  0  0  0  0  0
   36.5250   28.5580   41.8690 H   0  0  0  0  0  0  0  0  0  0  0  0
  1 13  1  0  0  0  0
  1  2  1  0  0  0  0
  2 20  1  0  0  0  0
  3  2  2  0  0  0  0
  3  7  1  0  0  0  0
  4  3  1  0  0  0  0
  5  6  1  0  0  0  0
  5  4  2  0  0  0  0
  6  1  2  0  0  0  0
  8  4  1  0  0  0  0
  9  5  1  0  0  0  0
 10  6  1  0  0  0  0
 11 17  1  0  0  0  0
 11 16  1  0  0  0  0
 12 11  2  0  0  0  0
 13 12  1  0  0  0  0
 13 14  2  0  0  0  0
 14 15  1  0  0  0  0
 15 19  1  0  0  0  0
 15 16  2  0  0  0  0
 18 12  1  0  0  0  0
 20 21  1  0  0  0  0
 22 21  1  0  0  0  0
M  END
>  <minimizedAffinity>
-4.25431299

$$$$

 OpenBabel03252508423D

 22 23  0  0  0  0  0  0  0  0999 V2000
   36.6220   27.1350   40.2780 C   0  0  0  0  0  0  0  0  0  0  0  0
   36.2940   28.1160   41.1700 C   0  0  0  0  0  0  0  0  0  0  0  0
   35.4970   29.1780   40.7680 C   0  0  0  0  0  0  0  0  0  0  0  0
   35.0480   29.2200   39.4700 C   0  0  0  0  0  0  0  0  0  0  0  0
   35.3420   28.2660   38.5270 C   0  0  0  0  0  0  0  0  0  0  0  0
   36.1490   27.2240   38.9930 C   0  0  0  0  0  0  0  0  0  0  0  0
   35.2090   29.9820   41.4410 H   0  0  0  0  0  0  0  0  0  0  0  0
   34.4230   30.0540   39.1570 H   0  0  0  0  0  0  0  0  0  0  0  0
   34.9860   28.3070   37.5090 H   0  0  0  0  0  0  0  0  0  0  0  0
   36.4000   26.4490   38.2650 H   0  0  0  0  0  0  0  0  0  0  0  0
   37.8450   23.8650   41.7190 C   0  0  0  0  0  0  0  0  0  0  0  0
   36.9350   24.8660   41.2900 C   0  0  0  0  0  0  0  0  0  0  0  0
   37.4550   26.0510   40.7470 C   0  0  0  0  0  0  0  0  0  0  0  0
   38.7950   26.1590   40.6690 N   0  0  0  0  0  0  0  0  0  0  0  0
   39.6480   25.1980   41.0820 C   0  0  0  0  0  0  0  0  0  0  0  0
   39.1730   24.0470   41.6080 N   0  0  0  0  0  0  0  0  0  0  0  0
   37.3080   23.0100   42.1130 H   0  0  0  0  0  0  0  0  0  0  0  0
   35.8750   24.7920   41.3460 H   0  0  0  0  0  0  0  0  0  0  0  0
   40.7180   25.3430   40.9940 H   0  0  0  0  0  0  0  0  0  0  0  0
   36.7860   28.0560   42.5690 C   0  0  0  0  0  2  0  0  0  0  0  0
   37.7720   29.1670   42.8350 C   0  0  0  0  0  2  0  0  0  0  0  0
   38.6480   29.0650   42.1870 H   0  0  0  0  0  0  0  0  0  0  0  0
  1 13  1  0  0  0  0
  1  2  1  0  0  0  0
  2 20  1  0  0  0  0
  3  2  2  0  0  0  0
  3  7  1  0  0  0  0
  4  3  1  0  0  0  0
  5  6  1  0  0  0  0
  5  4  2  0  0  0  0
  6  1  2  0  0  0  0
  8  4  1  0  0  0  0
  9  5  1  0  0  0  0
 10  6  1  0  0  0  0
 11 17  1  0  0  0  0
 12 18  1  0  0  0  0
 12 11  2  0  0  0  0
 13 12  1  0  0  0  0
 14 13  2  0  0  0  0
 14 15  1  0  0  0  0
 15 16  2  0  0  0  0
 16 11  1  0  0  0  0
 19 15  1  0  0  0  0
 20 21  1  0  0  0  0
 22 21  1  0  0  0  0
M  END
>  <minimizedAffinity>
-4.15917587

$$$$

 OpenBabel03252508423D

 22 23  0  0  0  0  0  0  0  0999 V2000
   38.1920   30.6890   41.2800 C   0  0  0  0  0  0  0  0  0  0  0  0
   37.0730   31.0590   40.5910 C   0  0  0  0  0  0  0  0  0  0  0  0
   36.9980   32.3200   40.0170 C   0  0  0  0  0  0  0  0  0  0  0  0
   38.0620   33.1790   40.1560 C   0  0  0  0  0  0  0  0  0  0  0  0
   39.2140   32.8670   40.8350 C   0  0  0  0  0  0  0  0  0  0  0  0
   39.2270   31.5840   41.3900 C   0  0  0  0  0  0  0  0  0  0  0  0
   36.1290   32.6600   39.4590 H   0  0  0  0  0  0  0  0  0  0  0  0
   38.0010   34.1670   39.7050 H   0  0  0  0  0  0  0  0  0  0  0  0
   40.0450   33.5470   40.9400 H   0  0  0  0  0  0  0  0  0  0  0  0
   40.1300   31.3060   41.9370 H   0  0  0  0  0  0  0  0  0  0  0  0
   37.9010   27.7610   43.6470 C   0  0  0  0  0  0  0  0  0  0  0  0
   37.8380   29.1000   43.1820 C   0  0  0  0  0  0  0  0  0  0  0  0
   38.2190   29.3640   41.8580 C   0  0  0  0  0  0  0  0  0  0  0  0
   38.6210   28.3200   41.1100 N   0  0  0  0  0  0  0  0  0  0  0  0
   38.6760   27.0510   41.5660 C   0  0  0  0  0  0  0  0  0  0  0  0
   38.3150   26.7680   42.8380 N   0  0  0  0  0  0  0  0  0  0  0  0
   37.5810   27.7040   44.6800 H   0  0  0  0  0  0  0  0  0  0  0  0
   37.5220   29.9340   43.7630 H   0  0  0  0  0  0  0  0  0  0  0  0
   39.0090   26.2500   40.9170 H   0  0  0  0  0  0  0  0  0  0  0  0
   35.9310   30.1200   40.4490 C   0  0  0  0  0  2  0  0  0  0  0  0
   35.8130   29.6360   39.0240 C   0  0  0  0  0  2  0  0  0  0  0  0
   35.6190   30.4750   38.3500 H   0  0  0  0  0  0  0  0  0  0  0  0
  1  6  1  0  0  0  0
  1 13  1  0  0  0  0
  2  1  2  0  0  0  0
  3  4  2  0  0  0  0
  3  2  1  0  0  0  0
  4  5  1  0  0  0  0
  5  9  1  0  0  0  0
  5  6  2  0  0  0  0
  6 10  1  0  0  0  0
  7  3  1  0  0  0  0
  8  4  1  0  0  0  0
 11 17  1  0  0  0  0
 12 11  1  0  0  0  0
 12 18  1  0  0  0  0
 13 12  2  0  0  0  0
 14 15  2  0  0  0  0
 14 13  1  0  0  0  0
 15 16  1  0  0  0  0
 16 11  2  0  0  0  0
 19 15  1  0  0  0  0
 20  2  1  0  0  0  0
 21 20  1  0  0  0  0
 22 21  1  0  0  0  0
M  END
>  <minimizedAffinity>
-4.15589094

$$$$

 OpenBabel03252508423D

 22 23  0  0  0  0  0  0  0  0999 V2000
   36.9400   26.9280   41.0050 C   0  0  0  0  0  0  0  0  0  0  0  0
   36.6970   26.2740   39.8310 C   0  0  0  0  0  0  0  0  0  0  0  0
   36.5780   24.8910   39.8210 C   0  0  0  0  0  0  0  0  0  0  0  0
   36.7090   24.2030   41.0040 C   0  0  0  0  0  0  0  0  0  0  0  0
   36.9530   24.8020   42.2150 C   0  0  0  0  0  0  0  0  0  0  0  0
   37.0630   26.1950   42.1580 C   0  0  0  0  0  0  0  0  0  0  0  0
   36.3840   24.3250   38.9130 H   0  0  0  0  0  0  0  0  0  0  0  0
   36.6150   23.1190   40.9940 H   0  0  0  0  0  0  0  0  0  0  0  0
   37.0540   24.2550   43.1390 H   0  0  0  0  0  0  0  0  0  0  0  0
   37.2570   26.7010   43.1060 H   0  0  0  0  0  0  0  0  0  0  0  0
   36.1720   30.6260   40.9590 C   0  0  0  0  0  0  0  0  0  0  0  0
   35.9450   29.2260   41.0090 C   0  0  0  0  0  0  0  0  0  0  0  0
   37.0550   28.3690   40.9590 C   0  0  0  0  0  0  0  0  0  0  0  0
   38.2720   28.9370   40.8680 N   0  0  0  0  0  0  0  0  0  0  0  0
   38.4720   30.2700   40.8210 C   0  0  0  0  0  0  0  0  0  0  0  0
   37.4210   31.1190   40.8670 N   0  0  0  0  0  0  0  0  0  0  0  0
   35.2330   31.1630   41.0060 H   0  0  0  0  0  0  0  0  0  0  0  0
   34.9890   28.7650   41.0810 H   0  0  0  0  0  0  0  0  0  0  0  0
   39.4760   30.6700   40.7470 H   0  0  0  0  0  0  0  0  0  0  0  0
   36.5580   27.0300   38.5620 C   0  0  0  0  0  2  0  0  0  0  0  0
   35.3240   26.5900   37.8120 C   0  0  0  0  0  2  0  0  0  0  0  0
   35.3960   25.5320   37.5430 H   0  0  0  0  0  0  0  0  0  0  0  0
  1  6  1  0  0  0  0
  2  1  2  0  0  0  0
  3  2  1  0  0  0  0
  3  4  2  0  0  0  0
  4  5  1  0  0  0  0
  5  9  1  0  0  0  0
  6  5  2  0  0  0  0
  6 10  1  0  0  0  0
  7  3  1  0  0  0  0
  8  4  1  0  0  0  0
 11 17  1  0  0  0  0
 11 12  1  0  0  0  0
 12 18  1  0  0  0  0
 13  1  1  0  0  0  0
 13 12  2  0  0  0  0
 14 13  1  0  0  0  0
 15 16  1  0  0  0  0
 15 14  2  0  0  0  0
 16 11  2  0  0  0  0
 19 15  1  0  0  0  0
 20  2  1  0  0  0  0
 21 20  1  0  0  0  0
 22 21  1  0  0  0  0
M  END
>  <minimizedAffinity>
-4.15381241

$$$$

 OpenBabel03252508423D

 22 23  0  0  0  0  0  0  0  0999 V2000
   36.7740   26.8290   40.3300 C   0  0  0  0  0  0  0  0  0  0  0  0
   36.8940   27.1580   41.6490 C   0  0  0  0  0  0  0  0  0  0  0  0
   37.0060   26.1590   42.6050 C   0  0  0  0  0  0  0  0  0  0  0  0
   36.9950   24.8450   42.2000 C   0  0  0  0  0  0  0  0  0  0  0  0
   36.8780   24.4500   40.8900 C   0  0  0  0  0  0  0  0  0  0  0  0
   36.7680   25.5030   39.9770 C   0  0  0  0  0  0  0  0  0  0  0  0
   37.1040   26.3710   43.6670 H   0  0  0  0  0  0  0  0  0  0  0  0
   37.0830   24.0630   42.9510 H   0  0  0  0  0  0  0  0  0  0  0  0
   36.8700   23.4170   40.5790 H   0  0  0  0  0  0  0  0  0  0  0  0
   36.6730   25.2200   38.9260 H   0  0  0  0  0  0  0  0  0  0  0  0
   35.4310   29.4530   37.9690 C   0  0  0  0  0  0  0  0  0  0  0  0
   35.4280   28.3860   38.9040 C   0  0  0  0  0  0  0  0  0  0  0  0
   36.6600   27.9090   39.3750 C   0  0  0  0  0  0  0  0  0  0  0  0
   37.7730   28.5000   38.9030 N   0  0  0  0  0  0  0  0  0  0  0  0
   37.7610   29.5140   38.0130 C   0  0  0  0  0  0  0  0  0  0  0  0
   36.5870   29.9940   37.5440 N   0  0  0  0  0  0  0  0  0  0  0  0
   34.4170   29.7180   37.6940 H   0  0  0  0  0  0  0  0  0  0  0  0
   34.5550   27.9110   39.2850 H   0  0  0  0  0  0  0  0  0  0  0  0
   38.6910   29.9520   37.6690 H   0  0  0  0  0  0  0  0  0  0  0  0
   36.9050   28.5810   42.0730 C   0  0  0  0  0  2  0  0  0  0  0  0
   38.0560   28.8490   43.0100 C   0  0  0  0  0  2  0  0  0  0  0  0
   37.9580   28.2500   43.9200 H   0  0  0  0  0  0  0  0  0  0  0  0
  1  2  1  0  0  0  0
  2 20  1  0  0  0  0
  2  3  2  0  0  0  0
  3  7  1  0  0  0  0
  4  3  1  0  0  0  0
  4  8  1  0  0  0  0
  5  4  2  0  0  0  0
  6  1  2  0  0  0  0
  6  5  1  0  0  0  0
  9  5  1  0  0  0  0
 10  6  1  0  0  0  0
 11 12  1  0  0  0  0
 12 18  1  0  0  0  0
 12 13  2  0  0  0  0
 13  1  1  0  0  0  0
 14 13  1  0  0  0  0
 15 14  2  0  0  0  0
 16 11  2  0  0  0  0
 16 15  1  0  0  0  0
 17 11  1  0  0  0  0
 19 15  1  0  0  0  0
 20 21  1  0  0  0  0
 21 22  1  0  0  0  0
M  END
>  <minimizedAffinity>
-4.1311636

$$$$

 OpenBabel03252508423D

 22 23  0  0  0  0  0  0  0  0999 V2000
   36.8470   30.8010   38.9220 C   0  0  0  0  0  0  0  0  0  0  0  0
   36.1530   30.1730   39.9160 C   0  0  0  0  0  0  0  0  0  0  0  0
   35.2670   29.1530   39.6040 C   0  0  0  0  0  0  0  0  0  0  0  0
   35.1040   28.7910   38.2880 C   0  0  0  0  0  0  0  0  0  0  0  0
   35.7730   29.3830   37.2440 C   0  0  0  0  0  0  0  0  0  0  0  0
   36.6490   30.4030   37.6230 C   0  0  0  0  0  0  0  0  0  0  0  0
   34.6920   28.6240   40.3600 H   0  0  0  0  0  0  0  0  0  0  0  0
   34.4080   27.9910   38.0450 H   0  0  0  0  0  0  0  0  0  0  0  0
   35.6400   29.0930   36.2130 H   0  0  0  0  0  0  0  0  0  0  0  0
   37.1960   30.8930   36.8150 H   0  0  0  0  0  0  0  0  0  0  0  0
   39.9440   32.7700   39.8140 C   0  0  0  0  0  0  0  0  0  0  0  0
   39.1410   31.6620   39.4380 C   0  0  0  0  0  0  0  0  0  0  0  0
   37.7590   31.8580   39.3020 C   0  0  0  0  0  0  0  0  0  0  0  0
   37.2820   33.0940   39.5390 N   0  0  0  0  0  0  0  0  0  0  0  0
   38.0580   34.1380   39.8960 C   0  0  0  0  0  0  0  0  0  0  0  0
   39.3930   33.9780   40.0350 N   0  0  0  0  0  0  0  0  0  0  0  0
   40.9850   32.4770   39.8810 H   0  0  0  0  0  0  0  0  0  0  0  0
   39.5060   30.6810   39.2470 H   0  0  0  0  0  0  0  0  0  0  0  0
   37.6170   35.1120   40.0750 H   0  0  0  0  0  0  0  0  0  0  0  0
   36.3390   30.5750   41.3330 C   0  0  0  0  0  2  0  0  0  0  0  0
   37.1580   29.5460   42.0750 C   0  0  0  0  0  2  0  0  0  0  0  0
   36.6430   28.5810   42.0840 H   0  0  0  0  0  0  0  0  0  0  0  0
  1 13  1  0  0  0  0
  1  2  1  0  0  0  0
  2 20  1  0  0  0  0
  3  2  2  0  0  0  0
  3  7  1  0  0  0  0
  4  3  1  0  0  0  0
  5  6  1  0  0  0  0
  5  4  2  0  0  0  0
  6  1  2  0  0  0  0
  8  4  1  0  0  0  0
  9  5  1  0  0  0  0
 10  6  1  0  0  0  0
 11 17  1  0  0  0  0
 11 16  1  0  0  0  0
 12 11  2  0  0  0  0
 13 12  1  0  0  0  0
 13 14  2  0  0  0  0
 14 15  1  0  0  0  0
 15 16  2  0  0  0  0
 15 19  1  0  0  0  0
 18 12  1  0  0  0  0
 20 21  1  0  0  0  0
 21 22  1  0  0  0  0
M  END
>  <minimizedAffinity>
-4.12470484

$$$$
