
 OpenBabel03252501413D

 39 41  0  0  0  0  0  0  0  0999 V2000
   42.9780   32.1280   39.4780 Cl  0  0  0  0  0  0  0  0  0  0  0  0
   41.9740   33.4740   39.9910 C   0  0  0  0  0  0  0  0  0  0  0  0
   42.4870   34.6170   40.5920 C   0  0  0  0  0  0  0  0  0  0  0  0
   41.6600   35.6300   40.9680 C   0  0  0  0  0  0  0  0  0  0  0  0
   40.2930   35.5930   40.7860 C   0  0  0  0  0  0  0  0  0  0  0  0
   39.7420   34.4470   40.1790 C   0  0  0  0  0  0  0  0  0  0  0  0
   38.0150   34.3120   39.9060 Cl  0  0  0  0  0  0  0  0  0  0  0  0
   40.6100   33.4410   39.8110 C   0  0  0  0  0  0  0  0  0  0  0  0
   42.0980   36.5050   41.4330 H   0  0  0  0  0  0  0  0  0  0  0  0
   39.6270   36.3880   41.0800 H   0  0  0  0  0  0  0  0  0  0  0  0
   39.8400   31.3260   41.3380 F   0  0  0  0  0  0  0  0  0  0  0  0
   39.6740   31.1940   39.9800 C   0  0  0  0  0  0  0  0  0  0  0  0
   40.0530   32.2450   39.1790 C   0  0  0  0  0  0  0  0  0  0  0  0
   39.8710   32.0800   37.8010 C   0  0  0  0  0  0  0  0  0  0  0  0
   39.3290   30.8910   37.3290 C   0  0  0  0  0  0  0  0  0  0  0  0
   38.9660   29.8640   38.1960 C   0  0  0  0  0  0  0  0  0  0  0  0
   39.1340   29.9960   39.5760 C   0  0  0  0  0  0  0  0  0  0  0  0
   40.1700   32.9070   37.1700 H   0  0  0  0  0  0  0  0  0  0  0  0
   39.1940   30.7780   36.2600 H   0  0  0  0  0  0  0  0  0  0  0  0
   38.5440   28.9400   37.8230 H   0  0  0  0  0  0  0  0  0  0  0  0
   38.8640   29.2230   40.2820 H   0  0  0  0  0  0  0  0  0  0  0  0
   43.8810   34.6450   40.7730 O   0  0  0  0  0  0  0  0  0  0  0  0
   44.3880   34.1410   41.9730 C   0  0  0  0  0  0  0  0  0  0  0  0
   44.0640   33.0390   42.5560 O   0  0  0  0  0  0  0  0  0  0  0  0
   45.3820   34.8620   42.7020 N   0  0  0  0  0  0  0  0  0  0  0  0
   45.7990   35.7550   42.3640 H   0  0  0  0  0  0  0  0  0  0  0  0
   45.6820   34.1550   43.9330 C   0  0  0  0  0  0  0  0  0  0  0  0
   45.1990   34.4380   45.1720 C   0  0  0  0  0  0  0  0  0  0  0  0
   45.6170   33.6330   46.2020 C   0  0  0  0  0  0  0  0  0  0  0  0
   46.4700   32.6250   45.9170 N   0  0  0  0  0  0  0  0  0  0  0  0
   46.9290   32.3710   44.6810 C   0  0  0  0  0  0  0  0  0  0  0  0
   46.5330   33.1530   43.6370 N   0  0  0  0  0  0  0  0  0  0  0  0
   45.2400   33.8450   47.1970 H   0  0  0  0  0  0  0  0  0  0  0  0
   44.3180   35.5250   45.2840 N   0  0  0  0  0  0  0  0  0  0  0  0
   43.5320   35.5160   45.9830 H   0  0  0  0  0  0  0  0  0  0  0  0
   44.4120   36.3760   44.6820 H   0  0  0  0  0  0  0  0  0  0  0  0
   47.8720   31.2190   44.5150 C   0  0  0  0  0  0  0  0  0  0  0  0
   47.7080   30.2330   45.6690 C   0  0  0  0  0  0  0  0  0  0  0  0
   46.7440   29.6990   45.5110 H   0  0  0  0  0  0  0  0  0  0  0  0
  1  2  1  0  0  0  0
  2  3  1  0  0  0  0
  3 22  1  0  0  0  0
  3  4  2  0  0  0  0
  4  9  1  0  0  0  0
  5  4  1  0  0  0  0
  5 10  1  0  0  0  0
  6  5  2  0  0  0  0
  7  6  1  0  0  0  0
  8  2  2  0  0  0  0
  8  6  1  0  0  0  0
 12 11  1  0  0  0  0
 13  8  1  0  0  0  0
 13 12  2  0  0  0  0
 14 13  1  0  0  0  0
 15 14  2  0  0  0  0
 15 16  1  0  0  0  0
 16 17  2  0  0  0  0
 17 12  1  0  0  0  0
 17 21  1  0  0  0  0
 18 14  1  0  0  0  0
 19 15  1  0  0  0  0
 20 16  1  0  0  0  0
 22 23  1  0  0  0  0
 23 24  2  0  0  0  0
 23 25  1  0  0  0  0
 25 27  1  0  0  0  0
 26 25  1  0  0  0  0
 27 28  1  0  0  0  0
 28 34  1  0  0  0  0
 28 29  2  0  0  0  0
 29 33  1  0  0  0  0
 30 29  1  0  0  0  0
 31 30  2  0  0  0  0
 32 27  2  0  0  0  0
 32 31  1  0  0  0  0
 34 35  1  0  0  0  0
 36 34  1  0  0  0  0
 37 31  1  0  0  0  0
 37 38  1  0  0  0  0
 39 38  1  0  0  0  0
M  END
>  <minimizedAffinity>
-5.98049974

>  <minimizedRMSD>
0.317871958

$$$$
