
 OpenBabel03252502403D

 40 42  0  0  1  0  0  0  0  0999 V2000
   37.2660   30.0100   39.9620 C   0  0  1  0  0  0  0  0  0  0  0  0
   38.1560   29.3700   39.6870 H   0  0  0  0  0  0  0  0  0  0  0  0
   36.2870   29.7670   38.9370 N   0  0  0  0  0  0  0  0  0  0  0  0
   36.7980   29.0480   37.8310 C   0  0  0  0  0  0  0  0  0  0  0  0
   35.7620   29.2370   36.7090 C   0  0  0  0  0  0  0  0  0  0  0  0
   34.6570   28.4230   37.1420 N   0  0  0  0  0  0  0  0  0  0  0  0
   34.1050   28.8530   38.3610 C   0  0  0  0  0  0  0  0  0  0  0  0
   35.1040   29.2180   39.4490 C   0  0  0  0  0  0  0  0  0  0  0  0
   36.9360   27.9610   37.9830 H   0  0  0  0  0  0  0  0  0  0  0  0
   37.7230   29.5550   37.4480 H   0  0  0  0  0  0  0  0  0  0  0  0
   35.4150   30.2840   36.7050 H   0  0  0  0  0  0  0  0  0  0  0  0
   36.1490   28.8810   35.7550 H   0  0  0  0  0  0  0  0  0  0  0  0
   34.7640   27.4130   36.9930 H   0  0  0  0  0  0  0  0  0  0  0  0
   33.4440   29.7320   38.1760 H   0  0  0  0  0  0  0  0  0  0  0  0
   33.3850   28.0610   38.7170 H   0  0  0  0  0  0  0  0  0  0  0  0
   34.4980   29.7060   40.1750 H   0  0  0  0  0  0  0  0  0  0  0  0
   35.3920   28.1560   39.7390 H   0  0  0  0  0  0  0  0  0  0  0  0
   38.7950   31.7510   40.8860 C   0  0  0  0  0  0  0  0  0  0  0  0
   37.7100   31.3590   40.1220 C   0  0  0  0  0  0  0  0  0  0  0  0
   37.0180   32.3980   39.4710 C   0  0  0  0  0  0  0  0  0  0  0  0
   37.4360   33.6930   39.6180 N   0  0  0  0  0  0  0  0  0  0  0  0
   38.5130   33.9980   40.3870 C   0  0  0  0  0  0  0  0  0  0  0  0
   39.1890   33.0230   41.0190 N   0  0  0  0  0  0  0  0  0  0  0  0
   39.3670   30.9990   41.4100 H   0  0  0  0  0  0  0  0  0  0  0  0
   36.1530   32.2180   38.8460 H   0  0  0  0  0  0  0  0  0  0  0  0
   38.7360   35.0450   40.4210 H   0  0  0  0  0  0  0  0  0  0  0  0
   36.7040   29.5300   41.3050 C   0  0  0  0  0  0  0  0  0  0  0  0
   35.7210   29.1160   40.9090 H   0  0  0  0  0  0  0  0  0  0  0  0
   36.3220   30.3050   41.9650 H   0  0  0  0  0  0  0  0  0  0  0  0
   37.4730   28.5600   42.0090 C   0  0  0  0  0  0  0  0  0  0  0  0
   38.5560   28.5320   42.8200 C   0  0  0  0  0  0  0  0  0  0  0  0
   39.1560   27.4310   43.4010 C   0  0  0  0  0  0  0  0  0  0  0  0
   38.5960   26.2630   43.1220 N   0  0  0  0  0  0  0  0  0  0  0  0
   37.5410   26.1980   42.3430 C   0  0  0  0  0  0  0  0  0  0  0  0
   37.0250   27.2960   41.8260 N   0  0  0  0  0  0  0  0  0  0  0  0
   38.9570   29.5510   42.9870 H   0  0  0  0  0  0  0  0  0  0  0  0
   40.0080   27.6060   44.0160 H   0  0  0  0  0  0  0  0  0  0  0  0
   36.9680   24.8260   42.0810 C   0  0  0  0  0  2  0  0  0  0  0  0
   38.0040   23.8790   41.5970 C   0  0  0  0  0  2  0  0  0  0  0  0
   37.7840   22.8680   42.0080 H   0  0  0  0  0  0  0  0  0  0  0  0
  1  2  1  6  0  0  0
  1 19  1  0  0  0  0
  1 27  1  0  0  0  0
  3  8  1  0  0  0  0
  3  1  1  0  0  0  0
  4  9  1  0  0  0  0
  4  3  1  0  0  0  0
  5  6  1  0  0  0  0
  5  4  1  0  0  0  0
  6  7  1  0  0  0  0
  7 15  1  0  0  0  0
  7  8  1  0  0  0  0
  8 17  1  0  0  0  0
  8 16  1  0  0  0  0
 10  4  1  0  0  0  0
 11  5  1  0  0  0  0
 12  5  1  0  0  0  0
 13  6  1  0  0  0  0
 14  7  1  0  0  0  0
 18 23  1  0  0  0  0
 18 24  1  0  0  0  0
 19 18  2  0  0  0  0
 20 21  2  0  0  0  0
 20 19  1  0  0  0  0
 21 22  1  0  0  0  0
 22 26  1  0  0  0  0
 22 23  2  0  0  0  0
 25 20  1  0  0  0  0
 27 29  1  0  0  0  0
 27 30  1  0  0  0  0
 28 27  1  0  0  0  0
 30 31  1  0  0  0  0
 31 36  1  0  0  0  0
 31 32  2  0  0  0  0
 32 37  1  0  0  0  0
 33 32  1  0  0  0  0
 34 33  2  0  0  0  0
 35 30  2  0  0  0  0
 35 34  1  0  0  0  0
 38 34  1  0  0  0  0
 39 40  1  0  0  0  0
 39 38  1  0  0  0  0
M  END
>  <minimizedAffinity>
-5.10509539

$$$$

 OpenBabel03252502403D

 40 42  0  0  1  0  0  0  0  0999 V2000
   37.7120   30.1360   39.5560 C   0  0  1  0  0  0  0  0  0  0  0  0
   36.6620   30.0850   39.9700 H   0  0  0  0  0  0  0  0  0  0  0  0
   38.0840   31.5230   39.6250 N   0  0  0  0  0  0  0  0  0  0  0  0
   37.0330   32.3660   40.0570 C   0  0  0  0  0  0  0  0  0  0  0  0
   37.4770   33.7920   39.6870 C   0  0  0  0  0  0  0  0  0  0  0  0
   38.5230   34.0670   40.6370 N   0  0  0  0  0  0  0  0  0  0  0  0
   39.6170   33.1940   40.5150 C   0  0  0  0  0  0  0  0  0  0  0  0
   39.2740   31.7210   40.3400 C   0  0  0  0  0  0  0  0  0  0  0  0
   36.8150   32.3510   41.1410 H   0  0  0  0  0  0  0  0  0  0  0  0
   36.1220   32.1830   39.4270 H   0  0  0  0  0  0  0  0  0  0  0  0
   37.9390   33.7820   38.6860 H   0  0  0  0  0  0  0  0  0  0  0  0
   36.6580   34.5010   39.8050 H   0  0  0  0  0  0  0  0  0  0  0  0
   38.2100   34.3150   41.5830 H   0  0  0  0  0  0  0  0  0  0  0  0
   40.2510   33.5160   39.6560 H   0  0  0  0  0  0  0  0  0  0  0  0
   40.2920   33.3520   41.4050 H   0  0  0  0  0  0  0  0  0  0  0  0
   40.2050   31.2920   40.0560 H   0  0  0  0  0  0  0  0  0  0  0  0
   38.9880   31.5120   41.4210 H   0  0  0  0  0  0  0  0  0  0  0  0
   38.7430   28.7440   37.7610 C   0  0  0  0  0  0  0  0  0  0  0  0
   37.7200   29.5300   38.2620 C   0  0  0  0  0  0  0  0  0  0  0  0
   36.6230   29.7240   37.4000 C   0  0  0  0  0  0  0  0  0  0  0  0
   36.6220   29.1470   36.1580 N   0  0  0  0  0  0  0  0  0  0  0  0
   37.6670   28.3880   35.7380 C   0  0  0  0  0  0  0  0  0  0  0  0
   38.7250   28.1890   36.5430 N   0  0  0  0  0  0  0  0  0  0  0  0
   39.6120   28.5590   38.3760 H   0  0  0  0  0  0  0  0  0  0  0  0
   35.7640   30.3180   37.6780 H   0  0  0  0  0  0  0  0  0  0  0  0
   37.5440   27.9950   34.7500 H   0  0  0  0  0  0  0  0  0  0  0  0
   38.6460   29.3290   40.4660 C   0  0  0  0  0  0  0  0  0  0  0  0
   39.2660   30.2040   40.8480 H   0  0  0  0  0  0  0  0  0  0  0  0
   39.4240   28.7600   39.9640 H   0  0  0  0  0  0  0  0  0  0  0  0
   38.0300   28.5850   41.5140 C   0  0  0  0  0  0  0  0  0  0  0  0
   37.6310   28.7900   42.7900 C   0  0  0  0  0  0  0  0  0  0  0  0
   37.0430   27.8850   43.6530 C   0  0  0  0  0  0  0  0  0  0  0  0
   36.8510   26.6700   43.1620 N   0  0  0  0  0  0  0  0  0  0  0  0
   37.2090   26.3840   41.9310 C   0  0  0  0  0  0  0  0  0  0  0  0
   37.7650   27.3050   41.1680 N   0  0  0  0  0  0  0  0  0  0  0  0
   37.8400   29.8290   43.1140 H   0  0  0  0  0  0  0  0  0  0  0  0
   36.7950   28.2310   44.6300 H   0  0  0  0  0  0  0  0  0  0  0  0
   36.9520   24.9750   41.4540 C   0  0  0  0  0  2  0  0  0  0  0  0
   37.9560   24.0200   41.9870 C   0  0  0  0  0  2  0  0  0  0  0  0
   37.4530   23.0470   42.1870 H   0  0  0  0  0  0  0  0  0  0  0  0
  1  3  1  0  0  0  0
  1  2  1  1  0  0  0
  1 27  1  0  0  0  0
  3  4  1  0  0  0  0
  3  8  1  0  0  0  0
  4  9  1  0  0  0  0
  5 12  1  0  0  0  0
  5  4  1  0  0  0  0
  5  6  1  0  0  0  0
  6 13  1  0  0  0  0
  7  6  1  0  0  0  0
  7 15  1  0  0  0  0
  8  7  1  0  0  0  0
  8 17  1  0  0  0  0
 10  4  1  0  0  0  0
 11  5  1  0  0  0  0
 14  7  1  0  0  0  0
 16  8  1  0  0  0  0
 18 19  1  0  0  0  0
 18 24  1  0  0  0  0
 19  1  1  0  0  0  0
 20 25  1  0  0  0  0
 20 19  2  0  0  0  0
 21 20  1  0  0  0  0
 22 21  2  0  0  0  0
 22 23  1  0  0  0  0
 23 18  2  0  0  0  0
 26 22  1  0  0  0  0
 27 28  1  0  0  0  0
 27 30  1  0  0  0  0
 29 27  1  0  0  0  0
 30 31  1  0  0  0  0
 31 36  1  0  0  0  0
 31 32  2  0  0  0  0
 32 37  1  0  0  0  0
 33 32  1  0  0  0  0
 34 33  2  0  0  0  0
 35 30  2  0  0  0  0
 35 34  1  0  0  0  0
 38 34  1  0  0  0  0
 38 39  1  0  0  0  0
 39 40  1  0  0  0  0
M  END
>  <minimizedAffinity>
-4.89323235

$$$$

 OpenBabel03252502403D

 40 42  0  0  1  0  0  0  0  0999 V2000
   37.9500   30.2720   40.0550 C   0  0  1  0  0  0  0  0  0  0  0  0
   38.3240   29.7310   39.1350 H   0  0  0  0  0  0  0  0  0  0  0  0
   38.6550   31.5260   40.0730 N   0  0  0  0  0  0  0  0  0  0  0  0
   39.4700   31.7290   38.9350 C   0  0  0  0  0  0  0  0  0  0  0  0
   40.4170   32.8810   39.3140 C   0  0  0  0  0  0  0  0  0  0  0  0
   39.5530   34.0330   39.3030 N   0  0  0  0  0  0  0  0  0  0  0  0
   38.5200   33.9510   40.2520 C   0  0  0  0  0  0  0  0  0  0  0  0
   37.8070   32.6090   40.3410 C   0  0  0  0  0  0  0  0  0  0  0  0
   38.9420   32.0180   38.0070 H   0  0  0  0  0  0  0  0  0  0  0  0
   40.1460   30.8440   38.7940 H   0  0  0  0  0  0  0  0  0  0  0  0
   40.7640   32.7420   40.3510 H   0  0  0  0  0  0  0  0  0  0  0  0
   41.2130   32.9930   38.5780 H   0  0  0  0  0  0  0  0  0  0  0  0
   39.3260   34.4090   38.3760 H   0  0  0  0  0  0  0  0  0  0  0  0
   38.9240   34.2070   41.2590 H   0  0  0  0  0  0  0  0  0  0  0  0
   37.7910   34.7880   40.0480 H   0  0  0  0  0  0  0  0  0  0  0  0
   37.2380   32.7010   41.2350 H   0  0  0  0  0  0  0  0  0  0  0  0
   37.1840   32.7170   39.3950 H   0  0  0  0  0  0  0  0  0  0  0  0
   37.3710   29.4730   42.3450 C   0  0  0  0  0  0  0  0  0  0  0  0
   38.1250   29.4180   41.1870 C   0  0  0  0  0  0  0  0  0  0  0  0
   39.1310   28.4330   41.1620 C   0  0  0  0  0  0  0  0  0  0  0  0
   39.3050   27.6100   42.2420 N   0  0  0  0  0  0  0  0  0  0  0  0
   38.5230   27.7270   43.3460 C   0  0  0  0  0  0  0  0  0  0  0  0
   37.5560   28.6610   43.3920 N   0  0  0  0  0  0  0  0  0  0  0  0
   36.5830   30.2090   42.4240 H   0  0  0  0  0  0  0  0  0  0  0  0
   39.7860   28.2910   40.3130 H   0  0  0  0  0  0  0  0  0  0  0  0
   38.7600   27.0270   44.1200 H   0  0  0  0  0  0  0  0  0  0  0  0
   36.4510   30.5500   39.8940 C   0  0  0  0  0  0  0  0  0  0  0  0
   36.5400   31.6460   39.5980 H   0  0  0  0  0  0  0  0  0  0  0  0
   35.8860   30.6570   40.8160 H   0  0  0  0  0  0  0  0  0  0  0  0
   35.7570   29.7670   38.9270 C   0  0  0  0  0  0  0  0  0  0  0  0
   34.6380   29.0100   38.8650 C   0  0  0  0  0  0  0  0  0  0  0  0
   34.1460   28.3060   37.7820 C   0  0  0  0  0  0  0  0  0  0  0  0
   34.8650   28.3900   36.6730 N   0  0  0  0  0  0  0  0  0  0  0  0
   35.9670   29.1040   36.6450 C   0  0  0  0  0  0  0  0  0  0  0  0
   36.3710   29.7480   37.7220 N   0  0  0  0  0  0  0  0  0  0  0  0
   34.1100   28.9940   39.8390 H   0  0  0  0  0  0  0  0  0  0  0  0
   33.2410   27.7610   37.9230 H   0  0  0  0  0  0  0  0  0  0  0  0
   36.7230   29.1430   35.3380 C   0  0  0  0  0  2  0  0  0  0  0  0
   36.0330   29.9810   34.3260 C   0  0  0  0  0  2  0  0  0  0  0  0
   36.8010   30.5020   33.7090 H   0  0  0  0  0  0  0  0  0  0  0  0
  1  2  1  6  0  0  0
  1  3  1  0  0  0  0
  1 19  1  0  0  0  0
  3  8  1  0  0  0  0
  4  5  1  0  0  0  0
  4  3  1  0  0  0  0
  5 11  1  0  0  0  0
  6  5  1  0  0  0  0
  6  7  1  0  0  0  0
  7  8  1  0  0  0  0
  7 14  1  0  0  0  0
  8 16  1  0  0  0  0
  9  4  1  0  0  0  0
 10  4  1  0  0  0  0
 12  5  1  0  0  0  0
 13  6  1  0  0  0  0
 15  7  1  0  0  0  0
 17  8  1  0  0  0  0
 18 24  1  0  0  0  0
 18 23  1  0  0  0  0
 19 18  2  0  0  0  0
 20 19  1  0  0  0  0
 20 21  2  0  0  0  0
 21 22  1  0  0  0  0
 22 23  2  0  0  0  0
 22 26  1  0  0  0  0
 25 20  1  0  0  0  0
 27  1  1  0  0  0  0
 27 29  1  0  0  0  0
 28 27  1  0  0  0  0
 30 27  1  0  0  0  0
 31 30  1  0  0  0  0
 31 36  1  0  0  0  0
 32 37  1  0  0  0  0
 32 31  2  0  0  0  0
 33 32  1  0  0  0  0
 34 33  2  0  0  0  0
 34 35  1  0  0  0  0
 35 30  2  0  0  0  0
 38 34  1  0  0  0  0
 39 38  1  0  0  0  0
 40 39  1  0  0  0  0
M  END
>  <minimizedAffinity>
-4.79439926

$$$$

 OpenBabel03252502403D

 40 42  0  0  1  0  0  0  0  0999 V2000
   37.2930   29.6420   40.2900 C   0  0  1  0  0  0  0  0  0  0  0  0
   38.2690   29.6990   39.7230 H   0  0  0  0  0  0  0  0  0  0  0  0
   37.4930   28.6350   41.2970 N   0  0  0  0  0  0  0  0  0  0  0  0
   38.7180   27.9400   41.1610 C   0  0  0  0  0  0  0  0  0  0  0  0
   38.5720   26.6840   42.0370 C   0  0  0  0  0  0  0  0  0  0  0  0
   38.6430   27.2070   43.3770 N   0  0  0  0  0  0  0  0  0  0  0  0
   37.5990   28.1010   43.6710 C   0  0  0  0  0  0  0  0  0  0  0  0
   37.2820   29.1270   42.5920 C   0  0  0  0  0  0  0  0  0  0  0  0
   39.6220   28.4830   41.4980 H   0  0  0  0  0  0  0  0  0  0  0  0
   38.8120   27.5450   40.1150 H   0  0  0  0  0  0  0  0  0  0  0  0
   37.5620   26.2610   41.9040 H   0  0  0  0  0  0  0  0  0  0  0  0
   39.3870   25.9830   41.8570 H   0  0  0  0  0  0  0  0  0  0  0  0
   39.5840   27.4390   43.7140 H   0  0  0  0  0  0  0  0  0  0  0  0
   36.6720   27.5240   43.8970 H   0  0  0  0  0  0  0  0  0  0  0  0
   37.8360   28.6020   44.6540 H   0  0  0  0  0  0  0  0  0  0  0  0
   36.3560   29.5370   42.9190 H   0  0  0  0  0  0  0  0  0  0  0  0
   38.1720   29.8100   42.7800 H   0  0  0  0  0  0  0  0  0  0  0  0
   34.9260   29.1320   39.6920 C   0  0  0  0  0  0  0  0  0  0  0  0
   36.2370   29.4170   39.3540 C   0  0  0  0  0  0  0  0  0  0  0  0
   36.5100   29.4800   37.9740 C   0  0  0  0  0  0  0  0  0  0  0  0
   35.5040   29.2660   37.0700 N   0  0  0  0  0  0  0  0  0  0  0  0
   34.2390   28.9910   37.4820 C   0  0  0  0  0  0  0  0  0  0  0  0
   33.9560   28.9240   38.7940 N   0  0  0  0  0  0  0  0  0  0  0  0
   34.6550   29.0700   40.7360 H   0  0  0  0  0  0  0  0  0  0  0  0
   37.4960   29.6950   37.5850 H   0  0  0  0  0  0  0  0  0  0  0  0
   33.5470   28.8440   36.6790 H   0  0  0  0  0  0  0  0  0  0  0  0
   37.0400   30.9870   40.9810 C   0  0  0  0  0  0  0  0  0  0  0  0
   37.1210   30.6150   42.0540 H   0  0  0  0  0  0  0  0  0  0  0  0
   36.0090   31.3320   40.9860 H   0  0  0  0  0  0  0  0  0  0  0  0
   37.9550   32.0380   40.6860 C   0  0  0  0  0  0  0  0  0  0  0  0
   37.9130   33.2960   40.1900 C   0  0  0  0  0  0  0  0  0  0  0  0
   38.9690   34.1610   39.9730 C   0  0  0  0  0  0  0  0  0  0  0  0
   40.1660   33.6910   40.2940 N   0  0  0  0  0  0  0  0  0  0  0  0
   40.2970   32.4800   40.7840 C   0  0  0  0  0  0  0  0  0  0  0  0
   39.2390   31.7140   40.9610 N   0  0  0  0  0  0  0  0  0  0  0  0
   36.8750   33.5960   39.9440 H   0  0  0  0  0  0  0  0  0  0  0  0
   38.7410   35.1210   39.5710 H   0  0  0  0  0  0  0  0  0  0  0  0
   41.6980   32.0280   41.1220 C   0  0  0  0  0  2  0  0  0  0  0  0
   42.5900   33.1750   41.4250 C   0  0  0  0  0  2  0  0  0  0  0  0
   43.3030   32.8720   42.2250 H   0  0  0  0  0  0  0  0  0  0  0  0
  1  2  1  6  0  0  0
  1 27  1  0  0  0  0
  1  3  1  0  0  0  0
  3  8  1  0  0  0  0
  4  3  1  0  0  0  0
  4  9  1  0  0  0  0
  4  5  1  0  0  0  0
  5  6  1  0  0  0  0
  6  7  1  0  0  0  0
  6 13  1  0  0  0  0
  7 14  1  0  0  0  0
  7 15  1  0  0  0  0
  8 17  1  0  0  0  0
  8 16  1  0  0  0  0
  8  7  1  0  0  0  0
 10  4  1  0  0  0  0
 11  5  1  0  0  0  0
 12  5  1  0  0  0  0
 18 24  1  0  0  0  0
 19 18  1  0  0  0  0
 19  1  1  0  0  0  0
 20 19  2  0  0  0  0
 21 22  2  0  0  0  0
 21 20  1  0  0  0  0
 22 23  1  0  0  0  0
 23 18  2  0  0  0  0
 25 20  1  0  0  0  0
 26 22  1  0  0  0  0
 27 29  1  0  0  0  0
 27 28  1  0  0  0  0
 30 35  1  0  0  0  0
 30 27  1  0  0  0  0
 31 30  2  0  0  0  0
 32 31  1  0  0  0  0
 32 33  2  0  0  0  0
 33 34  1  0  0  0  0
 34 35  2  0  0  0  0
 34 38  1  0  0  0  0
 36 31  1  0  0  0  0
 37 32  1  0  0  0  0
 38 39  1  0  0  0  0
 39 40  1  0  0  0  0
M  END
>  <minimizedAffinity>
-4.71652985

$$$$

 OpenBabel03252502403D

 40 42  0  0  1  0  0  0  0  0999 V2000
   36.5400   29.5930   38.8390 C   0  0  1  0  0  0  0  0  0  0  0  0
   36.0500   29.5940   39.8580 H   0  0  0  0  0  0  0  0  0  0  0  0
   37.1710   30.8800   38.7160 N   0  0  0  0  0  0  0  0  0  0  0  0
   36.8940   31.7470   39.7990 C   0  0  0  0  0  0  0  0  0  0  0  0
   37.2970   33.1490   39.3100 C   0  0  0  0  0  0  0  0  0  0  0  0
   38.7360   33.0920   39.3000 N   0  0  0  0  0  0  0  0  0  0  0  0
   39.2400   32.1280   38.4110 C   0  0  0  0  0  0  0  0  0  0  0  0
   38.5390   30.7760   38.4320 C   0  0  0  0  0  0  0  0  0  0  0  0
   37.4470   31.5440   40.7350 H   0  0  0  0  0  0  0  0  0  0  0  0
   35.7840   31.8120   39.9540 H   0  0  0  0  0  0  0  0  0  0  0  0
   36.9690   33.2800   38.2650 H   0  0  0  0  0  0  0  0  0  0  0  0
   36.9500   33.9200   39.9970 H   0  0  0  0  0  0  0  0  0  0  0  0
   39.1900   33.1850   40.2160 H   0  0  0  0  0  0  0  0  0  0  0  0
   39.2040   32.5310   37.3720 H   0  0  0  0  0  0  0  0  0  0  0  0
   40.3450   32.0170   38.6050 H   0  0  0  0  0  0  0  0  0  0  0  0
   38.9230   30.2960   37.5630 H   0  0  0  0  0  0  0  0  0  0  0  0
   38.9980   30.3950   39.4010 H   0  0  0  0  0  0  0  0  0  0  0  0
   35.7600   29.2650   36.4930 C   0  0  0  0  0  0  0  0  0  0  0  0
   35.5520   29.2640   37.8600 C   0  0  0  0  0  0  0  0  0  0  0  0
   34.2550   28.9060   38.2780 C   0  0  0  0  0  0  0  0  0  0  0  0
   33.3030   28.5880   37.3470 N   0  0  0  0  0  0  0  0  0  0  0  0
   33.5850   28.6140   36.0200 C   0  0  0  0  0  0  0  0  0  0  0  0
   34.8160   28.9530   35.5970 N   0  0  0  0  0  0  0  0  0  0  0  0
   36.7350   29.5320   36.1100 H   0  0  0  0  0  0  0  0  0  0  0  0
   33.9700   28.8680   39.3210 H   0  0  0  0  0  0  0  0  0  0  0  0
   32.7560   28.3460   35.3970 H   0  0  0  0  0  0  0  0  0  0  0  0
   37.6220   28.5080   38.8090 C   0  0  0  0  0  0  0  0  0  0  0  0
   38.4950   29.1660   39.1250 H   0  0  0  0  0  0  0  0  0  0  0  0
   37.9680   28.2090   37.8230 H   0  0  0  0  0  0  0  0  0  0  0  0
   37.4280   27.3900   39.6700 C   0  0  0  0  0  0  0  0  0  0  0  0
   37.3680   26.0420   39.5680 C   0  0  0  0  0  0  0  0  0  0  0  0
   37.1520   25.1210   40.5760 C   0  0  0  0  0  0  0  0  0  0  0  0
   36.9850   25.6300   41.7870 N   0  0  0  0  0  0  0  0  0  0  0  0
   37.0290   26.9290   41.9770 C   0  0  0  0  0  0  0  0  0  0  0  0
   37.2400   27.7440   40.9620 N   0  0  0  0  0  0  0  0  0  0  0  0
   37.5100   25.7130   38.5200 H   0  0  0  0  0  0  0  0  0  0  0  0
   37.1370   24.0910   40.3020 H   0  0  0  0  0  0  0  0  0  0  0  0
   36.8290   27.4210   43.3910 C   0  0  0  0  0  2  0  0  0  0  0  0
   37.6140   28.6500   43.6640 C   0  0  0  0  0  2  0  0  0  0  0  0
   37.0270   29.3040   44.3480 H   0  0  0  0  0  0  0  0  0  0  0  0
  1  2  1  1  0  0  0
  3  1  1  0  0  0  0
  3  4  1  0  0  0  0
  4 10  1  0  0  0  0
  4  9  1  0  0  0  0
  5  4  1  0  0  0  0
  5 12  1  0  0  0  0
  6  5  1  0  0  0  0
  6 13  1  0  0  0  0
  7  8  1  0  0  0  0
  7 15  1  0  0  0  0
  7  6  1  0  0  0  0
  8  3  1  0  0  0  0
  8 17  1  0  0  0  0
 11  5  1  0  0  0  0
 14  7  1  0  0  0  0
 16  8  1  0  0  0  0
 18 19  1  0  0  0  0
 19 20  2  0  0  0  0
 19  1  1  0  0  0  0
 20 25  1  0  0  0  0
 21 20  1  0  0  0  0
 22 21  2  0  0  0  0
 23 22  1  0  0  0  0
 23 18  2  0  0  0  0
 24 18  1  0  0  0  0
 26 22  1  0  0  0  0
 27  1  1  0  0  0  0
 27 28  1  0  0  0  0
 27 30  1  0  0  0  0
 29 27  1  0  0  0  0
 30 35  1  0  0  0  0
 31 30  2  0  0  0  0
 31 32  1  0  0  0  0
 32 33  2  0  0  0  0
 33 34  1  0  0  0  0
 34 38  1  0  0  0  0
 35 34  2  0  0  0  0
 36 31  1  0  0  0  0
 37 32  1  0  0  0  0
 38 39  1  0  0  0  0
 39 40  1  0  0  0  0
M  END
>  <minimizedAffinity>
-4.70387459

$$$$

 OpenBabel03252502403D

 40 42  0  0  1  0  0  0  0  0999 V2000
   36.0630   29.1750   39.3100 C   0  0  1  0  0  0  0  0  0  0  0  0
   35.4580   29.4350   40.2280 H   0  0  0  0  0  0  0  0  0  0  0  0
   36.5670   30.4280   38.8150 N   0  0  0  0  0  0  0  0  0  0  0  0
   36.9940   31.3050   39.8400 C   0  0  0  0  0  0  0  0  0  0  0  0
   37.1070   32.6860   39.1710 C   0  0  0  0  0  0  0  0  0  0  0  0
   38.2790   32.5560   38.3460 N   0  0  0  0  0  0  0  0  0  0  0  0
   38.1450   31.5710   37.3540 C   0  0  0  0  0  0  0  0  0  0  0  0
   37.5240   30.2560   37.8060 C   0  0  0  0  0  0  0  0  0  0  0  0
   37.9720   31.0720   40.3000 H   0  0  0  0  0  0  0  0  0  0  0  0
   36.1740   31.4250   40.5970 H   0  0  0  0  0  0  0  0  0  0  0  0
   36.2480   32.8360   38.4960 H   0  0  0  0  0  0  0  0  0  0  0  0
   37.2470   33.4710   39.9130 H   0  0  0  0  0  0  0  0  0  0  0  0
   39.1780   32.6240   38.8380 H   0  0  0  0  0  0  0  0  0  0  0  0
   37.5410   31.9770   36.5100 H   0  0  0  0  0  0  0  0  0  0  0  0
   39.1580   31.4040   36.8870 H   0  0  0  0  0  0  0  0  0  0  0  0
   37.3230   29.7600   36.8870 H   0  0  0  0  0  0  0  0  0  0  0  0
   38.4350   29.8490   38.3510 H   0  0  0  0  0  0  0  0  0  0  0  0
   35.5230   27.1370   37.9770 C   0  0  0  0  0  0  0  0  0  0  0  0
   35.2400   28.4160   38.4220 C   0  0  0  0  0  0  0  0  0  0  0  0
   34.0410   28.9760   37.9410 C   0  0  0  0  0  0  0  0  0  0  0  0
   33.2450   28.2560   37.0910 N   0  0  0  0  0  0  0  0  0  0  0  0
   33.5930   27.0040   36.6980 C   0  0  0  0  0  0  0  0  0  0  0  0
   34.7330   26.4480   37.1440 N   0  0  0  0  0  0  0  0  0  0  0  0
   36.4290   26.6530   38.3110 H   0  0  0  0  0  0  0  0  0  0  0  0
   33.7110   29.9690   38.2170 H   0  0  0  0  0  0  0  0  0  0  0  0
   32.8880   26.5490   36.0330 H   0  0  0  0  0  0  0  0  0  0  0  0
   37.2490   28.2970   39.7280 C   0  0  0  0  0  0  0  0  0  0  0  0
   38.0750   28.9870   39.3590 H   0  0  0  0  0  0  0  0  0  0  0  0
   37.4430   27.4300   39.1020 H   0  0  0  0  0  0  0  0  0  0  0  0
   37.3580   27.9910   41.1150 C   0  0  0  0  0  0  0  0  0  0  0  0
   36.5910   28.0780   42.2260 C   0  0  0  0  0  0  0  0  0  0  0  0
   36.9200   27.7160   43.5180 C   0  0  0  0  0  0  0  0  0  0  0  0
   38.1400   27.2260   43.6800 N   0  0  0  0  0  0  0  0  0  0  0  0
   38.9520   27.1060   42.6540 C   0  0  0  0  0  0  0  0  0  0  0  0
   38.5630   27.4740   41.4490 N   0  0  0  0  0  0  0  0  0  0  0  0
   35.5960   28.5050   41.9930 H   0  0  0  0  0  0  0  0  0  0  0  0
   36.1790   27.8590   44.2710 H   0  0  0  0  0  0  0  0  0  0  0  0
   40.3230   26.5370   42.9310 C   0  0  0  0  0  2  0  0  0  0  0  0
   40.2600   25.1030   43.3060 C   0  0  0  0  0  2  0  0  0  0  0  0
   41.1550   24.5850   42.8910 H   0  0  0  0  0  0  0  0  0  0  0  0
  1 27  1  0  0  0  0
  1  2  1  1  0  0  0
  3  1  1  0  0  0  0
  3  4  1  0  0  0  0
  4  9  1  0  0  0  0
  4 10  1  0  0  0  0
  5  4  1  0  0  0  0
  5 12  1  0  0  0  0
  6 13  1  0  0  0  0
  6  5  1  0  0  0  0
  7  8  1  0  0  0  0
  7  6  1  0  0  0  0
  8 17  1  0  0  0  0
  8  3  1  0  0  0  0
 11  5  1  0  0  0  0
 14  7  1  0  0  0  0
 15  7  1  0  0  0  0
 16  8  1  0  0  0  0
 18 24  1  0  0  0  0
 18 19  1  0  0  0  0
 19  1  1  0  0  0  0
 20 25  1  0  0  0  0
 20 19  2  0  0  0  0
 21 20  1  0  0  0  0
 22 21  2  0  0  0  0
 22 23  1  0  0  0  0
 23 18  2  0  0  0  0
 26 22  1  0  0  0  0
 27 30  1  0  0  0  0
 28 27  1  0  0  0  0
 29 27  1  0  0  0  0
 30 35  2  0  0  0  0
 30 31  1  0  0  0  0
 31 32  2  0  0  0  0
 32 33  1  0  0  0  0
 32 37  1  0  0  0  0
 34 38  1  0  0  0  0
 34 33  2  0  0  0  0
 35 34  1  0  0  0  0
 36 31  1  0  0  0  0
 38 39  1  0  0  0  0
 40 39  1  0  0  0  0
M  END
>  <minimizedAffinity>
-4.69110298

$$$$

 OpenBabel03252502403D

 40 42  0  0  1  0  0  0  0  0999 V2000
   39.8260   30.5140   40.7960 C   0  0  1  0  0  0  0  0  0  0  0  0
   40.5710   31.0150   41.4820 H   0  0  0  0  0  0  0  0  0  0  0  0
   39.0540   31.5830   40.2220 N   0  0  0  0  0  0  0  0  0  0  0  0
   37.6830   31.2690   40.0710 C   0  0  0  0  0  0  0  0  0  0  0  0
   37.1270   32.3300   39.1060 C   0  0  0  0  0  0  0  0  0  0  0  0
   37.0990   33.5230   39.9110 N   0  0  0  0  0  0  0  0  0  0  0  0
   38.3740   33.9190   40.3490 C   0  0  0  0  0  0  0  0  0  0  0  0
   39.2680   32.8050   40.8750 C   0  0  0  0  0  0  0  0  0  0  0  0
   37.0750   31.3010   40.9940 H   0  0  0  0  0  0  0  0  0  0  0  0
   37.5790   30.3000   39.5140 H   0  0  0  0  0  0  0  0  0  0  0  0
   37.8520   32.5010   38.2930 H   0  0  0  0  0  0  0  0  0  0  0  0
   36.1220   32.0700   38.7730 H   0  0  0  0  0  0  0  0  0  0  0  0
   36.3190   33.5930   40.5750 H   0  0  0  0  0  0  0  0  0  0  0  0
   38.9050   34.4380   39.5170 H   0  0  0  0  0  0  0  0  0  0  0  0
   38.2420   34.7330   41.1180 H   0  0  0  0  0  0  0  0  0  0  0  0
   40.2200   33.2750   40.9400 H   0  0  0  0  0  0  0  0  0  0  0  0
   38.7560   32.6760   41.8830 H   0  0  0  0  0  0  0  0  0  0  0  0
   38.6120   29.7140   42.8220 C   0  0  0  0  0  0  0  0  0  0  0  0
   39.1070   29.5310   41.5440 C   0  0  0  0  0  0  0  0  0  0  0  0
   38.8660   28.2660   40.9730 C   0  0  0  0  0  0  0  0  0  0  0  0
   38.1780   27.3190   41.6820 N   0  0  0  0  0  0  0  0  0  0  0  0
   37.7220   27.5760   42.9360 C   0  0  0  0  0  0  0  0  0  0  0  0
   37.9420   28.7750   43.5010 N   0  0  0  0  0  0  0  0  0  0  0  0
   38.7650   30.6640   43.3140 H   0  0  0  0  0  0  0  0  0  0  0  0
   39.2030   28.0030   39.9800 H   0  0  0  0  0  0  0  0  0  0  0  0
   37.2020   26.7540   43.3820 H   0  0  0  0  0  0  0  0  0  0  0  0
   40.5870   29.7970   39.6740 C   0  0  0  0  0  0  0  0  0  0  0  0
   39.7190   29.7160   38.9410 H   0  0  0  0  0  0  0  0  0  0  0  0
   40.7880   28.7420   39.8350 H   0  0  0  0  0  0  0  0  0  0  0  0
   41.7120   30.4800   39.1290 C   0  0  0  0  0  0  0  0  0  0  0  0
   42.5980   31.4260   39.5190 C   0  0  0  0  0  0  0  0  0  0  0  0
   43.6420   31.9640   38.7920 C   0  0  0  0  0  0  0  0  0  0  0  0
   43.7870   31.4900   37.5630 N   0  0  0  0  0  0  0  0  0  0  0  0
   42.9710   30.5680   37.1040 C   0  0  0  0  0  0  0  0  0  0  0  0
   41.9960   30.1040   37.8610 N   0  0  0  0  0  0  0  0  0  0  0  0
   42.3920   31.7660   40.5530 H   0  0  0  0  0  0  0  0  0  0  0  0
   44.2390   32.7070   39.2690 H   0  0  0  0  0  0  0  0  0  0  0  0
   43.2100   30.0850   35.6940 C   0  0  0  0  0  2  0  0  0  0  0  0
   44.6040   30.3380   35.2520 C   0  0  0  0  0  2  0  0  0  0  0  0
   44.9310   29.4980   34.5990 H   0  0  0  0  0  0  0  0  0  0  0  0
  1  2  1  1  0  0  0
  1 19  1  0  0  0  0
  3  1  1  0  0  0  0
  3  8  1  0  0  0  0
  4  3  1  0  0  0  0
  4  9  1  0  0  0  0
  5  6  1  0  0  0  0
  5  4  1  0  0  0  0
  6  7  1  0  0  0  0
  6 13  1  0  0  0  0
  7  8  1  0  0  0  0
  7 15  1  0  0  0  0
  8 16  1  0  0  0  0
  8 17  1  0  0  0  0
 10  4  1  0  0  0  0
 11  5  1  0  0  0  0
 12  5  1  0  0  0  0
 14  7  1  0  0  0  0
 18 24  1  0  0  0  0
 18 23  1  0  0  0  0
 19 18  2  0  0  0  0
 20 19  1  0  0  0  0
 20 21  2  0  0  0  0
 21 22  1  0  0  0  0
 22 26  1  0  0  0  0
 22 23  2  0  0  0  0
 25 20  1  0  0  0  0
 27 29  1  0  0  0  0
 27  1  1  0  0  0  0
 28 27  1  0  0  0  0
 30 31  1  0  0  0  0
 30 27  1  0  0  0  0
 31 36  1  0  0  0  0
 32 37  1  0  0  0  0
 32 31  2  0  0  0  0
 33 32  1  0  0  0  0
 34 33  2  0  0  0  0
 34 35  1  0  0  0  0
 35 30  2  0  0  0  0
 38 34  1  0  0  0  0
 39 38  1  0  0  0  0
 40 39  1  0  0  0  0
M  END
>  <minimizedAffinity>
-4.64093018

$$$$

 OpenBabel03252502403D

 40 42  0  0  1  0  0  0  0  0999 V2000
   38.8330   29.4140   39.6520 C   0  0  1  0  0  0  0  0  0  0  0  0
   39.8390   28.9070   39.7430 H   0  0  0  0  0  0  0  0  0  0  0  0
   38.2830   28.9530   38.4060 N   0  0  0  0  0  0  0  0  0  0  0  0
   37.6170   29.9670   37.6770 C   0  0  0  0  0  0  0  0  0  0  0  0
   36.7790   29.2240   36.6210 C   0  0  0  0  0  0  0  0  0  0  0  0
   37.7690   28.7520   35.6890 N   0  0  0  0  0  0  0  0  0  0  0  0
   38.6840   27.8570   36.2680 C   0  0  0  0  0  0  0  0  0  0  0  0
   39.2210   28.2510   37.6370 C   0  0  0  0  0  0  0  0  0  0  0  0
   38.2670   30.6870   37.1460 H   0  0  0  0  0  0  0  0  0  0  0  0
   36.8600   30.4680   38.3360 H   0  0  0  0  0  0  0  0  0  0  0  0
   36.3150   28.3370   37.0820 H   0  0  0  0  0  0  0  0  0  0  0  0
   36.0810   29.9010   36.1280 H   0  0  0  0  0  0  0  0  0  0  0  0
   38.1320   29.4540   35.0340 H   0  0  0  0  0  0  0  0  0  0  0  0
   38.2130   26.8490   36.3480 H   0  0  0  0  0  0  0  0  0  0  0  0
   39.5230   27.6900   35.5330 H   0  0  0  0  0  0  0  0  0  0  0  0
   39.7030   27.3620   37.9680 H   0  0  0  0  0  0  0  0  0  0  0  0
   39.9450   29.0530   37.2790 H   0  0  0  0  0  0  0  0  0  0  0  0
   40.0570   31.5450   39.2280 C   0  0  0  0  0  0  0  0  0  0  0  0
   39.0210   30.8240   39.7920 C   0  0  0  0  0  0  0  0  0  0  0  0
   38.1030   31.5720   40.5540 C   0  0  0  0  0  0  0  0  0  0  0  0
   38.2740   32.9230   40.6930 N   0  0  0  0  0  0  0  0  0  0  0  0
   39.3210   33.5600   40.1080 C   0  0  0  0  0  0  0  0  0  0  0  0
   40.2100   32.8660   39.3760 N   0  0  0  0  0  0  0  0  0  0  0  0
   40.7940   31.0260   38.6320 H   0  0  0  0  0  0  0  0  0  0  0  0
   37.2500   31.1220   41.0450 H   0  0  0  0  0  0  0  0  0  0  0  0
   39.3420   34.6140   40.2930 H   0  0  0  0  0  0  0  0  0  0  0  0
   37.9290   28.9370   40.7960 C   0  0  0  0  0  0  0  0  0  0  0  0
   37.1440   28.4220   40.1530 H   0  0  0  0  0  0  0  0  0  0  0  0
   37.3110   29.6990   41.2620 H   0  0  0  0  0  0  0  0  0  0  0  0
   38.5210   28.0660   41.7550 C   0  0  0  0  0  0  0  0  0  0  0  0
   39.3660   28.1580   42.8080 C   0  0  0  0  0  0  0  0  0  0  0  0
   39.8280   27.1390   43.6190 C   0  0  0  0  0  0  0  0  0  0  0  0
   39.3830   25.9270   43.3220 N   0  0  0  0  0  0  0  0  0  0  0  0
   38.5580   25.7480   42.3160 C   0  0  0  0  0  0  0  0  0  0  0  0
   38.1630   26.7730   41.5870 N   0  0  0  0  0  0  0  0  0  0  0  0
   39.6900   29.2040   42.9720 H   0  0  0  0  0  0  0  0  0  0  0  0
   40.4950   27.4050   44.4070 H   0  0  0  0  0  0  0  0  0  0  0  0
   38.1020   24.3330   42.0510 C   0  0  0  0  0  2  0  0  0  0  0  0
   36.7380   24.2930   41.4680 C   0  0  0  0  0  2  0  0  0  0  0  0
   36.6850   23.4530   40.7380 H   0  0  0  0  0  0  0  0  0  0  0  0
  1  2  1  1  0  0  0
  1 19  1  0  0  0  0
  1 27  1  0  0  0  0
  3  1  1  0  0  0  0
  4 10  1  0  0  0  0
  4  3  1  0  0  0  0
  5 11  1  0  0  0  0
  5  4  1  0  0  0  0
  6  7  1  0  0  0  0
  6  5  1  0  0  0  0
  7 14  1  0  0  0  0
  7  8  1  0  0  0  0
  8 16  1  0  0  0  0
  8  3  1  0  0  0  0
  9  4  1  0  0  0  0
 12  5  1  0  0  0  0
 13  6  1  0  0  0  0
 15  7  1  0  0  0  0
 17  8  1  0  0  0  0
 18 23  2  0  0  0  0
 18 19  1  0  0  0  0
 19 20  2  0  0  0  0
 20 21  1  0  0  0  0
 20 25  1  0  0  0  0
 22 26  1  0  0  0  0
 22 21  2  0  0  0  0
 23 22  1  0  0  0  0
 24 18  1  0  0  0  0
 27 29  1  0  0  0  0
 27 30  1  0  0  0  0
 28 27  1  0  0  0  0
 30 31  1  0  0  0  0
 31 36  1  0  0  0  0
 31 32  2  0  0  0  0
 32 37  1  0  0  0  0
 33 32  1  0  0  0  0
 34 33  2  0  0  0  0
 35 30  2  0  0  0  0
 35 34  1  0  0  0  0
 38 34  1  0  0  0  0
 39 38  1  0  0  0  0
 40 39  1  0  0  0  0
M  END
>  <minimizedAffinity>
-4.61745596

$$$$

 OpenBabel03252502403D

 40 42  0  0  1  0  0  0  0  0999 V2000
   36.9700   29.2770   38.1290 C   0  0  1  0  0  0  0  0  0  0  0  0
   37.8670   28.5980   38.0220 H   0  0  0  0  0  0  0  0  0  0  0  0
   36.3780   29.3400   36.8200 N   0  0  0  0  0  0  0  0  0  0  0  0
   37.0750   28.5800   35.8520 C   0  0  0  0  0  0  0  0  0  0  0  0
   36.5560   29.0800   34.4920 C   0  0  0  0  0  0  0  0  0  0  0  0
   35.2230   28.5400   34.4300 N   0  0  0  0  0  0  0  0  0  0  0  0
   34.3880   29.0240   35.4520 C   0  0  0  0  0  0  0  0  0  0  0  0
   35.0030   29.0700   36.8440 C   0  0  0  0  0  0  0  0  0  0  0  0
   36.9170   27.4850   35.8900 H   0  0  0  0  0  0  0  0  0  0  0  0
   38.1600   28.8640   35.8610 H   0  0  0  0  0  0  0  0  0  0  0  0
   36.4630   30.1790   34.5190 H   0  0  0  0  0  0  0  0  0  0  0  0
   37.1640   28.6940   33.6740 H   0  0  0  0  0  0  0  0  0  0  0  0
   35.1580   27.5450   34.1870 H   0  0  0  0  0  0  0  0  0  0  0  0
   34.0350   30.0470   35.1850 H   0  0  0  0  0  0  0  0  0  0  0  0
   33.4390   28.4150   35.4450 H   0  0  0  0  0  0  0  0  0  0  0  0
   34.3020   29.6510   37.3940 H   0  0  0  0  0  0  0  0  0  0  0  0
   34.9400   27.9560   37.0630 H   0  0  0  0  0  0  0  0  0  0  0  0
   36.7460   31.1890   39.7140 C   0  0  0  0  0  0  0  0  0  0  0  0
   37.4020   30.5130   38.7020 C   0  0  0  0  0  0  0  0  0  0  0  0
   38.5790   31.1220   38.2260 C   0  0  0  0  0  0  0  0  0  0  0  0
   39.0010   32.3060   38.7690 N   0  0  0  0  0  0  0  0  0  0  0  0
   38.3000   32.9100   39.7630 C   0  0  0  0  0  0  0  0  0  0  0  0
   37.1720   32.3470   40.2320 N   0  0  0  0  0  0  0  0  0  0  0  0
   35.8360   30.7720   40.1210 H   0  0  0  0  0  0  0  0  0  0  0  0
   39.1800   30.6900   37.4370 H   0  0  0  0  0  0  0  0  0  0  0  0
   38.7330   33.8290   40.1000 H   0  0  0  0  0  0  0  0  0  0  0  0
   35.9680   28.6290   39.0930 C   0  0  0  0  0  0  0  0  0  0  0  0
   35.1520   28.4160   38.3290 H   0  0  0  0  0  0  0  0  0  0  0  0
   35.4310   29.3090   39.7490 H   0  0  0  0  0  0  0  0  0  0  0  0
   36.4070   27.4600   39.7780 C   0  0  0  0  0  0  0  0  0  0  0  0
   36.4890   26.1300   39.5440 C   0  0  0  0  0  0  0  0  0  0  0  0
   36.9580   25.1440   40.3910 C   0  0  0  0  0  0  0  0  0  0  0  0
   37.3760   25.5620   41.5760 N   0  0  0  0  0  0  0  0  0  0  0  0
   37.3330   26.8370   41.8870 C   0  0  0  0  0  0  0  0  0  0  0  0
   36.8710   27.7190   41.0220 N   0  0  0  0  0  0  0  0  0  0  0  0
   36.1090   25.8760   38.5350 H   0  0  0  0  0  0  0  0  0  0  0  0
   36.9450   24.1410   40.0300 H   0  0  0  0  0  0  0  0  0  0  0  0
   37.8310   27.2230   43.2590 C   0  0  0  0  0  2  0  0  0  0  0  0
   37.5420   28.6450   43.5710 C   0  0  0  0  0  2  0  0  0  0  0  0
   37.3080   28.7330   44.6570 H   0  0  0  0  0  0  0  0  0  0  0  0
  1  2  1  6  0  0  0
  1 19  1  0  0  0  0
  1 27  1  0  0  0  0
  3  8  1  0  0  0  0
  3  1  1  0  0  0  0
  4 10  1  0  0  0  0
  4  9  1  0  0  0  0
  4  3  1  0  0  0  0
  5 11  1  0  0  0  0
  5  4  1  0  0  0  0
  6  5  1  0  0  0  0
  6  7  1  0  0  0  0
  7  8  1  0  0  0  0
  8 17  1  0  0  0  0
  8 16  1  0  0  0  0
 12  5  1  0  0  0  0
 13  6  1  0  0  0  0
 14  7  1  0  0  0  0
 15  7  1  0  0  0  0
 18 24  1  0  0  0  0
 18 23  1  0  0  0  0
 19 18  2  0  0  0  0
 20 19  1  0  0  0  0
 20 21  2  0  0  0  0
 21 22  1  0  0  0  0
 22 26  1  0  0  0  0
 22 23  2  0  0  0  0
 25 20  1  0  0  0  0
 27 29  1  0  0  0  0
 27 30  1  0  0  0  0
 28 27  1  0  0  0  0
 30 35  1  0  0  0  0
 31 30  2  0  0  0  0
 31 32  1  0  0  0  0
 32 33  2  0  0  0  0
 33 34  1  0  0  0  0
 34 38  1  0  0  0  0
 35 34  2  0  0  0  0
 36 31  1  0  0  0  0
 37 32  1  0  0  0  0
 38 39  1  0  0  0  0
 39 40  1  0  0  0  0
M  END
>  <minimizedAffinity>
-4.57357407

$$$$
