
 OpenBabel03252506183D

 17 17  0  0  0  0  0  0  0  0999 V2000
   44.8240   35.7070   43.8060 C   0  0  0  0  0  0  0  0  0  0  0  0
   44.1980   35.4650   42.5680 C   0  0  0  0  0  0  0  0  0  0  0  0
   44.1600   34.1360   42.0980 C   0  0  0  0  0  0  0  0  0  0  0  0
   44.7320   33.1620   42.8680 N   0  0  0  0  0  0  0  0  0  0  0  0
   45.3290   33.4480   44.0640 C   0  0  0  0  0  0  0  0  0  0  0  0
   45.3630   34.7230   44.5110 N   0  0  0  0  0  0  0  0  0  0  0  0
   43.7540   36.2420   41.9740 H   0  0  0  0  0  0  0  0  0  0  0  0
   43.6990   33.8810   41.1630 H   0  0  0  0  0  0  0  0  0  0  0  0
   44.8520   37.0780   44.2820 C   0  0  0  0  0  0  0  0  0  0  0  0
   45.3690   38.0220   43.5280 C   0  0  0  0  0  0  0  0  0  0  0  0
   45.4330   39.4400   43.9320 C   0  0  0  0  0  0  0  0  0  0  0  0
   46.0690   39.4750   44.8530 H   0  0  0  0  0  0  0  0  0  0  0  0
   45.8750   40.0520   43.1480 H   0  0  0  0  0  0  0  0  0  0  0  0
   44.4200   39.8140   44.2250 H   0  0  0  0  0  0  0  0  0  0  0  0
   45.9430   32.3690   44.8820 C   0  0  0  0  0  0  0  0  0  0  0  0
   46.4430   33.0150   46.1630 C   0  0  0  0  0  0  0  0  0  0  0  0
   46.5640   32.3110   46.9880 H   0  0  0  0  0  0  0  0  0  0  0  0
  1  9  1  0  0  0  0
  1  6  1  0  0  0  0
  2  1  2  0  0  0  0
  3  2  1  0  0  0  0
  3  4  2  0  0  0  0
  4  5  1  0  0  0  0
  5  6  2  0  0  0  0
  5 15  1  0  0  0  0
  7  2  1  0  0  0  0
  8  3  1  0  0  0  0
 10 11  1  0  0  0  0
 10  9  2  0  0  0  0
 11 14  1  0  0  0  0
 11 12  1  0  0  0  0
 13 11  1  0  0  0  0
 15 16  1  0  0  0  0
 16 17  1  0  0  0  0
M  END
>  <minimizedAffinity>
-2.88518262

>  <minimizedRMSD>
0.617387474

$$$$
