
 OpenBabel03252508553D

 37 39  0  0  1  0  0  0  0  0999 V2000
   39.2620   28.7620   40.7630 C   0  0  0  0  0  0  0  0  0  0  0  0
   39.8020   27.6240   40.6760 O   0  0  0  0  0  0  0  0  0  0  0  0
   38.4240   28.5560   41.9400 N   0  0  0  0  0  0  0  0  0  0  0  0
   39.1620   28.1900   43.1400 C   0  0  0  0  0  0  0  0  0  0  0  0
   39.0070   26.6800   43.2590 C   0  0  0  0  0  0  0  0  0  0  0  0
   37.6120   26.3380   42.7540 C   0  0  0  0  0  0  0  0  0  0  0  0
   36.6280   27.4870   42.9980 C   0  0  0  0  0  0  0  0  0  0  0  0
   36.9760   28.6600   42.0890 C   0  0  2  0  0  0  0  0  0  0  0  0
   38.6940   28.6420   44.0520 H   0  0  0  0  0  0  0  0  0  0  0  0
   40.2270   28.4150   43.0850 H   0  0  0  0  0  0  0  0  0  0  0  0
   39.7920   26.2170   42.6300 H   0  0  0  0  0  0  0  0  0  0  0  0
   39.0670   26.3520   44.3200 H   0  0  0  0  0  0  0  0  0  0  0  0
   37.6140   26.1000   41.6770 H   0  0  0  0  0  0  0  0  0  0  0  0
   37.2220   25.4520   43.2980 H   0  0  0  0  0  0  0  0  0  0  0  0
   35.6350   27.0830   42.8060 H   0  0  0  0  0  0  0  0  0  0  0  0
   36.7850   27.7670   44.0730 H   0  0  0  0  0  0  0  0  0  0  0  0
   36.7370   29.5990   42.6070 H   0  0  0  0  0  0  0  0  0  0  0  0
   39.4320   29.8710   39.9620 O   0  0  0  0  0  0  0  0  0  0  0  0
   38.7000   30.1470   38.8230 C   0  0  0  0  0  0  0  0  0  0  0  0
   38.3540   31.4920   38.5860 C   0  0  0  0  0  0  0  0  0  0  0  0
   37.6120   31.7580   37.4260 C   0  0  0  0  0  0  0  0  0  0  0  0
   37.2810   30.7100   36.6170 N   0  0  0  0  0  0  0  0  0  0  0  0
   37.6310   29.4690   36.8850 C   0  0  0  0  0  0  0  0  0  0  0  0
   38.3470   29.1700   37.9930 N   0  0  0  0  0  0  0  0  0  0  0  0
   37.3600   32.7790   37.2650 H   0  0  0  0  0  0  0  0  0  0  0  0
   37.3510   28.6660   36.2240 H   0  0  0  0  0  0  0  0  0  0  0  0
   38.7620   32.5250   39.5170 C   0  0  0  0  0  0  0  0  0  0  0  0
   39.9140   33.2690   39.3650 C   0  0  0  0  0  0  0  0  0  0  0  0
   39.9010   34.1100   40.4510 C   0  0  0  0  0  0  0  0  0  0  0  0
   38.8150   33.9000   41.2210 N   0  0  0  0  0  0  0  0  0  0  0  0
   38.1520   32.9430   40.6310 N   0  0  0  0  0  0  0  0  0  0  0  0
   40.6360   33.1970   38.5830 H   0  0  0  0  0  0  0  0  0  0  0  0
   40.6990   34.8430   40.6250 H   0  0  0  0  0  0  0  0  0  0  0  0
   38.6580   34.4550   42.0800 H   0  0  0  0  0  0  0  0  0  0  0  0
   36.2570   28.5470   40.7680 C   0  0  0  0  0  2  0  0  0  0  0  0
   35.5570   29.8610   40.5010 C   0  0  0  0  0  2  0  0  0  0  0  0
   36.1010   30.3990   39.6770 H   0  0  0  0  0  0  0  0  0  0  0  0
  1  3  1  0  0  0  0
  2  1  2  0  0  0  0
  3  8  1  0  0  0  0
  3  4  1  0  0  0  0
  4  5  1  0  0  0  0
  4  9  1  0  0  0  0
  5 12  1  0  0  0  0
  6  7  1  0  0  0  0
  6  5  1  0  0  0  0
  6 14  1  0  0  0  0
  7 16  1  0  0  0  0
  8 17  1  1  0  0  0
  8  7  1  0  0  0  0
 10  4  1  0  0  0  0
 11  5  1  0  0  0  0
 13  6  1  0  0  0  0
 15  7  1  0  0  0  0
 18  1  1  0  0  0  0
 19 18  1  0  0  0  0
 20 19  1  0  0  0  0
 20 27  1  0  0  0  0
 21 20  2  0  0  0  0
 22 23  2  0  0  0  0
 22 21  1  0  0  0  0
 23 24  1  0  0  0  0
 24 19  2  0  0  0  0
 25 21  1  0  0  0  0
 26 23  1  0  0  0  0
 27 31  2  0  0  0  0
 28 27  1  0  0  0  0
 28 29  2  0  0  0  0
 29 33  1  0  0  0  0
 29 30  1  0  0  0  0
 30 34  1  0  0  0  0
 31 30  1  0  0  0  0
 32 28  1  0  0  0  0
 35  8  1  0  0  0  0
 36 35  1  0  0  0  0
 37 36  1  0  0  0  0
M  END
>  <minimizedAffinity>
-5.49633217

$$$$

 OpenBabel03252508553D

 37 39  0  0  1  0  0  0  0  0999 V2000
   36.7170   29.1430   41.0470 C   0  0  0  0  0  0  0  0  0  0  0  0
   35.9430   28.5000   41.8090 O   0  0  0  0  0  0  0  0  0  0  0  0
   37.9660   28.4290   41.2960 N   0  0  0  0  0  0  0  0  0  0  0  0
   37.9140   27.0100   40.9760 C   0  0  0  0  0  0  0  0  0  0  0  0
   37.7140   26.3080   42.3130 C   0  0  0  0  0  0  0  0  0  0  0  0
   38.4830   27.1110   43.3530 C   0  0  0  0  0  0  0  0  0  0  0  0
   39.7020   27.8050   42.7380 C   0  0  0  0  0  0  0  0  0  0  0  0
   39.2400   28.9210   41.8090 C   0  0  2  0  0  0  0  0  0  0  0  0
   38.8930   26.6560   40.5620 H   0  0  0  0  0  0  0  0  0  0  0  0
   37.0840   26.7370   40.3250 H   0  0  0  0  0  0  0  0  0  0  0  0
   36.6260   26.3040   42.5240 H   0  0  0  0  0  0  0  0  0  0  0  0
   38.1440   25.2840   42.2970 H   0  0  0  0  0  0  0  0  0  0  0  0
   37.8470   27.8750   43.8320 H   0  0  0  0  0  0  0  0  0  0  0  0
   38.8580   26.4330   44.1480 H   0  0  0  0  0  0  0  0  0  0  0  0
   40.2970   28.1700   43.5750 H   0  0  0  0  0  0  0  0  0  0  0  0
   40.2190   26.9990   42.1540 H   0  0  0  0  0  0  0  0  0  0  0  0
   39.9510   29.0110   40.9750 H   0  0  0  0  0  0  0  0  0  0  0  0
   36.4400   30.2130   40.2240 O   0  0  0  0  0  0  0  0  0  0  0  0
   36.5920   30.2200   38.8510 C   0  0  0  0  0  0  0  0  0  0  0  0
   37.3020   31.2960   38.2830 C   0  0  0  0  0  0  0  0  0  0  0  0
   37.4470   31.2890   36.8870 C   0  0  0  0  0  0  0  0  0  0  0  0
   36.8990   30.2550   36.1860 N   0  0  0  0  0  0  0  0  0  0  0  0
   36.2440   29.2710   36.7680 C   0  0  0  0  0  0  0  0  0  0  0  0
   36.0810   29.2400   38.1110 N   0  0  0  0  0  0  0  0  0  0  0  0
   37.9860   32.1100   36.4780 H   0  0  0  0  0  0  0  0  0  0  0  0
   35.8240   28.4710   36.1820 H   0  0  0  0  0  0  0  0  0  0  0  0
   37.8410   32.3420   39.1280 C   0  0  0  0  0  0  0  0  0  0  0  0
   39.1410   32.3450   39.5910 C   0  0  0  0  0  0  0  0  0  0  0  0
   39.2150   33.4970   40.3370 C   0  0  0  0  0  0  0  0  0  0  0  0
   38.0420   34.1590   40.3340 N   0  0  0  0  0  0  0  0  0  0  0  0
   37.2390   33.4390   39.5980 N   0  0  0  0  0  0  0  0  0  0  0  0
   39.8990   31.6170   39.4060 H   0  0  0  0  0  0  0  0  0  0  0  0
   40.1380   33.7950   40.8510 H   0  0  0  0  0  0  0  0  0  0  0  0
   37.9330   35.0490   40.8500 H   0  0  0  0  0  0  0  0  0  0  0  0
   39.0890   30.2190   42.5620 C   0  0  0  0  0  2  0  0  0  0  0  0
   40.4660   30.8220   42.7380 C   0  0  0  0  0  2  0  0  0  0  0  0
   40.5580   31.7160   42.0620 H   0  0  0  0  0  0  0  0  0  0  0  0
  1  3  1  0  0  0  0
  1  2  2  0  0  0  0
  3  8  1  0  0  0  0
  4  3  1  0  0  0  0
  4  5  1  0  0  0  0
  5 11  1  0  0  0  0
  5  6  1  0  0  0  0
  6 13  1  0  0  0  0
  6 14  1  0  0  0  0
  7  6  1  0  0  0  0
  7 15  1  0  0  0  0
  8 17  1  6  0  0  0
  8 35  1  0  0  0  0
  8  7  1  0  0  0  0
  9  4  1  0  0  0  0
 10  4  1  0  0  0  0
 12  5  1  0  0  0  0
 16  7  1  0  0  0  0
 18  1  1  0  0  0  0
 19 18  1  0  0  0  0
 20 19  1  0  0  0  0
 20 27  1  0  0  0  0
 21 20  2  0  0  0  0
 22 23  2  0  0  0  0
 22 21  1  0  0  0  0
 23 24  1  0  0  0  0
 24 19  2  0  0  0  0
 25 21  1  0  0  0  0
 26 23  1  0  0  0  0
 27 28  1  0  0  0  0
 27 31  2  0  0  0  0
 28 29  2  0  0  0  0
 29 33  1  0  0  0  0
 30 29  1  0  0  0  0
 30 34  1  0  0  0  0
 31 30  1  0  0  0  0
 32 28  1  0  0  0  0
 35 36  1  0  0  0  0
 37 36  1  0  0  0  0
M  END
>  <minimizedAffinity>
-5.36185789

$$$$

 OpenBabel03252508553D

 37 39  0  0  1  0  0  0  0  0999 V2000
   39.5890   29.7930   41.9390 C   0  0  0  0  0  0  0  0  0  0  0  0
   40.2490   28.9380   41.2860 O   0  0  0  0  0  0  0  0  0  0  0  0
   38.5650   28.9300   42.5210 N   0  0  0  0  0  0  0  0  0  0  0  0
   39.0920   27.8640   43.3610 C   0  0  0  0  0  0  0  0  0  0  0  0
   39.0730   26.6190   42.4820 C   0  0  0  0  0  0  0  0  0  0  0  0
   37.8450   26.7270   41.5890 C   0  0  0  0  0  0  0  0  0  0  0  0
   36.7190   27.5090   42.2740 C   0  0  0  0  0  0  0  0  0  0  0  0
   37.1130   28.9780   42.3870 C   0  0  2  0  0  0  0  0  0  0  0  0
   38.4120   27.6640   44.2280 H   0  0  0  0  0  0  0  0  0  0  0  0
   40.1180   28.0290   43.6870 H   0  0  0  0  0  0  0  0  0  0  0  0
   40.0090   26.6200   41.8890 H   0  0  0  0  0  0  0  0  0  0  0  0
   38.9620   25.6980   43.0940 H   0  0  0  0  0  0  0  0  0  0  0  0
   38.0790   27.2160   40.6290 H   0  0  0  0  0  0  0  0  0  0  0  0
   37.4520   25.7120   41.3690 H   0  0  0  0  0  0  0  0  0  0  0  0
   35.8290   27.3550   41.6650 H   0  0  0  0  0  0  0  0  0  0  0  0
   36.6360   27.0480   43.2930 H   0  0  0  0  0  0  0  0  0  0  0  0
   36.6820   29.3940   43.3080 H   0  0  0  0  0  0  0  0  0  0  0  0
   39.7940   31.1510   42.0560 O   0  0  0  0  0  0  0  0  0  0  0  0
   40.8190   31.8540   41.4530 C   0  0  0  0  0  0  0  0  0  0  0  0
   40.4760   32.7200   40.3960 C   0  0  0  0  0  0  0  0  0  0  0  0
   41.5270   33.4280   39.7940 C   0  0  0  0  0  0  0  0  0  0  0  0
   42.7920   33.2320   40.2680 N   0  0  0  0  0  0  0  0  0  0  0  0
   43.0580   32.4090   41.2610 C   0  0  0  0  0  0  0  0  0  0  0  0
   42.0740   31.7080   41.8690 N   0  0  0  0  0  0  0  0  0  0  0  0
   41.2480   34.0760   38.9980 H   0  0  0  0  0  0  0  0  0  0  0  0
   44.0690   32.2790   41.6080 H   0  0  0  0  0  0  0  0  0  0  0  0
   39.0940   32.8490   39.9770 C   0  0  0  0  0  0  0  0  0  0  0  0
   38.5560   32.1400   38.9230 C   0  0  0  0  0  0  0  0  0  0  0  0
   37.2490   32.5650   38.8840 C   0  0  0  0  0  0  0  0  0  0  0  0
   36.9990   33.4730   39.8480 N   0  0  0  0  0  0  0  0  0  0  0  0
   38.1290   33.6190   40.4860 N   0  0  0  0  0  0  0  0  0  0  0  0
   39.0490   31.4330   38.2940 H   0  0  0  0  0  0  0  0  0  0  0  0
   36.5380   32.1820   38.1410 H   0  0  0  0  0  0  0  0  0  0  0  0
   36.0590   33.8910   39.9530 H   0  0  0  0  0  0  0  0  0  0  0  0
   36.6770   29.7460   41.1640 C   0  0  0  0  0  2  0  0  0  0  0  0
   35.3840   29.1380   40.6650 C   0  0  0  0  0  2  0  0  0  0  0  0
   34.5420   29.8490   40.8900 H   0  0  0  0  0  0  0  0  0  0  0  0
  1 18  1  0  0  0  0
  1  3  1  0  0  0  0
  2  1  2  0  0  0  0
  3  4  1  0  0  0  0
  4 10  1  0  0  0  0
  4  9  1  0  0  0  0
  5 12  1  0  0  0  0
  5  4  1  0  0  0  0
  6  7  1  0  0  0  0
  6  5  1  0  0  0  0
  7  8  1  0  0  0  0
  7 16  1  0  0  0  0
  8  3  1  0  0  0  0
  8 17  1  1  0  0  0
 11  5  1  0  0  0  0
 13  6  1  0  0  0  0
 14  6  1  0  0  0  0
 15  7  1  0  0  0  0
 19 24  1  0  0  0  0
 19 18  1  0  0  0  0
 20 19  2  0  0  0  0
 21 22  2  0  0  0  0
 21 20  1  0  0  0  0
 22 23  1  0  0  0  0
 23 26  1  0  0  0  0
 23 24  2  0  0  0  0
 25 21  1  0  0  0  0
 27 20  1  0  0  0  0
 27 31  2  0  0  0  0
 28 27  1  0  0  0  0
 29 28  2  0  0  0  0
 29 30  1  0  0  0  0
 30 34  1  0  0  0  0
 30 31  1  0  0  0  0
 32 28  1  0  0  0  0
 33 29  1  0  0  0  0
 35  8  1  0  0  0  0
 36 37  1  0  0  0  0
 36 35  1  0  0  0  0
M  END
>  <minimizedAffinity>
-5.29233313

$$$$

 OpenBabel03252508553D

 37 39  0  0  1  0  0  0  0  0999 V2000
   39.2460   28.7960   40.7740 C   0  0  0  0  0  0  0  0  0  0  0  0
   40.3200   28.4190   41.3210 O   0  0  0  0  0  0  0  0  0  0  0  0
   38.2780   28.0720   41.5930 N   0  0  0  0  0  0  0  0  0  0  0  0
   38.3340   28.4010   43.0100 C   0  0  0  0  0  0  0  0  0  0  0  0
   39.1220   27.2670   43.6520 C   0  0  0  0  0  0  0  0  0  0  0  0
   38.7650   25.9960   42.8940 C   0  0  0  0  0  0  0  0  0  0  0  0
   37.3400   26.0580   42.3330 C   0  0  0  0  0  0  0  0  0  0  0  0
   37.2780   27.0830   41.2060 C   0  0  2  0  0  0  0  0  0  0  0  0
   37.3100   28.3880   43.4650 H   0  0  0  0  0  0  0  0  0  0  0  0
   38.8530   29.3350   43.2240 H   0  0  0  0  0  0  0  0  0  0  0  0
   40.1970   27.5130   43.5480 H   0  0  0  0  0  0  0  0  0  0  0  0
   38.8230   27.1190   44.7120 H   0  0  0  0  0  0  0  0  0  0  0  0
   39.4620   25.8070   42.0610 H   0  0  0  0  0  0  0  0  0  0  0  0
   38.8090   25.1250   43.5800 H   0  0  0  0  0  0  0  0  0  0  0  0
   37.1000   25.0490   42.0010 H   0  0  0  0  0  0  0  0  0  0  0  0
   36.7110   26.3920   43.2000 H   0  0  0  0  0  0  0  0  0  0  0  0
   36.2860   27.5570   41.2080 H   0  0  0  0  0  0  0  0  0  0  0  0
   39.0630   29.6490   39.7070 O   0  0  0  0  0  0  0  0  0  0  0  0
   38.8880   31.0160   39.8040 C   0  0  0  0  0  0  0  0  0  0  0  0
   37.5640   31.5000   39.8110 C   0  0  0  0  0  0  0  0  0  0  0  0
   37.4020   32.8900   39.9090 C   0  0  0  0  0  0  0  0  0  0  0  0
   38.5210   33.6670   39.9900 N   0  0  0  0  0  0  0  0  0  0  0  0
   39.7370   33.1620   39.9800 C   0  0  0  0  0  0  0  0  0  0  0  0
   39.9380   31.8270   39.8870 N   0  0  0  0  0  0  0  0  0  0  0  0
   36.3950   33.2360   39.9130 H   0  0  0  0  0  0  0  0  0  0  0  0
   40.5980   33.8060   40.0460 H   0  0  0  0  0  0  0  0  0  0  0  0
   36.4500   30.5780   39.7190 C   0  0  0  0  0  0  0  0  0  0  0  0
   36.1070   29.9210   38.5560 C   0  0  0  0  0  0  0  0  0  0  0  0
   35.0160   29.1680   38.9210 C   0  0  0  0  0  0  0  0  0  0  0  0
   34.7080   29.3490   40.2200 N   0  0  0  0  0  0  0  0  0  0  0  0
   35.5890   30.2010   40.6690 N   0  0  0  0  0  0  0  0  0  0  0  0
   36.5840   29.9900   37.6040 H   0  0  0  0  0  0  0  0  0  0  0  0
   34.4970   28.5170   38.2060 H   0  0  0  0  0  0  0  0  0  0  0  0
   33.9100   28.8510   40.6510 H   0  0  0  0  0  0  0  0  0  0  0  0
   37.5940   26.4410   39.8790 C   0  0  0  0  0  2  0  0  0  0  0  0
   36.4740   25.4790   39.5450 C   0  0  0  0  0  2  0  0  0  0  0  0
   35.8620   25.9160   38.7090 H   0  0  0  0  0  0  0  0  0  0  0  0
  1  2  2  0  0  0  0
  1  3  1  0  0  0  0
  3  4  1  0  0  0  0
  4 10  1  0  0  0  0
  4  9  1  0  0  0  0
  4  5  1  0  0  0  0
  5 12  1  0  0  0  0
  6 14  1  0  0  0  0
  6  5  1  0  0  0  0
  7  6  1  0  0  0  0
  7 16  1  0  0  0  0
  8 17  1  6  0  0  0
  8  3  1  0  0  0  0
  8  7  1  0  0  0  0
 11  5  1  0  0  0  0
 13  6  1  0  0  0  0
 15  7  1  0  0  0  0
 18 19  1  0  0  0  0
 18  1  1  0  0  0  0
 19 20  2  0  0  0  0
 19 24  1  0  0  0  0
 20 21  1  0  0  0  0
 21 25  1  0  0  0  0
 21 22  2  0  0  0  0
 23 22  1  0  0  0  0
 23 26  1  0  0  0  0
 24 23  2  0  0  0  0
 27 20  1  0  0  0  0
 27 31  2  0  0  0  0
 28 29  2  0  0  0  0
 28 27  1  0  0  0  0
 29 30  1  0  0  0  0
 30 34  1  0  0  0  0
 30 31  1  0  0  0  0
 32 28  1  0  0  0  0
 33 29  1  0  0  0  0
 35  8  1  0  0  0  0
 36 35  1  0  0  0  0
 37 36  1  0  0  0  0
M  END
>  <minimizedAffinity>
-5.27309036

$$$$

 OpenBabel03252508553D

 37 39  0  0  1  0  0  0  0  0999 V2000
   39.4490   30.3190   40.2400 C   0  0  0  0  0  0  0  0  0  0  0  0
   40.2530   31.0100   40.9280 O   0  0  0  0  0  0  0  0  0  0  0  0
   38.7380   31.3830   39.5390 N   0  0  0  0  0  0  0  0  0  0  0  0
   39.5920   32.2320   38.7210 C   0  0  0  0  0  0  0  0  0  0  0  0
   39.8240   33.4850   39.5550 C   0  0  0  0  0  0  0  0  0  0  0  0
   38.5400   33.7440   40.3310 C   0  0  0  0  0  0  0  0  0  0  0  0
   37.3110   33.2400   39.5670 C   0  0  0  0  0  0  0  0  0  0  0  0
   37.3170   31.7170   39.5360 C   0  0  2  0  0  0  0  0  0  0  0  0
   39.0630   32.5520   37.7870 H   0  0  0  0  0  0  0  0  0  0  0  0
   40.5630   31.7920   38.4980 H   0  0  0  0  0  0  0  0  0  0  0  0
   40.6750   33.2770   40.2340 H   0  0  0  0  0  0  0  0  0  0  0  0
   40.0080   34.3700   38.9080 H   0  0  0  0  0  0  0  0  0  0  0  0
   38.5580   33.2640   41.3230 H   0  0  0  0  0  0  0  0  0  0  0  0
   38.4070   34.8360   40.4820 H   0  0  0  0  0  0  0  0  0  0  0  0
   36.4440   33.6500   40.0830 H   0  0  0  0  0  0  0  0  0  0  0  0
   37.4360   33.6530   38.5310 H   0  0  0  0  0  0  0  0  0  0  0  0
   36.8710   31.3750   38.5910 H   0  0  0  0  0  0  0  0  0  0  0  0
   39.3030   28.9500   40.1850 O   0  0  0  0  0  0  0  0  0  0  0  0
   40.1690   28.0350   40.7530 C   0  0  0  0  0  0  0  0  0  0  0  0
   39.7810   27.4470   41.9730 C   0  0  0  0  0  0  0  0  0  0  0  0
   40.6690   26.5190   42.5370 C   0  0  0  0  0  0  0  0  0  0  0  0
   41.8320   26.2540   41.8740 N   0  0  0  0  0  0  0  0  0  0  0  0
   42.1470   26.8330   40.7340 C   0  0  0  0  0  0  0  0  0  0  0  0
   41.3180   27.7330   40.1560 N   0  0  0  0  0  0  0  0  0  0  0  0
   40.3580   26.0870   43.4580 H   0  0  0  0  0  0  0  0  0  0  0  0
   43.0750   26.5990   40.2390 H   0  0  0  0  0  0  0  0  0  0  0  0
   38.5180   27.8060   42.5870 C   0  0  0  0  0  0  0  0  0  0  0  0
   37.4000   26.9990   42.5440 C   0  0  0  0  0  0  0  0  0  0  0  0
   36.4560   27.7170   43.2380 C   0  0  0  0  0  0  0  0  0  0  0  0
   36.9590   28.8870   43.6800 N   0  0  0  0  0  0  0  0  0  0  0  0
   38.1980   28.9080   43.2710 N   0  0  0  0  0  0  0  0  0  0  0  0
   37.3040   26.0440   42.0770 H   0  0  0  0  0  0  0  0  0  0  0  0
   35.4360   27.3410   43.3870 H   0  0  0  0  0  0  0  0  0  0  0  0
   36.3730   29.5450   44.2220 H   0  0  0  0  0  0  0  0  0  0  0  0
   36.5960   31.1530   40.7350 C   0  0  0  0  0  2  0  0  0  0  0  0
   35.8100   29.9420   40.2820 C   0  0  0  0  0  2  0  0  0  0  0  0
   36.3110   29.0170   40.6800 H   0  0  0  0  0  0  0  0  0  0  0  0
  1  2  2  0  0  0  0
  3  1  1  0  0  0  0
  4  3  1  0  0  0  0
  4  5  1  0  0  0  0
  5 11  1  0  0  0  0
  5  6  1  0  0  0  0
  6 14  1  0  0  0  0
  6 13  1  0  0  0  0
  7 15  1  0  0  0  0
  7  6  1  0  0  0  0
  8 17  1  6  0  0  0
  8  3  1  0  0  0  0
  8  7  1  0  0  0  0
  8 35  1  0  0  0  0
  9  4  1  0  0  0  0
 10  4  1  0  0  0  0
 12  5  1  0  0  0  0
 16  7  1  0  0  0  0
 18  1  1  0  0  0  0
 18 19  1  0  0  0  0
 19 20  1  0  0  0  0
 20 21  2  0  0  0  0
 20 27  1  0  0  0  0
 21 25  1  0  0  0  0
 22 21  1  0  0  0  0
 23 22  2  0  0  0  0
 24 23  1  0  0  0  0
 24 19  2  0  0  0  0
 26 23  1  0  0  0  0
 27 31  2  0  0  0  0
 28 27  1  0  0  0  0
 28 29  2  0  0  0  0
 29 33  1  0  0  0  0
 29 30  1  0  0  0  0
 30 34  1  0  0  0  0
 31 30  1  0  0  0  0
 32 28  1  0  0  0  0
 36 37  1  0  0  0  0
 36 35  1  0  0  0  0
M  END
>  <minimizedAffinity>
-5.26182985

$$$$

 OpenBabel03252508553D

 37 39  0  0  1  0  0  0  0  0999 V2000
   38.8870   27.3360   40.2810 C   0  0  0  0  0  0  0  0  0  0  0  0
   38.4860   26.8280   39.1970 O   0  0  0  0  0  0  0  0  0  0  0  0
   38.6800   26.2060   41.1810 N   0  0  0  0  0  0  0  0  0  0  0  0
   39.4210   25.0080   40.8130 C   0  0  0  0  0  0  0  0  0  0  0  0
   38.4080   24.1150   40.1070 C   0  0  0  0  0  0  0  0  0  0  0  0
   37.0680   24.3370   40.7950 C   0  0  0  0  0  0  0  0  0  0  0  0
   37.2490   24.7070   42.2710 C   0  0  0  0  0  0  0  0  0  0  0  0
   37.8530   26.1020   42.3790 C   0  0  2  0  0  0  0  0  0  0  0  0
   39.7680   24.4560   41.7230 H   0  0  0  0  0  0  0  0  0  0  0  0
   40.2430   25.1960   40.1220 H   0  0  0  0  0  0  0  0  0  0  0  0
   38.3770   24.4280   39.0450 H   0  0  0  0  0  0  0  0  0  0  0  0
   38.6700   23.0420   40.2240 H   0  0  0  0  0  0  0  0  0  0  0  0
   36.4830   25.1320   40.3020 H   0  0  0  0  0  0  0  0  0  0  0  0
   36.4710   23.4030   40.7610 H   0  0  0  0  0  0  0  0  0  0  0  0
   36.2600   24.6370   42.7230 H   0  0  0  0  0  0  0  0  0  0  0  0
   37.9640   23.9390   42.6670 H   0  0  0  0  0  0  0  0  0  0  0  0
   38.5010   26.1440   43.2660 H   0  0  0  0  0  0  0  0  0  0  0  0
   39.3770   28.6010   40.5220 O   0  0  0  0  0  0  0  0  0  0  0  0
   39.6790   29.5360   39.5490 C   0  0  0  0  0  0  0  0  0  0  0  0
   38.6810   30.4750   39.2220 C   0  0  0  0  0  0  0  0  0  0  0  0
   39.0020   31.4170   38.2330 C   0  0  0  0  0  0  0  0  0  0  0  0
   40.2420   31.3600   37.6650 N   0  0  0  0  0  0  0  0  0  0  0  0
   41.1390   30.4590   38.0090 C   0  0  0  0  0  0  0  0  0  0  0  0
   40.8700   29.5340   38.9580 N   0  0  0  0  0  0  0  0  0  0  0  0
   38.2360   32.1170   37.9990 H   0  0  0  0  0  0  0  0  0  0  0  0
   42.1080   30.4450   37.5390 H   0  0  0  0  0  0  0  0  0  0  0  0
   37.3970   30.4400   39.8930 C   0  0  0  0  0  0  0  0  0  0  0  0
   36.3270   29.6960   39.4390 C   0  0  0  0  0  0  0  0  0  0  0  0
   35.3410   29.9540   40.3610 C   0  0  0  0  0  0  0  0  0  0  0  0
   35.7740   30.7990   41.3180 N   0  0  0  0  0  0  0  0  0  0  0  0
   37.0120   31.0690   41.0060 N   0  0  0  0  0  0  0  0  0  0  0  0
   36.2880   29.0730   38.5740 H   0  0  0  0  0  0  0  0  0  0  0  0
   34.3430   29.5040   40.2820 H   0  0  0  0  0  0  0  0  0  0  0  0
   35.1490   31.0930   42.0880 H   0  0  0  0  0  0  0  0  0  0  0  0
   36.7730   27.1530   42.4190 C   0  0  0  0  0  2  0  0  0  0  0  0
   37.1320   28.1520   43.4980 C   0  0  0  0  0  2  0  0  0  0  0  0
   37.4570   29.1110   43.0070 H   0  0  0  0  0  0  0  0  0  0  0  0
  1 18  1  0  0  0  0
  1  3  1  0  0  0  0
  2  1  2  0  0  0  0
  3  8  1  0  0  0  0
  4  3  1  0  0  0  0
  4  9  1  0  0  0  0
  5 12  1  0  0  0  0
  5  6  1  0  0  0  0
  5  4  1  0  0  0  0
  6  7  1  0  0  0  0
  7  8  1  0  0  0  0
  7 16  1  0  0  0  0
  7 15  1  0  0  0  0
  8 35  1  0  0  0  0
  8 17  1  1  0  0  0
 10  4  1  0  0  0  0
 11  5  1  0  0  0  0
 13  6  1  0  0  0  0
 14  6  1  0  0  0  0
 19 18  1  0  0  0  0
 20 19  1  0  0  0  0
 20 27  1  0  0  0  0
 21 20  2  0  0  0  0
 22 23  2  0  0  0  0
 22 21  1  0  0  0  0
 23 24  1  0  0  0  0
 24 19  2  0  0  0  0
 25 21  1  0  0  0  0
 26 23  1  0  0  0  0
 27 31  2  0  0  0  0
 28 27  1  0  0  0  0
 28 29  2  0  0  0  0
 29 30  1  0  0  0  0
 30 34  1  0  0  0  0
 31 30  1  0  0  0  0
 32 28  1  0  0  0  0
 33 29  1  0  0  0  0
 35 36  1  0  0  0  0
 37 36  1  0  0  0  0
M  END
>  <minimizedAffinity>
-5.17561769

$$$$

 OpenBabel03252508553D

 37 39  0  0  1  0  0  0  0  0999 V2000
   37.3930   26.8270   39.6520 C   0  0  0  0  0  0  0  0  0  0  0  0
   37.6280   25.7240   39.0840 O   0  0  0  0  0  0  0  0  0  0  0  0
   38.4300   26.8100   40.6780 N   0  0  0  0  0  0  0  0  0  0  0  0
   39.7850   26.7260   40.1540 C   0  0  0  0  0  0  0  0  0  0  0  0
   40.1780   25.2610   40.3000 C   0  0  0  0  0  0  0  0  0  0  0  0
   39.5270   24.7540   41.5780 C   0  0  0  0  0  0  0  0  0  0  0  0
   39.3660   25.8750   42.6110 C   0  0  0  0  0  0  0  0  0  0  0  0
   38.3110   26.8640   42.1320 C   0  0  2  0  0  0  0  0  0  0  0  0
   40.4960   27.3210   40.7820 H   0  0  0  0  0  0  0  0  0  0  0  0
   39.8650   26.9920   39.1000 H   0  0  0  0  0  0  0  0  0  0  0  0
   39.7960   24.7270   39.4080 H   0  0  0  0  0  0  0  0  0  0  0  0
   41.2780   25.1510   40.4190 H   0  0  0  0  0  0  0  0  0  0  0  0
   38.5350   24.3110   41.3840 H   0  0  0  0  0  0  0  0  0  0  0  0
   40.1650   23.9720   42.0400 H   0  0  0  0  0  0  0  0  0  0  0  0
   39.0970   25.3880   43.5470 H   0  0  0  0  0  0  0  0  0  0  0  0
   40.3740   26.3670   42.6490 H   0  0  0  0  0  0  0  0  0  0  0  0
   38.5820   27.8720   42.4760 H   0  0  0  0  0  0  0  0  0  0  0  0
   36.4240   27.7650   39.3660 O   0  0  0  0  0  0  0  0  0  0  0  0
   36.5410   29.1230   39.5930 C   0  0  0  0  0  0  0  0  0  0  0  0
   36.8670   29.9380   38.4900 C   0  0  0  0  0  0  0  0  0  0  0  0
   36.9820   31.3140   38.7360 C   0  0  0  0  0  0  0  0  0  0  0  0
   36.7740   31.7630   40.0070 N   0  0  0  0  0  0  0  0  0  0  0  0
   36.4710   30.9560   41.0040 C   0  0  0  0  0  0  0  0  0  0  0  0
   36.3500   29.6230   40.8100 N   0  0  0  0  0  0  0  0  0  0  0  0
   37.2290   31.9120   37.8910 H   0  0  0  0  0  0  0  0  0  0  0  0
   36.3140   31.3470   41.9960 H   0  0  0  0  0  0  0  0  0  0  0  0
   37.0660   29.3490   37.1810 C   0  0  0  0  0  0  0  0  0  0  0  0
   36.0950   29.3410   36.2010 C   0  0  0  0  0  0  0  0  0  0  0  0
   36.7030   28.6960   35.1500 C   0  0  0  0  0  0  0  0  0  0  0  0
   37.9630   28.3320   35.4620 N   0  0  0  0  0  0  0  0  0  0  0  0
   38.1480   28.7400   36.6880 N   0  0  0  0  0  0  0  0  0  0  0  0
   35.1080   29.7430   36.2580 H   0  0  0  0  0  0  0  0  0  0  0  0
   36.1850   28.5240   34.1980 H   0  0  0  0  0  0  0  0  0  0  0  0
   38.5570   27.8350   34.7750 H   0  0  0  0  0  0  0  0  0  0  0  0
   36.9380   26.4570   42.6070 C   0  0  0  0  0  2  0  0  0  0  0  0
   36.4870   27.4580   43.6480 C   0  0  0  0  0  2  0  0  0  0  0  0
   35.6780   28.1010   43.2040 H   0  0  0  0  0  0  0  0  0  0  0  0
  1  3  1  0  0  0  0
  2  1  2  0  0  0  0
  3  8  1  0  0  0  0
  4  5  1  0  0  0  0
  4  3  1  0  0  0  0
  4  9  1  0  0  0  0
  5 12  1  0  0  0  0
  5  6  1  0  0  0  0
  6 14  1  0  0  0  0
  6  7  1  0  0  0  0
  7 16  1  0  0  0  0
  7 15  1  0  0  0  0
  8 17  1  1  0  0  0
  8 35  1  0  0  0  0
  8  7  1  0  0  0  0
 10  4  1  0  0  0  0
 11  5  1  0  0  0  0
 13  6  1  0  0  0  0
 18 19  1  0  0  0  0
 18  1  1  0  0  0  0
 19 24  1  0  0  0  0
 20 21  1  0  0  0  0
 20 19  2  0  0  0  0
 21 22  2  0  0  0  0
 22 23  1  0  0  0  0
 23 26  1  0  0  0  0
 24 23  2  0  0  0  0
 25 21  1  0  0  0  0
 27 20  1  0  0  0  0
 28 32  1  0  0  0  0
 28 27  1  0  0  0  0
 29 30  1  0  0  0  0
 29 28  2  0  0  0  0
 30 31  1  0  0  0  0
 31 27  2  0  0  0  0
 33 29  1  0  0  0  0
 34 30  1  0  0  0  0
 35 36  1  0  0  0  0
 37 36  1  0  0  0  0
M  END
>  <minimizedAffinity>
-5.13864279

$$$$

 OpenBabel03252508553D

 37 39  0  0  1  0  0  0  0  0999 V2000
   38.5000   29.6910   42.2250 C   0  0  0  0  0  0  0  0  0  0  0  0
   37.2820   29.6390   42.5540 O   0  0  0  0  0  0  0  0  0  0  0  0
   38.6370   28.4010   41.5560 N   0  0  0  0  0  0  0  0  0  0  0  0
   37.7530   28.2270   40.4120 C   0  0  0  0  0  0  0  0  0  0  0  0
   36.5940   27.3840   40.9300 C   0  0  0  0  0  0  0  0  0  0  0  0
   37.1740   26.4150   41.9510 C   0  0  0  0  0  0  0  0  0  0  0  0
   38.6290   26.0600   41.6260 C   0  0  0  0  0  0  0  0  0  0  0  0
   39.5170   27.2770   41.8590 C   0  0  2  0  0  0  0  0  0  0  0  0
   38.2540   27.6350   39.6040 H   0  0  0  0  0  0  0  0  0  0  0  0
   37.3430   29.1610   40.0280 H   0  0  0  0  0  0  0  0  0  0  0  0
   35.8640   28.0760   41.3940 H   0  0  0  0  0  0  0  0  0  0  0  0
   36.1430   26.7780   40.1140 H   0  0  0  0  0  0  0  0  0  0  0  0
   37.1330   26.8260   42.9740 H   0  0  0  0  0  0  0  0  0  0  0  0
   36.5960   25.4680   41.9400 H   0  0  0  0  0  0  0  0  0  0  0  0
   38.8860   25.2190   42.2680 H   0  0  0  0  0  0  0  0  0  0  0  0
   38.6150   25.7890   40.5370 H   0  0  0  0  0  0  0  0  0  0  0  0
   40.3420   27.2620   41.1320 H   0  0  0  0  0  0  0  0  0  0  0  0
   39.4210   30.6920   42.4460 O   0  0  0  0  0  0  0  0  0  0  0  0
   40.5450   30.9230   41.6760 C   0  0  0  0  0  0  0  0  0  0  0  0
   40.3900   31.7270   40.5290 C   0  0  0  0  0  0  0  0  0  0  0  0
   41.5390   31.9530   39.7570 C   0  0  0  0  0  0  0  0  0  0  0  0
   42.7120   31.3870   40.1650 N   0  0  0  0  0  0  0  0  0  0  0  0
   42.8020   30.6420   41.2470 C   0  0  0  0  0  0  0  0  0  0  0  0
   41.7180   30.4000   42.0200 N   0  0  0  0  0  0  0  0  0  0  0  0
   41.4020   32.5620   38.8960 H   0  0  0  0  0  0  0  0  0  0  0  0
   43.7450   30.2110   41.5390 H   0  0  0  0  0  0  0  0  0  0  0  0
   39.0920   32.2770   40.1930 C   0  0  0  0  0  0  0  0  0  0  0  0
   38.2900   31.7670   39.1930 C   0  0  0  0  0  0  0  0  0  0  0  0
   37.1800   32.5770   39.2240 C   0  0  0  0  0  0  0  0  0  0  0  0
   37.2900   33.5220   40.1790 N   0  0  0  0  0  0  0  0  0  0  0  0
   38.4490   33.3120   40.7420 N   0  0  0  0  0  0  0  0  0  0  0  0
   38.4970   30.9380   38.5530 H   0  0  0  0  0  0  0  0  0  0  0  0
   36.3380   32.4300   38.5360 H   0  0  0  0  0  0  0  0  0  0  0  0
   36.5340   34.2120   40.3310 H   0  0  0  0  0  0  0  0  0  0  0  0
   40.0180   27.3120   43.2810 C   0  0  0  0  0  2  0  0  0  0  0  0
   40.3940   25.9010   43.6790 C   0  0  0  0  0  2  0  0  0  0  0  0
   41.5150   25.8290   43.7340 H   0  0  0  0  0  0  0  0  0  0  0  0
  1 18  1  0  0  0  0
  1  2  2  0  0  0  0
  3  8  1  0  0  0  0
  3  1  1  0  0  0  0
  4  5  1  0  0  0  0
  4  3  1  0  0  0  0
  5 11  1  0  0  0  0
  5  6  1  0  0  0  0
  6 13  1  0  0  0  0
  7  8  1  0  0  0  0
  7  6  1  0  0  0  0
  7 15  1  0  0  0  0
  8 17  1  6  0  0  0
  8 35  1  0  0  0  0
  9  4  1  0  0  0  0
 10  4  1  0  0  0  0
 12  5  1  0  0  0  0
 14  6  1  0  0  0  0
 16  7  1  0  0  0  0
 19 24  1  0  0  0  0
 19 18  1  0  0  0  0
 20 19  2  0  0  0  0
 21 22  2  0  0  0  0
 21 20  1  0  0  0  0
 22 23  1  0  0  0  0
 23 26  1  0  0  0  0
 23 24  2  0  0  0  0
 25 21  1  0  0  0  0
 27 20  1  0  0  0  0
 27 31  2  0  0  0  0
 28 29  2  0  0  0  0
 28 27  1  0  0  0  0
 29 30  1  0  0  0  0
 30 34  1  0  0  0  0
 30 31  1  0  0  0  0
 32 28  1  0  0  0  0
 33 29  1  0  0  0  0
 35 36  1  0  0  0  0
 36 37  1  0  0  0  0
M  END
>  <minimizedAffinity>
-5.09730673

$$$$

 OpenBabel03252508553D

 37 39  0  0  1  0  0  0  0  0999 V2000
   40.0120   28.6850   41.9500 C   0  0  0  0  0  0  0  0  0  0  0  0
   40.7220   28.3080   40.9760 O   0  0  0  0  0  0  0  0  0  0  0  0
   40.0460   27.4780   42.7690 N   0  0  0  0  0  0  0  0  0  0  0  0
   41.3850   27.0710   43.1740 C   0  0  0  0  0  0  0  0  0  0  0  0
   41.7660   25.9490   42.2170 C   0  0  0  0  0  0  0  0  0  0  0  0
   40.4920   25.1730   41.9160 C   0  0  0  0  0  0  0  0  0  0  0  0
   39.5130   25.2200   43.0940 C   0  0  0  0  0  0  0  0  0  0  0  0
   38.9540   26.6310   43.2370 C   0  0  2  0  0  0  0  0  0  0  0  0
   41.3760   26.6350   44.2060 H   0  0  0  0  0  0  0  0  0  0  0  0
   42.1290   27.8610   43.0810 H   0  0  0  0  0  0  0  0  0  0  0  0
   42.1810   26.4210   41.3050 H   0  0  0  0  0  0  0  0  0  0  0  0
   42.4830   25.2440   42.6910 H   0  0  0  0  0  0  0  0  0  0  0  0
   39.9810   25.5590   41.0180 H   0  0  0  0  0  0  0  0  0  0  0  0
   40.7370   24.1050   41.7360 H   0  0  0  0  0  0  0  0  0  0  0  0
   38.7440   24.4800   42.8780 H   0  0  0  0  0  0  0  0  0  0  0  0
   40.1360   24.9540   43.9880 H   0  0  0  0  0  0  0  0  0  0  0  0
   38.7720   26.8370   44.3020 H   0  0  0  0  0  0  0  0  0  0  0  0
   39.3890   29.8960   42.1570 O   0  0  0  0  0  0  0  0  0  0  0  0
   39.5960   31.0360   41.4030 C   0  0  0  0  0  0  0  0  0  0  0  0
   38.5470   31.4540   40.5600 C   0  0  0  0  0  0  0  0  0  0  0  0
   38.7720   32.6120   39.8010 C   0  0  0  0  0  0  0  0  0  0  0  0
   39.9730   33.2450   39.9300 N   0  0  0  0  0  0  0  0  0  0  0  0
   40.9210   32.8120   40.7350 C   0  0  0  0  0  0  0  0  0  0  0  0
   40.7450   31.6990   41.4840 N   0  0  0  0  0  0  0  0  0  0  0  0
   37.9680   32.9100   39.1700 H   0  0  0  0  0  0  0  0  0  0  0  0
   41.8580   33.3380   40.8110 H   0  0  0  0  0  0  0  0  0  0  0  0
   37.3110   30.6990   40.5040 C   0  0  0  0  0  0  0  0  0  0  0  0
   37.1180   29.6250   39.6600 C   0  0  0  0  0  0  0  0  0  0  0  0
   35.8340   29.2230   39.9370 C   0  0  0  0  0  0  0  0  0  0  0  0
   35.2730   29.9960   40.8880 N   0  0  0  0  0  0  0  0  0  0  0  0
   36.1870   30.8720   41.2060 N   0  0  0  0  0  0  0  0  0  0  0  0
   37.8120   29.2140   38.9610 H   0  0  0  0  0  0  0  0  0  0  0  0
   35.3690   28.3730   39.4220 H   0  0  0  0  0  0  0  0  0  0  0  0
   34.3050   29.8230   41.2100 H   0  0  0  0  0  0  0  0  0  0  0  0
   37.7050   26.8010   42.4080 C   0  0  0  0  0  2  0  0  0  0  0  0
   36.6510   27.4520   43.2780 C   0  0  0  0  0  2  0  0  0  0  0  0
   36.5110   28.5150   42.9380 H   0  0  0  0  0  0  0  0  0  0  0  0
  1 18  1  0  0  0  0
  1  3  1  0  0  0  0
  2  1  2  0  0  0  0
  3  4  1  0  0  0  0
  3  8  1  0  0  0  0
  4  9  1  0  0  0  0
  5 12  1  0  0  0  0
  5  4  1  0  0  0  0
  6  5  1  0  0  0  0
  6  7  1  0  0  0  0
  7  8  1  0  0  0  0
  7 16  1  0  0  0  0
  8 17  1  1  0  0  0
 10  4  1  0  0  0  0
 11  5  1  0  0  0  0
 13  6  1  0  0  0  0
 14  6  1  0  0  0  0
 15  7  1  0  0  0  0
 19 24  1  0  0  0  0
 19 18  1  0  0  0  0
 20 19  2  0  0  0  0
 21 22  2  0  0  0  0
 21 20  1  0  0  0  0
 22 23  1  0  0  0  0
 23 26  1  0  0  0  0
 23 24  2  0  0  0  0
 25 21  1  0  0  0  0
 27 20  1  0  0  0  0
 27 31  2  0  0  0  0
 28 29  2  0  0  0  0
 28 27  1  0  0  0  0
 29 30  1  0  0  0  0
 30 31  1  0  0  0  0
 30 34  1  0  0  0  0
 32 28  1  0  0  0  0
 33 29  1  0  0  0  0
 35  8  1  0  0  0  0
 35 36  1  0  0  0  0
 37 36  1  0  0  0  0
M  END
>  <minimizedAffinity>
-5.09289074

$$$$
