
 OpenBabel03252509173D

 19 20  0  0  0  0  0  0  0  0999 V2000
   38.0780   30.4110   41.6690 C   0  0  0  0  0  0  0  0  0  0  0  0
   38.8940   29.8280   42.6740 C   0  0  0  0  0  0  0  0  0  0  0  0
   38.5070   28.6240   43.1680 C   0  0  0  0  0  0  0  0  0  0  0  0
   37.3320   28.0110   42.6760 C   0  0  0  0  0  0  0  0  0  0  0  0
   36.7310   29.2040   41.4350 S   0  0  0  0  0  0  0  0  0  0  0  0
   39.7680   30.3450   43.0000 H   0  0  0  0  0  0  0  0  0  0  0  0
   39.0510   28.0980   43.9300 H   0  0  0  0  0  0  0  0  0  0  0  0
   37.8220   33.6270   39.8310 C   0  0  0  0  0  0  0  0  0  0  0  0
   39.1620   34.0640   39.9240 C   0  0  0  0  0  0  0  0  0  0  0  0
   40.0930   33.2540   40.6040 C   0  0  0  0  0  0  0  0  0  0  0  0
   39.6320   32.0770   41.1390 N   0  0  0  0  0  0  0  0  0  0  0  0
   38.3420   31.7090   41.0200 C   0  0  0  0  0  0  0  0  0  0  0  0
   37.4290   32.4740   40.3700 N   0  0  0  0  0  0  0  0  0  0  0  0
   37.1430   34.2630   39.3110 H   0  0  0  0  0  0  0  0  0  0  0  0
   39.5230   34.9850   39.5060 H   0  0  0  0  0  0  0  0  0  0  0  0
   41.1340   33.5060   40.7240 H   0  0  0  0  0  0  0  0  0  0  0  0
   36.7150   26.7780   43.0160 C   0  0  0  0  0  2  0  0  0  0  0  0
   37.2160   25.6280   42.1860 C   0  0  0  0  0  2  0  0  0  0  0  0
   38.0610   25.9210   41.5110 H   0  0  0  0  0  0  0  0  0  0  0  0
  1  2  2  0  0  0  0
  2  6  1  0  0  0  0
  2  3  1  0  0  0  0
  3  7  1  0  0  0  0
  4 17  1  0  0  0  0
  4  3  2  0  0  0  0
  5  1  1  0  0  0  0
  5  4  1  0  0  0  0
  8  9  2  0  0  0  0
  8 13  1  0  0  0  0
  9 10  1  0  0  0  0
 10 16  1  0  0  0  0
 10 11  2  0  0  0  0
 12 11  1  0  0  0  0
 12  1  1  0  0  0  0
 13 12  2  0  0  0  0
 14  8  1  0  0  0  0
 15  9  1  0  0  0  0
 18 17  1  0  0  0  0
 19 18  1  0  0  0  0
M  END
>  <minimizedAffinity>
-4.09274197

$$$$

 OpenBabel03252509173D

 19 20  0  0  0  0  0  0  0  0999 V2000
   37.5300   28.8780   41.7440 C   0  0  0  0  0  0  0  0  0  0  0  0
   37.2230   28.4870   43.0740 C   0  0  0  0  0  0  0  0  0  0  0  0
   37.0290   27.1620   43.3040 C   0  0  0  0  0  0  0  0  0  0  0  0
   37.1390   26.2440   42.2350 C   0  0  0  0  0  0  0  0  0  0  0  0
   37.5400   27.3100   40.8120 S   0  0  0  0  0  0  0  0  0  0  0  0
   37.1560   29.2320   43.8330 H   0  0  0  0  0  0  0  0  0  0  0  0
   36.7910   26.7610   44.2710 H   0  0  0  0  0  0  0  0  0  0  0  0
   37.2660   32.2850   40.2940 C   0  0  0  0  0  0  0  0  0  0  0  0
   38.5290   32.8000   40.6590 C   0  0  0  0  0  0  0  0  0  0  0  0
   39.4150   31.9740   41.3790 C   0  0  0  0  0  0  0  0  0  0  0  0
   38.9880   30.7060   41.6840 N   0  0  0  0  0  0  0  0  0  0  0  0
   37.7700   30.2660   41.3100 C   0  0  0  0  0  0  0  0  0  0  0  0
   36.9020   31.0440   40.6160 N   0  0  0  0  0  0  0  0  0  0  0  0
   36.6200   32.9350   39.7490 H   0  0  0  0  0  0  0  0  0  0  0  0
   38.8650   33.7920   40.4220 H   0  0  0  0  0  0  0  0  0  0  0  0
   40.3970   32.2810   41.7000 H   0  0  0  0  0  0  0  0  0  0  0  0
   36.9870   24.8320   42.2040 C   0  0  0  0  0  2  0  0  0  0  0  0
   36.6310   24.3150   40.8380 C   0  0  0  0  0  2  0  0  0  0  0  0
   36.6460   25.1180   40.0560 H   0  0  0  0  0  0  0  0  0  0  0  0
  1  2  2  0  0  0  0
  2  3  1  0  0  0  0
  2  6  1  0  0  0  0
  3  7  1  0  0  0  0
  4  3  2  0  0  0  0
  5  1  1  0  0  0  0
  5  4  1  0  0  0  0
  8 13  2  0  0  0  0
  8  9  1  0  0  0  0
  9 10  2  0  0  0  0
 10 11  1  0  0  0  0
 10 16  1  0  0  0  0
 12 11  2  0  0  0  0
 12  1  1  0  0  0  0
 13 12  1  0  0  0  0
 14  8  1  0  0  0  0
 15  9  1  0  0  0  0
 17  4  1  0  0  0  0
 18 17  1  0  0  0  0
 19 18  1  0  0  0  0
M  END
>  <minimizedAffinity>
-4.07566071

$$$$

 OpenBabel03252509173D

 19 20  0  0  0  0  0  0  0  0999 V2000
   37.7300   29.1890   41.8010 C   0  0  0  0  0  0  0  0  0  0  0  0
   37.7050   28.7990   43.1660 C   0  0  0  0  0  0  0  0  0  0  0  0
   37.4310   27.4970   43.4360 C   0  0  0  0  0  0  0  0  0  0  0  0
   37.1850   26.5990   42.3730 C   0  0  0  0  0  0  0  0  0  0  0  0
   37.3500   27.6530   40.8940 S   0  0  0  0  0  0  0  0  0  0  0  0
   37.9000   29.5280   43.9200 H   0  0  0  0  0  0  0  0  0  0  0  0
   37.3870   27.0990   44.4330 H   0  0  0  0  0  0  0  0  0  0  0  0
   39.2360   32.5020   41.0690 C   0  0  0  0  0  0  0  0  0  0  0  0
   38.2060   33.0660   40.2840 C   0  0  0  0  0  0  0  0  0  0  0  0
   37.0480   32.3030   40.0370 C   0  0  0  0  0  0  0  0  0  0  0  0
   36.9940   31.0440   40.5810 N   0  0  0  0  0  0  0  0  0  0  0  0
   38.0080   30.5550   41.3220 C   0  0  0  0  0  0  0  0  0  0  0  0
   39.1320   31.2730   41.5730 N   0  0  0  0  0  0  0  0  0  0  0  0
   40.0990   33.1060   41.2370 H   0  0  0  0  0  0  0  0  0  0  0  0
   38.2470   34.0510   39.8580 H   0  0  0  0  0  0  0  0  0  0  0  0
   36.2130   32.6500   39.4510 H   0  0  0  0  0  0  0  0  0  0  0  0
   36.8790   25.2120   42.3800 C   0  0  0  0  0  2  0  0  0  0  0  0
   36.8830   24.6080   41.0020 C   0  0  0  0  0  2  0  0  0  0  0  0
   37.2250   25.3310   40.2170 H   0  0  0  0  0  0  0  0  0  0  0  0
  1  2  2  0  0  0  0
  2  3  1  0  0  0  0
  2  6  1  0  0  0  0
  3  7  1  0  0  0  0
  4 17  1  0  0  0  0
  4  3  2  0  0  0  0
  5  1  1  0  0  0  0
  5  4  1  0  0  0  0
  8 14  1  0  0  0  0
  8 13  1  0  0  0  0
  9  8  2  0  0  0  0
 10  9  1  0  0  0  0
 10 11  2  0  0  0  0
 11 12  1  0  0  0  0
 12 13  2  0  0  0  0
 12  1  1  0  0  0  0
 15  9  1  0  0  0  0
 16 10  1  0  0  0  0
 18 17  1  0  0  0  0
 19 18  1  0  0  0  0
M  END
>  <minimizedAffinity>
-4.07465506

$$$$

 OpenBabel03252509173D

 19 20  0  0  0  0  0  0  0  0999 V2000
   37.0670   28.5580   41.0120 C   0  0  0  0  0  0  0  0  0  0  0  0
   36.9930   28.3490   42.4140 C   0  0  0  0  0  0  0  0  0  0  0  0
   36.9610   27.0630   42.8510 C   0  0  0  0  0  0  0  0  0  0  0  0
   37.0010   26.0060   41.9140 C   0  0  0  0  0  0  0  0  0  0  0  0
   37.0900   26.8730   40.3130 S   0  0  0  0  0  0  0  0  0  0  0  0
   36.9660   29.1930   43.0650 H   0  0  0  0  0  0  0  0  0  0  0  0
   36.9040   26.7960   43.8890 H   0  0  0  0  0  0  0  0  0  0  0  0
   37.2000   32.1910   40.2610 C   0  0  0  0  0  0  0  0  0  0  0  0
   37.1720   32.1460   38.8500 C   0  0  0  0  0  0  0  0  0  0  0  0
   37.1100   30.8910   38.2130 C   0  0  0  0  0  0  0  0  0  0  0  0
   37.0800   29.7770   39.0160 N   0  0  0  0  0  0  0  0  0  0  0  0
   37.1090   29.8790   40.3590 C   0  0  0  0  0  0  0  0  0  0  0  0
   37.1690   31.0770   40.9920 N   0  0  0  0  0  0  0  0  0  0  0  0
   37.2470   33.1570   40.7110 H   0  0  0  0  0  0  0  0  0  0  0  0
   37.1960   33.0160   38.2210 H   0  0  0  0  0  0  0  0  0  0  0  0
   37.0850   30.7590   37.1440 H   0  0  0  0  0  0  0  0  0  0  0  0
   36.9800   24.5980   42.1020 C   0  0  0  0  0  2  0  0  0  0  0  0
   38.1550   23.9090   41.4640 C   0  0  0  0  0  2  0  0  0  0  0  0
   38.8980   24.6310   41.0380 H   0  0  0  0  0  0  0  0  0  0  0  0
  1  2  2  0  0  0  0
  2  3  1  0  0  0  0
  2  6  1  0  0  0  0
  3  7  1  0  0  0  0
  4 17  1  0  0  0  0
  4  3  2  0  0  0  0
  5  1  1  0  0  0  0
  5  4  1  0  0  0  0
  8 14  1  0  0  0  0
  8 13  1  0  0  0  0
  9  8  2  0  0  0  0
 10  9  1  0  0  0  0
 10 11  2  0  0  0  0
 11 12  1  0  0  0  0
 12 13  2  0  0  0  0
 12  1  1  0  0  0  0
 15  9  1  0  0  0  0
 16 10  1  0  0  0  0
 18 17  1  0  0  0  0
 19 18  1  0  0  0  0
M  END
>  <minimizedAffinity>
-3.958987

$$$$

 OpenBabel03252509173D

 19 20  0  0  0  0  0  0  0  0999 V2000
   36.8860   28.1950   40.8710 C   0  0  0  0  0  0  0  0  0  0  0  0
   35.7280   29.0110   40.7850 C   0  0  0  0  0  0  0  0  0  0  0  0
   35.9180   30.3500   40.6590 C   0  0  0  0  0  0  0  0  0  0  0  0
   37.2330   30.8690   40.6200 C   0  0  0  0  0  0  0  0  0  0  0  0
   38.2710   29.3780   40.7690 S   0  0  0  0  0  0  0  0  0  0  0  0
   34.7650   28.5540   40.8210 H   0  0  0  0  0  0  0  0  0  0  0  0
   35.1120   31.0550   40.5870 H   0  0  0  0  0  0  0  0  0  0  0  0
   37.0970   24.7020   42.1130 C   0  0  0  0  0  0  0  0  0  0  0  0
   36.7560   24.0070   40.9320 C   0  0  0  0  0  0  0  0  0  0  0  0
   36.4700   24.7470   39.7680 C   0  0  0  0  0  0  0  0  0  0  0  0
   36.5410   26.1150   39.8580 N   0  0  0  0  0  0  0  0  0  0  0  0
   36.8720   26.7270   41.0120 C   0  0  0  0  0  0  0  0  0  0  0  0
   37.1510   26.0340   42.1440 N   0  0  0  0  0  0  0  0  0  0  0  0
   37.3080   24.1120   42.9750 H   0  0  0  0  0  0  0  0  0  0  0  0
   36.7000   22.9370   40.8600 H   0  0  0  0  0  0  0  0  0  0  0  0
   36.2020   24.3030   38.8230 H   0  0  0  0  0  0  0  0  0  0  0  0
   37.7010   32.2030   40.4970 C   0  0  0  0  0  2  0  0  0  0  0  0
   37.2310   32.8710   39.2340 C   0  0  0  0  0  2  0  0  0  0  0  0
   36.5100   32.2390   38.6550 H   0  0  0  0  0  0  0  0  0  0  0  0
  1 12  1  0  0  0  0
  2  6  1  0  0  0  0
  2  1  2  0  0  0  0
  3  2  1  0  0  0  0
  4  3  2  0  0  0  0
  4  5  1  0  0  0  0
  5  1  1  0  0  0  0
  7  3  1  0  0  0  0
  8 13  1  0  0  0  0
  8 14  1  0  0  0  0
  9  8  2  0  0  0  0
 10 11  2  0  0  0  0
 10  9  1  0  0  0  0
 11 12  1  0  0  0  0
 12 13  2  0  0  0  0
 15  9  1  0  0  0  0
 16 10  1  0  0  0  0
 17  4  1  0  0  0  0
 18 17  1  0  0  0  0
 19 18  1  0  0  0  0
M  END
>  <minimizedAffinity>
-3.84600806

$$$$

 OpenBabel03252509173D

 19 20  0  0  0  0  0  0  0  0999 V2000
   36.8500   28.7440   40.2780 C   0  0  0  0  0  0  0  0  0  0  0  0
   36.3420   29.7380   41.1540 C   0  0  0  0  0  0  0  0  0  0  0  0
   36.4200   31.0300   40.7410 C   0  0  0  0  0  0  0  0  0  0  0  0
   36.9920   31.3290   39.4840 C   0  0  0  0  0  0  0  0  0  0  0  0
   37.4510   29.6880   38.8370 S   0  0  0  0  0  0  0  0  0  0  0  0
   35.9220   29.4430   42.0890 H   0  0  0  0  0  0  0  0  0  0  0  0
   36.0660   31.8570   41.3270 H   0  0  0  0  0  0  0  0  0  0  0  0
   36.6590   25.0420   40.0610 C   0  0  0  0  0  0  0  0  0  0  0  0
   36.9180   24.7090   41.4090 C   0  0  0  0  0  0  0  0  0  0  0  0
   37.1460   25.7490   42.3320 C   0  0  0  0  0  0  0  0  0  0  0  0
   37.1020   27.0360   41.8560 N   0  0  0  0  0  0  0  0  0  0  0  0
   36.8500   27.2960   40.5580 C   0  0  0  0  0  0  0  0  0  0  0  0
   36.6270   26.3100   39.6530 N   0  0  0  0  0  0  0  0  0  0  0  0
   36.4900   24.2320   39.3890 H   0  0  0  0  0  0  0  0  0  0  0  0
   36.9530   23.7030   41.7830 H   0  0  0  0  0  0  0  0  0  0  0  0
   37.3510   25.5900   43.3780 H   0  0  0  0  0  0  0  0  0  0  0  0
   37.1930   32.5710   38.8270 C   0  0  0  0  0  2  0  0  0  0  0  0
   37.5770   33.6750   39.7730 C   0  0  0  0  0  2  0  0  0  0  0  0
   37.7390   33.3080   40.8200 H   0  0  0  0  0  0  0  0  0  0  0  0
  1 12  1  0  0  0  0
  1  2  2  0  0  0  0
  2  6  1  0  0  0  0
  3  2  1  0  0  0  0
  3  7  1  0  0  0  0
  4  3  2  0  0  0  0
  5  4  1  0  0  0  0
  5  1  1  0  0  0  0
  8  9  1  0  0  0  0
  9 15  1  0  0  0  0
  9 10  2  0  0  0  0
 10 16  1  0  0  0  0
 11 10  1  0  0  0  0
 12 11  2  0  0  0  0
 13  8  2  0  0  0  0
 13 12  1  0  0  0  0
 14  8  1  0  0  0  0
 17  4  1  0  0  0  0
 17 18  1  0  0  0  0
 18 19  1  0  0  0  0
M  END
>  <minimizedAffinity>
-3.81371927

$$$$

 OpenBabel03252509173D

 19 20  0  0  0  0  0  0  0  0999 V2000
   37.9160   29.2210   41.4210 C   0  0  0  0  0  0  0  0  0  0  0  0
   36.5490   29.5790   41.2850 C   0  0  0  0  0  0  0  0  0  0  0  0
   36.2750   30.8050   40.7700 C   0  0  0  0  0  0  0  0  0  0  0  0
   37.3360   31.6600   40.3960 C   0  0  0  0  0  0  0  0  0  0  0  0
   38.8190   30.6780   40.7950 S   0  0  0  0  0  0  0  0  0  0  0  0
   35.7970   28.8850   41.5870 H   0  0  0  0  0  0  0  0  0  0  0  0
   35.2760   31.1730   40.6260 H   0  0  0  0  0  0  0  0  0  0  0  0
   38.6110   25.6340   42.0770 C   0  0  0  0  0  0  0  0  0  0  0  0
   39.4650   25.7560   43.1960 C   0  0  0  0  0  0  0  0  0  0  0  0
   39.7680   27.0430   43.6800 C   0  0  0  0  0  0  0  0  0  0  0  0
   39.2080   28.1120   43.0240 N   0  0  0  0  0  0  0  0  0  0  0  0
   38.4000   27.9370   41.9600 C   0  0  0  0  0  0  0  0  0  0  0  0
   38.0950   26.7060   41.4780 N   0  0  0  0  0  0  0  0  0  0  0  0
   38.4020   24.6460   41.7360 H   0  0  0  0  0  0  0  0  0  0  0  0
   39.9040   24.9210   43.7100 H   0  0  0  0  0  0  0  0  0  0  0  0
   40.4080   27.2330   44.5260 H   0  0  0  0  0  0  0  0  0  0  0  0
   37.3250   32.9680   39.8440 C   0  0  0  0  0  2  0  0  0  0  0  0
   38.4940   33.8000   40.2930 C   0  0  0  0  0  2  0  0  0  0  0  0
   39.2280   33.2150   40.9060 H   0  0  0  0  0  0  0  0  0  0  0  0
  1 12  1  0  0  0  0
  2  1  2  0  0  0  0
  2  6  1  0  0  0  0
  3  2  1  0  0  0  0
  4  3  2  0  0  0  0
  4  5  1  0  0  0  0
  5  1  1  0  0  0  0
  7  3  1  0  0  0  0
  8  9  1  0  0  0  0
  9 10  2  0  0  0  0
  9 15  1  0  0  0  0
 10 16  1  0  0  0  0
 11 10  1  0  0  0  0
 12 11  2  0  0  0  0
 13 12  1  0  0  0  0
 13  8  2  0  0  0  0
 14  8  1  0  0  0  0
 17 18  1  0  0  0  0
 17  4  1  0  0  0  0
 18 19  1  0  0  0  0
M  END
>  <minimizedAffinity>
-3.77211833

$$$$

 OpenBabel03252509173D

 19 20  0  0  0  0  0  0  0  0999 V2000
   38.1640   28.0530   41.5730 C   0  0  0  0  0  0  0  0  0  0  0  0
   37.4090   29.0360   42.2650 C   0  0  0  0  0  0  0  0  0  0  0  0
   36.9310   30.0790   41.5380 C   0  0  0  0  0  0  0  0  0  0  0  0
   37.1970   30.1450   40.1520 C   0  0  0  0  0  0  0  0  0  0  0  0
   38.1850   28.6430   39.8470 S   0  0  0  0  0  0  0  0  0  0  0  0
   37.2450   28.9240   43.3130 H   0  0  0  0  0  0  0  0  0  0  0  0
   36.3500   30.8750   41.9630 H   0  0  0  0  0  0  0  0  0  0  0  0
   40.1170   25.6860   43.6630 C   0  0  0  0  0  0  0  0  0  0  0  0
   39.6660   24.4610   43.1230 C   0  0  0  0  0  0  0  0  0  0  0  0
   38.7230   24.4880   42.0770 C   0  0  0  0  0  0  0  0  0  0  0  0
   38.2960   25.7190   41.6440 N   0  0  0  0  0  0  0  0  0  0  0  0
   38.7600   26.8570   42.1960 C   0  0  0  0  0  0  0  0  0  0  0  0
   39.6680   26.8540   43.2040 N   0  0  0  0  0  0  0  0  0  0  0  0
   40.8300   25.6310   44.4530 H   0  0  0  0  0  0  0  0  0  0  0  0
   39.9990   23.4980   43.4610 H   0  0  0  0  0  0  0  0  0  0  0  0
   38.3240   23.6050   41.6050 H   0  0  0  0  0  0  0  0  0  0  0  0
   36.8220   31.1090   39.1790 C   0  0  0  0  0  2  0  0  0  0  0  0
   37.2290   32.5070   39.5580 C   0  0  0  0  0  2  0  0  0  0  0  0
   37.8460   32.5370   40.4930 H   0  0  0  0  0  0  0  0  0  0  0  0
  1 12  1  0  0  0  0
  1  2  2  0  0  0  0
  2  6  1  0  0  0  0
  3  7  1  0  0  0  0
  3  2  1  0  0  0  0
  4  3  2  0  0  0  0
  5  4  1  0  0  0  0
  5  1  1  0  0  0  0
  8 14  1  0  0  0  0
  9 15  1  0  0  0  0
  9  8  2  0  0  0  0
 10  9  1  0  0  0  0
 11 10  2  0  0  0  0
 11 12  1  0  0  0  0
 12 13  2  0  0  0  0
 13  8  1  0  0  0  0
 16 10  1  0  0  0  0
 17 18  1  0  0  0  0
 17  4  1  0  0  0  0
 18 19  1  0  0  0  0
M  END
>  <minimizedAffinity>
-3.67124486

$$$$

 OpenBabel03252509173D

 19 20  0  0  0  0  0  0  0  0999 V2000
   36.9050   26.4900   41.0190 C   0  0  0  0  0  0  0  0  0  0  0  0
   37.1790   25.7740   42.2140 C   0  0  0  0  0  0  0  0  0  0  0  0
   37.4400   24.4470   42.0990 C   0  0  0  0  0  0  0  0  0  0  0  0
   37.4300   23.8410   40.8220 C   0  0  0  0  0  0  0  0  0  0  0  0
   37.0270   25.2270   39.7080 S   0  0  0  0  0  0  0  0  0  0  0  0
   37.1710   26.2940   43.1450 H   0  0  0  0  0  0  0  0  0  0  0  0
   37.6580   23.8140   42.9390 H   0  0  0  0  0  0  0  0  0  0  0  0
   35.5240   29.8360   40.1930 C   0  0  0  0  0  0  0  0  0  0  0  0
   36.2840   30.6340   41.0760 C   0  0  0  0  0  0  0  0  0  0  0  0
   37.2290   30.0070   41.9120 C   0  0  0  0  0  0  0  0  0  0  0  0
   37.3530   28.6440   41.8140 N   0  0  0  0  0  0  0  0  0  0  0  0
   36.6010   27.9310   40.9520 C   0  0  0  0  0  0  0  0  0  0  0  0
   35.6850   28.5140   40.1380 N   0  0  0  0  0  0  0  0  0  0  0  0
   34.8180   30.3410   39.5740 H   0  0  0  0  0  0  0  0  0  0  0  0
   36.1890   31.7000   41.1550 H   0  0  0  0  0  0  0  0  0  0  0  0
   37.8520   30.5340   42.6160 H   0  0  0  0  0  0  0  0  0  0  0  0
   37.6640   22.4960   40.4300 C   0  0  0  0  0  2  0  0  0  0  0  0
   36.9690   22.1340   39.1470 C   0  0  0  0  0  2  0  0  0  0  0  0
   36.4670   23.0130   38.6660 H   0  0  0  0  0  0  0  0  0  0  0  0
  1  2  2  0  0  0  0
  2  6  1  0  0  0  0
  3  2  1  0  0  0  0
  3  7  1  0  0  0  0
  4  3  2  0  0  0  0
  5  4  1  0  0  0  0
  5  1  1  0  0  0  0
  8  9  1  0  0  0  0
  9 15  1  0  0  0  0
  9 10  2  0  0  0  0
 10 16  1  0  0  0  0
 11 10  1  0  0  0  0
 12  1  1  0  0  0  0
 12 11  2  0  0  0  0
 13  8  2  0  0  0  0
 13 12  1  0  0  0  0
 14  8  1  0  0  0  0
 17  4  1  0  0  0  0
 18 17  1  0  0  0  0
 19 18  1  0  0  0  0
M  END
>  <minimizedAffinity>
-3.66541171

$$$$
