
 OpenBabel03252508533D

 37 39  0  0  1  0  0  0  0  0999 V2000
   43.4420   34.4730   40.6170 C   0  0  0  0  0  0  0  0  0  0  0  0
   43.1370   35.6930   40.7300 O   0  0  0  0  0  0  0  0  0  0  0  0
   42.3540   34.0190   39.7560 N   0  0  0  0  0  0  0  0  0  0  0  0
   42.2860   34.7030   38.4730 C   0  0  0  0  0  0  0  0  0  0  0  0
   41.1870   35.7460   38.6350 C   0  0  0  0  0  0  0  0  0  0  0  0
   40.1290   35.1350   39.5440 C   0  0  0  0  0  0  0  0  0  0  0  0
   40.0760   33.6100   39.3990 C   0  0  0  0  0  0  0  0  0  0  0  0
   41.3400   32.9960   39.9880 C   0  0  2  0  0  0  0  0  0  0  0  0
   41.9570   34.0030   37.6630 H   0  0  0  0  0  0  0  0  0  0  0  0
   43.2040   35.2230   38.2030 H   0  0  0  0  0  0  0  0  0  0  0  0
   41.6480   36.6430   39.0930 H   0  0  0  0  0  0  0  0  0  0  0  0
   40.7000   35.9710   37.6620 H   0  0  0  0  0  0  0  0  0  0  0  0
   40.3090   35.3810   40.6040 H   0  0  0  0  0  0  0  0  0  0  0  0
   39.1270   35.5250   39.2690 H   0  0  0  0  0  0  0  0  0  0  0  0
   39.1700   33.2890   39.9110 H   0  0  0  0  0  0  0  0  0  0  0  0
   40.0360   33.4350   38.2920 H   0  0  0  0  0  0  0  0  0  0  0  0
   41.6020   32.0960   39.4150 H   0  0  0  0  0  0  0  0  0  0  0  0
   44.5050   33.7860   41.1610 O   0  0  0  0  0  0  0  0  0  0  0  0
   45.8350   34.1350   41.0180 C   0  0  0  0  0  0  0  0  0  0  0  0
   46.4590   34.7710   42.1090 C   0  0  0  0  0  0  0  0  0  0  0  0
   47.8080   35.1200   41.9490 C   0  0  0  0  0  0  0  0  0  0  0  0
   48.4150   34.8220   40.7630 N   0  0  0  0  0  0  0  0  0  0  0  0
   47.7840   34.2250   39.7730 C   0  0  0  0  0  0  0  0  0  0  0  0
   46.4830   33.8720   39.8870 N   0  0  0  0  0  0  0  0  0  0  0  0
   48.2610   35.5990   42.7830 H   0  0  0  0  0  0  0  0  0  0  0  0
   48.2960   34.0050   38.8510 H   0  0  0  0  0  0  0  0  0  0  0  0
   45.7120   35.0380   43.3230 C   0  0  0  0  0  0  0  0  0  0  0  0
   45.0610   36.2300   43.5630 C   0  0  0  0  0  0  0  0  0  0  0  0
   44.4990   36.0460   44.8030 C   0  0  0  0  0  0  0  0  0  0  0  0
   44.7840   34.8240   45.2940 N   0  0  0  0  0  0  0  0  0  0  0  0
   45.5130   34.2450   44.3790 N   0  0  0  0  0  0  0  0  0  0  0  0
   45.0140   37.0860   42.9270 H   0  0  0  0  0  0  0  0  0  0  0  0
   43.9010   36.8280   45.2900 H   0  0  0  0  0  0  0  0  0  0  0  0
   44.4320   34.5290   46.2220 H   0  0  0  0  0  0  0  0  0  0  0  0
   41.1580   32.6960   41.4550 C   0  0  0  0  0  0  0  0  0  0  0  0
   39.7590   32.1520   41.6520 C   0  0  0  0  0  0  0  0  0  0  0  0
   39.8280   31.0510   41.8690 H   0  0  0  0  0  0  0  0  0  0  0  0
  1  2  2  0  0  0  0
  1 18  1  0  0  0  0
  3  8  1  0  0  0  0
  3  1  1  0  0  0  0
  4  5  1  0  0  0  0
  4  3  1  0  0  0  0
  5 11  1  0  0  0  0
  5  6  1  0  0  0  0
  6 13  1  0  0  0  0
  7  6  1  0  0  0  0
  7 15  1  0  0  0  0
  7  8  1  0  0  0  0
  8 17  1  6  0  0  0
  8 35  1  0  0  0  0
  9  4  1  0  0  0  0
 10  4  1  0  0  0  0
 12  5  1  0  0  0  0
 14  6  1  0  0  0  0
 16  7  1  0  0  0  0
 19 18  1  0  0  0  0
 19 20  1  0  0  0  0
 20 27  1  0  0  0  0
 21 20  2  0  0  0  0
 21 25  1  0  0  0  0
 22 21  1  0  0  0  0
 23 24  1  0  0  0  0
 23 22  2  0  0  0  0
 24 19  2  0  0  0  0
 26 23  1  0  0  0  0
 27 28  1  0  0  0  0
 27 31  2  0  0  0  0
 28 29  2  0  0  0  0
 29 33  1  0  0  0  0
 29 30  1  0  0  0  0
 30 34  1  0  0  0  0
 31 30  1  0  0  0  0
 32 28  1  0  0  0  0
 35 36  1  0  0  0  0
 36 37  1  0  0  0  0
M  END
>  <minimizedAffinity>
-6.13402271

>  <minimizedRMSD>
0.751381338

$$$$
