
 OpenBabel03252507523D

 25 26  0  0  1  0  0  0  0  0999 V2000
   37.4910   29.2760   42.4980 C   0  0  2  0  0  0  0  0  0  0  0  0
   38.7640   28.6290   42.9350 C   0  0  0  0  0  0  0  0  0  0  0  0
   38.2030   27.4190   43.6800 C   0  0  0  0  0  0  0  0  0  0  0  0
   36.9320   27.0570   42.9260 C   0  0  1  0  0  0  0  0  0  0  0  0
   36.7950   28.0930   41.8180 C   0  0  0  0  0  0  0  0  0  0  0  0
   36.8890   29.5450   43.3650 H   0  0  0  0  0  0  0  0  0  0  0  0
   39.2750   29.2820   43.6570 H   0  0  0  0  0  0  0  0  0  0  0  0
   39.3960   28.2780   42.1180 H   0  0  0  0  0  0  0  0  0  0  0  0
   38.8990   26.5680   43.6870 H   0  0  0  0  0  0  0  0  0  0  0  0
   37.9070   27.7310   44.7010 H   0  0  0  0  0  0  0  0  0  0  0  0
   36.0540   27.0870   43.5880 H   0  0  0  0  0  0  0  0  0  0  0  0
   37.3870   27.7870   40.9180 H   0  0  0  0  0  0  0  0  0  0  0  0
   35.7470   28.3150   41.6110 H   0  0  0  0  0  0  0  0  0  0  0  0
   36.9270   31.9570   39.9060 C   0  0  0  0  0  0  0  0  0  0  0  0
   36.6300   30.8410   40.7170 C   0  0  0  0  0  0  0  0  0  0  0  0
   37.6540   30.4260   41.5830 C   0  0  0  0  0  0  0  0  0  0  0  0
   38.8590   31.0970   41.6060 N   0  0  0  0  0  0  0  0  0  0  0  0
   39.0620   32.1570   40.7960 C   0  0  0  0  0  0  0  0  0  0  0  0
   38.1160   32.5860   39.9580 N   0  0  0  0  0  0  0  0  0  0  0  0
   36.1550   32.2990   39.2280 H   0  0  0  0  0  0  0  0  0  0  0  0
   35.7040   30.3190   40.7040 H   0  0  0  0  0  0  0  0  0  0  0  0
   40.0460   32.5940   40.9100 H   0  0  0  0  0  0  0  0  0  0  0  0
   37.0780   25.7030   42.2650 C   0  0  0  0  0  2  0  0  0  0  0  0
   37.0120   25.8670   40.7820 C   0  0  0  0  0  2  0  0  0  0  0  0
   37.8000   26.5670   40.4270 H   0  0  0  0  0  0  0  0  0  0  0  0
  1  2  1  0  0  0  0
  1  6  1  1  0  0  0
  2  7  1  0  0  0  0
  2  3  1  0  0  0  0
  3  9  1  0  0  0  0
  3 10  1  0  0  0  0
  4 11  1  1  0  0  0
  4  3  1  0  0  0  0
  5  1  1  0  0  0  0
  5  4  1  0  0  0  0
  8  2  1  0  0  0  0
 12  5  1  0  0  0  0
 13  5  1  0  0  0  0
 14 19  2  0  0  0  0
 14 15  1  0  0  0  0
 15 16  2  0  0  0  0
 16 17  1  0  0  0  0
 16  1  1  0  0  0  0
 18 22  1  0  0  0  0
 18 17  2  0  0  0  0
 19 18  1  0  0  0  0
 20 14  1  0  0  0  0
 21 15  1  0  0  0  0
 23  4  1  0  0  0  0
 24 23  1  0  0  0  0
 25 24  1  0  0  0  0
M  END
>  <minimizedAffinity>
-4.37305403

$$$$

 OpenBabel03252507523D

 25 26  0  0  1  0  0  0  0  0999 V2000
   36.5560   28.7240   41.5910 C   0  0  2  0  0  0  0  0  0  0  0  0
   37.4250   28.8970   42.7920 C   0  0  0  0  0  0  0  0  0  0  0  0
   37.1440   27.5800   43.5140 C   0  0  0  0  0  0  0  0  0  0  0  0
   36.9160   26.5700   42.3980 C   0  0  1  0  0  0  0  0  0  0  0  0
   37.0310   27.3530   41.0970 C   0  0  0  0  0  0  0  0  0  0  0  0
   35.5160   28.6120   41.8920 H   0  0  0  0  0  0  0  0  0  0  0  0
   37.0400   29.7240   43.4050 H   0  0  0  0  0  0  0  0  0  0  0  0
   38.4930   28.9570   42.5730 H   0  0  0  0  0  0  0  0  0  0  0  0
   37.9800   27.2610   44.1520 H   0  0  0  0  0  0  0  0  0  0  0  0
   36.1940   27.6750   44.0770 H   0  0  0  0  0  0  0  0  0  0  0  0
   35.9220   26.1060   42.4790 H   0  0  0  0  0  0  0  0  0  0  0  0
   38.1010   27.4280   40.7770 H   0  0  0  0  0  0  0  0  0  0  0  0
   36.3610   26.9530   40.3340 H   0  0  0  0  0  0  0  0  0  0  0  0
   37.0060   32.0060   39.7880 C   0  0  0  0  0  0  0  0  0  0  0  0
   36.8730   31.1240   40.8810 C   0  0  0  0  0  0  0  0  0  0  0  0
   36.7030   29.7690   40.5550 C   0  0  0  0  0  0  0  0  0  0  0  0
   36.6730   29.3700   39.2340 N   0  0  0  0  0  0  0  0  0  0  0  0
   36.8070   30.2800   38.2470 C   0  0  0  0  0  0  0  0  0  0  0  0
   36.9720   31.5780   38.5120 N   0  0  0  0  0  0  0  0  0  0  0  0
   37.1380   33.0570   40.0110 H   0  0  0  0  0  0  0  0  0  0  0  0
   36.8950   31.4240   41.9000 H   0  0  0  0  0  0  0  0  0  0  0  0
   36.7670   29.8410   37.2590 H   0  0  0  0  0  0  0  0  0  0  0  0
   38.0130   25.5270   42.3980 C   0  0  0  0  0  2  0  0  0  0  0  0
   37.4620   24.2310   41.9010 C   0  0  0  0  0  2  0  0  0  0  0  0
   37.0290   24.3490   40.8840 H   0  0  0  0  0  0  0  0  0  0  0  0
  1  6  1  1  0  0  0
  1  2  1  0  0  0  0
  2  7  1  0  0  0  0
  2  3  1  0  0  0  0
  3 10  1  0  0  0  0
  3  9  1  0  0  0  0
  4 23  1  0  0  0  0
  4 11  1  1  0  0  0
  4  3  1  0  0  0  0
  5  1  1  0  0  0  0
  5  4  1  0  0  0  0
  8  2  1  0  0  0  0
 12  5  1  0  0  0  0
 13  5  1  0  0  0  0
 14 20  1  0  0  0  0
 14 15  1  0  0  0  0
 15 21  1  0  0  0  0
 16 15  2  0  0  0  0
 16  1  1  0  0  0  0
 17 16  1  0  0  0  0
 18 19  1  0  0  0  0
 18 17  2  0  0  0  0
 19 14  2  0  0  0  0
 22 18  1  0  0  0  0
 24 23  1  0  0  0  0
 25 24  1  0  0  0  0
M  END
>  <minimizedAffinity>
-4.21822023

$$$$

 OpenBabel03252507523D

 25 26  0  0  1  0  0  0  0  0999 V2000
   39.0160   28.9250   42.9800 C   0  0  2  0  0  0  0  0  0  0  0  0
   40.4340   28.6270   42.6190 C   0  0  0  0  0  0  0  0  0  0  0  0
   40.7090   27.4600   43.5660 C   0  0  0  0  0  0  0  0  0  0  0  0
   39.3770   26.7330   43.6790 C   0  0  1  0  0  0  0  0  0  0  0  0
   38.3940   27.5320   42.8350 C   0  0  0  0  0  0  0  0  0  0  0  0
   38.9450   29.1970   44.0320 H   0  0  0  0  0  0  0  0  0  0  0  0
   41.0700   29.4750   42.9100 H   0  0  0  0  0  0  0  0  0  0  0  0
   40.5780   28.2880   41.5920 H   0  0  0  0  0  0  0  0  0  0  0  0
   41.4840   26.7810   43.1850 H   0  0  0  0  0  0  0  0  0  0  0  0
   40.9550   27.8620   44.5690 H   0  0  0  0  0  0  0  0  0  0  0  0
   39.0360   26.6880   44.7240 H   0  0  0  0  0  0  0  0  0  0  0  0
   38.4470   27.2160   41.7630 H   0  0  0  0  0  0  0  0  0  0  0  0
   37.3890   27.5010   43.2620 H   0  0  0  0  0  0  0  0  0  0  0  0
   38.2770   31.8650   40.7380 C   0  0  0  0  0  0  0  0  0  0  0  0
   39.0460   30.9940   41.5370 C   0  0  0  0  0  0  0  0  0  0  0  0
   38.3470   29.9250   42.1220 C   0  0  0  0  0  0  0  0  0  0  0  0
   36.9930   29.7770   41.9010 N   0  0  0  0  0  0  0  0  0  0  0  0
   36.3320   30.6580   41.1220 C   0  0  0  0  0  0  0  0  0  0  0  0
   36.9570   31.6870   40.5460 N   0  0  0  0  0  0  0  0  0  0  0  0
   38.7910   32.6980   40.2740 H   0  0  0  0  0  0  0  0  0  0  0  0
   40.0890   31.1020   41.7120 H   0  0  0  0  0  0  0  0  0  0  0  0
   35.2780   30.4310   41.0290 H   0  0  0  0  0  0  0  0  0  0  0  0
   39.4770   25.3500   43.0710 C   0  0  0  0  0  2  0  0  0  0  0  0
   38.2550   25.0790   42.2570 C   0  0  0  0  0  2  0  0  0  0  0  0
   38.1280   25.8500   41.4660 H   0  0  0  0  0  0  0  0  0  0  0  0
  1  6  1  1  0  0  0
  2  7  1  0  0  0  0
  2  1  1  0  0  0  0
  2  3  1  0  0  0  0
  3  4  1  0  0  0  0
  3 10  1  0  0  0  0
  4 11  1  1  0  0  0
  5  1  1  0  0  0  0
  5 13  1  0  0  0  0
  5  4  1  0  0  0  0
  8  2  1  0  0  0  0
  9  3  1  0  0  0  0
 12  5  1  0  0  0  0
 14 15  1  0  0  0  0
 15 21  1  0  0  0  0
 15 16  2  0  0  0  0
 16  1  1  0  0  0  0
 17 16  1  0  0  0  0
 18 17  2  0  0  0  0
 19 14  2  0  0  0  0
 19 18  1  0  0  0  0
 20 14  1  0  0  0  0
 22 18  1  0  0  0  0
 23  4  1  0  0  0  0
 24 23  1  0  0  0  0
 25 24  1  0  0  0  0
M  END
>  <minimizedAffinity>
-4.16492939

$$$$

 OpenBabel03252507523D

 25 26  0  0  1  0  0  0  0  0999 V2000
   36.9280   27.9970   42.1640 C   0  0  2  0  0  0  0  0  0  0  0  0
   36.4050   27.7770   40.7830 C   0  0  0  0  0  0  0  0  0  0  0  0
   35.4970   28.9980   40.6460 C   0  0  0  0  0  0  0  0  0  0  0  0
   36.1920   30.0870   41.4500 C   0  0  1  0  0  0  0  0  0  0  0  0
   37.4340   29.4380   42.0440 C   0  0  0  0  0  0  0  0  0  0  0  0
   36.1070   28.0060   42.8800 H   0  0  0  0  0  0  0  0  0  0  0  0
   35.7820   26.8710   40.7690 H   0  0  0  0  0  0  0  0  0  0  0  0
   37.1650   27.8140   40.0000 H   0  0  0  0  0  0  0  0  0  0  0  0
   35.3710   29.3150   39.6020 H   0  0  0  0  0  0  0  0  0  0  0  0
   34.5300   28.7830   41.1430 H   0  0  0  0  0  0  0  0  0  0  0  0
   35.5400   30.4690   42.2500 H   0  0  0  0  0  0  0  0  0  0  0  0
   38.2820   29.4700   41.3140 H   0  0  0  0  0  0  0  0  0  0  0  0
   37.6700   29.8580   43.0240 H   0  0  0  0  0  0  0  0  0  0  0  0
   40.0330   26.4870   43.6800 C   0  0  0  0  0  0  0  0  0  0  0  0
   39.0970   27.4890   43.3460 C   0  0  0  0  0  0  0  0  0  0  0  0
   37.9950   27.0650   42.5860 C   0  0  0  0  0  0  0  0  0  0  0  0
   37.8770   25.7430   42.2110 N   0  0  0  0  0  0  0  0  0  0  0  0
   38.8190   24.8470   42.5720 C   0  0  0  0  0  0  0  0  0  0  0  0
   39.8820   25.2060   43.2950 N   0  0  0  0  0  0  0  0  0  0  0  0
   40.8930   26.7860   44.2660 H   0  0  0  0  0  0  0  0  0  0  0  0
   39.1830   28.5090   43.6320 H   0  0  0  0  0  0  0  0  0  0  0  0
   38.6100   23.8470   42.2160 H   0  0  0  0  0  0  0  0  0  0  0  0
   36.6560   31.2020   40.5370 C   0  0  0  0  0  2  0  0  0  0  0  0
   38.1330   31.3720   40.6750 C   0  0  0  0  0  2  0  0  0  0  0  0
   38.6630   30.4230   40.4420 H   0  0  0  0  0  0  0  0  0  0  0  0
  1 16  1  0  0  0  0
  1  6  1  1  0  0  0
  2  1  1  0  0  0  0
  3  2  1  0  0  0  0
  3 10  1  0  0  0  0
  3  4  1  0  0  0  0
  4  5  1  0  0  0  0
  4 11  1  1  0  0  0
  5  1  1  0  0  0  0
  5 13  1  0  0  0  0
  7  2  1  0  0  0  0
  8  2  1  0  0  0  0
  9  3  1  0  0  0  0
 12  5  1  0  0  0  0
 14 20  1  0  0  0  0
 15 21  1  0  0  0  0
 15 14  1  0  0  0  0
 16 15  2  0  0  0  0
 17 18  2  0  0  0  0
 17 16  1  0  0  0  0
 18 19  1  0  0  0  0
 19 14  2  0  0  0  0
 22 18  1  0  0  0  0
 23 24  1  0  0  0  0
 23  4  1  0  0  0  0
 25 24  1  0  0  0  0
M  END
>  <minimizedAffinity>
-4.08785391

$$$$

 OpenBabel03252507523D

 25 26  0  0  1  0  0  0  0  0999 V2000
   37.0600   28.9770   42.0610 C   0  0  2  0  0  0  0  0  0  0  0  0
   37.3190   28.6080   43.4850 C   0  0  0  0  0  0  0  0  0  0  0  0
   36.6780   27.2220   43.5190 C   0  0  0  0  0  0  0  0  0  0  0  0
   36.9100   26.6550   42.1270 C   0  0  1  0  0  0  0  0  0  0  0  0
   37.6290   27.7470   41.3470 C   0  0  0  0  0  0  0  0  0  0  0  0
   35.9890   28.9920   41.8660 H   0  0  0  0  0  0  0  0  0  0  0  0
   36.7490   29.2780   44.1440 H   0  0  0  0  0  0  0  0  0  0  0  0
   38.3760   28.5140   43.7430 H   0  0  0  0  0  0  0  0  0  0  0  0
   37.1290   26.5680   44.2790 H   0  0  0  0  0  0  0  0  0  0  0  0
   35.5840   27.3350   43.6550 H   0  0  0  0  0  0  0  0  0  0  0  0
   35.9590   26.3980   41.6380 H   0  0  0  0  0  0  0  0  0  0  0  0
   38.7330   27.6960   41.5240 H   0  0  0  0  0  0  0  0  0  0  0  0
   37.3440   27.7340   40.2930 H   0  0  0  0  0  0  0  0  0  0  0  0
   39.5210   31.7610   41.4160 C   0  0  0  0  0  0  0  0  0  0  0  0
   39.0400   30.5330   41.9180 C   0  0  0  0  0  0  0  0  0  0  0  0
   37.7040   30.2290   41.6110 C   0  0  0  0  0  0  0  0  0  0  0  0
   36.9470   31.1060   40.8620 N   0  0  0  0  0  0  0  0  0  0  0  0
   37.4840   32.2620   40.4200 C   0  0  0  0  0  0  0  0  0  0  0  0
   38.7500   32.5900   40.6880 N   0  0  0  0  0  0  0  0  0  0  0  0
   40.5480   32.0210   41.6380 H   0  0  0  0  0  0  0  0  0  0  0  0
   39.6180   29.8540   42.4950 H   0  0  0  0  0  0  0  0  0  0  0  0
   36.7880   32.8590   39.8460 H   0  0  0  0  0  0  0  0  0  0  0  0
   37.8380   25.4590   42.1910 C   0  0  0  0  0  2  0  0  0  0  0  0
   39.1990   25.8640   41.7280 C   0  0  0  0  0  2  0  0  0  0  0  0
   39.5920   26.7020   42.3430 H   0  0  0  0  0  0  0  0  0  0  0  0
  1  6  1  6  0  0  0
  1  2  1  0  0  0  0
  2  3  1  0  0  0  0
  2  8  1  0  0  0  0
  2  7  1  0  0  0  0
  3 10  1  0  0  0  0
  3  9  1  0  0  0  0
  4 11  1  6  0  0  0
  4 23  1  0  0  0  0
  4  3  1  0  0  0  0
  5 12  1  0  0  0  0
  5  1  1  0  0  0  0
  5  4  1  0  0  0  0
 13  5  1  0  0  0  0
 14 20  1  0  0  0  0
 14 15  1  0  0  0  0
 15 21  1  0  0  0  0
 16 15  2  0  0  0  0
 16  1  1  0  0  0  0
 17 16  1  0  0  0  0
 18 19  1  0  0  0  0
 18 17  2  0  0  0  0
 19 14  2  0  0  0  0
 22 18  1  0  0  0  0
 24 23  1  0  0  0  0
 24 25  1  0  0  0  0
M  END
>  <minimizedAffinity>
-4.07953024

$$$$

 OpenBabel03252507523D

 25 26  0  0  1  0  0  0  0  0999 V2000
   37.6620   30.0770   40.5980 C   0  0  2  0  0  0  0  0  0  0  0  0
   36.2820   29.8830   41.1330 C   0  0  0  0  0  0  0  0  0  0  0  0
   36.2840   28.3680   41.3280 C   0  0  0  0  0  0  0  0  0  0  0  0
   37.7190   28.0300   41.7050 C   0  0  1  0  0  0  0  0  0  0  0  0
   38.4810   29.3480   41.6670 C   0  0  0  0  0  0  0  0  0  0  0  0
   37.7860   29.5230   39.6680 H   0  0  0  0  0  0  0  0  0  0  0  0
   35.5490   30.1380   40.3540 H   0  0  0  0  0  0  0  0  0  0  0  0
   36.0990   30.3620   42.0970 H   0  0  0  0  0  0  0  0  0  0  0  0
   35.5950   28.0430   42.1200 H   0  0  0  0  0  0  0  0  0  0  0  0
   36.0710   27.8810   40.3560 H   0  0  0  0  0  0  0  0  0  0  0  0
   38.1590   27.3130   40.9960 H   0  0  0  0  0  0  0  0  0  0  0  0
   38.3790   29.8890   42.6420 H   0  0  0  0  0  0  0  0  0  0  0  0
   39.5130   29.1990   41.3430 H   0  0  0  0  0  0  0  0  0  0  0  0
   37.7480   33.7760   39.8660 C   0  0  0  0  0  0  0  0  0  0  0  0
   37.2100   32.4750   39.9560 C   0  0  0  0  0  0  0  0  0  0  0  0
   38.0810   31.4860   40.4410 C   0  0  0  0  0  0  0  0  0  0  0  0
   39.3740   31.8130   40.7950 N   0  0  0  0  0  0  0  0  0  0  0  0
   39.8110   33.0840   40.6780 C   0  0  0  0  0  0  0  0  0  0  0  0
   39.0160   34.0550   40.2230 N   0  0  0  0  0  0  0  0  0  0  0  0
   37.0980   34.5580   39.4950 H   0  0  0  0  0  0  0  0  0  0  0  0
   36.2160   32.2160   39.6850 H   0  0  0  0  0  0  0  0  0  0  0  0
   40.8400   33.2080   40.9880 H   0  0  0  0  0  0  0  0  0  0  0  0
   37.7830   27.5100   43.1260 C   0  0  0  0  0  2  0  0  0  0  0  0
   36.4000   27.4120   43.6800 C   0  0  0  0  0  2  0  0  0  0  0  0
   35.7670   26.7540   43.0460 H   0  0  0  0  0  0  0  0  0  0  0  0
  1  6  1  6  0  0  0
  1  2  1  0  0  0  0
  1  5  1  0  0  0  0
  2  3  1  0  0  0  0
  2  8  1  0  0  0  0
  3  4  1  0  0  0  0
  3  9  1  0  0  0  0
  4 11  1  6  0  0  0
  4 23  1  0  0  0  0
  5  4  1  0  0  0  0
  5 12  1  0  0  0  0
  7  2  1  0  0  0  0
 10  3  1  0  0  0  0
 13  5  1  0  0  0  0
 14 15  2  0  0  0  0
 14 19  1  0  0  0  0
 15 16  1  0  0  0  0
 16  1  1  0  0  0  0
 16 17  2  0  0  0  0
 18 17  1  0  0  0  0
 18 22  1  0  0  0  0
 19 18  2  0  0  0  0
 20 14  1  0  0  0  0
 21 15  1  0  0  0  0
 23 24  1  0  0  0  0
 25 24  1  0  0  0  0
M  END
>  <minimizedAffinity>
-4.07468319

$$$$

 OpenBabel03252507523D

 25 26  0  0  1  0  0  0  0  0999 V2000
   36.6060   30.8650   40.6720 C   0  0  2  0  0  0  0  0  0  0  0  0
   36.9790   29.5370   41.2430 C   0  0  0  0  0  0  0  0  0  0  0  0
   35.6850   28.7660   40.9880 C   0  0  0  0  0  0  0  0  0  0  0  0
   35.1400   29.3450   39.6910 C   0  0  1  0  0  0  0  0  0  0  0  0
   36.1130   30.4430   39.2840 C   0  0  0  0  0  0  0  0  0  0  0  0
   35.7480   31.2750   41.2030 H   0  0  0  0  0  0  0  0  0  0  0  0
   37.1240   29.6340   42.3280 H   0  0  0  0  0  0  0  0  0  0  0  0
   37.7960   29.0340   40.7220 H   0  0  0  0  0  0  0  0  0  0  0  0
   35.8510   27.6850   40.8850 H   0  0  0  0  0  0  0  0  0  0  0  0
   34.9590   29.0070   41.7910 H   0  0  0  0  0  0  0  0  0  0  0  0
   34.1320   29.7610   39.8330 H   0  0  0  0  0  0  0  0  0  0  0  0
   36.9700   30.0150   38.7040 H   0  0  0  0  0  0  0  0  0  0  0  0
   35.5970   31.2630   38.7800 H   0  0  0  0  0  0  0  0  0  0  0  0
   38.6810   33.9440   40.0120 C   0  0  0  0  0  0  0  0  0  0  0  0
   37.5420   33.1110   40.0070 C   0  0  0  0  0  0  0  0  0  0  0  0
   37.7080   31.8470   40.5960 C   0  0  0  0  0  0  0  0  0  0  0  0
   38.9260   31.4850   41.1330 N   0  0  0  0  0  0  0  0  0  0  0  0
   39.9670   32.3430   41.0960 C   0  0  0  0  0  0  0  0  0  0  0  0
   39.8530   33.5550   40.5480 N   0  0  0  0  0  0  0  0  0  0  0  0
   38.5810   34.9250   39.5640 H   0  0  0  0  0  0  0  0  0  0  0  0
   36.6010   33.3830   39.5950 H   0  0  0  0  0  0  0  0  0  0  0  0
   40.8630   31.9410   41.5500 H   0  0  0  0  0  0  0  0  0  0  0  0
   35.1560   28.2980   38.5980 C   0  0  0  0  0  2  0  0  0  0  0  0
   34.7300   28.9210   37.3090 C   0  0  0  0  0  2  0  0  0  0  0  0
   35.3900   29.7760   37.0470 H   0  0  0  0  0  0  0  0  0  0  0  0
  1  6  1  1  0  0  0
  1  2  1  0  0  0  0
  2  7  1  0  0  0  0
  3  2  1  0  0  0  0
  3 10  1  0  0  0  0
  4 11  1  1  0  0  0
  4  3  1  0  0  0  0
  5  4  1  0  0  0  0
  5  1  1  0  0  0  0
  8  2  1  0  0  0  0
  9  3  1  0  0  0  0
 12  5  1  0  0  0  0
 13  5  1  0  0  0  0
 14 19  1  0  0  0  0
 15 14  2  0  0  0  0
 15 16  1  0  0  0  0
 16  1  1  0  0  0  0
 16 17  2  0  0  0  0
 18 17  1  0  0  0  0
 18 22  1  0  0  0  0
 19 18  2  0  0  0  0
 20 14  1  0  0  0  0
 21 15  1  0  0  0  0
 23  4  1  0  0  0  0
 24 23  1  0  0  0  0
 25 24  1  0  0  0  0
M  END
>  <minimizedAffinity>
-3.93622303

$$$$

 OpenBabel03252507523D

 25 26  0  0  1  0  0  0  0  0999 V2000
   38.0390   28.1040   41.5560 C   0  0  2  0  0  0  0  0  0  0  0  0
   37.3970   29.0450   42.5220 C   0  0  0  0  0  0  0  0  0  0  0  0
   36.7720   30.0400   41.5450 C   0  0  0  0  0  0  0  0  0  0  0  0
   36.3900   29.2030   40.3330 C   0  0  1  0  0  0  0  0  0  0  0  0
   36.8480   27.7850   40.6460 C   0  0  0  0  0  0  0  0  0  0  0  0
   38.7730   28.6300   40.9490 H   0  0  0  0  0  0  0  0  0  0  0  0
   38.1770   29.5610   43.1000 H   0  0  0  0  0  0  0  0  0  0  0  0
   36.6050   28.6020   43.1280 H   0  0  0  0  0  0  0  0  0  0  0  0
   35.8850   30.5380   41.9600 H   0  0  0  0  0  0  0  0  0  0  0  0
   37.5490   30.7610   41.2200 H   0  0  0  0  0  0  0  0  0  0  0  0
   36.8840   29.5720   39.4220 H   0  0  0  0  0  0  0  0  0  0  0  0
   36.0690   27.2400   41.2370 H   0  0  0  0  0  0  0  0  0  0  0  0
   37.1700   27.2640   39.7410 H   0  0  0  0  0  0  0  0  0  0  0  0
   40.0310   25.7010   43.6730 C   0  0  0  0  0  0  0  0  0  0  0  0
   39.5710   26.9440   43.1910 C   0  0  0  0  0  0  0  0  0  0  0  0
   38.6190   26.8860   42.1610 C   0  0  0  0  0  0  0  0  0  0  0  0
   38.1890   25.6650   41.6810 N   0  0  0  0  0  0  0  0  0  0  0  0
   38.6800   24.5200   42.1980 C   0  0  0  0  0  0  0  0  0  0  0  0
   39.5860   24.5300   43.1790 N   0  0  0  0  0  0  0  0  0  0  0  0
   40.7660   25.7160   44.4680 H   0  0  0  0  0  0  0  0  0  0  0  0
   39.8980   27.8870   43.5550 H   0  0  0  0  0  0  0  0  0  0  0  0
   38.2630   23.6350   41.7370 H   0  0  0  0  0  0  0  0  0  0  0  0
   34.8860   29.1670   40.1690 C   0  0  0  0  0  2  0  0  0  0  0  0
   34.5500   28.8860   38.7420 C   0  0  0  0  0  2  0  0  0  0  0  0
   35.0070   27.9280   38.4100 H   0  0  0  0  0  0  0  0  0  0  0  0
  1  6  1  6  0  0  0
  1 16  1  0  0  0  0
  1  2  1  0  0  0  0
  2  7  1  0  0  0  0
  2  8  1  0  0  0  0
  3  9  1  0  0  0  0
  3  2  1  0  0  0  0
  4 11  1  6  0  0  0
  4  5  1  0  0  0  0
  4  3  1  0  0  0  0
  5 12  1  0  0  0  0
  5  1  1  0  0  0  0
 10  3  1  0  0  0  0
 13  5  1  0  0  0  0
 14 20  1  0  0  0  0
 15 21  1  0  0  0  0
 15 14  1  0  0  0  0
 16 15  2  0  0  0  0
 17 16  1  0  0  0  0
 17 18  2  0  0  0  0
 18 19  1  0  0  0  0
 19 14  2  0  0  0  0
 22 18  1  0  0  0  0
 23  4  1  0  0  0  0
 24 23  1  0  0  0  0
 25 24  1  0  0  0  0
M  END
>  <minimizedAffinity>
-3.93573809

$$$$

 OpenBabel03252507523D

 25 26  0  0  1  0  0  0  0  0999 V2000
   37.8790   30.8990   40.5860 C   0  0  2  0  0  0  0  0  0  0  0  0
   36.7730   31.8790   40.3720 C   0  0  0  0  0  0  0  0  0  0  0  0
   37.3940   32.7410   39.2740 C   0  0  0  0  0  0  0  0  0  0  0  0
   38.2460   31.7780   38.4620 C   0  0  1  0  0  0  0  0  0  0  0  0
   38.1140   30.4250   39.1480 C   0  0  0  0  0  0  0  0  0  0  0  0
   38.7830   31.4160   40.9040 H   0  0  0  0  0  0  0  0  0  0  0  0
   36.6500   32.4930   41.2750 H   0  0  0  0  0  0  0  0  0  0  0  0
   35.8470   31.4410   39.9940 H   0  0  0  0  0  0  0  0  0  0  0  0
   36.6380   33.2170   38.6330 H   0  0  0  0  0  0  0  0  0  0  0  0
   38.0770   33.4790   39.7400 H   0  0  0  0  0  0  0  0  0  0  0  0
   39.2990   32.0960   38.4430 H   0  0  0  0  0  0  0  0  0  0  0  0
   37.2030   29.8860   38.7850 H   0  0  0  0  0  0  0  0  0  0  0  0
   39.0380   29.8480   39.0670 H   0  0  0  0  0  0  0  0  0  0  0  0
   36.4030   27.7890   42.1270 C   0  0  0  0  0  0  0  0  0  0  0  0
   36.6020   28.8010   41.1650 C   0  0  0  0  0  0  0  0  0  0  0  0
   37.5550   29.7780   41.4950 C   0  0  0  0  0  0  0  0  0  0  0  0
   38.2310   29.7130   42.6960 N   0  0  0  0  0  0  0  0  0  0  0  0
   37.9800   28.7090   43.5630 C   0  0  0  0  0  0  0  0  0  0  0  0
   37.0830   27.7590   43.2890 N   0  0  0  0  0  0  0  0  0  0  0  0
   35.6740   27.0220   41.8990 H   0  0  0  0  0  0  0  0  0  0  0  0
   36.0860   28.8580   40.2380 H   0  0  0  0  0  0  0  0  0  0  0  0
   38.5730   28.7720   44.4650 H   0  0  0  0  0  0  0  0  0  0  0  0
   37.6890   31.6310   37.0620 C   0  0  0  0  0  2  0  0  0  0  0  0
   37.1240   30.2590   36.8950 C   0  0  0  0  0  2  0  0  0  0  0  0
   36.3380   30.0600   37.6560 H   0  0  0  0  0  0  0  0  0  0  0  0
  1  6  1  1  0  0  0
  1 16  1  0  0  0  0
  2  1  1  0  0  0  0
  2  7  1  0  0  0  0
  3 10  1  0  0  0  0
  3  2  1  0  0  0  0
  4 11  1  6  0  0  0
  4  5  1  0  0  0  0
  4  3  1  0  0  0  0
  5  1  1  0  0  0  0
  8  2  1  0  0  0  0
  9  3  1  0  0  0  0
 12  5  1  0  0  0  0
 13  5  1  0  0  0  0
 14 19  1  0  0  0  0
 15 16  1  0  0  0  0
 15 14  2  0  0  0  0
 16 17  2  0  0  0  0
 17 18  1  0  0  0  0
 18 22  1  0  0  0  0
 19 18  2  0  0  0  0
 20 14  1  0  0  0  0
 21 15  1  0  0  0  0
 23  4  1  0  0  0  0
 24 23  1  0  0  0  0
 24 25  1  0  0  0  0
M  END
>  <minimizedAffinity>
-3.89192152

$$$$
