
 OpenBabel03252509213D

 19 20  0  0  0  0  0  0  0  0999 V2000
   44.7510   35.0820   45.0610 C   0  0  0  0  0  0  0  0  0  0  0  0
   45.3950   35.1570   43.8110 C   0  0  0  0  0  0  0  0  0  0  0  0
   46.4690   34.2780   43.6750 C   0  0  0  0  0  0  0  0  0  0  0  0
   46.8310   33.4270   44.7060 N   0  0  0  0  0  0  0  0  0  0  0  0
   46.1720   33.4050   45.8730 C   0  0  0  0  0  0  0  0  0  0  0  0
   45.1220   34.2490   46.0390 N   0  0  0  0  0  0  0  0  0  0  0  0
   43.8920   35.7480   45.2430 H   0  0  0  0  0  0  0  0  0  0  0  0
   46.5780   32.6950   46.5530 H   0  0  0  0  0  0  0  0  0  0  0  0
   47.1630   34.2200   42.3320 C   0  0  0  0  0  0  0  0  0  0  0  0
   48.6370   34.6440   42.4750 C   0  0  0  0  0  0  0  0  0  0  0  0
   48.1520   33.1990   42.1280 C   0  0  0  0  0  0  0  0  0  0  0  0
   46.7260   34.8480   41.5290 H   0  0  0  0  0  0  0  0  0  0  0  0
   49.0330   34.7750   43.4950 H   0  0  0  0  0  0  0  0  0  0  0  0
   49.1080   35.1840   41.6380 H   0  0  0  0  0  0  0  0  0  0  0  0
   48.4620   32.8330   41.1160 H   0  0  0  0  0  0  0  0  0  0  0  0
   48.3150   32.4440   42.9530 H   0  0  0  0  0  0  0  0  0  0  0  0
   44.9700   36.0740   42.7600 C   0  0  0  0  0  2  0  0  0  0  0  0
   43.8510   35.6050   41.8950 C   0  0  0  0  0  2  0  0  0  0  0  0
   43.5360   34.5570   42.0820 H   0  0  0  0  0  0  0  0  0  0  0  0
  1  7  1  0  0  0  0
  1  6  1  0  0  0  0
  2  1  2  0  0  0  0
  3  2  1  0  0  0  0
  3  4  2  0  0  0  0
  4  5  1  0  0  0  0
  5  6  2  0  0  0  0
  5  8  1  0  0  0  0
  9 10  1  0  0  0  0
  9  3  1  0  0  0  0
 10 13  1  0  0  0  0
 11  9  1  0  0  0  0
 11 10  1  0  0  0  0
 11 16  1  0  0  0  0
 12  9  1  0  0  0  0
 14 10  1  0  0  0  0
 15 11  1  0  0  0  0
 17  2  1  0  0  0  0
 18 19  1  0  0  0  0
 18 17  1  0  0  0  0
M  END
>  <minimizedAffinity>
-3.67281771

>  <minimizedRMSD>
1.14583874

$$$$
