
 OpenBabel03252507513D

 25 26  0  0  1  0  0  0  0  0999 V2000
   46.9160   34.9400   42.1070 C   0  0  2  0  0  0  0  0  0  0  0  0
   46.2910   34.1940   40.9740 C   0  0  0  0  0  0  0  0  0  0  0  0
   47.4740   34.1410   40.0080 C   0  0  0  0  0  0  0  0  0  0  0  0
   48.7000   34.0480   40.9050 C   0  0  1  0  0  0  0  0  0  0  0  0
   48.1760   34.0970   42.3340 C   0  0  0  0  0  0  0  0  0  0  0  0
   47.2460   35.9230   41.7740 H   0  0  0  0  0  0  0  0  0  0  0  0
   45.4980   34.8100   40.5260 H   0  0  0  0  0  0  0  0  0  0  0  0
   45.9880   33.1740   41.2160 H   0  0  0  0  0  0  0  0  0  0  0  0
   47.4290   33.2750   39.3330 H   0  0  0  0  0  0  0  0  0  0  0  0
   47.5340   35.1020   39.4600 H   0  0  0  0  0  0  0  0  0  0  0  0
   49.3910   34.8840   40.7220 H   0  0  0  0  0  0  0  0  0  0  0  0
   47.8770   33.0750   42.6790 H   0  0  0  0  0  0  0  0  0  0  0  0
   48.8790   34.6060   42.9960 H   0  0  0  0  0  0  0  0  0  0  0  0
   44.4360   36.0390   44.7260 C   0  0  0  0  0  0  0  0  0  0  0  0
   45.1620   36.0780   43.5170 C   0  0  0  0  0  0  0  0  0  0  0  0
   46.0860   35.0390   43.3260 C   0  0  0  0  0  0  0  0  0  0  0  0
   46.2410   34.0610   44.2870 N   0  0  0  0  0  0  0  0  0  0  0  0
   45.5060   34.0980   45.4180 C   0  0  0  0  0  0  0  0  0  0  0  0
   44.6160   35.0670   45.6410 N   0  0  0  0  0  0  0  0  0  0  0  0
   43.7160   36.8290   44.9000 H   0  0  0  0  0  0  0  0  0  0  0  0
   45.0480   36.8280   42.7730 H   0  0  0  0  0  0  0  0  0  0  0  0
   45.7220   33.2770   46.0890 H   0  0  0  0  0  0  0  0  0  0  0  0
   49.3890   32.7130   40.7210 C   0  0  0  0  0  0  0  0  0  0  0  0
   50.4900   32.5830   41.7220 C   0  0  0  0  0  0  0  0  0  0  0  0
   50.0960   32.6850   42.7570 H   0  0  0  0  0  0  0  0  0  0  0  0
  1  6  1  6  0  0  0
  1  5  1  0  0  0  0
  1 16  1  0  0  0  0
  2  8  1  0  0  0  0
  2  1  1  0  0  0  0
  3  4  1  0  0  0  0
  3  2  1  0  0  0  0
  4 11  1  6  0  0  0
  4  5  1  0  0  0  0
  5 12  1  0  0  0  0
  5 13  1  0  0  0  0
  7  2  1  0  0  0  0
  9  3  1  0  0  0  0
 10  3  1  0  0  0  0
 14 20  1  0  0  0  0
 14 19  1  0  0  0  0
 15 14  2  0  0  0  0
 16 15  1  0  0  0  0
 16 17  2  0  0  0  0
 17 18  1  0  0  0  0
 18 19  2  0  0  0  0
 18 22  1  0  0  0  0
 21 15  1  0  0  0  0
 23  4  1  0  0  0  0
 23 24  1  0  0  0  0
 24 25  1  0  0  0  0
M  END
>  <minimizedAffinity>
-4.39225721

>  <minimizedRMSD>
1.02580667

$$$$
