
 OpenBabel03252509163D

 19 20  0  0  0  0  0  0  0  0999 V2000
   45.8770   33.0980   46.1510 C   0  0  0  0  0  0  0  0  0  0  0  0
   45.3340   32.9360   47.4530 C   0  0  0  0  0  0  0  0  0  0  0  0
   45.7560   31.8650   48.1740 C   0  0  0  0  0  0  0  0  0  0  0  0
   46.6970   30.9720   47.6140 C   0  0  0  0  0  0  0  0  0  0  0  0
   47.0120   31.6820   45.9650 S   0  0  0  0  0  0  0  0  0  0  0  0
   44.6270   33.6480   47.8150 H   0  0  0  0  0  0  0  0  0  0  0  0
   45.4080   31.6500   49.1670 H   0  0  0  0  0  0  0  0  0  0  0  0
   44.4730   36.1380   44.5470 C   0  0  0  0  0  0  0  0  0  0  0  0
   45.1250   36.0720   43.2960 C   0  0  0  0  0  0  0  0  0  0  0  0
   46.0090   35.0040   43.0480 C   0  0  0  0  0  0  0  0  0  0  0  0
   46.1840   34.0840   44.0530 N   0  0  0  0  0  0  0  0  0  0  0  0
   45.5360   34.1960   45.2290 C   0  0  0  0  0  0  0  0  0  0  0  0
   44.6800   35.2170   45.4880 N   0  0  0  0  0  0  0  0  0  0  0  0
   43.8100   36.9580   44.7020 H   0  0  0  0  0  0  0  0  0  0  0  0
   44.9890   36.7900   42.5100 H   0  0  0  0  0  0  0  0  0  0  0  0
   46.5490   34.8720   42.1250 H   0  0  0  0  0  0  0  0  0  0  0  0
   47.2920   29.7960   48.1440 C   0  0  0  0  0  2  0  0  0  0  0  0
   47.1190   28.6020   47.2490 C   0  0  0  0  0  2  0  0  0  0  0  0
   46.6400   28.8630   46.2690 H   0  0  0  0  0  0  0  0  0  0  0  0
  1  2  2  0  0  0  0
  2  6  1  0  0  0  0
  2  3  1  0  0  0  0
  3  7  1  0  0  0  0
  4 17  1  0  0  0  0
  4  3  2  0  0  0  0
  5  1  1  0  0  0  0
  5  4  1  0  0  0  0
  8 14  1  0  0  0  0
  8 13  1  0  0  0  0
  9  8  2  0  0  0  0
 10  9  1  0  0  0  0
 10 11  2  0  0  0  0
 11 12  1  0  0  0  0
 12 13  2  0  0  0  0
 12  1  1  0  0  0  0
 15  9  1  0  0  0  0
 16 10  1  0  0  0  0
 18 17  1  0  0  0  0
 19 18  1  0  0  0  0
M  END
>  <minimizedAffinity>
-4.01616478

>  <minimizedRMSD>
0.732590735

$$$$
