
 OpenBabel03252503303D

 31 32  0  0  1  0  0  0  0  0999 V2000
   39.3540   27.7190   41.7930 C   0  0  0  0  0  0  0  0  0  0  0  0
   38.4800   26.6940   41.3650 C   0  0  0  0  0  0  0  0  0  0  0  0
   38.3770   25.5530   42.1700 C   0  0  0  0  0  0  0  0  0  0  0  0
   39.1260   25.5220   43.2970 N   0  0  0  0  0  0  0  0  0  0  0  0
   39.9470   26.5090   43.6800 C   0  0  0  0  0  0  0  0  0  0  0  0
   40.0530   27.6080   42.9170 N   0  0  0  0  0  0  0  0  0  0  0  0
   38.4010   29.7710   41.1950 C   0  0  0  0  0  0  0  0  0  0  0  0
   37.4450   29.4000   41.9180 O   0  0  0  0  0  0  0  0  0  0  0  0
   39.5200   28.9160   41.0350 N   0  0  0  0  0  0  0  0  0  0  0  0
   38.2840   31.0450   40.5790 N   0  0  0  0  0  0  0  0  0  0  0  0
   36.9910   31.7230   40.5060 C   0  0  0  0  0  0  0  0  0  0  0  0
   37.1110   32.4800   39.2150 C   0  0  0  0  0  0  0  0  0  0  0  0
   38.5230   32.3160   38.7150 C   0  0  0  0  0  0  0  0  0  0  0  0
   39.2620   31.8950   39.9500 C   0  0  1  0  0  0  0  0  0  0  0  0
   37.9390   26.8400   40.4440 H   0  0  0  0  0  0  0  0  0  0  0  0
   40.5170   26.4130   44.5980 H   0  0  0  0  0  0  0  0  0  0  0  0
   40.2650   29.2600   40.4200 H   0  0  0  0  0  0  0  0  0  0  0  0
   36.1540   30.9930   40.4520 H   0  0  0  0  0  0  0  0  0  0  0  0
   36.8150   32.3570   41.3960 H   0  0  0  0  0  0  0  0  0  0  0  0
   36.8090   33.5430   39.3140 H   0  0  0  0  0  0  0  0  0  0  0  0
   36.4300   32.0240   38.4580 H   0  0  0  0  0  0  0  0  0  0  0  0
   38.6220   31.6270   37.8650 H   0  0  0  0  0  0  0  0  0  0  0  0
   38.8540   33.3210   38.3700 H   0  0  0  0  0  0  0  0  0  0  0  0
   40.1330   31.2730   39.7030 H   0  0  0  0  0  0  0  0  0  0  0  0
   37.4630   24.5220   41.6860 C   0  0  0  0  0  0  0  0  0  0  0  0
   36.9470   24.9170   40.4600 F   0  0  0  0  0  0  0  0  0  0  0  0
   36.3750   24.5060   42.5460 F   0  0  0  0  0  0  0  0  0  0  0  0
   38.0480   23.2930   41.5390 F   0  0  0  0  0  0  0  0  0  0  0  0
   39.7260   33.0420   40.7990 C   0  0  0  0  0  2  0  0  0  0  0  0
   40.3860   34.0600   39.8950 C   0  0  0  0  0  2  0  0  0  0  0  0
   40.3110   33.7710   38.8330 H   0  0  0  0  0  0  0  0  0  0  0  0
  1  6  1  0  0  0  0
  2  1  2  0  0  0  0
  2  3  1  0  0  0  0
  3  4  2  0  0  0  0
  4  5  1  0  0  0  0
  5 16  1  0  0  0  0
  6  5  2  0  0  0  0
  7  8  2  0  0  0  0
  9  7  1  0  0  0  0
  9  1  1  0  0  0  0
 10  7  1  0  0  0  0
 11 10  1  0  0  0  0
 11 19  1  0  0  0  0
 12 20  1  0  0  0  0
 12 11  1  0  0  0  0
 13 12  1  0  0  0  0
 13 14  1  0  0  0  0
 14 24  1  6  0  0  0
 14 10  1  0  0  0  0
 14 29  1  0  0  0  0
 15  2  1  0  0  0  0
 17  9  1  0  0  0  0
 18 11  1  0  0  0  0
 21 12  1  0  0  0  0
 22 13  1  0  0  0  0
 23 13  1  0  0  0  0
 25  3  1  0  0  0  0
 25 27  1  0  0  0  0
 26 25  1  0  0  0  0
 28 25  1  0  0  0  0
 30 29  1  0  0  0  0
 31 30  1  0  0  0  0
M  END
>  <minimizedAffinity>
-5.11818695

$$$$

 OpenBabel03252503303D

 31 32  0  0  1  0  0  0  0  0999 V2000
   38.5870   29.7510   41.7250 C   0  0  0  0  0  0  0  0  0  0  0  0
   37.8370   30.4900   40.7830 C   0  0  0  0  0  0  0  0  0  0  0  0
   38.2760   31.7840   40.4770 C   0  0  0  0  0  0  0  0  0  0  0  0
   39.3880   32.2240   41.1110 N   0  0  0  0  0  0  0  0  0  0  0  0
   40.0800   31.5020   42.0020 C   0  0  0  0  0  0  0  0  0  0  0  0
   39.6690   30.2600   42.3020 N   0  0  0  0  0  0  0  0  0  0  0  0
   38.5450   27.5040   41.0720 C   0  0  0  0  0  0  0  0  0  0  0  0
   39.0790   27.9270   40.0170 O   0  0  0  0  0  0  0  0  0  0  0  0
   38.2110   28.4250   42.0950 N   0  0  0  0  0  0  0  0  0  0  0  0
   38.3120   26.1060   41.1570 N   0  0  0  0  0  0  0  0  0  0  0  0
   38.3630   25.2660   39.9620 C   0  0  0  0  0  0  0  0  0  0  0  0
   37.3500   24.2050   40.2850 C   0  0  0  0  0  0  0  0  0  0  0  0
   36.9030   24.4150   41.7090 C   0  0  0  0  0  0  0  0  0  0  0  0
   38.0060   25.2560   42.2790 C   0  0  1  0  0  0  0  0  0  0  0  0
   36.9670   30.0240   40.3470 H   0  0  0  0  0  0  0  0  0  0  0  0
   40.9640   31.9220   42.4700 H   0  0  0  0  0  0  0  0  0  0  0  0
   37.7620   28.0290   42.9270 H   0  0  0  0  0  0  0  0  0  0  0  0
   38.0580   25.8320   39.0550 H   0  0  0  0  0  0  0  0  0  0  0  0
   39.3860   24.8830   39.7790 H   0  0  0  0  0  0  0  0  0  0  0  0
   37.7310   23.1800   40.0980 H   0  0  0  0  0  0  0  0  0  0  0  0
   36.4580   24.3390   39.6280 H   0  0  0  0  0  0  0  0  0  0  0  0
   35.8980   24.8500   41.8050 H   0  0  0  0  0  0  0  0  0  0  0  0
   36.8770   23.4080   42.1820 H   0  0  0  0  0  0  0  0  0  0  0  0
   37.6400   25.8980   43.0920 H   0  0  0  0  0  0  0  0  0  0  0  0
   37.4690   32.5080   39.4990 C   0  0  0  0  0  0  0  0  0  0  0  0
   36.2930   31.8060   39.2760 F   0  0  0  0  0  0  0  0  0  0  0  0
   38.1510   32.4590   38.2920 F   0  0  0  0  0  0  0  0  0  0  0  0
   37.1510   33.7820   39.8840 F   0  0  0  0  0  0  0  0  0  0  0  0
   39.1700   24.4610   42.7920 C   0  0  0  0  0  2  0  0  0  0  0  0
   40.0600   25.3870   43.5910 C   0  0  0  0  0  2  0  0  0  0  0  0
   39.6240   26.3970   43.6770 H   0  0  0  0  0  0  0  0  0  0  0  0
  1  9  1  0  0  0  0
  1  6  1  0  0  0  0
  2  1  2  0  0  0  0
  3  2  1  0  0  0  0
  3  4  2  0  0  0  0
  4  5  1  0  0  0  0
  5  6  2  0  0  0  0
  5 16  1  0  0  0  0
  7 10  1  0  0  0  0
  7  9  1  0  0  0  0
  8  7  2  0  0  0  0
  9 17  1  0  0  0  0
 10 14  1  0  0  0  0
 11 12  1  0  0  0  0
 11 10  1  0  0  0  0
 12 13  1  0  0  0  0
 13 22  1  0  0  0  0
 13 23  1  0  0  0  0
 13 14  1  0  0  0  0
 14 29  1  0  0  0  0
 14 24  1  1  0  0  0
 15  2  1  0  0  0  0
 18 11  1  0  0  0  0
 19 11  1  0  0  0  0
 20 12  1  0  0  0  0
 21 12  1  0  0  0  0
 25 28  1  0  0  0  0
 25  3  1  0  0  0  0
 26 25  1  0  0  0  0
 27 25  1  0  0  0  0
 29 30  1  0  0  0  0
 30 31  1  0  0  0  0
M  END
>  <minimizedAffinity>
-5.10298443

$$$$

 OpenBabel03252503303D

 31 32  0  0  1  0  0  0  0  0999 V2000
   38.3170   29.9660   39.8630 C   0  0  0  0  0  0  0  0  0  0  0  0
   39.4320   30.8340   39.9020 C   0  0  0  0  0  0  0  0  0  0  0  0
   39.2210   32.1740   39.5570 C   0  0  0  0  0  0  0  0  0  0  0  0
   37.9620   32.5320   39.2110 N   0  0  0  0  0  0  0  0  0  0  0  0
   36.9220   31.6870   39.1820 C   0  0  0  0  0  0  0  0  0  0  0  0
   37.1130   30.4000   39.5120 N   0  0  0  0  0  0  0  0  0  0  0  0
   38.5520   28.4180   41.6030 C   0  0  0  0  0  0  0  0  0  0  0  0
   38.5490   29.4320   42.3420 O   0  0  0  0  0  0  0  0  0  0  0  0
   38.4420   28.5850   40.2000 N   0  0  0  0  0  0  0  0  0  0  0  0
   38.6700   27.1560   42.2430 N   0  0  0  0  0  0  0  0  0  0  0  0
   39.1120   27.0630   43.6330 C   0  0  0  0  0  0  0  0  0  0  0  0
   39.8400   25.7500   43.6390 C   0  0  0  0  0  0  0  0  0  0  0  0
   39.6290   25.1010   42.2950 C   0  0  0  0  0  0  0  0  0  0  0  0
   38.4220   25.8190   41.7700 C   0  0  1  0  0  0  0  0  0  0  0  0
   40.3850   30.4240   40.1950 H   0  0  0  0  0  0  0  0  0  0  0  0
   35.9400   32.0470   38.8940 H   0  0  0  0  0  0  0  0  0  0  0  0
   38.4670   27.7250   39.6420 H   0  0  0  0  0  0  0  0  0  0  0  0
   39.8050   27.8930   43.8940 H   0  0  0  0  0  0  0  0  0  0  0  0
   38.2580   27.1170   44.3350 H   0  0  0  0  0  0  0  0  0  0  0  0
   39.5400   25.0980   44.4850 H   0  0  0  0  0  0  0  0  0  0  0  0
   40.9340   25.9380   43.7540 H   0  0  0  0  0  0  0  0  0  0  0  0
   40.5070   25.1380   41.6350 H   0  0  0  0  0  0  0  0  0  0  0  0
   39.4070   24.0290   42.4950 H   0  0  0  0  0  0  0  0  0  0  0  0
   38.4210   25.8490   40.6720 H   0  0  0  0  0  0  0  0  0  0  0  0
   40.4010   33.0320   39.6120 C   0  0  0  0  0  0  0  0  0  0  0  0
   40.7410   33.4150   38.3220 F   0  0  0  0  0  0  0  0  0  0  0  0
   41.4580   32.2430   40.0430 F   0  0  0  0  0  0  0  0  0  0  0  0
   40.2280   34.1570   40.3710 F   0  0  0  0  0  0  0  0  0  0  0  0
   37.1210   25.2290   42.2280 C   0  0  0  0  0  2  0  0  0  0  0  0
   36.7030   24.1730   41.2270 C   0  0  0  0  0  2  0  0  0  0  0  0
   37.4680   24.0270   40.4460 H   0  0  0  0  0  0  0  0  0  0  0  0
  1  2  1  0  0  0  0
  1  9  1  0  0  0  0
  2 15  1  0  0  0  0
  3 25  1  0  0  0  0
  3  2  2  0  0  0  0
  4  3  1  0  0  0  0
  5  4  2  0  0  0  0
  5  6  1  0  0  0  0
  6  1  2  0  0  0  0
  7 10  1  0  0  0  0
  7  8  2  0  0  0  0
  9  7  1  0  0  0  0
 10 11  1  0  0  0  0
 11 12  1  0  0  0  0
 11 18  1  0  0  0  0
 11 19  1  0  0  0  0
 12 21  1  0  0  0  0
 12 20  1  0  0  0  0
 13 23  1  0  0  0  0
 13 12  1  0  0  0  0
 14 24  1  6  0  0  0
 14 29  1  0  0  0  0
 14 10  1  0  0  0  0
 14 13  1  0  0  0  0
 16  5  1  0  0  0  0
 17  9  1  0  0  0  0
 22 13  1  0  0  0  0
 25 27  1  0  0  0  0
 25 28  1  0  0  0  0
 26 25  1  0  0  0  0
 30 29  1  0  0  0  0
 31 30  1  0  0  0  0
M  END
>  <minimizedAffinity>
-5.00267792

$$$$

 OpenBabel03252503303D

 31 32  0  0  1  0  0  0  0  0999 V2000
   38.1020   29.5170   40.7350 C   0  0  0  0  0  0  0  0  0  0  0  0
   38.9380   30.6550   40.6730 C   0  0  0  0  0  0  0  0  0  0  0  0
   38.3200   31.9100   40.6170 C   0  0  0  0  0  0  0  0  0  0  0  0
   36.9670   31.9330   40.6270 N   0  0  0  0  0  0  0  0  0  0  0  0
   36.1980   30.8380   40.6860 C   0  0  0  0  0  0  0  0  0  0  0  0
   36.7790   29.6290   40.7410 N   0  0  0  0  0  0  0  0  0  0  0  0
   39.1560   27.9240   42.0870 C   0  0  0  0  0  0  0  0  0  0  0  0
   39.0960   28.8130   42.9710 O   0  0  0  0  0  0  0  0  0  0  0  0
   38.6460   28.2000   40.7940 N   0  0  0  0  0  0  0  0  0  0  0  0
   39.7440   26.6870   42.4600 N   0  0  0  0  0  0  0  0  0  0  0  0
   40.5430   26.5770   43.6800 C   0  0  0  0  0  0  0  0  0  0  0  0
   41.5480   25.5280   43.2980 C   0  0  0  0  0  0  0  0  0  0  0  0
   41.1600   24.9910   41.9440 C   0  0  0  0  0  0  0  0  0  0  0  0
   39.7190   25.3910   41.8320 C   0  0  1  0  0  0  0  0  0  0  0  0
   40.0050   30.5010   40.6710 H   0  0  0  0  0  0  0  0  0  0  0  0
   35.1170   30.9350   40.6910 H   0  0  0  0  0  0  0  0  0  0  0  0
   38.7360   27.4450   40.1060 H   0  0  0  0  0  0  0  0  0  0  0  0
   41.0520   27.5360   43.9180 H   0  0  0  0  0  0  0  0  0  0  0  0
   39.9160   26.3150   44.5530 H   0  0  0  0  0  0  0  0  0  0  0  0
   41.6480   24.7340   44.0660 H   0  0  0  0  0  0  0  0  0  0  0  0
   42.5520   26.0040   43.1970 H   0  0  0  0  0  0  0  0  0  0  0  0
   41.7990   25.3420   41.1210 H   0  0  0  0  0  0  0  0  0  0  0  0
   41.2690   23.8850   42.0020 H   0  0  0  0  0  0  0  0  0  0  0  0
   39.4250   25.5350   40.7840 H   0  0  0  0  0  0  0  0  0  0  0  0
   39.2260   33.0550   40.5540 C   0  0  0  0  0  0  0  0  0  0  0  0
   39.4400   33.3860   39.2240 F   0  0  0  0  0  0  0  0  0  0  0  0
   40.4590   32.6250   41.0200 F   0  0  0  0  0  0  0  0  0  0  0  0
   38.7590   34.1600   41.2110 F   0  0  0  0  0  0  0  0  0  0  0  0
   38.7700   24.4140   42.4610 C   0  0  0  0  0  2  0  0  0  0  0  0
   37.3940   24.6490   41.8760 C   0  0  0  0  0  2  0  0  0  0  0  0
   37.4150   25.4170   41.0830 H   0  0  0  0  0  0  0  0  0  0  0  0
  1  6  1  0  0  0  0
  1  9  1  0  0  0  0
  2  1  2  0  0  0  0
  3  4  2  0  0  0  0
  3  2  1  0  0  0  0
  4  5  1  0  0  0  0
  5 16  1  0  0  0  0
  5  6  2  0  0  0  0
  7 10  1  0  0  0  0
  7  8  2  0  0  0  0
  9  7  1  0  0  0  0
 10 11  1  0  0  0  0
 11 18  1  0  0  0  0
 11 19  1  0  0  0  0
 12 11  1  0  0  0  0
 12 20  1  0  0  0  0
 13 23  1  0  0  0  0
 13 12  1  0  0  0  0
 14 24  1  6  0  0  0
 14 13  1  0  0  0  0
 14 10  1  0  0  0  0
 14 29  1  0  0  0  0
 15  2  1  0  0  0  0
 17  9  1  0  0  0  0
 21 12  1  0  0  0  0
 22 13  1  0  0  0  0
 25  3  1  0  0  0  0
 25 27  1  0  0  0  0
 25 28  1  0  0  0  0
 26 25  1  0  0  0  0
 30 29  1  0  0  0  0
 31 30  1  0  0  0  0
M  END
>  <minimizedAffinity>
-4.9930892

$$$$

 OpenBabel03252503303D

 31 32  0  0  1  0  0  0  0  0999 V2000
   38.4650   28.7950   41.9930 C   0  0  0  0  0  0  0  0  0  0  0  0
   38.3840   27.4730   41.4990 C   0  0  0  0  0  0  0  0  0  0  0  0
   37.5310   26.5850   42.1650 C   0  0  0  0  0  0  0  0  0  0  0  0
   36.8510   27.0640   43.2310 N   0  0  0  0  0  0  0  0  0  0  0  0
   36.9460   28.3230   43.6790 C   0  0  0  0  0  0  0  0  0  0  0  0
   37.7600   29.1840   43.0480 N   0  0  0  0  0  0  0  0  0  0  0  0
   38.7390   30.2290   40.1640 C   0  0  0  0  0  0  0  0  0  0  0  0
   37.6420   29.7530   39.7820 O   0  0  0  0  0  0  0  0  0  0  0  0
   39.3080   29.7660   41.3760 N   0  0  0  0  0  0  0  0  0  0  0  0
   39.3360   31.2130   39.3330 N   0  0  0  0  0  0  0  0  0  0  0  0
   38.8840   31.4030   37.9560 C   0  0  0  0  0  0  0  0  0  0  0  0
   40.1500   31.8300   37.2700 C   0  0  0  0  0  0  0  0  0  0  0  0
   41.2070   32.0140   38.3290 C   0  0  0  0  0  0  0  0  0  0  0  0
   40.3950   32.1570   39.5820 C   0  0  1  0  0  0  0  0  0  0  0  0
   38.9800   27.2150   40.6380 H   0  0  0  0  0  0  0  0  0  0  0  0
   36.3680   28.6360   44.5420 H   0  0  0  0  0  0  0  0  0  0  0  0
   40.2130   30.1750   41.6320 H   0  0  0  0  0  0  0  0  0  0  0  0
   38.5080   30.4520   37.5190 H   0  0  0  0  0  0  0  0  0  0  0  0
   38.0600   32.1390   37.8970 H   0  0  0  0  0  0  0  0  0  0  0  0
   40.0100   32.7310   36.6380 H   0  0  0  0  0  0  0  0  0  0  0  0
   40.4920   31.0130   36.5910 H   0  0  0  0  0  0  0  0  0  0  0  0
   41.9580   31.2120   38.3590 H   0  0  0  0  0  0  0  0  0  0  0  0
   41.7390   32.9600   38.0820 H   0  0  0  0  0  0  0  0  0  0  0  0
   40.9520   31.8080   40.4620 H   0  0  0  0  0  0  0  0  0  0  0  0
   37.4820   25.2310   41.6180 C   0  0  0  0  0  0  0  0  0  0  0  0
   36.9830   25.2850   40.3250 F   0  0  0  0  0  0  0  0  0  0  0  0
   36.5270   24.5340   42.3430 F   0  0  0  0  0  0  0  0  0  0  0  0
   38.6980   24.6040   41.5930 F   0  0  0  0  0  0  0  0  0  0  0  0
   39.9290   33.5590   39.8430 C   0  0  0  0  0  2  0  0  0  0  0  0
   38.9420   33.5230   40.9890 C   0  0  0  0  0  2  0  0  0  0  0  0
   38.8470   32.5090   41.4130 H   0  0  0  0  0  0  0  0  0  0  0  0
  1  6  1  0  0  0  0
  2  1  2  0  0  0  0
  2  3  1  0  0  0  0
  3  4  2  0  0  0  0
  4  5  1  0  0  0  0
  5 16  1  0  0  0  0
  6  5  2  0  0  0  0
  7  9  1  0  0  0  0
  8  7  2  0  0  0  0
  9 17  1  0  0  0  0
  9  1  1  0  0  0  0
 10 14  1  0  0  0  0
 10  7  1  0  0  0  0
 11 10  1  0  0  0  0
 12 11  1  0  0  0  0
 12 13  1  0  0  0  0
 13 22  1  0  0  0  0
 13 14  1  0  0  0  0
 14 29  1  0  0  0  0
 14 24  1  1  0  0  0
 15  2  1  0  0  0  0
 18 11  1  0  0  0  0
 19 11  1  0  0  0  0
 20 12  1  0  0  0  0
 21 12  1  0  0  0  0
 23 13  1  0  0  0  0
 25  3  1  0  0  0  0
 25 27  1  0  0  0  0
 26 25  1  0  0  0  0
 28 25  1  0  0  0  0
 29 30  1  0  0  0  0
 30 31  1  0  0  0  0
M  END
>  <minimizedAffinity>
-4.86135387

$$$$

 OpenBabel03252503303D

 31 32  0  0  1  0  0  0  0  0999 V2000
   37.3990   28.2250   38.3240 C   0  0  0  0  0  0  0  0  0  0  0  0
   37.9360   29.5240   38.1750 C   0  0  0  0  0  0  0  0  0  0  0  0
   37.2940   30.3920   37.2830 C   0  0  0  0  0  0  0  0  0  0  0  0
   36.2070   29.9150   36.6340 N   0  0  0  0  0  0  0  0  0  0  0  0
   35.7180   28.6790   36.7940 C   0  0  0  0  0  0  0  0  0  0  0  0
   36.3250   27.8380   37.6470 N   0  0  0  0  0  0  0  0  0  0  0  0
   37.6770   27.5860   40.5580 C   0  0  0  0  0  0  0  0  0  0  0  0
   36.9820   28.6010   40.8080 O   0  0  0  0  0  0  0  0  0  0  0  0
   37.9890   27.2770   39.2110 N   0  0  0  0  0  0  0  0  0  0  0  0
   38.1070   26.8130   41.6690 N   0  0  0  0  0  0  0  0  0  0  0  0
   38.0440   27.3540   43.0250 C   0  0  0  0  0  0  0  0  0  0  0  0
   39.2210   26.6890   43.6790 C   0  0  0  0  0  0  0  0  0  0  0  0
   39.7840   25.6870   42.7030 C   0  0  0  0  0  0  0  0  0  0  0  0
   38.6430   25.4780   41.7520 C   0  0  1  0  0  0  0  0  0  0  0  0
   38.8100   29.7810   38.7520 H   0  0  0  0  0  0  0  0  0  0  0  0
   34.8400   28.3680   36.2380 H   0  0  0  0  0  0  0  0  0  0  0  0
   38.5740   26.4470   39.0650 H   0  0  0  0  0  0  0  0  0  0  0  0
   38.1720   28.4580   43.0260 H   0  0  0  0  0  0  0  0  0  0  0  0
   37.0700   27.1370   43.5040 H   0  0  0  0  0  0  0  0  0  0  0  0
   38.9660   26.2390   44.6600 H   0  0  0  0  0  0  0  0  0  0  0  0
   40.0120   27.4520   43.8730 H   0  0  0  0  0  0  0  0  0  0  0  0
   40.7240   26.0010   42.2280 H   0  0  0  0  0  0  0  0  0  0  0  0
   39.9980   24.7640   43.2870 H   0  0  0  0  0  0  0  0  0  0  0  0
   39.0020   25.2010   40.7520 H   0  0  0  0  0  0  0  0  0  0  0  0
   37.8870   31.7210   37.1630 C   0  0  0  0  0  0  0  0  0  0  0  0
   37.3110   32.5580   38.1070 F   0  0  0  0  0  0  0  0  0  0  0  0
   37.4890   32.2350   35.9370 F   0  0  0  0  0  0  0  0  0  0  0  0
   39.2440   31.7350   37.3350 F   0  0  0  0  0  0  0  0  0  0  0  0
   37.6600   24.4400   42.2060 C   0  0  0  0  0  2  0  0  0  0  0  0
   36.7550   24.1040   41.0410 C   0  0  0  0  0  2  0  0  0  0  0  0
   37.0640   24.6310   40.1210 H   0  0  0  0  0  0  0  0  0  0  0  0
  1  9  1  0  0  0  0
  2  1  1  0  0  0  0
  2 15  1  0  0  0  0
  3  2  2  0  0  0  0
  4  5  2  0  0  0  0
  4  3  1  0  0  0  0
  5  6  1  0  0  0  0
  6  1  2  0  0  0  0
  7  8  2  0  0  0  0
  7 10  1  0  0  0  0
  9  7  1  0  0  0  0
 10 14  1  0  0  0  0
 10 11  1  0  0  0  0
 11 18  1  0  0  0  0
 11 19  1  0  0  0  0
 11 12  1  0  0  0  0
 12 21  1  0  0  0  0
 12 20  1  0  0  0  0
 13 23  1  0  0  0  0
 13 12  1  0  0  0  0
 14 24  1  6  0  0  0
 14 29  1  0  0  0  0
 14 13  1  0  0  0  0
 16  5  1  0  0  0  0
 17  9  1  0  0  0  0
 22 13  1  0  0  0  0
 25  3  1  0  0  0  0
 25 28  1  0  0  0  0
 25 26  1  0  0  0  0
 27 25  1  0  0  0  0
 30 29  1  0  0  0  0
 31 30  1  0  0  0  0
M  END
>  <minimizedAffinity>
-4.79251242

$$$$

 OpenBabel03252503303D

 31 32  0  0  1  0  0  0  0  0999 V2000
   38.0440   26.2670   40.8610 C   0  0  0  0  0  0  0  0  0  0  0  0
   37.0670   25.6260   40.0660 C   0  0  0  0  0  0  0  0  0  0  0  0
   36.6870   24.3280   40.4270 C   0  0  0  0  0  0  0  0  0  0  0  0
   37.2870   23.7890   41.5130 N   0  0  0  0  0  0  0  0  0  0  0  0
   38.2120   24.4180   42.2510 C   0  0  0  0  0  0  0  0  0  0  0  0
   38.5840   25.6640   41.9140 N   0  0  0  0  0  0  0  0  0  0  0  0
   37.5180   28.5450   40.9490 C   0  0  0  0  0  0  0  0  0  0  0  0
   36.4370   28.1520   41.4530 O   0  0  0  0  0  0  0  0  0  0  0  0
   38.4900   27.5890   40.5660 N   0  0  0  0  0  0  0  0  0  0  0  0
   37.6820   29.9470   40.7990 N   0  0  0  0  0  0  0  0  0  0  0  0
   36.5360   30.8490   40.8950 C   0  0  0  0  0  0  0  0  0  0  0  0
   36.9250   31.9470   39.9470 C   0  0  0  0  0  0  0  0  0  0  0  0
   38.3380   31.6840   39.4940 C   0  0  0  0  0  0  0  0  0  0  0  0
   38.8530   30.7490   40.5480 C   0  0  1  0  0  0  0  0  0  0  0  0
   36.6650   26.1660   39.2230 H   0  0  0  0  0  0  0  0  0  0  0  0
   38.6500   23.9210   43.1100 H   0  0  0  0  0  0  0  0  0  0  0  0
   39.3460   27.9640   40.1440 H   0  0  0  0  0  0  0  0  0  0  0  0
   35.6020   30.3530   40.5540 H   0  0  0  0  0  0  0  0  0  0  0  0
   36.3670   31.1810   41.9370 H   0  0  0  0  0  0  0  0  0  0  0  0
   36.7930   32.9570   40.3870 H   0  0  0  0  0  0  0  0  0  0  0  0
   36.2680   31.9020   39.0470 H   0  0  0  0  0  0  0  0  0  0  0  0
   38.4170   31.3030   38.4660 H   0  0  0  0  0  0  0  0  0  0  0  0
   38.8670   32.6630   39.5290 H   0  0  0  0  0  0  0  0  0  0  0  0
   39.6310   30.0850   40.1480 H   0  0  0  0  0  0  0  0  0  0  0  0
   35.6750   23.7090   39.5750 C   0  0  0  0  0  0  0  0  0  0  0  0
   34.6320   23.2560   40.3700 F   0  0  0  0  0  0  0  0  0  0  0  0
   36.2420   22.5620   39.0380 F   0  0  0  0  0  0  0  0  0  0  0  0
   35.1670   24.5520   38.6240 F   0  0  0  0  0  0  0  0  0  0  0  0
   39.4010   31.4450   41.7590 C   0  0  0  0  0  2  0  0  0  0  0  0
   40.2750   30.4670   42.5110 C   0  0  0  0  0  2  0  0  0  0  0  0
   40.3700   29.5080   41.9720 H   0  0  0  0  0  0  0  0  0  0  0  0
  1  6  1  0  0  0  0
  2  3  1  0  0  0  0
  2  1  2  0  0  0  0
  3  4  2  0  0  0  0
  4  5  1  0  0  0  0
  5 16  1  0  0  0  0
  6  5  2  0  0  0  0
  7  8  2  0  0  0  0
  9  1  1  0  0  0  0
  9  7  1  0  0  0  0
 10 11  1  0  0  0  0
 10  7  1  0  0  0  0
 11 19  1  0  0  0  0
 12 20  1  0  0  0  0
 12 11  1  0  0  0  0
 13 23  1  0  0  0  0
 13 12  1  0  0  0  0
 13 14  1  0  0  0  0
 14 24  1  6  0  0  0
 14 10  1  0  0  0  0
 14 29  1  0  0  0  0
 15  2  1  0  0  0  0
 17  9  1  0  0  0  0
 18 11  1  0  0  0  0
 21 12  1  0  0  0  0
 22 13  1  0  0  0  0
 25 26  1  0  0  0  0
 25  3  1  0  0  0  0
 27 25  1  0  0  0  0
 28 25  1  0  0  0  0
 29 30  1  0  0  0  0
 31 30  1  0  0  0  0
M  END
>  <minimizedAffinity>
-4.77259302

$$$$

 OpenBabel03252503303D

 31 32  0  0  1  0  0  0  0  0999 V2000
   36.2220   29.1650   38.1320 C   0  0  0  0  0  0  0  0  0  0  0  0
   34.8100   29.1640   38.0640 C   0  0  0  0  0  0  0  0  0  0  0  0
   34.2230   28.9780   36.8060 C   0  0  0  0  0  0  0  0  0  0  0  0
   35.0580   28.8140   35.7540 N   0  0  0  0  0  0  0  0  0  0  0  0
   36.3940   28.8190   35.8460 C   0  0  0  0  0  0  0  0  0  0  0  0
   36.9680   28.9950   37.0470 N   0  0  0  0  0  0  0  0  0  0  0  0
   36.8430   28.1680   40.1570 C   0  0  0  0  0  0  0  0  0  0  0  0
   36.2230   27.1700   39.7160 O   0  0  0  0  0  0  0  0  0  0  0  0
   36.9030   29.3460   39.3720 N   0  0  0  0  0  0  0  0  0  0  0  0
   37.4460   28.0350   41.4350 N   0  0  0  0  0  0  0  0  0  0  0  0
   37.0730   26.9390   42.3270 C   0  0  0  0  0  0  0  0  0  0  0  0
   37.2400   27.5690   43.6800 C   0  0  0  0  0  0  0  0  0  0  0  0
   37.8520   28.9320   43.4790 C   0  0  0  0  0  0  0  0  0  0  0  0
   38.4450   28.8270   42.1060 C   0  0  1  0  0  0  0  0  0  0  0  0
   34.2580   29.3050   38.9790 H   0  0  0  0  0  0  0  0  0  0  0  0
   36.9990   28.6810   34.9570 H   0  0  0  0  0  0  0  0  0  0  0  0
   37.4080   30.1370   39.7880 H   0  0  0  0  0  0  0  0  0  0  0  0
   36.0170   26.6310   42.1700 H   0  0  0  0  0  0  0  0  0  0  0  0
   37.7030   26.0450   42.1570 H   0  0  0  0  0  0  0  0  0  0  0  0
   37.8210   26.9330   44.3780 H   0  0  0  0  0  0  0  0  0  0  0  0
   36.2350   27.7160   44.1420 H   0  0  0  0  0  0  0  0  0  0  0  0
   37.1480   29.7660   43.6120 H   0  0  0  0  0  0  0  0  0  0  0  0
   38.6440   29.0380   44.2540 H   0  0  0  0  0  0  0  0  0  0  0  0
   38.4810   29.8060   41.6100 H   0  0  0  0  0  0  0  0  0  0  0  0
   32.7630   28.9860   36.7870 C   0  0  0  0  0  0  0  0  0  0  0  0
   32.3290   29.9760   35.9170 F   0  0  0  0  0  0  0  0  0  0  0  0
   32.3400   29.3990   38.0410 F   0  0  0  0  0  0  0  0  0  0  0  0
   32.2130   27.7940   36.4010 F   0  0  0  0  0  0  0  0  0  0  0  0
   39.8240   28.2360   42.0850 C   0  0  0  0  0  2  0  0  0  0  0  0
   40.7910   29.2740   42.6100 C   0  0  0  0  0  2  0  0  0  0  0  0
   40.2660   30.1830   42.9520 H   0  0  0  0  0  0  0  0  0  0  0  0
  1  9  1  0  0  0  0
  2  1  1  0  0  0  0
  2 15  1  0  0  0  0
  3  2  2  0  0  0  0
  4  5  2  0  0  0  0
  4  3  1  0  0  0  0
  5  6  1  0  0  0  0
  6  1  2  0  0  0  0
  7 10  1  0  0  0  0
  8  7  2  0  0  0  0
  9 17  1  0  0  0  0
  9  7  1  0  0  0  0
 10 14  1  0  0  0  0
 10 11  1  0  0  0  0
 11 12  1  0  0  0  0
 12 21  1  0  0  0  0
 12 20  1  0  0  0  0
 13 22  1  0  0  0  0
 13 12  1  0  0  0  0
 13 23  1  0  0  0  0
 14 24  1  6  0  0  0
 14 13  1  0  0  0  0
 16  5  1  0  0  0  0
 18 11  1  0  0  0  0
 19 11  1  0  0  0  0
 25  3  1  0  0  0  0
 25 27  1  0  0  0  0
 26 25  1  0  0  0  0
 28 25  1  0  0  0  0
 29 14  1  0  0  0  0
 29 30  1  0  0  0  0
 30 31  1  0  0  0  0
M  END
>  <minimizedAffinity>
-4.70921183

$$$$

 OpenBabel03252503303D

 31 32  0  0  1  0  0  0  0  0999 V2000
   36.7490   28.4600   36.2200 C   0  0  0  0  0  0  0  0  0  0  0  0
   36.8120   29.7120   35.5670 C   0  0  0  0  0  0  0  0  0  0  0  0
   36.2440   29.8050   34.2910 C   0  0  0  0  0  0  0  0  0  0  0  0
   35.6790   28.6850   33.7830 N   0  0  0  0  0  0  0  0  0  0  0  0
   35.6330   27.5100   34.4240 C   0  0  0  0  0  0  0  0  0  0  0  0
   36.1740   27.4090   35.6490 N   0  0  0  0  0  0  0  0  0  0  0  0
   36.4690   28.8590   38.5100 C   0  0  0  0  0  0  0  0  0  0  0  0
   35.4200   29.4500   38.1540 O   0  0  0  0  0  0  0  0  0  0  0  0
   37.3020   28.2750   37.5220 N   0  0  0  0  0  0  0  0  0  0  0  0
   36.7450   28.8210   39.9020 N   0  0  0  0  0  0  0  0  0  0  0  0
   36.0450   29.7110   40.8260 C   0  0  0  0  0  0  0  0  0  0  0  0
   37.0890   29.9460   41.8800 C   0  0  0  0  0  0  0  0  0  0  0  0
   38.2610   29.0480   41.5750 C   0  0  0  0  0  0  0  0  0  0  0  0
   37.6560   28.0140   40.6720 C   0  0  1  0  0  0  0  0  0  0  0  0
   37.2920   30.5290   36.0810 H   0  0  0  0  0  0  0  0  0  0  0  0
   35.1620   26.6540   33.9530 H   0  0  0  0  0  0  0  0  0  0  0  0
   38.1540   27.8200   37.8660 H   0  0  0  0  0  0  0  0  0  0  0  0
   35.7670   30.6680   40.3340 H   0  0  0  0  0  0  0  0  0  0  0  0
   35.1100   29.2530   41.2010 H   0  0  0  0  0  0  0  0  0  0  0  0
   36.6960   29.8090   42.9080 H   0  0  0  0  0  0  0  0  0  0  0  0
   37.4460   31.0010   41.8120 H   0  0  0  0  0  0  0  0  0  0  0  0
   39.1310   29.5710   41.1540 H   0  0  0  0  0  0  0  0  0  0  0  0
   38.5770   28.6030   42.5450 H   0  0  0  0  0  0  0  0  0  0  0  0
   38.4020   27.6010   39.9800 H   0  0  0  0  0  0  0  0  0  0  0  0
   36.3340   31.1180   33.6560 C   0  0  0  0  0  0  0  0  0  0  0  0
   36.9000   32.0130   34.5520 F   0  0  0  0  0  0  0  0  0  0  0  0
   35.0360   31.5690   33.4690 F   0  0  0  0  0  0  0  0  0  0  0  0
   37.0750   31.1220   32.5060 F   0  0  0  0  0  0  0  0  0  0  0  0
   37.0100   26.8750   41.4050 C   0  0  0  0  0  2  0  0  0  0  0  0
   37.9830   26.3720   42.4480 C   0  0  0  0  0  2  0  0  0  0  0  0
   38.8970   26.9900   42.4850 H   0  0  0  0  0  0  0  0  0  0  0  0
  1  9  1  0  0  0  0
  2 15  1  0  0  0  0
  2  1  2  0  0  0  0
  3  2  1  0  0  0  0
  4  3  2  0  0  0  0
  4  5  1  0  0  0  0
  5  6  2  0  0  0  0
  6  1  1  0  0  0  0
  7 10  1  0  0  0  0
  8  7  2  0  0  0  0
  9 17  1  0  0  0  0
  9  7  1  0  0  0  0
 10 14  1  0  0  0  0
 10 11  1  0  0  0  0
 11 19  1  0  0  0  0
 11 12  1  0  0  0  0
 12 20  1  0  0  0  0
 13 12  1  0  0  0  0
 13 23  1  0  0  0  0
 14 24  1  6  0  0  0
 14 29  1  0  0  0  0
 14 13  1  0  0  0  0
 16  5  1  0  0  0  0
 18 11  1  0  0  0  0
 21 12  1  0  0  0  0
 22 13  1  0  0  0  0
 25  3  1  0  0  0  0
 25 26  1  0  0  0  0
 27 25  1  0  0  0  0
 28 25  1  0  0  0  0
 29 30  1  0  0  0  0
 30 31  1  0  0  0  0
M  END
>  <minimizedAffinity>
-4.67797279

$$$$
