
 OpenBabel03252500373D

 40 42  0  0  1  0  0  0  0  0999 V2000
   38.2260   26.8100   41.7010 C   0  0  0  0  0  0  0  0  0  0  0  0
   37.9030   27.6430   41.0500 H   0  0  0  0  0  0  0  0  0  0  0  0
   39.3060   26.5480   41.5190 H   0  0  0  0  0  0  0  0  0  0  0  0
   37.3910   25.6770   41.5260 N   0  0  0  0  0  0  0  0  0  0  0  0
   37.7800   24.4710   42.1170 C   0  0  0  0  0  0  0  0  0  0  0  0
   38.6440   23.6300   41.1570 C   0  0  0  0  0  0  0  0  0  0  0  0
   37.7320   23.1930   40.0420 C   0  0  0  0  0  0  0  0  0  0  0  0
   37.2510   24.4640   39.3690 C   0  0  0  0  0  0  0  0  0  0  0  0
   36.7140   25.5020   40.3130 C   0  0  2  0  0  0  0  0  0  0  0  0
   38.1500   24.4650   43.1420 H   0  0  0  0  0  0  0  0  0  0  0  0
   36.8340   23.8490   42.1910 H   0  0  0  0  0  0  0  0  0  0  0  0
   39.3800   24.3300   40.7010 H   0  0  0  0  0  0  0  0  0  0  0  0
   39.1080   22.7790   41.6920 H   0  0  0  0  0  0  0  0  0  0  0  0
   38.2060   22.5830   39.2750 H   0  0  0  0  0  0  0  0  0  0  0  0
   36.8360   22.7240   40.5060 H   0  0  0  0  0  0  0  0  0  0  0  0
   36.4170   24.1530   38.7080 H   0  0  0  0  0  0  0  0  0  0  0  0
   38.0270   24.8850   38.7190 H   0  0  0  0  0  0  0  0  0  0  0  0
   35.6570   25.2200   40.5470 H   0  0  0  0  0  0  0  0  0  0  0  0
   36.6120   26.8000   39.5250 C   0  0  0  0  0  0  0  0  0  0  0  0
   37.5390   27.4100   39.6530 H   0  0  0  0  0  0  0  0  0  0  0  0
   36.4950   26.5880   38.4430 H   0  0  0  0  0  0  0  0  0  0  0  0
   35.7490   27.4010   39.8620 H   0  0  0  0  0  0  0  0  0  0  0  0
   37.7050   28.6890   43.4550 C   0  0  1  0  0  0  0  0  0  0  0  0
   36.8140   27.6370   43.6790 C   0  0  0  0  0  0  0  0  0  0  0  0
   38.1140   27.2250   43.1210 C   0  0  1  0  0  0  0  0  0  0  0  0
   38.2740   29.1540   44.3080 H   0  0  0  0  0  0  0  0  0  0  0  0
   35.9430   27.4500   42.9920 H   0  0  0  0  0  0  0  0  0  0  0  0
   36.5190   27.3680   44.7350 H   0  0  0  0  0  0  0  0  0  0  0  0
   38.9730   26.9240   43.7400 H   0  0  0  0  0  0  0  0  0  0  0  0
   36.4370   29.8440   41.6370 C   0  0  0  0  0  0  0  0  0  0  0  0
   37.6870   29.6470   42.3080 C   0  0  0  0  0  0  0  0  0  0  0  0
   38.7920   30.3180   41.8890 C   0  0  0  0  0  0  0  0  0  0  0  0
   38.6590   31.1700   40.8260 N   0  0  0  0  0  0  0  0  0  0  0  0
   37.4580   31.3480   40.1950 C   0  0  0  0  0  0  0  0  0  0  0  0
   36.3170   30.6870   40.5880 N   0  0  0  0  0  0  0  0  0  0  0  0
   35.5500   29.3170   41.9580 H   0  0  0  0  0  0  0  0  0  0  0  0
   39.7440   30.1830   42.3810 H   0  0  0  0  0  0  0  0  0  0  0  0
   37.3160   32.2620   39.0550 C   0  0  0  0  0  2  0  0  0  0  0  0
   37.3310   33.6760   39.5460 C   0  0  0  0  0  2  0  0  0  0  0  0
   36.5020   33.8160   40.2440 H   0  0  0  0  0  0  0  0  0  0  0  0
  1 25  1  0  0  0  0
  2  1  1  0  0  0  0
  3  1  1  0  0  0  0
  4  1  1  0  0  0  0
  4  5  1  0  0  0  0
  5 11  1  0  0  0  0
  5 10  1  0  0  0  0
  6 13  1  0  0  0  0
  6  5  1  0  0  0  0
  7 15  1  0  0  0  0
  7  6  1  0  0  0  0
  8  7  1  0  0  0  0
  8  9  1  0  0  0  0
  9 18  1  1  0  0  0
  9  4  1  0  0  0  0
 12  6  1  0  0  0  0
 14  7  1  0  0  0  0
 16  8  1  0  0  0  0
 17  8  1  0  0  0  0
 19 20  1  0  0  0  0
 19 22  1  0  0  0  0
 19  9  1  0  0  0  0
 21 19  1  0  0  0  0
 23 24  1  0  0  0  0
 23 26  1  1  0  0  0
 24 28  1  0  0  0  0
 25 23  1  0  0  0  0
 25 24  1  0  0  0  0
 25 29  1  1  0  0  0
 27 24  1  0  0  0  0
 30 36  1  0  0  0  0
 30 31  1  0  0  0  0
 31 23  1  0  0  0  0
 32 31  2  0  0  0  0
 32 37  1  0  0  0  0
 33 32  1  0  0  0  0
 34 35  1  0  0  0  0
 34 33  2  0  0  0  0
 35 30  2  0  0  0  0
 38 39  1  0  0  0  0
 38 34  1  0  0  0  0
 39 40  1  0  0  0  0
M  END
>  <minimizedAffinity>
-5.17960262

$$$$

 OpenBabel03252500373D

 40 42  0  0  1  0  0  0  0  0999 V2000
   38.2540   30.0880   40.3580 C   0  0  0  0  0  0  0  0  0  0  0  0
   39.0580   30.4190   39.6760 H   0  0  0  0  0  0  0  0  0  0  0  0
   38.2500   28.9670   40.4660 H   0  0  0  0  0  0  0  0  0  0  0  0
   36.9910   30.5610   39.9190 N   0  0  0  0  0  0  0  0  0  0  0  0
   35.8860   30.3680   40.7530 C   0  0  0  0  0  0  0  0  0  0  0  0
   35.1780   29.0340   40.4440 C   0  0  0  0  0  0  0  0  0  0  0  0
   34.5600   29.1910   39.0810 C   0  0  0  0  0  0  0  0  0  0  0  0
   35.7110   29.4300   38.1220 C   0  0  0  0  0  0  0  0  0  0  0  0
   36.6690   30.5030   38.5570 C   0  0  2  0  0  0  0  0  0  0  0  0
   35.9710   30.5690   41.8210 H   0  0  0  0  0  0  0  0  0  0  0  0
   35.1140   31.1290   40.4180 H   0  0  0  0  0  0  0  0  0  0  0  0
   35.9790   28.2690   40.3360 H   0  0  0  0  0  0  0  0  0  0  0  0
   34.4330   28.7960   41.2280 H   0  0  0  0  0  0  0  0  0  0  0  0
   34.0180   28.3190   38.7190 H   0  0  0  0  0  0  0  0  0  0  0  0
   33.9590   30.1270   39.0900 H   0  0  0  0  0  0  0  0  0  0  0  0
   35.2450   29.7660   37.1740 H   0  0  0  0  0  0  0  0  0  0  0  0
   36.2390   28.4960   37.8980 H   0  0  0  0  0  0  0  0  0  0  0  0
   36.2180   31.4850   38.2690 H   0  0  0  0  0  0  0  0  0  0  0  0
   37.9080   30.3650   37.6850 C   0  0  0  0  0  0  0  0  0  0  0  0
   38.6700   29.7190   38.1850 H   0  0  0  0  0  0  0  0  0  0  0  0
   37.6490   29.8900   36.7160 H   0  0  0  0  0  0  0  0  0  0  0  0
   38.3630   31.3500   37.4830 H   0  0  0  0  0  0  0  0  0  0  0  0
   38.8140   29.6930   42.8890 C   0  0  1  0  0  0  0  0  0  0  0  0
   39.8080   30.5170   42.3560 C   0  0  0  0  0  0  0  0  0  0  0  0
   38.4920   30.6540   41.7080 C   0  0  1  0  0  0  0  0  0  0  0  0
   38.3090   29.9550   43.8600 H   0  0  0  0  0  0  0  0  0  0  0  0
   40.6090   30.1070   41.6790 H   0  0  0  0  0  0  0  0  0  0  0  0
   40.2420   31.3500   42.9820 H   0  0  0  0  0  0  0  0  0  0  0  0
   37.7360   31.3910   42.0180 H   0  0  0  0  0  0  0  0  0  0  0  0
   37.3320   27.6810   42.8960 C   0  0  0  0  0  0  0  0  0  0  0  0
   38.6240   28.2340   42.6240 C   0  0  0  0  0  0  0  0  0  0  0  0
   39.6150   27.4360   42.1470 C   0  0  0  0  0  0  0  0  0  0  0  0
   39.3300   26.1140   41.9440 N   0  0  0  0  0  0  0  0  0  0  0  0
   38.0890   25.5980   42.2080 C   0  0  0  0  0  0  0  0  0  0  0  0
   37.0600   26.3730   42.6920 N   0  0  0  0  0  0  0  0  0  0  0  0
   36.5340   28.3030   43.2750 H   0  0  0  0  0  0  0  0  0  0  0  0
   40.5970   27.8340   41.9360 H   0  0  0  0  0  0  0  0  0  0  0  0
   37.7830   24.1790   41.9890 C   0  0  0  0  0  2  0  0  0  0  0  0
   36.6010   24.0600   41.0800 C   0  0  0  0  0  2  0  0  0  0  0  0
   35.7470   24.5600   41.5430 H   0  0  0  0  0  0  0  0  0  0  0  0
  1  3  1  0  0  0  0
  1 25  1  0  0  0  0
  2  1  1  0  0  0  0
  4  1  1  0  0  0  0
  4  5  1  0  0  0  0
  5 10  1  0  0  0  0
  6  5  1  0  0  0  0
  6 13  1  0  0  0  0
  7 15  1  0  0  0  0
  7  6  1  0  0  0  0
  8  9  1  0  0  0  0
  8  7  1  0  0  0  0
  9 18  1  6  0  0  0
  9  4  1  0  0  0  0
 11  5  1  0  0  0  0
 12  6  1  0  0  0  0
 14  7  1  0  0  0  0
 16  8  1  0  0  0  0
 17  8  1  0  0  0  0
 19 20  1  0  0  0  0
 19  9  1  0  0  0  0
 21 19  1  0  0  0  0
 22 19  1  0  0  0  0
 23 26  1  1  0  0  0
 24 23  1  0  0  0  0
 24 28  1  0  0  0  0
 25 29  1  1  0  0  0
 25 24  1  0  0  0  0
 25 23  1  0  0  0  0
 27 24  1  0  0  0  0
 30 36  1  0  0  0  0
 31 23  1  0  0  0  0
 31 30  2  0  0  0  0
 32 31  1  0  0  0  0
 33 32  2  0  0  0  0
 33 34  1  0  0  0  0
 34 35  2  0  0  0  0
 35 30  1  0  0  0  0
 37 32  1  0  0  0  0
 38 34  1  0  0  0  0
 39 40  1  0  0  0  0
 39 38  1  0  0  0  0
M  END
>  <minimizedAffinity>
-5.0347271

$$$$

 OpenBabel03252500373D

 40 42  0  0  1  0  0  0  0  0999 V2000
   36.9060   27.9560   40.9500 C   0  0  0  0  0  0  0  0  0  0  0  0
   36.6750   27.1570   40.2230 H   0  0  0  0  0  0  0  0  0  0  0  0
   37.7830   28.5730   40.6090 H   0  0  0  0  0  0  0  0  0  0  0  0
   37.1340   27.4160   42.2420 N   0  0  0  0  0  0  0  0  0  0  0  0
   37.7240   28.2380   43.2070 C   0  0  0  0  0  0  0  0  0  0  0  0
   39.2600   28.1080   43.1900 C   0  0  0  0  0  0  0  0  0  0  0  0
   39.5710   26.7190   43.6790 C   0  0  0  0  0  0  0  0  0  0  0  0
   38.9340   25.7700   42.6820 C   0  0  0  0  0  0  0  0  0  0  0  0
   37.4950   26.0700   42.3710 C   0  0  2  0  0  0  0  0  0  0  0  0
   37.3830   29.2670   43.3250 H   0  0  0  0  0  0  0  0  0  0  0  0
   37.4580   27.7730   44.2070 H   0  0  0  0  0  0  0  0  0  0  0  0
   39.5670   28.1370   42.1210 H   0  0  0  0  0  0  0  0  0  0  0  0
   39.7260   28.8980   43.8120 H   0  0  0  0  0  0  0  0  0  0  0  0
   40.6300   26.4750   43.7220 H   0  0  0  0  0  0  0  0  0  0  0  0
   39.0310   26.5730   44.6420 H   0  0  0  0  0  0  0  0  0  0  0  0
   38.9690   24.7690   43.1600 H   0  0  0  0  0  0  0  0  0  0  0  0
   39.5310   25.7010   41.7650 H   0  0  0  0  0  0  0  0  0  0  0  0
   36.8800   25.6270   43.1940 H   0  0  0  0  0  0  0  0  0  0  0  0
   37.1370   25.2630   41.1320 C   0  0  0  0  0  0  0  0  0  0  0  0
   37.2870   25.8750   40.2090 H   0  0  0  0  0  0  0  0  0  0  0  0
   37.7870   24.3680   41.0500 H   0  0  0  0  0  0  0  0  0  0  0  0
   36.0850   24.9320   41.1640 H   0  0  0  0  0  0  0  0  0  0  0  0
   35.8240   30.2780   40.3900 C   0  0  1  0  0  0  0  0  0  0  0  0
   35.0040   29.2840   39.8490 C   0  0  0  0  0  0  0  0  0  0  0  0
   35.7440   28.8740   41.0550 C   0  0  1  0  0  0  0  0  0  0  0  0
   35.3860   31.1150   41.0030 H   0  0  0  0  0  0  0  0  0  0  0  0
   35.2990   28.7230   38.9200 H   0  0  0  0  0  0  0  0  0  0  0  0
   33.8820   29.4120   39.8670 H   0  0  0  0  0  0  0  0  0  0  0  0
   35.3420   28.9630   42.0760 H   0  0  0  0  0  0  0  0  0  0  0  0
   38.0730   31.2690   40.8430 C   0  0  0  0  0  0  0  0  0  0  0  0
   37.1680   30.6980   39.8910 C   0  0  0  0  0  0  0  0  0  0  0  0
   37.5500   30.5610   38.5930 C   0  0  0  0  0  0  0  0  0  0  0  0
   38.8050   30.9810   38.2470 N   0  0  0  0  0  0  0  0  0  0  0  0
   39.6590   31.5260   39.1680 C   0  0  0  0  0  0  0  0  0  0  0  0
   39.3110   31.6810   40.4900 N   0  0  0  0  0  0  0  0  0  0  0  0
   37.7840   31.3850   41.8770 H   0  0  0  0  0  0  0  0  0  0  0  0
   36.8820   30.1330   37.8600 H   0  0  0  0  0  0  0  0  0  0  0  0
   41.0060   31.9760   38.7960 C   0  0  0  0  0  2  0  0  0  0  0  0
   41.1120   32.0470   37.3060 C   0  0  0  0  0  2  0  0  0  0  0  0
   40.9210   31.0550   36.8900 H   0  0  0  0  0  0  0  0  0  0  0  0
  1 25  1  0  0  0  0
  1  4  1  0  0  0  0
  2  1  1  0  0  0  0
  3  1  1  0  0  0  0
  4  9  1  0  0  0  0
  4  5  1  0  0  0  0
  5 10  1  0  0  0  0
  5 11  1  0  0  0  0
  6  5  1  0  0  0  0
  6  7  1  0  0  0  0
  6 13  1  0  0  0  0
  7 14  1  0  0  0  0
  7 15  1  0  0  0  0
  8 16  1  0  0  0  0
  8  7  1  0  0  0  0
  9  8  1  0  0  0  0
  9 18  1  1  0  0  0
 12  6  1  0  0  0  0
 17  8  1  0  0  0  0
 19 22  1  0  0  0  0
 19  9  1  0  0  0  0
 20 19  1  0  0  0  0
 21 19  1  0  0  0  0
 23 26  1  1  0  0  0
 23 25  1  0  0  0  0
 24 28  1  0  0  0  0
 24 23  1  0  0  0  0
 24 25  1  0  0  0  0
 25 29  1  1  0  0  0
 27 24  1  0  0  0  0
 30 36  1  0  0  0  0
 31 23  1  0  0  0  0
 31 30  2  0  0  0  0
 32 31  1  0  0  0  0
 33 32  2  0  0  0  0
 33 34  1  0  0  0  0
 34 35  2  0  0  0  0
 35 30  1  0  0  0  0
 37 32  1  0  0  0  0
 38 34  1  0  0  0  0
 39 38  1  0  0  0  0
 40 39  1  0  0  0  0
M  END
>  <minimizedAffinity>
-4.87705612

$$$$

 OpenBabel03252500373D

 40 42  0  0  1  0  0  0  0  0999 V2000
   38.1190   30.4190   41.3680 C   0  0  0  0  0  0  0  0  0  0  0  0
   38.9860   30.6750   40.7330 H   0  0  0  0  0  0  0  0  0  0  0  0
   38.2350   30.8460   42.4030 H   0  0  0  0  0  0  0  0  0  0  0  0
   37.9230   29.0150   41.4160 N   0  0  0  0  0  0  0  0  0  0  0  0
   36.9870   28.5080   42.3230 C   0  0  0  0  0  0  0  0  0  0  0  0
   37.6440   28.1790   43.6780 C   0  0  0  0  0  0  0  0  0  0  0  0
   38.5570   27.0080   43.4310 C   0  0  0  0  0  0  0  0  0  0  0  0
   39.5910   27.4850   42.4290 C   0  0  0  0  0  0  0  0  0  0  0  0
   39.0140   28.1610   41.2160 C   0  0  2  0  0  0  0  0  0  0  0  0
   36.0150   28.9900   42.4250 H   0  0  0  0  0  0  0  0  0  0  0  0
   36.7150   27.4780   41.9350 H   0  0  0  0  0  0  0  0  0  0  0  0
   38.3020   29.0400   43.9270 H   0  0  0  0  0  0  0  0  0  0  0  0
   36.8720   27.9680   44.4450 H   0  0  0  0  0  0  0  0  0  0  0  0
   39.0990   26.6570   44.3070 H   0  0  0  0  0  0  0  0  0  0  0  0
   37.9620   26.2200   42.9180 H   0  0  0  0  0  0  0  0  0  0  0  0
   40.1140   26.5710   42.0820 H   0  0  0  0  0  0  0  0  0  0  0  0
   40.3470   28.1160   42.9110 H   0  0  0  0  0  0  0  0  0  0  0  0
   38.6940   27.3540   40.5100 H   0  0  0  0  0  0  0  0  0  0  0  0
   40.1680   28.8640   40.5170 C   0  0  0  0  0  0  0  0  0  0  0  0
   40.2460   29.9250   40.8600 H   0  0  0  0  0  0  0  0  0  0  0  0
   41.1290   28.3630   40.7530 H   0  0  0  0  0  0  0  0  0  0  0  0
   40.0300   28.8610   39.4220 H   0  0  0  0  0  0  0  0  0  0  0  0
   37.0220   32.0440   39.6260 C   0  0  1  0  0  0  0  0  0  0  0  0
   36.5280   30.7600   39.3820 C   0  0  0  0  0  0  0  0  0  0  0  0
   36.8910   31.0160   40.7870 C   0  0  1  0  0  0  0  0  0  0  0  0
   36.3250   32.9250   39.6970 H   0  0  0  0  0  0  0  0  0  0  0  0
   37.1600   29.9730   38.8840 H   0  0  0  0  0  0  0  0  0  0  0  0
   35.4510   30.6230   39.0720 H   0  0  0  0  0  0  0  0  0  0  0  0
   36.1800   31.3880   41.5410 H   0  0  0  0  0  0  0  0  0  0  0  0
   38.8860   33.6310   40.1290 C   0  0  0  0  0  0  0  0  0  0  0  0
   38.4020   32.5410   39.3370 C   0  0  0  0  0  0  0  0  0  0  0  0
   39.1910   32.0060   38.3680 C   0  0  0  0  0  0  0  0  0  0  0  0
   40.4360   32.5420   38.1890 N   0  0  0  0  0  0  0  0  0  0  0  0
   40.8860   33.5850   38.9530 C   0  0  0  0  0  0  0  0  0  0  0  0
   40.1180   34.1540   39.9430 N   0  0  0  0  0  0  0  0  0  0  0  0
   38.2700   34.0680   40.9020 H   0  0  0  0  0  0  0  0  0  0  0  0
   38.8440   31.1830   37.7610 H   0  0  0  0  0  0  0  0  0  0  0  0
   42.2230   34.1590   38.7610 C   0  0  0  0  0  2  0  0  0  0  0  0
   42.6530   33.9550   37.3420 C   0  0  0  0  0  2  0  0  0  0  0  0
   42.6710   32.8830   37.1290 H   0  0  0  0  0  0  0  0  0  0  0  0
  1  4  1  0  0  0  0
  1  3  1  0  0  0  0
  2  1  1  0  0  0  0
  4  5  1  0  0  0  0
  5 10  1  0  0  0  0
  5  6  1  0  0  0  0
  6 12  1  0  0  0  0
  6 13  1  0  0  0  0
  7  6  1  0  0  0  0
  7 14  1  0  0  0  0
  8 17  1  0  0  0  0
  8  7  1  0  0  0  0
  9 18  1  6  0  0  0
  9  4  1  0  0  0  0
  9  8  1  0  0  0  0
 11  5  1  0  0  0  0
 15  7  1  0  0  0  0
 16  8  1  0  0  0  0
 19 21  1  0  0  0  0
 19 20  1  0  0  0  0
 19  9  1  0  0  0  0
 22 19  1  0  0  0  0
 23 26  1  1  0  0  0
 23 25  1  0  0  0  0
 24 23  1  0  0  0  0
 24 25  1  0  0  0  0
 25  1  1  0  0  0  0
 25 29  1  1  0  0  0
 27 24  1  0  0  0  0
 28 24  1  0  0  0  0
 30 36  1  0  0  0  0
 31 23  1  0  0  0  0
 31 30  2  0  0  0  0
 32 31  1  0  0  0  0
 33 32  2  0  0  0  0
 33 34  1  0  0  0  0
 34 35  2  0  0  0  0
 35 30  1  0  0  0  0
 37 32  1  0  0  0  0
 38 34  1  0  0  0  0
 39 38  1  0  0  0  0
 40 39  1  0  0  0  0
M  END
>  <minimizedAffinity>
-4.86413336

$$$$

 OpenBabel03252500373D

 40 42  0  0  1  0  0  0  0  0999 V2000
   40.3840   30.6220   40.2820 C   0  0  0  0  0  0  0  0  0  0  0  0
   41.4190   30.4060   39.9590 H   0  0  0  0  0  0  0  0  0  0  0  0
   39.8310   29.6750   40.5320 H   0  0  0  0  0  0  0  0  0  0  0  0
   39.6920   31.3690   39.2940 N   0  0  0  0  0  0  0  0  0  0  0  0
   39.5540   32.7480   39.4840 C   0  0  0  0  0  0  0  0  0  0  0  0
   38.2550   33.0810   40.2430 C   0  0  0  0  0  0  0  0  0  0  0  0
   37.1230   32.7450   39.3100 C   0  0  0  0  0  0  0  0  0  0  0  0
   37.2280   31.2550   39.0410 C   0  0  0  0  0  0  0  0  0  0  0  0
   38.5990   30.7930   38.6350 C   0  0  2  0  0  0  0  0  0  0  0  0
   40.4080   33.3370   39.8190 H   0  0  0  0  0  0  0  0  0  0  0  0
   39.3440   33.1770   38.4550 H   0  0  0  0  0  0  0  0  0  0  0  0
   38.1880   32.3590   41.0870 H   0  0  0  0  0  0  0  0  0  0  0  0
   38.2490   34.1420   40.5610 H   0  0  0  0  0  0  0  0  0  0  0  0
   36.1280   32.9280   39.7110 H   0  0  0  0  0  0  0  0  0  0  0  0
   37.3230   33.2540   38.3410 H   0  0  0  0  0  0  0  0  0  0  0  0
   36.5450   31.0570   38.1900 H   0  0  0  0  0  0  0  0  0  0  0  0
   36.8500   30.6730   39.8890 H   0  0  0  0  0  0  0  0  0  0  0  0
   38.7080   31.0040   37.5420 H   0  0  0  0  0  0  0  0  0  0  0  0
   38.6020   29.2760   38.7480 C   0  0  0  0  0  0  0  0  0  0  0  0
   38.9780   28.9580   39.7510 H   0  0  0  0  0  0  0  0  0  0  0  0
   37.5730   28.8770   38.6330 H   0  0  0  0  0  0  0  0  0  0  0  0
   39.2440   28.8210   37.9740 H   0  0  0  0  0  0  0  0  0  0  0  0
   39.7960   30.8780   42.8240 C   0  0  1  0  0  0  0  0  0  0  0  0
   41.1810   31.0000   42.6930 C   0  0  0  0  0  0  0  0  0  0  0  0
   40.4160   31.4460   41.5150 C   0  0  1  0  0  0  0  0  0  0  0  0
   39.2070   31.6240   43.4280 H   0  0  0  0  0  0  0  0  0  0  0  0
   41.8330   30.1030   42.5000 H   0  0  0  0  0  0  0  0  0  0  0  0
   41.7430   31.7360   43.3380 H   0  0  0  0  0  0  0  0  0  0  0  0
   40.0870   32.4850   41.3620 H   0  0  0  0  0  0  0  0  0  0  0  0
   39.6620   28.3850   42.9230 C   0  0  0  0  0  0  0  0  0  0  0  0
   38.9910   29.6270   42.6850 C   0  0  0  0  0  0  0  0  0  0  0  0
   37.6750   29.6300   42.3450 C   0  0  0  0  0  0  0  0  0  0  0  0
   37.0370   28.4240   42.2440 N   0  0  0  0  0  0  0  0  0  0  0  0
   37.6920   27.2440   42.4740 C   0  0  0  0  0  0  0  0  0  0  0  0
   39.0230   27.1990   42.8200 N   0  0  0  0  0  0  0  0  0  0  0  0
   40.7080   28.3660   43.1930 H   0  0  0  0  0  0  0  0  0  0  0  0
   37.1500   30.5560   42.1610 H   0  0  0  0  0  0  0  0  0  0  0  0
   37.0070   25.9500   42.3660 C   0  0  0  0  0  2  0  0  0  0  0  0
   37.9040   24.9680   41.6810 C   0  0  0  0  0  2  0  0  0  0  0  0
   38.1480   25.3460   40.6860 H   0  0  0  0  0  0  0  0  0  0  0  0
  1  3  1  0  0  0  0
  1 25  1  0  0  0  0
  2  1  1  0  0  0  0
  4  5  1  0  0  0  0
  4  1  1  0  0  0  0
  5 10  1  0  0  0  0
  5  6  1  0  0  0  0
  6 13  1  0  0  0  0
  6 12  1  0  0  0  0
  7 14  1  0  0  0  0
  7  6  1  0  0  0  0
  8  7  1  0  0  0  0
  8 17  1  0  0  0  0
  9 18  1  6  0  0  0
  9 19  1  0  0  0  0
  9  8  1  0  0  0  0
  9  4  1  0  0  0  0
 11  5  1  0  0  0  0
 15  7  1  0  0  0  0
 16  8  1  0  0  0  0
 19 20  1  0  0  0  0
 21 19  1  0  0  0  0
 22 19  1  0  0  0  0
 23 26  1  1  0  0  0
 24 23  1  0  0  0  0
 24 28  1  0  0  0  0
 25 29  1  6  0  0  0
 25 24  1  0  0  0  0
 25 23  1  0  0  0  0
 27 24  1  0  0  0  0
 30 36  1  0  0  0  0
 31 23  1  0  0  0  0
 31 30  2  0  0  0  0
 32 31  1  0  0  0  0
 33 32  2  0  0  0  0
 33 34  1  0  0  0  0
 34 35  2  0  0  0  0
 35 30  1  0  0  0  0
 37 32  1  0  0  0  0
 38 34  1  0  0  0  0
 39 38  1  0  0  0  0
 40 39  1  0  0  0  0
M  END
>  <minimizedAffinity>
-4.79757929

$$$$

 OpenBabel03252500373D

 40 42  0  0  1  0  0  0  0  0999 V2000
   38.1550   26.9290   41.6330 C   0  0  0  0  0  0  0  0  0  0  0  0
   37.1340   26.6400   41.3240 H   0  0  0  0  0  0  0  0  0  0  0  0
   38.5460   27.7740   41.0000 H   0  0  0  0  0  0  0  0  0  0  0  0
   39.0320   25.8150   41.5920 N   0  0  0  0  0  0  0  0  0  0  0  0
   40.3550   26.0280   41.1920 C   0  0  0  0  0  0  0  0  0  0  0  0
   40.5140   25.8510   39.6690 C   0  0  0  0  0  0  0  0  0  0  0  0
   40.2980   24.3890   39.3890 C   0  0  0  0  0  0  0  0  0  0  0  0
   38.8780   24.0810   39.8260 C   0  0  0  0  0  0  0  0  0  0  0  0
   38.5360   24.5630   41.2080 C   0  0  2  0  0  0  0  0  0  0  0  0
   40.9080   26.8810   41.5840 H   0  0  0  0  0  0  0  0  0  0  0  0
   40.9410   25.1450   41.5960 H   0  0  0  0  0  0  0  0  0  0  0  0
   39.6600   26.3870   39.1980 H   0  0  0  0  0  0  0  0  0  0  0  0
   41.5070   26.2110   39.3360 H   0  0  0  0  0  0  0  0  0  0  0  0
   40.3790   24.1050   38.3420 H   0  0  0  0  0  0  0  0  0  0  0  0
   40.9670   23.8140   40.0680 H   0  0  0  0  0  0  0  0  0  0  0  0
   38.8010   22.9750   39.8310 H   0  0  0  0  0  0  0  0  0  0  0  0
   38.1510   24.4440   39.0900 H   0  0  0  0  0  0  0  0  0  0  0  0
   38.9280   23.8030   41.9290 H   0  0  0  0  0  0  0  0  0  0  0  0
   37.0220   24.4860   41.3360 C   0  0  0  0  0  0  0  0  0  0  0  0
   36.5550   25.4640   41.0650 H   0  0  0  0  0  0  0  0  0  0  0  0
   36.6130   23.7170   40.6500 H   0  0  0  0  0  0  0  0  0  0  0  0
   36.7230   24.2310   42.3680 H   0  0  0  0  0  0  0  0  0  0  0  0
   37.6340   28.8620   43.3270 C   0  0  1  0  0  0  0  0  0  0  0  0
   36.8460   27.7630   43.6780 C   0  0  0  0  0  0  0  0  0  0  0  0
   38.1250   27.4150   43.0350 C   0  0  1  0  0  0  0  0  0  0  0  0
   38.2310   29.4140   44.1050 H   0  0  0  0  0  0  0  0  0  0  0  0
   35.9400   27.4750   43.0770 H   0  0  0  0  0  0  0  0  0  0  0  0
   36.6580   27.5330   44.7670 H   0  0  0  0  0  0  0  0  0  0  0  0
   39.0510   27.2120   43.5930 H   0  0  0  0  0  0  0  0  0  0  0  0
   38.5690   30.5500   41.7390 C   0  0  0  0  0  0  0  0  0  0  0  0
   37.4510   29.7500   42.1390 C   0  0  0  0  0  0  0  0  0  0  0  0
   36.2850   29.8220   41.4440 C   0  0  0  0  0  0  0  0  0  0  0  0
   36.2290   30.6720   40.3730 N   0  0  0  0  0  0  0  0  0  0  0  0
   37.3060   31.4310   40.0020 C   0  0  0  0  0  0  0  0  0  0  0  0
   38.5040   31.3860   40.6790 N   0  0  0  0  0  0  0  0  0  0  0  0
   39.5020   30.5040   42.2810 H   0  0  0  0  0  0  0  0  0  0  0  0
   35.4300   29.2270   41.7300 H   0  0  0  0  0  0  0  0  0  0  0  0
   37.2470   32.3420   38.8520 C   0  0  0  0  0  2  0  0  0  0  0  0
   37.6760   31.6130   37.6180 C   0  0  0  0  0  2  0  0  0  0  0  0
   38.6980   31.2530   37.7580 H   0  0  0  0  0  0  0  0  0  0  0  0
  1 25  1  0  0  0  0
  2  1  1  0  0  0  0
  3  1  1  0  0  0  0
  4  1  1  0  0  0  0
  5 10  1  0  0  0  0
  5  4  1  0  0  0  0
  5 11  1  0  0  0  0
  6  5  1  0  0  0  0
  7  6  1  0  0  0  0
  7  8  1  0  0  0  0
  7 15  1  0  0  0  0
  8 16  1  0  0  0  0
  8  9  1  0  0  0  0
  9 19  1  0  0  0  0
  9  4  1  0  0  0  0
  9 18  1  1  0  0  0
 12  6  1  0  0  0  0
 13  6  1  0  0  0  0
 14  7  1  0  0  0  0
 17  8  1  0  0  0  0
 19 22  1  0  0  0  0
 20 19  1  0  0  0  0
 21 19  1  0  0  0  0
 23 24  1  0  0  0  0
 23 26  1  1  0  0  0
 24 28  1  0  0  0  0
 25 23  1  0  0  0  0
 25 29  1  1  0  0  0
 25 24  1  0  0  0  0
 27 24  1  0  0  0  0
 30 31  1  0  0  0  0
 30 36  1  0  0  0  0
 31 23  1  0  0  0  0
 32 37  1  0  0  0  0
 32 31  2  0  0  0  0
 33 32  1  0  0  0  0
 34 33  2  0  0  0  0
 34 35  1  0  0  0  0
 35 30  2  0  0  0  0
 38 34  1  0  0  0  0
 39 40  1  0  0  0  0
 39 38  1  0  0  0  0
M  END
>  <minimizedAffinity>
-4.7834034

$$$$

 OpenBabel03252500373D

 40 42  0  0  1  0  0  0  0  0999 V2000
   37.7230   27.2430   39.9330 C   0  0  0  0  0  0  0  0  0  0  0  0
   38.4330   26.9380   39.1430 H   0  0  0  0  0  0  0  0  0  0  0  0
   37.8080   28.3440   40.1510 H   0  0  0  0  0  0  0  0  0  0  0  0
   37.9160   26.4760   41.1110 N   0  0  0  0  0  0  0  0  0  0  0  0
   37.1890   26.8250   42.2540 C   0  0  0  0  0  0  0  0  0  0  0  0
   37.9640   27.8340   43.1230 C   0  0  0  0  0  0  0  0  0  0  0  0
   39.1490   27.0900   43.6790 C   0  0  0  0  0  0  0  0  0  0  0  0
   39.9740   26.6590   42.4810 C   0  0  0  0  0  0  0  0  0  0  0  0
   39.1880   25.9690   41.4020 C   0  0  2  0  0  0  0  0  0  0  0  0
   36.1280   27.0580   42.1700 H   0  0  0  0  0  0  0  0  0  0  0  0
   37.1890   25.8980   42.9080 H   0  0  0  0  0  0  0  0  0  0  0  0
   38.3750   28.5990   42.4280 H   0  0  0  0  0  0  0  0  0  0  0  0
   37.3100   28.2520   43.9130 H   0  0  0  0  0  0  0  0  0  0  0  0
   39.8000   27.6790   44.3210 H   0  0  0  0  0  0  0  0  0  0  0  0
   38.7680   26.1570   44.1510 H   0  0  0  0  0  0  0  0  0  0  0  0
   40.7100   25.9280   42.8740 H   0  0  0  0  0  0  0  0  0  0  0  0
   40.5500   27.4980   42.0750 H   0  0  0  0  0  0  0  0  0  0  0  0
   39.0690   24.9010   41.7110 H   0  0  0  0  0  0  0  0  0  0  0  0
   40.0800   25.9270   40.1690 C   0  0  0  0  0  0  0  0  0  0  0  0
   39.8830   26.8090   39.5130 H   0  0  0  0  0  0  0  0  0  0  0  0
   41.1490   25.9590   40.4630 H   0  0  0  0  0  0  0  0  0  0  0  0
   39.9030   25.0090   39.5830 H   0  0  0  0  0  0  0  0  0  0  0  0
   35.4560   28.2030   39.0310 C   0  0  1  0  0  0  0  0  0  0  0  0
   35.9460   27.3030   38.0810 C   0  0  0  0  0  0  0  0  0  0  0  0
   36.3360   26.9970   39.4690 C   0  0  1  0  0  0  0  0  0  0  0  0
   34.3840   28.1530   39.3720 H   0  0  0  0  0  0  0  0  0  0  0  0
   36.8120   27.5690   37.4130 H   0  0  0  0  0  0  0  0  0  0  0  0
   35.2300   26.6390   37.5150 H   0  0  0  0  0  0  0  0  0  0  0  0
   35.7600   26.3310   40.1290 H   0  0  0  0  0  0  0  0  0  0  0  0
   36.6190   30.2780   38.2650 C   0  0  0  0  0  0  0  0  0  0  0  0
   35.9980   29.5610   39.3380 C   0  0  0  0  0  0  0  0  0  0  0  0
   35.9230   30.1240   40.5730 C   0  0  0  0  0  0  0  0  0  0  0  0
   36.4550   31.3730   40.7400 N   0  0  0  0  0  0  0  0  0  0  0  0
   37.0470   32.0460   39.7060 C   0  0  0  0  0  0  0  0  0  0  0  0
   37.1420   31.5120   38.4420 N   0  0  0  0  0  0  0  0  0  0  0  0
   36.6870   29.8440   37.2780 H   0  0  0  0  0  0  0  0  0  0  0  0
   35.4580   29.6000   41.3950 H   0  0  0  0  0  0  0  0  0  0  0  0
   37.6160   33.3880   39.8860 C   0  0  0  0  0  2  0  0  0  0  0  0
   38.8340   33.2980   40.7510 C   0  0  0  0  0  2  0  0  0  0  0  0
   38.5510   32.8780   41.7180 H   0  0  0  0  0  0  0  0  0  0  0  0
  1  3  1  0  0  0  0
  1  4  1  0  0  0  0
  2  1  1  0  0  0  0
  4  9  1  0  0  0  0
  4  5  1  0  0  0  0
  5 11  1  0  0  0  0
  5  6  1  0  0  0  0
  6  7  1  0  0  0  0
  6 13  1  0  0  0  0
  7 15  1  0  0  0  0
  7 14  1  0  0  0  0
  8 16  1  0  0  0  0
  8  7  1  0  0  0  0
  9 18  1  1  0  0  0
  9  8  1  0  0  0  0
 10  5  1  0  0  0  0
 12  6  1  0  0  0  0
 17  8  1  0  0  0  0
 19 21  1  0  0  0  0
 19  9  1  0  0  0  0
 20 19  1  0  0  0  0
 22 19  1  0  0  0  0
 23 31  1  0  0  0  0
 23 26  1  1  0  0  0
 23 25  1  0  0  0  0
 24 23  1  0  0  0  0
 24 25  1  0  0  0  0
 25  1  1  0  0  0  0
 25 29  1  1  0  0  0
 27 24  1  0  0  0  0
 28 24  1  0  0  0  0
 30 35  2  0  0  0  0
 30 31  1  0  0  0  0
 31 32  2  0  0  0  0
 32 33  1  0  0  0  0
 32 37  1  0  0  0  0
 34 38  1  0  0  0  0
 34 33  2  0  0  0  0
 35 34  1  0  0  0  0
 36 30  1  0  0  0  0
 38 39  1  0  0  0  0
 39 40  1  0  0  0  0
M  END
>  <minimizedAffinity>
-4.77895927

$$$$

 OpenBabel03252500373D

 40 42  0  0  1  0  0  0  0  0999 V2000
   39.1080   27.8360   40.2970 C   0  0  0  0  0  0  0  0  0  0  0  0
   40.0420   27.4670   39.8370 H   0  0  0  0  0  0  0  0  0  0  0  0
   38.9830   28.9420   40.1300 H   0  0  0  0  0  0  0  0  0  0  0  0
   39.0660   27.5230   41.6800 N   0  0  0  0  0  0  0  0  0  0  0  0
   38.2830   26.4400   42.0900 C   0  0  0  0  0  0  0  0  0  0  0  0
   36.8490   26.8850   42.4360 C   0  0  0  0  0  0  0  0  0  0  0  0
   36.9560   27.7250   43.6800 C   0  0  0  0  0  0  0  0  0  0  0  0
   37.8200   28.9160   43.3100 C   0  0  0  0  0  0  0  0  0  0  0  0
   39.1080   28.5590   42.6220 C   0  0  2  0  0  0  0  0  0  0  0  0
   38.3180   25.5050   41.5310 H   0  0  0  0  0  0  0  0  0  0  0  0
   38.6890   26.1380   43.1050 H   0  0  0  0  0  0  0  0  0  0  0  0
   36.5270   27.5730   41.6230 H   0  0  0  0  0  0  0  0  0  0  0  0
   36.1880   26.0060   42.5670 H   0  0  0  0  0  0  0  0  0  0  0  0
   36.0120   28.1180   44.0510 H   0  0  0  0  0  0  0  0  0  0  0  0
   37.5320   27.1410   44.4320 H   0  0  0  0  0  0  0  0  0  0  0  0
   38.0820   29.4050   44.2700 H   0  0  0  0  0  0  0  0  0  0  0  0
   37.2520   29.6510   42.7280 H   0  0  0  0  0  0  0  0  0  0  0  0
   39.8380   28.2700   43.4180 H   0  0  0  0  0  0  0  0  0  0  0  0
   39.6590   29.8470   42.0280 C   0  0  0  0  0  0  0  0  0  0  0  0
   39.3240   29.9650   40.9690 H   0  0  0  0  0  0  0  0  0  0  0  0
   39.2910   30.7250   42.5970 H   0  0  0  0  0  0  0  0  0  0  0  0
   40.7630   29.8520   42.0480 H   0  0  0  0  0  0  0  0  0  0  0  0
   36.8550   28.0320   38.9700 C   0  0  1  0  0  0  0  0  0  0  0  0
   37.7350   27.2630   38.2040 C   0  0  0  0  0  0  0  0  0  0  0  0
   37.9480   27.1660   39.6590 C   0  0  1  0  0  0  0  0  0  0  0  0
   35.7980   27.6880   39.1510 H   0  0  0  0  0  0  0  0  0  0  0  0
   38.5930   27.7340   37.6490 H   0  0  0  0  0  0  0  0  0  0  0  0
   37.3440   26.3870   37.6110 H   0  0  0  0  0  0  0  0  0  0  0  0
   37.4770   26.3990   40.2920 H   0  0  0  0  0  0  0  0  0  0  0  0
   37.6340   30.2920   38.2430 C   0  0  0  0  0  0  0  0  0  0  0  0
   36.9310   29.5050   39.2100 C   0  0  0  0  0  0  0  0  0  0  0  0
   36.3690   30.1060   40.2920 C   0  0  0  0  0  0  0  0  0  0  0  0
   36.5030   31.4630   40.4120 N   0  0  0  0  0  0  0  0  0  0  0  0
   37.1790   32.2030   39.4790 C   0  0  0  0  0  0  0  0  0  0  0  0
   37.7610   31.6320   38.3710 N   0  0  0  0  0  0  0  0  0  0  0  0
   38.0860   29.8290   37.3780 H   0  0  0  0  0  0  0  0  0  0  0  0
   35.8350   29.5300   41.0330 H   0  0  0  0  0  0  0  0  0  0  0  0
   37.3210   33.6580   39.6080 C   0  0  0  0  0  2  0  0  0  0  0  0
   38.6510   33.9760   40.2160 C   0  0  0  0  0  2  0  0  0  0  0  0
   38.7110   33.5050   41.2000 H   0  0  0  0  0  0  0  0  0  0  0  0
  1  4  1  0  0  0  0
  2  1  1  0  0  0  0
  3  1  1  0  0  0  0
  4  5  1  0  0  0  0
  4  9  1  0  0  0  0
  5  6  1  0  0  0  0
  5 11  1  0  0  0  0
  6 13  1  0  0  0  0
  6  7  1  0  0  0  0
  7 14  1  0  0  0  0
  7 15  1  0  0  0  0
  8  7  1  0  0  0  0
  8 16  1  0  0  0  0
  9  8  1  0  0  0  0
  9 18  1  1  0  0  0
 10  5  1  0  0  0  0
 12  6  1  0  0  0  0
 17  8  1  0  0  0  0
 19 22  1  0  0  0  0
 19 21  1  0  0  0  0
 19  9  1  0  0  0  0
 20 19  1  0  0  0  0
 23 26  1  1  0  0  0
 23 31  1  0  0  0  0
 23 25  1  0  0  0  0
 24 23  1  0  0  0  0
 24 25  1  0  0  0  0
 25 29  1  1  0  0  0
 25  1  1  0  0  0  0
 27 24  1  0  0  0  0
 28 24  1  0  0  0  0
 30 35  2  0  0  0  0
 30 31  1  0  0  0  0
 31 32  2  0  0  0  0
 32 33  1  0  0  0  0
 32 37  1  0  0  0  0
 34 38  1  0  0  0  0
 34 33  2  0  0  0  0
 35 34  1  0  0  0  0
 36 30  1  0  0  0  0
 38 39  1  0  0  0  0
 39 40  1  0  0  0  0
M  END
>  <minimizedAffinity>
-4.73739815

$$$$

 OpenBabel03252500373D

 40 42  0  0  1  0  0  0  0  0999 V2000
   37.8590   26.5440   41.7830 C   0  0  0  0  0  0  0  0  0  0  0  0
   37.0390   25.8440   41.5380 H   0  0  0  0  0  0  0  0  0  0  0  0
   37.8140   27.4630   41.1350 H   0  0  0  0  0  0  0  0  0  0  0  0
   39.1200   25.9050   41.6720 N   0  0  0  0  0  0  0  0  0  0  0  0
   39.6860   25.3520   42.8250 C   0  0  0  0  0  0  0  0  0  0  0  0
   40.5830   26.3730   43.5530 C   0  0  0  0  0  0  0  0  0  0  0  0
   41.7720   26.6020   42.6600 C   0  0  0  0  0  0  0  0  0  0  0  0
   41.2230   27.1830   41.3700 C   0  0  0  0  0  0  0  0  0  0  0  0
   40.0740   26.4130   40.7820 C   0  0  2  0  0  0  0  0  0  0  0  0
   39.0670   24.7660   43.5040 H   0  0  0  0  0  0  0  0  0  0  0  0
   40.4420   24.5900   42.4590 H   0  0  0  0  0  0  0  0  0  0  0  0
   40.0180   27.3310   43.5720 H   0  0  0  0  0  0  0  0  0  0  0  0
   40.8650   25.9990   44.5570 H   0  0  0  0  0  0  0  0  0  0  0  0
   42.5040   27.3090   43.0430 H   0  0  0  0  0  0  0  0  0  0  0  0
   42.1950   25.6050   42.4010 H   0  0  0  0  0  0  0  0  0  0  0  0
   42.0600   27.1380   40.6430 H   0  0  0  0  0  0  0  0  0  0  0  0
   40.9690   28.2420   41.4910 H   0  0  0  0  0  0  0  0  0  0  0  0
   40.5090   25.5530   40.2150 H   0  0  0  0  0  0  0  0  0  0  0  0
   39.4450   27.3070   39.7230 C   0  0  0  0  0  0  0  0  0  0  0  0
   38.6040   27.8990   40.1590 H   0  0  0  0  0  0  0  0  0  0  0  0
   40.1920   28.0260   39.3280 H   0  0  0  0  0  0  0  0  0  0  0  0
   39.0530   26.7100   38.8820 H   0  0  0  0  0  0  0  0  0  0  0  0
   37.4140   28.4930   43.4790 C   0  0  1  0  0  0  0  0  0  0  0  0
   36.4300   27.5210   43.6790 C   0  0  0  0  0  0  0  0  0  0  0  0
   37.7160   26.9940   43.1890 C   0  0  1  0  0  0  0  0  0  0  0  0
   37.9790   28.9270   44.3510 H   0  0  0  0  0  0  0  0  0  0  0  0
   35.5790   27.3910   42.9540 H   0  0  0  0  0  0  0  0  0  0  0  0
   36.0660   27.2980   44.7240 H   0  0  0  0  0  0  0  0  0  0  0  0
   38.5180   26.6370   43.8520 H   0  0  0  0  0  0  0  0  0  0  0  0
   36.3440   29.6570   41.5440 C   0  0  0  0  0  0  0  0  0  0  0  0
   37.5260   29.4260   42.3170 C   0  0  0  0  0  0  0  0  0  0  0  0
   38.6880   30.0460   41.9780 C   0  0  0  0  0  0  0  0  0  0  0  0
   38.6750   30.8790   40.8930 N   0  0  0  0  0  0  0  0  0  0  0  0
   37.5370   31.0890   40.1620 C   0  0  0  0  0  0  0  0  0  0  0  0
   36.3420   30.4810   40.4730 N   0  0  0  0  0  0  0  0  0  0  0  0
   35.4130   29.1710   41.8010 H   0  0  0  0  0  0  0  0  0  0  0  0
   39.5900   29.8850   42.5490 H   0  0  0  0  0  0  0  0  0  0  0  0
   37.5240   31.9840   38.9980 C   0  0  0  0  0  2  0  0  0  0  0  0
   37.3260   33.3940   39.4570 C   0  0  0  0  0  2  0  0  0  0  0  0
   36.3760   33.4620   39.9920 H   0  0  0  0  0  0  0  0  0  0  0  0
  1 25  1  0  0  0  0
  2  1  1  0  0  0  0
  3  1  1  0  0  0  0
  4  1  1  0  0  0  0
  4  5  1  0  0  0  0
  5 10  1  0  0  0  0
  5  6  1  0  0  0  0
  6 12  1  0  0  0  0
  6 13  1  0  0  0  0
  7 14  1  0  0  0  0
  7  6  1  0  0  0  0
  8 17  1  0  0  0  0
  8  7  1  0  0  0  0
  9 18  1  6  0  0  0
  9  8  1  0  0  0  0
  9  4  1  0  0  0  0
 11  5  1  0  0  0  0
 15  7  1  0  0  0  0
 16  8  1  0  0  0  0
 19 20  1  0  0  0  0
 19  9  1  0  0  0  0
 21 19  1  0  0  0  0
 22 19  1  0  0  0  0
 23 24  1  0  0  0  0
 23 26  1  1  0  0  0
 24 28  1  0  0  0  0
 25 23  1  0  0  0  0
 25 24  1  0  0  0  0
 25 29  1  1  0  0  0
 27 24  1  0  0  0  0
 30 36  1  0  0  0  0
 30 31  1  0  0  0  0
 31 23  1  0  0  0  0
 32 31  2  0  0  0  0
 32 37  1  0  0  0  0
 33 32  1  0  0  0  0
 34 35  1  0  0  0  0
 34 33  2  0  0  0  0
 35 30  2  0  0  0  0
 38 39  1  0  0  0  0
 38 34  1  0  0  0  0
 39 40  1  0  0  0  0
M  END
>  <minimizedAffinity>
-4.65923119

$$$$
