
 OpenBabel03242520173D

 19 20  0  0  0  0  0  0  0  0999 V2000
   37.3910   29.3390   42.1040 C   0  0  0  0  0  0  0  0  0  0  0  0
   36.9510   30.1870   41.0580 C   0  0  0  0  0  0  0  0  0  0  0  0
   37.7440   31.2910   40.7160 C   0  0  0  0  0  0  0  0  0  0  0  0
   38.9090   31.4840   41.4250 N   0  0  0  0  0  0  0  0  0  0  0  0
   39.2820   30.6380   42.4200 C   0  0  0  0  0  0  0  0  0  0  0  0
   38.5470   29.5850   42.7600 N   0  0  0  0  0  0  0  0  0  0  0  0
   36.0300   29.9620   40.5590 H   0  0  0  0  0  0  0  0  0  0  0  0
   40.2330   30.8880   42.9190 H   0  0  0  0  0  0  0  0  0  0  0  0
   36.5370   28.1800   42.4720 C   0  0  0  0  0  0  0  0  0  0  0  0
   37.3080   26.8370   42.4230 C   0  0  0  0  0  0  0  0  0  0  0  0
   36.7540   27.4120   43.6800 C   0  0  0  0  0  0  0  0  0  0  0  0
   35.5550   28.1890   41.9880 H   0  0  0  0  0  0  0  0  0  0  0  0
   38.3830   26.8710   42.2390 H   0  0  0  0  0  0  0  0  0  0  0  0
   36.7110   26.0090   42.0060 H   0  0  0  0  0  0  0  0  0  0  0  0
   35.8840   26.9560   44.1840 H   0  0  0  0  0  0  0  0  0  0  0  0
   37.5350   27.7680   44.4000 H   0  0  0  0  0  0  0  0  0  0  0  0
   37.3170   32.1990   39.6290 C   0  0  0  0  0  2  0  0  0  0  0  0
   37.7050   33.6410   39.9220 C   0  0  0  0  0  2  0  0  0  0  0  0
   38.7960   33.7570   39.9650 H   0  0  0  0  0  0  0  0  0  0  0  0
  1  9  1  0  0  0  0
  1  6  1  0  0  0  0
  2  1  2  0  0  0  0
  3  2  1  0  0  0  0
  3  4  2  0  0  0  0
  4  5  1  0  0  0  0
  5  6  2  0  0  0  0
  5  8  1  0  0  0  0
  7  2  1  0  0  0  0
  9 11  1  0  0  0  0
 10  9  1  0  0  0  0
 10 11  1  0  0  0  0
 11 15  1  0  0  0  0
 11 16  1  0  0  0  0
 12  9  1  0  0  0  0
 13 10  1  0  0  0  0
 14 10  1  0  0  0  0
 17 18  1  0  0  0  0
 17  3  1  0  0  0  0
 18 19  1  0  0  0  0
M  END
>  <minimizedAffinity>
-3.74462914

$$$$

 OpenBabel03242520173D

 19 20  0  0  0  0  0  0  0  0999 V2000
   38.3630   27.0380   43.2430 C   0  0  0  0  0  0  0  0  0  0  0  0
   37.4880   26.2460   42.4590 C   0  0  0  0  0  0  0  0  0  0  0  0
   37.8770   24.9360   42.1450 C   0  0  0  0  0  0  0  0  0  0  0  0
   39.0940   24.5000   42.6200 N   0  0  0  0  0  0  0  0  0  0  0  0
   39.8920   25.3050   43.3670 C   0  0  0  0  0  0  0  0  0  0  0  0
   39.5450   26.5480   43.6790 N   0  0  0  0  0  0  0  0  0  0  0  0
   36.5590   26.6670   42.1320 H   0  0  0  0  0  0  0  0  0  0  0  0
   40.8440   24.8520   43.6940 H   0  0  0  0  0  0  0  0  0  0  0  0
   37.9520   28.4310   43.5590 C   0  0  0  0  0  0  0  0  0  0  0  0
   38.8180   29.4850   42.8240 C   0  0  0  0  0  0  0  0  0  0  0  0
   37.3620   29.3060   42.5690 C   0  0  0  0  0  0  0  0  0  0  0  0
   37.7840   28.6070   44.6270 H   0  0  0  0  0  0  0  0  0  0  0  0
   39.5450   29.1290   42.0920 H   0  0  0  0  0  0  0  0  0  0  0  0
   39.0600   30.3600   43.4500 H   0  0  0  0  0  0  0  0  0  0  0  0
   36.6260   30.0620   42.8960 H   0  0  0  0  0  0  0  0  0  0  0  0
   37.1270   28.8810   41.5600 H   0  0  0  0  0  0  0  0  0  0  0  0
   36.9890   24.0790   41.3280 C   0  0  0  0  0  2  0  0  0  0  0  0
   37.7680   22.9710   40.6350 C   0  0  0  0  0  2  0  0  0  0  0  0
   38.2180   22.2860   41.3660 H   0  0  0  0  0  0  0  0  0  0  0  0
  1  9  1  0  0  0  0
  1  6  1  0  0  0  0
  2  1  2  0  0  0  0
  3  2  1  0  0  0  0
  3  4  2  0  0  0  0
  4  5  1  0  0  0  0
  5  6  2  0  0  0  0
  5  8  1  0  0  0  0
  7  2  1  0  0  0  0
  9 12  1  0  0  0  0
 10 14  1  0  0  0  0
 10  9  1  0  0  0  0
 11 10  1  0  0  0  0
 11 15  1  0  0  0  0
 11  9  1  0  0  0  0
 13 10  1  0  0  0  0
 16 11  1  0  0  0  0
 17  3  1  0  0  0  0
 18 17  1  0  0  0  0
 18 19  1  0  0  0  0
M  END
>  <minimizedAffinity>
-3.73356891

$$$$

 OpenBabel03242520173D

 19 20  0  0  0  0  0  0  0  0999 V2000
   37.0460   28.8300   41.5870 C   0  0  0  0  0  0  0  0  0  0  0  0
   37.7650   30.0480   41.4990 C   0  0  0  0  0  0  0  0  0  0  0  0
   37.2770   31.0490   40.6470 C   0  0  0  0  0  0  0  0  0  0  0  0
   36.1230   30.7820   39.9430 N   0  0  0  0  0  0  0  0  0  0  0  0
   35.4760   29.5940   40.0680 C   0  0  0  0  0  0  0  0  0  0  0  0
   35.9180   28.6310   40.8700 N   0  0  0  0  0  0  0  0  0  0  0  0
   38.6540   30.1710   42.0830 H   0  0  0  0  0  0  0  0  0  0  0  0
   34.5630   29.4890   39.4580 H   0  0  0  0  0  0  0  0  0  0  0  0
   37.5780   27.7670   42.4810 C   0  0  0  0  0  0  0  0  0  0  0  0
   36.6400   27.4760   43.6780 C   0  0  0  0  0  0  0  0  0  0  0  0
   36.9360   26.4770   42.6140 C   0  0  0  0  0  0  0  0  0  0  0  0
   38.6400   27.8870   42.7190 H   0  0  0  0  0  0  0  0  0  0  0  0
   35.6690   27.9730   43.7000 H   0  0  0  0  0  0  0  0  0  0  0  0
   37.1830   27.3020   44.6220 H   0  0  0  0  0  0  0  0  0  0  0  0
   37.5610   25.5900   42.8200 H   0  0  0  0  0  0  0  0  0  0  0  0
   36.0640   26.2480   41.9500 H   0  0  0  0  0  0  0  0  0  0  0  0
   38.0000   32.3340   40.5280 C   0  0  0  0  0  2  0  0  0  0  0  0
   37.3410   33.2530   39.5090 C   0  0  0  0  0  2  0  0  0  0  0  0
   36.3280   33.5340   39.8270 H   0  0  0  0  0  0  0  0  0  0  0  0
  1  9  1  0  0  0  0
  2  1  1  0  0  0  0
  2  7  1  0  0  0  0
  3  2  2  0  0  0  0
  4  5  2  0  0  0  0
  4  3  1  0  0  0  0
  5  6  1  0  0  0  0
  6  1  2  0  0  0  0
  8  5  1  0  0  0  0
  9 11  1  0  0  0  0
  9 12  1  0  0  0  0
  9 10  1  0  0  0  0
 10 13  1  0  0  0  0
 10 14  1  0  0  0  0
 11 15  1  0  0  0  0
 11 10  1  0  0  0  0
 16 11  1  0  0  0  0
 17  3  1  0  0  0  0
 18 19  1  0  0  0  0
 18 17  1  0  0  0  0
M  END
>  <minimizedAffinity>
-3.6972239

$$$$

 OpenBabel03242520173D

 19 20  0  0  0  0  0  0  0  0999 V2000
   37.7620   25.1260   42.2350 C   0  0  0  0  0  0  0  0  0  0  0  0
   37.3330   26.4430   42.5340 C   0  0  0  0  0  0  0  0  0  0  0  0
   38.1890   27.2700   43.2750 C   0  0  0  0  0  0  0  0  0  0  0  0
   39.4000   26.7460   43.6700 N   0  0  0  0  0  0  0  0  0  0  0  0
   39.7580   25.4750   43.3540 C   0  0  0  0  0  0  0  0  0  0  0  0
   38.9650   24.6730   42.6520 N   0  0  0  0  0  0  0  0  0  0  0  0
   36.3730   26.7690   42.1870 H   0  0  0  0  0  0  0  0  0  0  0  0
   40.7490   25.1600   43.7210 H   0  0  0  0  0  0  0  0  0  0  0  0
   36.8420   24.2490   41.4630 C   0  0  0  0  0  0  0  0  0  0  0  0
   36.9060   24.5210   39.9390 C   0  0  0  0  0  0  0  0  0  0  0  0
   37.3260   23.2320   40.5540 C   0  0  0  0  0  0  0  0  0  0  0  0
   35.8400   24.1760   41.8970 H   0  0  0  0  0  0  0  0  0  0  0  0
   37.6610   25.2200   39.5750 H   0  0  0  0  0  0  0  0  0  0  0  0
   35.9180   24.4850   39.4500 H   0  0  0  0  0  0  0  0  0  0  0  0
   36.7310   22.3120   40.4190 H   0  0  0  0  0  0  0  0  0  0  0  0
   38.4290   23.0450   40.5080 H   0  0  0  0  0  0  0  0  0  0  0  0
   37.7750   28.6520   43.6070 C   0  0  0  0  0  2  0  0  0  0  0  0
   38.6610   29.6800   42.9170 C   0  0  0  0  0  2  0  0  0  0  0  0
   38.5640   29.6170   41.8250 H   0  0  0  0  0  0  0  0  0  0  0  0
  1  2  2  0  0  0  0
  1  6  1  0  0  0  0
  2  3  1  0  0  0  0
  3 17  1  0  0  0  0
  3  4  2  0  0  0  0
  5  4  1  0  0  0  0
  5  8  1  0  0  0  0
  6  5  2  0  0  0  0
  7  2  1  0  0  0  0
  9 12  1  0  0  0  0
  9  1  1  0  0  0  0
 10 11  1  0  0  0  0
 10  9  1  0  0  0  0
 11  9  1  0  0  0  0
 13 10  1  0  0  0  0
 14 10  1  0  0  0  0
 15 11  1  0  0  0  0
 16 11  1  0  0  0  0
 18 17  1  0  0  0  0
 19 18  1  0  0  0  0
M  END
>  <minimizedAffinity>
-3.69019246

$$$$

 OpenBabel03242520173D

 19 20  0  0  0  0  0  0  0  0999 V2000
   36.5630   28.7490   41.5470 C   0  0  0  0  0  0  0  0  0  0  0  0
   36.8340   27.3580   41.4980 C   0  0  0  0  0  0  0  0  0  0  0  0
   37.8360   26.8450   42.3340 C   0  0  0  0  0  0  0  0  0  0  0  0
   38.5000   27.7300   43.1540 N   0  0  0  0  0  0  0  0  0  0  0  0
   38.1980   29.0540   43.1580 C   0  0  0  0  0  0  0  0  0  0  0  0
   37.2520   29.5640   42.3770 N   0  0  0  0  0  0  0  0  0  0  0  0
   36.2680   26.7420   40.8290 H   0  0  0  0  0  0  0  0  0  0  0  0
   38.7920   29.6700   43.8540 H   0  0  0  0  0  0  0  0  0  0  0  0
   35.5110   29.2890   40.6470 C   0  0  0  0  0  0  0  0  0  0  0  0
   36.1020   29.9600   39.3820 C   0  0  0  0  0  0  0  0  0  0  0  0
   35.2580   28.7350   39.3350 C   0  0  0  0  0  0  0  0  0  0  0  0
   34.7330   29.8530   41.1720 H   0  0  0  0  0  0  0  0  0  0  0  0
   37.1780   29.8840   39.2180 H   0  0  0  0  0  0  0  0  0  0  0  0
   35.5720   30.8830   39.0930 H   0  0  0  0  0  0  0  0  0  0  0  0
   34.2290   28.7620   38.9340 H   0  0  0  0  0  0  0  0  0  0  0  0
   35.8150   27.8110   39.0340 H   0  0  0  0  0  0  0  0  0  0  0  0
   38.1460   25.3980   42.3100 C   0  0  0  0  0  2  0  0  0  0  0  0
   36.9230   24.5710   41.9390 C   0  0  0  0  0  2  0  0  0  0  0  0
   36.5870   24.7980   40.9190 H   0  0  0  0  0  0  0  0  0  0  0  0
  1  6  1  0  0  0  0
  2  1  2  0  0  0  0
  2  3  1  0  0  0  0
  3  4  2  0  0  0  0
  4  5  1  0  0  0  0
  5  8  1  0  0  0  0
  6  5  2  0  0  0  0
  7  2  1  0  0  0  0
  9 12  1  0  0  0  0
  9  1  1  0  0  0  0
 10  9  1  0  0  0  0
 11 10  1  0  0  0  0
 11  9  1  0  0  0  0
 13 10  1  0  0  0  0
 14 10  1  0  0  0  0
 15 11  1  0  0  0  0
 16 11  1  0  0  0  0
 17  3  1  0  0  0  0
 18 17  1  0  0  0  0
 19 18  1  0  0  0  0
M  END
>  <minimizedAffinity>
-3.67772603

$$$$

 OpenBabel03242520173D

 19 20  0  0  0  0  0  0  0  0999 V2000
   37.5040   30.6950   40.8990 C   0  0  0  0  0  0  0  0  0  0  0  0
   37.1830   29.6080   41.7500 C   0  0  0  0  0  0  0  0  0  0  0  0
   38.0830   29.2730   42.7710 C   0  0  0  0  0  0  0  0  0  0  0  0
   39.2320   30.0250   42.8820 N   0  0  0  0  0  0  0  0  0  0  0  0
   39.4880   31.0560   42.0350 C   0  0  0  0  0  0  0  0  0  0  0  0
   38.6490   31.3930   41.0620 N   0  0  0  0  0  0  0  0  0  0  0  0
   36.2660   29.0770   41.5920 H   0  0  0  0  0  0  0  0  0  0  0  0
   40.4370   31.5890   42.2160 H   0  0  0  0  0  0  0  0  0  0  0  0
   36.5520   31.0340   39.8080 C   0  0  0  0  0  0  0  0  0  0  0  0
   37.1970   30.9230   38.4040 C   0  0  0  0  0  0  0  0  0  0  0  0
   36.0810   30.0480   38.8590 C   0  0  0  0  0  0  0  0  0  0  0  0
   35.9710   31.9420   40.0010 H   0  0  0  0  0  0  0  0  0  0  0  0
   38.2090   30.5200   38.3360 H   0  0  0  0  0  0  0  0  0  0  0  0
   36.8850   31.7290   37.7190 H   0  0  0  0  0  0  0  0  0  0  0  0
   35.0640   30.1530   38.4420 H   0  0  0  0  0  0  0  0  0  0  0  0
   36.3760   28.9800   39.0150 H   0  0  0  0  0  0  0  0  0  0  0  0
   37.7820   28.1450   43.6800 C   0  0  0  0  0  2  0  0  0  0  0  0
   36.5170   27.4110   43.2570 C   0  0  0  0  0  2  0  0  0  0  0  0
   36.6410   26.9460   42.2700 H   0  0  0  0  0  0  0  0  0  0  0  0
  1  6  2  0  0  0  0
  1  2  1  0  0  0  0
  2  3  2  0  0  0  0
  3  4  1  0  0  0  0
  3 17  1  0  0  0  0
  5  8  1  0  0  0  0
  5  4  2  0  0  0  0
  6  5  1  0  0  0  0
  7  2  1  0  0  0  0
  9 12  1  0  0  0  0
  9  1  1  0  0  0  0
 10 11  1  0  0  0  0
 10  9  1  0  0  0  0
 11 16  1  0  0  0  0
 11  9  1  0  0  0  0
 13 10  1  0  0  0  0
 14 10  1  0  0  0  0
 15 11  1  0  0  0  0
 18 17  1  0  0  0  0
 19 18  1  0  0  0  0
M  END
>  <minimizedAffinity>
-3.66773462

$$$$

 OpenBabel03242520173D

 19 20  0  0  0  0  0  0  0  0999 V2000
   36.5400   28.8240   41.4440 C   0  0  0  0  0  0  0  0  0  0  0  0
   36.0010   28.5320   40.1670 C   0  0  0  0  0  0  0  0  0  0  0  0
   35.9530   29.5580   39.2130 C   0  0  0  0  0  0  0  0  0  0  0  0
   36.4330   30.7960   39.5820 N   0  0  0  0  0  0  0  0  0  0  0  0
   36.9380   31.0180   40.8230 C   0  0  0  0  0  0  0  0  0  0  0  0
   36.9960   30.0610   41.7420 N   0  0  0  0  0  0  0  0  0  0  0  0
   35.6500   27.5400   39.9650 H   0  0  0  0  0  0  0  0  0  0  0  0
   37.2950   32.0450   41.0090 H   0  0  0  0  0  0  0  0  0  0  0  0
   36.5740   27.7350   42.4550 C   0  0  0  0  0  0  0  0  0  0  0  0
   37.9690   27.0710   42.5650 C   0  0  0  0  0  0  0  0  0  0  0  0
   37.3430   27.8370   43.6770 C   0  0  0  0  0  0  0  0  0  0  0  0
   35.7200   27.0520   42.3920 H   0  0  0  0  0  0  0  0  0  0  0  0
   38.7910   27.5120   41.9980 H   0  0  0  0  0  0  0  0  0  0  0  0
   37.9200   25.9760   42.6890 H   0  0  0  0  0  0  0  0  0  0  0  0
   36.9720   27.3300   44.5850 H   0  0  0  0  0  0  0  0  0  0  0  0
   37.8520   28.8090   43.9020 H   0  0  0  0  0  0  0  0  0  0  0  0
   35.3970   29.2910   37.8680 C   0  0  0  0  0  2  0  0  0  0  0  0
   33.9540   28.8130   37.9460 C   0  0  0  0  0  2  0  0  0  0  0  0
   33.3020   29.5910   38.3650 H   0  0  0  0  0  0  0  0  0  0  0  0
  1  6  1  0  0  0  0
  1  9  1  0  0  0  0
  2  1  2  0  0  0  0
  3  4  2  0  0  0  0
  3  2  1  0  0  0  0
  4  5  1  0  0  0  0
  5  8  1  0  0  0  0
  5  6  2  0  0  0  0
  7  2  1  0  0  0  0
  9 10  1  0  0  0  0
  9 11  1  0  0  0  0
 10 14  1  0  0  0  0
 10 11  1  0  0  0  0
 11 16  1  0  0  0  0
 11 15  1  0  0  0  0
 12  9  1  0  0  0  0
 13 10  1  0  0  0  0
 17 18  1  0  0  0  0
 17  3  1  0  0  0  0
 18 19  1  0  0  0  0
M  END
>  <minimizedAffinity>
-3.65941834

$$$$

 OpenBabel03242520173D

 19 20  0  0  0  0  0  0  0  0999 V2000
   37.3760   27.1170   42.2960 C   0  0  0  0  0  0  0  0  0  0  0  0
   36.5720   28.0910   41.6530 C   0  0  0  0  0  0  0  0  0  0  0  0
   36.9710   29.4330   41.7190 C   0  0  0  0  0  0  0  0  0  0  0  0
   38.1260   29.7230   42.4100 N   0  0  0  0  0  0  0  0  0  0  0  0
   38.8580   28.7460   43.0080 C   0  0  0  0  0  0  0  0  0  0  0  0
   38.5000   27.4680   42.9580 N   0  0  0  0  0  0  0  0  0  0  0  0
   35.6870   27.7760   41.1370 H   0  0  0  0  0  0  0  0  0  0  0  0
   39.7640   29.0920   43.5340 H   0  0  0  0  0  0  0  0  0  0  0  0
   36.9380   25.6970   42.2360 C   0  0  0  0  0  0  0  0  0  0  0  0
   37.3620   25.0020   40.9180 C   0  0  0  0  0  0  0  0  0  0  0  0
   37.8780   24.5970   42.2550 C   0  0  0  0  0  0  0  0  0  0  0  0
   35.8990   25.5470   42.5460 H   0  0  0  0  0  0  0  0  0  0  0  0
   38.0080   25.5550   40.2330 H   0  0  0  0  0  0  0  0  0  0  0  0
   36.5870   24.3310   40.5130 H   0  0  0  0  0  0  0  0  0  0  0  0
   37.5730   23.6440   42.7220 H   0  0  0  0  0  0  0  0  0  0  0  0
   38.9610   24.8300   42.4140 H   0  0  0  0  0  0  0  0  0  0  0  0
   36.1570   30.4780   41.0600 C   0  0  0  0  0  2  0  0  0  0  0  0
   37.0270   31.6060   40.5220 C   0  0  0  0  0  2  0  0  0  0  0  0
   37.7020   31.2440   39.7350 H   0  0  0  0  0  0  0  0  0  0  0  0
  1  6  1  0  0  0  0
  2  3  1  0  0  0  0
  2  1  2  0  0  0  0
  3  4  2  0  0  0  0
  4  5  1  0  0  0  0
  5  8  1  0  0  0  0
  6  5  2  0  0  0  0
  7  2  1  0  0  0  0
  9 11  1  0  0  0  0
  9  1  1  0  0  0  0
  9 12  1  0  0  0  0
 10  9  1  0  0  0  0
 10 11  1  0  0  0  0
 11 16  1  0  0  0  0
 11 15  1  0  0  0  0
 13 10  1  0  0  0  0
 14 10  1  0  0  0  0
 17  3  1  0  0  0  0
 18 17  1  0  0  0  0
 19 18  1  0  0  0  0
M  END
>  <minimizedAffinity>
-3.65936184

$$$$

 OpenBabel03242520173D

 19 20  0  0  0  0  0  0  0  0999 V2000
   37.6990   29.4790   42.5290 C   0  0  0  0  0  0  0  0  0  0  0  0
   39.0180   29.9970   42.5380 C   0  0  0  0  0  0  0  0  0  0  0  0
   39.3210   31.0640   41.6810 C   0  0  0  0  0  0  0  0  0  0  0  0
   38.3110   31.5440   40.8760 N   0  0  0  0  0  0  0  0  0  0  0  0
   37.0640   31.0070   40.9100 C   0  0  0  0  0  0  0  0  0  0  0  0
   36.7520   29.9970   41.7150 N   0  0  0  0  0  0  0  0  0  0  0  0
   39.7430   29.5620   43.1970 H   0  0  0  0  0  0  0  0  0  0  0  0
   36.3340   31.4700   40.2240 H   0  0  0  0  0  0  0  0  0  0  0  0
   37.3890   28.3370   43.4290 C   0  0  0  0  0  0  0  0  0  0  0  0
   37.2820   26.9940   42.6650 C   0  0  0  0  0  0  0  0  0  0  0  0
   38.3360   27.2720   43.6790 C   0  0  0  0  0  0  0  0  0  0  0  0
   36.5880   28.5490   44.1450 H   0  0  0  0  0  0  0  0  0  0  0  0
   37.5390   26.9870   41.6040 H   0  0  0  0  0  0  0  0  0  0  0  0
   36.4640   26.3510   43.0310 H   0  0  0  0  0  0  0  0  0  0  0  0
   38.3290   26.7730   44.6640 H   0  0  0  0  0  0  0  0  0  0  0  0
   39.3660   27.3670   43.2500 H   0  0  0  0  0  0  0  0  0  0  0  0
   40.6880   31.6310   41.6620 C   0  0  0  0  0  2  0  0  0  0  0  0
   41.5390   31.0720   42.7940 C   0  0  0  0  0  2  0  0  0  0  0  0
   41.6870   29.9890   42.6800 H   0  0  0  0  0  0  0  0  0  0  0  0
  1  2  1  0  0  0  0
  1  9  1  0  0  0  0
  2  7  1  0  0  0  0
  3  2  2  0  0  0  0
  4  5  2  0  0  0  0
  4  3  1  0  0  0  0
  5  6  1  0  0  0  0
  6  1  2  0  0  0  0
  8  5  1  0  0  0  0
  9 11  1  0  0  0  0
  9 12  1  0  0  0  0
 10 14  1  0  0  0  0
 10  9  1  0  0  0  0
 10 11  1  0  0  0  0
 11 15  1  0  0  0  0
 13 10  1  0  0  0  0
 16 11  1  0  0  0  0
 17  3  1  0  0  0  0
 17 18  1  0  0  0  0
 19 18  1  0  0  0  0
M  END
>  <minimizedAffinity>
-3.60283923

$$$$
