
 OpenBabel03252509183D

 35 37  0  0  1  0  0  0  0  0999 V2000
   50.2640   27.9990   46.8810 C   0  0  1  0  0  0  0  0  0  0  0  0
   48.8650   28.5020   46.9810 C   0  0  0  0  0  0  0  0  0  0  0  0
   47.8290   27.4360   47.2030 C   0  0  0  0  0  0  0  0  0  0  0  0
   48.2510   26.3850   48.2060 C   0  0  0  0  0  0  0  0  0  0  0  0
   49.6740   25.9290   48.0200 C   0  0  0  0  0  0  0  0  0  0  0  0
   50.2040   26.4670   46.7010 C   0  0  2  0  0  0  0  0  0  0  0  0
   50.7640   28.1630   47.8730 H   0  0  0  0  0  0  0  0  0  0  0  0
   48.6250   28.9830   45.9880 H   0  0  0  0  0  0  0  0  0  0  0  0
   48.7340   29.3140   47.7440 H   0  0  0  0  0  0  0  0  0  0  0  0
   46.9320   27.9500   47.6220 H   0  0  0  0  0  0  0  0  0  0  0  0
   47.5150   26.9160   46.2800 H   0  0  0  0  0  0  0  0  0  0  0  0
   47.5260   25.5610   48.1450 H   0  0  0  0  0  0  0  0  0  0  0  0
   48.1500   26.8600   49.2220 H   0  0  0  0  0  0  0  0  0  0  0  0
   50.3520   26.3330   48.8070 H   0  0  0  0  0  0  0  0  0  0  0  0
   49.7740   24.8310   48.0350 H   0  0  0  0  0  0  0  0  0  0  0  0
   49.4910   26.2940   45.8710 H   0  0  0  0  0  0  0  0  0  0  0  0
   51.8700   29.7270   43.5390 C   0  0  0  0  0  0  0  0  0  0  0  0
   52.6930   29.8870   44.6630 C   0  0  0  0  0  0  0  0  0  0  0  0
   52.2680   29.3490   45.8300 C   0  0  0  0  0  0  0  0  0  0  0  0
   51.0430   28.6620   45.8860 C   0  0  0  0  0  0  0  0  0  0  0  0
   50.4360   28.7760   44.1690 S   0  0  0  0  0  0  0  0  0  0  0  0
   53.6320   30.4160   44.6160 H   0  0  0  0  0  0  0  0  0  0  0  0
   52.7520   29.3650   46.7890 H   0  0  0  0  0  0  0  0  0  0  0  0
   53.4180   30.5130   40.2420 C   0  0  0  0  0  0  0  0  0  0  0  0
   52.4300   31.3960   39.7290 C   0  0  0  0  0  0  0  0  0  0  0  0
   51.3070   31.6770   40.5140 C   0  0  0  0  0  0  0  0  0  0  0  0
   51.2230   31.0800   41.7420 N   0  0  0  0  0  0  0  0  0  0  0  0
   52.1810   30.2460   42.1970 C   0  0  0  0  0  0  0  0  0  0  0  0
   53.2860   29.9540   41.4530 N   0  0  0  0  0  0  0  0  0  0  0  0
   54.2990   30.2760   39.6580 H   0  0  0  0  0  0  0  0  0  0  0  0
   52.5440   31.8370   38.7650 H   0  0  0  0  0  0  0  0  0  0  0  0
   50.5280   32.3430   40.1690 H   0  0  0  0  0  0  0  0  0  0  0  0
   51.5580   25.8870   46.3780 C   0  0  0  0  0  2  0  0  0  0  0  0
   52.2870   25.6440   47.6880 C   0  0  0  0  0  2  0  0  0  0  0  0
   51.5690   25.6640   48.5600 H   0  0  0  0  0  0  0  0  0  0  0  0
  1  2  1  0  0  0  0
  1  7  1  1  0  0  0
  2  3  1  0  0  0  0
  2  9  1  0  0  0  0
  3 10  1  0  0  0  0
  3  4  1  0  0  0  0
  4 13  1  0  0  0  0
  5 15  1  0  0  0  0
  5  4  1  0  0  0  0
  5 14  1  0  0  0  0
  6 16  1  6  0  0  0
  6  1  1  0  0  0  0
  6  5  1  0  0  0  0
  8  2  1  0  0  0  0
 11  3  1  0  0  0  0
 12  4  1  0  0  0  0
 17 21  1  0  0  0  0
 17 18  2  0  0  0  0
 18 19  1  0  0  0  0
 19 20  2  0  0  0  0
 19 23  1  0  0  0  0
 20  1  1  0  0  0  0
 21 20  1  0  0  0  0
 22 18  1  0  0  0  0
 24 29  1  0  0  0  0
 25 24  2  0  0  0  0
 25 26  1  0  0  0  0
 26 27  2  0  0  0  0
 27 28  1  0  0  0  0
 28 17  1  0  0  0  0
 29 28  2  0  0  0  0
 30 24  1  0  0  0  0
 31 25  1  0  0  0  0
 32 26  1  0  0  0  0
 33  6  1  0  0  0  0
 33 34  1  0  0  0  0
 34 35  1  0  0  0  0
M  END
>  <minimizedAffinity>
-2.01176929

>  <minimizedRMSD>
7.20228386

$$$$
