
 OpenBabel03252508203D

 28 29  0  0  0  0  0  0  0  0999 V2000
   44.5840   33.6900   41.1570 C   0  0  0  0  0  0  0  0  0  0  0  0
   44.0330   34.3340   41.8800 H   0  0  0  0  0  0  0  0  0  0  0  0
   44.5220   32.6480   41.5330 H   0  0  0  0  0  0  0  0  0  0  0  0
   45.9680   34.1800   41.0700 C   0  0  0  0  0  0  0  0  0  0  0  0
   46.8110   33.9820   39.9990 C   0  0  0  0  0  0  0  0  0  0  0  0
   48.0990   34.4360   39.9110 C   0  0  0  0  0  0  0  0  0  0  0  0
   48.5750   35.1520   41.0050 C   0  0  0  0  0  0  0  0  0  0  0  0
   47.7660   35.3720   42.0980 C   0  0  0  0  0  0  0  0  0  0  0  0
   46.4690   34.9040   42.1590 C   0  0  0  0  0  0  0  0  0  0  0  0
   46.4070   33.4190   39.1640 H   0  0  0  0  0  0  0  0  0  0  0  0
   48.7110   34.2510   39.0500 H   0  0  0  0  0  0  0  0  0  0  0  0
   49.6040   35.5070   40.9220 H   0  0  0  0  0  0  0  0  0  0  0  0
   48.2030   35.9390   42.9150 H   0  0  0  0  0  0  0  0  0  0  0  0
   45.6110   35.1460   43.3330 C   0  0  0  0  0  0  0  0  0  0  0  0
   45.0950   36.5580   43.3640 C   0  0  0  0  0  0  0  0  0  0  0  0
   45.8930   37.2830   43.6930 H   0  0  0  0  0  0  0  0  0  0  0  0
   43.8680   33.8520   39.8240 C   0  0  0  0  0  0  0  0  0  0  0  0
   43.7360   32.8870   39.3090 H   0  0  0  0  0  0  0  0  0  0  0  0
   44.4990   34.5510   39.2190 H   0  0  0  0  0  0  0  0  0  0  0  0
   41.0800   35.6560   41.5990 C   0  0  0  0  0  0  0  0  0  0  0  0
   42.2950   34.9720   41.3600 C   0  0  0  0  0  0  0  0  0  0  0  0
   42.5980   34.5660   40.0710 C   0  0  0  0  0  0  0  0  0  0  0  0
   41.6800   34.8630   39.1010 N   0  0  0  0  0  0  0  0  0  0  0  0
   40.5410   35.5080   39.3400 C   0  0  0  0  0  0  0  0  0  0  0  0
   40.2310   35.9090   40.5880 N   0  0  0  0  0  0  0  0  0  0  0  0
   40.7900   35.9940   42.5660 H   0  0  0  0  0  0  0  0  0  0  0  0
   42.9380   34.7960   42.2100 H   0  0  0  0  0  0  0  0  0  0  0  0
   39.8710   35.7050   38.5280 H   0  0  0  0  0  0  0  0  0  0  0  0
  1  3  1  0  0  0  0
  1  2  1  0  0  0  0
  4  1  1  0  0  0  0
  4  9  1  0  0  0  0
  5  4  2  0  0  0  0
  6  5  1  0  0  0  0
  6  7  2  0  0  0  0
  7  8  1  0  0  0  0
  8  9  2  0  0  0  0
  8 13  1  0  0  0  0
  9 14  1  0  0  0  0
 10  5  1  0  0  0  0
 11  6  1  0  0  0  0
 12  7  1  0  0  0  0
 14 15  1  0  0  0  0
 15 16  1  0  0  0  0
 17 22  1  0  0  0  0
 17  1  1  0  0  0  0
 18 17  1  0  0  0  0
 19 17  1  0  0  0  0
 20 26  1  0  0  0  0
 21 20  1  0  0  0  0
 21 27  1  0  0  0  0
 22 21  2  0  0  0  0
 23 24  2  0  0  0  0
 23 22  1  0  0  0  0
 24 25  1  0  0  0  0
 25 20  2  0  0  0  0
 28 24  1  0  0  0  0
M  END
>  <minimizedAffinity>
-4.96387529

>  <minimizedRMSD>
1.54564857

$$$$
