
 OpenBabel03252507443D

 25 26  0  0  0  0  0  0  0  0999 V2000
   38.7920   29.1920   42.9290 C   0  0  0  0  0  0  0  0  0  0  0  0
   39.3360   29.7650   43.6750 H   0  0  0  0  0  0  0  0  0  0  0  0
   39.6010   28.7170   42.2980 H   0  0  0  0  0  0  0  0  0  0  0  0
   38.0620   30.0650   41.9690 C   0  0  0  0  0  0  0  0  0  0  0  0
   38.7990   31.0910   41.3810 C   0  0  0  0  0  0  0  0  0  0  0  0
   38.1700   31.9400   40.4730 C   0  0  0  0  0  0  0  0  0  0  0  0
   36.8540   31.7310   40.1970 N   0  0  0  0  0  0  0  0  0  0  0  0
   36.1780   30.7220   40.7930 C   0  0  0  0  0  0  0  0  0  0  0  0
   36.7800   29.9200   41.6530 N   0  0  0  0  0  0  0  0  0  0  0  0
   38.7890   32.7180   40.0470 H   0  0  0  0  0  0  0  0  0  0  0  0
   35.1380   30.6670   40.4840 H   0  0  0  0  0  0  0  0  0  0  0  0
   40.5410   31.3180   41.7880 S   0  0  0  0  0  0  0  0  0  0  0  0
   41.2020   31.8200   40.6760 H   0  0  0  0  0  0  0  0  0  0  0  0
   37.9680   28.0770   43.4510 C   0  0  0  0  0  0  0  0  0  0  0  0
   37.9950   28.1370   44.5780 H   0  0  0  0  0  0  0  0  0  0  0  0
   36.9230   28.2160   43.0790 H   0  0  0  0  0  0  0  0  0  0  0  0
   38.4510   26.7170   43.1290 C   0  0  0  0  0  0  0  0  0  0  0  0
   39.6690   26.2170   43.6790 C   0  0  0  0  0  0  0  0  0  0  0  0
   39.7740   24.5150   42.9430 S   0  0  0  0  0  0  0  0  0  0  0  0
   38.1520   24.8000   42.0310 C   0  0  0  0  0  0  0  0  0  0  0  0
   37.8660   25.8460   42.3420 N   0  0  0  0  0  0  0  0  0  0  0  0
   40.3240   26.7580   44.3580 H   0  0  0  0  0  0  0  0  0  0  0  0
   37.6700   23.6230   41.1640 C   0  0  0  0  0  2  0  0  0  0  0  0
   36.3420   23.9450   40.5330 C   0  0  0  0  0  2  0  0  0  0  0  0
   35.5380   23.2480   40.8780 H   0  0  0  0  0  0  0  0  0  0  0  0
  1 14  1  0  0  0  0
  1  2  1  0  0  0  0
  3  1  1  0  0  0  0
  4  1  1  0  0  0  0
  5 12  1  0  0  0  0
  5  4  2  0  0  0  0
  6  5  1  0  0  0  0
  7  6  2  0  0  0  0
  7  8  1  0  0  0  0
  8  9  2  0  0  0  0
  9  4  1  0  0  0  0
 10  6  1  0  0  0  0
 11  8  1  0  0  0  0
 13 12  1  0  0  0  0
 14 15  1  0  0  0  0
 16 14  1  0  0  0  0
 17 14  1  0  0  0  0
 17 18  2  0  0  0  0
 18 22  1  0  0  0  0
 19 18  1  0  0  0  0
 20 21  2  0  0  0  0
 20 19  1  0  0  0  0
 21 17  1  0  0  0  0
 23 20  1  0  0  0  0
 24 25  1  0  0  0  0
 24 23  1  0  0  0  0
M  END
>  <minimizedAffinity>
-4.46950626

$$$$

 OpenBabel03252507443D

 25 26  0  0  0  0  0  0  0  0999 V2000
   37.1850   27.2330   42.8740 C   0  0  0  0  0  0  0  0  0  0  0  0
   36.3110   26.7010   43.2400 H   0  0  0  0  0  0  0  0  0  0  0  0
   36.9920   27.3610   41.7670 H   0  0  0  0  0  0  0  0  0  0  0  0
   38.4160   26.3970   42.9240 C   0  0  0  0  0  0  0  0  0  0  0  0
   38.4240   25.2570   42.1220 C   0  0  0  0  0  0  0  0  0  0  0  0
   39.5500   24.4370   42.1260 C   0  0  0  0  0  0  0  0  0  0  0  0
   40.6000   24.7840   42.9170 N   0  0  0  0  0  0  0  0  0  0  0  0
   40.5480   25.9000   43.6800 C   0  0  0  0  0  0  0  0  0  0  0  0
   39.4780   26.6750   43.6720 N   0  0  0  0  0  0  0  0  0  0  0  0
   39.5010   23.5660   41.4850 H   0  0  0  0  0  0  0  0  0  0  0  0
   41.4510   26.0590   44.2610 H   0  0  0  0  0  0  0  0  0  0  0  0
   36.9990   24.8500   41.0950 S   0  0  0  0  0  0  0  0  0  0  0  0
   37.4400   24.2070   39.9470 H   0  0  0  0  0  0  0  0  0  0  0  0
   37.3810   28.5980   43.4180 C   0  0  0  0  0  0  0  0  0  0  0  0
   36.3670   28.9810   43.7360 H   0  0  0  0  0  0  0  0  0  0  0  0
   38.0630   28.5230   44.3000 H   0  0  0  0  0  0  0  0  0  0  0  0
   37.8860   29.6040   42.4610 C   0  0  0  0  0  0  0  0  0  0  0  0
   39.2240   30.0950   42.5430 C   0  0  0  0  0  0  0  0  0  0  0  0
   39.2950   31.3060   41.1370 S   0  0  0  0  0  0  0  0  0  0  0  0
   37.5040   30.9220   40.7030 C   0  0  0  0  0  0  0  0  0  0  0  0
   37.2150   30.1510   41.4750 N   0  0  0  0  0  0  0  0  0  0  0  0
   39.9650   29.7870   43.2770 H   0  0  0  0  0  0  0  0  0  0  0  0
   36.9390   31.6970   39.5000 C   0  0  0  0  0  2  0  0  0  0  0  0
   37.3280   33.1490   39.5820 C   0  0  0  0  0  2  0  0  0  0  0  0
   36.4330   33.8150   39.6750 H   0  0  0  0  0  0  0  0  0  0  0  0
  1  4  1  0  0  0  0
  1  2  1  0  0  0  0
  1 14  1  0  0  0  0
  3  1  1  0  0  0  0
  4  9  1  0  0  0  0
  5  6  1  0  0  0  0
  5  4  2  0  0  0  0
  6  7  2  0  0  0  0
  7  8  1  0  0  0  0
  8 11  1  0  0  0  0
  9  8  2  0  0  0  0
 10  6  1  0  0  0  0
 12  5  1  0  0  0  0
 13 12  1  0  0  0  0
 14 15  1  0  0  0  0
 14 16  1  0  0  0  0
 17 18  2  0  0  0  0
 17 14  1  0  0  0  0
 18 22  1  0  0  0  0
 19 18  1  0  0  0  0
 20 19  1  0  0  0  0
 20 21  2  0  0  0  0
 21 17  1  0  0  0  0
 23 24  1  0  0  0  0
 23 20  1  0  0  0  0
 24 25  1  0  0  0  0
M  END
>  <minimizedAffinity>
-4.42013121

$$$$

 OpenBabel03252507443D

 25 26  0  0  0  0  0  0  0  0999 V2000
   38.7440   27.4110   43.5850 C   0  0  0  0  0  0  0  0  0  0  0  0
   39.7820   27.6980   43.4390 H   0  0  0  0  0  0  0  0  0  0  0  0
   38.6970   27.0740   44.6630 H   0  0  0  0  0  0  0  0  0  0  0  0
   38.3830   26.1890   42.8150 C   0  0  0  0  0  0  0  0  0  0  0  0
   39.4140   25.2840   42.5700 C   0  0  0  0  0  0  0  0  0  0  0  0
   39.1360   24.1210   41.8560 C   0  0  0  0  0  0  0  0  0  0  0  0
   37.8620   23.9150   41.4250 N   0  0  0  0  0  0  0  0  0  0  0  0
   36.8930   24.8220   41.6870 C   0  0  0  0  0  0  0  0  0  0  0  0
   37.1620   25.9230   42.3640 N   0  0  0  0  0  0  0  0  0  0  0  0
   39.9730   23.4550   41.6950 H   0  0  0  0  0  0  0  0  0  0  0  0
   35.9240   24.5350   41.2870 H   0  0  0  0  0  0  0  0  0  0  0  0
   41.0830   25.6140   43.1670 S   0  0  0  0  0  0  0  0  0  0  0  0
   41.7020   24.4070   43.4630 H   0  0  0  0  0  0  0  0  0  0  0  0
   37.7510   28.5030   43.4510 C   0  0  0  0  0  0  0  0  0  0  0  0
   36.8200   28.0560   42.9950 H   0  0  0  0  0  0  0  0  0  0  0  0
   37.5310   28.8970   44.4740 H   0  0  0  0  0  0  0  0  0  0  0  0
   38.1280   29.6070   42.5450 C   0  0  0  0  0  0  0  0  0  0  0  0
   39.4030   30.2420   42.6440 C   0  0  0  0  0  0  0  0  0  0  0  0
   39.3190   31.5230   41.3030 S   0  0  0  0  0  0  0  0  0  0  0  0
   37.5780   30.9610   40.8600 C   0  0  0  0  0  0  0  0  0  0  0  0
   37.3880   30.1240   41.5930 N   0  0  0  0  0  0  0  0  0  0  0  0
   40.1820   29.9830   43.3560 H   0  0  0  0  0  0  0  0  0  0  0  0
   36.9150   31.7270   39.7020 C   0  0  0  0  0  2  0  0  0  0  0  0
   37.4060   33.1500   39.6660 C   0  0  0  0  0  2  0  0  0  0  0  0
   36.5760   33.8800   39.8390 H   0  0  0  0  0  0  0  0  0  0  0  0
  1  3  1  0  0  0  0
  2  1  1  0  0  0  0
  4  1  1  0  0  0  0
  5  4  1  0  0  0  0
  5 12  1  0  0  0  0
  6  5  2  0  0  0  0
  7  8  2  0  0  0  0
  7  6  1  0  0  0  0
  8  9  1  0  0  0  0
  9  4  2  0  0  0  0
 10  6  1  0  0  0  0
 11  8  1  0  0  0  0
 12 13  1  0  0  0  0
 14  1  1  0  0  0  0
 14 16  1  0  0  0  0
 15 14  1  0  0  0  0
 17 18  2  0  0  0  0
 17 14  1  0  0  0  0
 18 22  1  0  0  0  0
 19 18  1  0  0  0  0
 20 19  1  0  0  0  0
 20 21  2  0  0  0  0
 21 17  1  0  0  0  0
 23 20  1  0  0  0  0
 24 23  1  0  0  0  0
 24 25  1  0  0  0  0
M  END
>  <minimizedAffinity>
-4.35661077

$$$$

 OpenBabel03252507443D

 25 26  0  0  0  0  0  0  0  0999 V2000
   36.6550   31.1300   39.6870 C   0  0  0  0  0  0  0  0  0  0  0  0
   36.8190   30.3460   38.9550 H   0  0  0  0  0  0  0  0  0  0  0  0
   35.7880   31.7250   39.2700 H   0  0  0  0  0  0  0  0  0  0  0  0
   37.7730   32.1130   39.7220 C   0  0  0  0  0  0  0  0  0  0  0  0
   38.9650   31.7160   39.1200 C   0  0  0  0  0  0  0  0  0  0  0  0
   40.0470   32.5940   39.1200 C   0  0  0  0  0  0  0  0  0  0  0  0
   39.8940   33.8090   39.7110 N   0  0  0  0  0  0  0  0  0  0  0  0
   38.7170   34.1510   40.2840 C   0  0  0  0  0  0  0  0  0  0  0  0
   37.6940   33.3150   40.2810 N   0  0  0  0  0  0  0  0  0  0  0  0
   40.9470   32.2340   38.6390 H   0  0  0  0  0  0  0  0  0  0  0  0
   38.7300   35.1470   40.7190 H   0  0  0  0  0  0  0  0  0  0  0  0
   39.1070   30.0900   38.3520 S   0  0  0  0  0  0  0  0  0  0  0  0
   39.9820   30.1740   37.2780 H   0  0  0  0  0  0  0  0  0  0  0  0
   36.2320   30.6750   41.0330 C   0  0  0  0  0  0  0  0  0  0  0  0
   36.5640   31.4610   41.7720 H   0  0  0  0  0  0  0  0  0  0  0  0
   35.1180   30.5860   41.0340 H   0  0  0  0  0  0  0  0  0  0  0  0
   36.8480   29.4190   41.5090 C   0  0  0  0  0  0  0  0  0  0  0  0
   37.7730   29.4150   42.5970 C   0  0  0  0  0  0  0  0  0  0  0  0
   38.2150   27.6180   42.7420 S   0  0  0  0  0  0  0  0  0  0  0  0
   37.0680   27.2090   41.3060 C   0  0  0  0  0  0  0  0  0  0  0  0
   36.6480   28.2170   41.0220 N   0  0  0  0  0  0  0  0  0  0  0  0
   38.0920   30.2910   43.1560 H   0  0  0  0  0  0  0  0  0  0  0  0
   37.0040   25.7210   40.9200 C   0  0  0  0  0  2  0  0  0  0  0  0
   37.0120   24.8580   42.1540 C   0  0  0  0  0  2  0  0  0  0  0  0
   37.9140   24.1980   42.1930 H   0  0  0  0  0  0  0  0  0  0  0  0
  1  4  1  0  0  0  0
  1 14  1  0  0  0  0
  2  1  1  0  0  0  0
  3  1  1  0  0  0  0
  4  9  1  0  0  0  0
  5  4  2  0  0  0  0
  6  5  1  0  0  0  0
  6  7  2  0  0  0  0
  7  8  1  0  0  0  0
  8 11  1  0  0  0  0
  9  8  2  0  0  0  0
 10  6  1  0  0  0  0
 12  5  1  0  0  0  0
 13 12  1  0  0  0  0
 14 16  1  0  0  0  0
 14 17  1  0  0  0  0
 14 15  1  0  0  0  0
 17 18  2  0  0  0  0
 18 19  1  0  0  0  0
 18 22  1  0  0  0  0
 20 19  1  0  0  0  0
 21 20  2  0  0  0  0
 21 17  1  0  0  0  0
 23 20  1  0  0  0  0
 23 24  1  0  0  0  0
 24 25  1  0  0  0  0
M  END
>  <minimizedAffinity>
-4.25238228

$$$$

 OpenBabel03252507443D

 25 26  0  0  0  0  0  0  0  0999 V2000
   36.5040   30.9290   40.8180 C   0  0  0  0  0  0  0  0  0  0  0  0
   35.8100   31.7360   41.0340 H   0  0  0  0  0  0  0  0  0  0  0  0
   37.2910   31.0130   41.6250 H   0  0  0  0  0  0  0  0  0  0  0  0
   37.2630   31.1610   39.5580 C   0  0  0  0  0  0  0  0  0  0  0  0
   38.5510   31.6730   39.6970 C   0  0  0  0  0  0  0  0  0  0  0  0
   39.3110   31.9090   38.5530 C   0  0  0  0  0  0  0  0  0  0  0  0
   38.7610   31.6290   37.3410 N   0  0  0  0  0  0  0  0  0  0  0  0
   37.5050   31.1320   37.2550 C   0  0  0  0  0  0  0  0  0  0  0  0
   36.7890   30.9100   38.3430 N   0  0  0  0  0  0  0  0  0  0  0  0
   40.3030   32.3070   38.7200 H   0  0  0  0  0  0  0  0  0  0  0  0
   37.1890   30.9530   36.2310 H   0  0  0  0  0  0  0  0  0  0  0  0
   39.2260   32.0260   41.3310 S   0  0  0  0  0  0  0  0  0  0  0  0
   40.5980   31.8160   41.3070 H   0  0  0  0  0  0  0  0  0  0  0  0
   35.9490   29.5590   40.9240 C   0  0  0  0  0  0  0  0  0  0  0  0
   34.9540   29.6390   41.4520 H   0  0  0  0  0  0  0  0  0  0  0  0
   35.8090   29.1620   39.8890 H   0  0  0  0  0  0  0  0  0  0  0  0
   36.7370   28.6090   41.7370 C   0  0  0  0  0  0  0  0  0  0  0  0
   37.5040   29.0530   42.8560 C   0  0  0  0  0  0  0  0  0  0  0  0
   38.2690   27.4770   43.4710 S   0  0  0  0  0  0  0  0  0  0  0  0
   37.4090   26.5140   42.1000 C   0  0  0  0  0  0  0  0  0  0  0  0
   36.8370   27.3150   41.5480 N   0  0  0  0  0  0  0  0  0  0  0  0
   37.5730   30.0810   43.2050 H   0  0  0  0  0  0  0  0  0  0  0  0
   37.6860   25.0000   42.0880 C   0  0  0  0  0  2  0  0  0  0  0  0
   36.6190   24.2780   41.3090 C   0  0  0  0  0  2  0  0  0  0  0  0
   36.0440   23.5670   41.9520 H   0  0  0  0  0  0  0  0  0  0  0  0
  1 14  1  0  0  0  0
  1  2  1  0  0  0  0
  1  3  1  0  0  0  0
  4  5  1  0  0  0  0
  4  1  1  0  0  0  0
  5 12  1  0  0  0  0
  6 10  1  0  0  0  0
  6  5  2  0  0  0  0
  7  6  1  0  0  0  0
  8  7  2  0  0  0  0
  8  9  1  0  0  0  0
  9  4  2  0  0  0  0
 11  8  1  0  0  0  0
 13 12  1  0  0  0  0
 14 15  1  0  0  0  0
 14 17  1  0  0  0  0
 16 14  1  0  0  0  0
 17 18  2  0  0  0  0
 18 22  1  0  0  0  0
 18 19  1  0  0  0  0
 20 19  1  0  0  0  0
 21 17  1  0  0  0  0
 21 20  2  0  0  0  0
 23 20  1  0  0  0  0
 24 25  1  0  0  0  0
 24 23  1  0  0  0  0
M  END
>  <minimizedAffinity>
-4.20654154

$$$$

 OpenBabel03252507443D

 25 26  0  0  0  0  0  0  0  0999 V2000
   38.5110   28.4780   42.8970 C   0  0  0  0  0  0  0  0  0  0  0  0
   39.0500   28.8110   43.7800 H   0  0  0  0  0  0  0  0  0  0  0  0
   39.3100   28.0330   42.2320 H   0  0  0  0  0  0  0  0  0  0  0  0
   37.9800   29.6170   42.0970 C   0  0  0  0  0  0  0  0  0  0  0  0
   38.8950   30.6110   41.7520 C   0  0  0  0  0  0  0  0  0  0  0  0
   38.4570   31.7000   41.0030 C   0  0  0  0  0  0  0  0  0  0  0  0
   37.1480   31.7500   40.6370 N   0  0  0  0  0  0  0  0  0  0  0  0
   36.2960   30.7620   40.9950 C   0  0  0  0  0  0  0  0  0  0  0  0
   36.7170   29.7310   41.7060 N   0  0  0  0  0  0  0  0  0  0  0  0
   39.2090   32.4410   40.7640 H   0  0  0  0  0  0  0  0  0  0  0  0
   35.2830   30.9250   40.6390 H   0  0  0  0  0  0  0  0  0  0  0  0
   40.6180   30.4880   42.2680 S   0  0  0  0  0  0  0  0  0  0  0  0
   41.4200   31.0840   41.3040 H   0  0  0  0  0  0  0  0  0  0  0  0
   37.5150   27.4040   43.1190 C   0  0  0  0  0  0  0  0  0  0  0  0
   37.6520   27.0320   44.1760 H   0  0  0  0  0  0  0  0  0  0  0  0
   36.4960   27.8460   42.9920 H   0  0  0  0  0  0  0  0  0  0  0  0
   37.6640   26.2040   42.2690 C   0  0  0  0  0  0  0  0  0  0  0  0
   38.6600   25.2200   42.5490 C   0  0  0  0  0  0  0  0  0  0  0  0
   38.3970   23.9840   41.1880 S   0  0  0  0  0  0  0  0  0  0  0  0
   36.9910   25.0290   40.4980 C   0  0  0  0  0  0  0  0  0  0  0  0
   36.9530   25.9040   41.2080 N   0  0  0  0  0  0  0  0  0  0  0  0
   39.3650   25.2540   43.3760 H   0  0  0  0  0  0  0  0  0  0  0  0
   36.3090   24.4630   39.2400 C   0  0  0  0  0  2  0  0  0  0  0  0
   35.3310   23.3810   39.6150 C   0  0  0  0  0  2  0  0  0  0  0  0
   35.6190   22.3910   39.1820 H   0  0  0  0  0  0  0  0  0  0  0  0
  1 14  1  0  0  0  0
  1  2  1  0  0  0  0
  3  1  1  0  0  0  0
  4  1  1  0  0  0  0
  5  4  1  0  0  0  0
  5 12  1  0  0  0  0
  6  5  2  0  0  0  0
  7  8  2  0  0  0  0
  7  6  1  0  0  0  0
  8  9  1  0  0  0  0
  9  4  2  0  0  0  0
 10  6  1  0  0  0  0
 11  8  1  0  0  0  0
 13 12  1  0  0  0  0
 14 15  1  0  0  0  0
 16 14  1  0  0  0  0
 17 18  2  0  0  0  0
 17 14  1  0  0  0  0
 18 22  1  0  0  0  0
 19 18  1  0  0  0  0
 20 19  1  0  0  0  0
 20 21  2  0  0  0  0
 21 17  1  0  0  0  0
 23 24  1  0  0  0  0
 23 20  1  0  0  0  0
 25 24  1  0  0  0  0
M  END
>  <minimizedAffinity>
-3.97495437

$$$$

 OpenBabel03252507443D

 25 26  0  0  0  0  0  0  0  0999 V2000
   38.3460   29.3970   43.0100 C   0  0  0  0  0  0  0  0  0  0  0  0
   37.7710   29.6680   43.8910 H   0  0  0  0  0  0  0  0  0  0  0  0
   37.6270   29.5490   42.1500 H   0  0  0  0  0  0  0  0  0  0  0  0
   38.6520   27.9400   42.9630 C   0  0  0  0  0  0  0  0  0  0  0  0
   37.8730   27.1720   42.1000 C   0  0  0  0  0  0  0  0  0  0  0  0
   38.1140   25.8030   42.0120 C   0  0  0  0  0  0  0  0  0  0  0  0
   39.1050   25.2700   42.7750 N   0  0  0  0  0  0  0  0  0  0  0  0
   39.8360   26.0550   43.5990 C   0  0  0  0  0  0  0  0  0  0  0  0
   39.6030   27.3530   43.6790 N   0  0  0  0  0  0  0  0  0  0  0  0
   37.4800   25.2550   41.3270 H   0  0  0  0  0  0  0  0  0  0  0  0
   40.5930   25.5040   44.1500 H   0  0  0  0  0  0  0  0  0  0  0  0
   36.5720   27.9370   41.1130 S   0  0  0  0  0  0  0  0  0  0  0  0
   36.4520   27.2480   39.9140 H   0  0  0  0  0  0  0  0  0  0  0  0
   39.5210   30.2520   42.7210 C   0  0  0  0  0  0  0  0  0  0  0  0
   39.6100   30.9980   43.5640 H   0  0  0  0  0  0  0  0  0  0  0  0
   40.4250   29.5960   42.6850 H   0  0  0  0  0  0  0  0  0  0  0  0
   39.4320   31.0720   41.4950 C   0  0  0  0  0  0  0  0  0  0  0  0
   40.4560   32.0070   41.1550 C   0  0  0  0  0  0  0  0  0  0  0  0
   39.8250   32.7360   39.5680 S   0  0  0  0  0  0  0  0  0  0  0  0
   38.2960   31.6410   39.6620 C   0  0  0  0  0  0  0  0  0  0  0  0
   38.4590   31.0580   40.6140 N   0  0  0  0  0  0  0  0  0  0  0  0
   41.3580   32.1920   41.7320 H   0  0  0  0  0  0  0  0  0  0  0  0
   37.2950   31.8100   38.5050 C   0  0  0  0  0  2  0  0  0  0  0  0
   36.6970   30.4790   38.1310 C   0  0  0  0  0  2  0  0  0  0  0  0
   36.9530   30.1900   37.0810 H   0  0  0  0  0  0  0  0  0  0  0  0
  1  2  1  0  0  0  0
  3  1  1  0  0  0  0
  4  1  1  0  0  0  0
  4  9  1  0  0  0  0
  5  4  2  0  0  0  0
  6  5  1  0  0  0  0
  6  7  2  0  0  0  0
  7  8  1  0  0  0  0
  8  9  2  0  0  0  0
  8 11  1  0  0  0  0
 10  6  1  0  0  0  0
 12  5  1  0  0  0  0
 13 12  1  0  0  0  0
 14  1  1  0  0  0  0
 14 15  1  0  0  0  0
 16 14  1  0  0  0  0
 17 14  1  0  0  0  0
 18 17  2  0  0  0  0
 18 22  1  0  0  0  0
 19 20  1  0  0  0  0
 19 18  1  0  0  0  0
 20 21  2  0  0  0  0
 21 17  1  0  0  0  0
 23 20  1  0  0  0  0
 24 23  1  0  0  0  0
 25 24  1  0  0  0  0
M  END
>  <minimizedAffinity>
-3.93258023

$$$$

 OpenBabel03252507443D

 25 26  0  0  0  0  0  0  0  0999 V2000
   37.0880   27.1750   42.9180 C   0  0  0  0  0  0  0  0  0  0  0  0
   36.3990   26.8740   43.7030 H   0  0  0  0  0  0  0  0  0  0  0  0
   36.5800   26.8530   41.9610 H   0  0  0  0  0  0  0  0  0  0  0  0
   38.3460   26.3790   42.9360 C   0  0  0  0  0  0  0  0  0  0  0  0
   38.3820   25.2600   42.1060 C   0  0  0  0  0  0  0  0  0  0  0  0
   39.5340   24.4770   42.0790 C   0  0  0  0  0  0  0  0  0  0  0  0
   40.5810   24.8380   42.8680 N   0  0  0  0  0  0  0  0  0  0  0  0
   40.5010   25.9340   43.6580 C   0  0  0  0  0  0  0  0  0  0  0  0
   39.4060   26.6730   43.6800 N   0  0  0  0  0  0  0  0  0  0  0  0
   39.5070   23.6210   41.4180 H   0  0  0  0  0  0  0  0  0  0  0  0
   41.4050   26.1080   44.2340 H   0  0  0  0  0  0  0  0  0  0  0  0
   36.9600   24.8310   41.0840 S   0  0  0  0  0  0  0  0  0  0  0  0
   37.4100   24.2300   39.9160 H   0  0  0  0  0  0  0  0  0  0  0  0
   37.3190   28.6340   42.7910 C   0  0  0  0  0  0  0  0  0  0  0  0
   36.6420   29.1470   43.5350 H   0  0  0  0  0  0  0  0  0  0  0  0
   38.3910   28.8360   43.0370 H   0  0  0  0  0  0  0  0  0  0  0  0
   36.9710   29.2270   41.4840 C   0  0  0  0  0  0  0  0  0  0  0  0
   37.2930   30.5850   41.1790 C   0  0  0  0  0  0  0  0  0  0  0  0
   36.6260   30.7790   39.4570 S   0  0  0  0  0  0  0  0  0  0  0  0
   36.0380   28.9910   39.4720 C   0  0  0  0  0  0  0  0  0  0  0  0
   36.3520   28.6290   40.4940 N   0  0  0  0  0  0  0  0  0  0  0  0
   37.8060   31.2750   41.8430 H   0  0  0  0  0  0  0  0  0  0  0  0
   35.3350   28.5200   38.1870 C   0  0  0  0  0  2  0  0  0  0  0  0
   35.7930   29.3390   37.0090 C   0  0  0  0  0  2  0  0  0  0  0  0
   34.9500   29.9140   36.5510 H   0  0  0  0  0  0  0  0  0  0  0  0
  1  4  1  0  0  0  0
  1  2  1  0  0  0  0
  3  1  1  0  0  0  0
  4  9  1  0  0  0  0
  5  4  2  0  0  0  0
  6  5  1  0  0  0  0
  6  7  2  0  0  0  0
  7  8  1  0  0  0  0
  8  9  2  0  0  0  0
  8 11  1  0  0  0  0
 10  6  1  0  0  0  0
 12  5  1  0  0  0  0
 13 12  1  0  0  0  0
 14  1  1  0  0  0  0
 14 16  1  0  0  0  0
 14 15  1  0  0  0  0
 17 14  1  0  0  0  0
 18 17  2  0  0  0  0
 18 22  1  0  0  0  0
 19 20  1  0  0  0  0
 19 18  1  0  0  0  0
 20 21  2  0  0  0  0
 21 17  1  0  0  0  0
 23 20  1  0  0  0  0
 24 23  1  0  0  0  0
 25 24  1  0  0  0  0
M  END
>  <minimizedAffinity>
-3.88429213

$$$$

 OpenBabel03252507443D

 25 26  0  0  0  0  0  0  0  0999 V2000
   39.3550   29.8870   39.8070 C   0  0  0  0  0  0  0  0  0  0  0  0
   39.8840   29.6100   38.8990 H   0  0  0  0  0  0  0  0  0  0  0  0
   38.3140   29.4700   39.6620 H   0  0  0  0  0  0  0  0  0  0  0  0
   39.1380   31.3560   39.9080 C   0  0  0  0  0  0  0  0  0  0  0  0
   37.8130   31.7890   39.8890 C   0  0  0  0  0  0  0  0  0  0  0  0
   37.5470   33.1530   39.9810 C   0  0  0  0  0  0  0  0  0  0  0  0
   38.5960   34.0110   40.0870 N   0  0  0  0  0  0  0  0  0  0  0  0
   39.8670   33.5450   40.1010 C   0  0  0  0  0  0  0  0  0  0  0  0
   40.1130   32.2510   40.0130 N   0  0  0  0  0  0  0  0  0  0  0  0
   36.5020   33.4320   39.9620 H   0  0  0  0  0  0  0  0  0  0  0  0
   40.6070   34.3350   40.1900 H   0  0  0  0  0  0  0  0  0  0  0  0
   36.4640   30.6010   39.7460 S   0  0  0  0  0  0  0  0  0  0  0  0
   35.3610   31.0870   40.4350 H   0  0  0  0  0  0  0  0  0  0  0  0
   39.8690   29.2830   41.0590 C   0  0  0  0  0  0  0  0  0  0  0  0
   40.6250   28.4970   40.7680 H   0  0  0  0  0  0  0  0  0  0  0  0
   40.3590   30.0910   41.6570 H   0  0  0  0  0  0  0  0  0  0  0  0
   38.8730   28.5670   41.8830 C   0  0  0  0  0  0  0  0  0  0  0  0
   38.2790   29.1830   43.0260 C   0  0  0  0  0  0  0  0  0  0  0  0
   37.1470   27.8530   43.6570 S   0  0  0  0  0  0  0  0  0  0  0  0
   37.6890   26.7150   42.2580 C   0  0  0  0  0  0  0  0  0  0  0  0
   38.4330   27.3460   41.6920 N   0  0  0  0  0  0  0  0  0  0  0  0
   38.4870   30.1900   43.3790 H   0  0  0  0  0  0  0  0  0  0  0  0
   37.0280   25.3260   42.2490 C   0  0  0  0  0  2  0  0  0  0  0  0
   38.0610   24.2540   42.0210 C   0  0  0  0  0  2  0  0  0  0  0  0
   37.8770   23.6940   41.0700 H   0  0  0  0  0  0  0  0  0  0  0  0
  1  4  1  0  0  0  0
  1 14  1  0  0  0  0
  2  1  1  0  0  0  0
  3  1  1  0  0  0  0
  4  9  1  0  0  0  0
  5  4  2  0  0  0  0
  5  6  1  0  0  0  0
  6  7  2  0  0  0  0
  7  8  1  0  0  0  0
  8 11  1  0  0  0  0
  9  8  2  0  0  0  0
 10  6  1  0  0  0  0
 12  5  1  0  0  0  0
 12 13  1  0  0  0  0
 14 16  1  0  0  0  0
 14 17  1  0  0  0  0
 15 14  1  0  0  0  0
 17 18  2  0  0  0  0
 18 22  1  0  0  0  0
 18 19  1  0  0  0  0
 20 19  1  0  0  0  0
 21 17  1  0  0  0  0
 21 20  2  0  0  0  0
 23 20  1  0  0  0  0
 24 23  1  0  0  0  0
 25 24  1  0  0  0  0
M  END
>  <minimizedAffinity>
-3.88056231

$$$$
