
 OpenBabel03252505023D

 28 29  0  0  1  0  0  0  0  0999 V2000
   46.4000   33.1160   46.3320 C   0  0  2  0  0  0  0  0  0  0  0  0
   46.9640   31.9030   45.6720 C   0  0  0  0  0  0  0  0  0  0  0  0
   46.1270   30.6890   45.7110 C   0  0  0  0  0  0  0  0  0  0  0  0
   45.8200   30.4430   47.1800 C   0  0  0  0  0  0  0  0  0  0  0  0
   44.9970   31.5030   47.7720 C   0  0  0  0  0  0  0  0  0  0  0  0
   45.3340   32.8930   47.2970 C   0  0  0  0  0  0  0  0  0  0  0  0
   47.2280   33.6700   46.8400 H   0  0  0  0  0  0  0  0  0  0  0  0
   47.9380   31.6570   46.1530 H   0  0  0  0  0  0  0  0  0  0  0  0
   47.2360   32.0930   44.6010 H   0  0  0  0  0  0  0  0  0  0  0  0
   46.7370   29.8230   45.3850 H   0  0  0  0  0  0  0  0  0  0  0  0
   45.1970   30.8080   45.1420 H   0  0  0  0  0  0  0  0  0  0  0  0
   45.1500   29.5430   47.1660 H   0  0  0  0  0  0  0  0  0  0  0  0
   46.7460   30.2720   47.7400 H   0  0  0  0  0  0  0  0  0  0  0  0
   44.1870   31.4700   48.4870 H   0  0  0  0  0  0  0  0  0  0  0  0
   44.5250   35.7070   44.4650 C   0  0  0  0  0  0  0  0  0  0  0  0
   45.1720   35.6730   43.2020 C   0  0  0  0  0  0  0  0  0  0  0  0
   46.2390   34.7610   43.0180 C   0  0  0  0  0  0  0  0  0  0  0  0
   46.5810   33.9680   44.0620 N   0  0  0  0  0  0  0  0  0  0  0  0
   45.9520   34.0220   45.2400 C   0  0  0  0  0  0  0  0  0  0  0  0
   44.9260   34.8830   45.4530 N   0  0  0  0  0  0  0  0  0  0  0  0
   43.7070   36.3910   44.6410 H   0  0  0  0  0  0  0  0  0  0  0  0
   44.8360   36.3330   42.4380 H   0  0  0  0  0  0  0  0  0  0  0  0
   46.9270   34.7070   41.7170 C   0  0  0  0  0  0  0  0  0  0  0  0
   48.2960   35.3660   41.7670 C   0  0  0  0  0  0  0  0  0  0  0  0
   48.9420   35.0470   40.9510 H   0  0  0  0  0  0  0  0  0  0  0  0
   44.6040   33.9990   47.7980 N   0  0  0  0  0  0  0  0  0  0  0  0
   44.9410   34.5800   48.6020 H   0  0  0  0  0  0  0  0  0  0  0  0
   43.6800   34.4420   47.5220 H   0  0  0  0  0  0  0  0  0  0  0  0
  1  7  1  1  0  0  0
  1  6  1  0  0  0  0
  2  3  1  0  0  0  0
  2  8  1  0  0  0  0
  2  1  1  0  0  0  0
  3  4  1  0  0  0  0
  4 13  1  0  0  0  0
  4  5  1  0  0  0  0
  5 14  1  0  0  0  0
  6  5  2  0  0  0  0
  6 26  1  0  0  0  0
  9  2  1  0  0  0  0
 10  3  1  0  0  0  0
 11  3  1  0  0  0  0
 12  4  1  0  0  0  0
 15 21  1  0  0  0  0
 15 20  1  0  0  0  0
 16 15  2  0  0  0  0
 17 16  1  0  0  0  0
 17 18  2  0  0  0  0
 18 19  1  0  0  0  0
 19 20  2  0  0  0  0
 19  1  1  0  0  0  0
 22 16  1  0  0  0  0
 23 24  1  0  0  0  0
 23 17  1  0  0  0  0
 25 24  1  0  0  0  0
 26 27  1  0  0  0  0
 28 26  1  0  0  0  0
M  END
>  <minimizedAffinity>
-5.60580587

>  <minimizedRMSD>
1.12246871

$$$$
