
 OpenBabel03252505373D

 27 28  0  0  0  0  0  0  0  0999 V2000
   38.1800   29.4070   41.6540 C   0  0  0  0  0  0  0  0  0  0  0  0
   39.0580   28.7760   42.5090 C   0  0  0  0  0  0  0  0  0  0  0  0
   38.6790   27.7000   43.3170 C   0  0  0  0  0  0  0  0  0  0  0  0
   37.3770   27.2490   43.2550 C   0  0  0  0  0  0  0  0  0  0  0  0
   36.4990   27.8750   42.4040 C   0  0  0  0  0  0  0  0  0  0  0  0
   36.8960   28.9400   41.6130 C   0  0  0  0  0  0  0  0  0  0  0  0
   40.0870   29.1140   42.5690 H   0  0  0  0  0  0  0  0  0  0  0  0
   39.4400   27.2500   43.9660 H   0  0  0  0  0  0  0  0  0  0  0  0
   37.0710   26.4130   43.8830 H   0  0  0  0  0  0  0  0  0  0  0  0
   35.4580   27.5490   42.3210 H   0  0  0  0  0  0  0  0  0  0  0  0
   39.7210   31.5450   38.9850 C   0  0  0  0  0  0  0  0  0  0  0  0
   39.2830   30.3640   39.6380 C   0  0  0  0  0  0  0  0  0  0  0  0
   38.6850   30.5120   40.8720 C   0  0  0  0  0  0  0  0  0  0  0  0
   38.5520   31.7590   41.3960 N   0  0  0  0  0  0  0  0  0  0  0  0
   38.9920   32.8660   40.7340 C   0  0  0  0  0  0  0  0  0  0  0  0
   39.5740   32.7490   39.5270 N   0  0  0  0  0  0  0  0  0  0  0  0
   38.8690   34.1600   41.3100 N   0  0  0  0  0  0  0  0  0  0  0  0
   40.2000   31.5060   38.0040 H   0  0  0  0  0  0  0  0  0  0  0  0
   37.9140   34.6060   41.2320 H   0  0  0  0  0  0  0  0  0  0  0  0
   39.8020   34.4380   41.7180 H   0  0  0  0  0  0  0  0  0  0  0  0
   39.5580   29.0420   39.0370 C   0  0  0  0  0  2  0  0  0  0  0  0
   39.1230   29.0530   37.6030 C   0  0  0  0  0  2  0  0  0  0  0  0
   39.9390   29.4250   36.9220 H   0  0  0  0  0  0  0  0  0  0  0  0
   35.9340   29.6190   40.7030 C   0  0  0  0  0  0  0  0  0  0  0  0
   35.7780   30.9300   41.1450 F   0  0  0  0  0  0  0  0  0  0  0  0
   34.7240   28.9580   40.7430 F   0  0  0  0  0  0  0  0  0  0  0  0
   36.3210   29.6400   39.3900 F   0  0  0  0  0  0  0  0  0  0  0  0
  1  2  1  0  0  0  0
  2  7  1  0  0  0  0
  2  3  2  0  0  0  0
  3  8  1  0  0  0  0
  4  3  1  0  0  0  0
  4  9  1  0  0  0  0
  5  4  2  0  0  0  0
  6  1  2  0  0  0  0
  6  5  1  0  0  0  0
 10  5  1  0  0  0  0
 11 16  2  0  0  0  0
 11 12  1  0  0  0  0
 12 13  2  0  0  0  0
 13 14  1  0  0  0  0
 13  1  1  0  0  0  0
 15 17  1  0  0  0  0
 15 14  2  0  0  0  0
 16 15  1  0  0  0  0
 17 20  1  0  0  0  0
 18 11  1  0  0  0  0
 19 17  1  0  0  0  0
 21 12  1  0  0  0  0
 22 21  1  0  0  0  0
 23 22  1  0  0  0  0
 24 26  1  0  0  0  0
 24 25  1  0  0  0  0
 24  6  1  0  0  0  0
 27 24  1  0  0  0  0
M  END
>  <minimizedAffinity>
-5.45064163

$$$$

 OpenBabel03252505373D

 27 28  0  0  0  0  0  0  0  0999 V2000
   38.9000   28.6090   41.6820 C   0  0  0  0  0  0  0  0  0  0  0  0
   40.2490   28.7990   41.8950 C   0  0  0  0  0  0  0  0  0  0  0  0
   40.9580   28.1120   42.8850 C   0  0  0  0  0  0  0  0  0  0  0  0
   40.2830   27.2080   43.6800 C   0  0  0  0  0  0  0  0  0  0  0  0
   38.9380   27.0170   43.4700 C   0  0  0  0  0  0  0  0  0  0  0  0
   38.2570   27.7080   42.4830 C   0  0  0  0  0  0  0  0  0  0  0  0
   40.7970   29.5020   41.2790 H   0  0  0  0  0  0  0  0  0  0  0  0
   42.0300   28.3170   42.9870 H   0  0  0  0  0  0  0  0  0  0  0  0
   40.8260   26.6710   44.4560 H   0  0  0  0  0  0  0  0  0  0  0  0
   38.3650   26.3080   44.0750 H   0  0  0  0  0  0  0  0  0  0  0  0
   37.4520   29.7820   38.4270 C   0  0  0  0  0  0  0  0  0  0  0  0
   38.0920   28.9120   39.3470 C   0  0  0  0  0  0  0  0  0  0  0  0
   38.2740   29.3790   40.6320 C   0  0  0  0  0  0  0  0  0  0  0  0
   37.8440   30.6300   40.9470 N   0  0  0  0  0  0  0  0  0  0  0  0
   37.2370   31.4320   40.0280 C   0  0  0  0  0  0  0  0  0  0  0  0
   37.0430   30.9990   38.7700 N   0  0  0  0  0  0  0  0  0  0  0  0
   36.8190   32.7480   40.3690 N   0  0  0  0  0  0  0  0  0  0  0  0
   37.2700   29.4790   37.3930 H   0  0  0  0  0  0  0  0  0  0  0  0
   35.9050   32.8150   40.8950 H   0  0  0  0  0  0  0  0  0  0  0  0
   37.5360   33.4340   40.0070 H   0  0  0  0  0  0  0  0  0  0  0  0
   38.6140   27.6080   38.8900 C   0  0  0  0  0  2  0  0  0  0  0  0
   39.7730   27.8370   37.9680 C   0  0  0  0  0  2  0  0  0  0  0  0
   40.7440   27.9190   38.5320 H   0  0  0  0  0  0  0  0  0  0  0  0
   36.7970   27.5020   42.2720 C   0  0  0  0  0  0  0  0  0  0  0  0
   36.2730   26.9340   43.4300 F   0  0  0  0  0  0  0  0  0  0  0  0
   36.6060   26.6560   41.2000 F   0  0  0  0  0  0  0  0  0  0  0  0
   36.1030   28.6480   41.9910 F   0  0  0  0  0  0  0  0  0  0  0  0
  1  2  2  0  0  0  0
  1  6  1  0  0  0  0
  2  3  1  0  0  0  0
  3  8  1  0  0  0  0
  3  4  2  0  0  0  0
  4  9  1  0  0  0  0
  5  4  1  0  0  0  0
  5 10  1  0  0  0  0
  6  5  2  0  0  0  0
  7  2  1  0  0  0  0
 11 16  2  0  0  0  0
 11 12  1  0  0  0  0
 12 13  2  0  0  0  0
 13 14  1  0  0  0  0
 13  1  1  0  0  0  0
 15 17  1  0  0  0  0
 15 14  2  0  0  0  0
 16 15  1  0  0  0  0
 17 19  1  0  0  0  0
 18 11  1  0  0  0  0
 20 17  1  0  0  0  0
 21 12  1  0  0  0  0
 22 23  1  0  0  0  0
 22 21  1  0  0  0  0
 24  6  1  0  0  0  0
 24 25  1  0  0  0  0
 26 24  1  0  0  0  0
 27 24  1  0  0  0  0
M  END
>  <minimizedAffinity>
-5.18118

$$$$

 OpenBabel03252505373D

 27 28  0  0  0  0  0  0  0  0999 V2000
   37.1880   27.4980   40.4400 C   0  0  0  0  0  0  0  0  0  0  0  0
   36.9400   26.2230   39.9780 C   0  0  0  0  0  0  0  0  0  0  0  0
   36.8360   25.1210   40.8320 C   0  0  0  0  0  0  0  0  0  0  0  0
   36.9850   25.3160   42.1900 C   0  0  0  0  0  0  0  0  0  0  0  0
   37.2320   26.5860   42.6530 C   0  0  0  0  0  0  0  0  0  0  0  0
   37.3310   27.6630   41.7890 C   0  0  0  0  0  0  0  0  0  0  0  0
   36.8160   26.0500   38.9150 H   0  0  0  0  0  0  0  0  0  0  0  0
   36.6320   24.1400   40.3860 H   0  0  0  0  0  0  0  0  0  0  0  0
   36.9080   24.4630   42.8630 H   0  0  0  0  0  0  0  0  0  0  0  0
   37.3540   26.7860   43.7220 H   0  0  0  0  0  0  0  0  0  0  0  0
   36.4500   30.3290   38.0920 C   0  0  0  0  0  0  0  0  0  0  0  0
   36.2020   29.3170   39.0550 C   0  0  0  0  0  0  0  0  0  0  0  0
   37.2790   28.5570   39.4620 C   0  0  0  0  0  0  0  0  0  0  0  0
   38.5030   28.8070   38.9260 N   0  0  0  0  0  0  0  0  0  0  0  0
   38.6940   29.7890   37.9990 C   0  0  0  0  0  0  0  0  0  0  0  0
   37.6600   30.5460   37.5900 N   0  0  0  0  0  0  0  0  0  0  0  0
   39.9760   30.0180   37.4290 N   0  0  0  0  0  0  0  0  0  0  0  0
   35.6460   30.9730   37.7260 H   0  0  0  0  0  0  0  0  0  0  0  0
   40.6470   30.5760   38.0230 H   0  0  0  0  0  0  0  0  0  0  0  0
   40.0060   29.5670   36.4740 H   0  0  0  0  0  0  0  0  0  0  0  0
   34.8210   29.0520   39.5090 C   0  0  0  0  0  2  0  0  0  0  0  0
   33.9480   28.8110   38.3160 C   0  0  0  0  0  2  0  0  0  0  0  0
   33.9520   27.7280   38.0080 H   0  0  0  0  0  0  0  0  0  0  0  0
   37.6120   29.0320   42.3010 C   0  0  0  0  0  0  0  0  0  0  0  0
   38.8530   29.4280   41.8090 F   0  0  0  0  0  0  0  0  0  0  0  0
   37.6330   29.0090   43.6790 F   0  0  0  0  0  0  0  0  0  0  0  0
   36.6780   29.9670   41.9430 F   0  0  0  0  0  0  0  0  0  0  0  0
  1  6  1  0  0  0  0
  2  1  2  0  0  0  0
  2  3  1  0  0  0  0
  3  4  2  0  0  0  0
  4  5  1  0  0  0  0
  4  9  1  0  0  0  0
  5 10  1  0  0  0  0
  6 24  1  0  0  0  0
  6  5  2  0  0  0  0
  7  2  1  0  0  0  0
  8  3  1  0  0  0  0
 11 12  1  0  0  0  0
 12 13  2  0  0  0  0
 12 21  1  0  0  0  0
 13  1  1  0  0  0  0
 14 13  1  0  0  0  0
 15 14  2  0  0  0  0
 16 15  1  0  0  0  0
 16 11  2  0  0  0  0
 17 15  1  0  0  0  0
 17 19  1  0  0  0  0
 18 11  1  0  0  0  0
 20 17  1  0  0  0  0
 22 21  1  0  0  0  0
 23 22  1  0  0  0  0
 24 26  1  0  0  0  0
 25 24  1  0  0  0  0
 27 24  1  0  0  0  0
M  END
>  <minimizedAffinity>
-5.18046808

$$$$

 OpenBabel03252505373D

 27 28  0  0  0  0  0  0  0  0999 V2000
   37.6850   29.2030   41.5220 C   0  0  0  0  0  0  0  0  0  0  0  0
   36.5660   28.4300   41.7470 C   0  0  0  0  0  0  0  0  0  0  0  0
   36.4750   27.5320   42.8140 C   0  0  0  0  0  0  0  0  0  0  0  0
   37.5440   27.4140   43.6770 C   0  0  0  0  0  0  0  0  0  0  0  0
   38.6620   28.1830   43.4570 C   0  0  0  0  0  0  0  0  0  0  0  0
   38.7300   29.0670   42.3930 C   0  0  0  0  0  0  0  0  0  0  0  0
   35.7140   28.5110   41.0820 H   0  0  0  0  0  0  0  0  0  0  0  0
   35.5470   26.9570   42.9260 H   0  0  0  0  0  0  0  0  0  0  0  0
   37.4840   26.7150   44.5100 H   0  0  0  0  0  0  0  0  0  0  0  0
   39.5310   28.1230   44.1180 H   0  0  0  0  0  0  0  0  0  0  0  0
   37.8730   30.6770   38.0780 C   0  0  0  0  0  0  0  0  0  0  0  0
   37.9420   29.6890   39.0950 C   0  0  0  0  0  0  0  0  0  0  0  0
   37.6660   30.0930   40.3840 C   0  0  0  0  0  0  0  0  0  0  0  0
   37.3520   31.3950   40.6160 N   0  0  0  0  0  0  0  0  0  0  0  0
   37.3020   32.3110   39.6070 C   0  0  0  0  0  0  0  0  0  0  0  0
   37.5630   31.9410   38.3410 N   0  0  0  0  0  0  0  0  0  0  0  0
   36.9990   33.6750   39.8720 N   0  0  0  0  0  0  0  0  0  0  0  0
   38.0760   30.4300   37.0330 H   0  0  0  0  0  0  0  0  0  0  0  0
   35.9750   33.8980   40.0020 H   0  0  0  0  0  0  0  0  0  0  0  0
   37.9010   34.2240   39.8830 H   0  0  0  0  0  0  0  0  0  0  0  0
   38.3870   28.3190   38.7650 C   0  0  0  0  0  2  0  0  0  0  0  0
   37.2280   27.5430   38.2170 C   0  0  0  0  0  2  0  0  0  0  0  0
   37.1280   27.6750   37.1030 H   0  0  0  0  0  0  0  0  0  0  0  0
   39.9500   29.8860   42.1550 C   0  0  0  0  0  0  0  0  0  0  0  0
   40.9740   29.3690   42.9440 F   0  0  0  0  0  0  0  0  0  0  0  0
   39.6960   31.1950   42.5070 F   0  0  0  0  0  0  0  0  0  0  0  0
   40.3670   29.9090   40.8520 F   0  0  0  0  0  0  0  0  0  0  0  0
  1  2  2  0  0  0  0
  1  6  1  0  0  0  0
  2  3  1  0  0  0  0
  3  8  1  0  0  0  0
  3  4  2  0  0  0  0
  4  9  1  0  0  0  0
  5  4  1  0  0  0  0
  5 10  1  0  0  0  0
  6  5  2  0  0  0  0
  7  2  1  0  0  0  0
 11 16  2  0  0  0  0
 11 12  1  0  0  0  0
 12 13  2  0  0  0  0
 13 14  1  0  0  0  0
 13  1  1  0  0  0  0
 15 17  1  0  0  0  0
 15 14  2  0  0  0  0
 16 15  1  0  0  0  0
 17 20  1  0  0  0  0
 17 19  1  0  0  0  0
 18 11  1  0  0  0  0
 21 12  1  0  0  0  0
 22 21  1  0  0  0  0
 23 22  1  0  0  0  0
 24  6  1  0  0  0  0
 24 26  1  0  0  0  0
 24 25  1  0  0  0  0
 27 24  1  0  0  0  0
M  END
>  <minimizedAffinity>
-5.10512543

$$$$

 OpenBabel03252505373D

 27 28  0  0  0  0  0  0  0  0999 V2000
   36.5820   30.1450   39.5380 C   0  0  0  0  0  0  0  0  0  0  0  0
   35.6360   29.6090   40.3850 C   0  0  0  0  0  0  0  0  0  0  0  0
   34.4710   28.9940   39.9180 C   0  0  0  0  0  0  0  0  0  0  0  0
   34.2580   28.9200   38.5570 C   0  0  0  0  0  0  0  0  0  0  0  0
   35.1980   29.4540   37.7100 C   0  0  0  0  0  0  0  0  0  0  0  0
   36.3460   30.0580   38.1950 C   0  0  0  0  0  0  0  0  0  0  0  0
   35.7870   29.6540   41.4580 H   0  0  0  0  0  0  0  0  0  0  0  0
   33.7700   28.5880   40.6580 H   0  0  0  0  0  0  0  0  0  0  0  0
   33.3510   28.4460   38.1840 H   0  0  0  0  0  0  0  0  0  0  0  0
   35.0710   29.4150   36.6240 H   0  0  0  0  0  0  0  0  0  0  0  0
   39.9560   30.8100   41.0350 C   0  0  0  0  0  0  0  0  0  0  0  0
   38.8930   30.0670   40.4600 C   0  0  0  0  0  0  0  0  0  0  0  0
   37.7440   30.7590   40.1370 C   0  0  0  0  0  0  0  0  0  0  0  0
   37.6870   32.0950   40.3830 N   0  0  0  0  0  0  0  0  0  0  0  0
   38.7340   32.7670   40.9410 C   0  0  0  0  0  0  0  0  0  0  0  0
   39.8660   32.1150   41.2620 N   0  0  0  0  0  0  0  0  0  0  0  0
   38.6450   34.1590   41.2180 N   0  0  0  0  0  0  0  0  0  0  0  0
   40.8980   30.3290   41.3130 H   0  0  0  0  0  0  0  0  0  0  0  0
   38.7940   34.7990   40.3910 H   0  0  0  0  0  0  0  0  0  0  0  0
   38.4430   34.2860   42.2470 H   0  0  0  0  0  0  0  0  0  0  0  0
   39.0080   28.6010   40.3190 C   0  0  0  0  0  2  0  0  0  0  0  0
   38.8800   27.9640   41.6690 C   0  0  0  0  0  2  0  0  0  0  0  0
   37.8040   27.7570   41.9320 H   0  0  0  0  0  0  0  0  0  0  0  0
   37.3530   30.6440   37.2680 C   0  0  0  0  0  0  0  0  0  0  0  0
   38.5660   29.9990   37.4890 F   0  0  0  0  0  0  0  0  0  0  0  0
   37.4790   31.9930   37.5260 F   0  0  0  0  0  0  0  0  0  0  0  0
   37.0290   30.5320   35.9430 F   0  0  0  0  0  0  0  0  0  0  0  0
  1 13  1  0  0  0  0
  1  2  1  0  0  0  0
  2  7  1  0  0  0  0
  3  2  2  0  0  0  0
  3  8  1  0  0  0  0
  4  3  1  0  0  0  0
  5  6  1  0  0  0  0
  5  4  2  0  0  0  0
  6  1  2  0  0  0  0
  9  4  1  0  0  0  0
 10  5  1  0  0  0  0
 11 16  1  0  0  0  0
 11 18  1  0  0  0  0
 12 11  2  0  0  0  0
 13 14  2  0  0  0  0
 13 12  1  0  0  0  0
 14 15  1  0  0  0  0
 15 17  1  0  0  0  0
 15 16  2  0  0  0  0
 17 20  1  0  0  0  0
 19 17  1  0  0  0  0
 21 12  1  0  0  0  0
 21 22  1  0  0  0  0
 22 23  1  0  0  0  0
 24 25  1  0  0  0  0
 24 26  1  0  0  0  0
 24  6  1  0  0  0  0
 27 24  1  0  0  0  0
M  END
>  <minimizedAffinity>
-5.10308361

$$$$

 OpenBabel03252505373D

 27 28  0  0  0  0  0  0  0  0999 V2000
   37.2550   26.6050   40.7080 C   0  0  0  0  0  0  0  0  0  0  0  0
   36.5950   25.8320   39.7750 C   0  0  0  0  0  0  0  0  0  0  0  0
   36.3800   24.4620   39.9520 C   0  0  0  0  0  0  0  0  0  0  0  0
   36.8440   23.8580   41.1020 C   0  0  0  0  0  0  0  0  0  0  0  0
   37.5020   24.6250   42.0330 C   0  0  0  0  0  0  0  0  0  0  0  0
   37.7030   25.9810   41.8380 C   0  0  0  0  0  0  0  0  0  0  0  0
   36.2200   26.2880   38.8670 H   0  0  0  0  0  0  0  0  0  0  0  0
   35.8420   23.9190   39.1650 H   0  0  0  0  0  0  0  0  0  0  0  0
   36.6840   22.7910   41.2470 H   0  0  0  0  0  0  0  0  0  0  0  0
   37.8840   24.1890   42.9610 H   0  0  0  0  0  0  0  0  0  0  0  0
   38.4590   29.9110   39.4110 C   0  0  0  0  0  0  0  0  0  0  0  0
   38.4300   28.5080   39.6160 C   0  0  0  0  0  0  0  0  0  0  0  0
   37.4220   28.0090   40.4140 C   0  0  0  0  0  0  0  0  0  0  0  0
   36.5240   28.8710   40.9590 N   0  0  0  0  0  0  0  0  0  0  0  0
   36.5930   30.2150   40.7370 C   0  0  0  0  0  0  0  0  0  0  0  0
   37.5640   30.7250   39.9590 N   0  0  0  0  0  0  0  0  0  0  0  0
   35.6610   31.1040   41.3390 N   0  0  0  0  0  0  0  0  0  0  0  0
   39.2260   30.3780   38.7870 H   0  0  0  0  0  0  0  0  0  0  0  0
   34.7190   31.1680   40.8660 H   0  0  0  0  0  0  0  0  0  0  0  0
   36.1180   31.5530   42.1790 H   0  0  0  0  0  0  0  0  0  0  0  0
   39.5050   27.6580   39.0620 C   0  0  0  0  0  2  0  0  0  0  0  0
   40.8330   28.2780   39.3750 C   0  0  0  0  0  2  0  0  0  0  0  0
   41.2210   27.9480   40.3800 H   0  0  0  0  0  0  0  0  0  0  0  0
   38.4290   26.8010   42.8480 C   0  0  0  0  0  0  0  0  0  0  0  0
   39.1310   25.9330   43.6800 F   0  0  0  0  0  0  0  0  0  0  0  0
   37.5180   27.5300   43.5830 F   0  0  0  0  0  0  0  0  0  0  0  0
   39.3060   27.7040   42.3120 F   0  0  0  0  0  0  0  0  0  0  0  0
  1  6  1  0  0  0  0
  2  3  1  0  0  0  0
  2  1  2  0  0  0  0
  3  4  2  0  0  0  0
  4  9  1  0  0  0  0
  4  5  1  0  0  0  0
  5 10  1  0  0  0  0
  6  5  2  0  0  0  0
  6 24  1  0  0  0  0
  7  2  1  0  0  0  0
  8  3  1  0  0  0  0
 11 12  2  0  0  0  0
 11 16  1  0  0  0  0
 12 13  1  0  0  0  0
 13  1  1  0  0  0  0
 13 14  2  0  0  0  0
 15 14  1  0  0  0  0
 15 17  1  0  0  0  0
 16 15  2  0  0  0  0
 17 20  1  0  0  0  0
 18 11  1  0  0  0  0
 19 17  1  0  0  0  0
 21 22  1  0  0  0  0
 21 12  1  0  0  0  0
 22 23  1  0  0  0  0
 24 26  1  0  0  0  0
 24 25  1  0  0  0  0
 27 24  1  0  0  0  0
M  END
>  <minimizedAffinity>
-5.05783939

$$$$

 OpenBabel03252505373D

 27 28  0  0  0  0  0  0  0  0999 V2000
   38.5490   27.4880   41.2710 C   0  0  0  0  0  0  0  0  0  0  0  0
   39.4190   26.6660   40.5850 C   0  0  0  0  0  0  0  0  0  0  0  0
   39.3360   25.2720   40.6380 C   0  0  0  0  0  0  0  0  0  0  0  0
   38.3470   24.6940   41.4060 C   0  0  0  0  0  0  0  0  0  0  0  0
   37.4790   25.5090   42.0920 C   0  0  0  0  0  0  0  0  0  0  0  0
   37.5790   26.8880   42.0230 C   0  0  0  0  0  0  0  0  0  0  0  0
   40.2010   27.1020   39.9730 H   0  0  0  0  0  0  0  0  0  0  0  0
   40.0630   24.6900   40.0590 H   0  0  0  0  0  0  0  0  0  0  0  0
   38.2770   23.6080   41.4570 H   0  0  0  0  0  0  0  0  0  0  0  0
   36.6780   25.0930   42.7100 H   0  0  0  0  0  0  0  0  0  0  0  0
   38.3750   31.0770   40.1960 C   0  0  0  0  0  0  0  0  0  0  0  0
   38.0990   29.6850   40.1920 C   0  0  0  0  0  0  0  0  0  0  0  0
   38.7360   28.9140   41.1420 C   0  0  0  0  0  0  0  0  0  0  0  0
   39.5860   29.5140   42.0180 N   0  0  0  0  0  0  0  0  0  0  0  0
   39.8240   30.8550   41.9810 C   0  0  0  0  0  0  0  0  0  0  0  0
   39.2120   31.6290   41.0670 N   0  0  0  0  0  0  0  0  0  0  0  0
   40.7380   31.4610   42.8870 N   0  0  0  0  0  0  0  0  0  0  0  0
   37.9050   31.7500   39.4750 H   0  0  0  0  0  0  0  0  0  0  0  0
   40.3640   31.6470   43.8570 H   0  0  0  0  0  0  0  0  0  0  0  0
   41.6540   31.6180   42.3860 H   0  0  0  0  0  0  0  0  0  0  0  0
   37.2360   29.1060   39.1410 C   0  0  0  0  0  2  0  0  0  0  0  0
   36.5110   30.2110   38.4350 C   0  0  0  0  0  2  0  0  0  0  0  0
   37.1150   30.6240   37.5780 H   0  0  0  0  0  0  0  0  0  0  0  0
   36.6410   27.7620   42.7800 C   0  0  0  0  0  0  0  0  0  0  0  0
   35.9410   26.9630   43.6800 F   0  0  0  0  0  0  0  0  0  0  0  0
   35.7660   28.3630   41.8990 F   0  0  0  0  0  0  0  0  0  0  0  0
   37.2500   28.7740   43.4720 F   0  0  0  0  0  0  0  0  0  0  0  0
  1  6  1  0  0  0  0
  2  3  1  0  0  0  0
  2  1  2  0  0  0  0
  3  4  2  0  0  0  0
  4  9  1  0  0  0  0
  4  5  1  0  0  0  0
  5 10  1  0  0  0  0
  6  5  2  0  0  0  0
  6 24  1  0  0  0  0
  7  2  1  0  0  0  0
  8  3  1  0  0  0  0
 11 16  1  0  0  0  0
 12 11  2  0  0  0  0
 12 13  1  0  0  0  0
 13  1  1  0  0  0  0
 13 14  2  0  0  0  0
 15 14  1  0  0  0  0
 15 17  1  0  0  0  0
 16 15  2  0  0  0  0
 17 19  1  0  0  0  0
 18 11  1  0  0  0  0
 20 17  1  0  0  0  0
 21 12  1  0  0  0  0
 22 21  1  0  0  0  0
 23 22  1  0  0  0  0
 24 27  1  0  0  0  0
 24 25  1  0  0  0  0
 26 24  1  0  0  0  0
M  END
>  <minimizedAffinity>
-5.03326654

$$$$

 OpenBabel03252505373D

 27 28  0  0  0  0  0  0  0  0999 V2000
   37.1860   30.2720   38.6110 C   0  0  0  0  0  0  0  0  0  0  0  0
   37.5160   30.3500   37.2740 C   0  0  0  0  0  0  0  0  0  0  0  0
   36.6880   29.8510   36.2640 C   0  0  0  0  0  0  0  0  0  0  0  0
   35.4930   29.2600   36.6170 C   0  0  0  0  0  0  0  0  0  0  0  0
   35.1600   29.1800   37.9480 C   0  0  0  0  0  0  0  0  0  0  0  0
   35.9960   29.6820   38.9310 C   0  0  0  0  0  0  0  0  0  0  0  0
   38.4500   30.8140   36.9770 H   0  0  0  0  0  0  0  0  0  0  0  0
   37.0210   29.9570   35.2250 H   0  0  0  0  0  0  0  0  0  0  0  0
   34.8420   28.8650   35.8380 H   0  0  0  0  0  0  0  0  0  0  0  0
   34.2210   28.7220   38.2720 H   0  0  0  0  0  0  0  0  0  0  0  0
   40.0150   30.7760   41.0210 C   0  0  0  0  0  0  0  0  0  0  0  0
   39.1710   30.1000   40.1030 C   0  0  0  0  0  0  0  0  0  0  0  0
   38.1230   30.8180   39.5640 C   0  0  0  0  0  0  0  0  0  0  0  0
   37.9520   32.1150   39.9360 N   0  0  0  0  0  0  0  0  0  0  0  0
   38.7870   32.7220   40.8250 C   0  0  0  0  0  0  0  0  0  0  0  0
   39.8180   32.0440   41.3610 N   0  0  0  0  0  0  0  0  0  0  0  0
   38.5760   34.0710   41.2240 N   0  0  0  0  0  0  0  0  0  0  0  0
   40.8670   30.2720   41.4850 H   0  0  0  0  0  0  0  0  0  0  0  0
   38.9130   34.8060   40.5450 H   0  0  0  0  0  0  0  0  0  0  0  0
   38.1040   34.0730   42.1690 H   0  0  0  0  0  0  0  0  0  0  0  0
   39.3750   28.6610   39.8320 C   0  0  0  0  0  2  0  0  0  0  0  0
   39.7540   27.9700   41.1060 C   0  0  0  0  0  2  0  0  0  0  0  0
   38.8480   27.6340   41.6840 H   0  0  0  0  0  0  0  0  0  0  0  0
   35.6310   29.5800   40.3710 C   0  0  0  0  0  0  0  0  0  0  0  0
   36.4700   28.6370   40.9600 F   0  0  0  0  0  0  0  0  0  0  0  0
   34.3160   29.1800   40.4820 F   0  0  0  0  0  0  0  0  0  0  0  0
   35.7380   30.7560   41.0620 F   0  0  0  0  0  0  0  0  0  0  0  0
  1  6  1  0  0  0  0
  1 13  1  0  0  0  0
  2  1  2  0  0  0  0
  3  4  2  0  0  0  0
  3  2  1  0  0  0  0
  4  5  1  0  0  0  0
  5 10  1  0  0  0  0
  5  6  2  0  0  0  0
  6 24  1  0  0  0  0
  7  2  1  0  0  0  0
  8  3  1  0  0  0  0
  9  4  1  0  0  0  0
 11 16  1  0  0  0  0
 11 18  1  0  0  0  0
 12 11  2  0  0  0  0
 13 14  2  0  0  0  0
 13 12  1  0  0  0  0
 14 15  1  0  0  0  0
 15 17  1  0  0  0  0
 15 16  2  0  0  0  0
 17 20  1  0  0  0  0
 19 17  1  0  0  0  0
 21 12  1  0  0  0  0
 21 22  1  0  0  0  0
 22 23  1  0  0  0  0
 24 26  1  0  0  0  0
 24 25  1  0  0  0  0
 24 27  1  0  0  0  0
M  END
>  <minimizedAffinity>
-4.97116089

$$$$

 OpenBabel03252505373D

 27 28  0  0  0  0  0  0  0  0999 V2000
   38.3950   29.2430   40.2190 C   0  0  0  0  0  0  0  0  0  0  0  0
   39.2120   28.1470   40.4000 C   0  0  0  0  0  0  0  0  0  0  0  0
   38.7170   26.8930   40.7710 C   0  0  0  0  0  0  0  0  0  0  0  0
   37.3590   26.7450   40.9620 C   0  0  0  0  0  0  0  0  0  0  0  0
   36.5410   27.8350   40.7830 C   0  0  0  0  0  0  0  0  0  0  0  0
   37.0530   29.0670   40.4150 C   0  0  0  0  0  0  0  0  0  0  0  0
   40.2810   28.2430   40.2510 H   0  0  0  0  0  0  0  0  0  0  0  0
   39.4330   26.0710   40.8900 H   0  0  0  0  0  0  0  0  0  0  0  0
   36.9640   25.7730   41.2550 H   0  0  0  0  0  0  0  0  0  0  0  0
   35.4590   27.7610   40.9210 H   0  0  0  0  0  0  0  0  0  0  0  0
   40.1780   32.5420   40.2170 C   0  0  0  0  0  0  0  0  0  0  0  0
   39.5920   31.3620   40.7420 C   0  0  0  0  0  0  0  0  0  0  0  0
   39.0210   30.4880   39.8400 C   0  0  0  0  0  0  0  0  0  0  0  0
   39.0430   30.7980   38.5160 N   0  0  0  0  0  0  0  0  0  0  0  0
   39.6150   31.9470   38.0580 C   0  0  0  0  0  0  0  0  0  0  0  0
   40.1820   32.8130   38.9170 N   0  0  0  0  0  0  0  0  0  0  0  0
   39.6030   32.2680   36.6730 N   0  0  0  0  0  0  0  0  0  0  0  0
   40.6530   33.2780   40.8720 H   0  0  0  0  0  0  0  0  0  0  0  0
   40.3330   31.7800   36.0850 H   0  0  0  0  0  0  0  0  0  0  0  0
   38.8340   32.9700   36.4960 H   0  0  0  0  0  0  0  0  0  0  0  0
   39.5280   31.1550   42.2040 C   0  0  0  0  0  2  0  0  0  0  0  0
   40.8940   30.8050   42.7120 C   0  0  0  0  0  2  0  0  0  0  0  0
   41.4920   31.7250   42.9650 H   0  0  0  0  0  0  0  0  0  0  0  0
   36.1600   30.2450   40.2350 C   0  0  0  0  0  0  0  0  0  0  0  0
   36.3860   31.1200   41.2940 F   0  0  0  0  0  0  0  0  0  0  0  0
   34.8470   29.8260   40.2380 F   0  0  0  0  0  0  0  0  0  0  0  0
   36.3490   30.9190   39.0590 F   0  0  0  0  0  0  0  0  0  0  0  0
  1  2  2  0  0  0  0
  1  6  1  0  0  0  0
  2  3  1  0  0  0  0
  3  8  1  0  0  0  0
  3  4  2  0  0  0  0
  4  9  1  0  0  0  0
  5 10  1  0  0  0  0
  5  4  1  0  0  0  0
  6  5  2  0  0  0  0
  7  2  1  0  0  0  0
 11 12  1  0  0  0  0
 11 18  1  0  0  0  0
 12 21  1  0  0  0  0
 13  1  1  0  0  0  0
 13 12  2  0  0  0  0
 14 13  1  0  0  0  0
 15 14  2  0  0  0  0
 15 16  1  0  0  0  0
 16 11  2  0  0  0  0
 17 15  1  0  0  0  0
 19 17  1  0  0  0  0
 20 17  1  0  0  0  0
 21 22  1  0  0  0  0
 22 23  1  0  0  0  0
 24 26  1  0  0  0  0
 24  6  1  0  0  0  0
 24 25  1  0  0  0  0
 27 24  1  0  0  0  0
M  END
>  <minimizedAffinity>
-4.96411657

$$$$
