
 OpenBabel03252507273D

 21 22  0  0  0  0  0  0  0  0999 V2000
   37.2240   27.1320   41.5070 C   0  0  0  0  0  0  0  0  0  0  0  0
   37.2450   26.9680   42.9000 C   0  0  0  0  0  0  0  0  0  0  0  0
   37.4660   28.1050   43.6780 C   0  0  0  0  0  0  0  0  0  0  0  0
   37.6490   29.3120   43.0480 N   0  0  0  0  0  0  0  0  0  0  0  0
   37.6190   29.4110   41.7020 C   0  0  0  0  0  0  0  0  0  0  0  0
   37.4100   28.3390   40.9450 N   0  0  0  0  0  0  0  0  0  0  0  0
   37.1080   26.0480   43.4140 H   0  0  0  0  0  0  0  0  0  0  0  0
   37.5070   28.1250   44.7420 H   0  0  0  0  0  0  0  0  0  0  0  0
   37.8190   30.7160   41.0810 C   0  0  0  0  0  0  0  0  0  0  0  0
   36.9460   31.1590   40.1030 C   0  0  0  0  0  0  0  0  0  0  0  0
   37.0350   32.3660   39.4490 C   0  0  0  0  0  0  0  0  0  0  0  0
   38.1120   33.1520   39.8550 C   0  0  0  0  0  0  0  0  0  0  0  0
   39.0000   32.7240   40.8350 C   0  0  0  0  0  0  0  0  0  0  0  0
   38.8410   31.5080   41.4360 N   0  0  0  0  0  0  0  0  0  0  0  0
   36.1310   30.5020   39.8340 H   0  0  0  0  0  0  0  0  0  0  0  0
   36.3230   32.6440   38.7030 H   0  0  0  0  0  0  0  0  0  0  0  0
   38.2460   34.1170   39.3830 H   0  0  0  0  0  0  0  0  0  0  0  0
   39.8140   33.3910   41.0970 H   0  0  0  0  0  0  0  0  0  0  0  0
   36.9850   25.8870   40.7280 C   0  0  0  0  0  2  0  0  0  0  0  0
   36.9400   24.6540   41.5750 C   0  0  0  0  0  2  0  0  0  0  0  0
   36.4360   23.8550   40.9650 H   0  0  0  0  0  0  0  0  0  0  0  0
  1  2  1  0  0  0  0
  2  7  1  0  0  0  0
  2  3  2  0  0  0  0
  3  8  1  0  0  0  0
  4  3  1  0  0  0  0
  5  4  2  0  0  0  0
  6  1  2  0  0  0  0
  6  5  1  0  0  0  0
  9 14  1  0  0  0  0
  9  5  1  0  0  0  0
 10  9  2  0  0  0  0
 11 12  2  0  0  0  0
 11 10  1  0  0  0  0
 12 13  1  0  0  0  0
 13 18  1  0  0  0  0
 13 14  2  0  0  0  0
 15 10  1  0  0  0  0
 16 11  1  0  0  0  0
 17 12  1  0  0  0  0
 19  1  1  0  0  0  0
 19 20  1  0  0  0  0
 21 20  1  0  0  0  0
M  END
>  <minimizedAffinity>
-4.42217445

$$$$

 OpenBabel03252507273D

 21 22  0  0  0  0  0  0  0  0999 V2000
   37.7590   28.2200   42.4510 C   0  0  0  0  0  0  0  0  0  0  0  0
   36.9630   27.4190   41.6180 C   0  0  0  0  0  0  0  0  0  0  0  0
   36.4640   28.0010   40.4520 C   0  0  0  0  0  0  0  0  0  0  0  0
   36.7730   29.3120   40.1830 N   0  0  0  0  0  0  0  0  0  0  0  0
   37.5440   30.0360   41.0220 C   0  0  0  0  0  0  0  0  0  0  0  0
   38.0280   29.4990   42.1370 N   0  0  0  0  0  0  0  0  0  0  0  0
   36.7080   26.4040   41.8010 H   0  0  0  0  0  0  0  0  0  0  0  0
   35.8500   27.5100   39.7330 H   0  0  0  0  0  0  0  0  0  0  0  0
   37.8440   31.4250   40.6910 C   0  0  0  0  0  0  0  0  0  0  0  0
   37.0340   32.1170   39.8080 C   0  0  0  0  0  0  0  0  0  0  0  0
   37.2180   33.4250   39.4230 C   0  0  0  0  0  0  0  0  0  0  0  0
   38.3260   34.0370   40.0080 C   0  0  0  0  0  0  0  0  0  0  0  0
   39.1500   33.3590   40.8970 C   0  0  0  0  0  0  0  0  0  0  0  0
   38.8980   32.0570   41.2280 N   0  0  0  0  0  0  0  0  0  0  0  0
   36.1920   31.5850   39.3900 H   0  0  0  0  0  0  0  0  0  0  0  0
   36.5510   33.8970   38.7360 H   0  0  0  0  0  0  0  0  0  0  0  0
   38.5340   35.0680   39.7520 H   0  0  0  0  0  0  0  0  0  0  0  0
   39.9940   33.9020   41.3110 H   0  0  0  0  0  0  0  0  0  0  0  0
   38.2630   27.5470   43.6790 C   0  0  0  0  0  2  0  0  0  0  0  0
   39.2850   26.4910   43.4030 C   0  0  0  0  0  2  0  0  0  0  0  0
   39.8260   26.2960   44.3700 H   0  0  0  0  0  0  0  0  0  0  0  0
  1 19  1  0  0  0  0
  2  7  1  0  0  0  0
  2  1  2  0  0  0  0
  3  2  1  0  0  0  0
  4  3  2  0  0  0  0
  4  5  1  0  0  0  0
  5  6  2  0  0  0  0
  6  1  1  0  0  0  0
  8  3  1  0  0  0  0
  9  5  1  0  0  0  0
  9 14  1  0  0  0  0
 10  9  2  0  0  0  0
 11 10  1  0  0  0  0
 11 12  2  0  0  0  0
 12 13  1  0  0  0  0
 13 14  2  0  0  0  0
 13 18  1  0  0  0  0
 15 10  1  0  0  0  0
 16 11  1  0  0  0  0
 17 12  1  0  0  0  0
 20 19  1  0  0  0  0
 20 21  1  0  0  0  0
M  END
>  <minimizedAffinity>
-4.36530876

$$$$

 OpenBabel03252507273D

 21 22  0  0  0  0  0  0  0  0999 V2000
   37.2650   26.8790   41.4860 C   0  0  0  0  0  0  0  0  0  0  0  0
   37.3110   27.0510   42.8780 C   0  0  0  0  0  0  0  0  0  0  0  0
   37.3610   28.3590   43.3630 C   0  0  0  0  0  0  0  0  0  0  0  0
   37.3620   29.3980   42.4640 N   0  0  0  0  0  0  0  0  0  0  0  0
   37.3170   29.1720   41.1340 C   0  0  0  0  0  0  0  0  0  0  0  0
   37.2700   27.9340   40.6540 N   0  0  0  0  0  0  0  0  0  0  0  0
   37.3120   26.2680   43.5960 H   0  0  0  0  0  0  0  0  0  0  0  0
   37.3990   28.6330   44.3910 H   0  0  0  0  0  0  0  0  0  0  0  0
   37.3210   30.3090   40.2200 C   0  0  0  0  0  0  0  0  0  0  0  0
   37.3690   31.5990   40.7190 C   0  0  0  0  0  0  0  0  0  0  0  0
   37.3770   32.7440   39.9560 C   0  0  0  0  0  0  0  0  0  0  0  0
   37.3310   32.5100   38.5830 C   0  0  0  0  0  0  0  0  0  0  0  0
   37.2820   31.2230   38.0630 C   0  0  0  0  0  0  0  0  0  0  0  0
   37.2770   30.1360   38.8910 N   0  0  0  0  0  0  0  0  0  0  0  0
   37.4030   31.7120   41.7930 H   0  0  0  0  0  0  0  0  0  0  0  0
   37.4160   33.7100   40.4100 H   0  0  0  0  0  0  0  0  0  0  0  0
   37.3340   33.3650   37.9190 H   0  0  0  0  0  0  0  0  0  0  0  0
   37.2480   31.1210   36.9830 H   0  0  0  0  0  0  0  0  0  0  0  0
   37.2140   25.4640   41.0270 C   0  0  0  0  0  2  0  0  0  0  0  0
   36.8540   24.4990   42.1110 C   0  0  0  0  0  2  0  0  0  0  0  0
   36.5210   23.5500   41.6080 H   0  0  0  0  0  0  0  0  0  0  0  0
  1  2  1  0  0  0  0
  2  3  2  0  0  0  0
  2  7  1  0  0  0  0
  3  8  1  0  0  0  0
  4  3  1  0  0  0  0
  5  4  2  0  0  0  0
  6  5  1  0  0  0  0
  6  1  2  0  0  0  0
  9 10  1  0  0  0  0
  9  5  1  0  0  0  0
 10 15  1  0  0  0  0
 11 16  1  0  0  0  0
 11 10  2  0  0  0  0
 12 11  1  0  0  0  0
 13 12  2  0  0  0  0
 13 14  1  0  0  0  0
 14  9  2  0  0  0  0
 17 12  1  0  0  0  0
 18 13  1  0  0  0  0
 19  1  1  0  0  0  0
 19 20  1  0  0  0  0
 21 20  1  0  0  0  0
M  END
>  <minimizedAffinity>
-4.31143427

$$$$

 OpenBabel03252507273D

 21 22  0  0  0  0  0  0  0  0999 V2000
   37.3140   30.8930   38.2770 C   0  0  0  0  0  0  0  0  0  0  0  0
   37.2760   32.2650   38.5700 C   0  0  0  0  0  0  0  0  0  0  0  0
   37.3780   32.6390   39.9110 C   0  0  0  0  0  0  0  0  0  0  0  0
   37.5090   31.6570   40.8630 N   0  0  0  0  0  0  0  0  0  0  0  0
   37.5390   30.3510   40.5220 C   0  0  0  0  0  0  0  0  0  0  0  0
   37.4430   29.9760   39.2510 N   0  0  0  0  0  0  0  0  0  0  0  0
   37.1760   33.0450   37.8550 H   0  0  0  0  0  0  0  0  0  0  0  0
   37.3640   33.6400   40.2730 H   0  0  0  0  0  0  0  0  0  0  0  0
   37.6790   29.3470   41.5710 C   0  0  0  0  0  0  0  0  0  0  0  0
   36.6080   28.5360   41.9010 C   0  0  0  0  0  0  0  0  0  0  0  0
   36.6230   27.5590   42.8690 C   0  0  0  0  0  0  0  0  0  0  0  0
   37.8460   27.4310   43.5270 C   0  0  0  0  0  0  0  0  0  0  0  0
   38.9320   28.2360   43.2100 C   0  0  0  0  0  0  0  0  0  0  0  0
   38.8350   29.1870   42.2330 N   0  0  0  0  0  0  0  0  0  0  0  0
   35.6890   28.6850   41.3530 H   0  0  0  0  0  0  0  0  0  0  0  0
   35.7560   26.9680   43.0710 H   0  0  0  0  0  0  0  0  0  0  0  0
   37.9320   26.6820   44.3030 H   0  0  0  0  0  0  0  0  0  0  0  0
   39.8510   28.0790   43.7660 H   0  0  0  0  0  0  0  0  0  0  0  0
   37.2010   30.5530   36.8320 C   0  0  0  0  0  2  0  0  0  0  0  0
   36.2660   29.4180   36.5590 C   0  0  0  0  0  2  0  0  0  0  0  0
   36.0020   29.4660   35.4670 H   0  0  0  0  0  0  0  0  0  0  0  0
  1  2  2  0  0  0  0
  1  6  1  0  0  0  0
  2  3  1  0  0  0  0
  3  8  1  0  0  0  0
  3  4  2  0  0  0  0
  5  4  1  0  0  0  0
  5  9  1  0  0  0  0
  6  5  2  0  0  0  0
  7  2  1  0  0  0  0
  9 10  2  0  0  0  0
  9 14  1  0  0  0  0
 10 11  1  0  0  0  0
 11 16  1  0  0  0  0
 11 12  2  0  0  0  0
 12 17  1  0  0  0  0
 13 12  1  0  0  0  0
 13 18  1  0  0  0  0
 14 13  2  0  0  0  0
 15 10  1  0  0  0  0
 19  1  1  0  0  0  0
 20 19  1  0  0  0  0
 21 20  1  0  0  0  0
M  END
>  <minimizedAffinity>
-4.16257906

$$$$

 OpenBabel03252507273D

 21 22  0  0  0  0  0  0  0  0999 V2000
   38.8340   25.3950   42.5190 C   0  0  0  0  0  0  0  0  0  0  0  0
   39.8810   25.7100   43.3980 C   0  0  0  0  0  0  0  0  0  0  0  0
   40.1020   27.0580   43.6800 C   0  0  0  0  0  0  0  0  0  0  0  0
   39.2920   27.9980   43.0890 N   0  0  0  0  0  0  0  0  0  0  0  0
   38.2980   27.6380   42.2490 C   0  0  0  0  0  0  0  0  0  0  0  0
   38.0740   26.3590   41.9690 N   0  0  0  0  0  0  0  0  0  0  0  0
   40.5220   25.0050   43.8690 H   0  0  0  0  0  0  0  0  0  0  0  0
   40.8590   27.4360   44.3270 H   0  0  0  0  0  0  0  0  0  0  0  0
   37.4670   28.6740   41.6470 C   0  0  0  0  0  0  0  0  0  0  0  0
   36.2460   28.3440   41.0850 C   0  0  0  0  0  0  0  0  0  0  0  0
   35.3810   29.2320   40.4910 C   0  0  0  0  0  0  0  0  0  0  0  0
   35.8340   30.5510   40.4930 C   0  0  0  0  0  0  0  0  0  0  0  0
   37.0560   30.9020   41.0520 C   0  0  0  0  0  0  0  0  0  0  0  0
   37.8590   29.9560   41.6230 N   0  0  0  0  0  0  0  0  0  0  0  0
   35.9540   27.3040   41.1180 H   0  0  0  0  0  0  0  0  0  0  0  0
   34.4520   28.9060   40.0770 H   0  0  0  0  0  0  0  0  0  0  0  0
   35.2040   31.3070   40.0410 H   0  0  0  0  0  0  0  0  0  0  0  0
   37.3410   31.9490   41.0140 H   0  0  0  0  0  0  0  0  0  0  0  0
   38.6450   23.9430   42.2550 C   0  0  0  0  0  2  0  0  0  0  0  0
   37.7810   23.6610   41.0670 C   0  0  0  0  0  2  0  0  0  0  0  0
   37.9760   22.5950   40.7650 H   0  0  0  0  0  0  0  0  0  0  0  0
  1  2  1  0  0  0  0
  2  3  2  0  0  0  0
  2  7  1  0  0  0  0
  3  8  1  0  0  0  0
  4  3  1  0  0  0  0
  5  4  2  0  0  0  0
  6  5  1  0  0  0  0
  6  1  2  0  0  0  0
  9  5  1  0  0  0  0
 10 15  1  0  0  0  0
 10  9  2  0  0  0  0
 11 12  2  0  0  0  0
 11 10  1  0  0  0  0
 12 13  1  0  0  0  0
 13 14  2  0  0  0  0
 14  9  1  0  0  0  0
 16 11  1  0  0  0  0
 17 12  1  0  0  0  0
 18 13  1  0  0  0  0
 19  1  1  0  0  0  0
 20 19  1  0  0  0  0
 21 20  1  0  0  0  0
M  END
>  <minimizedAffinity>
-4.09279919

$$$$

 OpenBabel03252507273D

 21 22  0  0  0  0  0  0  0  0999 V2000
   38.4630   25.7080   42.3900 C   0  0  0  0  0  0  0  0  0  0  0  0
   39.4970   25.7100   43.3390 C   0  0  0  0  0  0  0  0  0  0  0  0
   40.0550   26.9430   43.6800 C   0  0  0  0  0  0  0  0  0  0  0  0
   39.5700   28.0780   43.0770 N   0  0  0  0  0  0  0  0  0  0  0  0
   38.5720   28.0170   42.1690 C   0  0  0  0  0  0  0  0  0  0  0  0
   38.0290   26.8520   41.8320 N   0  0  0  0  0  0  0  0  0  0  0  0
   39.8920   24.8490   43.8200 H   0  0  0  0  0  0  0  0  0  0  0  0
   40.8430   27.0890   44.3820 H   0  0  0  0  0  0  0  0  0  0  0  0
   38.0920   29.2500   41.5570 C   0  0  0  0  0  0  0  0  0  0  0  0
   36.7390   29.5410   41.5520 C   0  0  0  0  0  0  0  0  0  0  0  0
   36.1730   30.6700   41.0070 C   0  0  0  0  0  0  0  0  0  0  0  0
   37.0940   31.5440   40.4310 C   0  0  0  0  0  0  0  0  0  0  0  0
   38.4560   31.2700   40.4260 C   0  0  0  0  0  0  0  0  0  0  0  0
   38.9390   30.1230   40.9900 N   0  0  0  0  0  0  0  0  0  0  0  0
   36.0790   28.8220   42.0150 H   0  0  0  0  0  0  0  0  0  0  0  0
   35.1180   30.8290   41.0400 H   0  0  0  0  0  0  0  0  0  0  0  0
   36.7210   32.4550   39.9810 H   0  0  0  0  0  0  0  0  0  0  0  0
   39.1110   31.9970   39.9580 H   0  0  0  0  0  0  0  0  0  0  0  0
   37.9060   24.3670   42.0660 C   0  0  0  0  0  2  0  0  0  0  0  0
   36.8330   24.4040   41.0240 C   0  0  0  0  0  2  0  0  0  0  0  0
   36.7290   23.3580   40.6230 H   0  0  0  0  0  0  0  0  0  0  0  0
  1  2  1  0  0  0  0
  2  3  2  0  0  0  0
  2  7  1  0  0  0  0
  3  8  1  0  0  0  0
  4  3  1  0  0  0  0
  5  4  2  0  0  0  0
  6  5  1  0  0  0  0
  6  1  2  0  0  0  0
  9  5  1  0  0  0  0
 10  9  1  0  0  0  0
 10 15  1  0  0  0  0
 11 16  1  0  0  0  0
 11 10  2  0  0  0  0
 12 11  1  0  0  0  0
 13 12  2  0  0  0  0
 13 14  1  0  0  0  0
 14  9  2  0  0  0  0
 17 12  1  0  0  0  0
 18 13  1  0  0  0  0
 19  1  1  0  0  0  0
 20 19  1  0  0  0  0
 21 20  1  0  0  0  0
M  END
>  <minimizedAffinity>
-4.07201481

$$$$

 OpenBabel03252507273D

 21 22  0  0  0  0  0  0  0  0999 V2000
   37.0050   30.7610   39.7260 C   0  0  0  0  0  0  0  0  0  0  0  0
   36.6970   30.8040   38.3580 C   0  0  0  0  0  0  0  0  0  0  0  0
   36.4400   29.5910   37.7170 C   0  0  0  0  0  0  0  0  0  0  0  0
   36.5000   28.4310   38.4500 N   0  0  0  0  0  0  0  0  0  0  0  0
   36.8020   28.4490   39.7660 C   0  0  0  0  0  0  0  0  0  0  0  0
   37.0500   29.5940   40.3920 N   0  0  0  0  0  0  0  0  0  0  0  0
   36.6430   31.6860   37.7660 H   0  0  0  0  0  0  0  0  0  0  0  0
   36.1940   29.4790   36.6870 H   0  0  0  0  0  0  0  0  0  0  0  0
   36.8540   27.1900   40.5000 C   0  0  0  0  0  0  0  0  0  0  0  0
   36.9700   27.1950   41.8790 C   0  0  0  0  0  0  0  0  0  0  0  0
   37.0280   26.0750   42.6740 C   0  0  0  0  0  0  0  0  0  0  0  0
   36.9600   24.8750   41.9680 C   0  0  0  0  0  0  0  0  0  0  0  0
   36.8430   24.8480   40.5830 C   0  0  0  0  0  0  0  0  0  0  0  0
   36.7920   26.0100   39.8650 N   0  0  0  0  0  0  0  0  0  0  0  0
   37.0180   28.1590   42.3660 H   0  0  0  0  0  0  0  0  0  0  0  0
   37.1170   26.1540   43.7350 H   0  0  0  0  0  0  0  0  0  0  0  0
   37.0000   23.9490   42.5280 H   0  0  0  0  0  0  0  0  0  0  0  0
   36.7970   23.8760   40.1040 H   0  0  0  0  0  0  0  0  0  0  0  0
   37.2690   32.0830   40.3550 C   0  0  0  0  0  2  0  0  0  0  0  0
   37.3190   33.2110   39.3740 C   0  0  0  0  0  2  0  0  0  0  0  0
   37.1860   34.1620   39.9600 H   0  0  0  0  0  0  0  0  0  0  0  0
  1 19  1  0  0  0  0
  1  6  1  0  0  0  0
  2  1  2  0  0  0  0
  3  2  1  0  0  0  0
  3  4  2  0  0  0  0
  4  5  1  0  0  0  0
  5  6  2  0  0  0  0
  5  9  1  0  0  0  0
  7  2  1  0  0  0  0
  8  3  1  0  0  0  0
  9 10  1  0  0  0  0
 10 15  1  0  0  0  0
 10 11  2  0  0  0  0
 11 16  1  0  0  0  0
 12 17  1  0  0  0  0
 12 11  1  0  0  0  0
 13 12  2  0  0  0  0
 14  9  2  0  0  0  0
 14 13  1  0  0  0  0
 18 13  1  0  0  0  0
 20 21  1  0  0  0  0
 20 19  1  0  0  0  0
M  END
>  <minimizedAffinity>
-3.97974253

$$$$

 OpenBabel03252507273D

 21 22  0  0  0  0  0  0  0  0999 V2000
   37.0590   30.6440   40.2420 C   0  0  0  0  0  0  0  0  0  0  0  0
   35.7880   30.0520   40.2890 C   0  0  0  0  0  0  0  0  0  0  0  0
   35.6490   28.8850   41.0410 C   0  0  0  0  0  0  0  0  0  0  0  0
   36.7500   28.3820   41.6910 N   0  0  0  0  0  0  0  0  0  0  0  0
   37.9500   28.9940   41.6110 C   0  0  0  0  0  0  0  0  0  0  0  0
   38.1020   30.1050   40.8980 N   0  0  0  0  0  0  0  0  0  0  0  0
   34.9200   30.4180   39.7970 H   0  0  0  0  0  0  0  0  0  0  0  0
   34.7450   28.3340   41.1620 H   0  0  0  0  0  0  0  0  0  0  0  0
   39.0890   28.4200   42.3180 C   0  0  0  0  0  0  0  0  0  0  0  0
   38.9570   27.2120   42.9800 C   0  0  0  0  0  0  0  0  0  0  0  0
   39.9570   26.5770   43.6790 C   0  0  0  0  0  0  0  0  0  0  0  0
   41.1720   27.2610   43.6760 C   0  0  0  0  0  0  0  0  0  0  0  0
   41.3250   28.4750   43.0170 C   0  0  0  0  0  0  0  0  0  0  0  0
   40.2780   29.0400   42.3450 N   0  0  0  0  0  0  0  0  0  0  0  0
   37.9890   26.7330   42.9440 H   0  0  0  0  0  0  0  0  0  0  0  0
   39.7830   25.6440   44.1670 H   0  0  0  0  0  0  0  0  0  0  0  0
   42.0070   26.8220   44.2060 H   0  0  0  0  0  0  0  0  0  0  0  0
   42.3000   28.9480   43.0600 H   0  0  0  0  0  0  0  0  0  0  0  0
   37.1480   31.8840   39.4250 C   0  0  0  0  0  2  0  0  0  0  0  0
   37.8880   32.9930   40.1050 C   0  0  0  0  0  2  0  0  0  0  0  0
   38.1830   33.7280   39.3060 H   0  0  0  0  0  0  0  0  0  0  0  0
  1  2  2  0  0  0  0
  1  6  1  0  0  0  0
  2  3  1  0  0  0  0
  3  8  1  0  0  0  0
  3  4  2  0  0  0  0
  5  4  1  0  0  0  0
  5  9  1  0  0  0  0
  6  5  2  0  0  0  0
  7  2  1  0  0  0  0
  9 14  2  0  0  0  0
  9 10  1  0  0  0  0
 10 11  2  0  0  0  0
 11 16  1  0  0  0  0
 12 11  1  0  0  0  0
 12 17  1  0  0  0  0
 13 18  1  0  0  0  0
 13 12  2  0  0  0  0
 14 13  1  0  0  0  0
 15 10  1  0  0  0  0
 19 20  1  0  0  0  0
 19  1  1  0  0  0  0
 21 20  1  0  0  0  0
M  END
>  <minimizedAffinity>
-3.96516323

$$$$

 OpenBabel03252507273D

 21 22  0  0  0  0  0  0  0  0999 V2000
   37.6510   30.3610   41.0250 C   0  0  0  0  0  0  0  0  0  0  0  0
   38.7050   30.6540   41.9020 C   0  0  0  0  0  0  0  0  0  0  0  0
   39.3160   29.5820   42.5560 C   0  0  0  0  0  0  0  0  0  0  0  0
   38.8590   28.3110   42.3090 N   0  0  0  0  0  0  0  0  0  0  0  0
   37.8390   28.0870   41.4530 C   0  0  0  0  0  0  0  0  0  0  0  0
   37.2450   29.0950   40.8230 N   0  0  0  0  0  0  0  0  0  0  0  0
   39.0790   31.6260   42.1130 H   0  0  0  0  0  0  0  0  0  0  0  0
   40.1240   29.6610   43.2450 H   0  0  0  0  0  0  0  0  0  0  0  0
   37.3900   26.7180   41.2250 C   0  0  0  0  0  0  0  0  0  0  0  0
   37.3530   25.8170   42.2750 C   0  0  0  0  0  0  0  0  0  0  0  0
   36.9500   24.5050   42.1790 C   0  0  0  0  0  0  0  0  0  0  0  0
   36.5610   24.1240   40.8960 C   0  0  0  0  0  0  0  0  0  0  0  0
   36.5910   25.0140   39.8290 C   0  0  0  0  0  0  0  0  0  0  0  0
   37.0070   26.3030   40.0090 N   0  0  0  0  0  0  0  0  0  0  0  0
   37.6670   26.1760   43.2450 H   0  0  0  0  0  0  0  0  0  0  0  0
   36.9460   23.8650   43.0340 H   0  0  0  0  0  0  0  0  0  0  0  0
   36.2310   23.1040   40.7440 H   0  0  0  0  0  0  0  0  0  0  0  0
   36.2750   24.6440   38.8600 H   0  0  0  0  0  0  0  0  0  0  0  0
   37.0390   31.5410   40.3570 C   0  0  0  0  0  2  0  0  0  0  0  0
   36.9490   31.4050   38.8700 C   0  0  0  0  0  2  0  0  0  0  0  0
   36.1960   32.1610   38.5160 H   0  0  0  0  0  0  0  0  0  0  0  0
  1  2  1  0  0  0  0
  2  7  1  0  0  0  0
  2  3  2  0  0  0  0
  3  8  1  0  0  0  0
  4  3  1  0  0  0  0
  5  4  2  0  0  0  0
  6  1  2  0  0  0  0
  6  5  1  0  0  0  0
  9  5  1  0  0  0  0
  9 10  1  0  0  0  0
 10 15  1  0  0  0  0
 11 10  2  0  0  0  0
 11 16  1  0  0  0  0
 12 11  1  0  0  0  0
 13 14  1  0  0  0  0
 13 12  2  0  0  0  0
 14  9  2  0  0  0  0
 17 12  1  0  0  0  0
 18 13  1  0  0  0  0
 19  1  1  0  0  0  0
 20 19  1  0  0  0  0
 21 20  1  0  0  0  0
M  END
>  <minimizedAffinity>
-3.94730163

$$$$
