
 OpenBabel03252505333D

 24 25  0  0  0  0  0  0  0  0999 V2000
   46.6180   34.7700   42.1050 C   0  0  0  0  0  0  0  0  0  0  0  0
   47.8840   35.3020   41.9860 C   0  0  0  0  0  0  0  0  0  0  0  0
   48.6640   35.1520   40.8420 C   0  0  0  0  0  0  0  0  0  0  0  0
   48.1650   34.4440   39.7730 C   0  0  0  0  0  0  0  0  0  0  0  0
   46.9000   33.9170   39.9050 C   0  0  0  0  0  0  0  0  0  0  0  0
   46.1170   34.0600   41.0330 C   0  0  0  0  0  0  0  0  0  0  0  0
   48.3080   35.8700   42.8160 H   0  0  0  0  0  0  0  0  0  0  0  0
   49.6430   35.5860   40.7980 H   0  0  0  0  0  0  0  0  0  0  0  0
   48.7590   34.3250   38.8900 H   0  0  0  0  0  0  0  0  0  0  0  0
   46.5210   33.3660   39.0630 H   0  0  0  0  0  0  0  0  0  0  0  0
   44.4060   36.1960   44.7950 C   0  0  0  0  0  0  0  0  0  0  0  0
   45.0610   36.0840   43.5580 C   0  0  0  0  0  0  0  0  0  0  0  0
   45.8980   34.9860   43.3340 C   0  0  0  0  0  0  0  0  0  0  0  0
   46.0420   34.0770   44.3220 N   0  0  0  0  0  0  0  0  0  0  0  0
   45.3920   34.2170   45.5070 C   0  0  0  0  0  0  0  0  0  0  0  0
   44.5760   35.2760   45.7430 N   0  0  0  0  0  0  0  0  0  0  0  0
   45.5560   33.2430   46.5420 N   0  0  0  0  0  0  0  0  0  0  0  0
   43.7580   37.0460   44.9680 H   0  0  0  0  0  0  0  0  0  0  0  0
   44.9430   36.8140   42.7720 H   0  0  0  0  0  0  0  0  0  0  0  0
   44.9640   32.4080   46.7660 H   0  0  0  0  0  0  0  0  0  0  0  0
   46.4250   33.5930   47.0110 H   0  0  0  0  0  0  0  0  0  0  0  0
   44.7520   33.4820   41.1540 C   0  0  0  0  0  0  0  0  0  0  0  0
   43.7520   34.3450   40.3840 C   0  0  0  0  0  0  0  0  0  0  0  0
   42.7260   34.0170   40.6710 H   0  0  0  0  0  0  0  0  0  0  0  0
  1 13  1  0  0  0  0
  2  1  1  0  0  0  0
  2  7  1  0  0  0  0
  3  2  2  0  0  0  0
  4  5  2  0  0  0  0
  4  3  1  0  0  0  0
  5  6  1  0  0  0  0
  6 22  1  0  0  0  0
  6  1  2  0  0  0  0
  8  3  1  0  0  0  0
  9  4  1  0  0  0  0
 10  5  1  0  0  0  0
 11 18  1  0  0  0  0
 11 16  1  0  0  0  0
 12 11  2  0  0  0  0
 13 12  1  0  0  0  0
 13 14  2  0  0  0  0
 14 15  1  0  0  0  0
 15 16  2  0  0  0  0
 15 17  1  0  0  0  0
 17 20  1  0  0  0  0
 17 21  1  0  0  0  0
 19 12  1  0  0  0  0
 23 24  1  0  0  0  0
 23 22  1  0  0  0  0
M  END
>  <minimizedAffinity>
-5.56814146

>  <minimizedRMSD>
0.514280736

$$$$
