
 OpenBabel03252508583D

 33 34  0  0  1  0  0  0  0  0999 V2000
   38.1580   28.1010   41.3340 N   0  0  0  0  0  0  0  0  0  0  0  0
   38.4750   28.6560   42.6050 C   0  0  0  0  0  0  0  0  0  0  0  0
   37.4400   28.5600   43.6800 C   0  0  0  0  0  0  0  0  0  0  0  0
   36.5540   27.3490   43.6020 C   0  0  0  0  0  0  0  0  0  0  0  0
   36.9370   26.4450   42.5000 C   0  0  0  0  0  0  0  0  0  0  0  0
   37.0290   27.2950   41.2010 C   0  0  2  0  0  0  0  0  0  0  0  0
   38.7780   29.7180   42.5020 H   0  0  0  0  0  0  0  0  0  0  0  0
   39.3790   28.1210   42.9730 H   0  0  0  0  0  0  0  0  0  0  0  0
   37.9750   28.6580   44.6570 H   0  0  0  0  0  0  0  0  0  0  0  0
   36.7720   29.4610   43.5680 H   0  0  0  0  0  0  0  0  0  0  0  0
   35.4750   27.6010   43.6320 H   0  0  0  0  0  0  0  0  0  0  0  0
   36.7260   26.7840   44.5650 H   0  0  0  0  0  0  0  0  0  0  0  0
   37.9280   25.9920   42.7080 H   0  0  0  0  0  0  0  0  0  0  0  0
   36.1360   25.6820   42.4150 H   0  0  0  0  0  0  0  0  0  0  0  0
   36.0340   27.7740   41.1750 H   0  0  0  0  0  0  0  0  0  0  0  0
   38.5460   28.9110   40.2310 C   0  0  0  0  0  0  0  0  0  0  0  0
   38.9920   28.3430   39.4090 H   0  0  0  0  0  0  0  0  0  0  0  0
   39.3850   29.5680   40.6060 H   0  0  0  0  0  0  0  0  0  0  0  0
   37.4370   29.7820   39.7720 C   0  0  0  0  0  0  0  0  0  0  0  0
   36.4700   29.6730   40.2480 H   0  0  0  0  0  0  0  0  0  0  0  0
   37.4150   29.6790   38.6410 H   0  0  0  0  0  0  0  0  0  0  0  0
   37.3720   33.5330   39.5670 C   0  0  0  0  0  0  0  0  0  0  0  0
   37.0430   32.1870   39.3910 C   0  0  0  0  0  0  0  0  0  0  0  0
   37.8180   31.2120   39.9780 C   0  0  0  0  0  0  0  0  0  0  0  0
   38.8710   31.6150   40.7050 N   0  0  0  0  0  0  0  0  0  0  0  0
   39.1790   32.9180   40.8670 C   0  0  0  0  0  0  0  0  0  0  0  0
   38.4370   33.8820   40.3030 N   0  0  0  0  0  0  0  0  0  0  0  0
   36.7740   34.2900   39.1130 H   0  0  0  0  0  0  0  0  0  0  0  0
   36.1560   31.9860   38.7720 H   0  0  0  0  0  0  0  0  0  0  0  0
   40.0510   33.1770   41.4730 H   0  0  0  0  0  0  0  0  0  0  0  0
   37.1680   26.1650   40.1760 C   0  0  0  0  0  2  0  0  0  0  0  0
   36.8520   24.8140   40.8190 C   0  0  0  0  0  2  0  0  0  0  0  0
   35.9970   24.8780   41.5130 H   0  0  0  0  0  0  0  0  0  0  0  0
  1  2  1  0  0  0  0
  2  8  1  0  0  0  0
  2  3  1  0  0  0  0
  3  9  1  0  0  0  0
  4 11  1  0  0  0  0
  4  3  1  0  0  0  0
  4 12  1  0  0  0  0
  5 13  1  0  0  0  0
  5  4  1  0  0  0  0
  6 15  1  6  0  0  0
  6  1  1  0  0  0  0
  6  5  1  0  0  0  0
  7  2  1  0  0  0  0
 10  3  1  0  0  0  0
 14  5  1  0  0  0  0
 16 18  1  0  0  0  0
 16  1  1  0  0  0  0
 17 16  1  0  0  0  0
 19 24  1  0  0  0  0
 19 16  1  0  0  0  0
 19 20  1  0  0  0  0
 21 19  1  0  0  0  0
 22 27  1  0  0  0  0
 23 22  2  0  0  0  0
 23 24  1  0  0  0  0
 24 25  2  0  0  0  0
 25 26  1  0  0  0  0
 26 30  1  0  0  0  0
 27 26  2  0  0  0  0
 28 22  1  0  0  0  0
 29 23  1  0  0  0  0
 31 32  1  0  0  0  0
 31  6  1  0  0  0  0
 32 33  1  0  0  0  0
M  END
>  <minimizedAffinity>
-4.48159742

$$$$

 OpenBabel03252508583D

 33 34  0  0  1  0  0  0  0  0999 V2000
   37.3130   28.4320   41.9320 N   0  0  0  0  0  0  0  0  0  0  0  0
   36.3170   28.3170   40.9230 C   0  0  0  0  0  0  0  0  0  0  0  0
   36.4230   27.1690   39.9710 C   0  0  0  0  0  0  0  0  0  0  0  0
   37.0410   25.9250   40.5430 C   0  0  0  0  0  0  0  0  0  0  0  0
   37.3610   26.0670   41.9780 C   0  0  0  0  0  0  0  0  0  0  0  0
   38.1900   27.3710   42.1500 C   0  0  2  0  0  0  0  0  0  0  0  0
   36.2460   29.2550   40.3360 H   0  0  0  0  0  0  0  0  0  0  0  0
   35.3390   28.2190   41.4470 H   0  0  0  0  0  0  0  0  0  0  0  0
   35.4020   27.0030   39.5450 H   0  0  0  0  0  0  0  0  0  0  0  0
   37.0900   27.5070   39.1290 H   0  0  0  0  0  0  0  0  0  0  0  0
   37.8750   25.5340   39.9260 H   0  0  0  0  0  0  0  0  0  0  0  0
   36.2470   25.1250   40.4620 H   0  0  0  0  0  0  0  0  0  0  0  0
   36.4250   26.1520   42.5670 H   0  0  0  0  0  0  0  0  0  0  0  0
   37.9600   25.1780   42.2640 H   0  0  0  0  0  0  0  0  0  0  0  0
   39.0160   27.2080   41.4340 H   0  0  0  0  0  0  0  0  0  0  0  0
   37.7880   29.7570   42.1340 C   0  0  0  0  0  0  0  0  0  0  0  0
   38.1590   29.9360   43.1490 H   0  0  0  0  0  0  0  0  0  0  0  0
   36.8850   30.4290   42.0430 H   0  0  0  0  0  0  0  0  0  0  0  0
   38.7750   30.1520   41.1000 C   0  0  0  0  0  0  0  0  0  0  0  0
   38.7930   29.5950   40.1720 H   0  0  0  0  0  0  0  0  0  0  0  0
   39.7750   30.2010   41.6350 H   0  0  0  0  0  0  0  0  0  0  0  0
   37.1680   33.1690   39.5420 C   0  0  0  0  0  0  0  0  0  0  0  0
   37.4270   31.8510   39.9280 C   0  0  0  0  0  0  0  0  0  0  0  0
   38.5280   31.5710   40.7030 C   0  0  0  0  0  0  0  0  0  0  0  0
   39.3140   32.6000   41.0560 N   0  0  0  0  0  0  0  0  0  0  0  0
   39.0540   33.8680   40.6770 C   0  0  0  0  0  0  0  0  0  0  0  0
   37.9850   34.1610   39.9210 N   0  0  0  0  0  0  0  0  0  0  0  0
   36.3140   33.3880   38.9410 H   0  0  0  0  0  0  0  0  0  0  0  0
   36.7080   31.0970   39.5740 H   0  0  0  0  0  0  0  0  0  0  0  0
   39.7350   34.6590   40.9990 H   0  0  0  0  0  0  0  0  0  0  0  0
   38.6280   27.1940   43.6070 C   0  0  0  0  0  2  0  0  0  0  0  0
   39.9960   26.5130   43.6790 C   0  0  0  0  0  2  0  0  0  0  0  0
   40.6820   26.8830   42.8990 H   0  0  0  0  0  0  0  0  0  0  0  0
  1 16  1  0  0  0  0
  1  6  1  0  0  0  0
  2  8  1  0  0  0  0
  2  1  1  0  0  0  0
  3  4  1  0  0  0  0
  3  2  1  0  0  0  0
  4  5  1  0  0  0  0
  5  6  1  0  0  0  0
  5 14  1  0  0  0  0
  5 13  1  0  0  0  0
  6 15  1  6  0  0  0
  6 31  1  0  0  0  0
  7  2  1  0  0  0  0
  9  3  1  0  0  0  0
 10  3  1  0  0  0  0
 11  4  1  0  0  0  0
 12  4  1  0  0  0  0
 16 17  1  0  0  0  0
 18 16  1  0  0  0  0
 19 21  1  0  0  0  0
 19 16  1  0  0  0  0
 20 19  1  0  0  0  0
 22 27  2  0  0  0  0
 22 23  1  0  0  0  0
 23 24  2  0  0  0  0
 24 25  1  0  0  0  0
 24 19  1  0  0  0  0
 26 30  1  0  0  0  0
 26 25  2  0  0  0  0
 27 26  1  0  0  0  0
 28 22  1  0  0  0  0
 29 23  1  0  0  0  0
 31 32  1  0  0  0  0
 33 32  1  0  0  0  0
M  END
>  <minimizedAffinity>
-4.4008975

$$$$

 OpenBabel03252508583D

 33 34  0  0  1  0  0  0  0  0999 V2000
   36.2140   29.1400   41.0610 N   0  0  0  0  0  0  0  0  0  0  0  0
   35.4710   28.7130   39.9260 C   0  0  0  0  0  0  0  0  0  0  0  0
   36.0580   27.6280   39.0810 C   0  0  0  0  0  0  0  0  0  0  0  0
   36.9110   26.6370   39.8200 C   0  0  0  0  0  0  0  0  0  0  0  0
   36.9400   26.8990   41.2740 C   0  0  0  0  0  0  0  0  0  0  0  0
   37.3150   28.3930   41.4780 C   0  0  2  0  0  0  0  0  0  0  0  0
   35.2260   29.5750   39.2730 H   0  0  0  0  0  0  0  0  0  0  0  0
   34.4930   28.3380   40.3050 H   0  0  0  0  0  0  0  0  0  0  0  0
   35.2130   27.1580   38.5200 H   0  0  0  0  0  0  0  0  0  0  0  0
   36.7250   28.1330   38.3260 H   0  0  0  0  0  0  0  0  0  0  0  0
   37.9110   26.5000   39.3620 H   0  0  0  0  0  0  0  0  0  0  0  0
   36.4080   25.6360   39.6770 H   0  0  0  0  0  0  0  0  0  0  0  0
   35.9380   26.7130   41.7120 H   0  0  0  0  0  0  0  0  0  0  0  0
   37.7170   26.2340   41.7050 H   0  0  0  0  0  0  0  0  0  0  0  0
   38.2560   28.4690   40.9050 H   0  0  0  0  0  0  0  0  0  0  0  0
   36.2440   30.5500   41.2420 C   0  0  0  0  0  0  0  0  0  0  0  0
   36.8820   30.8690   42.0720 H   0  0  0  0  0  0  0  0  0  0  0  0
   35.2010   30.8460   41.5590 H   0  0  0  0  0  0  0  0  0  0  0  0
   36.5710   31.2590   39.9810 C   0  0  0  0  0  0  0  0  0  0  0  0
   35.8250   31.9200   39.5570 H   0  0  0  0  0  0  0  0  0  0  0  0
   36.9450   30.4590   39.2680 H   0  0  0  0  0  0  0  0  0  0  0  0
   40.0490   32.3060   40.9400 C   0  0  0  0  0  0  0  0  0  0  0  0
   38.9050   31.5330   40.7270 C   0  0  0  0  0  0  0  0  0  0  0  0
   37.7760   32.1150   40.1980 C   0  0  0  0  0  0  0  0  0  0  0  0
   37.8340   33.4240   39.9070 N   0  0  0  0  0  0  0  0  0  0  0  0
   38.9440   34.1600   40.1170 C   0  0  0  0  0  0  0  0  0  0  0  0
   40.0540   33.6110   40.6320 N   0  0  0  0  0  0  0  0  0  0  0  0
   40.9250   31.8570   41.3500 H   0  0  0  0  0  0  0  0  0  0  0  0
   38.9840   30.4720   41.0070 H   0  0  0  0  0  0  0  0  0  0  0  0
   38.9240   35.2220   39.8580 H   0  0  0  0  0  0  0  0  0  0  0  0
   37.5450   28.3850   42.9930 C   0  0  0  0  0  2  0  0  0  0  0  0
   36.5680   27.4300   43.6800 C   0  0  0  0  0  2  0  0  0  0  0  0
   36.4220   26.5020   43.1000 H   0  0  0  0  0  0  0  0  0  0  0  0
  1 16  1  0  0  0  0
  1  6  1  0  0  0  0
  2  8  1  0  0  0  0
  2  1  1  0  0  0  0
  3  4  1  0  0  0  0
  3  2  1  0  0  0  0
  4  5  1  0  0  0  0
  5  6  1  0  0  0  0
  5 14  1  0  0  0  0
  5 13  1  0  0  0  0
  6 15  1  6  0  0  0
  6 31  1  0  0  0  0
  7  2  1  0  0  0  0
  9  3  1  0  0  0  0
 10  3  1  0  0  0  0
 11  4  1  0  0  0  0
 12  4  1  0  0  0  0
 16 18  1  0  0  0  0
 16 17  1  0  0  0  0
 19 24  1  0  0  0  0
 19 16  1  0  0  0  0
 20 19  1  0  0  0  0
 21 19  1  0  0  0  0
 22 28  1  0  0  0  0
 23 22  1  0  0  0  0
 23 29  1  0  0  0  0
 24 23  2  0  0  0  0
 25 26  2  0  0  0  0
 25 24  1  0  0  0  0
 26 27  1  0  0  0  0
 27 22  2  0  0  0  0
 30 26  1  0  0  0  0
 31 32  1  0  0  0  0
 33 32  1  0  0  0  0
M  END
>  <minimizedAffinity>
-4.39802885

$$$$

 OpenBabel03252508583D

 33 34  0  0  1  0  0  0  0  0999 V2000
   38.5790   27.9810   42.3500 N   0  0  0  0  0  0  0  0  0  0  0  0
   39.9480   28.2740   42.6040 C   0  0  0  0  0  0  0  0  0  0  0  0
   40.6670   27.4170   43.5950 C   0  0  0  0  0  0  0  0  0  0  0  0
   40.1910   25.9940   43.6700 C   0  0  0  0  0  0  0  0  0  0  0  0
   39.1340   25.7050   42.6800 C   0  0  0  0  0  0  0  0  0  0  0  0
   38.0330   26.7920   42.8320 C   0  0  2  0  0  0  0  0  0  0  0  0
   40.0700   29.3350   42.9010 H   0  0  0  0  0  0  0  0  0  0  0  0
   40.4840   28.1710   41.6330 H   0  0  0  0  0  0  0  0  0  0  0  0
   41.7600   27.5100   43.3740 H   0  0  0  0  0  0  0  0  0  0  0  0
   40.4880   27.8750   44.6090 H   0  0  0  0  0  0  0  0  0  0  0  0
   39.9480   25.6740   44.7030 H   0  0  0  0  0  0  0  0  0  0  0  0
   41.0830   25.3590   43.3930 H   0  0  0  0  0  0  0  0  0  0  0  0
   39.5530   25.7540   41.6540 H   0  0  0  0  0  0  0  0  0  0  0  0
   38.7310   24.7000   42.9220 H   0  0  0  0  0  0  0  0  0  0  0  0
   37.7900   26.7170   43.9070 H   0  0  0  0  0  0  0  0  0  0  0  0
   37.7420   29.1280   42.2700 C   0  0  0  0  0  0  0  0  0  0  0  0
   38.0950   29.9670   42.8780 H   0  0  0  0  0  0  0  0  0  0  0  0
   36.7610   28.8310   42.7440 H   0  0  0  0  0  0  0  0  0  0  0  0
   37.4850   29.5240   40.8640 C   0  0  0  0  0  0  0  0  0  0  0  0
   36.4760   29.4310   40.4830 H   0  0  0  0  0  0  0  0  0  0  0  0
   38.2690   28.9850   40.2460 H   0  0  0  0  0  0  0  0  0  0  0  0
   37.3240   33.1020   39.7300 C   0  0  0  0  0  0  0  0  0  0  0  0
   37.0200   31.7510   39.9130 C   0  0  0  0  0  0  0  0  0  0  0  0
   37.8410   30.9640   40.6880 C   0  0  0  0  0  0  0  0  0  0  0  0
   38.9150   31.5490   41.2390 N   0  0  0  0  0  0  0  0  0  0  0  0
   39.2000   32.8540   41.0550 C   0  0  0  0  0  0  0  0  0  0  0  0
   38.4110   33.6370   40.3040 N   0  0  0  0  0  0  0  0  0  0  0  0
   36.6890   33.7130   39.1300 H   0  0  0  0  0  0  0  0  0  0  0  0
   36.1110   31.3910   39.4070 H   0  0  0  0  0  0  0  0  0  0  0  0
   40.0910   33.2680   41.5340 H   0  0  0  0  0  0  0  0  0  0  0  0
   36.9530   26.1760   41.9370 C   0  0  0  0  0  2  0  0  0  0  0  0
   36.9500   24.6530   42.0690 C   0  0  0  0  0  2  0  0  0  0  0  0
   37.1060   24.3290   43.1120 H   0  0  0  0  0  0  0  0  0  0  0  0
  1  2  1  0  0  0  0
  1  6  1  0  0  0  0
  2  7  1  0  0  0  0
  2  3  1  0  0  0  0
  3  4  1  0  0  0  0
  3 10  1  0  0  0  0
  4 11  1  0  0  0  0
  5  6  1  0  0  0  0
  5 14  1  0  0  0  0
  5  4  1  0  0  0  0
  6 15  1  1  0  0  0
  8  2  1  0  0  0  0
  9  3  1  0  0  0  0
 12  4  1  0  0  0  0
 13  5  1  0  0  0  0
 16  1  1  0  0  0  0
 16 18  1  0  0  0  0
 16 17  1  0  0  0  0
 19 16  1  0  0  0  0
 20 19  1  0  0  0  0
 21 19  1  0  0  0  0
 22 23  2  0  0  0  0
 22 27  1  0  0  0  0
 23 24  1  0  0  0  0
 24 19  1  0  0  0  0
 24 25  2  0  0  0  0
 26 25  1  0  0  0  0
 26 30  1  0  0  0  0
 27 26  2  0  0  0  0
 28 22  1  0  0  0  0
 29 23  1  0  0  0  0
 31 32  1  0  0  0  0
 31  6  1  0  0  0  0
 32 33  1  0  0  0  0
M  END
>  <minimizedAffinity>
-4.37299204

$$$$

 OpenBabel03252508583D

 33 34  0  0  1  0  0  0  0  0999 V2000
   36.9030   29.8870   41.1080 N   0  0  0  0  0  0  0  0  0  0  0  0
   37.9060   29.8360   42.1160 C   0  0  0  0  0  0  0  0  0  0  0  0
   37.6970   28.8890   43.2540 C   0  0  0  0  0  0  0  0  0  0  0  0
   36.9300   27.6430   42.9120 C   0  0  0  0  0  0  0  0  0  0  0  0
   36.5910   27.5710   41.4770 C   0  0  0  0  0  0  0  0  0  0  0  0
   35.9080   28.9110   41.0840 C   0  0  2  0  0  0  0  0  0  0  0  0
   38.0950   30.8470   42.5300 H   0  0  0  0  0  0  0  0  0  0  0  0
   38.8530   29.5370   41.6120 H   0  0  0  0  0  0  0  0  0  0  0  0
   38.7040   28.6840   43.6970 H   0  0  0  0  0  0  0  0  0  0  0  0
   37.0930   29.4420   44.0280 H   0  0  0  0  0  0  0  0  0  0  0  0
   36.0730   27.4630   43.5920 H   0  0  0  0  0  0  0  0  0  0  0  0
   37.6320   26.7850   43.1270 H   0  0  0  0  0  0  0  0  0  0  0  0
   37.5150   27.4450   40.8760 H   0  0  0  0  0  0  0  0  0  0  0  0
   35.8900   26.7200   41.3530 H   0  0  0  0  0  0  0  0  0  0  0  0
   35.0880   28.9700   41.8220 H   0  0  0  0  0  0  0  0  0  0  0  0
   36.5740   31.2020   40.6800 C   0  0  0  0  0  0  0  0  0  0  0  0
   36.8420   31.9760   41.4060 H   0  0  0  0  0  0  0  0  0  0  0  0
   35.4470   31.2410   40.6310 H   0  0  0  0  0  0  0  0  0  0  0  0
   37.1140   31.4920   39.3290 C   0  0  0  0  0  0  0  0  0  0  0  0
   36.4760   32.0100   38.6240 H   0  0  0  0  0  0  0  0  0  0  0  0
   37.5280   30.5060   38.9480 H   0  0  0  0  0  0  0  0  0  0  0  0
   40.5910   32.8130   38.8030 C   0  0  0  0  0  0  0  0  0  0  0  0
   39.4380   32.0310   38.7050 C   0  0  0  0  0  0  0  0  0  0  0  0
   38.3320   32.3470   39.4600 C   0  0  0  0  0  0  0  0  0  0  0  0
   38.4210   33.4130   40.2700 N   0  0  0  0  0  0  0  0  0  0  0  0
   39.5400   34.1610   40.3570 C   0  0  0  0  0  0  0  0  0  0  0  0
   40.6280   33.8690   39.6290 N   0  0  0  0  0  0  0  0  0  0  0  0
   41.4490   32.5700   38.2190 H   0  0  0  0  0  0  0  0  0  0  0  0
   39.4900   31.1840   38.0050 H   0  0  0  0  0  0  0  0  0  0  0  0
   39.5460   35.0170   41.0370 H   0  0  0  0  0  0  0  0  0  0  0  0
   35.4160   28.5360   39.6820 C   0  0  0  0  0  2  0  0  0  0  0  0
   36.4810   27.7290   38.9370 C   0  0  0  0  0  2  0  0  0  0  0  0
   36.9870   27.0050   39.5980 H   0  0  0  0  0  0  0  0  0  0  0  0
  1  2  1  0  0  0  0
  2  7  1  0  0  0  0
  2  3  1  0  0  0  0
  3  9  1  0  0  0  0
  3 10  1  0  0  0  0
  4 12  1  0  0  0  0
  4  3  1  0  0  0  0
  4 11  1  0  0  0  0
  5  4  1  0  0  0  0
  6  1  1  0  0  0  0
  6  5  1  0  0  0  0
  6 15  1  1  0  0  0
  8  2  1  0  0  0  0
 13  5  1  0  0  0  0
 14  5  1  0  0  0  0
 16  1  1  0  0  0  0
 16 17  1  0  0  0  0
 18 16  1  0  0  0  0
 19 24  1  0  0  0  0
 19 16  1  0  0  0  0
 20 19  1  0  0  0  0
 21 19  1  0  0  0  0
 22 27  1  0  0  0  0
 23 22  2  0  0  0  0
 23 24  1  0  0  0  0
 24 25  2  0  0  0  0
 25 26  1  0  0  0  0
 26 30  1  0  0  0  0
 27 26  2  0  0  0  0
 28 22  1  0  0  0  0
 29 23  1  0  0  0  0
 31  6  1  0  0  0  0
 32 33  1  0  0  0  0
 32 31  1  0  0  0  0
M  END
>  <minimizedAffinity>
-4.36677027

$$$$

 OpenBabel03252508583D

 33 34  0  0  1  0  0  0  0  0999 V2000
   36.1640   29.1550   40.7830 N   0  0  0  0  0  0  0  0  0  0  0  0
   36.2030   30.5000   41.2420 C   0  0  0  0  0  0  0  0  0  0  0  0
   36.9900   31.4840   40.4370 C   0  0  0  0  0  0  0  0  0  0  0  0
   37.0360   31.2060   38.9620 C   0  0  0  0  0  0  0  0  0  0  0  0
   36.2200   30.0340   38.5880 C   0  0  0  0  0  0  0  0  0  0  0  0
   36.6390   28.8530   39.5080 C   0  0  2  0  0  0  0  0  0  0  0  0
   36.5560   30.5430   42.2930 H   0  0  0  0  0  0  0  0  0  0  0  0
   35.1510   30.8640   41.2650 H   0  0  0  0  0  0  0  0  0  0  0  0
   36.5950   32.5000   40.6870 H   0  0  0  0  0  0  0  0  0  0  0  0
   38.0520   31.4340   40.8120 H   0  0  0  0  0  0  0  0  0  0  0  0
   38.0680   31.1920   38.5560 H   0  0  0  0  0  0  0  0  0  0  0  0
   36.5640   32.1060   38.4680 H   0  0  0  0  0  0  0  0  0  0  0  0
   35.1450   30.2540   38.7480 H   0  0  0  0  0  0  0  0  0  0  0  0
   36.4490   29.8070   37.5260 H   0  0  0  0  0  0  0  0  0  0  0  0
   37.7310   28.8160   39.3430 H   0  0  0  0  0  0  0  0  0  0  0  0
   36.3150   28.1830   41.8100 C   0  0  0  0  0  0  0  0  0  0  0  0
   36.2340   27.1530   41.4500 H   0  0  0  0  0  0  0  0  0  0  0  0
   35.4250   28.3120   42.4940 H   0  0  0  0  0  0  0  0  0  0  0  0
   37.5510   28.4050   42.6000 C   0  0  0  0  0  0  0  0  0  0  0  0
   37.4530   28.8060   43.6010 H   0  0  0  0  0  0  0  0  0  0  0  0
   38.2430   28.9990   41.9240 H   0  0  0  0  0  0  0  0  0  0  0  0
   38.4650   24.7840   42.1900 C   0  0  0  0  0  0  0  0  0  0  0  0
   37.8140   26.0140   42.0590 C   0  0  0  0  0  0  0  0  0  0  0  0
   38.2670   27.1050   42.7650 C   0  0  0  0  0  0  0  0  0  0  0  0
   39.3330   26.9270   43.5600 N   0  0  0  0  0  0  0  0  0  0  0  0
   39.9530   25.7350   43.6800 C   0  0  0  0  0  0  0  0  0  0  0  0
   39.5260   24.6600   43.0000 N   0  0  0  0  0  0  0  0  0  0  0  0
   38.1150   23.9380   41.6440 H   0  0  0  0  0  0  0  0  0  0  0  0
   36.9520   26.0300   41.3760 H   0  0  0  0  0  0  0  0  0  0  0  0
   40.8160   25.6590   44.3450 H   0  0  0  0  0  0  0  0  0  0  0  0
   35.8960   27.7140   38.8020 C   0  0  0  0  0  2  0  0  0  0  0  0
   34.6740   28.2510   38.0560 C   0  0  0  0  0  2  0  0  0  0  0  0
   34.8830   29.2140   37.5610 H   0  0  0  0  0  0  0  0  0  0  0  0
  1  2  1  0  0  0  0
  1 16  1  0  0  0  0
  2  8  1  0  0  0  0
  2  7  1  0  0  0  0
  3  9  1  0  0  0  0
  3 10  1  0  0  0  0
  3  2  1  0  0  0  0
  4  3  1  0  0  0  0
  5 13  1  0  0  0  0
  5  4  1  0  0  0  0
  5  6  1  0  0  0  0
  6 15  1  6  0  0  0
  6  1  1  0  0  0  0
 11  4  1  0  0  0  0
 12  4  1  0  0  0  0
 14  5  1  0  0  0  0
 16 18  1  0  0  0  0
 16 19  1  0  0  0  0
 17 16  1  0  0  0  0
 19 24  1  0  0  0  0
 19 20  1  0  0  0  0
 21 19  1  0  0  0  0
 22 27  1  0  0  0  0
 23 22  2  0  0  0  0
 23 24  1  0  0  0  0
 24 25  2  0  0  0  0
 25 26  1  0  0  0  0
 26 30  1  0  0  0  0
 27 26  2  0  0  0  0
 28 22  1  0  0  0  0
 29 23  1  0  0  0  0
 31  6  1  0  0  0  0
 32 31  1  0  0  0  0
 33 32  1  0  0  0  0
M  END
>  <minimizedAffinity>
-4.28378057

$$$$

 OpenBabel03252508583D

 33 34  0  0  1  0  0  0  0  0999 V2000
   37.2250   26.8860   40.6280 N   0  0  0  0  0  0  0  0  0  0  0  0
   36.5220   26.0370   39.7290 C   0  0  0  0  0  0  0  0  0  0  0  0
   36.7440   24.5630   39.8510 C   0  0  0  0  0  0  0  0  0  0  0  0
   37.0480   24.0780   41.2400 C   0  0  0  0  0  0  0  0  0  0  0  0
   36.9940   25.1670   42.2360 C   0  0  0  0  0  0  0  0  0  0  0  0
   37.8900   26.3270   41.7180 C   0  0  2  0  0  0  0  0  0  0  0  0
   36.7130   26.3360   38.6790 H   0  0  0  0  0  0  0  0  0  0  0  0
   35.4370   26.2180   39.8980 H   0  0  0  0  0  0  0  0  0  0  0  0
   35.8590   24.0610   39.3870 H   0  0  0  0  0  0  0  0  0  0  0  0
   37.6430   24.3180   39.2160 H   0  0  0  0  0  0  0  0  0  0  0  0
   37.9650   23.4580   41.2900 H   0  0  0  0  0  0  0  0  0  0  0  0
   36.2190   23.3560   41.4980 H   0  0  0  0  0  0  0  0  0  0  0  0
   35.9520   25.5320   42.3420 H   0  0  0  0  0  0  0  0  0  0  0  0
   37.3940   24.7540   43.1860 H   0  0  0  0  0  0  0  0  0  0  0  0
   38.8510   25.8090   41.5460 H   0  0  0  0  0  0  0  0  0  0  0  0
   37.7760   28.0480   40.0210 C   0  0  0  0  0  0  0  0  0  0  0  0
   38.2490   27.8520   39.0540 H   0  0  0  0  0  0  0  0  0  0  0  0
   38.6260   28.3750   40.6890 H   0  0  0  0  0  0  0  0  0  0  0  0
   36.7860   29.1500   39.9460 C   0  0  0  0  0  0  0  0  0  0  0  0
   35.9220   29.1070   40.5990 H   0  0  0  0  0  0  0  0  0  0  0  0
   36.5340   29.2610   38.8450 H   0  0  0  0  0  0  0  0  0  0  0  0
   37.5450   32.8280   40.0510 C   0  0  0  0  0  0  0  0  0  0  0  0
   36.9360   31.6050   39.7610 C   0  0  0  0  0  0  0  0  0  0  0  0
   37.4630   30.4410   40.2740 C   0  0  0  0  0  0  0  0  0  0  0  0
   38.5580   30.5450   41.0420 N   0  0  0  0  0  0  0  0  0  0  0  0
   39.1370   31.7320   41.3150 C   0  0  0  0  0  0  0  0  0  0  0  0
   38.6390   32.8760   40.8250 N   0  0  0  0  0  0  0  0  0  0  0  0
   37.1390   33.7310   39.6540 H   0  0  0  0  0  0  0  0  0  0  0  0
   36.0440   31.6520   39.1180 H   0  0  0  0  0  0  0  0  0  0  0  0
   40.0280   31.7460   41.9490 H   0  0  0  0  0  0  0  0  0  0  0  0
   37.9080   27.2050   42.9730 C   0  0  0  0  0  2  0  0  0  0  0  0
   36.4890   27.4140   43.5030 C   0  0  0  0  0  2  0  0  0  0  0  0
   35.8840   26.4950   43.4350 H   0  0  0  0  0  0  0  0  0  0  0  0
  1  6  1  0  0  0  0
  2  3  1  0  0  0  0
  2  8  1  0  0  0  0
  2  1  1  0  0  0  0
  3  4  1  0  0  0  0
  4 11  1  0  0  0  0
  4 12  1  0  0  0  0
  4  5  1  0  0  0  0
  5 13  1  0  0  0  0
  5 14  1  0  0  0  0
  6 15  1  6  0  0  0
  6  5  1  0  0  0  0
  6 31  1  0  0  0  0
  7  2  1  0  0  0  0
  9  3  1  0  0  0  0
 10  3  1  0  0  0  0
 16  1  1  0  0  0  0
 16 18  1  0  0  0  0
 17 16  1  0  0  0  0
 19 16  1  0  0  0  0
 19 24  1  0  0  0  0
 19 20  1  0  0  0  0
 21 19  1  0  0  0  0
 22 27  1  0  0  0  0
 23 22  2  0  0  0  0
 23 24  1  0  0  0  0
 24 25  2  0  0  0  0
 25 26  1  0  0  0  0
 26 30  1  0  0  0  0
 27 26  2  0  0  0  0
 28 22  1  0  0  0  0
 29 23  1  0  0  0  0
 31 32  1  0  0  0  0
 33 32  1  0  0  0  0
M  END
>  <minimizedAffinity>
-4.26993418

$$$$

 OpenBabel03252508583D

 33 34  0  0  1  0  0  0  0  0999 V2000
   37.7590   29.4310   42.1940 N   0  0  0  0  0  0  0  0  0  0  0  0
   36.6140   29.7180   41.4000 C   0  0  0  0  0  0  0  0  0  0  0  0
   36.4810   31.1020   40.8500 C   0  0  0  0  0  0  0  0  0  0  0  0
   37.7800   31.7940   40.5500 C   0  0  0  0  0  0  0  0  0  0  0  0
   38.9480   30.9240   40.7970 C   0  0  0  0  0  0  0  0  0  0  0  0
   38.8110   30.3450   42.2330 C   0  0  2  0  0  0  0  0  0  0  0  0
   35.6850   29.4670   41.9510 H   0  0  0  0  0  0  0  0  0  0  0  0
   36.6430   29.0230   40.5310 H   0  0  0  0  0  0  0  0  0  0  0  0
   35.7960   31.0380   39.9690 H   0  0  0  0  0  0  0  0  0  0  0  0
   35.9600   31.7150   41.6400 H   0  0  0  0  0  0  0  0  0  0  0  0
   37.8530   32.7980   41.0150 H   0  0  0  0  0  0  0  0  0  0  0  0
   37.7600   32.0100   39.4410 H   0  0  0  0  0  0  0  0  0  0  0  0
   38.9580   30.0880   40.0680 H   0  0  0  0  0  0  0  0  0  0  0  0
   39.8500   31.5650   40.7140 H   0  0  0  0  0  0  0  0  0  0  0  0
   38.6950   31.2640   42.8350 H   0  0  0  0  0  0  0  0  0  0  0  0
   37.4830   28.6650   43.3600 C   0  0  0  0  0  0  0  0  0  0  0  0
   37.0460   29.2530   44.1730 H   0  0  0  0  0  0  0  0  0  0  0  0
   38.4860   28.3340   43.7600 H   0  0  0  0  0  0  0  0  0  0  0  0
   36.6800   27.4590   43.0480 C   0  0  0  0  0  0  0  0  0  0  0  0
   36.0060   27.4980   42.2010 H   0  0  0  0  0  0  0  0  0  0  0  0
   36.1850   27.1590   44.0250 H   0  0  0  0  0  0  0  0  0  0  0  0
   37.9320   24.1340   41.8250 C   0  0  0  0  0  0  0  0  0  0  0  0
   37.0960   25.2180   42.1050 C   0  0  0  0  0  0  0  0  0  0  0  0
   37.6000   26.3160   42.7660 C   0  0  0  0  0  0  0  0  0  0  0  0
   38.8950   26.2860   43.1140 N   0  0  0  0  0  0  0  0  0  0  0  0
   39.6920   25.2340   42.8390 C   0  0  0  0  0  0  0  0  0  0  0  0
   39.2200   24.1560   42.1960 N   0  0  0  0  0  0  0  0  0  0  0  0
   37.5440   23.2830   41.3130 H   0  0  0  0  0  0  0  0  0  0  0  0
   36.0540   25.1210   41.7670 H   0  0  0  0  0  0  0  0  0  0  0  0
   40.7390   25.2750   43.1510 H   0  0  0  0  0  0  0  0  0  0  0  0
   40.2000   29.7150   42.3780 C   0  0  0  0  0  2  0  0  0  0  0  0
   40.5330   28.8610   41.1540 C   0  0  0  0  0  2  0  0  0  0  0  0
   40.1960   29.3340   40.2160 H   0  0  0  0  0  0  0  0  0  0  0  0
  1  6  1  0  0  0  0
  1 16  1  0  0  0  0
  2  7  1  0  0  0  0
  2  1  1  0  0  0  0
  3  2  1  0  0  0  0
  3 10  1  0  0  0  0
  4  5  1  0  0  0  0
  4  3  1  0  0  0  0
  4 11  1  0  0  0  0
  5  6  1  0  0  0  0
  6 31  1  0  0  0  0
  6 15  1  1  0  0  0
  8  2  1  0  0  0  0
  9  3  1  0  0  0  0
 12  4  1  0  0  0  0
 13  5  1  0  0  0  0
 14  5  1  0  0  0  0
 16 18  1  0  0  0  0
 16 17  1  0  0  0  0
 19 16  1  0  0  0  0
 19 21  1  0  0  0  0
 20 19  1  0  0  0  0
 22 23  2  0  0  0  0
 22 27  1  0  0  0  0
 23 24  1  0  0  0  0
 24 19  1  0  0  0  0
 24 25  2  0  0  0  0
 26 25  1  0  0  0  0
 26 30  1  0  0  0  0
 27 26  2  0  0  0  0
 28 22  1  0  0  0  0
 29 23  1  0  0  0  0
 32 31  1  0  0  0  0
 33 32  1  0  0  0  0
M  END
>  <minimizedAffinity>
-4.23967171

$$$$

 OpenBabel03252508583D

 33 34  0  0  1  0  0  0  0  0999 V2000
   36.8540   28.2520   41.4300 N   0  0  0  0  0  0  0  0  0  0  0  0
   37.3860   29.1970   42.3510 C   0  0  0  0  0  0  0  0  0  0  0  0
   37.8830   28.6810   43.6630 C   0  0  0  0  0  0  0  0  0  0  0  0
   38.4460   27.2890   43.6280 C   0  0  0  0  0  0  0  0  0  0  0  0
   38.4590   26.7260   42.2620 C   0  0  0  0  0  0  0  0  0  0  0  0
   37.0310   26.8900   41.6700 C   0  0  2  0  0  0  0  0  0  0  0  0
   36.6530   30.0060   42.5460 H   0  0  0  0  0  0  0  0  0  0  0  0
   38.2470   29.6890   41.8460 H   0  0  0  0  0  0  0  0  0  0  0  0
   38.6010   29.4410   44.0610 H   0  0  0  0  0  0  0  0  0  0  0  0
   36.9970   28.6570   44.3580 H   0  0  0  0  0  0  0  0  0  0  0  0
   37.9980   26.6220   44.3920 H   0  0  0  0  0  0  0  0  0  0  0  0
   39.5230   27.3870   43.9520 H   0  0  0  0  0  0  0  0  0  0  0  0
   39.1800   27.2820   41.6300 H   0  0  0  0  0  0  0  0  0  0  0  0
   38.7250   25.6520   42.3590 H   0  0  0  0  0  0  0  0  0  0  0  0
   36.4100   26.4010   42.4410 H   0  0  0  0  0  0  0  0  0  0  0  0
   35.6630   28.6770   40.7810 C   0  0  0  0  0  0  0  0  0  0  0  0
   34.7590   28.5070   41.3740 H   0  0  0  0  0  0  0  0  0  0  0  0
   35.5400   28.0040   39.8830 H   0  0  0  0  0  0  0  0  0  0  0  0
   35.7650   30.0790   40.3070 C   0  0  0  0  0  0  0  0  0  0  0  0
   36.4690   30.7360   40.8030 H   0  0  0  0  0  0  0  0  0  0  0  0
   34.7000   30.4710   40.2800 H   0  0  0  0  0  0  0  0  0  0  0  0
   35.8990   29.1860   36.6610 C   0  0  0  0  0  0  0  0  0  0  0  0
   35.5460   29.2050   38.0120 C   0  0  0  0  0  0  0  0  0  0  0  0
   36.1690   30.0830   38.8690 C   0  0  0  0  0  0  0  0  0  0  0  0
   37.1050   30.8930   38.3510 N   0  0  0  0  0  0  0  0  0  0  0  0
   37.4390   30.8650   37.0450 C   0  0  0  0  0  0  0  0  0  0  0  0
   36.8420   30.0170   36.1940 N   0  0  0  0  0  0  0  0  0  0  0  0
   35.4180   28.5070   35.9950 H   0  0  0  0  0  0  0  0  0  0  0  0
   34.7640   28.4920   38.3140 H   0  0  0  0  0  0  0  0  0  0  0  0
   38.2100   31.5520   36.6870 H   0  0  0  0  0  0  0  0  0  0  0  0
   37.1880   26.0350   40.4080 C   0  0  0  0  0  2  0  0  0  0  0  0
   36.7210   24.6020   40.6670 C   0  0  0  0  0  2  0  0  0  0  0  0
   35.8110   24.5720   41.2900 H   0  0  0  0  0  0  0  0  0  0  0  0
  1  6  1  0  0  0  0
  1  2  1  0  0  0  0
  2  7  1  0  0  0  0
  2  3  1  0  0  0  0
  3  9  1  0  0  0  0
  3 10  1  0  0  0  0
  4  3  1  0  0  0  0
  4 12  1  0  0  0  0
  4 11  1  0  0  0  0
  5 14  1  0  0  0  0
  5  4  1  0  0  0  0
  6  5  1  0  0  0  0
  6 15  1  1  0  0  0
  8  2  1  0  0  0  0
 13  5  1  0  0  0  0
 16 17  1  0  0  0  0
 16  1  1  0  0  0  0
 18 16  1  0  0  0  0
 19 16  1  0  0  0  0
 19 20  1  0  0  0  0
 21 19  1  0  0  0  0
 22 23  1  0  0  0  0
 23 29  1  0  0  0  0
 23 24  2  0  0  0  0
 24 19  1  0  0  0  0
 25 24  1  0  0  0  0
 26 25  2  0  0  0  0
 27 22  2  0  0  0  0
 27 26  1  0  0  0  0
 28 22  1  0  0  0  0
 30 26  1  0  0  0  0
 31 32  1  0  0  0  0
 31  6  1  0  0  0  0
 32 33  1  0  0  0  0
M  END
>  <minimizedAffinity>
-4.22788954

$$$$
