
 OpenBabel03252501133D

 19 20  0  0  0  0  0  0  0  0999 V2000
   45.2050   34.9450   43.3350 C   0  0  0  0  0  0  0  0  0  0  0  0
   46.2930   35.0700   42.4540 C   0  0  0  0  0  0  0  0  0  0  0  0
   47.4380   34.3700   42.8090 C   0  0  0  0  0  0  0  0  0  0  0  0
   47.4390   33.6200   43.9630 N   0  0  0  0  0  0  0  0  0  0  0  0
   46.3660   33.5290   44.7770 C   0  0  0  0  0  0  0  0  0  0  0  0
   45.2390   34.2050   44.4500 N   0  0  0  0  0  0  0  0  0  0  0  0
   46.2610   35.6670   41.5570 H   0  0  0  0  0  0  0  0  0  0  0  0
   46.5880   32.8890   45.6210 H   0  0  0  0  0  0  0  0  0  0  0  0
   48.6660   34.3990   41.9430 C   0  0  0  0  0  0  0  0  0  0  0  0
   49.0080   35.7970   41.4710 C   0  0  0  0  0  0  0  0  0  0  0  0
   49.8730   35.0030   42.4910 C   0  0  0  0  0  0  0  0  0  0  0  0
   48.7420   33.6130   41.1810 H   0  0  0  0  0  0  0  0  0  0  0  0
   49.4410   35.8620   40.4540 H   0  0  0  0  0  0  0  0  0  0  0  0
   48.4420   36.6550   41.8370 H   0  0  0  0  0  0  0  0  0  0  0  0
   49.8660   35.4830   43.5060 H   0  0  0  0  0  0  0  0  0  0  0  0
   50.8920   34.7620   42.1690 H   0  0  0  0  0  0  0  0  0  0  0  0
   43.9480   35.6700   43.0130 C   0  0  0  0  0  0  0  0  0  0  0  0
   43.7070   35.5660   41.5280 C   0  0  0  0  0  0  0  0  0  0  0  0
   42.6240   35.5200   41.3140 H   0  0  0  0  0  0  0  0  0  0  0  0
  1  6  1  0  0  0  0
  2  3  1  0  0  0  0
  2  1  2  0  0  0  0
  3  4  2  0  0  0  0
  4  5  1  0  0  0  0
  5  8  1  0  0  0  0
  6  5  2  0  0  0  0
  7  2  1  0  0  0  0
  9 11  1  0  0  0  0
  9  3  1  0  0  0  0
 10 14  1  0  0  0  0
 10  9  1  0  0  0  0
 10 11  1  0  0  0  0
 11 15  1  0  0  0  0
 12  9  1  0  0  0  0
 13 10  1  0  0  0  0
 16 11  1  0  0  0  0
 17  1  1  0  0  0  0
 18 17  1  0  0  0  0
 19 18  1  0  0  0  0
M  END
>  <minimizedAffinity>
-4.09076691

>  <minimizedRMSD>
1.59515429

$$$$
