
 OpenBabel03242521033D

 21 22  0  0  0  0  0  0  0  0999 V2000
   37.6340   29.4280   41.7580 C   0  0  0  0  0  0  0  0  0  0  0  0
   37.7040   29.1770   43.1020 C   0  0  0  0  0  0  0  0  0  0  0  0
   37.5250   27.9430   43.6800 C   0  0  0  0  0  0  0  0  0  0  0  0
   37.2550   26.8650   42.8770 C   0  0  0  0  0  0  0  0  0  0  0  0
   37.1870   27.1280   41.5210 C   0  0  0  0  0  0  0  0  0  0  0  0
   37.3660   28.3450   40.9880 N   0  0  0  0  0  0  0  0  0  0  0  0
   37.9150   29.9930   43.7830 H   0  0  0  0  0  0  0  0  0  0  0  0
   37.5870   27.7770   44.7470 H   0  0  0  0  0  0  0  0  0  0  0  0
   37.0980   25.8540   43.2250 H   0  0  0  0  0  0  0  0  0  0  0  0
   37.2370   32.6830   39.8790 C   0  0  0  0  0  0  0  0  0  0  0  0
   36.8950   31.4080   40.3600 C   0  0  0  0  0  0  0  0  0  0  0  0
   37.8290   30.7490   41.1760 C   0  0  0  0  0  0  0  0  0  0  0  0
   38.9920   31.3820   41.4460 N   0  0  0  0  0  0  0  0  0  0  0  0
   39.2950   32.6030   40.9710 C   0  0  0  0  0  0  0  0  0  0  0  0
   38.4220   33.2480   40.1920 N   0  0  0  0  0  0  0  0  0  0  0  0
   36.4360   33.0890   39.2600 H   0  0  0  0  0  0  0  0  0  0  0  0
   36.0030   30.8630   40.1860 H   0  0  0  0  0  0  0  0  0  0  0  0
   40.2160   33.1200   41.1750 H   0  0  0  0  0  0  0  0  0  0  0  0
   36.9010   26.0570   40.5250 C   0  0  0  0  0  2  0  0  0  0  0  0
   36.9050   24.6850   41.1570 C   0  0  0  0  0  2  0  0  0  0  0  0
   36.0950   24.5970   41.8900 H   0  0  0  0  0  0  0  0  0  0  0  0
  1  2  1  0  0  0  0
  2  3  2  0  0  0  0
  2  7  1  0  0  0  0
  3  8  1  0  0  0  0
  4  9  1  0  0  0  0
  4  3  1  0  0  0  0
  5  4  2  0  0  0  0
  6  5  1  0  0  0  0
  6  1  2  0  0  0  0
 10 15  2  0  0  0  0
 10 11  1  0  0  0  0
 11 12  2  0  0  0  0
 12 13  1  0  0  0  0
 12  1  1  0  0  0  0
 14 18  1  0  0  0  0
 14 13  2  0  0  0  0
 15 14  1  0  0  0  0
 16 10  1  0  0  0  0
 17 11  1  0  0  0  0
 19 20  1  0  0  0  0
 19  5  1  0  0  0  0
 20 21  1  0  0  0  0
M  END
>  <minimizedAffinity>
-4.44747686

$$$$

 OpenBabel03242521033D

 21 22  0  0  0  0  0  0  0  0999 V2000
   38.6410   30.4070   41.7260 C   0  0  0  0  0  0  0  0  0  0  0  0
   39.9060   30.0430   42.1010 C   0  0  0  0  0  0  0  0  0  0  0  0
   40.2230   28.8790   42.7600 C   0  0  0  0  0  0  0  0  0  0  0  0
   39.2210   27.9990   43.0780 C   0  0  0  0  0  0  0  0  0  0  0  0
   37.9470   28.3770   42.6940 C   0  0  0  0  0  0  0  0  0  0  0  0
   37.6700   29.5200   42.0510 N   0  0  0  0  0  0  0  0  0  0  0  0
   40.7370   30.7010   41.8760 H   0  0  0  0  0  0  0  0  0  0  0  0
   41.2340   28.6190   43.0450 H   0  0  0  0  0  0  0  0  0  0  0  0
   39.3580   27.0590   43.5930 H   0  0  0  0  0  0  0  0  0  0  0  0
   37.1070   33.0910   39.5510 C   0  0  0  0  0  0  0  0  0  0  0  0
   37.2610   31.8270   40.1440 C   0  0  0  0  0  0  0  0  0  0  0  0
   38.3380   31.6500   41.0280 C   0  0  0  0  0  0  0  0  0  0  0  0
   39.1530   32.7040   41.2510 N   0  0  0  0  0  0  0  0  0  0  0  0
   38.9830   33.9050   40.6700 C   0  0  0  0  0  0  0  0  0  0  0  0
   37.9660   34.0950   39.8250 N   0  0  0  0  0  0  0  0  0  0  0  0
   36.2400   33.1030   38.8890 H   0  0  0  0  0  0  0  0  0  0  0  0
   36.6580   30.9660   40.0100 H   0  0  0  0  0  0  0  0  0  0  0  0
   39.6240   34.7530   40.8360 H   0  0  0  0  0  0  0  0  0  0  0  0
   36.7560   27.5230   42.9700 C   0  0  0  0  0  2  0  0  0  0  0  0
   36.9520   26.1080   42.4780 C   0  0  0  0  0  2  0  0  0  0  0  0
   37.7690   25.6210   43.0240 H   0  0  0  0  0  0  0  0  0  0  0  0
  1  6  2  0  0  0  0
  1  2  1  0  0  0  0
  2  3  2  0  0  0  0
  3  8  1  0  0  0  0
  3  4  1  0  0  0  0
  4  9  1  0  0  0  0
  5 19  1  0  0  0  0
  5  4  2  0  0  0  0
  6  5  1  0  0  0  0
  7  2  1  0  0  0  0
 10 15  2  0  0  0  0
 10 11  1  0  0  0  0
 11 12  2  0  0  0  0
 12 13  1  0  0  0  0
 12  1  1  0  0  0  0
 14 18  1  0  0  0  0
 14 13  2  0  0  0  0
 15 14  1  0  0  0  0
 16 10  1  0  0  0  0
 17 11  1  0  0  0  0
 20 19  1  0  0  0  0
 20 21  1  0  0  0  0
M  END
>  <minimizedAffinity>
-4.38165808

$$$$

 OpenBabel03242521033D

 21 22  0  0  0  0  0  0  0  0999 V2000
   37.6560   30.5980   41.1420 C   0  0  0  0  0  0  0  0  0  0  0  0
   36.5660   30.1990   40.4160 C   0  0  0  0  0  0  0  0  0  0  0  0
   35.8170   29.0780   40.6790 C   0  0  0  0  0  0  0  0  0  0  0  0
   36.1610   28.2810   41.7400 C   0  0  0  0  0  0  0  0  0  0  0  0
   37.2640   28.6920   42.4680 C   0  0  0  0  0  0  0  0  0  0  0  0
   37.9750   29.7930   42.1850 N   0  0  0  0  0  0  0  0  0  0  0  0
   36.2500   30.7920   39.5670 H   0  0  0  0  0  0  0  0  0  0  0  0
   34.9600   28.7890   40.0860 H   0  0  0  0  0  0  0  0  0  0  0  0
   35.6430   27.3790   42.0360 H   0  0  0  0  0  0  0  0  0  0  0  0
   40.4180   33.1330   40.6560 C   0  0  0  0  0  0  0  0  0  0  0  0
   39.8210   31.9080   40.9990 C   0  0  0  0  0  0  0  0  0  0  0  0
   38.4310   31.7940   40.8360 C   0  0  0  0  0  0  0  0  0  0  0  0
   37.7590   32.8650   40.3620 N   0  0  0  0  0  0  0  0  0  0  0  0
   38.3550   34.0280   40.0420 C   0  0  0  0  0  0  0  0  0  0  0  0
   39.6760   34.1590   40.1890 N   0  0  0  0  0  0  0  0  0  0  0  0
   41.4940   33.0970   40.8250 H   0  0  0  0  0  0  0  0  0  0  0  0
   40.2920   31.0350   41.3730 H   0  0  0  0  0  0  0  0  0  0  0  0
   37.8340   34.8910   39.6650 H   0  0  0  0  0  0  0  0  0  0  0  0
   37.7580   27.9280   43.6480 C   0  0  0  0  0  2  0  0  0  0  0  0
   39.0930   27.2740   43.3770 C   0  0  0  0  0  2  0  0  0  0  0  0
   39.8640   28.0330   43.2010 H   0  0  0  0  0  0  0  0  0  0  0  0
  1  6  1  0  0  0  0
  2  3  1  0  0  0  0
  2  1  2  0  0  0  0
  3  4  2  0  0  0  0
  4  9  1  0  0  0  0
  4  5  1  0  0  0  0
  5 19  1  0  0  0  0
  6  5  2  0  0  0  0
  7  2  1  0  0  0  0
  8  3  1  0  0  0  0
 10 16  1  0  0  0  0
 10 11  1  0  0  0  0
 11 17  1  0  0  0  0
 12 11  2  0  0  0  0
 12  1  1  0  0  0  0
 13 12  1  0  0  0  0
 14 15  1  0  0  0  0
 14 13  2  0  0  0  0
 15 10  2  0  0  0  0
 18 14  1  0  0  0  0
 20 19  1  0  0  0  0
 21 20  1  0  0  0  0
M  END
>  <minimizedAffinity>
-4.3811698

$$$$

 OpenBabel03242521033D

 21 22  0  0  0  0  0  0  0  0999 V2000
   38.6060   27.8880   42.3120 C   0  0  0  0  0  0  0  0  0  0  0  0
   39.6990   27.9450   43.1340 C   0  0  0  0  0  0  0  0  0  0  0  0
   40.3260   26.8510   43.6800 C   0  0  0  0  0  0  0  0  0  0  0  0
   39.8460   25.5980   43.3980 C   0  0  0  0  0  0  0  0  0  0  0  0
   38.7420   25.5510   42.5660 C   0  0  0  0  0  0  0  0  0  0  0  0
   38.1520   26.6380   42.0490 N   0  0  0  0  0  0  0  0  0  0  0  0
   40.1200   28.9090   43.3900 H   0  0  0  0  0  0  0  0  0  0  0  0
   41.1890   26.9280   44.3270 H   0  0  0  0  0  0  0  0  0  0  0  0
   40.2610   24.6720   43.7720 H   0  0  0  0  0  0  0  0  0  0  0  0
   36.1330   30.3730   40.8990 C   0  0  0  0  0  0  0  0  0  0  0  0
   36.5970   29.1610   41.4360 C   0  0  0  0  0  0  0  0  0  0  0  0
   37.9620   29.0680   41.7490 C   0  0  0  0  0  0  0  0  0  0  0  0
   38.7400   30.1470   41.5140 N   0  0  0  0  0  0  0  0  0  0  0  0
   38.2710   31.2970   40.9980 C   0  0  0  0  0  0  0  0  0  0  0  0
   36.9750   31.4070   40.6920 N   0  0  0  0  0  0  0  0  0  0  0  0
   35.0620   30.3210   40.7000 H   0  0  0  0  0  0  0  0  0  0  0  0
   36.0390   28.2830   41.6440 H   0  0  0  0  0  0  0  0  0  0  0  0
   38.8760   32.1650   40.8040 H   0  0  0  0  0  0  0  0  0  0  0  0
   38.1080   24.2610   42.1710 C   0  0  0  0  0  2  0  0  0  0  0  0
   36.7440   24.4700   41.5530 C   0  0  0  0  0  2  0  0  0  0  0  0
   36.8280   25.0310   40.6150 H   0  0  0  0  0  0  0  0  0  0  0  0
  1  2  1  0  0  0  0
  2  7  1  0  0  0  0
  2  3  2  0  0  0  0
  3  8  1  0  0  0  0
  4  3  1  0  0  0  0
  4  9  1  0  0  0  0
  5  4  2  0  0  0  0
  6  1  2  0  0  0  0
  6  5  1  0  0  0  0
 10 11  1  0  0  0  0
 11 17  1  0  0  0  0
 11 12  2  0  0  0  0
 12  1  1  0  0  0  0
 13 12  1  0  0  0  0
 14 13  2  0  0  0  0
 15 10  2  0  0  0  0
 15 14  1  0  0  0  0
 16 10  1  0  0  0  0
 18 14  1  0  0  0  0
 19  5  1  0  0  0  0
 20 19  1  0  0  0  0
 21 20  1  0  0  0  0
M  END
>  <minimizedAffinity>
-4.29706764

$$$$

 OpenBabel03242521033D

 21 22  0  0  0  0  0  0  0  0999 V2000
   37.9030   30.9890   41.0610 C   0  0  0  0  0  0  0  0  0  0  0  0
   36.9470   31.5740   40.2740 C   0  0  0  0  0  0  0  0  0  0  0  0
   37.1250   32.7320   39.5570 C   0  0  0  0  0  0  0  0  0  0  0  0
   38.3360   33.3720   39.6130 C   0  0  0  0  0  0  0  0  0  0  0  0
   39.2950   32.7730   40.4100 C   0  0  0  0  0  0  0  0  0  0  0  0
   39.0910   31.6410   41.0980 N   0  0  0  0  0  0  0  0  0  0  0  0
   35.9720   31.1110   40.1940 H   0  0  0  0  0  0  0  0  0  0  0  0
   36.3490   33.1710   38.9440 H   0  0  0  0  0  0  0  0  0  0  0  0
   38.5830   34.2860   39.0910 H   0  0  0  0  0  0  0  0  0  0  0  0
   38.0920   28.1420   43.5400 C   0  0  0  0  0  0  0  0  0  0  0  0
   38.4330   29.3600   42.9290 C   0  0  0  0  0  0  0  0  0  0  0  0
   37.6840   29.7590   41.8110 C   0  0  0  0  0  0  0  0  0  0  0  0
   36.6860   28.9480   41.3960 N   0  0  0  0  0  0  0  0  0  0  0  0
   36.3800   27.7850   41.9990 C   0  0  0  0  0  0  0  0  0  0  0  0
   37.0810   27.3870   43.0650 N   0  0  0  0  0  0  0  0  0  0  0  0
   38.7430   27.9440   44.3930 H   0  0  0  0  0  0  0  0  0  0  0  0
   39.2000   30.0380   43.2070 H   0  0  0  0  0  0  0  0  0  0  0  0
   35.5900   27.1280   41.6810 H   0  0  0  0  0  0  0  0  0  0  0  0
   40.6590   33.3520   40.5700 C   0  0  0  0  0  2  0  0  0  0  0  0
   41.0720   34.1610   39.3620 C   0  0  0  0  0  2  0  0  0  0  0  0
   40.4190   35.0330   39.2420 H   0  0  0  0  0  0  0  0  0  0  0  0
  1  6  1  0  0  0  0
  1 12  1  0  0  0  0
  2  1  2  0  0  0  0
  3  4  2  0  0  0  0
  3  2  1  0  0  0  0
  4  5  1  0  0  0  0
  5 19  1  0  0  0  0
  5  6  2  0  0  0  0
  7  2  1  0  0  0  0
  8  3  1  0  0  0  0
  9  4  1  0  0  0  0
 10 16  1  0  0  0  0
 11 17  1  0  0  0  0
 11 10  2  0  0  0  0
 12 11  1  0  0  0  0
 13 12  2  0  0  0  0
 13 14  1  0  0  0  0
 14 15  2  0  0  0  0
 15 10  1  0  0  0  0
 18 14  1  0  0  0  0
 20 19  1  0  0  0  0
 21 20  1  0  0  0  0
M  END
>  <minimizedAffinity>
-4.16709232

$$$$

 OpenBabel03242521033D

 21 22  0  0  0  0  0  0  0  0999 V2000
   37.6530   30.0660   40.2230 C   0  0  0  0  0  0  0  0  0  0  0  0
   37.6120   29.6120   38.9310 C   0  0  0  0  0  0  0  0  0  0  0  0
   37.4990   30.4150   37.8220 C   0  0  0  0  0  0  0  0  0  0  0  0
   37.4200   31.7740   37.9880 C   0  0  0  0  0  0  0  0  0  0  0  0
   37.4620   32.2220   39.2960 C   0  0  0  0  0  0  0  0  0  0  0  0
   37.5730   31.4120   40.3580 N   0  0  0  0  0  0  0  0  0  0  0  0
   37.6710   28.5480   38.7420 H   0  0  0  0  0  0  0  0  0  0  0  0
   37.4690   30.0260   36.8130 H   0  0  0  0  0  0  0  0  0  0  0  0
   37.3290   32.4950   37.1880 H   0  0  0  0  0  0  0  0  0  0  0  0
   38.9050   28.0980   43.1970 C   0  0  0  0  0  0  0  0  0  0  0  0
   38.9570   28.9790   42.1030 C   0  0  0  0  0  0  0  0  0  0  0  0
   37.7730   29.1880   41.3790 C   0  0  0  0  0  0  0  0  0  0  0  0
   36.6620   28.5310   41.7790 N   0  0  0  0  0  0  0  0  0  0  0  0
   36.6390   27.6920   42.8300 C   0  0  0  0  0  0  0  0  0  0  0  0
   37.7540   27.4780   43.5330 N   0  0  0  0  0  0  0  0  0  0  0  0
   39.8810   28.0200   43.6760 H   0  0  0  0  0  0  0  0  0  0  0  0
   39.7930   29.5220   41.7430 H   0  0  0  0  0  0  0  0  0  0  0  0
   35.7640   27.1610   43.1610 H   0  0  0  0  0  0  0  0  0  0  0  0
   37.3860   33.6720   39.6340 C   0  0  0  0  0  2  0  0  0  0  0  0
   38.6460   34.1590   40.3120 C   0  0  0  0  0  2  0  0  0  0  0  0
   39.5030   34.0820   39.6320 H   0  0  0  0  0  0  0  0  0  0  0  0
  1  6  1  0  0  0  0
  1 12  1  0  0  0  0
  2  1  2  0  0  0  0
  3  4  2  0  0  0  0
  3  2  1  0  0  0  0
  4  5  1  0  0  0  0
  5 19  1  0  0  0  0
  5  6  2  0  0  0  0
  7  2  1  0  0  0  0
  8  3  1  0  0  0  0
  9  4  1  0  0  0  0
 10 15  1  0  0  0  0
 10 16  1  0  0  0  0
 11 10  2  0  0  0  0
 12 13  2  0  0  0  0
 12 11  1  0  0  0  0
 13 14  1  0  0  0  0
 14 18  1  0  0  0  0
 14 15  2  0  0  0  0
 17 11  1  0  0  0  0
 19 20  1  0  0  0  0
 21 20  1  0  0  0  0
M  END
>  <minimizedAffinity>
-4.07703829

$$$$

 OpenBabel03242521033D

 21 22  0  0  0  0  0  0  0  0999 V2000
   37.2510   26.5300   41.2030 C   0  0  0  0  0  0  0  0  0  0  0  0
   36.6190   25.5530   40.4810 C   0  0  0  0  0  0  0  0  0  0  0  0
   36.9200   24.2140   40.5430 C   0  0  0  0  0  0  0  0  0  0  0  0
   37.9200   23.7940   41.3820 C   0  0  0  0  0  0  0  0  0  0  0  0
   38.5510   24.7880   42.1090 C   0  0  0  0  0  0  0  0  0  0  0  0
   38.2340   26.0880   42.0250 N   0  0  0  0  0  0  0  0  0  0  0  0
   35.8220   25.8290   39.8020 H   0  0  0  0  0  0  0  0  0  0  0  0
   36.4030   23.4660   39.9580 H   0  0  0  0  0  0  0  0  0  0  0  0
   38.2370   22.7690   41.5090 H   0  0  0  0  0  0  0  0  0  0  0  0
   37.1910   30.2970   41.5040 C   0  0  0  0  0  0  0  0  0  0  0  0
   37.6580   28.9850   41.6830 C   0  0  0  0  0  0  0  0  0  0  0  0
   36.9080   27.9430   41.1140 C   0  0  0  0  0  0  0  0  0  0  0  0
   35.7880   28.2690   40.4330 N   0  0  0  0  0  0  0  0  0  0  0  0
   35.3610   29.5350   40.2770 C   0  0  0  0  0  0  0  0  0  0  0  0
   36.0590   30.5410   40.8110 N   0  0  0  0  0  0  0  0  0  0  0  0
   37.8560   31.0120   41.9900 H   0  0  0  0  0  0  0  0  0  0  0  0
   38.5260   28.6660   42.2030 H   0  0  0  0  0  0  0  0  0  0  0  0
   34.4710   29.8120   39.7390 H   0  0  0  0  0  0  0  0  0  0  0  0
   39.6560   24.4850   43.0610 C   0  0  0  0  0  2  0  0  0  0  0  0
   40.2340   25.7410   43.6720 C   0  0  0  0  0  2  0  0  0  0  0  0
   39.4810   26.2530   44.2820 H   0  0  0  0  0  0  0  0  0  0  0  0
  1  6  1  0  0  0  0
  2  3  1  0  0  0  0
  2  1  2  0  0  0  0
  3  4  2  0  0  0  0
  4  9  1  0  0  0  0
  4  5  1  0  0  0  0
  5 19  1  0  0  0  0
  6  5  2  0  0  0  0
  7  2  1  0  0  0  0
  8  3  1  0  0  0  0
 10 11  1  0  0  0  0
 10 16  1  0  0  0  0
 11 17  1  0  0  0  0
 12  1  1  0  0  0  0
 12 11  2  0  0  0  0
 13 12  1  0  0  0  0
 14 13  2  0  0  0  0
 14 15  1  0  0  0  0
 15 10  2  0  0  0  0
 18 14  1  0  0  0  0
 19 20  1  0  0  0  0
 20 21  1  0  0  0  0
M  END
>  <minimizedAffinity>
-4.05745602

$$$$

 OpenBabel03242521033D

 21 22  0  0  0  0  0  0  0  0999 V2000
   36.7360   30.9020   39.3500 C   0  0  0  0  0  0  0  0  0  0  0  0
   35.9880   30.3310   40.3440 C   0  0  0  0  0  0  0  0  0  0  0  0
   35.0460   29.3500   40.1500 C   0  0  0  0  0  0  0  0  0  0  0  0
   34.8160   28.8880   38.8800 C   0  0  0  0  0  0  0  0  0  0  0  0
   35.5780   29.4710   37.8830 C   0  0  0  0  0  0  0  0  0  0  0  0
   36.4900   30.4280   38.1050 N   0  0  0  0  0  0  0  0  0  0  0  0
   36.1280   30.6570   41.3670 H   0  0  0  0  0  0  0  0  0  0  0  0
   34.4700   28.9180   40.9570 H   0  0  0  0  0  0  0  0  0  0  0  0
   34.1020   28.1210   38.6150 H   0  0  0  0  0  0  0  0  0  0  0  0
   38.5030   34.1610   40.0890 C   0  0  0  0  0  0  0  0  0  0  0  0
   37.4270   33.2810   39.8850 C   0  0  0  0  0  0  0  0  0  0  0  0
   37.7280   31.9420   39.5890 C   0  0  0  0  0  0  0  0  0  0  0  0
   39.0300   31.5860   39.5200 N   0  0  0  0  0  0  0  0  0  0  0  0
   40.0420   32.4500   39.7200 C   0  0  0  0  0  0  0  0  0  0  0  0
   39.7780   33.7290   40.0020 N   0  0  0  0  0  0  0  0  0  0  0  0
   38.1420   35.1660   40.3110 H   0  0  0  0  0  0  0  0  0  0  0  0
   36.3900   33.4980   39.9260 H   0  0  0  0  0  0  0  0  0  0  0  0
   41.0830   32.1840   39.6680 H   0  0  0  0  0  0  0  0  0  0  0  0
   35.4400   29.0730   36.4530 C   0  0  0  0  0  2  0  0  0  0  0  0
   36.7790   29.0080   35.7550 C   0  0  0  0  0  2  0  0  0  0  0  0
   37.4050   28.2240   36.1970 H   0  0  0  0  0  0  0  0  0  0  0  0
  1 12  1  0  0  0  0
  1  2  1  0  0  0  0
  2  7  1  0  0  0  0
  3  2  2  0  0  0  0
  3  8  1  0  0  0  0
  4  3  1  0  0  0  0
  5  6  1  0  0  0  0
  5  4  2  0  0  0  0
  6  1  2  0  0  0  0
  9  4  1  0  0  0  0
 10 16  1  0  0  0  0
 11 17  1  0  0  0  0
 11 10  2  0  0  0  0
 12 11  1  0  0  0  0
 13 12  2  0  0  0  0
 13 14  1  0  0  0  0
 14 15  2  0  0  0  0
 15 10  1  0  0  0  0
 18 14  1  0  0  0  0
 19  5  1  0  0  0  0
 20 21  1  0  0  0  0
 20 19  1  0  0  0  0
M  END
>  <minimizedAffinity>
-4.02686214

$$$$

 OpenBabel03242521033D

 21 22  0  0  0  0  0  0  0  0999 V2000
   37.5180   28.0990   41.7970 C   0  0  0  0  0  0  0  0  0  0  0  0
   37.9410   29.3610   42.1180 C   0  0  0  0  0  0  0  0  0  0  0  0
   37.3300   30.5200   41.7060 C   0  0  0  0  0  0  0  0  0  0  0  0
   36.2130   30.4400   40.9150 C   0  0  0  0  0  0  0  0  0  0  0  0
   35.7930   29.1610   40.5970 C   0  0  0  0  0  0  0  0  0  0  0  0
   36.4120   28.0480   41.0150 N   0  0  0  0  0  0  0  0  0  0  0  0
   38.8190   29.4830   42.7410 H   0  0  0  0  0  0  0  0  0  0  0  0
   37.6890   31.5040   41.9760 H   0  0  0  0  0  0  0  0  0  0  0  0
   35.6560   31.2850   40.5360 H   0  0  0  0  0  0  0  0  0  0  0  0
   39.8520   25.6090   43.4230 C   0  0  0  0  0  0  0  0  0  0  0  0
   39.3250   26.8640   43.0740 C   0  0  0  0  0  0  0  0  0  0  0  0
   38.1890   26.8870   42.2500 C   0  0  0  0  0  0  0  0  0  0  0  0
   37.6750   25.7040   41.8470 N   0  0  0  0  0  0  0  0  0  0  0  0
   38.2000   24.5150   42.1940 C   0  0  0  0  0  0  0  0  0  0  0  0
   39.2810   24.4700   42.9770 N   0  0  0  0  0  0  0  0  0  0  0  0
   40.7280   25.7230   44.0620 H   0  0  0  0  0  0  0  0  0  0  0  0
   39.6800   27.8220   43.3590 H   0  0  0  0  0  0  0  0  0  0  0  0
   37.8050   23.5650   41.8810 H   0  0  0  0  0  0  0  0  0  0  0  0
   34.5950   28.9150   39.7450 C   0  0  0  0  0  2  0  0  0  0  0  0
   34.8890   29.1400   38.2800 C   0  0  0  0  0  2  0  0  0  0  0  0
   35.6310   28.4170   37.9210 H   0  0  0  0  0  0  0  0  0  0  0  0
  1  2  1  0  0  0  0
  1 12  1  0  0  0  0
  2  7  1  0  0  0  0
  3  8  1  0  0  0  0
  3  2  2  0  0  0  0
  4  3  1  0  0  0  0
  5  4  2  0  0  0  0
  5  6  1  0  0  0  0
  6  1  2  0  0  0  0
  9  4  1  0  0  0  0
 10 16  1  0  0  0  0
 11 17  1  0  0  0  0
 11 10  1  0  0  0  0
 12 11  2  0  0  0  0
 13 14  2  0  0  0  0
 13 12  1  0  0  0  0
 14 15  1  0  0  0  0
 15 10  2  0  0  0  0
 18 14  1  0  0  0  0
 19  5  1  0  0  0  0
 20 19  1  0  0  0  0
 21 20  1  0  0  0  0
M  END
>  <minimizedAffinity>
-3.97387338

$$$$
