
 OpenBabel03252501143D

 19 20  0  0  0  0  0  0  0  0999 V2000
   37.7090   31.0560   40.8480 C   0  0  0  0  0  0  0  0  0  0  0  0
   37.2230   30.0010   41.6400 C   0  0  0  0  0  0  0  0  0  0  0  0
   38.0660   29.5760   42.6570 C   0  0  0  0  0  0  0  0  0  0  0  0
   39.2870   30.1900   42.8240 N   0  0  0  0  0  0  0  0  0  0  0  0
   39.7080   31.2020   42.0370 C   0  0  0  0  0  0  0  0  0  0  0  0
   38.9020   31.6330   41.0380 N   0  0  0  0  0  0  0  0  0  0  0  0
   36.2620   29.5400   41.4830 H   0  0  0  0  0  0  0  0  0  0  0  0
   40.6910   31.5340   42.3450 H   0  0  0  0  0  0  0  0  0  0  0  0
   37.6600   28.4700   43.5910 C   0  0  0  0  0  0  0  0  0  0  0  0
   36.6500   27.5290   42.9690 C   0  0  0  0  0  0  0  0  0  0  0  0
   38.1160   27.1200   43.2900 C   0  0  0  0  0  0  0  0  0  0  0  0
   37.4550   28.7630   44.6290 H   0  0  0  0  0  0  0  0  0  0  0  0
   35.8940   27.1160   43.6660 H   0  0  0  0  0  0  0  0  0  0  0  0
   36.3660   27.6410   41.9220 H   0  0  0  0  0  0  0  0  0  0  0  0
   38.7020   26.9060   42.3580 H   0  0  0  0  0  0  0  0  0  0  0  0
   38.2380   26.3240   44.0330 H   0  0  0  0  0  0  0  0  0  0  0  0
   36.8550   31.5610   39.7410 C   0  0  0  0  0  2  0  0  0  0  0  0
   37.2510   32.9860   39.4470 C   0  0  0  0  0  2  0  0  0  0  0  0
   37.1410   33.2050   38.3710 H   0  0  0  0  0  0  0  0  0  0  0  0
  1  6  2  0  0  0  0
  1  2  1  0  0  0  0
  2  3  2  0  0  0  0
  3  4  1  0  0  0  0
  3  9  1  0  0  0  0
  5  8  1  0  0  0  0
  5  4  2  0  0  0  0
  6  5  1  0  0  0  0
  7  2  1  0  0  0  0
  9 12  1  0  0  0  0
 10 11  1  0  0  0  0
 10  9  1  0  0  0  0
 10 13  1  0  0  0  0
 11  9  1  0  0  0  0
 11 16  1  0  0  0  0
 14 10  1  0  0  0  0
 15 11  1  0  0  0  0
 17  1  1  0  0  0  0
 18 17  1  0  0  0  0
 19 18  1  0  0  0  0
M  END
>  <minimizedAffinity>
-3.87950778

$$$$

 OpenBabel03252501143D

 19 20  0  0  0  0  0  0  0  0999 V2000
   37.8380   29.2890   42.7690 C   0  0  0  0  0  0  0  0  0  0  0  0
   36.9720   29.8020   41.7870 C   0  0  0  0  0  0  0  0  0  0  0  0
   37.5060   30.7910   40.9730 C   0  0  0  0  0  0  0  0  0  0  0  0
   38.8070   31.1970   41.1690 N   0  0  0  0  0  0  0  0  0  0  0  0
   39.6000   30.6720   42.1250 C   0  0  0  0  0  0  0  0  0  0  0  0
   39.1000   29.7050   42.9310 N   0  0  0  0  0  0  0  0  0  0  0  0
   35.9580   29.4630   41.6600 H   0  0  0  0  0  0  0  0  0  0  0  0
   40.5780   31.1350   42.0990 H   0  0  0  0  0  0  0  0  0  0  0  0
   36.6950   31.4100   39.8700 C   0  0  0  0  0  0  0  0  0  0  0  0
   37.2500   32.7470   39.4230 C   0  0  0  0  0  0  0  0  0  0  0  0
   37.2830   31.4670   38.5380 C   0  0  0  0  0  0  0  0  0  0  0  0
   35.6040   31.3680   39.9870 H   0  0  0  0  0  0  0  0  0  0  0  0
   36.4930   33.4960   39.1170 H   0  0  0  0  0  0  0  0  0  0  0  0
   38.1930   33.1140   39.8300 H   0  0  0  0  0  0  0  0  0  0  0  0
   38.3330   31.1130   38.3580 H   0  0  0  0  0  0  0  0  0  0  0  0
   36.7110   31.5150   37.6060 H   0  0  0  0  0  0  0  0  0  0  0  0
   37.3290   28.2250   43.6750 C   0  0  0  0  0  2  0  0  0  0  0  0
   36.9510   27.0300   42.8370 C   0  0  0  0  0  2  0  0  0  0  0  0
   37.1450   26.0930   43.3890 H   0  0  0  0  0  0  0  0  0  0  0  0
  1  6  1  0  0  0  0
  1 17  1  0  0  0  0
  2  1  2  0  0  0  0
  3  4  2  0  0  0  0
  3  2  1  0  0  0  0
  4  5  1  0  0  0  0
  5  6  2  0  0  0  0
  7  2  1  0  0  0  0
  8  5  1  0  0  0  0
  9 12  1  0  0  0  0
  9  3  1  0  0  0  0
 10 14  1  0  0  0  0
 10  9  1  0  0  0  0
 11 10  1  0  0  0  0
 11  9  1  0  0  0  0
 13 10  1  0  0  0  0
 15 11  1  0  0  0  0
 16 11  1  0  0  0  0
 18 19  1  0  0  0  0
 18 17  1  0  0  0  0
M  END
>  <minimizedAffinity>
-3.8357296

$$$$

 OpenBabel03252501143D

 19 20  0  0  0  0  0  0  0  0999 V2000
   36.7290   29.0940   41.5790 C   0  0  0  0  0  0  0  0  0  0  0  0
   36.4710   27.7150   41.4850 C   0  0  0  0  0  0  0  0  0  0  0  0
   37.2140   26.9070   42.3340 C   0  0  0  0  0  0  0  0  0  0  0  0
   38.1270   27.4830   43.1880 N   0  0  0  0  0  0  0  0  0  0  0  0
   38.3370   28.8150   43.2420 C   0  0  0  0  0  0  0  0  0  0  0  0
   37.6230   29.6230   42.4220 N   0  0  0  0  0  0  0  0  0  0  0  0
   35.7490   27.2940   40.8050 H   0  0  0  0  0  0  0  0  0  0  0  0
   39.0930   29.0470   43.9800 H   0  0  0  0  0  0  0  0  0  0  0  0
   37.0230   25.4160   42.3520 C   0  0  0  0  0  0  0  0  0  0  0  0
   36.9300   24.8280   40.9590 C   0  0  0  0  0  0  0  0  0  0  0  0
   38.1320   24.5790   41.9150 C   0  0  0  0  0  0  0  0  0  0  0  0
   36.2950   25.0280   43.0770 H   0  0  0  0  0  0  0  0  0  0  0  0
   36.2420   23.9650   40.8540 H   0  0  0  0  0  0  0  0  0  0  0  0
   37.0910   25.4580   40.0840 H   0  0  0  0  0  0  0  0  0  0  0  0
   39.0780   25.0390   41.5220 H   0  0  0  0  0  0  0  0  0  0  0  0
   38.2900   23.5410   42.2260 H   0  0  0  0  0  0  0  0  0  0  0  0
   35.9660   30.0160   40.6960 C   0  0  0  0  0  2  0  0  0  0  0  0
   34.9020   29.2200   39.9840 C   0  0  0  0  0  2  0  0  0  0  0  0
   33.9990   29.8360   39.8240 H   0  0  0  0  0  0  0  0  0  0  0  0
  1  6  1  0  0  0  0
  2  1  2  0  0  0  0
  2  3  1  0  0  0  0
  3  9  1  0  0  0  0
  3  4  2  0  0  0  0
  4  5  1  0  0  0  0
  5  8  1  0  0  0  0
  6  5  2  0  0  0  0
  7  2  1  0  0  0  0
  9 12  1  0  0  0  0
 10 11  1  0  0  0  0
 10  9  1  0  0  0  0
 11 16  1  0  0  0  0
 11  9  1  0  0  0  0
 13 10  1  0  0  0  0
 14 10  1  0  0  0  0
 15 11  1  0  0  0  0
 17  1  1  0  0  0  0
 18 17  1  0  0  0  0
 19 18  1  0  0  0  0
M  END
>  <minimizedAffinity>
-3.76981759

$$$$

 OpenBabel03252501143D

 19 20  0  0  0  0  0  0  0  0999 V2000
   36.0370   29.4050   39.3510 C   0  0  0  0  0  0  0  0  0  0  0  0
   36.2800   28.2640   40.1360 C   0  0  0  0  0  0  0  0  0  0  0  0
   36.7440   28.5080   41.4220 C   0  0  0  0  0  0  0  0  0  0  0  0
   36.9310   29.8070   41.8370 N   0  0  0  0  0  0  0  0  0  0  0  0
   36.6810   30.8700   41.0450 C   0  0  0  0  0  0  0  0  0  0  0  0
   36.2280   30.6560   39.7870 N   0  0  0  0  0  0  0  0  0  0  0  0
   36.1240   27.2590   39.7810 H   0  0  0  0  0  0  0  0  0  0  0  0
   36.8950   31.7900   41.5720 H   0  0  0  0  0  0  0  0  0  0  0  0
   37.0240   27.3780   42.3730 C   0  0  0  0  0  0  0  0  0  0  0  0
   37.8790   27.8080   43.5460 C   0  0  0  0  0  0  0  0  0  0  0  0
   36.3810   27.4110   43.6800 C   0  0  0  0  0  0  0  0  0  0  0  0
   37.2960   26.4170   41.9180 H   0  0  0  0  0  0  0  0  0  0  0  0
   38.5920   27.0460   43.9190 H   0  0  0  0  0  0  0  0  0  0  0  0
   38.1460   28.8580   43.6780 H   0  0  0  0  0  0  0  0  0  0  0  0
   35.7450   28.2830   43.9860 H   0  0  0  0  0  0  0  0  0  0  0  0
   36.1740   26.5280   44.2940 H   0  0  0  0  0  0  0  0  0  0  0  0
   35.5380   29.2150   37.9630 C   0  0  0  0  0  2  0  0  0  0  0  0
   34.0630   28.9090   38.0270 C   0  0  0  0  0  2  0  0  0  0  0  0
   33.5420   29.3320   37.1500 H   0  0  0  0  0  0  0  0  0  0  0  0
  1  6  2  0  0  0  0
  1  2  1  0  0  0  0
  2  3  2  0  0  0  0
  3  4  1  0  0  0  0
  3  9  1  0  0  0  0
  5  8  1  0  0  0  0
  5  4  2  0  0  0  0
  6  5  1  0  0  0  0
  7  2  1  0  0  0  0
  9 10  1  0  0  0  0
  9 11  1  0  0  0  0
 10 14  1  0  0  0  0
 10 11  1  0  0  0  0
 10 13  1  0  0  0  0
 11 15  1  0  0  0  0
 11 16  1  0  0  0  0
 12  9  1  0  0  0  0
 17 18  1  0  0  0  0
 17  1  1  0  0  0  0
 19 18  1  0  0  0  0
M  END
>  <minimizedAffinity>
-3.76697135

$$$$

 OpenBabel03252501143D

 19 20  0  0  0  0  0  0  0  0999 V2000
   38.7460   31.2790   41.3520 C   0  0  0  0  0  0  0  0  0  0  0  0
   38.9210   30.2330   42.2740 C   0  0  0  0  0  0  0  0  0  0  0  0
   37.8030   29.4430   42.5060 C   0  0  0  0  0  0  0  0  0  0  0  0
   36.6300   29.7230   41.8420 N   0  0  0  0  0  0  0  0  0  0  0  0
   36.5120   30.7410   40.9640 C   0  0  0  0  0  0  0  0  0  0  0  0
   37.5910   31.5240   40.7220 N   0  0  0  0  0  0  0  0  0  0  0  0
   39.8540   30.0400   42.7780 H   0  0  0  0  0  0  0  0  0  0  0  0
   35.5090   30.7760   40.5620 H   0  0  0  0  0  0  0  0  0  0  0  0
   37.8590   28.2770   43.4520 C   0  0  0  0  0  0  0  0  0  0  0  0
   36.5770   27.4690   43.4520 C   0  0  0  0  0  0  0  0  0  0  0  0
   37.9240   26.9380   42.8820 C   0  0  0  0  0  0  0  0  0  0  0  0
   38.2910   28.4750   44.4420 H   0  0  0  0  0  0  0  0  0  0  0  0
   36.2890   27.0360   44.4300 H   0  0  0  0  0  0  0  0  0  0  0  0
   35.7790   27.7050   42.7460 H   0  0  0  0  0  0  0  0  0  0  0  0
   37.8740   26.7830   41.7720 H   0  0  0  0  0  0  0  0  0  0  0  0
   38.3470   26.0650   43.3910 H   0  0  0  0  0  0  0  0  0  0  0  0
   39.9050   32.1630   41.0580 C   0  0  0  0  0  2  0  0  0  0  0  0
   39.3780   33.5020   40.6070 C   0  0  0  0  0  2  0  0  0  0  0  0
   40.0490   34.3140   40.9390 H   0  0  0  0  0  0  0  0  0  0  0  0
  1  2  1  0  0  0  0
  2  3  2  0  0  0  0
  2  7  1  0  0  0  0
  3  9  1  0  0  0  0
  4  3  1  0  0  0  0
  5  4  2  0  0  0  0
  6  5  1  0  0  0  0
  6  1  2  0  0  0  0
  8  5  1  0  0  0  0
  9 12  1  0  0  0  0
 10  9  1  0  0  0  0
 10 13  1  0  0  0  0
 11 16  1  0  0  0  0
 11 10  1  0  0  0  0
 11  9  1  0  0  0  0
 14 10  1  0  0  0  0
 15 11  1  0  0  0  0
 17  1  1  0  0  0  0
 18 19  1  0  0  0  0
 18 17  1  0  0  0  0
M  END
>  <minimizedAffinity>
-3.71554518

$$$$

 OpenBabel03252501143D

 19 20  0  0  0  0  0  0  0  0999 V2000
   36.8390   30.6740   39.7610 C   0  0  0  0  0  0  0  0  0  0  0  0
   37.5230   30.4710   40.9720 C   0  0  0  0  0  0  0  0  0  0  0  0
   37.0600   29.4230   41.7560 C   0  0  0  0  0  0  0  0  0  0  0  0
   35.9950   28.6710   41.3160 N   0  0  0  0  0  0  0  0  0  0  0  0
   35.3710   28.9040   40.1420 C   0  0  0  0  0  0  0  0  0  0  0  0
   35.8060   29.9210   39.3610 N   0  0  0  0  0  0  0  0  0  0  0  0
   38.3540   31.0790   41.2900 H   0  0  0  0  0  0  0  0  0  0  0  0
   34.5670   28.1950   39.9960 H   0  0  0  0  0  0  0  0  0  0  0  0
   37.7150   29.0850   43.0650 C   0  0  0  0  0  0  0  0  0  0  0  0
   37.1600   27.8160   43.6800 C   0  0  0  0  0  0  0  0  0  0  0  0
   38.6020   27.9290   43.1070 C   0  0  0  0  0  0  0  0  0  0  0  0
   37.8670   29.9190   43.7630 H   0  0  0  0  0  0  0  0  0  0  0  0
   37.1050   27.8100   44.7860 H   0  0  0  0  0  0  0  0  0  0  0  0
   36.4360   27.2110   43.1320 H   0  0  0  0  0  0  0  0  0  0  0  0
   38.7420   27.2800   42.2020 H   0  0  0  0  0  0  0  0  0  0  0  0
   39.4150   27.7940   43.8280 H   0  0  0  0  0  0  0  0  0  0  0  0
   37.2840   31.7800   38.8740 C   0  0  0  0  0  2  0  0  0  0  0  0
   37.3630   33.0440   39.6940 C   0  0  0  0  0  2  0  0  0  0  0  0
   38.1860   33.6870   39.3360 H   0  0  0  0  0  0  0  0  0  0  0  0
  1  2  1  0  0  0  0
  2  7  1  0  0  0  0
  2  3  2  0  0  0  0
  3  9  1  0  0  0  0
  4  3  1  0  0  0  0
  5  4  2  0  0  0  0
  6  1  2  0  0  0  0
  6  5  1  0  0  0  0
  8  5  1  0  0  0  0
  9 11  1  0  0  0  0
  9 10  1  0  0  0  0
  9 12  1  0  0  0  0
 10 13  1  0  0  0  0
 11 10  1  0  0  0  0
 11 16  1  0  0  0  0
 14 10  1  0  0  0  0
 15 11  1  0  0  0  0
 17 18  1  0  0  0  0
 17  1  1  0  0  0  0
 19 18  1  0  0  0  0
M  END
>  <minimizedAffinity>
-3.71111321

$$$$

 OpenBabel03252501143D

 19 20  0  0  0  0  0  0  0  0999 V2000
   37.7910   26.5540   42.3460 C   0  0  0  0  0  0  0  0  0  0  0  0
   36.8280   27.1100   41.4850 C   0  0  0  0  0  0  0  0  0  0  0  0
   36.6130   28.4740   41.6270 C   0  0  0  0  0  0  0  0  0  0  0  0
   37.3290   29.1760   42.5690 N   0  0  0  0  0  0  0  0  0  0  0  0
   38.2460   28.5960   43.3720 C   0  0  0  0  0  0  0  0  0  0  0  0
   38.4720   27.2670   43.2510 N   0  0  0  0  0  0  0  0  0  0  0  0
   36.2830   26.5320   40.7580 H   0  0  0  0  0  0  0  0  0  0  0  0
   38.6860   29.3320   44.0320 H   0  0  0  0  0  0  0  0  0  0  0  0
   35.6260   29.1990   40.7550 C   0  0  0  0  0  0  0  0  0  0  0  0
   36.0410   30.6280   40.4750 C   0  0  0  0  0  0  0  0  0  0  0  0
   36.0240   29.5140   39.3890 C   0  0  0  0  0  0  0  0  0  0  0  0
   34.5650   29.0550   40.9990 H   0  0  0  0  0  0  0  0  0  0  0  0
   35.2100   31.3570   40.3980 H   0  0  0  0  0  0  0  0  0  0  0  0
   37.0090   30.9970   40.8170 H   0  0  0  0  0  0  0  0  0  0  0  0
   37.0570   29.2750   39.0220 H   0  0  0  0  0  0  0  0  0  0  0  0
   35.3290   29.6670   38.5570 H   0  0  0  0  0  0  0  0  0  0  0  0
   38.0700   25.0970   42.2460 C   0  0  0  0  0  2  0  0  0  0  0  0
   36.8630   24.4230   41.6440 C   0  0  0  0  0  2  0  0  0  0  0  0
   37.1700   23.5650   41.0190 H   0  0  0  0  0  0  0  0  0  0  0  0
  1  6  1  0  0  0  0
  2  3  1  0  0  0  0
  2  1  2  0  0  0  0
  3  4  2  0  0  0  0
  4  5  1  0  0  0  0
  5  8  1  0  0  0  0
  6  5  2  0  0  0  0
  7  2  1  0  0  0  0
  9 12  1  0  0  0  0
  9  3  1  0  0  0  0
 10  9  1  0  0  0  0
 10 14  1  0  0  0  0
 11 10  1  0  0  0  0
 11  9  1  0  0  0  0
 13 10  1  0  0  0  0
 15 11  1  0  0  0  0
 16 11  1  0  0  0  0
 17  1  1  0  0  0  0
 18 17  1  0  0  0  0
 19 18  1  0  0  0  0
M  END
>  <minimizedAffinity>
-3.67961335

$$$$

 OpenBabel03252501143D

 19 20  0  0  0  0  0  0  0  0999 V2000
   35.8290   28.2570   39.6650 C   0  0  0  0  0  0  0  0  0  0  0  0
   36.0530   28.5580   41.0200 C   0  0  0  0  0  0  0  0  0  0  0  0
   36.6610   27.5560   41.7640 C   0  0  0  0  0  0  0  0  0  0  0  0
   36.9960   26.3690   41.1520 N   0  0  0  0  0  0  0  0  0  0  0  0
   36.7610   26.1290   39.8450 C   0  0  0  0  0  0  0  0  0  0  0  0
   36.1690   27.0920   39.1000 N   0  0  0  0  0  0  0  0  0  0  0  0
   35.7780   29.4970   41.4690 H   0  0  0  0  0  0  0  0  0  0  0  0
   37.1040   25.1390   39.5770 H   0  0  0  0  0  0  0  0  0  0  0  0
   36.9790   27.7550   43.2200 C   0  0  0  0  0  0  0  0  0  0  0  0
   38.4050   27.3760   43.5580 C   0  0  0  0  0  0  0  0  0  0  0  0
   37.8810   28.8400   43.5800 C   0  0  0  0  0  0  0  0  0  0  0  0
   36.2180   27.4120   43.9330 H   0  0  0  0  0  0  0  0  0  0  0  0
   38.5520   26.9250   44.5600 H   0  0  0  0  0  0  0  0  0  0  0  0
   39.1010   27.0920   42.7680 H   0  0  0  0  0  0  0  0  0  0  0  0
   38.3680   29.4690   42.7890 H   0  0  0  0  0  0  0  0  0  0  0  0
   37.8960   29.3390   44.5550 H   0  0  0  0  0  0  0  0  0  0  0  0
   35.1810   29.2870   38.8100 C   0  0  0  0  0  2  0  0  0  0  0  0
   34.0370   28.6390   38.0710 C   0  0  0  0  0  2  0  0  0  0  0  0
   33.2110   29.3580   37.9300 H   0  0  0  0  0  0  0  0  0  0  0  0
  1  2  1  0  0  0  0
  2  7  1  0  0  0  0
  2  3  2  0  0  0  0
  3  9  1  0  0  0  0
  4  3  1  0  0  0  0
  5  4  2  0  0  0  0
  6  1  2  0  0  0  0
  6  5  1  0  0  0  0
  8  5  1  0  0  0  0
  9 10  1  0  0  0  0
  9 11  1  0  0  0  0
  9 12  1  0  0  0  0
 10 11  1  0  0  0  0
 10 13  1  0  0  0  0
 11 16  1  0  0  0  0
 14 10  1  0  0  0  0
 15 11  1  0  0  0  0
 17  1  1  0  0  0  0
 18 17  1  0  0  0  0
 19 18  1  0  0  0  0
M  END
>  <minimizedAffinity>
-3.54543138

$$$$

 OpenBabel03252501143D

 19 20  0  0  0  0  0  0  0  0999 V2000
   37.7150   29.4600   42.2570 C   0  0  0  0  0  0  0  0  0  0  0  0
   38.7570   30.3800   42.0480 C   0  0  0  0  0  0  0  0  0  0  0  0
   38.4630   31.4390   41.2010 C   0  0  0  0  0  0  0  0  0  0  0  0
   37.2110   31.5220   40.6330 N   0  0  0  0  0  0  0  0  0  0  0  0
   36.2420   30.6120   40.8670 C   0  0  0  0  0  0  0  0  0  0  0  0
   36.5070   29.5710   41.6910 N   0  0  0  0  0  0  0  0  0  0  0  0
   39.7270   30.2870   42.5070 H   0  0  0  0  0  0  0  0  0  0  0  0
   35.3430   30.8720   40.3230 H   0  0  0  0  0  0  0  0  0  0  0  0
   39.4800   32.5060   40.9090 C   0  0  0  0  0  0  0  0  0  0  0  0
   39.4180   32.9880   39.4750 C   0  0  0  0  0  0  0  0  0  0  0  0
   39.0020   33.8650   40.6910 C   0  0  0  0  0  0  0  0  0  0  0  0
   40.4900   32.3360   41.3060 H   0  0  0  0  0  0  0  0  0  0  0  0
   40.3930   33.2620   39.0240 H   0  0  0  0  0  0  0  0  0  0  0  0
   38.6330   32.6300   38.8070 H   0  0  0  0  0  0  0  0  0  0  0  0
   37.9030   34.0930   40.6820 H   0  0  0  0  0  0  0  0  0  0  0  0
   39.5980   34.7690   40.8550 H   0  0  0  0  0  0  0  0  0  0  0  0
   37.9640   28.3020   43.1550 C   0  0  0  0  0  2  0  0  0  0  0  0
   36.6850   27.5110   43.2760 C   0  0  0  0  0  2  0  0  0  0  0  0
   36.9040   26.4340   43.3810 H   0  0  0  0  0  0  0  0  0  0  0  0
  1 17  1  0  0  0  0
  2  1  1  0  0  0  0
  2  7  1  0  0  0  0
  3  2  2  0  0  0  0
  4  5  2  0  0  0  0
  4  3  1  0  0  0  0
  5  6  1  0  0  0  0
  6  1  2  0  0  0  0
  8  5  1  0  0  0  0
  9  3  1  0  0  0  0
  9 12  1  0  0  0  0
 10 11  1  0  0  0  0
 10  9  1  0  0  0  0
 11 16  1  0  0  0  0
 11  9  1  0  0  0  0
 13 10  1  0  0  0  0
 14 10  1  0  0  0  0
 15 11  1  0  0  0  0
 17 18  1  0  0  0  0
 18 19  1  0  0  0  0
M  END
>  <minimizedAffinity>
-3.54500651

$$$$
