
 OpenBabel03252504113D

 19 19  0  0  0  0  0  0  0  0999 V2000
   36.7790   29.9120   41.2820 C   0  0  0  0  0  0  0  0  0  0  0  0
   37.6370   29.1440   42.0660 C   0  0  0  0  0  0  0  0  0  0  0  0
   38.8920   29.6910   42.3980 C   0  0  0  0  0  0  0  0  0  0  0  0
   39.1960   30.9260   41.9420 N   0  0  0  0  0  0  0  0  0  0  0  0
   38.3310   31.6390   41.1820 C   0  0  0  0  0  0  0  0  0  0  0  0
   37.1290   31.1360   40.8530 N   0  0  0  0  0  0  0  0  0  0  0  0
   39.5430   29.0780   43.0080 H   0  0  0  0  0  0  0  0  0  0  0  0
   37.2080   27.7930   42.5190 C   0  0  0  0  0  0  0  0  0  0  0  0
   37.2020   26.9150   41.4570 F   0  0  0  0  0  0  0  0  0  0  0  0
   38.1610   27.3430   43.4270 F   0  0  0  0  0  0  0  0  0  0  0  0
   35.9890   27.7590   43.1080 F   0  0  0  0  0  0  0  0  0  0  0  0
   35.5820   29.3740   40.9720 O   0  0  0  0  0  0  0  0  0  0  0  0
   35.0840   29.0630   39.6870 C   0  0  0  0  0  0  0  0  0  0  0  0
   33.6800   29.1130   39.8000 F   0  0  0  0  0  0  0  0  0  0  0  0
   35.5590   29.9490   38.7700 F   0  0  0  0  0  0  0  0  0  0  0  0
   35.3540   27.7510   39.3840 F   0  0  0  0  0  0  0  0  0  0  0  0
   38.6990   33.0020   40.6940 C   0  0  0  0  0  2  0  0  0  0  0  0
   37.6160   33.5350   39.7650 C   0  0  0  0  0  2  0  0  0  0  0  0
   38.0090   34.4130   39.2330 H   0  0  0  0  0  0  0  0  0  0  0  0
  1  2  1  0  0  0  0
  2  3  2  0  0  0  0
  2  8  1  0  0  0  0
  3  7  1  0  0  0  0
  4  3  1  0  0  0  0
  5  4  2  0  0  0  0
  6  5  1  0  0  0  0
  6  1  2  0  0  0  0
  8 11  1  0  0  0  0
  8 10  1  0  0  0  0
  9  8  1  0  0  0  0
 12  1  1  0  0  0  0
 13 14  1  0  0  0  0
 13 12  1  0  0  0  0
 15 13  1  0  0  0  0
 16 13  1  0  0  0  0
 17  5  1  0  0  0  0
 18 17  1  0  0  0  0
 19 18  1  0  0  0  0
M  END
>  <minimizedAffinity>
-4.68274832

$$$$

 OpenBabel03252504113D

 19 19  0  0  0  0  0  0  0  0999 V2000
   38.5600   26.6790   42.1520 C   0  0  0  0  0  0  0  0  0  0  0  0
   38.5130   25.2870   42.1930 C   0  0  0  0  0  0  0  0  0  0  0  0
   39.6130   24.6070   42.7500 C   0  0  0  0  0  0  0  0  0  0  0  0
   40.6510   25.3360   43.2150 N   0  0  0  0  0  0  0  0  0  0  0  0
   40.6550   26.6900   43.1560 C   0  0  0  0  0  0  0  0  0  0  0  0
   39.6160   27.3580   42.6280 N   0  0  0  0  0  0  0  0  0  0  0  0
   39.5560   23.5260   42.7720 H   0  0  0  0  0  0  0  0  0  0  0  0
   37.3220   24.5750   41.6540 C   0  0  0  0  0  0  0  0  0  0  0  0
   37.5970   23.2330   41.5050 F   0  0  0  0  0  0  0  0  0  0  0  0
   36.3110   24.6910   42.6020 F   0  0  0  0  0  0  0  0  0  0  0  0
   36.8700   25.0530   40.4700 F   0  0  0  0  0  0  0  0  0  0  0  0
   37.4990   27.3140   41.6150 O   0  0  0  0  0  0  0  0  0  0  0  0
   36.5250   28.0850   42.2900 C   0  0  0  0  0  0  0  0  0  0  0  0
   37.2040   29.2270   42.7630 F   0  0  0  0  0  0  0  0  0  0  0  0
   35.5080   28.4030   41.4450 F   0  0  0  0  0  0  0  0  0  0  0  0
   36.1200   27.4350   43.4300 F   0  0  0  0  0  0  0  0  0  0  0  0
   41.8200   27.4650   43.6800 C   0  0  0  0  0  2  0  0  0  0  0  0
   41.9170   28.8080   42.9660 C   0  0  0  0  0  2  0  0  0  0  0  0
   42.8990   29.2520   43.1830 H   0  0  0  0  0  0  0  0  0  0  0  0
  1  2  2  0  0  0  0
  1  6  1  0  0  0  0
  2  3  1  0  0  0  0
  3  7  1  0  0  0  0
  3  4  2  0  0  0  0
  5  4  1  0  0  0  0
  5 17  1  0  0  0  0
  6  5  2  0  0  0  0
  8  2  1  0  0  0  0
  8 10  1  0  0  0  0
  9  8  1  0  0  0  0
 11  8  1  0  0  0  0
 12  1  1  0  0  0  0
 12 13  1  0  0  0  0
 13 14  1  0  0  0  0
 13 16  1  0  0  0  0
 15 13  1  0  0  0  0
 18 19  1  0  0  0  0
 18 17  1  0  0  0  0
M  END
>  <minimizedAffinity>
-4.56544256

$$$$

 OpenBabel03252504113D

 19 19  0  0  0  0  0  0  0  0999 V2000
   36.8210   30.1210   40.5390 C   0  0  0  0  0  0  0  0  0  0  0  0
   37.9030   30.9760   40.3440 C   0  0  0  0  0  0  0  0  0  0  0  0
   38.9350   30.9610   41.3020 C   0  0  0  0  0  0  0  0  0  0  0  0
   38.8240   30.1210   42.3540 N   0  0  0  0  0  0  0  0  0  0  0  0
   37.7530   29.3050   42.5040 C   0  0  0  0  0  0  0  0  0  0  0  0
   36.7570   29.3030   41.6020 N   0  0  0  0  0  0  0  0  0  0  0  0
   39.7670   31.6340   41.1310 H   0  0  0  0  0  0  0  0  0  0  0  0
   37.9320   31.8650   39.1500 C   0  0  0  0  0  0  0  0  0  0  0  0
   39.1470   32.5100   39.0670 F   0  0  0  0  0  0  0  0  0  0  0  0
   37.8140   31.0510   38.0280 F   0  0  0  0  0  0  0  0  0  0  0  0
   36.9510   32.7980   39.1210 F   0  0  0  0  0  0  0  0  0  0  0  0
   35.8410   30.1480   39.6130 O   0  0  0  0  0  0  0  0  0  0  0  0
   34.9830   29.0900   39.2360 C   0  0  0  0  0  0  0  0  0  0  0  0
   34.4390   29.4660   37.9920 F   0  0  0  0  0  0  0  0  0  0  0  0
   35.6780   27.9230   39.1640 F   0  0  0  0  0  0  0  0  0  0  0  0
   33.9000   29.0410   40.0790 F   0  0  0  0  0  0  0  0  0  0  0  0
   37.6620   28.3880   43.6800 C   0  0  0  0  0  2  0  0  0  0  0  0
   36.5030   27.4150   43.4950 C   0  0  0  0  0  2  0  0  0  0  0  0
   36.3020   26.9220   44.4570 H   0  0  0  0  0  0  0  0  0  0  0  0
  1  6  1  0  0  0  0
  2  1  2  0  0  0  0
  2  3  1  0  0  0  0
  3  4  2  0  0  0  0
  4  5  1  0  0  0  0
  5 17  1  0  0  0  0
  6  5  2  0  0  0  0
  7  3  1  0  0  0  0
  8  2  1  0  0  0  0
  9  8  1  0  0  0  0
 10  8  1  0  0  0  0
 11  8  1  0  0  0  0
 12  1  1  0  0  0  0
 13 12  1  0  0  0  0
 13 16  1  0  0  0  0
 14 13  1  0  0  0  0
 15 13  1  0  0  0  0
 18 17  1  0  0  0  0
 18 19  1  0  0  0  0
M  END
>  <minimizedAffinity>
-4.48606777

$$$$

 OpenBabel03252504113D

 19 19  0  0  0  0  0  0  0  0999 V2000
   39.1560   27.1960   43.2900 C   0  0  0  0  0  0  0  0  0  0  0  0
   38.4300   26.0980   42.8340 C   0  0  0  0  0  0  0  0  0  0  0  0
   39.1180   24.8820   42.6550 C   0  0  0  0  0  0  0  0  0  0  0  0
   40.4390   24.8430   42.9340 N   0  0  0  0  0  0  0  0  0  0  0  0
   41.1070   25.9360   43.3760 C   0  0  0  0  0  0  0  0  0  0  0  0
   40.4700   27.1060   43.5540 N   0  0  0  0  0  0  0  0  0  0  0  0
   38.5350   24.0410   42.3000 H   0  0  0  0  0  0  0  0  0  0  0  0
   36.9750   26.2430   42.5550 C   0  0  0  0  0  0  0  0  0  0  0  0
   36.7830   26.9160   41.3680 F   0  0  0  0  0  0  0  0  0  0  0  0
   36.4580   24.9610   42.3960 F   0  0  0  0  0  0  0  0  0  0  0  0
   36.2780   26.8800   43.5260 F   0  0  0  0  0  0  0  0  0  0  0  0
   38.4830   28.3520   43.4570 O   0  0  0  0  0  0  0  0  0  0  0  0
   38.5040   29.4890   42.6170 C   0  0  0  0  0  0  0  0  0  0  0  0
   37.1520   29.8180   42.3900 F   0  0  0  0  0  0  0  0  0  0  0  0
   39.1880   30.5020   43.2130 F   0  0  0  0  0  0  0  0  0  0  0  0
   38.9830   29.1470   41.3760 F   0  0  0  0  0  0  0  0  0  0  0  0
   42.5680   25.8590   43.6750 C   0  0  0  0  0  2  0  0  0  0  0  0
   43.1760   27.2560   43.6800 C   0  0  0  0  0  2  0  0  0  0  0  0
   44.2710   27.1640   43.6580 H   0  0  0  0  0  0  0  0  0  0  0  0
  1 12  1  0  0  0  0
  1  6  1  0  0  0  0
  2  1  2  0  0  0  0
  3  2  1  0  0  0  0
  3  4  2  0  0  0  0
  4  5  1  0  0  0  0
  5  6  2  0  0  0  0
  5 17  1  0  0  0  0
  7  3  1  0  0  0  0
  8  2  1  0  0  0  0
  8 11  1  0  0  0  0
  9  8  1  0  0  0  0
 10  8  1  0  0  0  0
 13 15  1  0  0  0  0
 13 12  1  0  0  0  0
 14 13  1  0  0  0  0
 16 13  1  0  0  0  0
 17 18  1  0  0  0  0
 19 18  1  0  0  0  0
M  END
>  <minimizedAffinity>
-4.47591019

$$$$

 OpenBabel03252504113D

 19 19  0  0  0  0  0  0  0  0999 V2000
   37.9650   29.4380   42.2040 C   0  0  0  0  0  0  0  0  0  0  0  0
   38.2230   28.1130   42.5460 C   0  0  0  0  0  0  0  0  0  0  0  0
   39.5440   27.7670   42.8910 C   0  0  0  0  0  0  0  0  0  0  0  0
   40.4870   28.7340   42.8740 N   0  0  0  0  0  0  0  0  0  0  0  0
   40.1920   30.0130   42.5360 C   0  0  0  0  0  0  0  0  0  0  0  0
   38.9380   30.3630   42.2040 N   0  0  0  0  0  0  0  0  0  0  0  0
   39.7240   26.7310   43.1530 H   0  0  0  0  0  0  0  0  0  0  0  0
   37.1140   27.1200   42.5340 C   0  0  0  0  0  0  0  0  0  0  0  0
   36.5780   27.0210   41.2680 F   0  0  0  0  0  0  0  0  0  0  0  0
   37.6660   25.8830   42.8510 F   0  0  0  0  0  0  0  0  0  0  0  0
   36.1110   27.3890   43.4030 F   0  0  0  0  0  0  0  0  0  0  0  0
   36.6960   29.7520   41.8760 O   0  0  0  0  0  0  0  0  0  0  0  0
   36.2210   30.2350   40.6350 C   0  0  0  0  0  0  0  0  0  0  0  0
   34.9380   29.6750   40.4750 F   0  0  0  0  0  0  0  0  0  0  0  0
   36.1940   31.5950   40.6380 F   0  0  0  0  0  0  0  0  0  0  0  0
   36.9580   29.6940   39.6090 F   0  0  0  0  0  0  0  0  0  0  0  0
   41.2580   31.0580   42.5280 C   0  0  0  0  0  2  0  0  0  0  0  0
   42.4840   30.5610   43.2850 C   0  0  0  0  0  2  0  0  0  0  0  0
   43.1490   31.4150   43.4770 H   0  0  0  0  0  0  0  0  0  0  0  0
  1  2  1  0  0  0  0
  2  3  2  0  0  0  0
  3  7  1  0  0  0  0
  4  3  1  0  0  0  0
  5  4  2  0  0  0  0
  6  1  2  0  0  0  0
  6  5  1  0  0  0  0
  8  2  1  0  0  0  0
  8 10  1  0  0  0  0
  8 11  1  0  0  0  0
  9  8  1  0  0  0  0
 12  1  1  0  0  0  0
 13 15  1  0  0  0  0
 13 12  1  0  0  0  0
 14 13  1  0  0  0  0
 16 13  1  0  0  0  0
 17  5  1  0  0  0  0
 17 18  1  0  0  0  0
 18 19  1  0  0  0  0
M  END
>  <minimizedAffinity>
-4.45896196

$$$$

 OpenBabel03252504113D

 19 19  0  0  0  0  0  0  0  0999 V2000
   37.5890   28.1740   42.2550 C   0  0  0  0  0  0  0  0  0  0  0  0
   38.9700   28.2400   42.4250 C   0  0  0  0  0  0  0  0  0  0  0  0
   39.6830   27.0280   42.5000 C   0  0  0  0  0  0  0  0  0  0  0  0
   38.9950   25.8700   42.4020 N   0  0  0  0  0  0  0  0  0  0  0  0
   37.6500   25.8510   42.2360 C   0  0  0  0  0  0  0  0  0  0  0  0
   36.9510   26.9960   42.1620 N   0  0  0  0  0  0  0  0  0  0  0  0
   40.7560   27.1020   42.6320 H   0  0  0  0  0  0  0  0  0  0  0  0
   39.6360   29.5680   42.5230 C   0  0  0  0  0  0  0  0  0  0  0  0
   40.9430   29.4150   42.9320 F   0  0  0  0  0  0  0  0  0  0  0  0
   39.6610   30.1100   41.2420 F   0  0  0  0  0  0  0  0  0  0  0  0
   39.0260   30.4420   43.3580 F   0  0  0  0  0  0  0  0  0  0  0  0
   36.9210   29.3430   42.1860 O   0  0  0  0  0  0  0  0  0  0  0  0
   36.3030   29.9150   41.0510 C   0  0  0  0  0  0  0  0  0  0  0  0
   35.0860   29.2230   40.8910 F   0  0  0  0  0  0  0  0  0  0  0  0
   36.1160   31.2500   41.2400 F   0  0  0  0  0  0  0  0  0  0  0  0
   37.0200   29.6080   39.9210 F   0  0  0  0  0  0  0  0  0  0  0  0
   36.9200   24.5520   42.1310 C   0  0  0  0  0  2  0  0  0  0  0  0
   36.5760   24.2620   40.6750 C   0  0  0  0  0  2  0  0  0  0  0  0
   35.8410   23.4450   40.6430 H   0  0  0  0  0  0  0  0  0  0  0  0
  1  2  1  0  0  0  0
  2  3  2  0  0  0  0
  2  8  1  0  0  0  0
  3  7  1  0  0  0  0
  4  3  1  0  0  0  0
  5  4  2  0  0  0  0
  6  5  1  0  0  0  0
  6  1  2  0  0  0  0
  8  9  1  0  0  0  0
  8 11  1  0  0  0  0
 10  8  1  0  0  0  0
 12  1  1  0  0  0  0
 13 15  1  0  0  0  0
 13 12  1  0  0  0  0
 14 13  1  0  0  0  0
 16 13  1  0  0  0  0
 17  5  1  0  0  0  0
 18 17  1  0  0  0  0
 19 18  1  0  0  0  0
M  END
>  <minimizedAffinity>
-4.44545174

$$$$

 OpenBabel03252504113D

 19 19  0  0  0  0  0  0  0  0999 V2000
   37.3400   27.0840   41.1690 C   0  0  0  0  0  0  0  0  0  0  0  0
   38.0960   27.9550   41.9500 C   0  0  0  0  0  0  0  0  0  0  0  0
   37.6840   29.3000   42.0230 C   0  0  0  0  0  0  0  0  0  0  0  0
   36.5820   29.6730   41.3360 N   0  0  0  0  0  0  0  0  0  0  0  0
   35.8750   28.7920   40.5880 C   0  0  0  0  0  0  0  0  0  0  0  0
   36.2500   27.5050   40.5050 N   0  0  0  0  0  0  0  0  0  0  0  0
   38.2860   29.9600   42.6350 H   0  0  0  0  0  0  0  0  0  0  0  0
   39.2950   27.4450   42.6690 C   0  0  0  0  0  0  0  0  0  0  0  0
   39.9540   28.4840   43.2900 F   0  0  0  0  0  0  0  0  0  0  0  0
   38.8420   26.5840   43.6640 F   0  0  0  0  0  0  0  0  0  0  0  0
   40.1810   26.7840   41.8860 F   0  0  0  0  0  0  0  0  0  0  0  0
   37.7470   25.8000   41.1090 O   0  0  0  0  0  0  0  0  0  0  0  0
   37.0920   24.6640   41.6360 C   0  0  0  0  0  0  0  0  0  0  0  0
   38.1060   23.7100   41.8600 F   0  0  0  0  0  0  0  0  0  0  0  0
   36.4280   24.9890   42.7780 F   0  0  0  0  0  0  0  0  0  0  0  0
   36.2960   24.0930   40.6730 F   0  0  0  0  0  0  0  0  0  0  0  0
   34.6610   29.2380   39.8410 C   0  0  0  0  0  2  0  0  0  0  0  0
   34.8850   29.0870   38.3420 C   0  0  0  0  0  2  0  0  0  0  0  0
   34.0950   29.6370   37.8110 H   0  0  0  0  0  0  0  0  0  0  0  0
  1  2  1  0  0  0  0
  2  3  2  0  0  0  0
  2  8  1  0  0  0  0
  3  7  1  0  0  0  0
  4  3  1  0  0  0  0
  5  4  2  0  0  0  0
  6  5  1  0  0  0  0
  6  1  2  0  0  0  0
  8  9  1  0  0  0  0
  8 10  1  0  0  0  0
 11  8  1  0  0  0  0
 12  1  1  0  0  0  0
 12 13  1  0  0  0  0
 13 14  1  0  0  0  0
 13 15  1  0  0  0  0
 16 13  1  0  0  0  0
 17  5  1  0  0  0  0
 18 17  1  0  0  0  0
 19 18  1  0  0  0  0
M  END
>  <minimizedAffinity>
-4.42895031

$$$$

 OpenBabel03252504113D

 19 19  0  0  0  0  0  0  0  0999 V2000
   38.3550   30.6510   40.5620 C   0  0  0  0  0  0  0  0  0  0  0  0
   37.2730   30.4110   39.7170 C   0  0  0  0  0  0  0  0  0  0  0  0
   36.2520   29.5590   40.1810 C   0  0  0  0  0  0  0  0  0  0  0  0
   36.3730   29.0220   41.4150 N   0  0  0  0  0  0  0  0  0  0  0  0
   37.4430   29.2830   42.2040 C   0  0  0  0  0  0  0  0  0  0  0  0
   38.4290   30.0920   41.7810 N   0  0  0  0  0  0  0  0  0  0  0  0
   35.4200   29.3860   39.5090 H   0  0  0  0  0  0  0  0  0  0  0  0
   37.2320   31.0510   38.3740 C   0  0  0  0  0  0  0  0  0  0  0  0
   36.2370   30.4850   37.6080 F   0  0  0  0  0  0  0  0  0  0  0  0
   36.9010   32.3890   38.5660 F   0  0  0  0  0  0  0  0  0  0  0  0
   38.3950   30.9810   37.6840 F   0  0  0  0  0  0  0  0  0  0  0  0
   39.3240   31.4680   40.1030 O   0  0  0  0  0  0  0  0  0  0  0  0
   39.5760   32.8050   40.4860 C   0  0  0  0  0  0  0  0  0  0  0  0
   39.7710   33.5140   39.2830 F   0  0  0  0  0  0  0  0  0  0  0  0
   38.5330   33.2920   41.2090 F   0  0  0  0  0  0  0  0  0  0  0  0
   40.7870   32.8880   41.1290 F   0  0  0  0  0  0  0  0  0  0  0  0
   37.5460   28.6730   43.5640 C   0  0  0  0  0  2  0  0  0  0  0  0
   36.5930   27.4900   43.6800 C   0  0  0  0  0  2  0  0  0  0  0  0
   36.5040   27.2130   44.7390 H   0  0  0  0  0  0  0  0  0  0  0  0
  1  6  1  0  0  0  0
  2  3  1  0  0  0  0
  2  1  2  0  0  0  0
  3  4  2  0  0  0  0
  4  5  1  0  0  0  0
  5 17  1  0  0  0  0
  6  5  2  0  0  0  0
  7  3  1  0  0  0  0
  8 10  1  0  0  0  0
  8  2  1  0  0  0  0
  9  8  1  0  0  0  0
 11  8  1  0  0  0  0
 12 13  1  0  0  0  0
 12  1  1  0  0  0  0
 13 16  1  0  0  0  0
 13 15  1  0  0  0  0
 14 13  1  0  0  0  0
 17 18  1  0  0  0  0
 18 19  1  0  0  0  0
M  END
>  <minimizedAffinity>
-4.39076757

$$$$

 OpenBabel03252504113D

 19 19  0  0  0  0  0  0  0  0999 V2000
   37.4580   30.5880   41.0040 C   0  0  0  0  0  0  0  0  0  0  0  0
   38.5700   31.4100   41.1730 C   0  0  0  0  0  0  0  0  0  0  0  0
   39.4730   31.0920   42.2060 C   0  0  0  0  0  0  0  0  0  0  0  0
   39.2150   30.0110   42.9750 N   0  0  0  0  0  0  0  0  0  0  0  0
   38.1210   29.2380   42.7750 C   0  0  0  0  0  0  0  0  0  0  0  0
   37.2470   29.5240   41.7950 N   0  0  0  0  0  0  0  0  0  0  0  0
   40.3310   31.7430   42.3210 H   0  0  0  0  0  0  0  0  0  0  0  0
   38.7650   32.5790   40.2720 C   0  0  0  0  0  0  0  0  0  0  0  0
   37.6300   33.3590   40.2530 F   0  0  0  0  0  0  0  0  0  0  0  0
   39.7910   33.3470   40.8130 F   0  0  0  0  0  0  0  0  0  0  0  0
   39.0840   32.2570   38.9960 F   0  0  0  0  0  0  0  0  0  0  0  0
   36.6040   30.9060   40.0110 O   0  0  0  0  0  0  0  0  0  0  0  0
   36.4590   30.2630   38.7610 C   0  0  0  0  0  0  0  0  0  0  0  0
   37.5320   29.3540   38.6740 F   0  0  0  0  0  0  0  0  0  0  0  0
   35.2500   29.6430   38.6870 F   0  0  0  0  0  0  0  0  0  0  0  0
   36.6880   31.1570   37.7430 F   0  0  0  0  0  0  0  0  0  0  0  0
   37.8660   28.0500   43.6440 C   0  0  0  0  0  2  0  0  0  0  0  0
   36.5180   27.4290   43.2980 C   0  0  0  0  0  2  0  0  0  0  0  0
   36.2420   26.7220   44.0940 H   0  0  0  0  0  0  0  0  0  0  0  0
  1  2  2  0  0  0  0
  1  6  1  0  0  0  0
  2  3  1  0  0  0  0
  3  7  1  0  0  0  0
  3  4  2  0  0  0  0
  5  4  1  0  0  0  0
  5 17  1  0  0  0  0
  6  5  2  0  0  0  0
  8 10  1  0  0  0  0
  8  2  1  0  0  0  0
  9  8  1  0  0  0  0
 11  8  1  0  0  0  0
 12  1  1  0  0  0  0
 13 12  1  0  0  0  0
 14 13  1  0  0  0  0
 15 13  1  0  0  0  0
 16 13  1  0  0  0  0
 18 17  1  0  0  0  0
 18 19  1  0  0  0  0
M  END
>  <minimizedAffinity>
-4.35765743

$$$$
