
 OpenBabel03242519143D

 29 30  0  0  0  0  0  0  0  0999 V2000
   46.6390   34.9210   42.3390 C   0  0  0  0  0  0  0  0  0  0  0  0
   46.1640   35.9130   42.2420 H   0  0  0  0  0  0  0  0  0  0  0  0
   46.1600   34.2050   41.6220 H   0  0  0  0  0  0  0  0  0  0  0  0
   44.6690   36.4170   43.9870 Cl  0  0  0  0  0  0  0  0  0  0  0  0
   45.4570   34.9530   44.5550 C   0  0  0  0  0  0  0  0  0  0  0  0
   46.3460   34.3630   43.6910 C   0  0  0  0  0  0  0  0  0  0  0  0
   46.9740   33.2140   44.1210 C   0  0  0  0  0  0  0  0  0  0  0  0
   46.7220   32.6770   45.3650 C   0  0  0  0  0  0  0  0  0  0  0  0
   45.8000   33.3050   46.2370 C   0  0  0  0  0  0  0  0  0  0  0  0
   45.1780   34.4520   45.8000 C   0  0  0  0  0  0  0  0  0  0  0  0
   47.6930   32.6850   43.4940 H   0  0  0  0  0  0  0  0  0  0  0  0
   47.2090   31.7660   45.7230 H   0  0  0  0  0  0  0  0  0  0  0  0
   45.5810   32.9060   47.2210 H   0  0  0  0  0  0  0  0  0  0  0  0
   44.2540   35.1490   46.5770 O   0  0  0  0  0  0  0  0  0  0  0  0
   43.4750   34.6730   47.0560 H   0  0  0  0  0  0  0  0  0  0  0  0
   48.0910   35.0220   42.0300 C   0  0  0  0  0  0  0  0  0  0  0  0
   48.3020   36.0710   41.6930 H   0  0  0  0  0  0  0  0  0  0  0  0
   48.6990   34.8390   42.9360 H   0  0  0  0  0  0  0  0  0  0  0  0
   48.4480   34.1280   40.9440 C   0  0  0  0  0  0  0  0  0  0  0  0
   47.9600   34.3200   39.6730 C   0  0  0  0  0  0  0  0  0  0  0  0
   48.2810   33.4790   38.5980 C   0  0  0  0  0  0  0  0  0  0  0  0
   49.1150   32.4540   38.9060 N   0  0  0  0  0  0  0  0  0  0  0  0
   49.5910   32.2730   40.1650 C   0  0  0  0  0  0  0  0  0  0  0  0
   49.2730   33.0820   41.1640 N   0  0  0  0  0  0  0  0  0  0  0  0
   47.2930   35.1330   39.4050 H   0  0  0  0  0  0  0  0  0  0  0  0
   47.9110   33.6140   37.6020 H   0  0  0  0  0  0  0  0  0  0  0  0
   50.5140   31.1020   40.4060 C   0  0  0  0  0  0  0  0  0  0  0  0
   51.9320   31.5720   40.5960 C   0  0  0  0  0  0  0  0  0  0  0  0
   52.4600   30.8040   41.1980 H   0  0  0  0  0  0  0  0  0  0  0  0
  1  6  1  0  0  0  0
  2  1  1  0  0  0  0
  3  1  1  0  0  0  0
  4  5  1  0  0  0  0
  5 10  1  0  0  0  0
  6  7  1  0  0  0  0
  6  5  2  0  0  0  0
  7  8  2  0  0  0  0
  8 12  1  0  0  0  0
  8  9  1  0  0  0  0
  9 13  1  0  0  0  0
 10  9  2  0  0  0  0
 10 14  1  0  0  0  0
 11  7  1  0  0  0  0
 14 15  1  0  0  0  0
 16  1  1  0  0  0  0
 16 18  1  0  0  0  0
 17 16  1  0  0  0  0
 19 24  1  0  0  0  0
 19 16  1  0  0  0  0
 20 19  2  0  0  0  0
 21 22  2  0  0  0  0
 21 20  1  0  0  0  0
 22 23  1  0  0  0  0
 23 27  1  0  0  0  0
 23 24  2  0  0  0  0
 25 20  1  0  0  0  0
 26 21  1  0  0  0  0
 27 28  1  0  0  0  0
 28 29  1  0  0  0  0
M  END
>  <minimizedAffinity>
-5.35925817

>  <minimizedRMSD>
1.79695928

$$$$
