
 OpenBabel03252501003D

 19 20  0  0  1  0  0  0  0  0999 V2000
   47.2170   34.3070   42.1320 C   0  0  1  0  0  0  0  0  0  0  0  0
   48.1350   35.4370   41.7110 C   0  0  0  0  0  0  0  0  0  0  0  0
   48.6390   34.1700   42.4250 C   0  0  2  0  0  0  0  0  0  0  0  0
   46.6710   33.7940   41.3300 H   0  0  0  0  0  0  0  0  0  0  0  0
   48.3980   35.4630   40.6330 H   0  0  0  0  0  0  0  0  0  0  0  0
   48.1300   36.3910   42.2480 H   0  0  0  0  0  0  0  0  0  0  0  0
   49.0160   34.3890   43.4430 H   0  0  0  0  0  0  0  0  0  0  0  0
   44.6610   36.0430   44.2930 C   0  0  0  0  0  0  0  0  0  0  0  0
   45.4880   35.7990   43.1820 C   0  0  0  0  0  0  0  0  0  0  0  0
   46.3060   34.6830   43.2670 C   0  0  0  0  0  0  0  0  0  0  0  0
   46.2750   33.8930   44.3920 N   0  0  0  0  0  0  0  0  0  0  0  0
   45.4610   34.1670   45.4400 C   0  0  0  0  0  0  0  0  0  0  0  0
   44.6580   35.2460   45.3770 N   0  0  0  0  0  0  0  0  0  0  0  0
   43.9990   36.9040   44.2830 H   0  0  0  0  0  0  0  0  0  0  0  0
   45.4920   36.4370   42.3090 H   0  0  0  0  0  0  0  0  0  0  0  0
   45.5680   33.4410   46.2340 H   0  0  0  0  0  0  0  0  0  0  0  0
   49.4880   33.1960   41.6530 C   0  0  0  0  0  0  0  0  0  0  0  0
   50.8620   33.2540   42.3380 C   0  0  0  0  0  0  0  0  0  0  0  0
   51.3170   34.2550   42.0880 H   0  0  0  0  0  0  0  0  0  0  0  0
  1  4  1  6  0  0  0
  1  3  1  0  0  0  0
  1 10  1  0  0  0  0
  2  1  1  0  0  0  0
  2  6  1  0  0  0  0
  2  3  1  0  0  0  0
  3  7  1  1  0  0  0
  5  2  1  0  0  0  0
  8 13  1  0  0  0  0
  9 10  1  0  0  0  0
  9  8  2  0  0  0  0
 10 11  2  0  0  0  0
 11 12  1  0  0  0  0
 12 16  1  0  0  0  0
 13 12  2  0  0  0  0
 14  8  1  0  0  0  0
 15  9  1  0  0  0  0
 17 18  1  0  0  0  0
 17  3  1  0  0  0  0
 19 18  1  0  0  0  0
M  END
>  <minimizedAffinity>
-4.16526365

>  <minimizedRMSD>
0.915494859

$$$$
