
 OpenBabel03242518483D

 39 41  0  0  1  0  0  0  0  0999 V2000
   39.2950   30.8920   39.3650 C   0  0  2  0  0  0  0  0  0  0  0  0
   39.2360   32.3310   39.0000 C   0  0  1  0  0  0  0  0  0  0  0  0
   38.3620   33.1330   39.9670 C   0  0  0  0  0  0  0  0  0  0  0  0
   37.1370   32.4540   39.9600 O   0  0  0  0  0  0  0  0  0  0  0  0
   37.2160   31.2640   40.6520 C   0  0  0  0  0  0  0  0  0  0  0  0
   38.5930   30.6810   40.7210 C   0  0  1  0  0  0  0  0  0  0  0  0
   38.7740   30.2800   38.6150 H   0  0  0  0  0  0  0  0  0  0  0  0
   38.7810   32.4360   37.9890 H   0  0  0  0  0  0  0  0  0  0  0  0
   38.7960   33.1940   40.9760 H   0  0  0  0  0  0  0  0  0  0  0  0
   38.1980   34.1540   39.5960 H   0  0  0  0  0  0  0  0  0  0  0  0
   36.8660   31.4600   41.7020 H   0  0  0  0  0  0  0  0  0  0  0  0
   36.5180   30.5050   40.2220 H   0  0  0  0  0  0  0  0  0  0  0  0
   39.2550   31.2030   41.4430 H   0  0  0  0  0  0  0  0  0  0  0  0
   42.2440   33.9980   37.7520 C   0  0  0  0  0  0  0  0  0  0  0  0
   42.9650   34.3490   38.9200 C   0  0  0  0  0  0  0  0  0  0  0  0
   42.3490   33.9730   40.1550 C   0  0  0  0  0  0  0  0  0  0  0  0
   41.1620   33.3340   40.1190 N   0  0  0  0  0  0  0  0  0  0  0  0
   40.5310   33.0320   38.9760 C   0  0  0  0  0  0  0  0  0  0  0  0
   41.0750   33.3680   37.7870 N   0  0  0  0  0  0  0  0  0  0  0  0
   43.9160   34.8640   38.8640 H   0  0  0  0  0  0  0  0  0  0  0  0
   42.8940   34.2370   41.0540 H   0  0  0  0  0  0  0  0  0  0  0  0
   42.8210   34.3490   36.5640 O   0  0  0  0  0  0  0  0  0  0  0  0
   42.4000   34.0540   35.6830 H   0  0  0  0  0  0  0  0  0  0  0  0
   40.5980   30.3910   39.4760 O   0  0  0  0  0  0  0  0  0  0  0  0
   41.0160   30.7780   40.2910 H   0  0  0  0  0  0  0  0  0  0  0  0
   38.6090   29.3290   40.9700 O   0  0  0  0  0  0  0  0  0  0  0  0
   38.2480   26.8700   39.9130 F   0  0  0  0  0  0  0  0  0  0  0  0
   37.8030   27.2630   41.1270 C   0  0  0  0  0  0  0  0  0  0  0  0
   37.9460   28.4890   41.7440 C   0  0  0  0  0  0  0  0  0  0  0  0
   37.3800   28.5770   43.0070 C   0  0  0  0  0  0  0  0  0  0  0  0
   36.7120   27.5890   43.6800 C   0  0  0  0  0  0  0  0  0  0  0  0
   36.6040   26.4020   43.0220 C   0  0  0  0  0  0  0  0  0  0  0  0
   37.1330   26.2010   41.7510 C   0  0  0  0  0  0  0  0  0  0  0  0
   37.5350   29.5860   43.4330 H   0  0  0  0  0  0  0  0  0  0  0  0
   36.3300   27.8240   44.6640 H   0  0  0  0  0  0  0  0  0  0  0  0
   36.0740   25.5900   43.5420 H   0  0  0  0  0  0  0  0  0  0  0  0
   36.9400   24.8380   41.1830 C   0  0  0  0  0  2  0  0  0  0  0  0
   37.9760   23.9600   41.8470 C   0  0  0  0  0  2  0  0  0  0  0  0
   37.7620   22.8840   41.8060 H   0  0  0  0  0  0  0  0  0  0  0  0
  1  7  1  6  0  0  0
  1 24  1  0  0  0  0
  1  6  1  0  0  0  0
  2  8  1  6  0  0  0
  2  1  1  0  0  0  0
  2  3  1  0  0  0  0
  3  9  1  0  0  0  0
  4  3  1  0  0  0  0
  4  5  1  0  0  0  0
  5  6  1  0  0  0  0
  5 11  1  0  0  0  0
  6 26  1  0  0  0  0
  6 13  1  1  0  0  0
 10  3  1  0  0  0  0
 12  5  1  0  0  0  0
 14 19  2  0  0  0  0
 14 15  1  0  0  0  0
 15 16  2  0  0  0  0
 16 21  1  0  0  0  0
 17 16  1  0  0  0  0
 18  2  1  0  0  0  0
 18 17  2  0  0  0  0
 19 18  1  0  0  0  0
 20 15  1  0  0  0  0
 22 14  1  0  0  0  0
 23 22  1  0  0  0  0
 24 25  1  0  0  0  0
 26 29  1  0  0  0  0
 27 28  1  0  0  0  0
 28 29  2  0  0  0  0
 28 33  1  0  0  0  0
 29 30  1  0  0  0  0
 30 34  1  0  0  0  0
 30 31  2  0  0  0  0
 31 35  1  0  0  0  0
 32 36  1  0  0  0  0
 32 31  1  0  0  0  0
 33 32  2  0  0  0  0
 37 33  1  0  0  0  0
 37 38  1  0  0  0  0
 39 38  1  0  0  0  0
M  END
>  <minimizedAffinity>
-6.37513542

$$$$

 OpenBabel03242518483D

 39 41  0  0  1  0  0  0  0  0999 V2000
   39.3200   31.4280   39.3950 C   0  0  2  0  0  0  0  0  0  0  0  0
   39.6230   32.8780   39.2680 C   0  0  1  0  0  0  0  0  0  0  0  0
   38.7390   33.7300   40.1810 C   0  0  0  0  0  0  0  0  0  0  0  0
   37.4340   33.3510   39.8410 O   0  0  0  0  0  0  0  0  0  0  0  0
   37.1300   32.0980   40.3300 C   0  0  0  0  0  0  0  0  0  0  0  0
   38.3200   31.2150   40.5480 C   0  0  1  0  0  0  0  0  0  0  0  0
   38.8600   31.0470   38.4720 H   0  0  0  0  0  0  0  0  0  0  0  0
   39.4220   33.2060   38.2240 H   0  0  0  0  0  0  0  0  0  0  0  0
   38.9530   33.5670   41.2480 H   0  0  0  0  0  0  0  0  0  0  0  0
   38.8610   34.8000   39.9610 H   0  0  0  0  0  0  0  0  0  0  0  0
   36.6120   32.2350   41.3180 H   0  0  0  0  0  0  0  0  0  0  0  0
   36.4030   31.5740   39.6620 H   0  0  0  0  0  0  0  0  0  0  0  0
   38.9030   31.4820   41.4540 H   0  0  0  0  0  0  0  0  0  0  0  0
   42.6030   33.7580   41.1980 C   0  0  0  0  0  0  0  0  0  0  0  0
   43.6010   33.9960   40.2200 C   0  0  0  0  0  0  0  0  0  0  0  0
   43.1780   33.8350   38.8640 C   0  0  0  0  0  0  0  0  0  0  0  0
   41.9010   33.4780   38.6210 N   0  0  0  0  0  0  0  0  0  0  0  0
   41.0060   33.2670   39.5950 C   0  0  0  0  0  0  0  0  0  0  0  0
   41.3600   33.4060   40.8900 N   0  0  0  0  0  0  0  0  0  0  0  0
   44.6080   34.2810   40.4980 H   0  0  0  0  0  0  0  0  0  0  0  0
   43.9350   34.0150   38.1090 H   0  0  0  0  0  0  0  0  0  0  0  0
   42.9920   33.9100   42.4990 O   0  0  0  0  0  0  0  0  0  0  0  0
   42.3060   33.8380   43.2510 H   0  0  0  0  0  0  0  0  0  0  0  0
   40.4460   30.6380   39.6540 O   0  0  0  0  0  0  0  0  0  0  0  0
   40.7490   30.8170   40.5840 H   0  0  0  0  0  0  0  0  0  0  0  0
   38.0180   29.8740   40.5680 O   0  0  0  0  0  0  0  0  0  0  0  0
   37.6820   27.3670   39.6220 F   0  0  0  0  0  0  0  0  0  0  0  0
   37.5310   27.7330   40.9130 C   0  0  0  0  0  0  0  0  0  0  0  0
   37.6870   28.9810   41.4830 C   0  0  0  0  0  0  0  0  0  0  0  0
   37.4700   29.0300   42.8520 C   0  0  0  0  0  0  0  0  0  0  0  0
   37.1260   27.9860   43.6680 C   0  0  0  0  0  0  0  0  0  0  0  0
   36.9870   26.7800   43.0510 C   0  0  0  0  0  0  0  0  0  0  0  0
   37.1800   26.6140   41.6830 C   0  0  0  0  0  0  0  0  0  0  0  0
   37.6130   30.0590   43.2300 H   0  0  0  0  0  0  0  0  0  0  0  0
   36.9930   28.1970   44.7210 H   0  0  0  0  0  0  0  0  0  0  0  0
   36.7140   25.9230   43.6860 H   0  0  0  0  0  0  0  0  0  0  0  0
   37.0060   25.2260   41.1740 C   0  0  0  0  0  2  0  0  0  0  0  0
   37.7680   24.3340   42.1270 C   0  0  0  0  0  2  0  0  0  0  0  0
   37.4730   23.2760   42.1030 H   0  0  0  0  0  0  0  0  0  0  0  0
  1  7  1  6  0  0  0
  1 24  1  0  0  0  0
  1  6  1  0  0  0  0
  2  8  1  6  0  0  0
  2  1  1  0  0  0  0
  2 18  1  0  0  0  0
  2  3  1  0  0  0  0
  3  9  1  0  0  0  0
  4  3  1  0  0  0  0
  4  5  1  0  0  0  0
  5  6  1  0  0  0  0
  5 11  1  0  0  0  0
  6 26  1  0  0  0  0
  6 13  1  1  0  0  0
 10  3  1  0  0  0  0
 12  5  1  0  0  0  0
 14 22  1  0  0  0  0
 15 20  1  0  0  0  0
 15 14  2  0  0  0  0
 16 15  1  0  0  0  0
 17 16  2  0  0  0  0
 17 18  1  0  0  0  0
 18 19  2  0  0  0  0
 19 14  1  0  0  0  0
 21 16  1  0  0  0  0
 22 23  1  0  0  0  0
 24 25  1  0  0  0  0
 26 29  1  0  0  0  0
 27 28  1  0  0  0  0
 28 29  2  0  0  0  0
 28 33  1  0  0  0  0
 29 30  1  0  0  0  0
 30 34  1  0  0  0  0
 30 31  2  0  0  0  0
 31 35  1  0  0  0  0
 32 31  1  0  0  0  0
 32 36  1  0  0  0  0
 33 32  2  0  0  0  0
 37 33  1  0  0  0  0
 37 38  1  0  0  0  0
 39 38  1  0  0  0  0
M  END
>  <minimizedAffinity>
-6.12398481

$$$$

 OpenBabel03242518483D

 39 41  0  0  1  0  0  0  0  0999 V2000
   39.1710   30.8290   39.1910 C   0  0  2  0  0  0  0  0  0  0  0  0
   39.2260   32.3140   39.1410 C   0  0  1  0  0  0  0  0  0  0  0  0
   38.5820   32.9520   40.3740 C   0  0  0  0  0  0  0  0  0  0  0  0
   37.2990   32.3930   40.4150 O   0  0  0  0  0  0  0  0  0  0  0  0
   37.3350   31.0780   40.8290 C   0  0  0  0  0  0  0  0  0  0  0  0
   38.6360   30.3840   40.5650 C   0  0  1  0  0  0  0  0  0  0  0  0
   38.4910   30.4400   38.4200 H   0  0  0  0  0  0  0  0  0  0  0  0
   38.6560   32.6730   38.2550 H   0  0  0  0  0  0  0  0  0  0  0  0
   39.1500   32.7560   41.2950 H   0  0  0  0  0  0  0  0  0  0  0  0
   38.4860   34.0390   40.2490 H   0  0  0  0  0  0  0  0  0  0  0  0
   37.1520   31.0660   41.9380 H   0  0  0  0  0  0  0  0  0  0  0  0
   36.5060   30.4900   40.3650 H   0  0  0  0  0  0  0  0  0  0  0  0
   39.4410   30.6810   41.2690 H   0  0  0  0  0  0  0  0  0  0  0  0
   42.2440   33.8790   37.7920 C   0  0  0  0  0  0  0  0  0  0  0  0
   43.1130   33.9910   38.9060 C   0  0  0  0  0  0  0  0  0  0  0  0
   42.5920   33.4930   40.1410 C   0  0  0  0  0  0  0  0  0  0  0  0
   41.3490   32.9710   40.1560 N   0  0  0  0  0  0  0  0  0  0  0  0
   40.5770   32.8960   39.0630 C   0  0  0  0  0  0  0  0  0  0  0  0
   41.0280   33.3540   37.8760 N   0  0  0  0  0  0  0  0  0  0  0  0
   44.1010   34.4240   38.8110 H   0  0  0  0  0  0  0  0  0  0  0  0
   43.2500   33.5750   40.9980 H   0  0  0  0  0  0  0  0  0  0  0  0
   42.7300   34.3490   36.6050 O   0  0  0  0  0  0  0  0  0  0  0  0
   42.1940   34.2240   35.7460 H   0  0  0  0  0  0  0  0  0  0  0  0
   40.4130   30.2130   38.9960 O   0  0  0  0  0  0  0  0  0  0  0  0
   40.9760   30.3770   39.7990 H   0  0  0  0  0  0  0  0  0  0  0  0
   38.5340   29.0140   40.5270 O   0  0  0  0  0  0  0  0  0  0  0  0
   36.7110   27.0220   40.5990 F   0  0  0  0  0  0  0  0  0  0  0  0
   37.8640   27.0410   41.3010 C   0  0  0  0  0  0  0  0  0  0  0  0
   38.8500   28.0070   41.3210 C   0  0  0  0  0  0  0  0  0  0  0  0
   39.9290   27.7250   42.1460 C   0  0  0  0  0  0  0  0  0  0  0  0
   40.1030   26.6090   42.9200 C   0  0  0  0  0  0  0  0  0  0  0  0
   39.1000   25.6910   42.8580 C   0  0  0  0  0  0  0  0  0  0  0  0
   37.9700   25.8690   42.0660 C   0  0  0  0  0  0  0  0  0  0  0  0
   40.6710   28.5440   42.1070 H   0  0  0  0  0  0  0  0  0  0  0  0
   41.0080   26.5450   43.5080 H   0  0  0  0  0  0  0  0  0  0  0  0
   39.2170   24.7820   43.4690 H   0  0  0  0  0  0  0  0  0  0  0  0
   36.9780   24.7600   42.1030 C   0  0  0  0  0  2  0  0  0  0  0  0
   37.5980   23.6210   41.3280 C   0  0  0  0  0  2  0  0  0  0  0  0
   37.1670   22.6330   41.5380 H   0  0  0  0  0  0  0  0  0  0  0  0
  1  7  1  6  0  0  0
  1  6  1  0  0  0  0
  2  8  1  6  0  0  0
  2  1  1  0  0  0  0
  2  3  1  0  0  0  0
  3  4  1  0  0  0  0
  3  9  1  0  0  0  0
  4  5  1  0  0  0  0
  5 11  1  0  0  0  0
  6  5  1  0  0  0  0
  6 13  1  1  0  0  0
 10  3  1  0  0  0  0
 12  5  1  0  0  0  0
 14 19  2  0  0  0  0
 14 15  1  0  0  0  0
 15 16  2  0  0  0  0
 16 17  1  0  0  0  0
 16 21  1  0  0  0  0
 18  2  1  0  0  0  0
 18 17  2  0  0  0  0
 19 18  1  0  0  0  0
 20 15  1  0  0  0  0
 22 14  1  0  0  0  0
 23 22  1  0  0  0  0
 24  1  1  0  0  0  0
 24 25  1  0  0  0  0
 26  6  1  0  0  0  0
 26 29  1  0  0  0  0
 27 28  1  0  0  0  0
 28 29  2  0  0  0  0
 28 33  1  0  0  0  0
 29 30  1  0  0  0  0
 30 31  2  0  0  0  0
 31 35  1  0  0  0  0
 32 31  1  0  0  0  0
 32 36  1  0  0  0  0
 33 37  1  0  0  0  0
 33 32  2  0  0  0  0
 34 30  1  0  0  0  0
 38 39  1  0  0  0  0
 38 37  1  0  0  0  0
M  END
>  <minimizedAffinity>
-5.9994278

$$$$

 OpenBabel03242518483D

 39 41  0  0  1  0  0  0  0  0999 V2000
   39.8200   31.5750   39.4290 C   0  0  2  0  0  0  0  0  0  0  0  0
   40.5440   32.5460   38.5670 C   0  0  1  0  0  0  0  0  0  0  0  0
   40.7870   33.8770   39.2820 C   0  0  0  0  0  0  0  0  0  0  0  0
   39.5110   34.2730   39.7040 O   0  0  0  0  0  0  0  0  0  0  0  0
   39.0750   33.5150   40.7700 C   0  0  0  0  0  0  0  0  0  0  0  0
   39.6920   32.1530   40.8510 C   0  0  1  0  0  0  0  0  0  0  0  0
   38.8060   31.3960   39.0430 H   0  0  0  0  0  0  0  0  0  0  0  0
   39.9280   32.7690   37.6660 H   0  0  0  0  0  0  0  0  0  0  0  0
   41.4910   33.7820   40.1210 H   0  0  0  0  0  0  0  0  0  0  0  0
   41.1750   34.6330   38.5850 H   0  0  0  0  0  0  0  0  0  0  0  0
   39.3340   34.0730   41.7110 H   0  0  0  0  0  0  0  0  0  0  0  0
   37.9630   33.4130   40.7590 H   0  0  0  0  0  0  0  0  0  0  0  0
   40.7370   32.1670   41.2240 H   0  0  0  0  0  0  0  0  0  0  0  0
   43.1500   30.9780   36.5330 C   0  0  0  0  0  0  0  0  0  0  0  0
   44.3580   31.2850   37.2080 C   0  0  0  0  0  0  0  0  0  0  0  0
   44.2120   32.0610   38.4000 C   0  0  0  0  0  0  0  0  0  0  0  0
   42.9750   32.4340   38.7840 N   0  0  0  0  0  0  0  0  0  0  0  0
   41.8700   32.1100   38.0980 C   0  0  0  0  0  0  0  0  0  0  0  0
   41.9600   31.3790   36.9660 N   0  0  0  0  0  0  0  0  0  0  0  0
   45.3160   30.9470   36.8330 H   0  0  0  0  0  0  0  0  0  0  0  0
   45.1320   32.3000   38.9220 H   0  0  0  0  0  0  0  0  0  0  0  0
   43.2730   30.2350   35.3940 O   0  0  0  0  0  0  0  0  0  0  0  0
   42.4410   29.9060   34.9040 H   0  0  0  0  0  0  0  0  0  0  0  0
   40.4520   30.3290   39.5280 O   0  0  0  0  0  0  0  0  0  0  0  0
   41.2770   30.4380   40.0720 H   0  0  0  0  0  0  0  0  0  0  0  0
   38.9510   31.2530   41.5800 O   0  0  0  0  0  0  0  0  0  0  0  0
   38.8090   29.0470   43.1330 F   0  0  0  0  0  0  0  0  0  0  0  0
   37.8930   29.4010   42.2050 C   0  0  0  0  0  0  0  0  0  0  0  0
   37.8820   30.5050   41.3760 C   0  0  0  0  0  0  0  0  0  0  0  0
   36.7850   30.5910   40.5320 C   0  0  0  0  0  0  0  0  0  0  0  0
   35.7420   29.7090   40.4460 C   0  0  0  0  0  0  0  0  0  0  0  0
   35.8060   28.6410   41.2880 C   0  0  0  0  0  0  0  0  0  0  0  0
   36.8590   28.4520   42.1770 C   0  0  0  0  0  0  0  0  0  0  0  0
   36.8510   31.4990   39.9020 H   0  0  0  0  0  0  0  0  0  0  0  0
   34.9610   29.9260   39.7290 H   0  0  0  0  0  0  0  0  0  0  0  0
   34.9770   27.9180   41.2400 H   0  0  0  0  0  0  0  0  0  0  0  0
   36.7650   27.2410   43.0370 C   0  0  0  0  0  2  0  0  0  0  0  0
   37.1640   26.0760   42.1590 C   0  0  0  0  0  2  0  0  0  0  0  0
   37.4750   25.1750   42.7040 H   0  0  0  0  0  0  0  0  0  0  0  0
  1  7  1  6  0  0  0
  1 24  1  0  0  0  0
  1  6  1  0  0  0  0
  2  8  1  6  0  0  0
  2  3  1  0  0  0  0
  2  1  1  0  0  0  0
  3  4  1  0  0  0  0
  3  9  1  0  0  0  0
  4  5  1  0  0  0  0
  5  6  1  0  0  0  0
  5 11  1  0  0  0  0
  6 13  1  1  0  0  0
  6 26  1  0  0  0  0
 10  3  1  0  0  0  0
 12  5  1  0  0  0  0
 14 19  2  0  0  0  0
 14 15  1  0  0  0  0
 15 16  2  0  0  0  0
 16 17  1  0  0  0  0
 16 21  1  0  0  0  0
 18  2  1  0  0  0  0
 18 17  2  0  0  0  0
 19 18  1  0  0  0  0
 20 15  1  0  0  0  0
 22 14  1  0  0  0  0
 23 22  1  0  0  0  0
 24 25  1  0  0  0  0
 28 27  1  0  0  0  0
 29 26  1  0  0  0  0
 29 28  2  0  0  0  0
 30 29  1  0  0  0  0
 31 30  2  0  0  0  0
 31 32  1  0  0  0  0
 32 33  2  0  0  0  0
 33 28  1  0  0  0  0
 33 37  1  0  0  0  0
 34 30  1  0  0  0  0
 35 31  1  0  0  0  0
 36 32  1  0  0  0  0
 38 39  1  0  0  0  0
 38 37  1  0  0  0  0
M  END
>  <minimizedAffinity>
-5.79637051

$$$$

 OpenBabel03242518483D

 39 41  0  0  1  0  0  0  0  0999 V2000
   39.0570   30.2820   40.1130 C   0  0  2  0  0  0  0  0  0  0  0  0
   38.6680   31.5470   39.4350 C   0  0  1  0  0  0  0  0  0  0  0  0
   37.5830   32.3010   40.2070 C   0  0  0  0  0  0  0  0  0  0  0  0
   36.5610   31.3570   40.3660 O   0  0  0  0  0  0  0  0  0  0  0  0
   36.8940   30.4060   41.3070 C   0  0  0  0  0  0  0  0  0  0  0  0
   38.3670   30.2090   41.4890 C   0  0  1  0  0  0  0  0  0  0  0  0
   38.7340   29.4120   39.5250 H   0  0  0  0  0  0  0  0  0  0  0  0
   38.2470   31.3110   38.4310 H   0  0  0  0  0  0  0  0  0  0  0  0
   37.9440   32.6870   41.1720 H   0  0  0  0  0  0  0  0  0  0  0  0
   37.1940   33.1430   39.6190 H   0  0  0  0  0  0  0  0  0  0  0  0
   36.4620   30.7350   42.2900 H   0  0  0  0  0  0  0  0  0  0  0  0
   36.4210   29.4230   41.0660 H   0  0  0  0  0  0  0  0  0  0  0  0
   38.8500   31.0240   42.0680 H   0  0  0  0  0  0  0  0  0  0  0  0
   41.4460   33.3680   37.9040 C   0  0  0  0  0  0  0  0  0  0  0  0
   41.7990   34.3480   38.8640 C   0  0  0  0  0  0  0  0  0  0  0  0
   41.0210   34.3370   40.0640 C   0  0  0  0  0  0  0  0  0  0  0  0
   40.0370   33.4230   40.1900 N   0  0  0  0  0  0  0  0  0  0  0  0
   39.7540   32.5210   39.2400 C   0  0  0  0  0  0  0  0  0  0  0  0
   40.4630   32.4950   38.0910 N   0  0  0  0  0  0  0  0  0  0  0  0
   42.6050   35.0490   38.6860 H   0  0  0  0  0  0  0  0  0  0  0  0
   41.2830   35.0840   40.8040 H   0  0  0  0  0  0  0  0  0  0  0  0
   42.1830   33.3650   36.7530 O   0  0  0  0  0  0  0  0  0  0  0  0
   42.0410   32.6340   36.0560 H   0  0  0  0  0  0  0  0  0  0  0  0
   40.4360   30.1550   40.3180 O   0  0  0  0  0  0  0  0  0  0  0  0
   40.7110   30.8020   41.0220 H   0  0  0  0  0  0  0  0  0  0  0  0
   38.6990   28.9920   42.0350 O   0  0  0  0  0  0  0  0  0  0  0  0
   39.9500   27.0450   40.6410 F   0  0  0  0  0  0  0  0  0  0  0  0
   38.8370   26.8700   41.3860 C   0  0  0  0  0  0  0  0  0  0  0  0
   38.1390   27.7990   42.1300 C   0  0  0  0  0  0  0  0  0  0  0  0
   37.0310   27.3000   42.7990 C   0  0  0  0  0  0  0  0  0  0  0  0
   36.5790   26.0080   42.7910 C   0  0  0  0  0  0  0  0  0  0  0  0
   37.3080   25.1360   42.0410 C   0  0  0  0  0  0  0  0  0  0  0  0
   38.4370   25.5260   41.3270 C   0  0  0  0  0  0  0  0  0  0  0  0
   36.5280   28.1030   43.3690 H   0  0  0  0  0  0  0  0  0  0  0  0
   35.6940   25.7840   43.3710 H   0  0  0  0  0  0  0  0  0  0  0  0
   36.9670   24.0900   42.0200 H   0  0  0  0  0  0  0  0  0  0  0  0
   39.1260   24.4440   40.5730 C   0  0  0  0  0  2  0  0  0  0  0  0
   38.2520   23.2180   40.7140 C   0  0  0  0  0  2  0  0  0  0  0  0
   38.4260   22.4410   39.9570 H   0  0  0  0  0  0  0  0  0  0  0  0
  1  7  1  6  0  0  0
  1 24  1  0  0  0  0
  1  6  1  0  0  0  0
  2  8  1  6  0  0  0
  2  1  1  0  0  0  0
  2  3  1  0  0  0  0
  3  4  1  0  0  0  0
  3  9  1  0  0  0  0
  4  5  1  0  0  0  0
  5  6  1  0  0  0  0
  5 11  1  0  0  0  0
  6 26  1  0  0  0  0
  6 13  1  1  0  0  0
 10  3  1  0  0  0  0
 12  5  1  0  0  0  0
 14 19  2  0  0  0  0
 14 15  1  0  0  0  0
 15 16  2  0  0  0  0
 16 17  1  0  0  0  0
 16 21  1  0  0  0  0
 18  2  1  0  0  0  0
 18 17  2  0  0  0  0
 19 18  1  0  0  0  0
 20 15  1  0  0  0  0
 22 14  1  0  0  0  0
 23 22  1  0  0  0  0
 24 25  1  0  0  0  0
 26 29  1  0  0  0  0
 27 28  1  0  0  0  0
 28 29  1  0  0  0  0
 29 30  2  0  0  0  0
 30 34  1  0  0  0  0
 31 30  1  0  0  0  0
 31 35  1  0  0  0  0
 32 31  2  0  0  0  0
 33 28  2  0  0  0  0
 33 32  1  0  0  0  0
 36 32  1  0  0  0  0
 37 38  1  0  0  0  0
 37 33  1  0  0  0  0
 39 38  1  0  0  0  0
M  END
>  <minimizedAffinity>
-5.70897484

$$$$

 OpenBabel03242518483D

 39 41  0  0  1  0  0  0  0  0999 V2000
   39.5610   32.1910   39.0510 C   0  0  2  0  0  0  0  0  0  0  0  0
   40.0080   33.5890   39.2870 C   0  0  1  0  0  0  0  0  0  0  0  0
   39.1780   34.2810   40.3710 C   0  0  0  0  0  0  0  0  0  0  0  0
   37.8560   34.1320   39.9340 O   0  0  0  0  0  0  0  0  0  0  0  0
   37.4140   32.8360   40.0970 C   0  0  0  0  0  0  0  0  0  0  0  0
   38.5040   31.8090   40.1060 C   0  0  1  0  0  0  0  0  0  0  0  0
   39.0990   32.0940   38.0590 H   0  0  0  0  0  0  0  0  0  0  0  0
   39.8770   34.1800   38.3520 H   0  0  0  0  0  0  0  0  0  0  0  0
   39.3370   33.8430   41.3680 H   0  0  0  0  0  0  0  0  0  0  0  0
   39.4110   35.3540   40.4210 H   0  0  0  0  0  0  0  0  0  0  0  0
   36.8760   32.7830   41.0830 H   0  0  0  0  0  0  0  0  0  0  0  0
   36.6650   32.5670   39.3130 H   0  0  0  0  0  0  0  0  0  0  0  0
   39.0780   31.7870   41.0560 H   0  0  0  0  0  0  0  0  0  0  0  0
   42.9530   33.9080   41.4320 C   0  0  0  0  0  0  0  0  0  0  0  0
   44.0380   34.0300   40.5290 C   0  0  0  0  0  0  0  0  0  0  0  0
   43.6860   33.9970   39.1430 C   0  0  0  0  0  0  0  0  0  0  0  0
   42.3880   33.8540   38.8070 N   0  0  0  0  0  0  0  0  0  0  0  0
   41.4090   33.7430   39.7140 C   0  0  0  0  0  0  0  0  0  0  0  0
   41.6940   33.7680   41.0330 N   0  0  0  0  0  0  0  0  0  0  0  0
   45.0570   34.1420   40.8800 H   0  0  0  0  0  0  0  0  0  0  0  0
   44.5100   34.0900   38.4450 H   0  0  0  0  0  0  0  0  0  0  0  0
   43.2740   33.9400   42.7600 O   0  0  0  0  0  0  0  0  0  0  0  0
   42.5370   33.9420   43.4650 H   0  0  0  0  0  0  0  0  0  0  0  0
   40.5950   31.2500   39.1210 O   0  0  0  0  0  0  0  0  0  0  0  0
   40.8800   31.1660   40.0700 H   0  0  0  0  0  0  0  0  0  0  0  0
   38.0730   30.5420   39.7940 O   0  0  0  0  0  0  0  0  0  0  0  0
   37.4570   30.1220   42.3910 F   0  0  0  0  0  0  0  0  0  0  0  0
   37.9730   29.1920   41.5580 C   0  0  0  0  0  0  0  0  0  0  0  0
   38.3100   29.3160   40.2250 C   0  0  0  0  0  0  0  0  0  0  0  0
   38.8120   28.1630   39.6390 C   0  0  0  0  0  0  0  0  0  0  0  0
   38.9980   26.9480   40.2420 C   0  0  0  0  0  0  0  0  0  0  0  0
   38.6470   26.8860   41.5560 C   0  0  0  0  0  0  0  0  0  0  0  0
   38.1340   27.9800   42.2450 C   0  0  0  0  0  0  0  0  0  0  0  0
   39.0580   28.3440   38.5760 H   0  0  0  0  0  0  0  0  0  0  0  0
   39.4020   26.1470   39.6380 H   0  0  0  0  0  0  0  0  0  0  0  0
   38.7830   25.9180   42.0630 H   0  0  0  0  0  0  0  0  0  0  0  0
   37.7860   27.7350   43.6720 C   0  0  0  0  0  2  0  0  0  0  0  0
   36.3320   27.3200   43.6800 C   0  0  0  0  0  2  0  0  0  0  0  0
   36.0120   26.7830   44.5830 H   0  0  0  0  0  0  0  0  0  0  0  0
  1  7  1  6  0  0  0
  1 24  1  0  0  0  0
  1  2  1  0  0  0  0
  1  6  1  0  0  0  0
  2  8  1  6  0  0  0
  2 18  1  0  0  0  0
  2  3  1  0  0  0  0
  3 10  1  0  0  0  0
  3  9  1  0  0  0  0
  4  5  1  0  0  0  0
  4  3  1  0  0  0  0
  5  6  1  0  0  0  0
  5 11  1  0  0  0  0
  6 13  1  1  0  0  0
 12  5  1  0  0  0  0
 14 22  1  0  0  0  0
 15 20  1  0  0  0  0
 15 14  2  0  0  0  0
 16 15  1  0  0  0  0
 17 16  2  0  0  0  0
 17 18  1  0  0  0  0
 18 19  2  0  0  0  0
 19 14  1  0  0  0  0
 21 16  1  0  0  0  0
 22 23  1  0  0  0  0
 24 25  1  0  0  0  0
 26  6  1  0  0  0  0
 26 29  1  0  0  0  0
 28 33  1  0  0  0  0
 28 27  1  0  0  0  0
 29 28  2  0  0  0  0
 30 29  1  0  0  0  0
 30 31  2  0  0  0  0
 31 32  1  0  0  0  0
 32 36  1  0  0  0  0
 32 33  2  0  0  0  0
 33 37  1  0  0  0  0
 34 30  1  0  0  0  0
 35 31  1  0  0  0  0
 37 38  1  0  0  0  0
 38 39  1  0  0  0  0
M  END
>  <minimizedAffinity>
-5.63884878

$$$$

 OpenBabel03242518483D

 39 41  0  0  1  0  0  0  0  0999 V2000
   39.5870   32.1990   39.0640 C   0  0  2  0  0  0  0  0  0  0  0  0
   40.0940   33.5810   39.2770 C   0  0  1  0  0  0  0  0  0  0  0  0
   39.2640   34.3430   40.3120 C   0  0  0  0  0  0  0  0  0  0  0  0
   37.9510   34.2440   39.8330 O   0  0  0  0  0  0  0  0  0  0  0  0
   37.4410   32.9760   40.0170 C   0  0  0  0  0  0  0  0  0  0  0  0
   38.4780   31.8990   40.0920 C   0  0  1  0  0  0  0  0  0  0  0  0
   39.1540   32.0950   38.0590 H   0  0  0  0  0  0  0  0  0  0  0  0
   40.0230   34.1490   38.3220 H   0  0  0  0  0  0  0  0  0  0  0  0
   39.3680   33.9270   41.3250 H   0  0  0  0  0  0  0  0  0  0  0  0
   39.5470   35.4040   40.3400 H   0  0  0  0  0  0  0  0  0  0  0  0
   36.8690   32.9780   40.9850 H   0  0  0  0  0  0  0  0  0  0  0  0
   36.7060   32.7210   39.2160 H   0  0  0  0  0  0  0  0  0  0  0  0
   39.0190   31.8780   41.0620 H   0  0  0  0  0  0  0  0  0  0  0  0
   42.9910   33.6680   41.5070 C   0  0  0  0  0  0  0  0  0  0  0  0
   44.0980   33.8620   40.6430 C   0  0  0  0  0  0  0  0  0  0  0  0
   43.7780   33.9620   39.2530 C   0  0  0  0  0  0  0  0  0  0  0  0
   42.4870   33.8640   38.8760 N   0  0  0  0  0  0  0  0  0  0  0  0
   41.4860   33.6790   39.7470 C   0  0  0  0  0  0  0  0  0  0  0  0
   41.7410   33.5790   41.0690 N   0  0  0  0  0  0  0  0  0  0  0  0
   45.1090   33.9310   41.0260 H   0  0  0  0  0  0  0  0  0  0  0  0
   44.6180   34.1100   38.5850 H   0  0  0  0  0  0  0  0  0  0  0  0
   43.2810   33.5730   42.8390 O   0  0  0  0  0  0  0  0  0  0  0  0
   42.5280   33.5180   43.5250 H   0  0  0  0  0  0  0  0  0  0  0  0
   40.5710   31.2120   39.1960 O   0  0  0  0  0  0  0  0  0  0  0  0
   40.8210   31.1420   40.1560 H   0  0  0  0  0  0  0  0  0  0  0  0
   37.9960   30.6450   39.8010 O   0  0  0  0  0  0  0  0  0  0  0  0
   37.4180   30.1760   37.2040 F   0  0  0  0  0  0  0  0  0  0  0  0
   36.5980   29.8990   38.2420 C   0  0  0  0  0  0  0  0  0  0  0  0
   36.8120   30.0990   39.5910 C   0  0  0  0  0  0  0  0  0  0  0  0
   35.7710   29.6970   40.4140 C   0  0  0  0  0  0  0  0  0  0  0  0
   34.5840   29.1350   40.0240 C   0  0  0  0  0  0  0  0  0  0  0  0
   34.4300   28.9620   38.6830 C   0  0  0  0  0  0  0  0  0  0  0  0
   35.4090   29.3290   37.7640 C   0  0  0  0  0  0  0  0  0  0  0  0
   36.0180   29.8900   41.4750 H   0  0  0  0  0  0  0  0  0  0  0  0
   33.8750   28.8780   40.8000 H   0  0  0  0  0  0  0  0  0  0  0  0
   33.4860   28.5090   38.3440 H   0  0  0  0  0  0  0  0  0  0  0  0
   35.0860   29.0540   36.3380 C   0  0  0  0  0  2  0  0  0  0  0  0
   33.5770   28.9960   36.2560 C   0  0  0  0  0  2  0  0  0  0  0  0
   33.1650   29.1410   35.2490 H   0  0  0  0  0  0  0  0  0  0  0  0
  1  7  1  6  0  0  0
  1 24  1  0  0  0  0
  1  2  1  0  0  0  0
  1  6  1  0  0  0  0
  2  8  1  6  0  0  0
  2 18  1  0  0  0  0
  2  3  1  0  0  0  0
  3 10  1  0  0  0  0
  3  9  1  0  0  0  0
  4  5  1  0  0  0  0
  4  3  1  0  0  0  0
  5  6  1  0  0  0  0
  5 11  1  0  0  0  0
  6 13  1  1  0  0  0
 12  5  1  0  0  0  0
 14 22  1  0  0  0  0
 15 20  1  0  0  0  0
 15 14  2  0  0  0  0
 16 15  1  0  0  0  0
 17 16  2  0  0  0  0
 17 18  1  0  0  0  0
 18 19  2  0  0  0  0
 19 14  1  0  0  0  0
 21 16  1  0  0  0  0
 22 23  1  0  0  0  0
 24 25  1  0  0  0  0
 26  6  1  0  0  0  0
 27 28  1  0  0  0  0
 28 29  1  0  0  0  0
 29 26  1  0  0  0  0
 29 30  2  0  0  0  0
 30 34  1  0  0  0  0
 31 30  1  0  0  0  0
 31 35  1  0  0  0  0
 32 31  2  0  0  0  0
 33 28  2  0  0  0  0
 33 32  1  0  0  0  0
 36 32  1  0  0  0  0
 37 33  1  0  0  0  0
 38 37  1  0  0  0  0
 39 38  1  0  0  0  0
M  END
>  <minimizedAffinity>
-5.62864828

$$$$

 OpenBabel03242518483D

 39 41  0  0  1  0  0  0  0  0999 V2000
   39.0110   30.7760   39.6400 C   0  0  2  0  0  0  0  0  0  0  0  0
   38.9980   32.2130   39.2600 C   0  0  1  0  0  0  0  0  0  0  0  0
   38.0440   33.0280   40.1360 C   0  0  0  0  0  0  0  0  0  0  0  0
   36.8200   32.3580   40.0200 O   0  0  0  0  0  0  0  0  0  0  0  0
   36.8250   31.1730   40.7260 C   0  0  0  0  0  0  0  0  0  0  0  0
   38.1850   30.5810   40.9260 C   0  0  1  0  0  0  0  0  0  0  0  0
   38.5570   30.1620   38.8490 H   0  0  0  0  0  0  0  0  0  0  0  0
   38.6390   32.3120   38.2110 H   0  0  0  0  0  0  0  0  0  0  0  0
   38.3830   33.0940   41.1800 H   0  0  0  0  0  0  0  0  0  0  0  0
   37.9230   34.0470   39.7440 H   0  0  0  0  0  0  0  0  0  0  0  0
   36.3810   31.3790   41.7380 H   0  0  0  0  0  0  0  0  0  0  0  0
   36.1640   30.4150   40.2390 H   0  0  0  0  0  0  0  0  0  0  0  0
   38.7810   31.1040   41.7030 H   0  0  0  0  0  0  0  0  0  0  0  0
   41.9120   33.9250   40.6580 C   0  0  0  0  0  0  0  0  0  0  0  0
   42.7310   34.2050   39.5350 C   0  0  0  0  0  0  0  0  0  0  0  0
   42.2120   33.7670   38.2760 C   0  0  0  0  0  0  0  0  0  0  0  0
   41.0200   33.1380   38.2490 N   0  0  0  0  0  0  0  0  0  0  0  0
   40.2950   32.9040   39.3510 C   0  0  0  0  0  0  0  0  0  0  0  0
   40.7450   33.2990   40.5610 N   0  0  0  0  0  0  0  0  0  0  0  0
   43.6800   34.7160   39.6410 H   0  0  0  0  0  0  0  0  0  0  0  0
   42.8330   33.9760   37.4120 H   0  0  0  0  0  0  0  0  0  0  0  0
   42.3930   34.3400   41.8670 O   0  0  0  0  0  0  0  0  0  0  0  0
   41.8200   34.2480   42.7060 H   0  0  0  0  0  0  0  0  0  0  0  0
   40.2950   30.2670   39.8740 O   0  0  0  0  0  0  0  0  0  0  0  0
   40.6380   30.6580   40.7220 H   0  0  0  0  0  0  0  0  0  0  0  0
   38.1680   29.2310   41.1860 O   0  0  0  0  0  0  0  0  0  0  0  0
   38.1410   27.0540   42.7850 F   0  0  0  0  0  0  0  0  0  0  0  0
   37.6520   27.0960   41.5270 C   0  0  0  0  0  0  0  0  0  0  0  0
   37.6180   28.1580   40.6460 C   0  0  0  0  0  0  0  0  0  0  0  0
   37.0330   27.8830   39.4190 C   0  0  0  0  0  0  0  0  0  0  0  0
   36.5000   26.6890   39.0120 C   0  0  0  0  0  0  0  0  0  0  0  0
   36.5600   25.6790   39.9220 C   0  0  0  0  0  0  0  0  0  0  0  0
   37.1250   25.8410   41.1830 C   0  0  0  0  0  0  0  0  0  0  0  0
   37.0460   28.7800   38.7730 H   0  0  0  0  0  0  0  0  0  0  0  0
   36.0800   26.6430   38.0160 H   0  0  0  0  0  0  0  0  0  0  0  0
   36.1350   24.7090   39.6200 H   0  0  0  0  0  0  0  0  0  0  0  0
   37.0940   24.6400   42.0610 C   0  0  0  0  0  2  0  0  0  0  0  0
   37.6530   23.5050   41.2330 C   0  0  0  0  0  2  0  0  0  0  0  0
   38.0140   22.6460   41.8140 H   0  0  0  0  0  0  0  0  0  0  0  0
  1  7  1  6  0  0  0
  1 24  1  0  0  0  0
  1  6  1  0  0  0  0
  2  8  1  6  0  0  0
  2 18  1  0  0  0  0
  2  1  1  0  0  0  0
  2  3  1  0  0  0  0
  3  9  1  0  0  0  0
  4  3  1  0  0  0  0
  4  5  1  0  0  0  0
  5  6  1  0  0  0  0
  5 11  1  0  0  0  0
  6 26  1  0  0  0  0
  6 13  1  1  0  0  0
 10  3  1  0  0  0  0
 12  5  1  0  0  0  0
 14 22  1  0  0  0  0
 15 20  1  0  0  0  0
 15 14  2  0  0  0  0
 16 15  1  0  0  0  0
 17 16  2  0  0  0  0
 17 18  1  0  0  0  0
 18 19  2  0  0  0  0
 19 14  1  0  0  0  0
 21 16  1  0  0  0  0
 22 23  1  0  0  0  0
 24 25  1  0  0  0  0
 28 27  1  0  0  0  0
 29 26  1  0  0  0  0
 29 28  2  0  0  0  0
 30 29  1  0  0  0  0
 31 30  2  0  0  0  0
 31 32  1  0  0  0  0
 32 33  2  0  0  0  0
 33 28  1  0  0  0  0
 33 37  1  0  0  0  0
 34 30  1  0  0  0  0
 35 31  1  0  0  0  0
 36 32  1  0  0  0  0
 38 39  1  0  0  0  0
 38 37  1  0  0  0  0
M  END
>  <minimizedAffinity>
-5.60709667

$$$$

 OpenBabel03242518483D

 39 41  0  0  1  0  0  0  0  0999 V2000
   34.3400   28.5600   38.5270 C   0  0  2  0  0  0  0  0  0  0  0  0
   35.8250   28.6020   38.4710 C   0  0  1  0  0  0  0  0  0  0  0  0
   36.3330   29.1130   37.1210 C   0  0  0  0  0  0  0  0  0  0  0  0
   35.7120   28.2760   36.1850 O   0  0  0  0  0  0  0  0  0  0  0  0
   34.3720   28.5720   36.0540 C   0  0  0  0  0  0  0  0  0  0  0  0
   33.7630   29.2190   37.2590 C   0  0  1  0  0  0  0  0  0  0  0  0
   33.9820   27.5220   38.5620 H   0  0  0  0  0  0  0  0  0  0  0  0
   36.2260   27.5710   38.5990 H   0  0  0  0  0  0  0  0  0  0  0  0
   36.0900   30.1730   36.9540 H   0  0  0  0  0  0  0  0  0  0  0  0
   37.4200   28.9870   37.0360 H   0  0  0  0  0  0  0  0  0  0  0  0
   34.2640   29.2780   35.1860 H   0  0  0  0  0  0  0  0  0  0  0  0
   33.7840   27.6580   35.7930 H   0  0  0  0  0  0  0  0  0  0  0  0
   34.0400   30.2880   37.3700 H   0  0  0  0  0  0  0  0  0  0  0  0
   36.9610   31.5820   40.2610 C   0  0  0  0  0  0  0  0  0  0  0  0
   37.6870   31.0760   41.3670 C   0  0  0  0  0  0  0  0  0  0  0  0
   37.7580   29.6500   41.4510 C   0  0  0  0  0  0  0  0  0  0  0  0
   37.1460   28.9130   40.5020 N   0  0  0  0  0  0  0  0  0  0  0  0
   36.4730   29.4580   39.4790 C   0  0  0  0  0  0  0  0  0  0  0  0
   36.3800   30.7990   39.3600 N   0  0  0  0  0  0  0  0  0  0  0  0
   38.1520   31.7360   42.0890 H   0  0  0  0  0  0  0  0  0  0  0  0
   38.3110   29.2540   42.2950 H   0  0  0  0  0  0  0  0  0  0  0  0
   36.8880   32.9430   40.1660 O   0  0  0  0  0  0  0  0  0  0  0  0
   36.4540   33.3770   39.3510 H   0  0  0  0  0  0  0  0  0  0  0  0
   33.7990   29.2220   39.6370 O   0  0  0  0  0  0  0  0  0  0  0  0
   33.9250   30.2010   39.5110 H   0  0  0  0  0  0  0  0  0  0  0  0
   32.3960   29.0840   37.3280 O   0  0  0  0  0  0  0  0  0  0  0  0
   31.9080   30.6630   35.1920 F   0  0  0  0  0  0  0  0  0  0  0  0
   31.1860   30.6620   36.3340 C   0  0  0  0  0  0  0  0  0  0  0  0
   31.3600   29.8900   37.4660 C   0  0  0  0  0  0  0  0  0  0  0  0
   30.4370   30.1190   38.4760 C   0  0  0  0  0  0  0  0  0  0  0  0
   29.4000   31.0130   38.4560 C   0  0  0  0  0  0  0  0  0  0  0  0
   29.2780   31.7440   37.3140 C   0  0  0  0  0  0  0  0  0  0  0  0
   30.1470   31.5990   36.2370 C   0  0  0  0  0  0  0  0  0  0  0  0
   30.6440   29.4660   39.3450 H   0  0  0  0  0  0  0  0  0  0  0  0
   28.7700   31.0670   39.3340 H   0  0  0  0  0  0  0  0  0  0  0  0
   28.4500   32.4680   37.2720 H   0  0  0  0  0  0  0  0  0  0  0  0
   29.8610   32.4640   35.0600 C   0  0  0  0  0  2  0  0  0  0  0  0
   28.7080   31.8100   34.3330 C   0  0  0  0  0  2  0  0  0  0  0  0
   28.1570   32.4740   33.6540 H   0  0  0  0  0  0  0  0  0  0  0  0
  1  7  1  1  0  0  0
  1 24  1  0  0  0  0
  2  1  1  0  0  0  0
  2  8  1  1  0  0  0
  2 18  1  0  0  0  0
  3  2  1  0  0  0  0
  4  3  1  0  0  0  0
  5  4  1  0  0  0  0
  5  6  1  0  0  0  0
  6 26  1  0  0  0  0
  6 13  1  1  0  0  0
  6  1  1  0  0  0  0
  9  3  1  0  0  0  0
 10  3  1  0  0  0  0
 11  5  1  0  0  0  0
 12  5  1  0  0  0  0
 14 15  1  0  0  0  0
 15 16  2  0  0  0  0
 15 20  1  0  0  0  0
 16 21  1  0  0  0  0
 17 16  1  0  0  0  0
 18 17  2  0  0  0  0
 19 18  1  0  0  0  0
 19 14  2  0  0  0  0
 22 14  1  0  0  0  0
 23 22  1  0  0  0  0
 25 24  1  0  0  0  0
 26 29  1  0  0  0  0
 27 28  1  0  0  0  0
 28 29  1  0  0  0  0
 29 30  2  0  0  0  0
 30 34  1  0  0  0  0
 31 30  1  0  0  0  0
 31 35  1  0  0  0  0
 32 31  2  0  0  0  0
 33 28  2  0  0  0  0
 33 32  1  0  0  0  0
 36 32  1  0  0  0  0
 37 33  1  0  0  0  0
 38 37  1  0  0  0  0
 39 38  1  0  0  0  0
M  END
>  <minimizedAffinity>
-5.59734297

$$$$
