
 OpenBabel03252508583D

 33 34  0  0  1  0  0  0  0  0999 V2000
   48.4090   34.0910   41.0190 N   0  0  0  0  0  0  0  0  0  0  0  0
   49.5490   33.8790   41.8440 C   0  0  0  0  0  0  0  0  0  0  0  0
   50.1200   32.4980   41.8930 C   0  0  0  0  0  0  0  0  0  0  0  0
   49.9620   31.6990   40.6310 C   0  0  0  0  0  0  0  0  0  0  0  0
   49.3250   32.4790   39.5510 C   0  0  0  0  0  0  0  0  0  0  0  0
   48.0180   33.0980   40.1230 C   0  0  2  0  0  0  0  0  0  0  0  0
   49.3480   34.2140   42.8810 H   0  0  0  0  0  0  0  0  0  0  0  0
   50.3500   34.5510   41.4630 H   0  0  0  0  0  0  0  0  0  0  0  0
   51.1830   32.5970   42.2280 H   0  0  0  0  0  0  0  0  0  0  0  0
   49.5610   31.9460   42.7010 H   0  0  0  0  0  0  0  0  0  0  0  0
   49.5070   30.7030   40.8040 H   0  0  0  0  0  0  0  0  0  0  0  0
   51.0120   31.4610   40.2880 H   0  0  0  0  0  0  0  0  0  0  0  0
   50.0010   33.2950   39.2240 H   0  0  0  0  0  0  0  0  0  0  0  0
   49.0970   31.7670   38.7300 H   0  0  0  0  0  0  0  0  0  0  0  0
   47.4980   32.2050   40.5130 H   0  0  0  0  0  0  0  0  0  0  0  0
   47.4030   34.9020   41.6140 C   0  0  0  0  0  0  0  0  0  0  0  0
   47.2050   35.8250   41.0610 H   0  0  0  0  0  0  0  0  0  0  0  0
   47.8260   35.2510   42.6010 H   0  0  0  0  0  0  0  0  0  0  0  0
   46.1630   34.1330   41.8800 C   0  0  0  0  0  0  0  0  0  0  0  0
   46.2140   33.0520   41.8440 H   0  0  0  0  0  0  0  0  0  0  0  0
   45.3710   34.5850   41.2040 H   0  0  0  0  0  0  0  0  0  0  0  0
   44.4650   35.9440   44.6990 C   0  0  0  0  0  0  0  0  0  0  0  0
   44.9430   35.6130   43.4290 C   0  0  0  0  0  0  0  0  0  0  0  0
   45.6690   34.4580   43.2520 C   0  0  0  0  0  0  0  0  0  0  0  0
   45.8840   33.6920   44.3320 N   0  0  0  0  0  0  0  0  0  0  0  0
   45.4180   34.0220   45.5540 C   0  0  0  0  0  0  0  0  0  0  0  0
   44.7090   35.1440   45.7470 N   0  0  0  0  0  0  0  0  0  0  0  0
   43.9020   36.8390   44.8390 H   0  0  0  0  0  0  0  0  0  0  0  0
   44.7000   36.3240   42.6240 H   0  0  0  0  0  0  0  0  0  0  0  0
   45.6290   33.3530   46.3920 H   0  0  0  0  0  0  0  0  0  0  0  0
   47.4020   33.6200   38.8210 C   0  0  0  0  0  2  0  0  0  0  0  0
   48.4260   34.4350   38.0290 C   0  0  0  0  0  2  0  0  0  0  0  0
   49.4310   33.9810   38.0670 H   0  0  0  0  0  0  0  0  0  0  0  0
  1 16  1  0  0  0  0
  1  2  1  0  0  0  0
  2  3  1  0  0  0  0
  2  7  1  0  0  0  0
  3  9  1  0  0  0  0
  3 10  1  0  0  0  0
  4 11  1  0  0  0  0
  4  3  1  0  0  0  0
  5  6  1  0  0  0  0
  5  4  1  0  0  0  0
  6 15  1  1  0  0  0
  6  1  1  0  0  0  0
  8  2  1  0  0  0  0
 12  4  1  0  0  0  0
 13  5  1  0  0  0  0
 14  5  1  0  0  0  0
 16 19  1  0  0  0  0
 16 18  1  0  0  0  0
 17 16  1  0  0  0  0
 19 24  1  0  0  0  0
 20 19  1  0  0  0  0
 21 19  1  0  0  0  0
 22 28  1  0  0  0  0
 22 27  1  0  0  0  0
 23 22  2  0  0  0  0
 24 23  1  0  0  0  0
 24 25  2  0  0  0  0
 25 26  1  0  0  0  0
 26 27  2  0  0  0  0
 26 30  1  0  0  0  0
 29 23  1  0  0  0  0
 31  6  1  0  0  0  0
 32 33  1  0  0  0  0
 32 31  1  0  0  0  0
M  END
>  <minimizedAffinity>
-4.16781187

>  <minimizedRMSD>
1.17722547

$$$$
