
 OpenBabel03252508583D

 33 34  0  0  1  0  0  0  0  0999 V2000
   48.8750   33.1060   41.3950 N   0  0  0  0  0  0  0  0  0  0  0  0
   49.3870   32.2650   40.3680 C   0  0  0  0  0  0  0  0  0  0  0  0
   48.6340   32.2130   39.0770 C   0  0  0  0  0  0  0  0  0  0  0  0
   47.9190   33.4810   38.7060 C   0  0  0  0  0  0  0  0  0  0  0  0
   48.1670   34.5670   39.6750 C   0  0  0  0  0  0  0  0  0  0  0  0
   47.8600   34.0130   41.0950 C   0  0  2  0  0  0  0  0  0  0  0  0
   49.5180   31.2290   40.7410 H   0  0  0  0  0  0  0  0  0  0  0  0
   50.4120   32.6310   40.1340 H   0  0  0  0  0  0  0  0  0  0  0  0
   49.3520   31.8610   38.2950 H   0  0  0  0  0  0  0  0  0  0  0  0
   47.8460   31.4160   39.1940 H   0  0  0  0  0  0  0  0  0  0  0  0
   46.8490   33.3190   38.4660 H   0  0  0  0  0  0  0  0  0  0  0  0
   48.3710   33.8090   37.7240 H   0  0  0  0  0  0  0  0  0  0  0  0
   49.2300   34.8800   39.6300 H   0  0  0  0  0  0  0  0  0  0  0  0
   47.4740   35.3940   39.4170 H   0  0  0  0  0  0  0  0  0  0  0  0
   46.8300   33.6350   40.9710 H   0  0  0  0  0  0  0  0  0  0  0  0
   48.9020   32.5230   42.6920 C   0  0  0  0  0  0  0  0  0  0  0  0
   49.1330   33.2400   43.4870 H   0  0  0  0  0  0  0  0  0  0  0  0
   49.7780   31.8100   42.6950 H   0  0  0  0  0  0  0  0  0  0  0  0
   47.6670   31.7530   42.9750 C   0  0  0  0  0  0  0  0  0  0  0  0
   47.7120   30.6730   42.9110 H   0  0  0  0  0  0  0  0  0  0  0  0
   46.8580   32.2260   42.3340 H   0  0  0  0  0  0  0  0  0  0  0  0
   46.1130   33.5300   45.8980 C   0  0  0  0  0  0  0  0  0  0  0  0
   46.5510   33.2280   44.6060 C   0  0  0  0  0  0  0  0  0  0  0  0
   47.2140   32.0460   44.3680 C   0  0  0  0  0  0  0  0  0  0  0  0
   47.4100   31.2270   45.4130 N   0  0  0  0  0  0  0  0  0  0  0  0
   46.9830   31.5290   46.6560 C   0  0  0  0  0  0  0  0  0  0  0  0
   46.3350   32.6760   46.9070 N   0  0  0  0  0  0  0  0  0  0  0  0
   45.6000   34.4460   46.0840 H   0  0  0  0  0  0  0  0  0  0  0  0
   46.3300   33.9820   43.8350 H   0  0  0  0  0  0  0  0  0  0  0  0
   47.1740   30.8160   47.4620 H   0  0  0  0  0  0  0  0  0  0  0  0
   47.9190   35.3220   41.8890 C   0  0  0  0  0  2  0  0  0  0  0  0
   49.1870   36.1040   41.5440 C   0  0  0  0  0  2  0  0  0  0  0  0
   49.4220   36.0560   40.4680 H   0  0  0  0  0  0  0  0  0  0  0  0
  1 16  1  0  0  0  0
  2  7  1  0  0  0  0
  2  1  1  0  0  0  0
  3 10  1  0  0  0  0
  3  2  1  0  0  0  0
  4  3  1  0  0  0  0
  4  5  1  0  0  0  0
  5  6  1  0  0  0  0
  6 15  1  1  0  0  0
  6  1  1  0  0  0  0
  6 31  1  0  0  0  0
  8  2  1  0  0  0  0
  9  3  1  0  0  0  0
 11  4  1  0  0  0  0
 12  4  1  0  0  0  0
 13  5  1  0  0  0  0
 14  5  1  0  0  0  0
 16 18  1  0  0  0  0
 16 19  1  0  0  0  0
 16 17  1  0  0  0  0
 19 24  1  0  0  0  0
 20 19  1  0  0  0  0
 21 19  1  0  0  0  0
 22 28  1  0  0  0  0
 22 27  1  0  0  0  0
 23 22  2  0  0  0  0
 24 23  1  0  0  0  0
 24 25  2  0  0  0  0
 25 26  1  0  0  0  0
 26 27  2  0  0  0  0
 26 30  1  0  0  0  0
 29 23  1  0  0  0  0
 32 31  1  0  0  0  0
 33 32  1  0  0  0  0
M  END
>  <minimizedAffinity>
-4.04046011

>  <minimizedRMSD>
2.77699614

$$$$
