
 OpenBabel03252508573D

 33 34  0  0  1  0  0  0  0  0999 V2000
   48.0790   34.0450   40.9930 N   0  0  0  0  0  0  0  0  0  0  0  0
   48.7260   35.2310   41.4400 C   0  0  0  0  0  0  0  0  0  0  0  0
   49.7640   35.0940   42.5080 C   0  0  0  0  0  0  0  0  0  0  0  0
   50.5240   33.7980   42.4930 C   0  0  0  0  0  0  0  0  0  0  0  0
   50.1350   32.9340   41.3610 C   0  0  0  0  0  0  0  0  0  0  0  0
   48.5850   32.8040   41.3760 C   0  0  2  0  0  0  0  0  0  0  0  0
   47.9800   35.9820   41.7680 H   0  0  0  0  0  0  0  0  0  0  0  0
   49.2290   35.6770   40.5520 H   0  0  0  0  0  0  0  0  0  0  0  0
   50.4200   35.9970   42.4420 H   0  0  0  0  0  0  0  0  0  0  0  0
   49.2200   35.1420   43.4940 H   0  0  0  0  0  0  0  0  0  0  0  0
   50.5270   33.2880   43.4770 H   0  0  0  0  0  0  0  0  0  0  0  0
   51.6060   34.0820   42.3330 H   0  0  0  0  0  0  0  0  0  0  0  0
   50.4510   33.3980   40.4040 H   0  0  0  0  0  0  0  0  0  0  0  0
   50.6140   31.9470   41.5290 H   0  0  0  0  0  0  0  0  0  0  0  0
   48.4000   32.4490   42.4050 H   0  0  0  0  0  0  0  0  0  0  0  0
   46.6750   34.1790   40.8160 C   0  0  0  0  0  0  0  0  0  0  0  0
   46.3480   34.0120   39.7850 H   0  0  0  0  0  0  0  0  0  0  0  0
   46.4380   35.2650   41.0130 H   0  0  0  0  0  0  0  0  0  0  0  0
   45.9170   33.3490   41.7840 C   0  0  0  0  0  0  0  0  0  0  0  0
   46.4140   32.4940   42.2240 H   0  0  0  0  0  0  0  0  0  0  0  0
   44.9320   33.1060   41.2740 H   0  0  0  0  0  0  0  0  0  0  0  0
   44.7780   36.3350   43.7600 C   0  0  0  0  0  0  0  0  0  0  0  0
   45.1720   35.5140   42.7000 C   0  0  0  0  0  0  0  0  0  0  0  0
   45.5020   34.2000   42.9400 C   0  0  0  0  0  0  0  0  0  0  0  0
   45.4260   33.7660   44.2070 N   0  0  0  0  0  0  0  0  0  0  0  0
   45.0440   34.5670   45.2220 C   0  0  0  0  0  0  0  0  0  0  0  0
   44.7190   35.8510   45.0080 N   0  0  0  0  0  0  0  0  0  0  0  0
   44.5220   37.3540   43.5760 H   0  0  0  0  0  0  0  0  0  0  0  0
   45.1940   35.9890   41.7070 H   0  0  0  0  0  0  0  0  0  0  0  0
   45.0040   34.1500   46.2320 H   0  0  0  0  0  0  0  0  0  0  0  0
   48.4210   31.6970   40.3300 C   0  0  0  0  0  2  0  0  0  0  0  0
   49.3900   31.9080   39.1660 C   0  0  0  0  0  2  0  0  0  0  0  0
   50.3810   32.2490   39.5120 H   0  0  0  0  0  0  0  0  0  0  0  0
  1  6  1  0  0  0  0
  1  2  1  0  0  0  0
  2  7  1  0  0  0  0
  2  3  1  0  0  0  0
  3 10  1  0  0  0  0
  4  3  1  0  0  0  0
  4 11  1  0  0  0  0
  5  6  1  0  0  0  0
  5 14  1  0  0  0  0
  5  4  1  0  0  0  0
  6 15  1  1  0  0  0
  8  2  1  0  0  0  0
  9  3  1  0  0  0  0
 12  4  1  0  0  0  0
 13  5  1  0  0  0  0
 16  1  1  0  0  0  0
 16 18  1  0  0  0  0
 16 19  1  0  0  0  0
 17 16  1  0  0  0  0
 19 20  1  0  0  0  0
 19 24  1  0  0  0  0
 21 19  1  0  0  0  0
 22 27  1  0  0  0  0
 23 24  1  0  0  0  0
 23 22  2  0  0  0  0
 24 25  2  0  0  0  0
 25 26  1  0  0  0  0
 26 30  1  0  0  0  0
 27 26  2  0  0  0  0
 28 22  1  0  0  0  0
 29 23  1  0  0  0  0
 31  6  1  0  0  0  0
 32 33  1  0  0  0  0
 32 31  1  0  0  0  0
M  END
>  <minimizedAffinity>
-4.33763456

>  <minimizedRMSD>
2.64174318

$$$$
