
 OpenBabel03252507533D

 32 34  0  0  1  0  0  0  0  0999 V2000
   37.3610   30.4140   40.2230 C   0  0  2  0  0  0  0  0  0  0  0  0
   35.9080   30.5880   40.5790 C   0  0  0  0  0  0  0  0  0  0  0  0
   35.5250   29.0950   40.6350 C   0  0  0  0  0  0  0  0  0  0  0  0
   36.7390   28.4010   41.1930 C   0  0  1  0  0  0  0  0  0  0  0  0
   37.7680   29.4660   41.3550 C   0  0  0  0  0  0  0  0  0  0  0  0
   37.4320   29.9590   39.2330 H   0  0  0  0  0  0  0  0  0  0  0  0
   35.3460   31.0710   39.7730 H   0  0  0  0  0  0  0  0  0  0  0  0
   35.8280   31.0500   41.5630 H   0  0  0  0  0  0  0  0  0  0  0  0
   34.6660   28.9300   41.3230 H   0  0  0  0  0  0  0  0  0  0  0  0
   35.3730   28.7080   39.6220 H   0  0  0  0  0  0  0  0  0  0  0  0
   37.1540   27.6320   40.5260 H   0  0  0  0  0  0  0  0  0  0  0  0
   37.6050   30.1810   42.1880 H   0  0  0  0  0  0  0  0  0  0  0  0
   38.8090   29.1730   41.1720 H   0  0  0  0  0  0  0  0  0  0  0  0
   38.3940   34.0450   40.1110 C   0  0  0  0  0  0  0  0  0  0  0  0
   37.5700   32.9170   40.0220 C   0  0  0  0  0  0  0  0  0  0  0  0
   38.1440   31.6720   40.3040 C   0  0  0  0  0  0  0  0  0  0  0  0
   39.4850   31.5990   40.6550 N   0  0  0  0  0  0  0  0  0  0  0  0
   40.2310   32.7270   40.7240 C   0  0  0  0  0  0  0  0  0  0  0  0
   39.6910   33.9370   40.4550 N   0  0  0  0  0  0  0  0  0  0  0  0
   37.8420   34.9470   39.8720 H   0  0  0  0  0  0  0  0  0  0  0  0
   36.5310   32.9190   39.7560 H   0  0  0  0  0  0  0  0  0  0  0  0
   41.2660   32.6660   40.9950 H   0  0  0  0  0  0  0  0  0  0  0  0
   36.5270   27.8110   42.5550 C   0  0  2  0  0  0  0  0  0  0  0  0
   37.6440   27.8220   43.4870 C   0  0  0  0  0  0  0  0  0  0  0  0
   36.9900   26.5320   42.9850 C   0  0  2  0  0  0  0  0  0  0  0  0
   35.5610   28.2240   42.9790 H   0  0  0  0  0  0  0  0  0  0  0  0
   37.4340   28.0880   44.5710 H   0  0  0  0  0  0  0  0  0  0  0  0
   38.7110   27.7070   43.3700 H   0  0  0  0  0  0  0  0  0  0  0  0
   36.3500   26.0260   43.7750 H   0  0  0  0  0  0  0  0  0  0  0  0
   37.7550   25.5100   42.2200 C   0  0  0  0  0  2  0  0  0  0  0  0
   36.8150   24.4580   41.5970 C   0  0  0  0  0  2  0  0  0  0  0  0
   37.0610   24.2590   40.5490 H   0  0  0  0  0  0  0  0  0  0  0  0
  1  6  1  6  0  0  0
  1 16  1  0  0  0  0
  1  2  1  0  0  0  0
  1  5  1  0  0  0  0
  2  3  1  0  0  0  0
  2  8  1  0  0  0  0
  3  4  1  0  0  0  0
  3  9  1  0  0  0  0
  4 11  1  6  0  0  0
  4  5  1  0  0  0  0
  4 23  1  0  0  0  0
  5 12  1  0  0  0  0
  7  2  1  0  0  0  0
 10  3  1  0  0  0  0
 13  5  1  0  0  0  0
 14 19  1  0  0  0  0
 15 14  2  0  0  0  0
 15 16  1  0  0  0  0
 16 17  2  0  0  0  0
 17 18  1  0  0  0  0
 18 22  1  0  0  0  0
 19 18  2  0  0  0  0
 20 14  1  0  0  0  0
 21 15  1  0  0  0  0
 23 26  1  1  0  0  0
 23 25  1  0  0  0  0
 23 24  1  0  0  0  0
 24 27  1  0  0  0  0
 25 24  1  0  0  0  0
 25 29  1  1  0  0  0
 28 24  1  0  0  0  0
 30 25  1  0  0  0  0
 31 30  1  0  0  0  0
 32 31  1  0  0  0  0
M  END
>  <minimizedAffinity>
-5.03061438

$$$$

 OpenBabel03252507533D

 32 34  0  0  1  0  0  0  0  0999 V2000
   36.5920   28.7030   41.6560 C   0  0  2  0  0  0  0  0  0  0  0  0
   37.4290   28.9920   42.8740 C   0  0  0  0  0  0  0  0  0  0  0  0
   37.2100   27.6530   43.6060 C   0  0  0  0  0  0  0  0  0  0  0  0
   37.1420   26.6180   42.5130 C   0  0  1  0  0  0  0  0  0  0  0  0
   37.2390   27.3800   41.2370 C   0  0  0  0  0  0  0  0  0  0  0  0
   35.5490   28.5950   41.9610 H   0  0  0  0  0  0  0  0  0  0  0  0
   37.0050   29.8030   43.4760 H   0  0  0  0  0  0  0  0  0  0  0  0
   38.4720   29.1110   42.5780 H   0  0  0  0  0  0  0  0  0  0  0  0
   38.0680   27.4180   44.2730 H   0  0  0  0  0  0  0  0  0  0  0  0
   36.2360   27.6530   44.1050 H   0  0  0  0  0  0  0  0  0  0  0  0
   36.1990   26.0540   42.4960 H   0  0  0  0  0  0  0  0  0  0  0  0
   38.2380   27.7960   40.9900 H   0  0  0  0  0  0  0  0  0  0  0  0
   36.6600   26.9910   40.3890 H   0  0  0  0  0  0  0  0  0  0  0  0
   36.9460   31.9560   39.7720 C   0  0  0  0  0  0  0  0  0  0  0  0
   36.8170   31.0810   40.8570 C   0  0  0  0  0  0  0  0  0  0  0  0
   36.7460   29.7120   40.5790 C   0  0  0  0  0  0  0  0  0  0  0  0
   36.8040   29.2740   39.2630 N   0  0  0  0  0  0  0  0  0  0  0  0
   36.9300   30.1700   38.2550 C   0  0  0  0  0  0  0  0  0  0  0  0
   37.0000   31.4970   38.5070 N   0  0  0  0  0  0  0  0  0  0  0  0
   36.9910   32.9860   40.1080 H   0  0  0  0  0  0  0  0  0  0  0  0
   36.7670   31.3670   41.8900 H   0  0  0  0  0  0  0  0  0  0  0  0
   36.9740   29.8290   37.2410 H   0  0  0  0  0  0  0  0  0  0  0  0
   38.2930   25.6570   42.5180 C   0  0  2  0  0  0  0  0  0  0  0  0
   39.1290   25.5860   41.3300 C   0  0  0  0  0  0  0  0  0  0  0  0
   38.3210   24.3960   41.8530 C   0  0  2  0  0  0  0  0  0  0  0  0
   38.8670   25.7880   43.4860 H   0  0  0  0  0  0  0  0  0  0  0  0
   40.2540   25.5140   41.4700 H   0  0  0  0  0  0  0  0  0  0  0  0
   38.9280   25.6700   40.2720 H   0  0  0  0  0  0  0  0  0  0  0  0
   38.9700   23.6030   42.3430 H   0  0  0  0  0  0  0  0  0  0  0  0
   37.2590   23.7470   41.0350 C   0  0  0  0  0  2  0  0  0  0  0  0
   37.7690   22.4420   40.3920 C   0  0  0  0  0  2  0  0  0  0  0  0
   37.0540   21.6210   40.5100 H   0  0  0  0  0  0  0  0  0  0  0  0
  1  6  1  1  0  0  0
  1  2  1  0  0  0  0
  2  7  1  0  0  0  0
  2  3  1  0  0  0  0
  3 10  1  0  0  0  0
  3  9  1  0  0  0  0
  4 11  1  1  0  0  0
  4 23  1  0  0  0  0
  4  3  1  0  0  0  0
  5  1  1  0  0  0  0
  5  4  1  0  0  0  0
  8  2  1  0  0  0  0
 12  5  1  0  0  0  0
 13  5  1  0  0  0  0
 14 20  1  0  0  0  0
 14 15  1  0  0  0  0
 15 21  1  0  0  0  0
 16 15  2  0  0  0  0
 16  1  1  0  0  0  0
 17 16  1  0  0  0  0
 18 19  1  0  0  0  0
 18 17  2  0  0  0  0
 19 14  2  0  0  0  0
 22 18  1  0  0  0  0
 23 26  1  1  0  0  0
 24 27  1  0  0  0  0
 24 25  1  0  0  0  0
 24 23  1  0  0  0  0
 25 29  1  1  0  0  0
 25 23  1  0  0  0  0
 28 24  1  0  0  0  0
 30 25  1  0  0  0  0
 31 32  1  0  0  0  0
 31 30  1  0  0  0  0
M  END
>  <minimizedAffinity>
-4.74656677

$$$$

 OpenBabel03252507533D

 32 34  0  0  1  0  0  0  0  0999 V2000
   37.2840   28.8610   42.2270 C   0  0  2  0  0  0  0  0  0  0  0  0
   37.2860   28.4560   43.6780 C   0  0  0  0  0  0  0  0  0  0  0  0
   36.4710   27.1550   43.5360 C   0  0  0  0  0  0  0  0  0  0  0  0
   36.8900   26.5750   42.2100 C   0  0  1  0  0  0  0  0  0  0  0  0
   37.8340   27.5660   41.6220 C   0  0  0  0  0  0  0  0  0  0  0  0
   36.2590   29.0790   41.9210 H   0  0  0  0  0  0  0  0  0  0  0  0
   36.7260   29.1630   44.2990 H   0  0  0  0  0  0  0  0  0  0  0  0
   38.3080   28.2450   43.9950 H   0  0  0  0  0  0  0  0  0  0  0  0
   36.7270   26.4340   44.3430 H   0  0  0  0  0  0  0  0  0  0  0  0
   35.4040   27.3870   43.4590 H   0  0  0  0  0  0  0  0  0  0  0  0
   36.0590   26.4420   41.5030 H   0  0  0  0  0  0  0  0  0  0  0  0
   38.8390   27.6210   42.0890 H   0  0  0  0  0  0  0  0  0  0  0  0
   37.8060   27.6820   40.5310 H   0  0  0  0  0  0  0  0  0  0  0  0
   40.2270   31.2280   42.2120 C   0  0  0  0  0  0  0  0  0  0  0  0
   39.4440   30.1170   42.5480 C   0  0  0  0  0  0  0  0  0  0  0  0
   38.1960   29.9930   41.9280 C   0  0  0  0  0  0  0  0  0  0  0  0
   37.7830   30.9560   41.0190 N   0  0  0  0  0  0  0  0  0  0  0  0
   38.5850   32.0100   40.7350 C   0  0  0  0  0  0  0  0  0  0  0  0
   39.7940   32.1440   41.3250 N   0  0  0  0  0  0  0  0  0  0  0  0
   41.1670   31.2170   42.7520 H   0  0  0  0  0  0  0  0  0  0  0  0
   39.7170   29.3460   43.2430 H   0  0  0  0  0  0  0  0  0  0  0  0
   38.2620   32.7520   40.0330 H   0  0  0  0  0  0  0  0  0  0  0  0
   37.6500   25.2880   42.3260 C   0  0  2  0  0  0  0  0  0  0  0  0
   38.9330   25.1880   41.6480 C   0  0  0  0  0  0  0  0  0  0  0  0
   37.7420   24.2860   41.3150 C   0  0  2  0  0  0  0  0  0  0  0  0
   37.6730   24.9810   43.4160 H   0  0  0  0  0  0  0  0  0  0  0  0
   39.7910   24.6840   42.1960 H   0  0  0  0  0  0  0  0  0  0  0  0
   39.3130   25.5750   40.7140 H   0  0  0  0  0  0  0  0  0  0  0  0
   37.8730   23.2240   41.6940 H   0  0  0  0  0  0  0  0  0  0  0  0
   37.1250   24.2680   39.9590 C   0  0  0  0  0  2  0  0  0  0  0  0
   35.7070   23.6660   39.9990 C   0  0  0  0  0  2  0  0  0  0  0  0
   34.9900   24.2720   39.4360 H   0  0  0  0  0  0  0  0  0  0  0  0
  1  6  1  6  0  0  0
  1  2  1  0  0  0  0
  2  8  1  0  0  0  0
  2  7  1  0  0  0  0
  3  2  1  0  0  0  0
  3  9  1  0  0  0  0
  4 11  1  6  0  0  0
  4 23  1  0  0  0  0
  4  3  1  0  0  0  0
  5 12  1  0  0  0  0
  5  4  1  0  0  0  0
  5  1  1  0  0  0  0
 10  3  1  0  0  0  0
 13  5  1  0  0  0  0
 14 15  1  0  0  0  0
 14 20  1  0  0  0  0
 15 21  1  0  0  0  0
 16  1  1  0  0  0  0
 16 15  2  0  0  0  0
 17 16  1  0  0  0  0
 18 17  2  0  0  0  0
 18 19  1  0  0  0  0
 19 14  2  0  0  0  0
 22 18  1  0  0  0  0
 23 26  1  1  0  0  0
 24 27  1  0  0  0  0
 24 23  1  0  0  0  0
 25 24  1  0  0  0  0
 25 29  1  1  0  0  0
 25 23  1  0  0  0  0
 28 24  1  0  0  0  0
 30 31  1  0  0  0  0
 30 25  1  0  0  0  0
 32 31  1  0  0  0  0
M  END
>  <minimizedAffinity>
-4.66959763

$$$$

 OpenBabel03252507533D

 32 34  0  0  1  0  0  0  0  0999 V2000
   39.0080   28.7740   42.3100 C   0  0  2  0  0  0  0  0  0  0  0  0
   39.9910   28.2010   41.3230 C   0  0  0  0  0  0  0  0  0  0  0  0
   41.0070   27.6400   42.3370 C   0  0  0  0  0  0  0  0  0  0  0  0
   40.1750   27.1600   43.4980 C   0  0  1  0  0  0  0  0  0  0  0  0
   38.7710   27.5210   43.1580 C   0  0  0  0  0  0  0  0  0  0  0  0
   39.4900   29.5840   42.8620 H   0  0  0  0  0  0  0  0  0  0  0  0
   40.4730   28.9840   40.7280 H   0  0  0  0  0  0  0  0  0  0  0  0
   39.5140   27.3980   40.7600 H   0  0  0  0  0  0  0  0  0  0  0  0
   41.5630   26.7780   41.9090 H   0  0  0  0  0  0  0  0  0  0  0  0
   41.6450   28.4460   42.7150 H   0  0  0  0  0  0  0  0  0  0  0  0
   40.4250   27.6440   44.4520 H   0  0  0  0  0  0  0  0  0  0  0  0
   38.2880   26.9160   42.3630 H   0  0  0  0  0  0  0  0  0  0  0  0
   38.1250   27.8150   43.9950 H   0  0  0  0  0  0  0  0  0  0  0  0
   35.5540   28.8310   40.7840 C   0  0  0  0  0  0  0  0  0  0  0  0
   36.7100   28.3180   41.3850 C   0  0  0  0  0  0  0  0  0  0  0  0
   37.7360   29.2190   41.6880 C   0  0  0  0  0  0  0  0  0  0  0  0
   37.5780   30.5650   41.3890 N   0  0  0  0  0  0  0  0  0  0  0  0
   36.4350   31.0020   40.8080 C   0  0  0  0  0  0  0  0  0  0  0  0
   35.4340   30.1440   40.5090 N   0  0  0  0  0  0  0  0  0  0  0  0
   34.8320   28.0440   40.5970 H   0  0  0  0  0  0  0  0  0  0  0  0
   36.8810   27.2890   41.6360 H   0  0  0  0  0  0  0  0  0  0  0  0
   36.3180   32.0420   40.5780 H   0  0  0  0  0  0  0  0  0  0  0  0
   40.1940   25.6710   43.6790 C   0  0  2  0  0  0  0  0  0  0  0  0
   41.0250   24.8830   42.7820 C   0  0  0  0  0  0  0  0  0  0  0  0
   39.5040   24.7280   42.8610 C   0  0  2  0  0  0  0  0  0  0  0  0
   40.3480   25.4440   44.7780 H   0  0  0  0  0  0  0  0  0  0  0  0
   41.6280   24.0280   43.2230 H   0  0  0  0  0  0  0  0  0  0  0  0
   41.2850   24.9730   41.7370 H   0  0  0  0  0  0  0  0  0  0  0  0
   39.1840   23.7730   43.3850 H   0  0  0  0  0  0  0  0  0  0  0  0
   38.6270   24.9790   41.6830 C   0  0  0  0  0  2  0  0  0  0  0  0
   37.1980   24.4570   41.9310 C   0  0  0  0  0  2  0  0  0  0  0  0
   36.4390   25.1900   41.6380 H   0  0  0  0  0  0  0  0  0  0  0  0
  1  6  1  1  0  0  0
  1  5  1  0  0  0  0
  2  1  1  0  0  0  0
  2  3  1  0  0  0  0
  3 10  1  0  0  0  0
  3  4  1  0  0  0  0
  4 23  1  0  0  0  0
  4 11  1  1  0  0  0
  5  4  1  0  0  0  0
  5 13  1  0  0  0  0
  7  2  1  0  0  0  0
  8  2  1  0  0  0  0
  9  3  1  0  0  0  0
 12  5  1  0  0  0  0
 14 15  1  0  0  0  0
 15 21  1  0  0  0  0
 15 16  2  0  0  0  0
 16  1  1  0  0  0  0
 17 16  1  0  0  0  0
 18 17  2  0  0  0  0
 19 14  2  0  0  0  0
 19 18  1  0  0  0  0
 20 14  1  0  0  0  0
 22 18  1  0  0  0  0
 23 26  1  1  0  0  0
 24 25  1  0  0  0  0
 24 27  1  0  0  0  0
 24 23  1  0  0  0  0
 25 29  1  1  0  0  0
 25 23  1  0  0  0  0
 28 24  1  0  0  0  0
 30 31  1  0  0  0  0
 30 25  1  0  0  0  0
 32 31  1  0  0  0  0
M  END
>  <minimizedAffinity>
-4.66813898

$$$$

 OpenBabel03252507533D

 32 34  0  0  1  0  0  0  0  0999 V2000
   38.4250   27.2690   42.0140 C   0  0  2  0  0  0  0  0  0  0  0  0
   37.8070   27.6150   43.3430 C   0  0  0  0  0  0  0  0  0  0  0  0
   37.9950   29.1430   43.2730 C   0  0  0  0  0  0  0  0  0  0  0  0
   37.7990   29.4940   41.8210 C   0  0  1  0  0  0  0  0  0  0  0  0
   37.5930   28.1950   41.1220 C   0  0  0  0  0  0  0  0  0  0  0  0
   39.4850   27.5290   42.0370 H   0  0  0  0  0  0  0  0  0  0  0  0
   38.3940   27.2200   44.1800 H   0  0  0  0  0  0  0  0  0  0  0  0
   36.7500   27.3490   43.3330 H   0  0  0  0  0  0  0  0  0  0  0  0
   37.2240   29.6680   43.8790 H   0  0  0  0  0  0  0  0  0  0  0  0
   39.0270   29.4070   43.5270 H   0  0  0  0  0  0  0  0  0  0  0  0
   38.6670   29.9880   41.3640 H   0  0  0  0  0  0  0  0  0  0  0  0
   36.6160   27.6970   41.2920 H   0  0  0  0  0  0  0  0  0  0  0  0
   38.0000   28.1160   40.1060 H   0  0  0  0  0  0  0  0  0  0  0  0
   38.9880   23.7100   40.8800 C   0  0  0  0  0  0  0  0  0  0  0  0
   39.2860   25.0260   41.2560 C   0  0  0  0  0  0  0  0  0  0  0  0
   38.2180   25.8540   41.6160 C   0  0  0  0  0  0  0  0  0  0  0  0
   36.9230   25.3550   41.5900 N   0  0  0  0  0  0  0  0  0  0  0  0
   36.6980   24.0720   41.2170 C   0  0  0  0  0  0  0  0  0  0  0  0
   37.7200   23.2590   40.8670 N   0  0  0  0  0  0  0  0  0  0  0  0
   39.8910   23.1670   40.6250 H   0  0  0  0  0  0  0  0  0  0  0  0
   40.2670   25.4600   41.2930 H   0  0  0  0  0  0  0  0  0  0  0  0
   35.6970   23.6910   41.1980 H   0  0  0  0  0  0  0  0  0  0  0  0
   36.5700   30.3120   41.5580 C   0  0  2  0  0  0  0  0  0  0  0  0
   35.8110   30.0360   40.3470 C   0  0  0  0  0  0  0  0  0  0  0  0
   36.4750   31.3870   40.6250 C   0  0  2  0  0  0  0  0  0  0  0  0
   35.9470   30.3400   42.5030 H   0  0  0  0  0  0  0  0  0  0  0  0
   34.6780   30.0240   40.4170 H   0  0  0  0  0  0  0  0  0  0  0  0
   36.0890   29.7420   39.3460 H   0  0  0  0  0  0  0  0  0  0  0  0
   35.7280   32.1990   40.8950 H   0  0  0  0  0  0  0  0  0  0  0  0
   37.5280   31.9440   39.7310 C   0  0  0  0  0  2  0  0  0  0  0  0
   37.3040   33.4470   39.4730 C   0  0  0  0  0  2  0  0  0  0  0  0
   38.2280   34.0230   39.5840 H   0  0  0  0  0  0  0  0  0  0  0  0
  1  6  1  6  0  0  0
  1  2  1  0  0  0  0
  2  7  1  0  0  0  0
  3  2  1  0  0  0  0
  3 10  1  0  0  0  0
  3  9  1  0  0  0  0
  4 11  1  6  0  0  0
  4  3  1  0  0  0  0
  5 12  1  0  0  0  0
  5  4  1  0  0  0  0
  5  1  1  0  0  0  0
  8  2  1  0  0  0  0
 13  5  1  0  0  0  0
 14 15  1  0  0  0  0
 15 21  1  0  0  0  0
 15 16  2  0  0  0  0
 16  1  1  0  0  0  0
 17 16  1  0  0  0  0
 18 17  2  0  0  0  0
 19 14  2  0  0  0  0
 19 18  1  0  0  0  0
 20 14  1  0  0  0  0
 22 18  1  0  0  0  0
 23  4  1  0  0  0  0
 23 26  1  1  0  0  0
 24 27  1  0  0  0  0
 24 25  1  0  0  0  0
 24 23  1  0  0  0  0
 25 29  1  1  0  0  0
 25 23  1  0  0  0  0
 28 24  1  0  0  0  0
 30 25  1  0  0  0  0
 31 32  1  0  0  0  0
 31 30  1  0  0  0  0
M  END
>  <minimizedAffinity>
-4.61613178

$$$$

 OpenBabel03252507533D

 32 34  0  0  1  0  0  0  0  0999 V2000
   39.5640   24.9360   41.5370 C   0  0  2  0  0  0  0  0  0  0  0  0
   39.5540   24.3800   42.9370 C   0  0  0  0  0  0  0  0  0  0  0  0
   39.9610   25.6680   43.6790 C   0  0  0  0  0  0  0  0  0  0  0  0
   39.3020   26.7850   42.9130 C   0  0  1  0  0  0  0  0  0  0  0  0
   38.6310   26.1320   41.7540 C   0  0  0  0  0  0  0  0  0  0  0  0
   40.5840   25.2260   41.2780 H   0  0  0  0  0  0  0  0  0  0  0  0
   40.3320   23.6230   43.0800 H   0  0  0  0  0  0  0  0  0  0  0  0
   38.5400   24.0790   43.2010 H   0  0  0  0  0  0  0  0  0  0  0  0
   39.5730   25.6670   44.7210 H   0  0  0  0  0  0  0  0  0  0  0  0
   41.0420   25.8220   43.6000 H   0  0  0  0  0  0  0  0  0  0  0  0
   40.0080   27.5270   42.5170 H   0  0  0  0  0  0  0  0  0  0  0  0
   37.7180   25.5450   41.9840 H   0  0  0  0  0  0  0  0  0  0  0  0
   38.6120   26.7000   40.8160 H   0  0  0  0  0  0  0  0  0  0  0  0
   37.4000   22.3730   39.8010 C   0  0  0  0  0  0  0  0  0  0  0  0
   37.8620   23.2260   40.8110 C   0  0  0  0  0  0  0  0  0  0  0  0
   38.9850   24.0120   40.5300 C   0  0  0  0  0  0  0  0  0  0  0  0
   39.5910   23.9240   39.2850 N   0  0  0  0  0  0  0  0  0  0  0  0
   39.0960   23.0800   38.3480 C   0  0  0  0  0  0  0  0  0  0  0  0
   38.0120   22.3130   38.6030 N   0  0  0  0  0  0  0  0  0  0  0  0
   36.5300   21.8180   40.1320 H   0  0  0  0  0  0  0  0  0  0  0  0
   37.4310   23.3320   41.7870 H   0  0  0  0  0  0  0  0  0  0  0  0
   39.5680   23.0140   37.3880 H   0  0  0  0  0  0  0  0  0  0  0  0
   38.2220   27.4900   43.6800 C   0  0  2  0  0  0  0  0  0  0  0  0
   36.8800   27.4970   43.1200 C   0  0  0  0  0  0  0  0  0  0  0  0
   37.6870   28.7740   43.3650 C   0  0  2  0  0  0  0  0  0  0  0  0
   38.2760   27.1600   44.7620 H   0  0  0  0  0  0  0  0  0  0  0  0
   36.0050   27.3270   43.8250 H   0  0  0  0  0  0  0  0  0  0  0  0
   36.4930   27.5490   42.1130 H   0  0  0  0  0  0  0  0  0  0  0  0
   37.3080   29.3720   44.2530 H   0  0  0  0  0  0  0  0  0  0  0  0
   38.0570   29.6940   42.2540 C   0  0  0  0  0  2  0  0  0  0  0  0
   39.3800   30.4270   42.5530 C   0  0  0  0  0  2  0  0  0  0  0  0
   40.0570   30.4140   41.6930 H   0  0  0  0  0  0  0  0  0  0  0  0
  1  6  1  6  0  0  0
  1  5  1  0  0  0  0
  1  2  1  0  0  0  0
  2  7  1  0  0  0  0
  2  8  1  0  0  0  0
  2  3  1  0  0  0  0
  3  9  1  0  0  0  0
  4 11  1  6  0  0  0
  4  3  1  0  0  0  0
  4 23  1  0  0  0  0
  5 12  1  0  0  0  0
  5  4  1  0  0  0  0
 10  3  1  0  0  0  0
 13  5  1  0  0  0  0
 14 20  1  0  0  0  0
 14 15  1  0  0  0  0
 15 21  1  0  0  0  0
 16 15  2  0  0  0  0
 16  1  1  0  0  0  0
 17 16  1  0  0  0  0
 18 19  1  0  0  0  0
 18 17  2  0  0  0  0
 19 14  2  0  0  0  0
 22 18  1  0  0  0  0
 23 26  1  1  0  0  0
 24 25  1  0  0  0  0
 24 23  1  0  0  0  0
 24 27  1  0  0  0  0
 25 23  1  0  0  0  0
 25 29  1  1  0  0  0
 28 24  1  0  0  0  0
 30 31  1  0  0  0  0
 30 25  1  0  0  0  0
 32 31  1  0  0  0  0
M  END
>  <minimizedAffinity>
-4.54469824

$$$$

 OpenBabel03252507533D

 32 34  0  0  1  0  0  0  0  0999 V2000
   37.0080   29.7210   40.1450 C   0  0  2  0  0  0  0  0  0  0  0  0
   38.2920   28.9340   40.1290 C   0  0  0  0  0  0  0  0  0  0  0  0
   38.7720   29.2830   41.5530 C   0  0  0  0  0  0  0  0  0  0  0  0
   37.5160   29.3600   42.3800 C   0  0  1  0  0  0  0  0  0  0  0  0
   36.3950   29.1410   41.4240 C   0  0  0  0  0  0  0  0  0  0  0  0
   37.2440   30.7840   40.2240 H   0  0  0  0  0  0  0  0  0  0  0  0
   39.0060   29.3350   39.4020 H   0  0  0  0  0  0  0  0  0  0  0  0
   38.0670   27.8710   40.0420 H   0  0  0  0  0  0  0  0  0  0  0  0
   39.4250   28.4810   41.9610 H   0  0  0  0  0  0  0  0  0  0  0  0
   39.2220   30.2810   41.5630 H   0  0  0  0  0  0  0  0  0  0  0  0
   37.3620   30.3360   42.8610 H   0  0  0  0  0  0  0  0  0  0  0  0
   36.2670   28.1050   41.0480 H   0  0  0  0  0  0  0  0  0  0  0  0
   35.4690   29.6970   41.6190 H   0  0  0  0  0  0  0  0  0  0  0  0
   34.0630   28.7510   37.9890 C   0  0  0  0  0  0  0  0  0  0  0  0
   34.8090   29.0050   39.1470 C   0  0  0  0  0  0  0  0  0  0  0  0
   36.1280   29.4400   38.9840 C   0  0  0  0  0  0  0  0  0  0  0  0
   36.6450   29.6020   37.7060 N   0  0  0  0  0  0  0  0  0  0  0  0
   35.8730   29.3400   36.6240 C   0  0  0  0  0  0  0  0  0  0  0  0
   34.5960   28.9200   36.7650 N   0  0  0  0  0  0  0  0  0  0  0  0
   33.0600   28.4220   38.2390 H   0  0  0  0  0  0  0  0  0  0  0  0
   34.4580   28.8960   40.1550 H   0  0  0  0  0  0  0  0  0  0  0  0
   36.2760   29.4660   35.6390 H   0  0  0  0  0  0  0  0  0  0  0  0
   37.4050   28.2780   43.4130 C   0  0  2  0  0  0  0  0  0  0  0  0
   38.5700   27.4410   43.6530 C   0  0  0  0  0  0  0  0  0  0  0  0
   37.2380   26.8880   43.1400 C   0  0  2  0  0  0  0  0  0  0  0  0
   36.9460   28.7190   44.3490 H   0  0  0  0  0  0  0  0  0  0  0  0
   38.8280   27.1790   44.7280 H   0  0  0  0  0  0  0  0  0  0  0  0
   39.3480   27.0470   43.0160 H   0  0  0  0  0  0  0  0  0  0  0  0
   36.6690   26.3030   43.9300 H   0  0  0  0  0  0  0  0  0  0  0  0
   37.1290   26.2000   41.8240 C   0  0  0  0  0  2  0  0  0  0  0  0
   36.8560   24.6930   42.0020 C   0  0  0  0  0  2  0  0  0  0  0  0
   36.0540   24.3420   41.3450 H   0  0  0  0  0  0  0  0  0  0  0  0
  1  6  1  1  0  0  0
  1  5  1  0  0  0  0
  2  1  1  0  0  0  0
  2  3  1  0  0  0  0
  3 10  1  0  0  0  0
  3  9  1  0  0  0  0
  3  4  1  0  0  0  0
  4 11  1  1  0  0  0
  4 23  1  0  0  0  0
  5 13  1  0  0  0  0
  5  4  1  0  0  0  0
  7  2  1  0  0  0  0
  8  2  1  0  0  0  0
 12  5  1  0  0  0  0
 14 20  1  0  0  0  0
 14 15  1  0  0  0  0
 15 21  1  0  0  0  0
 16 15  2  0  0  0  0
 16  1  1  0  0  0  0
 17 16  1  0  0  0  0
 18 19  1  0  0  0  0
 18 17  2  0  0  0  0
 19 14  2  0  0  0  0
 22 18  1  0  0  0  0
 23 24  1  0  0  0  0
 23 26  1  1  0  0  0
 24 27  1  0  0  0  0
 25 23  1  0  0  0  0
 25 24  1  0  0  0  0
 25 29  1  1  0  0  0
 28 24  1  0  0  0  0
 30 31  1  0  0  0  0
 30 25  1  0  0  0  0
 32 31  1  0  0  0  0
M  END
>  <minimizedAffinity>
-4.49841022

$$$$

 OpenBabel03252507533D

 32 34  0  0  1  0  0  0  0  0999 V2000
   37.5680   25.0370   40.5700 C   0  0  2  0  0  0  0  0  0  0  0  0
   37.7490   24.1090   41.7440 C   0  0  0  0  0  0  0  0  0  0  0  0
   38.7750   24.9550   42.5250 C   0  0  0  0  0  0  0  0  0  0  0  0
   38.3690   26.3850   42.2790 C   0  0  1  0  0  0  0  0  0  0  0  0
   37.2190   26.3170   41.3360 C   0  0  0  0  0  0  0  0  0  0  0  0
   38.5100   25.1050   40.0230 H   0  0  0  0  0  0  0  0  0  0  0  0
   38.2160   23.1640   41.4470 H   0  0  0  0  0  0  0  0  0  0  0  0
   36.8100   24.0280   42.2910 H   0  0  0  0  0  0  0  0  0  0  0  0
   38.7160   24.7450   43.6160 H   0  0  0  0  0  0  0  0  0  0  0  0
   39.7730   24.8280   42.0940 H   0  0  0  0  0  0  0  0  0  0  0  0
   39.1540   26.9930   41.8080 H   0  0  0  0  0  0  0  0  0  0  0  0
   36.2590   25.9570   41.7600 H   0  0  0  0  0  0  0  0  0  0  0  0
   37.1430   27.1240   40.5970 H   0  0  0  0  0  0  0  0  0  0  0  0
   34.6620   23.2060   39.0000 C   0  0  0  0  0  0  0  0  0  0  0  0
   35.6910   23.4940   39.9040 C   0  0  0  0  0  0  0  0  0  0  0  0
   36.4450   24.6510   39.6800 C   0  0  0  0  0  0  0  0  0  0  0  0
   36.1540   25.4590   38.5900 N   0  0  0  0  0  0  0  0  0  0  0  0
   35.1450   25.1280   37.7500 C   0  0  0  0  0  0  0  0  0  0  0  0
   34.4070   24.0130   37.9530 N   0  0  0  0  0  0  0  0  0  0  0  0
   34.1500   22.2900   39.2740 H   0  0  0  0  0  0  0  0  0  0  0  0
   35.9560   22.9030   40.7600 H   0  0  0  0  0  0  0  0  0  0  0  0
   34.9240   25.7540   36.9090 H   0  0  0  0  0  0  0  0  0  0  0  0
   37.8670   27.0900   43.5040 C   0  0  2  0  0  0  0  0  0  0  0  0
   36.4710   27.4960   43.5340 C   0  0  0  0  0  0  0  0  0  0  0  0
   37.6300   28.4920   43.6130 C   0  0  2  0  0  0  0  0  0  0  0  0
   38.2050   26.5110   44.4170 H   0  0  0  0  0  0  0  0  0  0  0  0
   35.8890   27.3440   44.4980 H   0  0  0  0  0  0  0  0  0  0  0  0
   35.7850   27.8610   42.7830 H   0  0  0  0  0  0  0  0  0  0  0  0
   37.7680   28.9280   44.6530 H   0  0  0  0  0  0  0  0  0  0  0  0
   37.8240   29.5550   42.5890 C   0  0  0  0  0  2  0  0  0  0  0  0
   39.2710   30.0880   42.6030 C   0  0  0  0  0  2  0  0  0  0  0  0
   39.6880   30.1620   41.5930 H   0  0  0  0  0  0  0  0  0  0  0  0
  1  6  1  6  0  0  0
  1  5  1  0  0  0  0
  1  2  1  0  0  0  0
  2  8  1  0  0  0  0
  2  3  1  0  0  0  0
  3  9  1  0  0  0  0
  4 11  1  6  0  0  0
  4  3  1  0  0  0  0
  4 23  1  0  0  0  0
  5 12  1  0  0  0  0
  5  4  1  0  0  0  0
  7  2  1  0  0  0  0
 10  3  1  0  0  0  0
 13  5  1  0  0  0  0
 14 20  1  0  0  0  0
 14 15  1  0  0  0  0
 15 21  1  0  0  0  0
 16 15  2  0  0  0  0
 16  1  1  0  0  0  0
 17 16  1  0  0  0  0
 18 19  1  0  0  0  0
 18 17  2  0  0  0  0
 19 14  2  0  0  0  0
 22 18  1  0  0  0  0
 23 24  1  0  0  0  0
 23 25  1  0  0  0  0
 23 26  1  1  0  0  0
 24 25  1  0  0  0  0
 24 27  1  0  0  0  0
 25 29  1  1  0  0  0
 28 24  1  0  0  0  0
 30 31  1  0  0  0  0
 30 25  1  0  0  0  0
 32 31  1  0  0  0  0
M  END
>  <minimizedAffinity>
-4.48181629

$$$$

 OpenBabel03252507533D

 32 34  0  0  1  0  0  0  0  0999 V2000
   39.8140   29.9000   41.9550 C   0  0  2  0  0  0  0  0  0  0  0  0
   39.8930   28.5660   41.2590 C   0  0  0  0  0  0  0  0  0  0  0  0
   39.5980   27.6730   42.4810 C   0  0  0  0  0  0  0  0  0  0  0  0
   38.6040   28.4510   43.3030 C   0  0  1  0  0  0  0  0  0  0  0  0
   38.4300   29.7490   42.5930 C   0  0  0  0  0  0  0  0  0  0  0  0
   40.6220   29.9660   42.6860 H   0  0  0  0  0  0  0  0  0  0  0  0
   40.9050   28.3540   40.8970 H   0  0  0  0  0  0  0  0  0  0  0  0
   39.0950   28.4940   40.5200 H   0  0  0  0  0  0  0  0  0  0  0  0
   39.1350   26.7110   42.1690 H   0  0  0  0  0  0  0  0  0  0  0  0
   40.4990   27.5630   43.0930 H   0  0  0  0  0  0  0  0  0  0  0  0
   38.9470   28.6690   44.3230 H   0  0  0  0  0  0  0  0  0  0  0  0
   37.8530   29.7160   41.6460 H   0  0  0  0  0  0  0  0  0  0  0  0
   38.2670   30.6330   43.2230 H   0  0  0  0  0  0  0  0  0  0  0  0
   39.0940   32.2200   39.0630 C   0  0  0  0  0  0  0  0  0  0  0  0
   39.0010   31.0950   39.8920 C   0  0  0  0  0  0  0  0  0  0  0  0
   39.8240   31.0540   41.0220 C   0  0  0  0  0  0  0  0  0  0  0  0
   40.6900   32.1080   41.2800 N   0  0  0  0  0  0  0  0  0  0  0  0
   40.7340   33.1700   40.4400 C   0  0  0  0  0  0  0  0  0  0  0  0
   39.9440   33.2250   39.3440 N   0  0  0  0  0  0  0  0  0  0  0  0
   38.4120   32.1400   38.2240 H   0  0  0  0  0  0  0  0  0  0  0  0
   38.3510   30.2560   39.7380 H   0  0  0  0  0  0  0  0  0  0  0  0
   41.4040   33.9810   40.6420 H   0  0  0  0  0  0  0  0  0  0  0  0
   37.2440   27.8200   43.3630 C   0  0  2  0  0  0  0  0  0  0  0  0
   37.0780   26.4980   42.7820 C   0  0  0  0  0  0  0  0  0  0  0  0
   36.3240   27.7300   42.2770 C   0  0  2  0  0  0  0  0  0  0  0  0
   36.8490   27.9190   44.4200 H   0  0  0  0  0  0  0  0  0  0  0  0
   36.4510   25.7380   43.3490 H   0  0  0  0  0  0  0  0  0  0  0  0
   37.5020   26.0050   41.9190 H   0  0  0  0  0  0  0  0  0  0  0  0
   35.2270   27.7270   42.5700 H   0  0  0  0  0  0  0  0  0  0  0  0
   36.4750   28.2260   40.8810 C   0  0  0  0  0  2  0  0  0  0  0  0
   35.3740   29.2460   40.5290 C   0  0  0  0  0  2  0  0  0  0  0  0
   35.7820   30.1330   40.0320 H   0  0  0  0  0  0  0  0  0  0  0  0
  1  5  1  0  0  0  0
  1  6  1  1  0  0  0
  2  1  1  0  0  0  0
  2  3  1  0  0  0  0
  3 10  1  0  0  0  0
  3  4  1  0  0  0  0
  4 23  1  0  0  0  0
  4 11  1  1  0  0  0
  5 13  1  0  0  0  0
  5  4  1  0  0  0  0
  7  2  1  0  0  0  0
  8  2  1  0  0  0  0
  9  3  1  0  0  0  0
 12  5  1  0  0  0  0
 14 19  2  0  0  0  0
 14 15  1  0  0  0  0
 15 16  2  0  0  0  0
 16 17  1  0  0  0  0
 16  1  1  0  0  0  0
 18 22  1  0  0  0  0
 18 17  2  0  0  0  0
 19 18  1  0  0  0  0
 20 14  1  0  0  0  0
 21 15  1  0  0  0  0
 23 26  1  1  0  0  0
 24 27  1  0  0  0  0
 24 23  1  0  0  0  0
 25 29  1  1  0  0  0
 25 24  1  0  0  0  0
 25 23  1  0  0  0  0
 28 24  1  0  0  0  0
 30 25  1  0  0  0  0
 31 30  1  0  0  0  0
 32 31  1  0  0  0  0
M  END
>  <minimizedAffinity>
-4.46641397

$$$$
