
 OpenBabel03252507533D

 32 34  0  0  1  0  0  0  0  0999 V2000
   46.6880   34.7100   41.9340 C   0  0  2  0  0  0  0  0  0  0  0  0
   45.8140   34.2170   40.8110 C   0  0  0  0  0  0  0  0  0  0  0  0
   46.9300   33.9130   39.7920 C   0  0  0  0  0  0  0  0  0  0  0  0
   48.0850   33.4090   40.6170 C   0  0  1  0  0  0  0  0  0  0  0  0
   47.6380   33.5130   42.0340 C   0  0  0  0  0  0  0  0  0  0  0  0
   47.1850   35.6300   41.6190 H   0  0  0  0  0  0  0  0  0  0  0  0
   45.1730   35.0120   40.4140 H   0  0  0  0  0  0  0  0  0  0  0  0
   45.3060   33.3030   41.1210 H   0  0  0  0  0  0  0  0  0  0  0  0
   46.6160   33.1150   39.0840 H   0  0  0  0  0  0  0  0  0  0  0  0
   47.2620   34.8390   39.3120 H   0  0  0  0  0  0  0  0  0  0  0  0
   49.0000   34.0060   40.5090 H   0  0  0  0  0  0  0  0  0  0  0  0
   46.8800   32.7730   42.3640 H   0  0  0  0  0  0  0  0  0  0  0  0
   48.4080   33.7720   42.7730 H   0  0  0  0  0  0  0  0  0  0  0  0
   44.4980   36.0900   44.6850 C   0  0  0  0  0  0  0  0  0  0  0  0
   45.1300   35.9970   43.4390 C   0  0  0  0  0  0  0  0  0  0  0  0
   45.9590   34.8930   43.2140 C   0  0  0  0  0  0  0  0  0  0  0  0
   46.1240   33.9440   44.2130 N   0  0  0  0  0  0  0  0  0  0  0  0
   45.4850   34.0890   45.3990 C   0  0  0  0  0  0  0  0  0  0  0  0
   44.6800   35.1500   45.6310 N   0  0  0  0  0  0  0  0  0  0  0  0
   43.8840   36.9820   44.7420 H   0  0  0  0  0  0  0  0  0  0  0  0
   45.0360   36.7020   42.6350 H   0  0  0  0  0  0  0  0  0  0  0  0
   45.6160   33.3540   46.1680 H   0  0  0  0  0  0  0  0  0  0  0  0
   48.4090   31.9630   40.3840 C   0  0  2  0  0  0  0  0  0  0  0  0
   48.5930   31.1080   41.5470 C   0  0  0  0  0  0  0  0  0  0  0  0
   49.6990   31.3710   40.5220 C   0  0  2  0  0  0  0  0  0  0  0  0
   47.6890   31.5530   39.6130 H   0  0  0  0  0  0  0  0  0  0  0  0
   48.1410   30.0670   41.5230 H   0  0  0  0  0  0  0  0  0  0  0  0
   49.0200   31.2660   42.5270 H   0  0  0  0  0  0  0  0  0  0  0  0
   49.8970   30.4790   39.8480 H   0  0  0  0  0  0  0  0  0  0  0  0
   50.9870   32.0150   40.9030 C   0  0  0  0  0  2  0  0  0  0  0  0
   51.0520   32.2750   42.4210 C   0  0  0  0  0  2  0  0  0  0  0  0
   52.0100   31.9610   42.8480 H   0  0  0  0  0  0  0  0  0  0  0  0
  1  6  1  6  0  0  0
  1  5  1  0  0  0  0
  1 16  1  0  0  0  0
  2  8  1  0  0  0  0
  2  1  1  0  0  0  0
  3  4  1  0  0  0  0
  3  2  1  0  0  0  0
  4 11  1  6  0  0  0
  4  5  1  0  0  0  0
  5 12  1  0  0  0  0
  5 13  1  0  0  0  0
  7  2  1  0  0  0  0
  9  3  1  0  0  0  0
 10  3  1  0  0  0  0
 14 20  1  0  0  0  0
 14 19  1  0  0  0  0
 15 14  2  0  0  0  0
 16 15  1  0  0  0  0
 16 17  2  0  0  0  0
 17 18  1  0  0  0  0
 18 19  2  0  0  0  0
 18 22  1  0  0  0  0
 21 15  1  0  0  0  0
 23 26  1  6  0  0  0
 23 25  1  0  0  0  0
 23  4  1  0  0  0  0
 23 24  1  0  0  0  0
 24 28  1  0  0  0  0
 25 29  1  6  0  0  0
 25 30  1  0  0  0  0
 25 24  1  0  0  0  0
 27 24  1  0  0  0  0
 30 31  1  0  0  0  0
 31 32  1  0  0  0  0
M  END
>  <minimizedAffinity>
-4.31633329

>  <minimizedRMSD>
1.3330251

$$$$
