
 OpenBabel03252507533D

 32 34  0  0  1  0  0  0  0  0999 V2000
   44.7740   34.0400   40.4830 C   0  0  2  0  0  0  0  0  0  0  0  0
   43.3030   34.3110   40.6570 C   0  0  0  0  0  0  0  0  0  0  0  0
   42.9230   34.3820   39.1640 C   0  0  0  0  0  0  0  0  0  0  0  0
   43.8020   33.3610   38.4890 C   0  0  1  0  0  0  0  0  0  0  0  0
   44.6790   32.8190   39.5640 C   0  0  0  0  0  0  0  0  0  0  0  0
   45.2410   34.9040   40.0060 H   0  0  0  0  0  0  0  0  0  0  0  0
   43.1210   35.2880   41.1190 H   0  0  0  0  0  0  0  0  0  0  0  0
   42.8300   33.4570   41.1420 H   0  0  0  0  0  0  0  0  0  0  0  0
   41.8580   34.1000   39.0100 H   0  0  0  0  0  0  0  0  0  0  0  0
   43.1960   35.3590   38.7530 H   0  0  0  0  0  0  0  0  0  0  0  0
   44.4490   33.7820   37.7080 H   0  0  0  0  0  0  0  0  0  0  0  0
   44.1940   32.1420   40.2960 H   0  0  0  0  0  0  0  0  0  0  0  0
   45.7040   32.5540   39.2720 H   0  0  0  0  0  0  0  0  0  0  0  0
   46.9120   34.1360   43.5950 C   0  0  0  0  0  0  0  0  0  0  0  0
   46.2960   34.5770   42.4180 C   0  0  0  0  0  0  0  0  0  0  0  0
   45.4610   33.6760   41.7470 C   0  0  0  0  0  0  0  0  0  0  0  0
   45.2760   32.4000   42.2600 N   0  0  0  0  0  0  0  0  0  0  0  0
   45.9000   32.0310   43.4040 C   0  0  0  0  0  0  0  0  0  0  0  0
   46.7090   32.8900   44.0640 N   0  0  0  0  0  0  0  0  0  0  0  0
   47.5310   34.9160   44.0240 H   0  0  0  0  0  0  0  0  0  0  0  0
   46.4060   35.5500   41.9800 H   0  0  0  0  0  0  0  0  0  0  0  0
   45.7550   31.0450   43.7960 H   0  0  0  0  0  0  0  0  0  0  0  0
   43.0490   32.1900   37.9300 C   0  0  2  0  0  0  0  0  0  0  0  0
   43.2570   30.8880   38.5440 C   0  0  0  0  0  0  0  0  0  0  0  0
   43.5960   31.1840   37.0810 C   0  0  2  0  0  0  0  0  0  0  0  0
   41.9620   32.4840   37.8150 H   0  0  0  0  0  0  0  0  0  0  0  0
   42.3510   30.2250   38.7120 H   0  0  0  0  0  0  0  0  0  0  0  0
   44.1160   30.4000   38.9800 H   0  0  0  0  0  0  0  0  0  0  0  0
   42.8630   30.7120   36.3540 H   0  0  0  0  0  0  0  0  0  0  0  0
   44.9840   31.0580   36.5550 C   0  0  0  0  0  2  0  0  0  0  0  0
   45.2340   32.0430   35.3960 C   0  0  0  0  0  2  0  0  0  0  0  0
   46.1870   32.5740   35.5090 H   0  0  0  0  0  0  0  0  0  0  0  0
  1  6  1  6  0  0  0
  1  2  1  0  0  0  0
  1 16  1  0  0  0  0
  2  7  1  0  0  0  0
  2  8  1  0  0  0  0
  3  2  1  0  0  0  0
  4 11  1  6  0  0  0
  4  3  1  0  0  0  0
  4  5  1  0  0  0  0
  5 12  1  0  0  0  0
  5  1  1  0  0  0  0
  9  3  1  0  0  0  0
 10  3  1  0  0  0  0
 13  5  1  0  0  0  0
 14 20  1  0  0  0  0
 14 19  1  0  0  0  0
 15 14  2  0  0  0  0
 16 17  2  0  0  0  0
 16 15  1  0  0  0  0
 17 18  1  0  0  0  0
 18 22  1  0  0  0  0
 18 19  2  0  0  0  0
 21 15  1  0  0  0  0
 23 26  1  6  0  0  0
 23  4  1  0  0  0  0
 23 24  1  0  0  0  0
 24 27  1  0  0  0  0
 24 28  1  0  0  0  0
 25 29  1  6  0  0  0
 25 23  1  0  0  0  0
 25 24  1  0  0  0  0
 30 25  1  0  0  0  0
 31 32  1  0  0  0  0
 31 30  1  0  0  0  0
M  END
>  <minimizedAffinity>
-2.78775859

>  <minimizedRMSD>
5.80264854

$$$$
