
 OpenBabel03242519003D

 29 31  0  0  1  0  0  0  0  0999 V2000
   35.8780   29.6690   39.7270 C   0  0  1  0  0  0  0  0  0  0  0  0
   35.9120   28.3340   39.2700 C   0  0  0  0  0  0  0  0  0  0  0  0
   35.6980   28.5760   40.6560 C   0  0  1  0  0  0  0  0  0  0  0  0
   35.0010   30.3910   39.7020 H   0  0  0  0  0  0  0  0  0  0  0  0
   35.2790   28.3900   38.3540 H   0  0  0  0  0  0  0  0  0  0  0  0
   35.8670   27.2680   39.3180 H   0  0  0  0  0  0  0  0  0  0  0  0
   34.7070   28.7020   41.2060 H   0  0  0  0  0  0  0  0  0  0  0  0
   36.7000   28.1530   41.6190 C   0  0  0  0  0  0  0  0  0  0  0  0
   37.1880   29.0080   42.5850 C   0  0  0  0  0  0  0  0  0  0  0  0
   38.1190   28.6800   43.5200 C   0  0  0  0  0  0  0  0  0  0  0  0
   38.6190   27.4320   43.5240 C   0  0  0  0  0  0  0  0  0  0  0  0
   38.1890   26.5320   42.6010 C   0  0  0  0  0  0  0  0  0  0  0  0
   37.2320   26.8830   41.6450 C   0  0  0  0  0  0  0  0  0  0  0  0
   36.8130   30.0450   42.6180 H   0  0  0  0  0  0  0  0  0  0  0  0
   38.4520   29.4150   44.2450 H   0  0  0  0  0  0  0  0  0  0  0  0
   39.3630   27.1850   44.2760 H   0  0  0  0  0  0  0  0  0  0  0  0
   38.6540   25.5380   42.6830 H   0  0  0  0  0  0  0  0  0  0  0  0
   36.8960   25.7990   40.7200 C   0  0  0  0  0  2  0  0  0  0  0  0
   36.8150   24.4380   41.4730 C   0  0  0  0  0  2  0  0  0  0  0  0
   37.5690   24.3990   42.2750 H   0  0  0  0  0  0  0  0  0  0  0  0
   37.0710   30.5500   39.6970 C   0  0  0  0  0  0  0  0  0  0  0  0
   36.9360   31.8260   40.3470 C   0  0  0  0  0  0  0  0  0  0  0  0
   38.0520   32.6380   40.3460 C   0  0  0  0  0  0  0  0  0  0  0  0
   39.1750   32.1760   39.7400 N   0  0  0  0  0  0  0  0  0  0  0  0
   39.2500   30.9540   39.1340 C   0  0  0  0  0  0  0  0  0  0  0  0
   38.1980   30.1100   39.0960 N   0  0  0  0  0  0  0  0  0  0  0  0
   36.0100   32.0950   40.7920 H   0  0  0  0  0  0  0  0  0  0  0  0
   37.9900   33.5870   40.8140 H   0  0  0  0  0  0  0  0  0  0  0  0
   40.1690   30.6190   38.6580 H   0  0  0  0  0  0  0  0  0  0  0  0
  1  4  1  6  0  0  0
  1  3  1  0  0  0  0
  2  6  1  0  0  0  0
  2  1  1  0  0  0  0
  2  3  1  0  0  0  0
  3  7  1  1  0  0  0
  3  8  1  0  0  0  0
  5  2  1  0  0  0  0
  8 13  2  0  0  0  0
  8  9  1  0  0  0  0
  9 14  1  0  0  0  0
  9 10  2  0  0  0  0
 10 11  1  0  0  0  0
 10 15  1  0  0  0  0
 11 16  1  0  0  0  0
 12 17  1  0  0  0  0
 12 11  2  0  0  0  0
 13 12  1  0  0  0  0
 18 19  1  0  0  0  0
 18 13  1  0  0  0  0
 19 20  1  0  0  0  0
 21  1  1  0  0  0  0
 21 22  1  0  0  0  0
 22 27  1  0  0  0  0
 23 22  2  0  0  0  0
 23 28  1  0  0  0  0
 24 23  1  0  0  0  0
 25 24  2  0  0  0  0
 26 25  1  0  0  0  0
 26 21  2  0  0  0  0
 29 25  1  0  0  0  0
M  END
>  <minimizedAffinity>
-5.07862473

$$$$

 OpenBabel03242519003D

 29 31  0  0  1  0  0  0  0  0999 V2000
   38.6170   27.5580   43.6790 C   0  0  1  0  0  0  0  0  0  0  0  0
   37.9420   28.5790   42.9760 C   0  0  0  0  0  0  0  0  0  0  0  0
   37.2930   27.3240   43.1500 C   0  0  1  0  0  0  0  0  0  0  0  0
   38.6870   27.4170   44.8040 H   0  0  0  0  0  0  0  0  0  0  0  0
   38.1290   29.4650   43.6250 H   0  0  0  0  0  0  0  0  0  0  0  0
   37.1550   29.0560   42.4340 H   0  0  0  0  0  0  0  0  0  0  0  0
   36.5960   27.0010   43.9930 H   0  0  0  0  0  0  0  0  0  0  0  0
   37.0140   26.4960   41.9890 C   0  0  0  0  0  0  0  0  0  0  0  0
   36.9870   25.1190   42.0670 C   0  0  0  0  0  0  0  0  0  0  0  0
   36.7280   24.2830   41.0280 C   0  0  0  0  0  0  0  0  0  0  0  0
   36.4760   24.8140   39.8190 C   0  0  0  0  0  0  0  0  0  0  0  0
   36.4870   26.1640   39.6610 C   0  0  0  0  0  0  0  0  0  0  0  0
   36.7560   27.0120   40.7400 C   0  0  0  0  0  0  0  0  0  0  0  0
   37.1940   24.6360   43.0380 H   0  0  0  0  0  0  0  0  0  0  0  0
   36.7290   23.2080   41.1740 H   0  0  0  0  0  0  0  0  0  0  0  0
   36.2730   24.1330   38.9970 H   0  0  0  0  0  0  0  0  0  0  0  0
   36.2690   26.5050   38.6380 H   0  0  0  0  0  0  0  0  0  0  0  0
   36.7420   28.4340   40.3900 C   0  0  0  0  0  2  0  0  0  0  0  0
   35.2870   28.9860   40.3870 C   0  0  0  0  0  2  0  0  0  0  0  0
   34.5870   28.2200   40.0200 H   0  0  0  0  0  0  0  0  0  0  0  0
   39.8480   26.9150   43.1590 C   0  0  0  0  0  0  0  0  0  0  0  0
   40.5550   27.6330   42.1320 C   0  0  0  0  0  0  0  0  0  0  0  0
   41.7170   27.0520   41.6640 C   0  0  0  0  0  0  0  0  0  0  0  0
   42.0970   25.8650   42.2020 N   0  0  0  0  0  0  0  0  0  0  0  0
   41.3870   25.2240   43.1770 C   0  0  0  0  0  0  0  0  0  0  0  0
   40.2430   25.7330   43.6790 N   0  0  0  0  0  0  0  0  0  0  0  0
   40.1720   28.5570   41.7760 H   0  0  0  0  0  0  0  0  0  0  0  0
   42.2630   27.5500   40.9050 H   0  0  0  0  0  0  0  0  0  0  0  0
   41.7250   24.2720   43.5830 H   0  0  0  0  0  0  0  0  0  0  0  0
  1  4  1  1  0  0  0
  2  3  1  0  0  0  0
  2  5  1  0  0  0  0
  2  1  1  0  0  0  0
  3  1  1  0  0  0  0
  3  7  1  1  0  0  0
  6  2  1  0  0  0  0
  8  9  1  0  0  0  0
  8  3  1  0  0  0  0
  9 14  1  0  0  0  0
 10 15  1  0  0  0  0
 10  9  2  0  0  0  0
 11 10  1  0  0  0  0
 12 11  2  0  0  0  0
 12 13  1  0  0  0  0
 13  8  2  0  0  0  0
 16 11  1  0  0  0  0
 17 12  1  0  0  0  0
 18 13  1  0  0  0  0
 19 18  1  0  0  0  0
 20 19  1  0  0  0  0
 21 26  1  0  0  0  0
 21  1  1  0  0  0  0
 22 21  2  0  0  0  0
 23 22  1  0  0  0  0
 23 24  2  0  0  0  0
 24 25  1  0  0  0  0
 25 29  1  0  0  0  0
 25 26  2  0  0  0  0
 27 22  1  0  0  0  0
 28 23  1  0  0  0  0
M  END
>  <minimizedAffinity>
-4.91846418

$$$$

 OpenBabel03242519003D

 29 31  0  0  1  0  0  0  0  0999 V2000
   37.5170   28.4640   42.8660 C   0  0  1  0  0  0  0  0  0  0  0  0
   36.6590   27.6920   43.6800 C   0  0  0  0  0  0  0  0  0  0  0  0
   37.9380   27.1660   43.3420 C   0  0  1  0  0  0  0  0  0  0  0  0
   38.2050   29.3090   43.1860 H   0  0  0  0  0  0  0  0  0  0  0  0
   36.2870   28.4520   44.4050 H   0  0  0  0  0  0  0  0  0  0  0  0
   36.3340   26.8660   44.2730 H   0  0  0  0  0  0  0  0  0  0  0  0
   38.9180   27.2690   43.9160 H   0  0  0  0  0  0  0  0  0  0  0  0
   38.0250   25.9810   42.5050 C   0  0  0  0  0  0  0  0  0  0  0  0
   36.9150   25.2190   42.2050 C   0  0  0  0  0  0  0  0  0  0  0  0
   36.9200   24.1050   41.4270 C   0  0  0  0  0  0  0  0  0  0  0  0
   38.0840   23.6930   40.8960 C   0  0  0  0  0  0  0  0  0  0  0  0
   39.2230   24.3910   41.1480 C   0  0  0  0  0  0  0  0  0  0  0  0
   39.2030   25.5340   41.9510 C   0  0  0  0  0  0  0  0  0  0  0  0
   35.9370   25.5140   42.6230 H   0  0  0  0  0  0  0  0  0  0  0  0
   36.0000   23.5590   41.2420 H   0  0  0  0  0  0  0  0  0  0  0  0
   38.0730   22.8000   40.2770 H   0  0  0  0  0  0  0  0  0  0  0  0
   40.1250   23.9780   40.6700 H   0  0  0  0  0  0  0  0  0  0  0  0
   40.5180   26.1520   42.1300 C   0  0  0  0  0  2  0  0  0  0  0  0
   41.5200   25.1420   42.7620 C   0  0  0  0  0  2  0  0  0  0  0  0
   41.0040   24.4920   43.4850 H   0  0  0  0  0  0  0  0  0  0  0  0
   37.2040   28.7720   41.4490 C   0  0  0  0  0  0  0  0  0  0  0  0
   35.8140   28.7250   41.0800 C   0  0  0  0  0  0  0  0  0  0  0  0
   35.5150   29.0380   39.7690 C   0  0  0  0  0  0  0  0  0  0  0  0
   36.5410   29.3600   38.9410 N   0  0  0  0  0  0  0  0  0  0  0  0
   37.8460   29.3890   39.3430 C   0  0  0  0  0  0  0  0  0  0  0  0
   38.2110   29.0940   40.6080 N   0  0  0  0  0  0  0  0  0  0  0  0
   35.0850   28.4580   41.8050 H   0  0  0  0  0  0  0  0  0  0  0  0
   34.5020   29.0110   39.4600 H   0  0  0  0  0  0  0  0  0  0  0  0
   38.6410   29.6530   38.6490 H   0  0  0  0  0  0  0  0  0  0  0  0
  1  4  1  1  0  0  0
  1  3  1  0  0  0  0
  1  2  1  0  0  0  0
  2  6  1  0  0  0  0
  2  5  1  0  0  0  0
  3  2  1  0  0  0  0
  3  7  1  1  0  0  0
  8  3  1  0  0  0  0
  9  8  1  0  0  0  0
  9 14  1  0  0  0  0
 10  9  2  0  0  0  0
 11 12  2  0  0  0  0
 11 10  1  0  0  0  0
 12 13  1  0  0  0  0
 13 18  1  0  0  0  0
 13  8  2  0  0  0  0
 15 10  1  0  0  0  0
 16 11  1  0  0  0  0
 17 12  1  0  0  0  0
 18 19  1  0  0  0  0
 19 20  1  0  0  0  0
 21  1  1  0  0  0  0
 22 21  1  0  0  0  0
 22 27  1  0  0  0  0
 23 22  2  0  0  0  0
 24 25  2  0  0  0  0
 24 23  1  0  0  0  0
 25 26  1  0  0  0  0
 26 21  2  0  0  0  0
 28 23  1  0  0  0  0
 29 25  1  0  0  0  0
M  END
>  <minimizedAffinity>
-4.85604286

$$$$

 OpenBabel03242519003D

 29 31  0  0  1  0  0  0  0  0999 V2000
   36.5650   27.8590   42.3180 C   0  0  1  0  0  0  0  0  0  0  0  0
   36.5730   27.2450   43.5900 C   0  0  0  0  0  0  0  0  0  0  0  0
   37.4950   28.2990   43.3340 C   0  0  1  0  0  0  0  0  0  0  0  0
   35.8760   28.6830   41.9480 H   0  0  0  0  0  0  0  0  0  0  0  0
   35.4850   27.1910   43.8240 H   0  0  0  0  0  0  0  0  0  0  0  0
   36.8700   27.0580   44.5980 H   0  0  0  0  0  0  0  0  0  0  0  0
   37.3590   29.4170   43.5180 H   0  0  0  0  0  0  0  0  0  0  0  0
   38.9190   28.0130   43.3120 C   0  0  0  0  0  0  0  0  0  0  0  0
   39.4200   26.7820   43.6800 C   0  0  0  0  0  0  0  0  0  0  0  0
   40.7360   26.4420   43.6780 C   0  0  0  0  0  0  0  0  0  0  0  0
   41.6400   27.3590   43.2920 C   0  0  0  0  0  0  0  0  0  0  0  0
   41.2240   28.5980   42.9170 C   0  0  0  0  0  0  0  0  0  0  0  0
   39.8670   28.9340   42.9250 C   0  0  0  0  0  0  0  0  0  0  0  0
   38.7170   25.9980   44.0100 H   0  0  0  0  0  0  0  0  0  0  0  0
   41.0480   25.4490   43.9860 H   0  0  0  0  0  0  0  0  0  0  0  0
   42.6890   27.0740   43.2980 H   0  0  0  0  0  0  0  0  0  0  0  0
   42.0350   29.2790   42.6180 H   0  0  0  0  0  0  0  0  0  0  0  0
   39.5980   30.3110   42.5070 C   0  0  0  0  0  2  0  0  0  0  0  0
   39.5470   30.4160   40.9550 C   0  0  0  0  0  2  0  0  0  0  0  0
   40.2780   29.7290   40.5000 H   0  0  0  0  0  0  0  0  0  0  0  0
   36.9580   27.1370   41.0840 C   0  0  0  0  0  0  0  0  0  0  0  0
   36.9540   25.7000   41.1600 C   0  0  0  0  0  0  0  0  0  0  0  0
   37.2920   25.0220   40.0050 C   0  0  0  0  0  0  0  0  0  0  0  0
   37.5990   25.7540   38.9040 N   0  0  0  0  0  0  0  0  0  0  0  0
   37.5890   27.1190   38.8860 C   0  0  0  0  0  0  0  0  0  0  0  0
   37.2690   27.8460   39.9770 N   0  0  0  0  0  0  0  0  0  0  0  0
   36.7000   25.2210   42.0730 H   0  0  0  0  0  0  0  0  0  0  0  0
   37.3020   23.9630   40.0240 H   0  0  0  0  0  0  0  0  0  0  0  0
   37.8410   27.6710   37.9820 H   0  0  0  0  0  0  0  0  0  0  0  0
  1  4  1  6  0  0  0
  1  3  1  0  0  0  0
  1  2  1  0  0  0  0
  2  5  1  0  0  0  0
  2  6  1  0  0  0  0
  3  7  1  1  0  0  0
  3  2  1  0  0  0  0
  8  3  1  0  0  0  0
  8  9  1  0  0  0  0
  9 14  1  0  0  0  0
 10  9  2  0  0  0  0
 10 15  1  0  0  0  0
 11 16  1  0  0  0  0
 11 10  1  0  0  0  0
 12 13  1  0  0  0  0
 12 11  2  0  0  0  0
 13  8  2  0  0  0  0
 17 12  1  0  0  0  0
 18 13  1  0  0  0  0
 19 18  1  0  0  0  0
 20 19  1  0  0  0  0
 21 22  1  0  0  0  0
 21  1  1  0  0  0  0
 22 27  1  0  0  0  0
 23 28  1  0  0  0  0
 23 22  2  0  0  0  0
 24 23  1  0  0  0  0
 25 24  2  0  0  0  0
 25 26  1  0  0  0  0
 26 21  2  0  0  0  0
 29 25  1  0  0  0  0
M  END
>  <minimizedAffinity>
-4.75106239

$$$$

 OpenBabel03242519003D

 29 31  0  0  1  0  0  0  0  0999 V2000
   37.1680   28.6150   43.2200 C   0  0  1  0  0  0  0  0  0  0  0  0
   36.5370   27.4000   43.5640 C   0  0  0  0  0  0  0  0  0  0  0  0
   37.9530   27.4910   43.6790 C   0  0  1  0  0  0  0  0  0  0  0  0
   37.2870   29.5440   43.8630 H   0  0  0  0  0  0  0  0  0  0  0  0
   35.6730   27.7550   44.1720 H   0  0  0  0  0  0  0  0  0  0  0  0
   36.4470   26.3900   43.9010 H   0  0  0  0  0  0  0  0  0  0  0  0
   38.5690   27.8020   44.5880 H   0  0  0  0  0  0  0  0  0  0  0  0
   38.7940   26.6790   42.8170 C   0  0  0  0  0  0  0  0  0  0  0  0
   40.1140   26.9990   42.5770 C   0  0  0  0  0  0  0  0  0  0  0  0
   40.9610   26.2850   41.7900 C   0  0  0  0  0  0  0  0  0  0  0  0
   40.4990   25.1750   41.1860 C   0  0  0  0  0  0  0  0  0  0  0  0
   39.2080   24.7950   41.3720 C   0  0  0  0  0  0  0  0  0  0  0  0
   38.3490   25.5410   42.1840 C   0  0  0  0  0  0  0  0  0  0  0  0
   40.5360   27.9040   43.0460 H   0  0  0  0  0  0  0  0  0  0  0  0
   41.9870   26.6080   41.6500 H   0  0  0  0  0  0  0  0  0  0  0  0
   41.1870   24.6150   40.5580 H   0  0  0  0  0  0  0  0  0  0  0  0
   38.9220   23.8760   40.8390 H   0  0  0  0  0  0  0  0  0  0  0  0
   36.9910   24.9980   42.2610 C   0  0  0  0  0  2  0  0  0  0  0  0
   36.6030   24.2930   40.9280 C   0  0  0  0  0  2  0  0  0  0  0  0
   37.0430   24.8270   40.0710 H   0  0  0  0  0  0  0  0  0  0  0  0
   37.1880   29.1340   41.8310 C   0  0  0  0  0  0  0  0  0  0  0  0
   38.1360   30.1810   41.5570 C   0  0  0  0  0  0  0  0  0  0  0  0
   38.1790   30.6470   40.2580 C   0  0  0  0  0  0  0  0  0  0  0  0
   37.3340   30.0900   39.3530 N   0  0  0  0  0  0  0  0  0  0  0  0
   36.4510   29.0970   39.6660 C   0  0  0  0  0  0  0  0  0  0  0  0
   36.3550   28.5940   40.9150 N   0  0  0  0  0  0  0  0  0  0  0  0
   38.7530   30.5510   42.3370 H   0  0  0  0  0  0  0  0  0  0  0  0
   38.8630   31.4210   40.0190 H   0  0  0  0  0  0  0  0  0  0  0  0
   35.7890   28.6750   38.9120 H   0  0  0  0  0  0  0  0  0  0  0  0
  1  2  1  0  0  0  0
  1  3  1  0  0  0  0
  1  4  1  1  0  0  0
  2  3  1  0  0  0  0
  2  6  1  0  0  0  0
  2  5  1  0  0  0  0
  3  7  1  1  0  0  0
  8  3  1  0  0  0  0
  9  8  1  0  0  0  0
  9 14  1  0  0  0  0
 10  9  2  0  0  0  0
 11 12  2  0  0  0  0
 11 10  1  0  0  0  0
 12 13  1  0  0  0  0
 13 18  1  0  0  0  0
 13  8  2  0  0  0  0
 15 10  1  0  0  0  0
 16 11  1  0  0  0  0
 17 12  1  0  0  0  0
 19 18  1  0  0  0  0
 20 19  1  0  0  0  0
 21  1  1  0  0  0  0
 22 21  1  0  0  0  0
 22 27  1  0  0  0  0
 23 22  2  0  0  0  0
 24 25  2  0  0  0  0
 24 23  1  0  0  0  0
 25 26  1  0  0  0  0
 26 21  2  0  0  0  0
 28 23  1  0  0  0  0
 29 25  1  0  0  0  0
M  END
>  <minimizedAffinity>
-4.71889782

$$$$

 OpenBabel03242519003D

 29 31  0  0  1  0  0  0  0  0999 V2000
   38.0220   27.4240   43.6790 C   0  0  1  0  0  0  0  0  0  0  0  0
   37.3200   28.5790   43.2690 C   0  0  0  0  0  0  0  0  0  0  0  0
   36.8720   27.3080   42.8110 C   0  0  1  0  0  0  0  0  0  0  0  0
   37.9110   26.8530   44.6550 H   0  0  0  0  0  0  0  0  0  0  0  0
   37.2350   29.1460   44.2250 H   0  0  0  0  0  0  0  0  0  0  0  0
   36.5740   29.1630   42.7760 H   0  0  0  0  0  0  0  0  0  0  0  0
   36.1010   26.6160   43.2880 H   0  0  0  0  0  0  0  0  0  0  0  0
   36.9510   26.9900   41.3950 C   0  0  0  0  0  0  0  0  0  0  0  0
   37.0150   27.9750   40.4310 C   0  0  0  0  0  0  0  0  0  0  0  0
   37.0960   27.7530   39.0920 C   0  0  0  0  0  0  0  0  0  0  0  0
   37.1170   26.4840   38.6480 C   0  0  0  0  0  0  0  0  0  0  0  0
   37.0550   25.4590   39.5370 C   0  0  0  0  0  0  0  0  0  0  0  0
   36.9710   25.7020   40.9110 C   0  0  0  0  0  0  0  0  0  0  0  0
   36.9950   29.0320   40.7470 H   0  0  0  0  0  0  0  0  0  0  0  0
   37.1400   28.5870   38.3990 H   0  0  0  0  0  0  0  0  0  0  0  0
   37.1800   26.3220   37.5750 H   0  0  0  0  0  0  0  0  0  0  0  0
   37.0780   24.4580   39.0800 H   0  0  0  0  0  0  0  0  0  0  0  0
   36.8960   24.4850   41.7220 C   0  0  0  0  0  2  0  0  0  0  0  0
   37.6750   23.3210   41.0410 C   0  0  0  0  0  2  0  0  0  0  0  0
   37.5720   23.3810   39.9460 H   0  0  0  0  0  0  0  0  0  0  0  0
   39.4170   27.1500   43.2580 C   0  0  0  0  0  0  0  0  0  0  0  0
   39.8890   25.8050   43.4550 C   0  0  0  0  0  0  0  0  0  0  0  0
   41.1770   25.5380   43.0380 C   0  0  0  0  0  0  0  0  0  0  0  0
   41.8900   26.5510   42.4820 N   0  0  0  0  0  0  0  0  0  0  0  0
   41.3940   27.8130   42.3180 C   0  0  0  0  0  0  0  0  0  0  0  0
   40.1440   28.1450   42.7030 N   0  0  0  0  0  0  0  0  0  0  0  0
   39.2510   25.0840   43.9030 H   0  0  0  0  0  0  0  0  0  0  0  0
   41.5600   24.5590   43.1700 H   0  0  0  0  0  0  0  0  0  0  0  0
   41.9970   28.5990   41.8670 H   0  0  0  0  0  0  0  0  0  0  0  0
  1  4  1  1  0  0  0
  2  1  1  0  0  0  0
  2  5  1  0  0  0  0
  3  2  1  0  0  0  0
  3  7  1  1  0  0  0
  3  1  1  0  0  0  0
  6  2  1  0  0  0  0
  8  3  1  0  0  0  0
  9 14  1  0  0  0  0
  9  8  2  0  0  0  0
 10  9  1  0  0  0  0
 11 10  2  0  0  0  0
 11 12  1  0  0  0  0
 12 13  2  0  0  0  0
 13  8  1  0  0  0  0
 13 18  1  0  0  0  0
 15 10  1  0  0  0  0
 16 11  1  0  0  0  0
 17 12  1  0  0  0  0
 19 18  1  0  0  0  0
 20 19  1  0  0  0  0
 21 22  1  0  0  0  0
 21  1  1  0  0  0  0
 22 27  1  0  0  0  0
 23 28  1  0  0  0  0
 23 22  2  0  0  0  0
 24 23  1  0  0  0  0
 25 24  2  0  0  0  0
 25 26  1  0  0  0  0
 26 21  2  0  0  0  0
 29 25  1  0  0  0  0
M  END
>  <minimizedAffinity>
-4.69732618

$$$$

 OpenBabel03242519003D

 29 31  0  0  1  0  0  0  0  0999 V2000
   35.7850   30.1420   40.2600 C   0  0  1  0  0  0  0  0  0  0  0  0
   34.8600   29.3190   39.5820 C   0  0  0  0  0  0  0  0  0  0  0  0
   35.4420   28.8430   40.7910 C   0  0  1  0  0  0  0  0  0  0  0  0
   35.5630   30.9970   40.9750 H   0  0  0  0  0  0  0  0  0  0  0  0
   34.0520   30.0430   39.3300 H   0  0  0  0  0  0  0  0  0  0  0  0
   34.2490   28.4640   39.3900 H   0  0  0  0  0  0  0  0  0  0  0  0
   35.0500   28.9560   41.8570 H   0  0  0  0  0  0  0  0  0  0  0  0
   36.3250   27.6890   40.7540 C   0  0  0  0  0  0  0  0  0  0  0  0
   36.5360   26.9720   39.5950 C   0  0  0  0  0  0  0  0  0  0  0  0
   37.3500   25.8900   39.4830 C   0  0  0  0  0  0  0  0  0  0  0  0
   38.0110   25.4630   40.5740 C   0  0  0  0  0  0  0  0  0  0  0  0
   37.8530   26.1170   41.7550 C   0  0  0  0  0  0  0  0  0  0  0  0
   37.0110   27.2290   41.8550 C   0  0  0  0  0  0  0  0  0  0  0  0
   36.0110   27.2800   38.6750 H   0  0  0  0  0  0  0  0  0  0  0  0
   37.4590   25.3790   38.5320 H   0  0  0  0  0  0  0  0  0  0  0  0
   38.6570   24.5950   40.4710 H   0  0  0  0  0  0  0  0  0  0  0  0
   38.4340   25.6970   42.5900 H   0  0  0  0  0  0  0  0  0  0  0  0
   36.9460   27.8000   43.2010 C   0  0  0  0  0  2  0  0  0  0  0  0
   38.1140   28.8040   43.4310 C   0  0  0  0  0  2  0  0  0  0  0  0
   39.0230   28.4580   42.9150 H   0  0  0  0  0  0  0  0  0  0  0  0
   37.1100   30.4860   39.6890 C   0  0  0  0  0  0  0  0  0  0  0  0
   37.2350   30.3740   38.2600 C   0  0  0  0  0  0  0  0  0  0  0  0
   38.4580   30.7200   37.7210 C   0  0  0  0  0  0  0  0  0  0  0  0
   39.4340   31.1330   38.5680 N   0  0  0  0  0  0  0  0  0  0  0  0
   39.2630   31.2210   39.9200 C   0  0  0  0  0  0  0  0  0  0  0  0
   38.0960   30.8980   40.5150 N   0  0  0  0  0  0  0  0  0  0  0  0
   36.4090   30.0380   37.6840 H   0  0  0  0  0  0  0  0  0  0  0  0
   38.5880   30.6470   36.6710 H   0  0  0  0  0  0  0  0  0  0  0  0
   40.0710   31.5560   40.5680 H   0  0  0  0  0  0  0  0  0  0  0  0
  1  3  1  0  0  0  0
  1  4  1  1  0  0  0
  2  1  1  0  0  0  0
  2  3  1  0  0  0  0
  3  7  1  1  0  0  0
  5  2  1  0  0  0  0
  6  2  1  0  0  0  0
  8  3  1  0  0  0  0
  8 13  1  0  0  0  0
  9  8  2  0  0  0  0
 10  9  1  0  0  0  0
 10 11  2  0  0  0  0
 11 12  1  0  0  0  0
 12 13  2  0  0  0  0
 12 17  1  0  0  0  0
 13 18  1  0  0  0  0
 14  9  1  0  0  0  0
 15 10  1  0  0  0  0
 16 11  1  0  0  0  0
 18 19  1  0  0  0  0
 20 19  1  0  0  0  0
 21  1  1  0  0  0  0
 21 26  1  0  0  0  0
 22 21  2  0  0  0  0
 23 22  1  0  0  0  0
 23 24  2  0  0  0  0
 24 25  1  0  0  0  0
 25 26  2  0  0  0  0
 25 29  1  0  0  0  0
 27 22  1  0  0  0  0
 28 23  1  0  0  0  0
M  END
>  <minimizedAffinity>
-4.6722517

$$$$

 OpenBabel03242519003D

 29 31  0  0  1  0  0  0  0  0999 V2000
   36.4010   27.6770   42.3600 C   0  0  1  0  0  0  0  0  0  0  0  0
   37.0510   26.8040   43.2600 C   0  0  0  0  0  0  0  0  0  0  0  0
   37.3190   28.1990   43.3480 C   0  0  1  0  0  0  0  0  0  0  0  0
   35.3540   28.1080   42.4440 H   0  0  0  0  0  0  0  0  0  0  0  0
   36.2140   26.1410   43.5790 H   0  0  0  0  0  0  0  0  0  0  0  0
   37.6890   26.5010   44.0610 H   0  0  0  0  0  0  0  0  0  0  0  0
   36.7880   28.9810   43.9870 H   0  0  0  0  0  0  0  0  0  0  0  0
   38.6510   28.6930   43.0420 C   0  0  0  0  0  0  0  0  0  0  0  0
   38.8620   29.9690   42.5640 C   0  0  0  0  0  0  0  0  0  0  0  0
   40.0760   30.5000   42.2630 C   0  0  0  0  0  0  0  0  0  0  0  0
   41.1730   29.7410   42.4350 C   0  0  0  0  0  0  0  0  0  0  0  0
   41.0460   28.4700   42.9010 C   0  0  0  0  0  0  0  0  0  0  0  0
   39.7900   27.9380   43.2060 C   0  0  0  0  0  0  0  0  0  0  0  0
   37.9910   30.6270   42.4000 H   0  0  0  0  0  0  0  0  0  0  0  0
   40.1550   31.5140   41.8870 H   0  0  0  0  0  0  0  0  0  0  0  0
   42.1370   30.1770   42.1880 H   0  0  0  0  0  0  0  0  0  0  0  0
   41.9980   27.9280   43.0100 H   0  0  0  0  0  0  0  0  0  0  0  0
   39.8360   26.5540   43.6800 C   0  0  0  0  0  2  0  0  0  0  0  0
   41.2970   26.0170   43.6720 C   0  0  0  0  0  2  0  0  0  0  0  0
   41.8530   26.4300   42.8160 H   0  0  0  0  0  0  0  0  0  0  0  0
   36.6690   27.6590   40.9020 C   0  0  0  0  0  0  0  0  0  0  0  0
   36.1730   28.7810   40.1500 C   0  0  0  0  0  0  0  0  0  0  0  0
   36.4440   28.7820   38.7960 C   0  0  0  0  0  0  0  0  0  0  0  0
   37.1470   27.7380   38.2870 N   0  0  0  0  0  0  0  0  0  0  0  0
   37.5940   26.6950   39.0460 C   0  0  0  0  0  0  0  0  0  0  0  0
   37.3650   26.6280   40.3740 N   0  0  0  0  0  0  0  0  0  0  0  0
   35.6300   29.5470   40.6440 H   0  0  0  0  0  0  0  0  0  0  0  0
   36.0920   29.5910   38.2090 H   0  0  0  0  0  0  0  0  0  0  0  0
   38.1550   25.8760   38.6000 H   0  0  0  0  0  0  0  0  0  0  0  0
  1  4  1  1  0  0  0
  1  2  1  0  0  0  0
  1  3  1  0  0  0  0
  2  3  1  0  0  0  0
  2  5  1  0  0  0  0
  2  6  1  0  0  0  0
  3  7  1  1  0  0  0
  8 13  1  0  0  0  0
  8  3  1  0  0  0  0
  9  8  2  0  0  0  0
 10 11  2  0  0  0  0
 10  9  1  0  0  0  0
 11 12  1  0  0  0  0
 12 17  1  0  0  0  0
 12 13  2  0  0  0  0
 13 18  1  0  0  0  0
 14  9  1  0  0  0  0
 15 10  1  0  0  0  0
 16 11  1  0  0  0  0
 19 18  1  0  0  0  0
 20 19  1  0  0  0  0
 21  1  1  0  0  0  0
 22 27  1  0  0  0  0
 22 21  2  0  0  0  0
 23 22  1  0  0  0  0
 24 23  2  0  0  0  0
 24 25  1  0  0  0  0
 25 26  2  0  0  0  0
 26 21  1  0  0  0  0
 28 23  1  0  0  0  0
 29 25  1  0  0  0  0
M  END
>  <minimizedAffinity>
-4.65204048

$$$$

 OpenBabel03242519003D

 29 31  0  0  1  0  0  0  0  0999 V2000
   36.8740   25.2840   42.3180 C   0  0  1  0  0  0  0  0  0  0  0  0
   37.0030   24.4900   41.1580 C   0  0  0  0  0  0  0  0  0  0  0  0
   37.9440   24.3180   42.2120 C   0  0  1  0  0  0  0  0  0  0  0  0
   36.1920   25.1070   43.2100 H   0  0  0  0  0  0  0  0  0  0  0  0
   35.9500   24.1690   40.9830 H   0  0  0  0  0  0  0  0  0  0  0  0
   37.4090   23.7520   40.5020 H   0  0  0  0  0  0  0  0  0  0  0  0
   37.8950   23.5940   43.0920 H   0  0  0  0  0  0  0  0  0  0  0  0
   39.3370   24.6680   41.9900 C   0  0  0  0  0  0  0  0  0  0  0  0
   40.2090   24.8830   43.0370 C   0  0  0  0  0  0  0  0  0  0  0  0
   41.5220   25.2060   42.9050 C   0  0  0  0  0  0  0  0  0  0  0  0
   42.0360   25.3320   41.6690 C   0  0  0  0  0  0  0  0  0  0  0  0
   41.2390   25.1370   40.5860 C   0  0  0  0  0  0  0  0  0  0  0  0
   39.8890   24.8060   40.7360 C   0  0  0  0  0  0  0  0  0  0  0  0
   39.8320   24.7980   44.0700 H   0  0  0  0  0  0  0  0  0  0  0  0
   42.1400   25.3630   43.7830 H   0  0  0  0  0  0  0  0  0  0  0  0
   43.0870   25.5930   41.5790 H   0  0  0  0  0  0  0  0  0  0  0  0
   41.7480   25.2610   39.6180 H   0  0  0  0  0  0  0  0  0  0  0  0
   39.1760   24.6480   39.4670 C   0  0  0  0  0  2  0  0  0  0  0  0
   39.7720   23.4690   38.6430 C   0  0  0  0  0  2  0  0  0  0  0  0
   40.8620   23.4140   38.7880 H   0  0  0  0  0  0  0  0  0  0  0  0
   37.0720   26.7530   42.3020 C   0  0  0  0  0  0  0  0  0  0  0  0
   37.3390   27.3730   43.5720 C   0  0  0  0  0  0  0  0  0  0  0  0
   37.5520   28.7370   43.5580 C   0  0  0  0  0  0  0  0  0  0  0  0
   37.4930   29.3790   42.3630 N   0  0  0  0  0  0  0  0  0  0  0  0
   37.2340   28.7420   41.1840 C   0  0  0  0  0  0  0  0  0  0  0  0
   37.0150   27.4110   41.1230 N   0  0  0  0  0  0  0  0  0  0  0  0
   37.3630   26.7810   44.4530 H   0  0  0  0  0  0  0  0  0  0  0  0
   37.7500   29.2290   44.4750 H   0  0  0  0  0  0  0  0  0  0  0  0
   37.1950   29.2910   40.2450 H   0  0  0  0  0  0  0  0  0  0  0  0
  1  4  1  1  0  0  0
  2  3  1  0  0  0  0
  2  1  1  0  0  0  0
  3  1  1  0  0  0  0
  3  7  1  1  0  0  0
  5  2  1  0  0  0  0
  6  2  1  0  0  0  0
  8  3  1  0  0  0  0
  8  9  1  0  0  0  0
  9 14  1  0  0  0  0
 10  9  2  0  0  0  0
 10 15  1  0  0  0  0
 11 10  1  0  0  0  0
 12 13  1  0  0  0  0
 12 11  2  0  0  0  0
 13  8  2  0  0  0  0
 16 11  1  0  0  0  0
 17 12  1  0  0  0  0
 18 13  1  0  0  0  0
 19 20  1  0  0  0  0
 19 18  1  0  0  0  0
 21  1  1  0  0  0  0
 21 22  1  0  0  0  0
 22 27  1  0  0  0  0
 23 22  2  0  0  0  0
 23 28  1  0  0  0  0
 24 23  1  0  0  0  0
 25 24  2  0  0  0  0
 26 25  1  0  0  0  0
 26 21  2  0  0  0  0
 29 25  1  0  0  0  0
M  END
>  <minimizedAffinity>
-4.6250186

$$$$
