
 OpenBabel03242512393D

 28 30  0  0  0  0  0  0  0  0999 V2000
   34.6430   29.0660   39.2600 C   0  0  0  0  0  0  0  0  0  0  0  0
   35.9100   29.5760   39.5610 C   0  0  0  0  0  0  0  0  0  0  0  0
   36.7510   29.8600   38.5170 C   0  0  0  0  0  0  0  0  0  0  0  0
   36.4340   29.6770   37.1740 C   0  0  0  0  0  0  0  0  0  0  0  0
   37.0960   29.8890   36.0220 N   0  0  0  0  0  0  0  0  0  0  0  0
   36.3090   29.5370   35.0010 C   0  0  0  0  0  0  0  0  0  0  0  0
   35.1080   29.0860   35.5200 C   0  0  0  0  0  0  0  0  0  0  0  0
   35.1720   29.1700   36.9050 C   0  0  0  0  0  0  0  0  0  0  0  0
   34.3050   28.8740   37.9200 C   0  0  0  0  0  0  0  0  0  0  0  0
   33.9880   28.8440   40.0760 H   0  0  0  0  0  0  0  0  0  0  0  0
   37.7700   30.2660   38.6470 H   0  0  0  0  0  0  0  0  0  0  0  0
   38.0640   30.2650   35.9110 H   0  0  0  0  0  0  0  0  0  0  0  0
   36.5700   29.5950   33.9660 H   0  0  0  0  0  0  0  0  0  0  0  0
   34.2440   28.7230   34.9550 H   0  0  0  0  0  0  0  0  0  0  0  0
   33.3190   28.4780   37.7240 H   0  0  0  0  0  0  0  0  0  0  0  0
   36.3690   29.8240   40.9300 C   0  0  0  0  0  0  0  0  0  0  0  0
   36.1090   30.9970   41.3300 O   0  0  0  0  0  0  0  0  0  0  0  0
   37.0360   28.7970   41.6780 C   0  0  0  0  0  0  0  0  0  0  0  0
   38.0730   29.2350   42.5130 C   0  0  0  0  0  0  0  0  0  0  0  0
   38.7310   28.2220   43.2490 C   0  0  0  0  0  0  0  0  0  0  0  0
   38.3260   26.9340   43.1020 N   0  0  0  0  0  0  0  0  0  0  0  0
   37.3180   26.5840   42.2780 C   0  0  0  0  0  0  0  0  0  0  0  0
   36.6740   27.5320   41.5640 N   0  0  0  0  0  0  0  0  0  0  0  0
   38.3670   30.2580   42.6050 H   0  0  0  0  0  0  0  0  0  0  0  0
   39.5350   28.5360   43.9010 H   0  0  0  0  0  0  0  0  0  0  0  0
   36.9710   25.1350   42.2080 C   0  0  0  0  0  2  0  0  0  0  0  0
   38.1720   24.2840   41.8820 C   0  0  0  0  0  2  0  0  0  0  0  0
   38.4840   24.5240   40.8380 H   0  0  0  0  0  0  0  0  0  0  0  0
  1  2  1  0  0  0  0
  1 10  1  0  0  0  0
  2 16  1  0  0  0  0
  3 11  1  0  0  0  0
  3  2  2  0  0  0  0
  4  3  1  0  0  0  0
  5  4  1  0  0  0  0
  6  7  2  0  0  0  0
  6  5  1  0  0  0  0
  7  8  1  0  0  0  0
  8  4  2  0  0  0  0
  8  9  1  0  0  0  0
  9  1  2  0  0  0  0
 12  5  1  0  0  0  0
 13  6  1  0  0  0  0
 14  7  1  0  0  0  0
 15  9  1  0  0  0  0
 16 17  2  0  0  0  0
 16 18  1  0  0  0  0
 18 19  1  0  0  0  0
 19 24  1  0  0  0  0
 19 20  2  0  0  0  0
 20 25  1  0  0  0  0
 21 20  1  0  0  0  0
 22 21  2  0  0  0  0
 23 18  2  0  0  0  0
 23 22  1  0  0  0  0
 26 22  1  0  0  0  0
 27 26  1  0  0  0  0
 28 27  1  0  0  0  0
M  END
>  <minimizedAffinity>
-5.44164133

$$$$

 OpenBabel03242512393D

 28 30  0  0  0  0  0  0  0  0999 V2000
   36.7310   29.7400   38.4660 C   0  0  0  0  0  0  0  0  0  0  0  0
   35.9050   29.5650   39.5800 C   0  0  0  0  0  0  0  0  0  0  0  0
   34.6130   29.1600   39.3640 C   0  0  0  0  0  0  0  0  0  0  0  0
   34.0640   28.9090   38.1090 C   0  0  0  0  0  0  0  0  0  0  0  0
   32.8500   28.5110   37.6860 N   0  0  0  0  0  0  0  0  0  0  0  0
   32.8660   28.4240   36.3520 C   0  0  0  0  0  0  0  0  0  0  0  0
   34.1300   28.7790   35.9140 C   0  0  0  0  0  0  0  0  0  0  0  0
   34.9050   29.0910   37.0230 C   0  0  0  0  0  0  0  0  0  0  0  0
   36.2000   29.4950   37.2000 C   0  0  0  0  0  0  0  0  0  0  0  0
   37.7380   30.0570   38.6370 H   0  0  0  0  0  0  0  0  0  0  0  0
   33.8820   28.9930   40.1740 H   0  0  0  0  0  0  0  0  0  0  0  0
   32.0150   28.2970   38.2750 H   0  0  0  0  0  0  0  0  0  0  0  0
   32.0410   28.1310   35.7380 H   0  0  0  0  0  0  0  0  0  0  0  0
   34.4790   28.8140   34.8770 H   0  0  0  0  0  0  0  0  0  0  0  0
   36.8660   29.6410   36.3620 H   0  0  0  0  0  0  0  0  0  0  0  0
   36.3570   29.7880   40.9570 C   0  0  0  0  0  0  0  0  0  0  0  0
   36.0950   30.9540   41.3760 O   0  0  0  0  0  0  0  0  0  0  0  0
   37.0210   28.7480   41.6890 C   0  0  0  0  0  0  0  0  0  0  0  0
   38.0480   29.1710   42.5420 C   0  0  0  0  0  0  0  0  0  0  0  0
   38.7020   28.1450   43.2640 C   0  0  0  0  0  0  0  0  0  0  0  0
   38.3030   26.8590   43.0860 N   0  0  0  0  0  0  0  0  0  0  0  0
   37.3040   26.5240   42.2450 C   0  0  0  0  0  0  0  0  0  0  0  0
   36.6630   27.4840   41.5450 N   0  0  0  0  0  0  0  0  0  0  0  0
   38.3380   30.1930   42.6590 H   0  0  0  0  0  0  0  0  0  0  0  0
   39.4990   28.4480   43.9290 H   0  0  0  0  0  0  0  0  0  0  0  0
   36.9620   25.0760   42.1410 C   0  0  0  0  0  2  0  0  0  0  0  0
   38.1800   24.2270   41.8750 C   0  0  0  0  0  2  0  0  0  0  0  0
   38.5500   24.4780   40.8520 H   0  0  0  0  0  0  0  0  0  0  0  0
  1 10  1  0  0  0  0
  1  2  1  0  0  0  0
  2 16  1  0  0  0  0
  3  2  2  0  0  0  0
  3 11  1  0  0  0  0
  4  3  1  0  0  0  0
  5  4  1  0  0  0  0
  5 12  1  0  0  0  0
  6  5  1  0  0  0  0
  7  6  2  0  0  0  0
  7  8  1  0  0  0  0
  8  9  1  0  0  0  0
  8  4  2  0  0  0  0
  9  1  2  0  0  0  0
 13  6  1  0  0  0  0
 14  7  1  0  0  0  0
 15  9  1  0  0  0  0
 16 17  2  0  0  0  0
 16 18  1  0  0  0  0
 18 19  1  0  0  0  0
 19 24  1  0  0  0  0
 19 20  2  0  0  0  0
 20 25  1  0  0  0  0
 21 20  1  0  0  0  0
 22 21  2  0  0  0  0
 23 18  2  0  0  0  0
 23 22  1  0  0  0  0
 26 22  1  0  0  0  0
 27 26  1  0  0  0  0
 28 27  1  0  0  0  0
M  END
>  <minimizedAffinity>
-5.3316226

$$$$

 OpenBabel03242512393D

 28 30  0  0  0  0  0  0  0  0999 V2000
   35.7560   28.6870   40.8240 C   0  0  0  0  0  0  0  0  0  0  0  0
   36.7530   28.4930   41.7850 C   0  0  0  0  0  0  0  0  0  0  0  0
   37.6950   29.4770   41.9380 C   0  0  0  0  0  0  0  0  0  0  0  0
   37.7300   30.6590   41.2030 C   0  0  0  0  0  0  0  0  0  0  0  0
   38.5460   31.7290   41.1970 N   0  0  0  0  0  0  0  0  0  0  0  0
   38.1130   32.5950   40.2760 C   0  0  0  0  0  0  0  0  0  0  0  0
   36.9870   32.0580   39.6770 C   0  0  0  0  0  0  0  0  0  0  0  0
   36.7310   30.8240   40.2570 C   0  0  0  0  0  0  0  0  0  0  0  0
   35.7730   29.8640   40.0760 C   0  0  0  0  0  0  0  0  0  0  0  0
   35.0220   27.9180   40.7050 H   0  0  0  0  0  0  0  0  0  0  0  0
   38.5220   29.4220   42.6680 H   0  0  0  0  0  0  0  0  0  0  0  0
   39.3840   31.8870   41.7990 H   0  0  0  0  0  0  0  0  0  0  0  0
   38.5650   33.5370   40.0470 H   0  0  0  0  0  0  0  0  0  0  0  0
   36.3880   32.5120   38.8810 H   0  0  0  0  0  0  0  0  0  0  0  0
   34.9890   29.9790   39.3420 H   0  0  0  0  0  0  0  0  0  0  0  0
   36.8290   27.2990   42.6320 C   0  0  0  0  0  0  0  0  0  0  0  0
   36.1220   27.3940   43.6780 O   0  0  0  0  0  0  0  0  0  0  0  0
   37.6410   26.1800   42.2510 C   0  0  0  0  0  0  0  0  0  0  0  0
   36.9430   25.0630   41.7710 C   0  0  0  0  0  0  0  0  0  0  0  0
   37.7450   23.9600   41.3950 C   0  0  0  0  0  0  0  0  0  0  0  0
   39.0930   24.0530   41.5220 N   0  0  0  0  0  0  0  0  0  0  0  0
   39.6990   25.1620   41.9940 C   0  0  0  0  0  0  0  0  0  0  0  0
   38.9570   26.2290   42.3580 N   0  0  0  0  0  0  0  0  0  0  0  0
   35.8790   25.0230   41.6840 H   0  0  0  0  0  0  0  0  0  0  0  0
   37.2270   23.0860   41.0220 H   0  0  0  0  0  0  0  0  0  0  0  0
   41.1870   25.1360   42.0830 C   0  0  0  0  0  2  0  0  0  0  0  0
   41.6770   25.5440   43.4480 C   0  0  0  0  0  2  0  0  0  0  0  0
   41.4310   26.6240   43.5880 H   0  0  0  0  0  0  0  0  0  0  0  0
  1  2  1  0  0  0  0
  2  3  2  0  0  0  0
  2 16  1  0  0  0  0
  3 11  1  0  0  0  0
  4  3  1  0  0  0  0
  5  4  1  0  0  0  0
  5 12  1  0  0  0  0
  6  5  1  0  0  0  0
  7  8  1  0  0  0  0
  7  6  2  0  0  0  0
  8  4  2  0  0  0  0
  9  8  1  0  0  0  0
  9  1  2  0  0  0  0
 10  1  1  0  0  0  0
 13  6  1  0  0  0  0
 14  7  1  0  0  0  0
 15  9  1  0  0  0  0
 16 17  2  0  0  0  0
 18 23  1  0  0  0  0
 18 16  1  0  0  0  0
 19 18  2  0  0  0  0
 20 21  2  0  0  0  0
 20 19  1  0  0  0  0
 21 22  1  0  0  0  0
 22 26  1  0  0  0  0
 22 23  2  0  0  0  0
 24 19  1  0  0  0  0
 25 20  1  0  0  0  0
 26 27  1  0  0  0  0
 27 28  1  0  0  0  0
M  END
>  <minimizedAffinity>
-5.31934404

$$$$

 OpenBabel03242512393D

 28 30  0  0  0  0  0  0  0  0999 V2000
   36.4950   28.0540   42.1580 C   0  0  0  0  0  0  0  0  0  0  0  0
   36.2320   28.1020   40.7850 C   0  0  0  0  0  0  0  0  0  0  0  0
   36.5180   26.9880   40.0390 C   0  0  0  0  0  0  0  0  0  0  0  0
   37.0530   25.8090   40.5510 C   0  0  0  0  0  0  0  0  0  0  0  0
   37.3980   24.6280   40.0070 N   0  0  0  0  0  0  0  0  0  0  0  0
   37.8680   23.8300   40.9700 C   0  0  0  0  0  0  0  0  0  0  0  0
   37.8210   24.5270   42.1650 C   0  0  0  0  0  0  0  0  0  0  0  0
   37.3030   25.7900   41.9140 C   0  0  0  0  0  0  0  0  0  0  0  0
   37.0310   26.8820   42.6910 C   0  0  0  0  0  0  0  0  0  0  0  0
   36.2710   28.9240   42.7380 H   0  0  0  0  0  0  0  0  0  0  0  0
   36.3480   26.9240   38.9500 H   0  0  0  0  0  0  0  0  0  0  0  0
   37.3220   24.3500   39.0030 H   0  0  0  0  0  0  0  0  0  0  0  0
   38.2180   22.8290   40.8330 H   0  0  0  0  0  0  0  0  0  0  0  0
   38.1320   24.1630   43.1500 H   0  0  0  0  0  0  0  0  0  0  0  0
   37.2220   26.8810   43.7550 H   0  0  0  0  0  0  0  0  0  0  0  0
   35.6640   29.2770   40.1180 C   0  0  0  0  0  0  0  0  0  0  0  0
   34.4000   29.2450   40.0610 O   0  0  0  0  0  0  0  0  0  0  0  0
   36.5140   30.3140   39.6080 C   0  0  0  0  0  0  0  0  0  0  0  0
   36.6770   30.3310   38.2160 C   0  0  0  0  0  0  0  0  0  0  0  0
   37.5160   31.3540   37.7150 C   0  0  0  0  0  0  0  0  0  0  0  0
   38.0880   32.2230   38.5880 N   0  0  0  0  0  0  0  0  0  0  0  0
   37.8860   32.1460   39.9190 C   0  0  0  0  0  0  0  0  0  0  0  0
   37.0900   31.1800   40.4230 N   0  0  0  0  0  0  0  0  0  0  0  0
   36.2110   29.6320   37.5570 H   0  0  0  0  0  0  0  0  0  0  0  0
   37.6570   31.3870   36.6430 H   0  0  0  0  0  0  0  0  0  0  0  0
   38.5730   33.1610   40.7680 C   0  0  0  0  0  2  0  0  0  0  0  0
   39.6130   33.9320   39.9960 C   0  0  0  0  0  2  0  0  0  0  0  0
   40.4330   33.2230   39.7300 H   0  0  0  0  0  0  0  0  0  0  0  0
  1  9  1  0  0  0  0
  1 10  1  0  0  0  0
  2  1  2  0  0  0  0
  3  4  2  0  0  0  0
  3  2  1  0  0  0  0
  4  8  1  0  0  0  0
  5  4  1  0  0  0  0
  5  6  1  0  0  0  0
  6  7  2  0  0  0  0
  7 14  1  0  0  0  0
  8  7  1  0  0  0  0
  8  9  2  0  0  0  0
  9 15  1  0  0  0  0
 11  3  1  0  0  0  0
 12  5  1  0  0  0  0
 13  6  1  0  0  0  0
 16  2  1  0  0  0  0
 17 16  2  0  0  0  0
 18 16  1  0  0  0  0
 18 23  1  0  0  0  0
 19 18  2  0  0  0  0
 20 19  1  0  0  0  0
 20 21  2  0  0  0  0
 21 22  1  0  0  0  0
 22 23  2  0  0  0  0
 22 26  1  0  0  0  0
 24 19  1  0  0  0  0
 25 20  1  0  0  0  0
 27 26  1  0  0  0  0
 28 27  1  0  0  0  0
M  END
>  <minimizedAffinity>
-5.2905817

$$$$

 OpenBabel03242512393D

 28 30  0  0  0  0  0  0  0  0999 V2000
   36.5770   26.6150   40.2010 C   0  0  0  0  0  0  0  0  0  0  0  0
   36.9930   26.5360   41.5330 C   0  0  0  0  0  0  0  0  0  0  0  0
   37.4940   25.3400   41.9780 C   0  0  0  0  0  0  0  0  0  0  0  0
   37.6190   24.1950   41.1960 C   0  0  0  0  0  0  0  0  0  0  0  0
   38.0750   22.9510   41.4290 N   0  0  0  0  0  0  0  0  0  0  0  0
   37.9680   22.2350   40.3070 C   0  0  0  0  0  0  0  0  0  0  0  0
   37.4270   23.0490   39.3280 C   0  0  0  0  0  0  0  0  0  0  0  0
   37.1980   24.3020   39.8800 C   0  0  0  0  0  0  0  0  0  0  0  0
   36.6930   25.4790   39.3990 C   0  0  0  0  0  0  0  0  0  0  0  0
   36.1860   27.5490   39.8550 H   0  0  0  0  0  0  0  0  0  0  0  0
   37.8500   25.1740   43.0100 H   0  0  0  0  0  0  0  0  0  0  0  0
   38.4550   22.5770   42.3280 H   0  0  0  0  0  0  0  0  0  0  0  0
   38.2540   21.2100   40.1930 H   0  0  0  0  0  0  0  0  0  0  0  0
   37.2080   22.7730   38.2910 H   0  0  0  0  0  0  0  0  0  0  0  0
   36.3610   25.5760   38.3760 H   0  0  0  0  0  0  0  0  0  0  0  0
   36.9240   27.6660   42.4630 C   0  0  0  0  0  0  0  0  0  0  0  0
   36.2810   27.3940   43.5190 O   0  0  0  0  0  0  0  0  0  0  0  0
   37.5440   28.9200   42.1420 C   0  0  0  0  0  0  0  0  0  0  0  0
   38.7950   29.1440   42.7340 C   0  0  0  0  0  0  0  0  0  0  0  0
   39.4050   30.3800   42.4170 C   0  0  0  0  0  0  0  0  0  0  0  0
   38.7580   31.2400   41.5880 N   0  0  0  0  0  0  0  0  0  0  0  0
   37.5520   30.9580   41.0550 C   0  0  0  0  0  0  0  0  0  0  0  0
   36.9490   29.7840   41.3400 N   0  0  0  0  0  0  0  0  0  0  0  0
   39.2770   28.4450   43.3820 H   0  0  0  0  0  0  0  0  0  0  0  0
   40.3710   30.5750   42.8620 H   0  0  0  0  0  0  0  0  0  0  0  0
   36.9490   31.9870   40.1600 C   0  0  0  0  0  2  0  0  0  0  0  0
   37.7170   32.1320   38.8710 C   0  0  0  0  0  2  0  0  0  0  0  0
   38.7170   32.5620   39.1180 H   0  0  0  0  0  0  0  0  0  0  0  0
  1  2  1  0  0  0  0
  2  3  2  0  0  0  0
  2 16  1  0  0  0  0
  3 11  1  0  0  0  0
  4  5  1  0  0  0  0
  4  3  1  0  0  0  0
  5 12  1  0  0  0  0
  6  5  1  0  0  0  0
  7  8  1  0  0  0  0
  7  6  2  0  0  0  0
  8  4  2  0  0  0  0
  9  8  1  0  0  0  0
  9  1  2  0  0  0  0
 10  1  1  0  0  0  0
 13  6  1  0  0  0  0
 14  7  1  0  0  0  0
 15  9  1  0  0  0  0
 16 17  2  0  0  0  0
 18 16  1  0  0  0  0
 18 19  1  0  0  0  0
 19 24  1  0  0  0  0
 20 19  2  0  0  0  0
 20 25  1  0  0  0  0
 21 20  1  0  0  0  0
 22 23  1  0  0  0  0
 22 21  2  0  0  0  0
 23 18  2  0  0  0  0
 26 22  1  0  0  0  0
 27 28  1  0  0  0  0
 27 26  1  0  0  0  0
M  END
>  <minimizedAffinity>
-5.26021433

$$$$

 OpenBabel03242512393D

 28 30  0  0  0  0  0  0  0  0999 V2000
   34.7220   29.1010   39.3330 C   0  0  0  0  0  0  0  0  0  0  0  0
   35.9810   29.6490   39.5940 C   0  0  0  0  0  0  0  0  0  0  0  0
   36.8010   29.9100   38.5270 C   0  0  0  0  0  0  0  0  0  0  0  0
   36.4680   29.6670   37.1970 C   0  0  0  0  0  0  0  0  0  0  0  0
   37.1090   29.8480   36.0280 N   0  0  0  0  0  0  0  0  0  0  0  0
   36.3150   29.4390   35.0340 C   0  0  0  0  0  0  0  0  0  0  0  0
   35.1320   28.9840   35.5890 C   0  0  0  0  0  0  0  0  0  0  0  0
   35.2150   29.1230   36.9670 C   0  0  0  0  0  0  0  0  0  0  0  0
   34.3690   28.8490   38.0070 C   0  0  0  0  0  0  0  0  0  0  0  0
   34.0840   28.8970   40.1670 H   0  0  0  0  0  0  0  0  0  0  0  0
   37.8120   30.3420   38.6260 H   0  0  0  0  0  0  0  0  0  0  0  0
   38.0670   30.2400   35.8870 H   0  0  0  0  0  0  0  0  0  0  0  0
   36.5600   29.4630   33.9930 H   0  0  0  0  0  0  0  0  0  0  0  0
   34.2680   28.5810   35.0510 H   0  0  0  0  0  0  0  0  0  0  0  0
   33.3890   28.4250   37.8420 H   0  0  0  0  0  0  0  0  0  0  0  0
   36.4550   29.9600   40.9460 C   0  0  0  0  0  0  0  0  0  0  0  0
   36.1100   31.1150   41.3330 O   0  0  0  0  0  0  0  0  0  0  0  0
   37.2230   29.0060   41.6920 C   0  0  0  0  0  0  0  0  0  0  0  0
   36.5110   27.8970   42.1680 C   0  0  0  0  0  0  0  0  0  0  0  0
   37.2690   26.9560   42.9040 C   0  0  0  0  0  0  0  0  0  0  0  0
   38.5940   27.1840   43.0940 N   0  0  0  0  0  0  0  0  0  0  0  0
   39.2160   28.2770   42.6060 C   0  0  0  0  0  0  0  0  0  0  0  0
   38.5150   29.1890   41.9000 N   0  0  0  0  0  0  0  0  0  0  0  0
   35.4660   27.7470   42.0010 H   0  0  0  0  0  0  0  0  0  0  0  0
   36.7400   26.0920   43.2820 H   0  0  0  0  0  0  0  0  0  0  0  0
   40.6750   28.4080   42.8850 C   0  0  0  0  0  2  0  0  0  0  0  0
   41.1810   29.7980   42.5940 C   0  0  0  0  0  2  0  0  0  0  0  0
   41.1160   29.9580   41.4920 H   0  0  0  0  0  0  0  0  0  0  0  0
  1  2  1  0  0  0  0
  1 10  1  0  0  0  0
  2 16  1  0  0  0  0
  3 11  1  0  0  0  0
  3  2  2  0  0  0  0
  4  3  1  0  0  0  0
  5  4  1  0  0  0  0
  6  7  2  0  0  0  0
  6  5  1  0  0  0  0
  7  8  1  0  0  0  0
  8  4  2  0  0  0  0
  8  9  1  0  0  0  0
  9  1  2  0  0  0  0
 12  5  1  0  0  0  0
 13  6  1  0  0  0  0
 14  7  1  0  0  0  0
 15  9  1  0  0  0  0
 16 17  2  0  0  0  0
 16 18  1  0  0  0  0
 18 23  2  0  0  0  0
 18 19  1  0  0  0  0
 19 20  2  0  0  0  0
 20 21  1  0  0  0  0
 20 25  1  0  0  0  0
 22 26  1  0  0  0  0
 22 21  2  0  0  0  0
 23 22  1  0  0  0  0
 24 19  1  0  0  0  0
 27 26  1  0  0  0  0
 28 27  1  0  0  0  0
M  END
>  <minimizedAffinity>
-5.13685703

$$$$

 OpenBabel03242512393D

 28 30  0  0  0  0  0  0  0  0999 V2000
   40.9570   28.7480   42.2570 C   0  0  0  0  0  0  0  0  0  0  0  0
   40.4600   30.0430   42.4280 C   0  0  0  0  0  0  0  0  0  0  0  0
   39.1670   30.1820   42.8600 C   0  0  0  0  0  0  0  0  0  0  0  0
   38.3100   29.1210   43.1420 C   0  0  0  0  0  0  0  0  0  0  0  0
   37.0370   29.0390   43.5700 N   0  0  0  0  0  0  0  0  0  0  0  0
   36.7010   27.7510   43.6790 C   0  0  0  0  0  0  0  0  0  0  0  0
   37.7950   26.9890   43.3090 C   0  0  0  0  0  0  0  0  0  0  0  0
   38.8290   27.8490   42.9640 C   0  0  0  0  0  0  0  0  0  0  0  0
   40.1150   27.6710   42.5340 C   0  0  0  0  0  0  0  0  0  0  0  0
   41.9660   28.6420   41.9190 H   0  0  0  0  0  0  0  0  0  0  0  0
   38.6800   31.1590   43.0260 H   0  0  0  0  0  0  0  0  0  0  0  0
   36.3920   29.8320   43.7890 H   0  0  0  0  0  0  0  0  0  0  0  0
   35.7490   27.3810   43.9970 H   0  0  0  0  0  0  0  0  0  0  0  0
   37.8560   25.8960   43.2860 H   0  0  0  0  0  0  0  0  0  0  0  0
   40.5320   26.6840   42.3910 H   0  0  0  0  0  0  0  0  0  0  0  0
   41.2560   31.2470   42.1730 C   0  0  0  0  0  0  0  0  0  0  0  0
   42.0420   31.5260   43.1260 O   0  0  0  0  0  0  0  0  0  0  0  0
   41.1060   31.9810   40.9490 C   0  0  0  0  0  0  0  0  0  0  0  0
   41.8540   33.1630   40.8590 C   0  0  0  0  0  0  0  0  0  0  0  0
   41.7060   33.8860   39.6520 C   0  0  0  0  0  0  0  0  0  0  0  0
   40.8750   33.4030   38.6930 N   0  0  0  0  0  0  0  0  0  0  0  0
   40.1840   32.2550   38.8490 C   0  0  0  0  0  0  0  0  0  0  0  0
   40.3080   31.5450   39.9910 N   0  0  0  0  0  0  0  0  0  0  0  0
   42.5000   33.5160   41.6340 H   0  0  0  0  0  0  0  0  0  0  0  0
   42.2730   34.8020   39.5600 H   0  0  0  0  0  0  0  0  0  0  0  0
   39.3050   31.8340   37.7200 C   0  0  0  0  0  2  0  0  0  0  0  0
   37.8840   31.6040   38.1670 C   0  0  0  0  0  2  0  0  0  0  0  0
   37.8810   30.7140   38.8400 H   0  0  0  0  0  0  0  0  0  0  0  0
  1  2  2  0  0  0  0
  1  9  1  0  0  0  0
  2  3  1  0  0  0  0
  3 11  1  0  0  0  0
  3  4  2  0  0  0  0
  4  5  1  0  0  0  0
  5  6  1  0  0  0  0
  5 12  1  0  0  0  0
  6 13  1  0  0  0  0
  7  6  2  0  0  0  0
  8  4  1  0  0  0  0
  8  7  1  0  0  0  0
  9  8  2  0  0  0  0
 10  1  1  0  0  0  0
 14  7  1  0  0  0  0
 15  9  1  0  0  0  0
 16  2  1  0  0  0  0
 16 17  2  0  0  0  0
 18 16  1  0  0  0  0
 19 18  1  0  0  0  0
 19 24  1  0  0  0  0
 20 19  2  0  0  0  0
 21 22  2  0  0  0  0
 21 20  1  0  0  0  0
 22 23  1  0  0  0  0
 23 18  2  0  0  0  0
 25 20  1  0  0  0  0
 26 27  1  0  0  0  0
 26 22  1  0  0  0  0
 27 28  1  0  0  0  0
M  END
>  <minimizedAffinity>
-5.08232594

$$$$

 OpenBabel03242512393D

 28 30  0  0  0  0  0  0  0  0999 V2000
   36.5920   27.8950   42.2540 C   0  0  0  0  0  0  0  0  0  0  0  0
   36.3500   27.9950   40.8800 C   0  0  0  0  0  0  0  0  0  0  0  0
   36.5570   26.8820   40.1090 C   0  0  0  0  0  0  0  0  0  0  0  0
   36.9930   25.6530   40.5970 C   0  0  0  0  0  0  0  0  0  0  0  0
   37.2510   24.4610   40.0270 N   0  0  0  0  0  0  0  0  0  0  0  0
   37.6470   23.6070   40.9740 C   0  0  0  0  0  0  0  0  0  0  0  0
   37.6400   24.2760   42.1860 C   0  0  0  0  0  0  0  0  0  0  0  0
   37.2250   25.5810   41.9610 C   0  0  0  0  0  0  0  0  0  0  0  0
   37.0300   26.6720   42.7630 C   0  0  0  0  0  0  0  0  0  0  0  0
   36.4310   28.7650   42.8540 H   0  0  0  0  0  0  0  0  0  0  0  0
   36.3940   26.8570   39.0170 H   0  0  0  0  0  0  0  0  0  0  0  0
   37.1660   24.2140   39.0150 H   0  0  0  0  0  0  0  0  0  0  0  0
   37.9200   22.5850   40.8150 H   0  0  0  0  0  0  0  0  0  0  0  0
   37.9110   23.8650   43.1640 H   0  0  0  0  0  0  0  0  0  0  0  0
   37.2080   26.6300   43.8280 H   0  0  0  0  0  0  0  0  0  0  0  0
   35.8820   29.2270   40.2380 C   0  0  0  0  0  0  0  0  0  0  0  0
   34.6350   29.2230   40.0180 O   0  0  0  0  0  0  0  0  0  0  0  0
   36.8000   30.2830   39.9200 C   0  0  0  0  0  0  0  0  0  0  0  0
   36.5840   31.4930   40.5940 C   0  0  0  0  0  0  0  0  0  0  0  0
   37.4880   32.5350   40.2800 C   0  0  0  0  0  0  0  0  0  0  0  0
   38.4740   32.2990   39.3760 N   0  0  0  0  0  0  0  0  0  0  0  0
   38.6220   31.1070   38.7630 C   0  0  0  0  0  0  0  0  0  0  0  0
   37.7720   30.0970   39.0460 N   0  0  0  0  0  0  0  0  0  0  0  0
   35.7970   31.6450   41.3010 H   0  0  0  0  0  0  0  0  0  0  0  0
   37.3410   33.4780   40.7880 H   0  0  0  0  0  0  0  0  0  0  0  0
   39.7450   30.9790   37.7900 C   0  0  0  0  0  2  0  0  0  0  0  0
   40.7650   32.0760   37.9600 C   0  0  0  0  0  2  0  0  0  0  0  0
   40.2800   33.0370   37.6680 H   0  0  0  0  0  0  0  0  0  0  0  0
  1  9  1  0  0  0  0
  1 10  1  0  0  0  0
  2  1  2  0  0  0  0
  3  4  2  0  0  0  0
  3  2  1  0  0  0  0
  4  8  1  0  0  0  0
  5  4  1  0  0  0  0
  5  6  1  0  0  0  0
  6  7  2  0  0  0  0
  7 14  1  0  0  0  0
  8  7  1  0  0  0  0
  8  9  2  0  0  0  0
  9 15  1  0  0  0  0
 11  3  1  0  0  0  0
 12  5  1  0  0  0  0
 13  6  1  0  0  0  0
 16  2  1  0  0  0  0
 17 16  2  0  0  0  0
 18 16  1  0  0  0  0
 18 19  1  0  0  0  0
 19 24  1  0  0  0  0
 20 19  2  0  0  0  0
 20 25  1  0  0  0  0
 21 20  1  0  0  0  0
 22 23  1  0  0  0  0
 22 21  2  0  0  0  0
 23 18  2  0  0  0  0
 26 27  1  0  0  0  0
 26 22  1  0  0  0  0
 28 27  1  0  0  0  0
M  END
>  <minimizedAffinity>
-5.07176924

$$$$

 OpenBabel03242512393D

 28 30  0  0  0  0  0  0  0  0999 V2000
   38.3040   30.1540   37.9890 C   0  0  0  0  0  0  0  0  0  0  0  0
   37.0370   30.1280   38.5800 C   0  0  0  0  0  0  0  0  0  0  0  0
   36.6860   31.1770   39.3900 C   0  0  0  0  0  0  0  0  0  0  0  0
   37.5040   32.2690   39.6680 C   0  0  0  0  0  0  0  0  0  0  0  0
   37.3560   33.3780   40.4150 N   0  0  0  0  0  0  0  0  0  0  0  0
   38.4710   34.1090   40.3270 C   0  0  0  0  0  0  0  0  0  0  0  0
   39.3570   33.4420   39.4980 C   0  0  0  0  0  0  0  0  0  0  0  0
   38.7540   32.2680   39.0700 C   0  0  0  0  0  0  0  0  0  0  0  0
   39.1390   31.2390   38.2550 C   0  0  0  0  0  0  0  0  0  0  0  0
   38.5760   29.3340   37.3580 H   0  0  0  0  0  0  0  0  0  0  0  0
   35.7110   31.2520   39.9020 H   0  0  0  0  0  0  0  0  0  0  0  0
   36.5210   33.6510   40.9810 H   0  0  0  0  0  0  0  0  0  0  0  0
   38.6420   35.0440   40.8170 H   0  0  0  0  0  0  0  0  0  0  0  0
   40.3630   33.7680   39.2150 H   0  0  0  0  0  0  0  0  0  0  0  0
   40.1110   31.2250   37.7830 H   0  0  0  0  0  0  0  0  0  0  0  0
   36.0750   29.0430   38.3670 C   0  0  0  0  0  0  0  0  0  0  0  0
   35.1160   29.3800   37.6110 O   0  0  0  0  0  0  0  0  0  0  0  0
   36.2650   27.7620   38.9820 C   0  0  0  0  0  0  0  0  0  0  0  0
   36.0010   26.6540   38.1650 C   0  0  0  0  0  0  0  0  0  0  0  0
   36.1890   25.3900   38.7720 C   0  0  0  0  0  0  0  0  0  0  0  0
   36.6000   25.3370   40.0650 N   0  0  0  0  0  0  0  0  0  0  0  0
   36.8360   26.4470   40.7940 C   0  0  0  0  0  0  0  0  0  0  0  0
   36.6640   27.6650   40.2380 N   0  0  0  0  0  0  0  0  0  0  0  0
   35.6780   26.7310   37.1490 H   0  0  0  0  0  0  0  0  0  0  0  0
   35.9910   24.5210   38.1600 H   0  0  0  0  0  0  0  0  0  0  0  0
   37.2830   26.2510   42.2030 C   0  0  0  0  0  2  0  0  0  0  0  0
   36.6590   27.2560   43.1380 C   0  0  0  0  0  2  0  0  0  0  0  0
   37.0690   28.2610   42.8760 H   0  0  0  0  0  0  0  0  0  0  0  0
  1  9  2  0  0  0  0
  1  2  1  0  0  0  0
  2  3  2  0  0  0  0
  3  4  1  0  0  0  0
  3 11  1  0  0  0  0
  4  5  1  0  0  0  0
  5 12  1  0  0  0  0
  6  5  1  0  0  0  0
  6 13  1  0  0  0  0
  7  6  2  0  0  0  0
  8  7  1  0  0  0  0
  8  4  2  0  0  0  0
  9  8  1  0  0  0  0
 10  1  1  0  0  0  0
 14  7  1  0  0  0  0
 15  9  1  0  0  0  0
 16  2  1  0  0  0  0
 16 18  1  0  0  0  0
 17 16  2  0  0  0  0
 18 23  1  0  0  0  0
 19 20  1  0  0  0  0
 19 18  2  0  0  0  0
 20 21  2  0  0  0  0
 21 22  1  0  0  0  0
 22 26  1  0  0  0  0
 23 22  2  0  0  0  0
 24 19  1  0  0  0  0
 25 20  1  0  0  0  0
 26 27  1  0  0  0  0
 28 27  1  0  0  0  0
M  END
>  <minimizedAffinity>
-4.99749231

$$$$
