
 OpenBabel03242523203D

 31 33  0  0  0  0  0  0  0  0999 V2000
   47.4010   32.7710   44.0520 C   0  0  0  0  0  0  0  0  0  0  0  0
   48.2410   33.2700   43.1320 C   0  0  0  0  0  0  0  0  0  0  0  0
   49.0820   32.3370   42.5530 C   0  0  0  0  0  0  0  0  0  0  0  0
   48.9860   31.0000   42.9690 N   0  0  0  0  0  0  0  0  0  0  0  0
   48.1400   30.5850   43.8800 C   0  0  0  0  0  0  0  0  0  0  0  0
   47.2830   31.4850   44.4790 N   0  0  0  0  0  0  0  0  0  0  0  0
   49.8210   32.5300   41.7990 H   0  0  0  0  0  0  0  0  0  0  0  0
   48.1820   29.5230   44.0990 H   0  0  0  0  0  0  0  0  0  0  0  0
   48.4110   34.6420   42.8040 C   0  0  0  0  0  0  0  0  0  0  0  0
   49.4140   35.2320   42.1010 C   0  0  0  0  0  0  0  0  0  0  0  0
   48.1640   35.0450   41.2890 C   0  0  0  0  0  0  0  0  0  0  0  0
   47.9650   35.3320   43.5450 H   0  0  0  0  0  0  0  0  0  0  0  0
   49.7480   36.2930   42.0860 H   0  0  0  0  0  0  0  0  0  0  0  0
   50.2670   34.5950   41.7110 H   0  0  0  0  0  0  0  0  0  0  0  0
   47.4620   35.8920   41.1890 H   0  0  0  0  0  0  0  0  0  0  0  0
   48.0690   34.1650   40.6260 H   0  0  0  0  0  0  0  0  0  0  0  0
   46.3400   33.5040   44.7550 C   0  0  0  0  0  0  0  0  0  0  0  0
   45.7680   33.8840   45.7470 O   0  0  0  0  0  0  0  0  0  0  0  0
   44.6080   31.7490   42.9040 Cl  0  0  0  0  0  0  0  0  0  0  0  0
   44.6140   33.5040   42.8090 C   0  0  0  0  0  0  0  0  0  0  0  0
   45.4580   34.1530   43.7360 C   0  0  0  0  0  0  0  0  0  0  0  0
   45.3930   35.5280   43.5860 C   0  0  0  0  0  0  0  0  0  0  0  0
   44.6770   36.2660   42.7240 C   0  0  0  0  0  0  0  0  0  0  0  0
   43.8860   35.5630   41.8580 C   0  0  0  0  0  0  0  0  0  0  0  0
   43.8450   34.2150   41.8880 C   0  0  0  0  0  0  0  0  0  0  0  0
   45.9710   36.1930   44.2620 H   0  0  0  0  0  0  0  0  0  0  0  0
   44.6540   37.3270   42.6360 H   0  0  0  0  0  0  0  0  0  0  0  0
   43.2410   35.9750   41.0930 H   0  0  0  0  0  0  0  0  0  0  0  0
   43.0110   33.3470   40.9850 C   0  0  0  0  0  2  0  0  0  0  0  0
   42.7190   34.0070   39.6670 C   0  0  0  0  0  2  0  0  0  0  0  0
   41.9430   33.3770   39.1740 H   0  0  0  0  0  0  0  0  0  0  0  0
  1  6  1  0  0  0  0
  1 17  1  0  0  0  0
  2  1  2  0  0  0  0
  3  4  2  0  0  0  0
  3  2  1  0  0  0  0
  4  5  1  0  0  0  0
  5  8  1  0  0  0  0
  5  6  2  0  0  0  0
  7  3  1  0  0  0  0
  9  2  1  0  0  0  0
  9 12  1  0  0  0  0
 10  9  1  0  0  0  0
 11 10  1  0  0  0  0
 11  9  1  0  0  0  0
 13 10  1  0  0  0  0
 14 10  1  0  0  0  0
 15 11  1  0  0  0  0
 16 11  1  0  0  0  0
 17 18  2  0  0  0  0
 20 19  1  0  0  0  0
 20 21  1  0  0  0  0
 21 17  1  0  0  0  0
 22 21  2  0  0  0  0
 22 26  1  0  0  0  0
 23 22  1  0  0  0  0
 24 25  1  0  0  0  0
 24 23  2  0  0  0  0
 25 20  2  0  0  0  0
 27 23  1  0  0  0  0
 28 24  1  0  0  0  0
 29 25  1  0  0  0  0
 30 29  1  0  0  0  0
 31 30  1  0  0  0  0
M  END
>  <minimizedAffinity>
-4.9894619

>  <minimizedRMSD>
0.210965872

$$$$
