
 OpenBabel03242523193D

 31 33  0  0  0  0  0  0  0  0999 V2000
   47.3880   32.8140   44.0210 C   0  0  0  0  0  0  0  0  0  0  0  0
   48.2440   33.3120   43.1160 C   0  0  0  0  0  0  0  0  0  0  0  0
   49.0900   32.3780   42.5470 C   0  0  0  0  0  0  0  0  0  0  0  0
   48.9810   31.0390   42.9550 N   0  0  0  0  0  0  0  0  0  0  0  0
   48.1190   30.6250   43.8510 C   0  0  0  0  0  0  0  0  0  0  0  0
   47.2570   31.5260   44.4400 N   0  0  0  0  0  0  0  0  0  0  0  0
   49.8410   32.5700   41.8040 H   0  0  0  0  0  0  0  0  0  0  0  0
   48.1530   29.5620   44.0660 H   0  0  0  0  0  0  0  0  0  0  0  0
   48.4260   34.6850   42.7970 C   0  0  0  0  0  0  0  0  0  0  0  0
   49.4540   35.2760   42.1320 C   0  0  0  0  0  0  0  0  0  0  0  0
   48.2350   35.0900   41.2750 C   0  0  0  0  0  0  0  0  0  0  0  0
   47.9530   35.3740   43.5220 H   0  0  0  0  0  0  0  0  0  0  0  0
   49.7880   36.3370   42.1310 H   0  0  0  0  0  0  0  0  0  0  0  0
   50.3200   34.6400   41.7720 H   0  0  0  0  0  0  0  0  0  0  0  0
   47.5360   35.9380   41.1500 H   0  0  0  0  0  0  0  0  0  0  0  0
   48.1630   34.2110   40.6070 H   0  0  0  0  0  0  0  0  0  0  0  0
   46.3200   33.5490   44.7100 C   0  0  0  0  0  0  0  0  0  0  0  0
   45.7440   33.9400   45.6950 O   0  0  0  0  0  0  0  0  0  0  0  0
   44.5450   31.7510   42.9430 Cl  0  0  0  0  0  0  0  0  0  0  0  0
   44.5700   33.5000   42.7860 C   0  0  0  0  0  0  0  0  0  0  0  0
   45.4320   34.1720   43.6800 C   0  0  0  0  0  0  0  0  0  0  0  0
   45.3810   35.5410   43.4830 C   0  0  0  0  0  0  0  0  0  0  0  0
   44.6630   36.2570   42.6040 C   0  0  0  0  0  0  0  0  0  0  0  0
   43.8540   35.5340   41.7730 C   0  0  0  0  0  0  0  0  0  0  0  0
   43.7980   34.1880   41.8500 C   0  0  0  0  0  0  0  0  0  0  0  0
   45.9750   36.2230   44.1280 H   0  0  0  0  0  0  0  0  0  0  0  0
   44.6500   37.3150   42.4790 H   0  0  0  0  0  0  0  0  0  0  0  0
   43.2030   35.9260   41.0020 H   0  0  0  0  0  0  0  0  0  0  0  0
   42.9430   33.2990   40.9890 C   0  0  0  0  0  2  0  0  0  0  0  0
   41.4810   33.6310   41.0970 C   0  0  0  0  0  2  0  0  0  0  0  0
   40.9390   32.7990   40.5910 H   0  0  0  0  0  0  0  0  0  0  0  0
  1  6  1  0  0  0  0
  1 17  1  0  0  0  0
  2  1  2  0  0  0  0
  3  4  2  0  0  0  0
  3  2  1  0  0  0  0
  4  5  1  0  0  0  0
  5  8  1  0  0  0  0
  5  6  2  0  0  0  0
  7  3  1  0  0  0  0
  9  2  1  0  0  0  0
  9 12  1  0  0  0  0
 10  9  1  0  0  0  0
 11 10  1  0  0  0  0
 11  9  1  0  0  0  0
 13 10  1  0  0  0  0
 14 10  1  0  0  0  0
 15 11  1  0  0  0  0
 16 11  1  0  0  0  0
 17 18  2  0  0  0  0
 20 19  1  0  0  0  0
 20 21  1  0  0  0  0
 21 17  1  0  0  0  0
 22 21  2  0  0  0  0
 22 26  1  0  0  0  0
 23 22  1  0  0  0  0
 24 25  1  0  0  0  0
 24 23  2  0  0  0  0
 25 20  2  0  0  0  0
 27 23  1  0  0  0  0
 28 24  1  0  0  0  0
 29 30  1  0  0  0  0
 29 25  1  0  0  0  0
 31 30  1  0  0  0  0
M  END
>  <minimizedAffinity>
-5.00642776

>  <minimizedRMSD>
0.175601408

$$$$
