
 OpenBabel03242523193D

 31 33  0  0  0  0  0  0  0  0999 V2000
   47.4970   32.8270   43.9310 C   0  0  0  0  0  0  0  0  0  0  0  0
   48.3330   33.3710   43.0330 C   0  0  0  0  0  0  0  0  0  0  0  0
   49.1900   32.4720   42.4250 C   0  0  0  0  0  0  0  0  0  0  0  0
   49.1130   31.1190   42.7910 N   0  0  0  0  0  0  0  0  0  0  0  0
   48.2690   30.6590   43.6840 C   0  0  0  0  0  0  0  0  0  0  0  0
   47.3970   31.5240   44.3100 N   0  0  0  0  0  0  0  0  0  0  0  0
   49.9280   32.7030   41.6800 H   0  0  0  0  0  0  0  0  0  0  0  0
   48.3270   29.5910   43.8640 H   0  0  0  0  0  0  0  0  0  0  0  0
   48.4830   34.7560   42.7560 C   0  0  0  0  0  0  0  0  0  0  0  0
   49.5020   35.3920   42.1180 C   0  0  0  0  0  0  0  0  0  0  0  0
   48.2950   35.2010   41.2440 C   0  0  0  0  0  0  0  0  0  0  0  0
   47.9870   35.4120   43.4950 H   0  0  0  0  0  0  0  0  0  0  0  0
   49.8090   36.4600   42.1510 H   0  0  0  0  0  0  0  0  0  0  0  0
   50.3870   34.7880   41.7490 H   0  0  0  0  0  0  0  0  0  0  0  0
   47.5770   36.0340   41.1370 H   0  0  0  0  0  0  0  0  0  0  0  0
   48.2520   34.3400   40.5500 H   0  0  0  0  0  0  0  0  0  0  0  0
   46.4230   33.5180   44.6550 C   0  0  0  0  0  0  0  0  0  0  0  0
   45.8550   33.8730   45.6590 O   0  0  0  0  0  0  0  0  0  0  0  0
   44.6010   31.7100   42.9460 Cl  0  0  0  0  0  0  0  0  0  0  0  0
   44.6120   33.4600   42.7890 C   0  0  0  0  0  0  0  0  0  0  0  0
   45.4990   34.1360   43.6550 C   0  0  0  0  0  0  0  0  0  0  0  0
   45.4330   35.5050   43.4600 C   0  0  0  0  0  0  0  0  0  0  0  0
   44.6830   36.2170   42.6060 C   0  0  0  0  0  0  0  0  0  0  0  0
   43.8510   35.4900   41.8010 C   0  0  0  0  0  0  0  0  0  0  0  0
   43.8050   34.1440   41.8790 C   0  0  0  0  0  0  0  0  0  0  0  0
   46.0440   36.1900   44.0860 H   0  0  0  0  0  0  0  0  0  0  0  0
   44.6600   37.2750   42.4820 H   0  0  0  0  0  0  0  0  0  0  0  0
   43.1730   35.8790   41.0520 H   0  0  0  0  0  0  0  0  0  0  0  0
   42.9280   33.2500   41.0460 C   0  0  0  0  0  2  0  0  0  0  0  0
   41.4800   33.6490   41.1100 C   0  0  0  0  0  2  0  0  0  0  0  0
   40.9110   32.8160   40.6350 H   0  0  0  0  0  0  0  0  0  0  0  0
  1  6  1  0  0  0  0
  1 17  1  0  0  0  0
  2  1  2  0  0  0  0
  3  4  2  0  0  0  0
  3  2  1  0  0  0  0
  4  5  1  0  0  0  0
  5  8  1  0  0  0  0
  5  6  2  0  0  0  0
  7  3  1  0  0  0  0
  9  2  1  0  0  0  0
  9 12  1  0  0  0  0
 10 13  1  0  0  0  0
 10  9  1  0  0  0  0
 11 10  1  0  0  0  0
 11  9  1  0  0  0  0
 14 10  1  0  0  0  0
 15 11  1  0  0  0  0
 16 11  1  0  0  0  0
 17 18  2  0  0  0  0
 20 19  1  0  0  0  0
 20 21  1  0  0  0  0
 21 17  1  0  0  0  0
 22 21  2  0  0  0  0
 22 26  1  0  0  0  0
 23 22  1  0  0  0  0
 24 25  1  0  0  0  0
 24 23  2  0  0  0  0
 25 20  2  0  0  0  0
 27 23  1  0  0  0  0
 28 24  1  0  0  0  0
 29 30  1  0  0  0  0
 29 25  1  0  0  0  0
 31 30  1  0  0  0  0
M  END
>  <minimizedAffinity>
-5.00686169

>  <minimizedRMSD>
0.146772072

$$$$
