
 OpenBabel03242523193D

 31 33  0  0  0  0  0  0  0  0999 V2000
   47.3850   32.8060   44.0410 C   0  0  0  0  0  0  0  0  0  0  0  0
   48.2330   33.2990   43.1260 C   0  0  0  0  0  0  0  0  0  0  0  0
   49.0780   32.3620   42.5600 C   0  0  0  0  0  0  0  0  0  0  0  0
   48.9780   31.0270   42.9820 N   0  0  0  0  0  0  0  0  0  0  0  0
   48.1240   30.6190   43.8890 C   0  0  0  0  0  0  0  0  0  0  0  0
   47.2620   31.5220   44.4740 N   0  0  0  0  0  0  0  0  0  0  0  0
   49.8240   32.5500   41.8100 H   0  0  0  0  0  0  0  0  0  0  0  0
   48.1640   29.5580   44.1140 H   0  0  0  0  0  0  0  0  0  0  0  0
   48.4070   34.6690   42.7910 C   0  0  0  0  0  0  0  0  0  0  0  0
   49.4190   35.2550   42.0990 C   0  0  0  0  0  0  0  0  0  0  0  0
   48.1810   35.0620   41.2710 C   0  0  0  0  0  0  0  0  0  0  0  0
   47.9490   35.3640   43.5210 H   0  0  0  0  0  0  0  0  0  0  0  0
   49.7520   36.3160   42.0810 H   0  0  0  0  0  0  0  0  0  0  0  0
   50.2770   34.6170   41.7250 H   0  0  0  0  0  0  0  0  0  0  0  0
   47.4790   35.9080   41.1550 H   0  0  0  0  0  0  0  0  0  0  0  0
   48.0950   34.1770   40.6110 H   0  0  0  0  0  0  0  0  0  0  0  0
   46.3180   33.5440   44.7310 C   0  0  0  0  0  0  0  0  0  0  0  0
   45.7410   33.9340   45.7160 O   0  0  0  0  0  0  0  0  0  0  0  0
   44.5690   31.7570   42.9270 Cl  0  0  0  0  0  0  0  0  0  0  0  0
   44.5860   33.5090   42.7910 C   0  0  0  0  0  0  0  0  0  0  0  0
   45.4360   34.1740   43.7000 C   0  0  0  0  0  0  0  0  0  0  0  0
   45.3790   35.5450   43.5190 C   0  0  0  0  0  0  0  0  0  0  0  0
   44.6640   36.2680   42.6430 C   0  0  0  0  0  0  0  0  0  0  0  0
   43.8660   35.5500   41.7960 C   0  0  0  0  0  0  0  0  0  0  0  0
   43.8180   34.2030   41.8560 C   0  0  0  0  0  0  0  0  0  0  0  0
   45.9630   36.2230   44.1780 H   0  0  0  0  0  0  0  0  0  0  0  0
   44.6460   37.3270   42.5300 H   0  0  0  0  0  0  0  0  0  0  0  0
   43.2200   35.9480   41.0240 H   0  0  0  0  0  0  0  0  0  0  0  0
   42.9750   33.3200   40.9770 C   0  0  0  0  0  2  0  0  0  0  0  0
   41.8070   34.0530   40.3800 C   0  0  0  0  0  2  0  0  0  0  0  0
   41.1540   33.2730   39.9250 H   0  0  0  0  0  0  0  0  0  0  0  0
  1  6  1  0  0  0  0
  1 17  1  0  0  0  0
  2  1  2  0  0  0  0
  3  4  2  0  0  0  0
  3  2  1  0  0  0  0
  4  5  1  0  0  0  0
  5  8  1  0  0  0  0
  5  6  2  0  0  0  0
  7  3  1  0  0  0  0
  9  2  1  0  0  0  0
  9 12  1  0  0  0  0
 10  9  1  0  0  0  0
 11 10  1  0  0  0  0
 11  9  1  0  0  0  0
 13 10  1  0  0  0  0
 14 10  1  0  0  0  0
 15 11  1  0  0  0  0
 16 11  1  0  0  0  0
 17 18  2  0  0  0  0
 20 19  1  0  0  0  0
 20 21  1  0  0  0  0
 21 17  1  0  0  0  0
 22 21  2  0  0  0  0
 22 26  1  0  0  0  0
 23 22  1  0  0  0  0
 24 25  1  0  0  0  0
 24 23  2  0  0  0  0
 25 20  2  0  0  0  0
 27 23  1  0  0  0  0
 28 24  1  0  0  0  0
 29 25  1  0  0  0  0
 30 29  1  0  0  0  0
 31 30  1  0  0  0  0
M  END
>  <minimizedAffinity>
-4.99965429

>  <minimizedRMSD>
0.192831635

$$$$
