
 OpenBabel03242510083D

 22 23  0  0  0  0  0  0  0  0999 V2000
   44.6150   33.1580   41.1480 Br  0  0  0  0  0  0  0  0  0  0  0  0
   46.3190   34.0180   40.9210 C   0  0  0  0  0  0  0  0  0  0  0  0
   46.8520   34.7600   41.9430 C   0  0  0  0  0  0  0  0  0  0  0  0
   48.0870   35.3930   41.7900 C   0  0  0  0  0  0  0  0  0  0  0  0
   48.7540   35.2590   40.6120 C   0  0  0  0  0  0  0  0  0  0  0  0
   48.1770   34.5000   39.6130 C   0  0  0  0  0  0  0  0  0  0  0  0
   46.9700   33.8670   39.7210 C   0  0  0  0  0  0  0  0  0  0  0  0
   48.4920   35.9690   42.6040 H   0  0  0  0  0  0  0  0  0  0  0  0
   49.7140   35.7410   40.4890 H   0  0  0  0  0  0  0  0  0  0  0  0
   48.7370   34.4060   38.6800 H   0  0  0  0  0  0  0  0  0  0  0  0
   45.6060   34.0500   45.3110 C   0  0  0  0  0  0  0  0  0  0  0  0
   44.7030   35.0890   45.5650 C   0  0  0  0  0  0  0  0  0  0  0  0
   44.5400   36.0360   44.5500 C   0  0  0  0  0  0  0  0  0  0  0  0
   45.2440   35.9040   43.4000 N   0  0  0  0  0  0  0  0  0  0  0  0
   46.1070   34.8860   43.1890 C   0  0  0  0  0  0  0  0  0  0  0  0
   46.2820   33.9560   44.1590 N   0  0  0  0  0  0  0  0  0  0  0  0
   45.8180   33.2650   46.0180 H   0  0  0  0  0  0  0  0  0  0  0  0
   44.1800   35.1130   46.5210 H   0  0  0  0  0  0  0  0  0  0  0  0
   43.8370   36.8450   44.7340 H   0  0  0  0  0  0  0  0  0  0  0  0
   46.3470   33.0510   38.6520 C   0  0  0  0  0  0  0  0  0  0  0  0
   46.8760   33.4220   37.2810 C   0  0  0  0  0  0  0  0  0  0  0  0
   47.7880   34.0270   37.4110 H   0  0  0  0  0  0  0  0  0  0  0  0
  2  1  1  0  0  0  0
  2  3  1  0  0  0  0
  3 15  1  0  0  0  0
  4  3  2  0  0  0  0
  4  8  1  0  0  0  0
  5  4  1  0  0  0  0
  6  7  1  0  0  0  0
  6  5  2  0  0  0  0
  7  2  2  0  0  0  0
  9  5  1  0  0  0  0
 10  6  1  0  0  0  0
 11 12  1  0  0  0  0
 11 17  1  0  0  0  0
 12 18  1  0  0  0  0
 13 19  1  0  0  0  0
 13 12  2  0  0  0  0
 14 13  1  0  0  0  0
 15 14  2  0  0  0  0
 15 16  1  0  0  0  0
 16 11  2  0  0  0  0
 20  7  1  0  0  0  0
 21 22  1  0  0  0  0
 21 20  1  0  0  0  0
M  END
>  <minimizedAffinity>
-5.15230942

>  <minimizedRMSD>
0.236537516

$$$$
