
     RDKit          3D

 34 36  0  0  0  0  0  0  0  0999 V2000
   45.9720   33.5779   45.5675 C   0  0  0  0  0  0  0  0  0  0  0  0
   45.0132   34.4888   45.8274 C   0  0  0  0  0  0  0  0  0  0  0  0
   44.6309   35.4807   44.9619 C   0  0  0  0  0  0  0  0  0  0  0  0
   45.2872   35.5075   43.7815 N   0  0  0  0  0  0  0  0  0  0  0  0
   46.2347   34.6201   43.5055 C   0  0  0  0  0  0  0  0  0  0  0  0
   46.6170   33.6304   44.3676 N   0  0  0  0  0  0  0  0  0  0  0  0
   46.1100   30.3290   47.2694 C   0  0  0  0  0  0  0  0  0  0  0  0
   47.0148   30.5815   48.3067 C   0  0  0  0  0  0  0  0  0  0  0  0
   47.5706   31.8506   48.4198 C   0  0  0  0  0  0  0  0  0  0  0  0
   47.2131   32.8161   47.5087 N   0  0  0  0  0  0  0  0  0  0  0  0
   46.3404   32.5384   46.5246 C   0  0  0  0  0  0  0  0  0  0  0  0
   45.7986   31.3185   46.4061 N   0  0  0  0  0  0  0  0  0  0  0  0
   46.9429   34.6588   42.2105 C   0  0  0  0  0  0  0  0  0  0  0  0
   46.4674   33.9472   41.1395 C   0  0  0  0  0  0  0  0  0  0  0  0
   47.0782   33.9298   39.8972 C   0  0  0  0  0  0  0  0  0  0  0  0
   48.2357   34.6743   39.7287 C   0  0  0  0  0  0  0  0  0  0  0  0
   48.7099   35.3792   40.7841 C   0  0  0  0  0  0  0  0  0  0  0  0
   48.0864   35.3803   42.0045 C   0  0  0  0  0  0  0  0  0  0  0  0
   44.4760   34.4731   46.7824 H   0  0  0  0  0  0  0  0  0  0  0  0
   43.8463   36.2118   45.1956 H   0  0  0  0  0  0  0  0  0  0  0  0
   45.6685   29.3455   47.1680 H   0  0  0  0  0  0  0  0  0  0  0  0
   47.2548   29.7675   48.9962 H   0  0  0  0  0  0  0  0  0  0  0  0
   48.2771   32.0611   49.2238 H   0  0  0  0  0  0  0  0  0  0  0  0
   45.5504   33.3553   41.2634 H   0  0  0  0  0  0  0  0  0  0  0  0
   46.6362   33.3356   39.0892 H   0  0  0  0  0  0  0  0  0  0  0  0
   48.7281   34.6720   38.7609 H   0  0  0  0  0  0  0  0  0  0  0  0
   49.6165   35.9447   40.6028 H   0  0  0  0  0  0  0  0  0  0  0  0
   48.6885   36.1901   43.0769 C   0  0  0  0  0  0  0  0  0  0  0  0
   50.1771   36.1915   42.9175 C   0  0  0  0  0  0  0  0  0  0  0  0
   50.4571   35.7864   41.9356 H   0  0  0  0  0  0  0  0  0  0  0  0
   48.3272   37.2388   42.9323 H   0  0  0  0  0  0  0  0  0  0  0  0
   48.4366   35.8247   44.0969 H   0  0  0  0  0  0  0  0  0  0  0  0
   50.6477   35.5392   43.7093 H   0  0  0  0  0  0  0  0  0  0  0  0
   50.5556   37.2290   43.0729 H   0  0  0  0  0  0  0  0  0  0  0  0
  1  2  2  0
  1 11  1  0
  3  2  1  0
  4  3  2  0
  5  4  1  0
  5  6  2  0
  6  1  1  0
  7  8  2  0
  8  9  1  0
 10  9  2  0
 11 10  1  0
 12 11  2  0
 12  7  1  0
 13  5  1  0
 14 13  2  0
 15 14  1  0
 16 15  2  0
 16 17  1  0
 17 18  2  0
 18 13  1  0
  2 19  1  0
  3 20  1  0
  7 21  1  0
  8 22  1  0
  9 23  1  0
 14 24  1  0
 15 25  1  0
 16 26  1  0
 17 27  1  0
 28 29  1  0
 29 30  1  0
 28 31  1  0
 28 32  1  0
 29 33  1  0
 29 34  1  0
 18 28  1  0
M  ISO  8  19  14  20  14  21  14  22  14  23  14  24  14  25  14  26  14
M  ISO  2  27  14  30   8
M  END
>  <DihAtoms>  (1) 
16,17,27,28

>  <DihDeg>  (1) 
101.73450794758985

$$$$
