
 OpenBabel03242521213D

 30 32  0  0  0  0  0  0  0  0999 V2000
   45.6520   32.9120   39.7500 C   0  0  0  0  0  0  0  0  0  0  0  0
   44.4790   33.3380   39.2420 C   0  0  0  0  0  0  0  0  0  0  0  0
   43.9710   32.9500   38.0290 C   0  0  0  0  0  0  0  0  0  0  0  0
   44.7340   32.0810   37.3310 N   0  0  0  0  0  0  0  0  0  0  0  0
   45.8930   31.6470   37.8130 C   0  0  0  0  0  0  0  0  0  0  0  0
   46.4000   32.0340   39.0230 N   0  0  0  0  0  0  0  0  0  0  0  0
   43.8540   34.0420   39.8030 H   0  0  0  0  0  0  0  0  0  0  0  0
   43.0120   33.3110   37.6370 H   0  0  0  0  0  0  0  0  0  0  0  0
   46.7160   30.6960   37.0410 C   0  0  0  0  0  0  0  0  0  0  0  0
   46.4660   29.3480   37.1110 C   0  0  0  0  0  0  0  0  0  0  0  0
   47.1970   28.3960   36.4220 C   0  0  0  0  0  0  0  0  0  0  0  0
   48.2390   28.8290   35.6160 C   0  0  0  0  0  0  0  0  0  0  0  0
   48.4890   30.1590   35.5430 C   0  0  0  0  0  0  0  0  0  0  0  0
   47.7510   31.0830   36.2360 C   0  0  0  0  0  0  0  0  0  0  0  0
   45.6420   28.9960   37.7470 H   0  0  0  0  0  0  0  0  0  0  0  0
   46.9350   27.3370   36.5300 H   0  0  0  0  0  0  0  0  0  0  0  0
   48.8220   28.0950   35.0680 H   0  0  0  0  0  0  0  0  0  0  0  0
   49.3130   30.4480   34.9000 H   0  0  0  0  0  0  0  0  0  0  0  0
   48.1090   32.5020   36.0730 C   0  0  0  0  0  2  0  0  0  0  0  0
   48.6760   32.7140   34.7040 C   0  0  0  0  0  2  0  0  0  0  0  0
   48.4920   31.8330   34.0730 H   0  0  0  0  0  0  0  0  0  0  0  0
   46.4160   32.9360   43.3390 C   0  0  0  0  0  0  0  0  0  0  0  0
   47.0630   34.1680   43.4920 C   0  0  0  0  0  0  0  0  0  0  0  0
   47.2350   34.9790   42.3750 C   0  0  0  0  0  0  0  0  0  0  0  0
   46.7640   34.5440   41.1600 N   0  0  0  0  0  0  0  0  0  0  0  0
   46.1470   33.3550   41.0510 C   0  0  0  0  0  0  0  0  0  0  0  0
   45.9760   32.5650   42.1180 N   0  0  0  0  0  0  0  0  0  0  0  0
   46.2750   32.2940   44.1990 H   0  0  0  0  0  0  0  0  0  0  0  0
   47.4130   34.4510   44.4880 H   0  0  0  0  0  0  0  0  0  0  0  0
   47.7370   35.9420   42.4800 H   0  0  0  0  0  0  0  0  0  0  0  0
  1 26  1  0  0  0  0
  2  1  1  0  0  0  0
  2  7  1  0  0  0  0
  3  2  2  0  0  0  0
  4  5  2  0  0  0  0
  4  3  1  0  0  0  0
  5  6  1  0  0  0  0
  6  1  2  0  0  0  0
  8  3  1  0  0  0  0
  9 10  1  0  0  0  0
  9  5  1  0  0  0  0
 10 15  1  0  0  0  0
 11 16  1  0  0  0  0
 11 10  2  0  0  0  0
 12 11  1  0  0  0  0
 13 12  2  0  0  0  0
 13 14  1  0  0  0  0
 14  9  2  0  0  0  0
 17 12  1  0  0  0  0
 18 13  1  0  0  0  0
 19 14  1  0  0  0  0
 20 19  1  0  0  0  0
 21 20  1  0  0  0  0
 22 23  1  0  0  0  0
 22 28  1  0  0  0  0
 23 29  1  0  0  0  0
 24 30  1  0  0  0  0
 24 23  2  0  0  0  0
 25 24  1  0  0  0  0
 26 25  2  0  0  0  0
 26 27  1  0  0  0  0
 27 22  2  0  0  0  0
M  END
>  <minimizedAffinity>
-2.98976541

>  <minimizedRMSD>
6.72042561

$$$$
