
 OpenBabel03242523393D

 31 34  0  0  1  0  0  0  0  0999 V2000
   46.5360   32.3570   45.0560 C   0  0  2  0  0  0  0  0  0  0  0  0
   46.8060   31.1050   44.9720 N   0  0  1  0  0  0  0  0  0  0  0  0
   47.8170   30.4020   44.7840 C   0  0  0  0  0  0  0  0  0  0  0  0
   47.9250   30.1700   46.1060 N   0  0  0  0  0  0  0  0  0  0  0  0
   47.1130   30.8610   46.9510 C   0  0  2  0  0  0  0  0  0  0  0  0
   47.0590   30.4020   48.2940 C   0  0  0  0  0  0  0  0  0  0  0  0
   46.2320   31.0490   49.1460 C   0  0  0  0  0  0  0  0  0  0  0  0
   45.4430   32.1130   48.8140 C   0  0  0  0  0  0  0  0  0  0  0  0
   45.5830   32.4670   47.4850 C   0  0  0  0  0  0  0  0  0  0  0  0
   46.3610   31.9550   46.4450 C   0  0  1  0  0  0  0  0  0  0  0  0
   47.6060   32.8370   45.0800 H   0  0  0  0  0  0  0  0  0  0  0  0
   45.9290   30.5910   44.6120 H   0  0  0  0  0  0  0  0  0  0  0  0
   48.7440   30.8740   44.3430 H   0  0  0  0  0  0  0  0  0  0  0  0
   47.7150   29.4330   44.2100 H   0  0  0  0  0  0  0  0  0  0  0  0
   48.6550   29.4500   46.3680 H   0  0  0  0  0  0  0  0  0  0  0  0
   47.6320   29.5860   48.6460 H   0  0  0  0  0  0  0  0  0  0  0  0
   46.2020   30.6770   50.1860 H   0  0  0  0  0  0  0  0  0  0  0  0
   44.8130   32.5850   49.5070 H   0  0  0  0  0  0  0  0  0  0  0  0
   44.9080   33.2920   47.2920 H   0  0  0  0  0  0  0  0  0  0  0  0
   44.5720   35.5080   45.3180 C   0  0  0  0  0  0  0  0  0  0  0  0
   44.3010   35.5980   43.9670 C   0  0  0  0  0  0  0  0  0  0  0  0
   44.7940   34.6060   43.1350 C   0  0  0  0  0  0  0  0  0  0  0  0
   45.5080   33.6220   43.7360 N   0  0  0  0  0  0  0  0  0  0  0  0
   45.7660   33.5480   45.0590 C   0  0  0  0  0  0  0  0  0  0  0  0
   45.2710   34.4990   45.7100 N   0  0  0  0  0  0  0  0  0  0  0  0
   44.2160   36.2500   46.0200 H   0  0  0  0  0  0  0  0  0  0  0  0
   43.7110   36.4480   43.6190 H   0  0  0  0  0  0  0  0  0  0  0  0
   44.4820   34.7160   41.3890 S   0  0  0  0  0  0  0  0  0  0  0  0
   42.8430   35.3550   41.0720 C   0  0  0  0  0  0  0  0  0  0  0  0
   42.4820   35.0820   39.6260 C   0  0  0  0  0  0  0  0  0  0  0  0
   42.5040   36.0540   39.0580 H   0  0  0  0  0  0  0  0  0  0  0  0
  1 24  1  0  0  0  0
  1 11  1  1  0  0  0
  1 10  1  0  0  0  0
  2 12  1  6  0  0  0
  2  1  1  0  0  0  0
  2 10  1  0  0  0  0
  3  2  1  0  0  0  0
  3  4  1  0  0  0  0
  4 15  1  0  0  0  0
  4  5  1  0  0  0  0
  5  6  1  6  0  0  0
  6 16  1  0  0  0  0
  6  7  2  0  0  0  0
  7 17  1  0  0  0  0
  8  7  1  0  0  0  0
  8 18  1  0  0  0  0
  9  8  2  0  0  0  0
 10  5  1  0  0  0  0
 10  9  1  1  0  0  0
 13  3  1  0  0  0  0
 14  3  1  0  0  0  0
 19  9  1  0  0  0  0
 20 25  1  0  0  0  0
 20 26  1  0  0  0  0
 21 20  2  0  0  0  0
 22 23  2  0  0  0  0
 22 21  1  0  0  0  0
 23 24  1  0  0  0  0
 24 25  2  0  0  0  0
 27 21  1  0  0  0  0
 28 22  1  0  0  0  0
 29 28  1  0  0  0  0
 30 29  1  0  0  0  0
 31 30  1  0  0  0  0
M  END
>  <minimizedAffinity>
-5.18322229

>  <minimizedRMSD>
0.424094886

$$$$
