
     RDKit          3D

 40 42  0  0  0  0  0  0  0  0999 V2000
   44.5901   34.4388   42.9359 C   0  0  0  0  0  0  0  0  0  0  0  0
   44.3047   35.6864   43.5518 C   0  0  0  0  0  0  0  0  0  0  0  0
   44.6187   35.8172   44.9019 C   0  0  0  0  0  0  0  0  0  0  0  0
   45.1726   34.7533   45.5393 N   0  0  0  0  0  0  0  0  0  0  0  0
   45.4308   33.5663   44.9029 C   0  0  0  0  0  0  0  0  0  0  0  0
   45.1331   33.4745   43.6619 N   0  0  0  0  0  0  0  0  0  0  0  0
   46.0266   32.4561   45.6791 C   0  0  1  0  0  0  0  0  0  0  0  0
   46.9689   32.7681   46.8132 C   0  0  0  0  0  0  0  0  0  0  0  0
   45.5532   32.3564   47.0762 C   0  0  1  0  0  0  0  0  0  0  0  0
   44.7525   33.4262   47.6556 N   0  0  0  0  0  0  0  0  0  0  0  0
   44.2517   34.3081   41.5461 C   0  0  0  0  0  0  0  0  0  0  0  0
   45.1272   34.1288   40.6370 O   0  0  0  0  0  0  0  0  0  0  0  0
   41.9616   33.3200   41.3490 C   0  0  0  0  0  0  0  0  0  0  0  0
   42.8058   34.4052   41.3077 C   0  0  0  0  0  0  0  0  0  0  0  0
   42.2580   35.6615   41.0328 C   0  0  0  0  0  0  0  0  0  0  0  0
   40.9043   35.8304   40.8052 C   0  0  0  0  0  0  0  0  0  0  0  0
   40.0625   34.7468   40.8465 C   0  0  0  0  0  0  0  0  0  0  0  0
   40.6042   33.5190   41.1163 C   0  0  0  0  0  0  0  0  0  0  0  0
   42.5431   31.7677   41.6066 S   0  0  0  0  0  0  0  0  0  0  0  0
   42.4309   31.0869   40.2689 O   0  0  0  0  0  0  0  0  0  0  0  0
   41.6204   31.0453   42.6191 O   0  0  0  0  0  0  0  0  0  0  0  0
   43.8686   36.5600   43.0953 H   0  0  0  0  0  0  0  0  0  0  0  0
   44.4308   36.7336   45.4341 H   0  0  0  0  0  0  0  0  0  0  0  0
   46.2177   31.5129   45.1191 H   0  0  0  0  0  0  0  0  0  0  0  0
   47.3132   33.8052   46.9326 H   0  0  0  0  0  0  0  0  0  0  0  0
   47.7670   32.0101   47.0324 H   0  0  0  0  0  0  0  0  0  0  0  0
   45.4008   31.3164   47.4610 H   0  0  0  0  0  0  0  0  0  0  0  0
   45.2817   33.8907   48.4143 H   0  0  0  0  0  0  0  0  0  0  0  0
   43.8476   33.0087   47.9209 H   0  0  0  0  0  0  0  0  0  0  0  0
   42.8255   36.5735   40.9714 H   0  0  0  0  0  0  0  0  0  0  0  0
   40.4747   36.7720   40.5962 H   0  0  0  0  0  0  0  0  0  0  0  0
   39.0189   34.8336   40.6776 H   0  0  0  0  0  0  0  0  0  0  0  0
   39.9322   32.6602   41.1486 H   0  0  0  0  0  0  0  0  0  0  0  0
   43.9906   31.1151   42.0512 C   0  0  0  0  0  0  0  0  0  0  0  0
   44.7196   32.1117   43.0299 C   0  0  0  0  0  0  0  0  0  0  0  0
   45.6310   31.6493   43.3920 H   0  0  0  0  0  0  0  0  0  0  0  0
   44.1158   30.1858   42.6088 H   0  0  0  0  0  0  0  0  0  0  0  0
   44.8088   31.2330   41.2589 H   0  0  0  0  0  0  0  0  0  0  0  0
   43.9444   32.2992   43.8204 H   0  0  0  0  0  0  0  0  0  0  0  0
   44.9000   33.0690   42.5504 H   0  0  0  0  0  0  0  0  0  0  0  0
  1  2  2  0
  1  6  1  0
  2  3  1  0
  3  4  2  0
  5  4  1  0
  5  7  1  0
  6  5  2  0
  7  8  1  0
  7  9  1  0
  8  9  1  0
  9 10  1  0
 11  1  1  0
 12 11  2  0
 13 19  1  0
 14 13  2  0
 14 11  1  0
 15 14  1  0
 16 17  1  0
 16 15  2  0
 17 18  2  0
 18 13  1  0
 19 21  2  0
 20 19  2  0
  2 22  1  0
  3 23  1  0
  7 24  1  6
  8 25  1  0
  8 26  1  0
  9 27  1  1
 10 28  1  0
 10 29  1  0
 15 30  1  0
 16 31  1  0
 17 32  1  0
 18 33  1  0
 34 35  1  0
 35 36  1  0
 34 37  1  0
 34 38  1  0
 35 39  1  0
 35 40  1  0
 19 34  1  0
M  ISO  8  22  14  23  14  24  13  25  13  26  13  27  13  28   5  29   5
M  ISO  5  30  14  31  14  32  14  33  14  36   8
M  END
>  <DihAtoms>  (1) 
12,18,33,34

>  <DihDeg>  (1) 
-177.38292717598307

$$$$
