
 OpenBabel03252509073D

 35 37  0  0  0  0  0  0  0  0999 V2000
   45.3820   35.3200   43.2190 Cl  0  0  0  0  0  0  0  0  0  0  0  0
   45.2110   34.5620   41.6620 C   0  0  0  0  0  0  0  0  0  0  0  0
   46.2930   34.1640   40.9550 C   0  0  0  0  0  0  0  0  0  0  0  0
   46.0450   33.5680   39.7240 C   0  0  0  0  0  0  0  0  0  0  0  0
   44.7780   33.3830   39.2310 C   0  0  0  0  0  0  0  0  0  0  0  0
   43.7050   33.7920   39.9630 C   0  0  0  0  0  0  0  0  0  0  0  0
   43.9310   34.3860   41.1890 C   0  0  0  0  0  0  0  0  0  0  0  0
   44.6000   32.9200   38.2720 H   0  0  0  0  0  0  0  0  0  0  0  0
   42.6960   33.6590   39.5990 H   0  0  0  0  0  0  0  0  0  0  0  0
   43.0700   34.7060   41.7590 H   0  0  0  0  0  0  0  0  0  0  0  0
   47.6310   31.8330   38.8730 C   0  0  0  0  0  0  0  0  0  0  0  0
   47.1710   33.1140   38.9290 C   0  0  0  0  0  0  0  0  0  0  0  0
   47.8210   34.0660   38.1650 C   0  0  0  0  0  0  0  0  0  0  0  0
   48.8940   33.7310   37.3760 C   0  0  0  0  0  0  0  0  0  0  0  0
   49.3650   32.4270   37.3140 C   0  0  0  0  0  0  0  0  0  0  0  0
   48.7150   31.4660   38.0810 C   0  0  0  0  0  0  0  0  0  0  0  0
   47.4900   35.0990   38.1790 H   0  0  0  0  0  0  0  0  0  0  0  0
   49.3830   34.4920   36.7900 H   0  0  0  0  0  0  0  0  0  0  0  0
   50.1970   32.1790   36.6990 H   0  0  0  0  0  0  0  0  0  0  0  0
   49.0780   30.4460   38.0380 H   0  0  0  0  0  0  0  0  0  0  0  0
   46.8660   30.6020   39.7540 S   0  0  0  0  0  0  0  0  0  0  0  0
   45.5580   30.1590   39.1370 O   0  0  0  0  0  0  0  0  0  0  0  0
   47.7800   29.3600   39.5820 O   0  0  0  0  0  0  0  0  0  0  0  0
   46.5950   30.6060   41.4270 C   0  0  0  0  0  2  0  0  0  0  0  0
   47.8520   29.8920   42.0240 C   0  0  0  0  0  2  0  0  0  0  0  0
   48.7220   30.5770   41.8260 H   0  0  0  0  0  0  0  0  0  0  0  0
   49.5780   35.7520   41.9200 C   0  0  0  0  0  0  0  0  0  0  0  0
   48.3020   35.5660   41.3840 C   0  0  0  0  0  0  0  0  0  0  0  0
   47.6170   34.3710   41.5020 C   0  0  0  0  0  0  0  0  0  0  0  0
   48.2780   33.4020   42.1720 N   0  0  0  0  0  0  0  0  0  0  0  0
   49.5070   33.5690   42.6930 C   0  0  0  0  0  0  0  0  0  0  0  0
   50.1420   34.7350   42.5630 N   0  0  0  0  0  0  0  0  0  0  0  0
   50.0530   36.7120   41.7900 H   0  0  0  0  0  0  0  0  0  0  0  0
   47.8440   36.3900   40.8630 H   0  0  0  0  0  0  0  0  0  0  0  0
   49.9730   32.7460   43.2180 H   0  0  0  0  0  0  0  0  0  0  0  0
  2  1  1  0  0  0  0
  3 29  1  0  0  0  0
  3  2  2  0  0  0  0
  4  3  1  0  0  0  0
  5  4  2  0  0  0  0
  5  6  1  0  0  0  0
  6  7  2  0  0  0  0
  7  2  1  0  0  0  0
  7 10  1  0  0  0  0
  8  5  1  0  0  0  0
  9  6  1  0  0  0  0
 11 12  1  0  0  0  0
 11 21  1  0  0  0  0
 12  4  1  0  0  0  0
 13 17  1  0  0  0  0
 13 12  2  0  0  0  0
 14 13  1  0  0  0  0
 15 14  2  0  0  0  0
 15 16  1  0  0  0  0
 16 11  2  0  0  0  0
 18 14  1  0  0  0  0
 19 15  1  0  0  0  0
 20 16  1  0  0  0  0
 21 24  1  0  0  0  0
 22 21  2  0  0  0  0
 23 21  2  0  0  0  0
 24 25  1  0  0  0  0
 26 25  1  0  0  0  0
 27 32  1  0  0  0  0
 28 29  1  0  0  0  0
 28 27  2  0  0  0  0
 29 30  2  0  0  0  0
 30 31  1  0  0  0  0
 31 35  1  0  0  0  0
 32 31  2  0  0  0  0
 33 27  1  0  0  0  0
 34 28  1  0  0  0  0
M  END
>  <minimizedAffinity>
-4.42112684

>  <minimizedRMSD>
0.617587388

$$$$
