
 OpenBabel03252509093D

 35 37  0  0  0  0  0  0  0  0999 V2000
   39.5470   30.7780   42.8600 Cl  0  0  0  0  0  0  0  0  0  0  0  0
   38.3130   29.5740   42.6340 C   0  0  0  0  0  0  0  0  0  0  0  0
   37.6150   29.4960   41.4780 C   0  0  0  0  0  0  0  0  0  0  0  0
   36.6520   28.4960   41.4010 C   0  0  0  0  0  0  0  0  0  0  0  0
   36.4040   27.6240   42.4310 C   0  0  0  0  0  0  0  0  0  0  0  0
   37.1200   27.7240   43.5850 C   0  0  0  0  0  0  0  0  0  0  0  0
   38.0820   28.7100   43.6800 C   0  0  0  0  0  0  0  0  0  0  0  0
   35.6520   26.8530   42.3580 H   0  0  0  0  0  0  0  0  0  0  0  0
   36.9460   27.0500   44.4120 H   0  0  0  0  0  0  0  0  0  0  0  0
   38.6440   28.7780   44.6020 H   0  0  0  0  0  0  0  0  0  0  0  0
   36.1450   27.4810   39.1730 C   0  0  0  0  0  0  0  0  0  0  0  0
   35.8810   28.3610   40.1790 C   0  0  0  0  0  0  0  0  0  0  0  0
   34.7890   29.1970   40.0340 C   0  0  0  0  0  0  0  0  0  0  0  0
   33.9950   29.1400   38.9150 C   0  0  0  0  0  0  0  0  0  0  0  0
   34.2600   28.2440   37.8880 C   0  0  0  0  0  0  0  0  0  0  0  0
   35.3580   27.4030   38.0280 C   0  0  0  0  0  0  0  0  0  0  0  0
   34.5400   29.9140   40.8090 H   0  0  0  0  0  0  0  0  0  0  0  0
   33.1490   29.8020   38.8250 H   0  0  0  0  0  0  0  0  0  0  0  0
   33.6380   28.2080   37.0250 H   0  0  0  0  0  0  0  0  0  0  0  0
   35.5700   26.7000   37.2300 H   0  0  0  0  0  0  0  0  0  0  0  0
   37.4480   26.4010   39.2920 S   0  0  0  0  0  0  0  0  0  0  0  0
   37.1770   25.2530   40.2380 O   0  0  0  0  0  0  0  0  0  0  0  0
   37.5210   25.7100   37.9040 O   0  0  0  0  0  0  0  0  0  0  0  0
   39.0660   26.8290   39.5540 C   0  0  0  0  0  2  0  0  0  0  0  0
   39.4480   26.1010   40.8850 C   0  0  0  0  0  2  0  0  0  0  0  0
   39.4270   25.0010   40.6540 H   0  0  0  0  0  0  0  0  0  0  0  0
   37.5560   32.5440   39.2530 C   0  0  0  0  0  0  0  0  0  0  0  0
   37.2680   31.6520   40.2890 C   0  0  0  0  0  0  0  0  0  0  0  0
   37.9010   30.4280   40.4090 C   0  0  0  0  0  0  0  0  0  0  0  0
   38.8120   30.1650   39.4490 N   0  0  0  0  0  0  0  0  0  0  0  0
   39.0990   31.0140   38.4460 C   0  0  0  0  0  0  0  0  0  0  0  0
   38.4720   32.1890   38.3580 N   0  0  0  0  0  0  0  0  0  0  0  0
   37.0240   33.4820   39.2220 H   0  0  0  0  0  0  0  0  0  0  0  0
   36.5260   31.9380   41.0150 H   0  0  0  0  0  0  0  0  0  0  0  0
   39.8440   30.7340   37.7140 H   0  0  0  0  0  0  0  0  0  0  0  0
  2  1  1  0  0  0  0
  2  7  1  0  0  0  0
  3  2  2  0  0  0  0
  4  3  1  0  0  0  0
  4  5  2  0  0  0  0
  5  6  1  0  0  0  0
  6  7  2  0  0  0  0
  6  9  1  0  0  0  0
  7 10  1  0  0  0  0
  8  5  1  0  0  0  0
 11 21  1  0  0  0  0
 11 12  1  0  0  0  0
 12  4  1  0  0  0  0
 13 12  2  0  0  0  0
 13 17  1  0  0  0  0
 14 13  1  0  0  0  0
 15 16  1  0  0  0  0
 15 14  2  0  0  0  0
 16 11  2  0  0  0  0
 18 14  1  0  0  0  0
 19 15  1  0  0  0  0
 20 16  1  0  0  0  0
 21 24  1  0  0  0  0
 21 22  2  0  0  0  0
 23 21  2  0  0  0  0
 24 25  1  0  0  0  0
 26 25  1  0  0  0  0
 27 28  1  0  0  0  0
 28 29  2  0  0  0  0
 28 34  1  0  0  0  0
 29  3  1  0  0  0  0
 30 29  1  0  0  0  0
 31 30  2  0  0  0  0
 32 31  1  0  0  0  0
 32 27  2  0  0  0  0
 33 27  1  0  0  0  0
 35 31  1  0  0  0  0
M  END
>  <minimizedAffinity>
-5.7031951

$$$$

 OpenBabel03252509093D

 35 37  0  0  0  0  0  0  0  0999 V2000
   35.7730   26.1410   36.8090 Cl  0  0  0  0  0  0  0  0  0  0  0  0
   35.4190   27.3230   38.0350 C   0  0  0  0  0  0  0  0  0  0  0  0
   36.1850   27.4330   39.1430 C   0  0  0  0  0  0  0  0  0  0  0  0
   35.8150   28.4120   40.0590 C   0  0  0  0  0  0  0  0  0  0  0  0
   34.7320   29.2330   39.8700 C   0  0  0  0  0  0  0  0  0  0  0  0
   33.9760   29.1020   38.7450 C   0  0  0  0  0  0  0  0  0  0  0  0
   34.3290   28.1360   37.8230 C   0  0  0  0  0  0  0  0  0  0  0  0
   34.4550   29.9880   40.5900 H   0  0  0  0  0  0  0  0  0  0  0  0
   33.1180   29.7360   38.5700 H   0  0  0  0  0  0  0  0  0  0  0  0
   33.7190   28.0430   36.9340 H   0  0  0  0  0  0  0  0  0  0  0  0
   37.5760   29.5220   41.4430 C   0  0  0  0  0  0  0  0  0  0  0  0
   36.6100   28.5790   41.2620 C   0  0  0  0  0  0  0  0  0  0  0  0
   36.3550   27.7080   42.3050 C   0  0  0  0  0  0  0  0  0  0  0  0
   37.0520   27.7920   43.4850 C   0  0  0  0  0  0  0  0  0  0  0  0
   38.0360   28.7510   43.6750 C   0  0  0  0  0  0  0  0  0  0  0  0
   38.2970   29.6280   42.6280 C   0  0  0  0  0  0  0  0  0  0  0  0
   35.5940   26.9420   42.2060 H   0  0  0  0  0  0  0  0  0  0  0  0
   36.8340   27.1010   44.2840 H   0  0  0  0  0  0  0  0  0  0  0  0
   38.5700   28.8070   44.5940 H   0  0  0  0  0  0  0  0  0  0  0  0
   39.0650   30.3810   42.7700 H   0  0  0  0  0  0  0  0  0  0  0  0
   37.9240   30.6470   40.2220 S   0  0  0  0  0  0  0  0  0  0  0  0
   36.8810   31.7360   40.1090 O   0  0  0  0  0  0  0  0  0  0  0  0
   39.1800   31.4060   40.7250 O   0  0  0  0  0  0  0  0  0  0  0  0
   38.3580   30.2730   38.6270 C   0  0  0  0  0  2  0  0  0  0  0  0
   37.2600   30.9670   37.7550 C   0  0  0  0  0  2  0  0  0  0  0  0
   37.4090   32.0730   37.8900 H   0  0  0  0  0  0  0  0  0  0  0  0
   38.3350   24.4740   40.0720 C   0  0  0  0  0  0  0  0  0  0  0  0
   37.2300   25.3140   39.9170 C   0  0  0  0  0  0  0  0  0  0  0  0
   37.3220   26.5540   39.3130 C   0  0  0  0  0  0  0  0  0  0  0  0
   38.5600   26.8880   38.8900 N   0  0  0  0  0  0  0  0  0  0  0  0
   39.6320   26.0890   39.0330 C   0  0  0  0  0  0  0  0  0  0  0  0
   39.5110   24.8970   39.6190 N   0  0  0  0  0  0  0  0  0  0  0  0
   38.1900   23.5190   40.5520 H   0  0  0  0  0  0  0  0  0  0  0  0
   36.2770   24.9720   40.2830 H   0  0  0  0  0  0  0  0  0  0  0  0
   40.5930   26.4260   38.6670 H   0  0  0  0  0  0  0  0  0  0  0  0
  1  2  1  0  0  0  0
  2  3  1  0  0  0  0
  3 29  1  0  0  0  0
  3  4  2  0  0  0  0
  4 12  1  0  0  0  0
  5  4  1  0  0  0  0
  5  8  1  0  0  0  0
  6  5  2  0  0  0  0
  7  2  2  0  0  0  0
  7  6  1  0  0  0  0
  9  6  1  0  0  0  0
 10  7  1  0  0  0  0
 11 16  1  0  0  0  0
 12 11  2  0  0  0  0
 12 13  1  0  0  0  0
 13 14  2  0  0  0  0
 14 15  1  0  0  0  0
 14 18  1  0  0  0  0
 15 19  1  0  0  0  0
 16 20  1  0  0  0  0
 16 15  2  0  0  0  0
 17 13  1  0  0  0  0
 21 23  2  0  0  0  0
 21 11  1  0  0  0  0
 22 21  2  0  0  0  0
 24 21  1  0  0  0  0
 25 26  1  0  0  0  0
 25 24  1  0  0  0  0
 27 33  1  0  0  0  0
 28 27  1  0  0  0  0
 28 34  1  0  0  0  0
 29 28  2  0  0  0  0
 30 31  2  0  0  0  0
 30 29  1  0  0  0  0
 31 32  1  0  0  0  0
 32 27  2  0  0  0  0
 35 31  1  0  0  0  0
M  END
>  <minimizedAffinity>
-5.49786997

$$$$

 OpenBabel03252509093D

 35 37  0  0  0  0  0  0  0  0999 V2000
   37.6640   31.5500   37.2630 Cl  0  0  0  0  0  0  0  0  0  0  0  0
   36.9510   30.2350   38.1520 C   0  0  0  0  0  0  0  0  0  0  0  0
   37.5030   29.7880   39.3030 C   0  0  0  0  0  0  0  0  0  0  0  0
   36.8530   28.7330   39.9340 C   0  0  0  0  0  0  0  0  0  0  0  0
   35.7110   28.1590   39.4330 C   0  0  0  0  0  0  0  0  0  0  0  0
   35.1760   28.6280   38.2720 C   0  0  0  0  0  0  0  0  0  0  0  0
   35.8070   29.6750   37.6310 C   0  0  0  0  0  0  0  0  0  0  0  0
   35.2170   27.3400   39.9330 H   0  0  0  0  0  0  0  0  0  0  0  0
   34.2770   28.1950   37.8550 H   0  0  0  0  0  0  0  0  0  0  0  0
   35.3710   30.0370   36.7100 H   0  0  0  0  0  0  0  0  0  0  0  0
   38.1130   27.0710   41.3110 C   0  0  0  0  0  0  0  0  0  0  0  0
   37.3970   28.2220   41.1780 C   0  0  0  0  0  0  0  0  0  0  0  0
   37.1670   28.9730   42.3160 C   0  0  0  0  0  0  0  0  0  0  0  0
   37.6470   28.5740   43.5390 C   0  0  0  0  0  0  0  0  0  0  0  0
   38.3790   27.4020   43.6790 C   0  0  0  0  0  0  0  0  0  0  0  0
   38.6110   26.6430   42.5380 C   0  0  0  0  0  0  0  0  0  0  0  0
   36.6020   29.8970   42.2580 H   0  0  0  0  0  0  0  0  0  0  0  0
   37.4550   29.1770   44.4110 H   0  0  0  0  0  0  0  0  0  0  0  0
   38.7470   27.1020   44.6320 H   0  0  0  0  0  0  0  0  0  0  0  0
   39.1820   25.7270   42.6400 H   0  0  0  0  0  0  0  0  0  0  0  0
   38.4640   26.1120   39.9560 S   0  0  0  0  0  0  0  0  0  0  0  0
   39.2870   26.8390   38.9160 O   0  0  0  0  0  0  0  0  0  0  0  0
   39.4350   25.0210   40.4810 O   0  0  0  0  0  0  0  0  0  0  0  0
   37.3430   25.1900   39.0800 C   0  0  0  0  0  2  0  0  0  0  0  0
   36.5010   24.4600   40.1780 C   0  0  0  0  0  2  0  0  0  0  0  0
   35.9250   25.2650   40.7130 H   0  0  0  0  0  0  0  0  0  0  0  0
   41.1270   30.5580   40.0200 C   0  0  0  0  0  0  0  0  0  0  0  0
   39.9740   29.9400   39.5290 C   0  0  0  0  0  0  0  0  0  0  0  0
   38.7050   30.4150   39.8070 C   0  0  0  0  0  0  0  0  0  0  0  0
   38.6700   31.5150   40.5890 N   0  0  0  0  0  0  0  0  0  0  0  0
   39.7720   32.1190   41.0680 C   0  0  0  0  0  0  0  0  0  0  0  0
   40.9840   31.6380   40.7810 N   0  0  0  0  0  0  0  0  0  0  0  0
   42.0850   30.1340   39.7620 H   0  0  0  0  0  0  0  0  0  0  0  0
   40.0900   29.0660   38.9120 H   0  0  0  0  0  0  0  0  0  0  0  0
   39.6650   32.9990   41.6880 H   0  0  0  0  0  0  0  0  0  0  0  0
  1  2  1  0  0  0  0
  2  3  1  0  0  0  0
  3 29  1  0  0  0  0
  3  4  2  0  0  0  0
  4 12  1  0  0  0  0
  5  8  1  0  0  0  0
  5  4  1  0  0  0  0
  6  5  2  0  0  0  0
  7  2  2  0  0  0  0
  7  6  1  0  0  0  0
  9  6  1  0  0  0  0
 10  7  1  0  0  0  0
 11 16  1  0  0  0  0
 12 11  2  0  0  0  0
 12 13  1  0  0  0  0
 13 14  2  0  0  0  0
 14 15  1  0  0  0  0
 14 18  1  0  0  0  0
 15 19  1  0  0  0  0
 16 20  1  0  0  0  0
 16 15  2  0  0  0  0
 17 13  1  0  0  0  0
 21 23  2  0  0  0  0
 21 11  1  0  0  0  0
 22 21  2  0  0  0  0
 24 21  1  0  0  0  0
 24 25  1  0  0  0  0
 25 26  1  0  0  0  0
 27 32  1  0  0  0  0
 28 29  1  0  0  0  0
 28 27  2  0  0  0  0
 29 30  2  0  0  0  0
 30 31  1  0  0  0  0
 31 35  1  0  0  0  0
 32 31  2  0  0  0  0
 33 27  1  0  0  0  0
 34 28  1  0  0  0  0
M  END
>  <minimizedAffinity>
-5.16258955

$$$$

 OpenBabel03252509093D

 35 37  0  0  0  0  0  0  0  0999 V2000
   37.0520   26.8980   36.1630 Cl  0  0  0  0  0  0  0  0  0  0  0  0
   36.3190   27.6960   37.5240 C   0  0  0  0  0  0  0  0  0  0  0  0
   36.9100   27.6910   38.7400 C   0  0  0  0  0  0  0  0  0  0  0  0
   36.2410   28.3590   39.7590 C   0  0  0  0  0  0  0  0  0  0  0  0
   35.0400   28.9950   39.5650 C   0  0  0  0  0  0  0  0  0  0  0  0
   34.4650   28.9850   38.3310 C   0  0  0  0  0  0  0  0  0  0  0  0
   35.1160   28.3270   37.3060 C   0  0  0  0  0  0  0  0  0  0  0  0
   34.5300   29.5090   40.3660 H   0  0  0  0  0  0  0  0  0  0  0  0
   33.5200   29.4790   38.1500 H   0  0  0  0  0  0  0  0  0  0  0  0
   34.6470   28.3280   36.3310 H   0  0  0  0  0  0  0  0  0  0  0  0
   37.5770   29.4200   41.5860 C   0  0  0  0  0  0  0  0  0  0  0  0
   36.8370   28.3930   41.0820 C   0  0  0  0  0  0  0  0  0  0  0  0
   36.6280   27.2910   41.8900 C   0  0  0  0  0  0  0  0  0  0  0  0
   37.1480   27.2330   43.1600 C   0  0  0  0  0  0  0  0  0  0  0  0
   37.9010   28.2770   43.6790 C   0  0  0  0  0  0  0  0  0  0  0  0
   38.1150   29.3870   42.8690 C   0  0  0  0  0  0  0  0  0  0  0  0
   36.0450   26.4500   41.5300 H   0  0  0  0  0  0  0  0  0  0  0  0
   36.9700   26.3630   43.7700 H   0  0  0  0  0  0  0  0  0  0  0  0
   38.2990   28.2220   44.6640 H   0  0  0  0  0  0  0  0  0  0  0  0
   38.7020   30.2060   43.2690 H   0  0  0  0  0  0  0  0  0  0  0  0
   37.8490   30.8190   40.6680 S   0  0  0  0  0  0  0  0  0  0  0  0
   36.6680   31.7640   40.6680 O   0  0  0  0  0  0  0  0  0  0  0  0
   38.9340   31.6050   41.4520 O   0  0  0  0  0  0  0  0  0  0  0  0
   38.4600   30.8620   39.0880 C   0  0  0  0  0  2  0  0  0  0  0  0
   37.3600   31.6160   38.2690 C   0  0  0  0  0  2  0  0  0  0  0  0
   37.3560   32.6730   38.6540 H   0  0  0  0  0  0  0  0  0  0  0  0
   40.6120   26.9870   38.9490 C   0  0  0  0  0  0  0  0  0  0  0  0
   39.3960   27.6520   38.7770 C   0  0  0  0  0  0  0  0  0  0  0  0
   38.1770   27.0140   38.9130 C   0  0  0  0  0  0  0  0  0  0  0  0
   38.2560   25.7020   39.2220 N   0  0  0  0  0  0  0  0  0  0  0  0
   39.4200   25.0490   39.3910 C   0  0  0  0  0  0  0  0  0  0  0  0
   40.5800   25.6930   39.2540 N   0  0  0  0  0  0  0  0  0  0  0  0
   41.5250   27.5480   38.8290 H   0  0  0  0  0  0  0  0  0  0  0  0
   39.4210   28.7000   38.5310 H   0  0  0  0  0  0  0  0  0  0  0  0
   39.4030   23.9960   39.6390 H   0  0  0  0  0  0  0  0  0  0  0  0
  1  2  1  0  0  0  0
  2  3  1  0  0  0  0
  3 29  1  0  0  0  0
  3  4  2  0  0  0  0
  4 12  1  0  0  0  0
  5  4  1  0  0  0  0
  5  8  1  0  0  0  0
  6  5  2  0  0  0  0
  7  2  2  0  0  0  0
  7  6  1  0  0  0  0
  9  6  1  0  0  0  0
 10  7  1  0  0  0  0
 11 16  1  0  0  0  0
 12 11  2  0  0  0  0
 12 13  1  0  0  0  0
 13 14  2  0  0  0  0
 14 15  1  0  0  0  0
 14 18  1  0  0  0  0
 15 19  1  0  0  0  0
 16 20  1  0  0  0  0
 16 15  2  0  0  0  0
 17 13  1  0  0  0  0
 21 22  2  0  0  0  0
 21 23  2  0  0  0  0
 21 11  1  0  0  0  0
 24 21  1  0  0  0  0
 25 26  1  0  0  0  0
 25 24  1  0  0  0  0
 27 32  1  0  0  0  0
 28 29  1  0  0  0  0
 28 27  2  0  0  0  0
 29 30  2  0  0  0  0
 30 31  1  0  0  0  0
 31 35  1  0  0  0  0
 32 31  2  0  0  0  0
 33 27  1  0  0  0  0
 34 28  1  0  0  0  0
M  END
>  <minimizedAffinity>
-5.14326048

$$$$

 OpenBabel03252509093D

 35 37  0  0  0  0  0  0  0  0999 V2000
   36.6920   29.7140   36.0630 Cl  0  0  0  0  0  0  0  0  0  0  0  0
   36.4550   29.5870   37.7810 C   0  0  0  0  0  0  0  0  0  0  0  0
   37.4760   29.7830   38.6450 C   0  0  0  0  0  0  0  0  0  0  0  0
   37.1780   29.6600   39.9980 C   0  0  0  0  0  0  0  0  0  0  0  0
   35.9210   29.3540   40.4550 C   0  0  0  0  0  0  0  0  0  0  0  0
   34.9090   29.1600   39.5650 C   0  0  0  0  0  0  0  0  0  0  0  0
   35.1860   29.2800   38.2170 C   0  0  0  0  0  0  0  0  0  0  0  0
   35.7040   29.2590   41.5090 H   0  0  0  0  0  0  0  0  0  0  0  0
   33.9100   28.9190   39.8980 H   0  0  0  0  0  0  0  0  0  0  0  0
   34.3730   29.1240   37.5210 H   0  0  0  0  0  0  0  0  0  0  0  0
   38.8790   28.8880   41.6590 C   0  0  0  0  0  0  0  0  0  0  0  0
   38.2360   29.8710   40.9680 C   0  0  0  0  0  0  0  0  0  0  0  0
   38.6190   31.1790   41.2010 C   0  0  0  0  0  0  0  0  0  0  0  0
   39.6150   31.4780   42.0980 C   0  0  0  0  0  0  0  0  0  0  0  0
   40.2740   30.4810   42.8030 C   0  0  0  0  0  0  0  0  0  0  0  0
   39.8920   29.1630   42.5730 C   0  0  0  0  0  0  0  0  0  0  0  0
   38.1350   31.9940   40.6740 H   0  0  0  0  0  0  0  0  0  0  0  0
   39.8950   32.5050   42.2620 H   0  0  0  0  0  0  0  0  0  0  0  0
   41.0450   30.7230   43.4950 H   0  0  0  0  0  0  0  0  0  0  0  0
   40.4030   28.3790   43.1200 H   0  0  0  0  0  0  0  0  0  0  0  0
   38.4890   27.2570   41.4040 S   0  0  0  0  0  0  0  0  0  0  0  0
   38.6310   26.8360   39.9580 O   0  0  0  0  0  0  0  0  0  0  0  0
   39.6140   26.4620   42.1190 O   0  0  0  0  0  0  0  0  0  0  0  0
   37.0960   26.4740   41.9660 C   0  0  0  0  0  2  0  0  0  0  0  0
   36.7040   27.2630   43.2600 C   0  0  0  0  0  2  0  0  0  0  0  0
   36.3950   28.2890   42.9160 H   0  0  0  0  0  0  0  0  0  0  0  0
   41.0090   29.4740   37.3540 C   0  0  0  0  0  0  0  0  0  0  0  0
   39.7450   29.1470   37.8520 C   0  0  0  0  0  0  0  0  0  0  0  0
   38.7900   30.1070   38.1330 C   0  0  0  0  0  0  0  0  0  0  0  0
   39.1760   31.3780   37.8920 N   0  0  0  0  0  0  0  0  0  0  0  0
   40.3890   31.7060   37.4130 C   0  0  0  0  0  0  0  0  0  0  0  0
   41.2890   30.7570   37.1500 N   0  0  0  0  0  0  0  0  0  0  0  0
   41.7050   28.6730   37.1560 H   0  0  0  0  0  0  0  0  0  0  0  0
   39.5170   28.1080   38.0170 H   0  0  0  0  0  0  0  0  0  0  0  0
   40.6250   32.7480   37.2440 H   0  0  0  0  0  0  0  0  0  0  0  0
  1  2  1  0  0  0  0
  2  7  2  0  0  0  0
  2  3  1  0  0  0  0
  3  4  2  0  0  0  0
  4  5  1  0  0  0  0
  4 12  1  0  0  0  0
  5  8  1  0  0  0  0
  6  9  1  0  0  0  0
  6  5  2  0  0  0  0
  7  6  1  0  0  0  0
 10  7  1  0  0  0  0
 11 16  1  0  0  0  0
 12 13  1  0  0  0  0
 12 11  2  0  0  0  0
 13 14  2  0  0  0  0
 14 18  1  0  0  0  0
 14 15  1  0  0  0  0
 15 19  1  0  0  0  0
 16 15  2  0  0  0  0
 16 20  1  0  0  0  0
 17 13  1  0  0  0  0
 21 11  1  0  0  0  0
 21 24  1  0  0  0  0
 21 23  2  0  0  0  0
 22 21  2  0  0  0  0
 24 25  1  0  0  0  0
 26 25  1  0  0  0  0
 27 28  1  0  0  0  0
 28 34  1  0  0  0  0
 28 29  2  0  0  0  0
 29  3  1  0  0  0  0
 30 29  1  0  0  0  0
 31 30  2  0  0  0  0
 32 27  2  0  0  0  0
 32 31  1  0  0  0  0
 33 27  1  0  0  0  0
 35 31  1  0  0  0  0
M  END
>  <minimizedAffinity>
-5.07751942

$$$$

 OpenBabel03252509093D

 35 37  0  0  0  0  0  0  0  0999 V2000
   38.0070   30.2650   37.4030 Cl  0  0  0  0  0  0  0  0  0  0  0  0
   37.2400   29.5410   38.7860 C   0  0  0  0  0  0  0  0  0  0  0  0
   37.5350   28.2780   39.1690 C   0  0  0  0  0  0  0  0  0  0  0  0
   36.8660   27.7960   40.2880 C   0  0  0  0  0  0  0  0  0  0  0  0
   35.9480   28.5440   40.9830 C   0  0  0  0  0  0  0  0  0  0  0  0
   35.6680   29.8130   40.5770 C   0  0  0  0  0  0  0  0  0  0  0  0
   36.3240   30.3090   39.4670 C   0  0  0  0  0  0  0  0  0  0  0  0
   35.4350   28.1560   41.8500 H   0  0  0  0  0  0  0  0  0  0  0  0
   34.9510   30.4240   41.1060 H   0  0  0  0  0  0  0  0  0  0  0  0
   36.0920   31.3190   39.1560 H   0  0  0  0  0  0  0  0  0  0  0  0
   37.9530   26.1310   41.8040 C   0  0  0  0  0  0  0  0  0  0  0  0
   37.1530   26.4500   40.7480 C   0  0  0  0  0  0  0  0  0  0  0  0
   36.5590   25.4120   40.0540 C   0  0  0  0  0  0  0  0  0  0  0  0
   36.7660   24.1050   40.4170 C   0  0  0  0  0  0  0  0  0  0  0  0
   37.5790   23.7750   41.4930 C   0  0  0  0  0  0  0  0  0  0  0  0
   38.1810   24.8150   42.1930 C   0  0  0  0  0  0  0  0  0  0  0  0
   35.9140   25.6180   39.2060 H   0  0  0  0  0  0  0  0  0  0  0  0
   36.2910   23.3140   39.8600 H   0  0  0  0  0  0  0  0  0  0  0  0
   37.7330   22.7580   41.7660 H   0  0  0  0  0  0  0  0  0  0  0  0
   38.8170   24.5650   43.0340 H   0  0  0  0  0  0  0  0  0  0  0  0
   38.6920   27.3490   42.7250 S   0  0  0  0  0  0  0  0  0  0  0  0
   37.7350   28.0290   43.6800 O   0  0  0  0  0  0  0  0  0  0  0  0
   39.6670   26.5980   43.6710 O   0  0  0  0  0  0  0  0  0  0  0  0
   39.6780   28.5870   42.1190 C   0  0  0  0  0  2  0  0  0  0  0  0
   39.0200   29.9020   42.6540 C   0  0  0  0  0  2  0  0  0  0  0  0
   39.1550   29.8850   43.7700 H   0  0  0  0  0  0  0  0  0  0  0  0
   39.1440   26.0940   36.5450 C   0  0  0  0  0  0  0  0  0  0  0  0
   38.1930   26.8240   37.2620 C   0  0  0  0  0  0  0  0  0  0  0  0
   38.5090   27.5150   38.4180 C   0  0  0  0  0  0  0  0  0  0  0  0
   39.8010   27.4260   38.7960 N   0  0  0  0  0  0  0  0  0  0  0  0
   40.7270   26.7270   38.1150 C   0  0  0  0  0  0  0  0  0  0  0  0
   40.3920   26.0710   37.0020 N   0  0  0  0  0  0  0  0  0  0  0  0
   38.8270   25.5800   35.6510 H   0  0  0  0  0  0  0  0  0  0  0  0
   37.1820   26.8440   36.8920 H   0  0  0  0  0  0  0  0  0  0  0  0
   41.7440   26.7030   38.4800 H   0  0  0  0  0  0  0  0  0  0  0  0
  1  2  1  0  0  0  0
  2  3  2  0  0  0  0
  2  7  1  0  0  0  0
  3  4  1  0  0  0  0
  4 12  1  0  0  0  0
  4  5  2  0  0  0  0
  5  8  1  0  0  0  0
  6  5  1  0  0  0  0
  6  9  1  0  0  0  0
  7  6  2  0  0  0  0
 10  7  1  0  0  0  0
 11 16  1  0  0  0  0
 11 21  1  0  0  0  0
 12 11  2  0  0  0  0
 13 14  2  0  0  0  0
 13 12  1  0  0  0  0
 14 15  1  0  0  0  0
 15 19  1  0  0  0  0
 15 16  2  0  0  0  0
 16 20  1  0  0  0  0
 17 13  1  0  0  0  0
 18 14  1  0  0  0  0
 21 23  2  0  0  0  0
 21 22  2  0  0  0  0
 24 25  1  0  0  0  0
 24 21  1  0  0  0  0
 25 26  1  0  0  0  0
 27 32  2  0  0  0  0
 27 28  1  0  0  0  0
 28 29  2  0  0  0  0
 29 30  1  0  0  0  0
 29  3  1  0  0  0  0
 31 35  1  0  0  0  0
 31 30  2  0  0  0  0
 32 31  1  0  0  0  0
 33 27  1  0  0  0  0
 34 28  1  0  0  0  0
M  END
>  <minimizedAffinity>
-5.05993652

$$$$

 OpenBabel03252509093D

 35 37  0  0  0  0  0  0  0  0999 V2000
   36.2360   29.6570   36.6020 Cl  0  0  0  0  0  0  0  0  0  0  0  0
   36.2760   28.2760   37.6590 C   0  0  0  0  0  0  0  0  0  0  0  0
   36.8010   28.3610   38.9030 C   0  0  0  0  0  0  0  0  0  0  0  0
   36.7810   27.1980   39.6650 C   0  0  0  0  0  0  0  0  0  0  0  0
   36.2640   26.0150   39.2010 C   0  0  0  0  0  0  0  0  0  0  0  0
   35.7420   25.9550   37.9450 C   0  0  0  0  0  0  0  0  0  0  0  0
   35.7510   27.1000   37.1730 C   0  0  0  0  0  0  0  0  0  0  0  0
   36.2570   25.1190   39.8040 H   0  0  0  0  0  0  0  0  0  0  0  0
   35.3280   25.0370   37.5540 H   0  0  0  0  0  0  0  0  0  0  0  0
   35.3330   27.0390   36.1770 H   0  0  0  0  0  0  0  0  0  0  0  0
   38.5500   26.7760   41.3800 C   0  0  0  0  0  0  0  0  0  0  0  0
   37.3230   27.2370   41.0110 C   0  0  0  0  0  0  0  0  0  0  0  0
   36.5210   27.7920   41.9910 C   0  0  0  0  0  0  0  0  0  0  0  0
   36.9490   27.8780   43.2930 C   0  0  0  0  0  0  0  0  0  0  0  0
   38.1990   27.4110   43.6740 C   0  0  0  0  0  0  0  0  0  0  0  0
   39.0080   26.8500   42.6920 C   0  0  0  0  0  0  0  0  0  0  0  0
   35.5360   28.1720   41.7440 H   0  0  0  0  0  0  0  0  0  0  0  0
   36.3050   28.3160   44.0390 H   0  0  0  0  0  0  0  0  0  0  0  0
   38.5210   27.4830   44.6860 H   0  0  0  0  0  0  0  0  0  0  0  0
   39.9860   26.4840   42.9830 H   0  0  0  0  0  0  0  0  0  0  0  0
   39.6040   26.1110   40.2300 S   0  0  0  0  0  0  0  0  0  0  0  0
   39.9520   27.0780   39.1200 O   0  0  0  0  0  0  0  0  0  0  0  0
   40.9510   25.9300   40.9800 O   0  0  0  0  0  0  0  0  0  0  0  0
   39.4210   24.6060   39.4730 C   0  0  0  0  0  2  0  0  0  0  0  0
   38.8240   23.6840   40.5880 C   0  0  0  0  0  2  0  0  0  0  0  0
   37.7920   24.0790   40.7980 H   0  0  0  0  0  0  0  0  0  0  0  0
   37.0810   31.8270   40.3680 C   0  0  0  0  0  0  0  0  0  0  0  0
   36.5500   30.6140   39.9240 C   0  0  0  0  0  0  0  0  0  0  0  0
   37.3360   29.6230   39.3650 C   0  0  0  0  0  0  0  0  0  0  0  0
   38.6500   29.9210   39.2820 N   0  0  0  0  0  0  0  0  0  0  0  0
   39.1740   31.0850   39.7060 C   0  0  0  0  0  0  0  0  0  0  0  0
   38.3900   32.0210   40.2430 N   0  0  0  0  0  0  0  0  0  0  0  0
   36.4090   32.5550   40.7950 H   0  0  0  0  0  0  0  0  0  0  0  0
   35.4900   30.4550   40.0260 H   0  0  0  0  0  0  0  0  0  0  0  0
   40.2380   31.2510   39.6080 H   0  0  0  0  0  0  0  0  0  0  0  0
  1  2  1  0  0  0  0
  2  3  1  0  0  0  0
  3 29  1  0  0  0  0
  3  4  2  0  0  0  0
  4 12  1  0  0  0  0
  5  4  1  0  0  0  0
  5  8  1  0  0  0  0
  6  5  2  0  0  0  0
  7  2  2  0  0  0  0
  7  6  1  0  0  0  0
  9  6  1  0  0  0  0
 10  7  1  0  0  0  0
 11 16  1  0  0  0  0
 12 11  2  0  0  0  0
 12 13  1  0  0  0  0
 13 14  2  0  0  0  0
 14 15  1  0  0  0  0
 14 18  1  0  0  0  0
 15 19  1  0  0  0  0
 16 20  1  0  0  0  0
 16 15  2  0  0  0  0
 17 13  1  0  0  0  0
 21 23  2  0  0  0  0
 21 11  1  0  0  0  0
 22 21  2  0  0  0  0
 24 21  1  0  0  0  0
 24 25  1  0  0  0  0
 25 26  1  0  0  0  0
 27 33  1  0  0  0  0
 28 34  1  0  0  0  0
 28 27  2  0  0  0  0
 29 28  1  0  0  0  0
 30 29  2  0  0  0  0
 30 31  1  0  0  0  0
 31 32  2  0  0  0  0
 32 27  1  0  0  0  0
 35 31  1  0  0  0  0
M  END
>  <minimizedAffinity>
-5.04842758

$$$$

 OpenBabel03252509093D

 35 37  0  0  0  0  0  0  0  0999 V2000
   37.0760   30.1750   36.5460 Cl  0  0  0  0  0  0  0  0  0  0  0  0
   37.2120   30.6350   38.2190 C   0  0  0  0  0  0  0  0  0  0  0  0
   37.3840   29.7080   39.1880 C   0  0  0  0  0  0  0  0  0  0  0  0
   37.4820   30.1830   40.4910 C   0  0  0  0  0  0  0  0  0  0  0  0
   37.4090   31.5180   40.8020 C   0  0  0  0  0  0  0  0  0  0  0  0
   37.2360   32.4310   39.8070 C   0  0  0  0  0  0  0  0  0  0  0  0
   37.1370   31.9790   38.5060 C   0  0  0  0  0  0  0  0  0  0  0  0
   37.4860   31.8720   41.8180 H   0  0  0  0  0  0  0  0  0  0  0  0
   37.1760   33.4890   40.0230 H   0  0  0  0  0  0  0  0  0  0  0  0
   37.0000   32.7160   37.7260 H   0  0  0  0  0  0  0  0  0  0  0  0
   38.8680   28.9560   42.1710 C   0  0  0  0  0  0  0  0  0  0  0  0
   37.6780   29.2300   41.5690 C   0  0  0  0  0  0  0  0  0  0  0  0
   36.5570   28.5540   42.0150 C   0  0  0  0  0  0  0  0  0  0  0  0
   36.6420   27.6380   43.0340 C   0  0  0  0  0  0  0  0  0  0  0  0
   37.8520   27.3550   43.6530 C   0  0  0  0  0  0  0  0  0  0  0  0
   38.9810   28.0320   43.2060 C   0  0  0  0  0  0  0  0  0  0  0  0
   35.5890   28.7400   41.5650 H   0  0  0  0  0  0  0  0  0  0  0  0
   35.7540   27.1240   43.3650 H   0  0  0  0  0  0  0  0  0  0  0  0
   37.9050   26.6440   44.4420 H   0  0  0  0  0  0  0  0  0  0  0  0
   39.9300   27.8170   43.6850 H   0  0  0  0  0  0  0  0  0  0  0  0
   40.2810   29.7680   41.7010 S   0  0  0  0  0  0  0  0  0  0  0  0
   40.3700   31.1700   42.2630 O   0  0  0  0  0  0  0  0  0  0  0  0
   41.4310   29.0190   42.4260 O   0  0  0  0  0  0  0  0  0  0  0  0
   40.8790   29.8780   40.1190 C   0  0  0  0  0  2  0  0  0  0  0  0
   40.9820   31.4160   39.8520 C   0  0  0  0  0  2  0  0  0  0  0  0
   41.7860   31.7980   40.5390 H   0  0  0  0  0  0  0  0  0  0  0  0
   36.4290   26.1530   38.3530 C   0  0  0  0  0  0  0  0  0  0  0  0
   36.3420   27.5030   38.7030 C   0  0  0  0  0  0  0  0  0  0  0  0
   37.4600   28.3080   38.8290 C   0  0  0  0  0  0  0  0  0  0  0  0
   38.6350   27.6880   38.5900 N   0  0  0  0  0  0  0  0  0  0  0  0
   38.7330   26.3900   38.2520 C   0  0  0  0  0  0  0  0  0  0  0  0
   37.6360   25.6390   38.1370 N   0  0  0  0  0  0  0  0  0  0  0  0
   35.5160   25.5850   38.2720 H   0  0  0  0  0  0  0  0  0  0  0  0
   35.3660   27.9200   38.8770 H   0  0  0  0  0  0  0  0  0  0  0  0
   39.7100   25.9630   38.0750 H   0  0  0  0  0  0  0  0  0  0  0  0
  1  2  1  0  0  0  0
  2  7  2  0  0  0  0
  2  3  1  0  0  0  0
  3  4  2  0  0  0  0
  4  5  1  0  0  0  0
  4 12  1  0  0  0  0
  5  8  1  0  0  0  0
  6  9  1  0  0  0  0
  6  5  2  0  0  0  0
  7  6  1  0  0  0  0
 10  7  1  0  0  0  0
 11 16  1  0  0  0  0
 12 13  1  0  0  0  0
 12 11  2  0  0  0  0
 13 14  2  0  0  0  0
 14 18  1  0  0  0  0
 14 15  1  0  0  0  0
 15 19  1  0  0  0  0
 16 15  2  0  0  0  0
 16 20  1  0  0  0  0
 17 13  1  0  0  0  0
 21 11  1  0  0  0  0
 21 22  2  0  0  0  0
 21 23  2  0  0  0  0
 24 21  1  0  0  0  0
 25 24  1  0  0  0  0
 25 26  1  0  0  0  0
 27 28  1  0  0  0  0
 28 29  2  0  0  0  0
 28 34  1  0  0  0  0
 29  3  1  0  0  0  0
 30 29  1  0  0  0  0
 31 30  2  0  0  0  0
 32 31  1  0  0  0  0
 32 27  2  0  0  0  0
 33 27  1  0  0  0  0
 35 31  1  0  0  0  0
M  END
>  <minimizedAffinity>
-5.02894545

$$$$

 OpenBabel03252509093D

 35 37  0  0  0  0  0  0  0  0999 V2000
   38.0540   24.6840   41.1730 Cl  0  0  0  0  0  0  0  0  0  0  0  0
   37.8430   26.2320   41.9400 C   0  0  0  0  0  0  0  0  0  0  0  0
   38.6060   27.2940   41.5950 C   0  0  0  0  0  0  0  0  0  0  0  0
   38.3540   28.4840   42.2680 C   0  0  0  0  0  0  0  0  0  0  0  0
   37.3880   28.5980   43.2360 C   0  0  0  0  0  0  0  0  0  0  0  0
   36.6340   27.5140   43.5660 C   0  0  0  0  0  0  0  0  0  0  0  0
   36.8690   26.3230   42.9070 C   0  0  0  0  0  0  0  0  0  0  0  0
   37.2040   29.5280   43.7520 H   0  0  0  0  0  0  0  0  0  0  0  0
   35.8660   27.5760   44.3240 H   0  0  0  0  0  0  0  0  0  0  0  0
   36.2610   25.4700   43.1780 H   0  0  0  0  0  0  0  0  0  0  0  0
   38.7380   30.6580   41.0960 C   0  0  0  0  0  0  0  0  0  0  0  0
   39.1380   29.6570   41.9290 C   0  0  0  0  0  0  0  0  0  0  0  0
   40.3900   29.7600   42.5070 C   0  0  0  0  0  0  0  0  0  0  0  0
   41.2030   30.8370   42.2510 C   0  0  0  0  0  0  0  0  0  0  0  0
   40.8000   31.8600   41.4050 C   0  0  0  0  0  0  0  0  0  0  0  0
   39.5420   31.7600   40.8200 C   0  0  0  0  0  0  0  0  0  0  0  0
   40.7500   28.9870   43.1770 H   0  0  0  0  0  0  0  0  0  0  0  0
   42.1740   30.8950   42.7150 H   0  0  0  0  0  0  0  0  0  0  0  0
   41.4370   32.6910   41.2140 H   0  0  0  0  0  0  0  0  0  0  0  0
   39.2210   32.5560   40.1580 H   0  0  0  0  0  0  0  0  0  0  0  0
   37.2040   30.6190   40.3750 S   0  0  0  0  0  0  0  0  0  0  0  0
   36.0970   31.0280   41.3210 O   0  0  0  0  0  0  0  0  0  0  0  0
   37.2240   31.7690   39.3320 O   0  0  0  0  0  0  0  0  0  0  0  0
   36.5700   29.3360   39.4670 C   0  0  0  0  0  2  0  0  0  0  0  0
   35.2460   28.9550   40.2100 C   0  0  0  0  0  2  0  0  0  0  0  0
   34.5530   29.8310   40.0780 H   0  0  0  0  0  0  0  0  0  0  0  0
   40.3560   27.2530   38.2510 C   0  0  0  0  0  0  0  0  0  0  0  0
   39.3720   27.4000   39.2310 C   0  0  0  0  0  0  0  0  0  0  0  0
   39.6150   27.1420   40.5680 C   0  0  0  0  0  0  0  0  0  0  0  0
   40.8720   26.7370   40.8480 N   0  0  0  0  0  0  0  0  0  0  0  0
   41.8280   26.5910   39.9140 C   0  0  0  0  0  0  0  0  0  0  0  0
   41.5640   26.8490   38.6320 N   0  0  0  0  0  0  0  0  0  0  0  0
   40.0970   27.4720   37.2270 H   0  0  0  0  0  0  0  0  0  0  0  0
   38.3940   27.7280   38.9240 H   0  0  0  0  0  0  0  0  0  0  0  0
   42.8140   26.2630   40.2160 H   0  0  0  0  0  0  0  0  0  0  0  0
  1  2  1  0  0  0  0
  2  7  1  0  0  0  0
  3  2  2  0  0  0  0
  3  4  1  0  0  0  0
  4  5  2  0  0  0  0
  5  6  1  0  0  0  0
  5  8  1  0  0  0  0
  6  9  1  0  0  0  0
  7 10  1  0  0  0  0
  7  6  2  0  0  0  0
 11 12  1  0  0  0  0
 12  4  1  0  0  0  0
 12 13  2  0  0  0  0
 13 17  1  0  0  0  0
 14 13  1  0  0  0  0
 14 18  1  0  0  0  0
 15 14  2  0  0  0  0
 16 11  2  0  0  0  0
 16 15  1  0  0  0  0
 19 15  1  0  0  0  0
 20 16  1  0  0  0  0
 21 11  1  0  0  0  0
 21 22  2  0  0  0  0
 23 21  2  0  0  0  0
 24 25  1  0  0  0  0
 24 21  1  0  0  0  0
 26 25  1  0  0  0  0
 27 32  2  0  0  0  0
 27 28  1  0  0  0  0
 28 29  2  0  0  0  0
 29 30  1  0  0  0  0
 29  3  1  0  0  0  0
 31 35  1  0  0  0  0
 31 30  2  0  0  0  0
 32 31  1  0  0  0  0
 33 27  1  0  0  0  0
 34 28  1  0  0  0  0
M  END
>  <minimizedAffinity>
-5.02558708

$$$$
