
 OpenBabel03242517433D

 13 13  0  0  0  0  0  0  0  0999 V2000
   38.2750   29.6300   42.4830 C   0  0  0  0  0  0  0  0  0  0  0  0
   37.0660   29.4690   41.7710 C   0  0  0  0  0  0  0  0  0  0  0  0
   36.4190   28.2370   41.8380 C   0  0  0  0  0  0  0  0  0  0  0  0
   36.9770   27.2370   42.5850 N   0  0  0  0  0  0  0  0  0  0  0  0
   38.1430   27.4460   43.2500 C   0  0  0  0  0  0  0  0  0  0  0  0
   38.8030   28.6050   43.2200 N   0  0  0  0  0  0  0  0  0  0  0  0
   38.7370   30.6030   42.3980 H   0  0  0  0  0  0  0  0  0  0  0  0
   35.4870   28.0750   41.3050 H   0  0  0  0  0  0  0  0  0  0  0  0
   38.6150   26.6700   43.8560 H   0  0  0  0  0  0  0  0  0  0  0  0
   36.3960   30.8200   40.8140 S   0  0  0  0  0  0  0  0  0  0  0  0
   37.7380   32.0200   40.5500 C   0  0  0  0  0  2  0  0  0  0  0  0
   37.2430   32.9710   39.4520 C   0  0  0  0  0  2  0  0  0  0  0  0
   38.0690   33.6610   39.1920 H   0  0  0  0  0  0  0  0  0  0  0  0
  1  6  1  0  0  0  0
  2  3  1  0  0  0  0
  2  1  2  0  0  0  0
  3  4  2  0  0  0  0
  4  5  1  0  0  0  0
  5  9  1  0  0  0  0
  6  5  2  0  0  0  0
  7  1  1  0  0  0  0
  8  3  1  0  0  0  0
 10  2  1  0  0  0  0
 11 10  1  0  0  0  0
 12 11  1  0  0  0  0
 13 12  1  0  0  0  0
M  END
>  <minimizedAffinity>
-3.00417829

$$$$

 OpenBabel03242517433D

 13 13  0  0  0  0  0  0  0  0999 V2000
   36.4650   28.1480   41.8960 C   0  0  0  0  0  0  0  0  0  0  0  0
   37.0790   29.4180   41.8200 C   0  0  0  0  0  0  0  0  0  0  0  0
   38.2800   29.6130   42.4960 C   0  0  0  0  0  0  0  0  0  0  0  0
   38.8160   28.5730   43.2050 N   0  0  0  0  0  0  0  0  0  0  0  0
   38.1830   27.3720   43.2450 C   0  0  0  0  0  0  0  0  0  0  0  0
   37.0320   27.1310   42.6160 N   0  0  0  0  0  0  0  0  0  0  0  0
   35.5350   28.0490   41.3540 H   0  0  0  0  0  0  0  0  0  0  0  0
   38.7820   30.5750   42.4600 H   0  0  0  0  0  0  0  0  0  0  0  0
   38.5840   26.5210   43.8010 H   0  0  0  0  0  0  0  0  0  0  0  0
   36.3200   30.7300   40.8740 S   0  0  0  0  0  0  0  0  0  0  0  0
   37.5960   31.9880   40.5630 C   0  0  0  0  0  2  0  0  0  0  0  0
   37.2020   32.6720   39.2470 C   0  0  0  0  0  2  0  0  0  0  0  0
   38.0050   33.3810   38.9700 H   0  0  0  0  0  0  0  0  0  0  0  0
  1  6  1  0  0  0  0
  2  1  2  0  0  0  0
  2  3  1  0  0  0  0
  3  4  2  0  0  0  0
  4  5  1  0  0  0  0
  5  9  1  0  0  0  0
  6  5  2  0  0  0  0
  7  1  1  0  0  0  0
  8  3  1  0  0  0  0
 10  2  1  0  0  0  0
 11 10  1  0  0  0  0
 12 11  1  0  0  0  0
 13 12  1  0  0  0  0
M  END
>  <minimizedAffinity>
-2.99683666

$$$$

 OpenBabel03242517433D

 13 13  0  0  0  0  0  0  0  0999 V2000
   38.9250   31.7510   41.2800 C   0  0  0  0  0  0  0  0  0  0  0  0
   37.7100   31.1830   40.8330 C   0  0  0  0  0  0  0  0  0  0  0  0
   36.9430   31.9010   39.9200 C   0  0  0  0  0  0  0  0  0  0  0  0
   37.3910   33.1210   39.4940 N   0  0  0  0  0  0  0  0  0  0  0  0
   38.5660   33.6200   39.9570 C   0  0  0  0  0  0  0  0  0  0  0  0
   39.3400   32.9750   40.8310 N   0  0  0  0  0  0  0  0  0  0  0  0
   39.4830   31.1540   41.9880 H   0  0  0  0  0  0  0  0  0  0  0  0
   36.0040   31.4980   39.5530 H   0  0  0  0  0  0  0  0  0  0  0  0
   38.9530   34.5900   39.6360 H   0  0  0  0  0  0  0  0  0  0  0  0
   37.1880   29.5840   41.4340 S   0  0  0  0  0  0  0  0  0  0  0  0
   38.0520   29.2830   43.0060 C   0  0  0  0  0  2  0  0  0  0  0  0
   37.3120   28.1190   43.6780 C   0  0  0  0  0  2  0  0  0  0  0  0
   37.7460   27.9650   44.6840 H   0  0  0  0  0  0  0  0  0  0  0  0
  1  7  1  0  0  0  0
  2  1  1  0  0  0  0
  2 10  1  0  0  0  0
  3  2  2  0  0  0  0
  4  3  1  0  0  0  0
  4  5  2  0  0  0  0
  5  6  1  0  0  0  0
  6  1  2  0  0  0  0
  8  3  1  0  0  0  0
  9  5  1  0  0  0  0
 10 11  1  0  0  0  0
 11 12  1  0  0  0  0
 12 13  1  0  0  0  0
M  END
>  <minimizedAffinity>
-2.81539083

$$$$

 OpenBabel03242517433D

 13 13  0  0  0  0  0  0  0  0999 V2000
   37.0940   30.9910   40.8660 C   0  0  0  0  0  0  0  0  0  0  0  0
   38.2700   30.6170   41.5560 C   0  0  0  0  0  0  0  0  0  0  0  0
   39.3550   31.4880   41.5300 C   0  0  0  0  0  0  0  0  0  0  0  0
   39.2420   32.6640   40.8410 N   0  0  0  0  0  0  0  0  0  0  0  0
   38.0880   32.9740   40.1960 C   0  0  0  0  0  0  0  0  0  0  0  0
   37.0180   32.1770   40.1880 N   0  0  0  0  0  0  0  0  0  0  0  0
   36.2810   30.2800   40.9180 H   0  0  0  0  0  0  0  0  0  0  0  0
   40.2750   31.2370   42.0470 H   0  0  0  0  0  0  0  0  0  0  0  0
   37.9640   33.9050   39.6380 H   0  0  0  0  0  0  0  0  0  0  0  0
   38.3440   29.0630   42.4330 S   0  0  0  0  0  0  0  0  0  0  0  0
   36.7520   28.2190   42.1860 C   0  0  0  0  0  2  0  0  0  0  0  0
   36.5320   27.3580   43.4370 C   0  0  0  0  0  2  0  0  0  0  0  0
   35.6180   26.7520   43.2860 H   0  0  0  0  0  0  0  0  0  0  0  0
  1  7  1  0  0  0  0
  1  2  1  0  0  0  0
  2 10  1  0  0  0  0
  3  2  2  0  0  0  0
  3  8  1  0  0  0  0
  4  3  1  0  0  0  0
  5  4  2  0  0  0  0
  6  5  1  0  0  0  0
  6  1  2  0  0  0  0
  9  5  1  0  0  0  0
 11 10  1  0  0  0  0
 11 12  1  0  0  0  0
 13 12  1  0  0  0  0
M  END
>  <minimizedAffinity>
-2.7934587

$$$$

 OpenBabel03242517433D

 13 13  0  0  0  0  0  0  0  0999 V2000
   38.9990   30.3690   40.1220 C   0  0  0  0  0  0  0  0  0  0  0  0
   37.8840   30.4270   40.9880 C   0  0  0  0  0  0  0  0  0  0  0  0
   36.8290   31.2710   40.6520 C   0  0  0  0  0  0  0  0  0  0  0  0
   36.9130   32.0080   39.5030 N   0  0  0  0  0  0  0  0  0  0  0  0
   38.0090   31.9140   38.7060 C   0  0  0  0  0  0  0  0  0  0  0  0
   39.0470   31.1220   38.9800 N   0  0  0  0  0  0  0  0  0  0  0  0
   39.7900   29.6990   40.4280 H   0  0  0  0  0  0  0  0  0  0  0  0
   35.9560   31.3420   41.2920 H   0  0  0  0  0  0  0  0  0  0  0  0
   38.1070   32.4880   37.7810 H   0  0  0  0  0  0  0  0  0  0  0  0
   37.8450   29.4340   42.4730 S   0  0  0  0  0  0  0  0  0  0  0  0
   36.7360   28.0260   42.1600 C   0  0  0  0  0  2  0  0  0  0  0  0
   36.4980   27.3650   43.5240 C   0  0  0  0  0  2  0  0  0  0  0  0
   35.9040   26.4450   43.3650 H   0  0  0  0  0  0  0  0  0  0  0  0
  1  7  1  0  0  0  0
  1  2  1  0  0  0  0
  2 10  1  0  0  0  0
  3  2  2  0  0  0  0
  3  8  1  0  0  0  0
  4  3  1  0  0  0  0
  5  6  1  0  0  0  0
  5  4  2  0  0  0  0
  6  1  2  0  0  0  0
  9  5  1  0  0  0  0
 11 10  1  0  0  0  0
 11 12  1  0  0  0  0
 13 12  1  0  0  0  0
M  END
>  <minimizedAffinity>
-2.69447136

$$$$

 OpenBabel03242517433D

 13 13  0  0  0  0  0  0  0  0999 V2000
   38.5800   30.0280   42.0890 C   0  0  0  0  0  0  0  0  0  0  0  0
   37.2830   29.4760   41.9880 C   0  0  0  0  0  0  0  0  0  0  0  0
   36.3340   30.1540   41.2270 C   0  0  0  0  0  0  0  0  0  0  0  0
   36.6930   31.3220   40.6120 N   0  0  0  0  0  0  0  0  0  0  0  0
   37.9540   31.8080   40.7440 C   0  0  0  0  0  0  0  0  0  0  0  0
   38.9010   31.1990   41.4590 N   0  0  0  0  0  0  0  0  0  0  0  0
   39.2780   29.4630   42.6910 H   0  0  0  0  0  0  0  0  0  0  0  0
   35.3280   29.7620   41.1240 H   0  0  0  0  0  0  0  0  0  0  0  0
   38.2730   32.7370   40.2650 H   0  0  0  0  0  0  0  0  0  0  0  0
   36.8870   27.9450   42.8190 S   0  0  0  0  0  0  0  0  0  0  0  0
   37.9630   26.6530   42.1260 C   0  0  0  0  0  2  0  0  0  0  0  0
   37.1380   25.3600   42.1500 C   0  0  0  0  0  2  0  0  0  0  0  0
   37.7880   24.5260   41.8250 H   0  0  0  0  0  0  0  0  0  0  0  0
  1  7  1  0  0  0  0
  2  1  1  0  0  0  0
  2 10  1  0  0  0  0
  3  2  2  0  0  0  0
  4  5  2  0  0  0  0
  4  3  1  0  0  0  0
  5  6  1  0  0  0  0
  6  1  2  0  0  0  0
  8  3  1  0  0  0  0
  9  5  1  0  0  0  0
 11 12  1  0  0  0  0
 11 10  1  0  0  0  0
 13 12  1  0  0  0  0
M  END
>  <minimizedAffinity>
-2.68406057

$$$$

 OpenBabel03242517433D

 13 13  0  0  0  0  0  0  0  0999 V2000
   36.8510   30.3790   41.2910 C   0  0  0  0  0  0  0  0  0  0  0  0
   37.9620   29.5670   40.9680 C   0  0  0  0  0  0  0  0  0  0  0  0
   38.5880   29.7620   39.7390 C   0  0  0  0  0  0  0  0  0  0  0  0
   38.1050   30.7250   38.8970 N   0  0  0  0  0  0  0  0  0  0  0  0
   37.0330   31.4770   39.2580 C   0  0  0  0  0  0  0  0  0  0  0  0
   36.3970   31.3330   40.4210 N   0  0  0  0  0  0  0  0  0  0  0  0
   36.4020   30.1880   42.2550 H   0  0  0  0  0  0  0  0  0  0  0  0
   39.4440   29.1580   39.4560 H   0  0  0  0  0  0  0  0  0  0  0  0
   36.6230   32.2560   38.6090 H   0  0  0  0  0  0  0  0  0  0  0  0
   38.5370   28.3280   42.1190 S   0  0  0  0  0  0  0  0  0  0  0  0
   37.5540   28.4970   43.6400 C   0  0  0  0  0  2  0  0  0  0  0  0
   36.4840   27.4000   43.5760 C   0  0  0  0  0  2  0  0  0  0  0  0
   35.8030   27.5280   44.4390 H   0  0  0  0  0  0  0  0  0  0  0  0
  1  7  1  0  0  0  0
  2  1  1  0  0  0  0
  2 10  1  0  0  0  0
  3  2  2  0  0  0  0
  4  5  2  0  0  0  0
  4  3  1  0  0  0  0
  5  6  1  0  0  0  0
  6  1  2  0  0  0  0
  8  3  1  0  0  0  0
  9  5  1  0  0  0  0
 10 11  1  0  0  0  0
 12 11  1  0  0  0  0
 12 13  1  0  0  0  0
M  END
>  <minimizedAffinity>
-2.66951823

$$$$

 OpenBabel03242517433D

 13 13  0  0  0  0  0  0  0  0999 V2000
   37.3690   29.5200   38.8360 C   0  0  0  0  0  0  0  0  0  0  0  0
   36.7480   29.8560   40.0600 C   0  0  0  0  0  0  0  0  0  0  0  0
   36.5580   31.2030   40.3570 C   0  0  0  0  0  0  0  0  0  0  0  0
   36.9790   32.1430   39.4580 N   0  0  0  0  0  0  0  0  0  0  0  0
   37.5710   31.7650   38.2960 C   0  0  0  0  0  0  0  0  0  0  0  0
   37.7760   30.4900   37.9610 N   0  0  0  0  0  0  0  0  0  0  0  0
   37.4920   28.4620   38.6540 H   0  0  0  0  0  0  0  0  0  0  0  0
   36.0850   31.5000   41.2870 H   0  0  0  0  0  0  0  0  0  0  0  0
   37.9170   32.4910   37.5560 H   0  0  0  0  0  0  0  0  0  0  0  0
   36.2240   28.5720   41.1870 S   0  0  0  0  0  0  0  0  0  0  0  0
   37.3050   28.6530   42.6480 C   0  0  0  0  0  2  0  0  0  0  0  0
   36.7610   27.6090   43.6330 C   0  0  0  0  0  2  0  0  0  0  0  0
   37.3330   27.6920   44.5770 H   0  0  0  0  0  0  0  0  0  0  0  0
  1  2  1  0  0  0  0
  2  3  2  0  0  0  0
  2 10  1  0  0  0  0
  3  8  1  0  0  0  0
  4  3  1  0  0  0  0
  5  4  2  0  0  0  0
  6  5  1  0  0  0  0
  6  1  2  0  0  0  0
  7  1  1  0  0  0  0
  9  5  1  0  0  0  0
 10 11  1  0  0  0  0
 11 12  1  0  0  0  0
 12 13  1  0  0  0  0
M  END
>  <minimizedAffinity>
-2.66085005

$$$$

 OpenBabel03242517433D

 13 13  0  0  0  0  0  0  0  0999 V2000
   39.0730   26.7380   43.4660 C   0  0  0  0  0  0  0  0  0  0  0  0
   37.9130   26.5300   42.6860 C   0  0  0  0  0  0  0  0  0  0  0  0
   37.7040   25.2670   42.1390 C   0  0  0  0  0  0  0  0  0  0  0  0
   38.6240   24.2830   42.3750 N   0  0  0  0  0  0  0  0  0  0  0  0
   39.7230   24.5380   43.1320 C   0  0  0  0  0  0  0  0  0  0  0  0
   39.9720   25.7290   43.6800 N   0  0  0  0  0  0  0  0  0  0  0  0
   39.1890   27.7350   43.8670 H   0  0  0  0  0  0  0  0  0  0  0  0
   36.8240   25.0680   41.5350 H   0  0  0  0  0  0  0  0  0  0  0  0
   40.4760   23.7750   43.3400 H   0  0  0  0  0  0  0  0  0  0  0  0
   36.7550   27.8630   42.4200 S   0  0  0  0  0  0  0  0  0  0  0  0
   37.6720   29.2420   41.6690 C   0  0  0  0  0  2  0  0  0  0  0  0
   36.6260   30.3160   41.3410 C   0  0  0  0  0  2  0  0  0  0  0  0
   37.1290   31.1360   40.7940 H   0  0  0  0  0  0  0  0  0  0  0  0
  1  6  1  0  0  0  0
  1  7  1  0  0  0  0
  2  1  2  0  0  0  0
  3  4  2  0  0  0  0
  3  2  1  0  0  0  0
  4  5  1  0  0  0  0
  5  9  1  0  0  0  0
  5  6  2  0  0  0  0
  8  3  1  0  0  0  0
 10  2  1  0  0  0  0
 11 10  1  0  0  0  0
 12 11  1  0  0  0  0
 13 12  1  0  0  0  0
M  END
>  <minimizedAffinity>
-2.65558243

$$$$
