
 OpenBabel03252508023D

 36 38  0  0  1  0  0  0  0  0999 V2000
   44.5980   34.4670   42.9480 C   0  0  0  0  0  0  0  0  0  0  0  0
   44.3220   35.7110   43.5750 C   0  0  0  0  0  0  0  0  0  0  0  0
   44.6350   35.8260   44.9270 C   0  0  0  0  0  0  0  0  0  0  0  0
   45.1800   34.7520   45.5540 N   0  0  0  0  0  0  0  0  0  0  0  0
   45.4300   33.5690   44.9070 C   0  0  0  0  0  0  0  0  0  0  0  0
   45.1330   33.4910   43.6650 N   0  0  0  0  0  0  0  0  0  0  0  0
   43.8930   36.5920   43.1260 H   0  0  0  0  0  0  0  0  0  0  0  0
   44.4530   36.7390   45.4680 H   0  0  0  0  0  0  0  0  0  0  0  0
   46.0170   32.4470   45.6730 C   0  0  1  0  0  0  0  0  0  0  0  0
   46.9640   32.7410   46.8080 C   0  0  0  0  0  0  0  0  0  0  0  0
   45.5440   32.3400   47.0700 C   0  0  1  0  0  0  0  0  0  0  0  0
   46.1980   31.5070   45.1050 H   0  0  0  0  0  0  0  0  0  0  0  0
   47.3180   33.7740   46.9360 H   0  0  0  0  0  0  0  0  0  0  0  0
   47.7550   31.9740   47.0190 H   0  0  0  0  0  0  0  0  0  0  0  0
   45.3830   31.2990   47.4470 H   0  0  0  0  0  0  0  0  0  0  0  0
   44.7550   33.4130   47.6600 N   0  0  0  0  0  0  0  0  0  0  0  0
   45.2900   33.8670   48.4210 H   0  0  0  0  0  0  0  0  0  0  0  0
   43.8470   33.0030   47.9230 H   0  0  0  0  0  0  0  0  0  0  0  0
   44.2610   34.3520   41.5560 C   0  0  0  0  0  0  0  0  0  0  0  0
   45.1400   34.2440   40.6400 O   0  0  0  0  0  0  0  0  0  0  0  0
   42.0680   33.2430   41.0900 C   0  0  0  0  0  0  0  0  0  0  0  0
   42.8110   34.3760   41.3260 C   0  0  0  0  0  0  0  0  0  0  0  0
   42.1510   35.6080   41.3530 C   0  0  0  0  0  0  0  0  0  0  0  0
   40.7860   35.7060   41.1510 C   0  0  0  0  0  0  0  0  0  0  0  0
   40.0450   34.5750   40.9160 C   0  0  0  0  0  0  0  0  0  0  0  0
   40.6960   33.3710   40.8910 C   0  0  0  0  0  0  0  0  0  0  0  0
   42.6340   36.5550   41.5220 H   0  0  0  0  0  0  0  0  0  0  0  0
   40.2730   36.6290   41.1690 H   0  0  0  0  0  0  0  0  0  0  0  0
   38.9970   34.6080   40.7580 H   0  0  0  0  0  0  0  0  0  0  0  0
   40.1040   32.4740   40.7050 H   0  0  0  0  0  0  0  0  0  0  0  0
   42.7870   31.7320   40.9760 S   0  0  0  0  0  0  0  0  0  0  0  0
   43.2720   31.6430   39.5530 O   0  0  0  0  0  0  0  0  0  0  0  0
   41.7120   30.6420   41.2110 O   0  0  0  0  0  0  0  0  0  0  0  0
   44.0800   30.9910   41.6820 C   0  0  0  0  0  2  0  0  0  0  0  0
   43.5800   30.1820   42.9380 C   0  0  0  0  0  2  0  0  0  0  0  0
   44.4100   29.6230   43.3540 H   0  0  0  0  0  0  0  0  0  0  0  0
  1  2  2  0  0  0  0
  1  6  1  0  0  0  0
  2  3  1  0  0  0  0
  3  8  1  0  0  0  0
  3  4  2  0  0  0  0
  5  4  1  0  0  0  0
  5  9  1  0  0  0  0
  6  5  2  0  0  0  0
  7  2  1  0  0  0  0
  9 12  1  6  0  0  0
  9 10  1  0  0  0  0
  9 11  1  0  0  0  0
 10 13  1  0  0  0  0
 10 14  1  0  0  0  0
 10 11  1  0  0  0  0
 11 15  1  1  0  0  0
 11 16  1  0  0  0  0
 16 18  1  0  0  0  0
 16 17  1  0  0  0  0
 19  1  1  0  0  0  0
 20 19  2  0  0  0  0
 21 22  1  0  0  0  0
 22 23  2  0  0  0  0
 22 19  1  0  0  0  0
 23 27  1  0  0  0  0
 24 28  1  0  0  0  0
 24 23  1  0  0  0  0
 25 24  2  0  0  0  0
 26 25  1  0  0  0  0
 26 21  2  0  0  0  0
 29 25  1  0  0  0  0
 30 26  1  0  0  0  0
 31 21  1  0  0  0  0
 31 33  2  0  0  0  0
 31 34  1  0  0  0  0
 32 31  2  0  0  0  0
 34 35  1  0  0  0  0
 35 36  1  0  0  0  0
M  END
>  <minimizedAffinity>
-5.50801182

>  <minimizedRMSD>
0.684644639

$$$$
