
 OpenBabel03242516233D

 23 24  0  0  0  0  0  0  0  0999 V2000
   37.6130   29.2680   41.7420 C   0  0  0  0  0  0  0  0  0  0  0  0
   37.3760   28.2370   40.8500 C   0  0  0  0  0  0  0  0  0  0  0  0
   37.1230   26.9500   41.3080 C   0  0  0  0  0  0  0  0  0  0  0  0
   37.1050   26.6800   42.6720 C   0  0  0  0  0  0  0  0  0  0  0  0
   37.3380   27.6870   43.5460 C   0  0  0  0  0  0  0  0  0  0  0  0
   37.5900   28.9740   43.0920 C   0  0  0  0  0  0  0  0  0  0  0  0
   37.3830   28.4190   39.7810 H   0  0  0  0  0  0  0  0  0  0  0  0
   36.9130   25.6960   43.0590 H   0  0  0  0  0  0  0  0  0  0  0  0
   37.3340   27.5250   44.6080 H   0  0  0  0  0  0  0  0  0  0  0  0
   37.7730   29.7620   43.8040 H   0  0  0  0  0  0  0  0  0  0  0  0
   39.3430   32.4370   41.1630 C   0  0  0  0  0  0  0  0  0  0  0  0
   38.4570   33.1610   40.3620 C   0  0  0  0  0  0  0  0  0  0  0  0
   37.2540   32.5600   40.0170 C   0  0  0  0  0  0  0  0  0  0  0  0
   36.9880   31.2990   40.4690 N   0  0  0  0  0  0  0  0  0  0  0  0
   37.8790   30.6260   41.2470 C   0  0  0  0  0  0  0  0  0  0  0  0
   39.0580   31.1940   41.5940 N   0  0  0  0  0  0  0  0  0  0  0  0
   40.2510   32.9550   41.3930 H   0  0  0  0  0  0  0  0  0  0  0  0
   38.5950   34.1460   39.9740 H   0  0  0  0  0  0  0  0  0  0  0  0
   36.4460   32.9540   39.4120 H   0  0  0  0  0  0  0  0  0  0  0  0
   36.8250   25.6640   40.1250 S   0  0  0  0  0  0  0  0  0  0  0  0
   36.6100   24.1220   41.0500 C   0  0  0  0  0  2  0  0  0  0  0  0
   37.9420   23.4020   41.0660 C   0  0  0  0  0  2  0  0  0  0  0  0
   38.2640   23.1470   40.0510 H   0  0  0  0  0  0  0  0  0  0  0  0
  1  6  1  0  0  0  0
  2  3  1  0  0  0  0
  2  1  2  0  0  0  0
  3  4  2  0  0  0  0
  4  8  1  0  0  0  0
  4  5  1  0  0  0  0
  5  9  1  0  0  0  0
  6  5  2  0  0  0  0
  6 10  1  0  0  0  0
  7  2  1  0  0  0  0
 11 17  1  0  0  0  0
 11 16  1  0  0  0  0
 12 11  2  0  0  0  0
 13 12  1  0  0  0  0
 13 14  2  0  0  0  0
 14 15  1  0  0  0  0
 15 16  2  0  0  0  0
 15  1  1  0  0  0  0
 18 12  1  0  0  0  0
 19 13  1  0  0  0  0
 20 21  1  0  0  0  0
 20  3  1  0  0  0  0
 21 22  1  0  0  0  0
 23 22  1  0  0  0  0
M  END
>  <minimizedAffinity>
-4.36481333

$$$$

 OpenBabel03242516233D

 23 24  0  0  0  0  0  0  0  0999 V2000
   37.4180   30.7500   40.7760 C   0  0  0  0  0  0  0  0  0  0  0  0
   37.6940   29.8040   41.7480 C   0  0  0  0  0  0  0  0  0  0  0  0
   36.8600   28.7070   41.9240 C   0  0  0  0  0  0  0  0  0  0  0  0
   35.7350   28.5450   41.1240 C   0  0  0  0  0  0  0  0  0  0  0  0
   35.4620   29.4700   40.1730 C   0  0  0  0  0  0  0  0  0  0  0  0
   36.2940   30.5660   39.9950 C   0  0  0  0  0  0  0  0  0  0  0  0
   38.5660   29.9060   42.3860 H   0  0  0  0  0  0  0  0  0  0  0  0
   35.0690   27.7080   41.2340 H   0  0  0  0  0  0  0  0  0  0  0  0
   34.6050   29.3850   39.5330 H   0  0  0  0  0  0  0  0  0  0  0  0
   36.0600   31.2910   39.2330 H   0  0  0  0  0  0  0  0  0  0  0  0
   38.5170   34.1580   40.0340 C   0  0  0  0  0  0  0  0  0  0  0  0
   39.8960   34.1190   40.2450 C   0  0  0  0  0  0  0  0  0  0  0  0
   40.4580   32.9150   40.6450 C   0  0  0  0  0  0  0  0  0  0  0  0
   39.6490   31.8280   40.8140 N   0  0  0  0  0  0  0  0  0  0  0  0
   38.3080   31.9070   40.5980 C   0  0  0  0  0  0  0  0  0  0  0  0
   37.7400   33.0730   40.2090 N   0  0  0  0  0  0  0  0  0  0  0  0
   38.1450   35.1150   39.7270 H   0  0  0  0  0  0  0  0  0  0  0  0
   40.5890   34.9240   40.1330 H   0  0  0  0  0  0  0  0  0  0  0  0
   41.4960   32.6850   40.8560 H   0  0  0  0  0  0  0  0  0  0  0  0
   37.2580   27.5230   43.1820 S   0  0  0  0  0  0  0  0  0  0  0  0
   38.0930   26.1360   42.3700 C   0  0  0  0  0  2  0  0  0  0  0  0
   37.0360   25.1270   41.9720 C   0  0  0  0  0  2  0  0  0  0  0  0
   36.5110   24.7400   42.8510 H   0  0  0  0  0  0  0  0  0  0  0  0
  1  2  1  0  0  0  0
  2  3  2  0  0  0  0
  2  7  1  0  0  0  0
  3 20  1  0  0  0  0
  4  8  1  0  0  0  0
  4  3  1  0  0  0  0
  5  4  2  0  0  0  0
  6  5  1  0  0  0  0
  6  1  2  0  0  0  0
  9  5  1  0  0  0  0
 10  6  1  0  0  0  0
 11 16  2  0  0  0  0
 11 12  1  0  0  0  0
 12 13  2  0  0  0  0
 13 14  1  0  0  0  0
 13 19  1  0  0  0  0
 15  1  1  0  0  0  0
 15 14  2  0  0  0  0
 16 15  1  0  0  0  0
 17 11  1  0  0  0  0
 18 12  1  0  0  0  0
 21 20  1  0  0  0  0
 22 21  1  0  0  0  0
 22 23  1  0  0  0  0
M  END
>  <minimizedAffinity>
-4.35344505

$$$$

 OpenBabel03242516233D

 23 24  0  0  0  0  0  0  0  0999 V2000
   37.3650   28.7940   41.2740 C   0  0  0  0  0  0  0  0  0  0  0  0
   37.2770   27.4190   41.1390 C   0  0  0  0  0  0  0  0  0  0  0  0
   37.2550   26.5990   42.2590 C   0  0  0  0  0  0  0  0  0  0  0  0
   37.3210   27.1490   43.5350 C   0  0  0  0  0  0  0  0  0  0  0  0
   37.4080   28.4940   43.6690 C   0  0  0  0  0  0  0  0  0  0  0  0
   37.4300   29.3160   42.5510 C   0  0  0  0  0  0  0  0  0  0  0  0
   37.2240   26.9630   40.1560 H   0  0  0  0  0  0  0  0  0  0  0  0
   37.3060   26.5430   44.4220 H   0  0  0  0  0  0  0  0  0  0  0  0
   37.4610   28.9620   44.6330 H   0  0  0  0  0  0  0  0  0  0  0  0
   37.4990   30.3840   42.6790 H   0  0  0  0  0  0  0  0  0  0  0  0
   37.0440   31.7740   39.1790 C   0  0  0  0  0  0  0  0  0  0  0  0
   37.4040   31.3290   37.9050 C   0  0  0  0  0  0  0  0  0  0  0  0
   37.7600   29.9950   37.7600 C   0  0  0  0  0  0  0  0  0  0  0  0
   37.7440   29.1800   38.8560 N   0  0  0  0  0  0  0  0  0  0  0  0
   37.3870   29.6530   40.0810 C   0  0  0  0  0  0  0  0  0  0  0  0
   37.0380   30.9510   40.2440 N   0  0  0  0  0  0  0  0  0  0  0  0
   36.7800   32.8110   39.2240 H   0  0  0  0  0  0  0  0  0  0  0  0
   37.4390   31.9040   37.0060 H   0  0  0  0  0  0  0  0  0  0  0  0
   38.0650   29.4660   36.8650 H   0  0  0  0  0  0  0  0  0  0  0  0
   37.1410   24.8450   42.0330 S   0  0  0  0  0  0  0  0  0  0  0  0
   38.8160   24.2330   41.7140 C   0  0  0  0  0  2  0  0  0  0  0  0
   39.6180   24.3910   42.9890 C   0  0  0  0  0  2  0  0  0  0  0  0
   39.6910   25.4440   43.2800 H   0  0  0  0  0  0  0  0  0  0  0  0
  1  6  1  0  0  0  0
  2  1  2  0  0  0  0
  2  3  1  0  0  0  0
  3  4  2  0  0  0  0
  4  5  1  0  0  0  0
  4  8  1  0  0  0  0
  5  9  1  0  0  0  0
  6 10  1  0  0  0  0
  6  5  2  0  0  0  0
  7  2  1  0  0  0  0
 11 17  1  0  0  0  0
 11 16  1  0  0  0  0
 12 11  2  0  0  0  0
 13 12  1  0  0  0  0
 13 14  2  0  0  0  0
 14 15  1  0  0  0  0
 15 16  2  0  0  0  0
 15  1  1  0  0  0  0
 18 12  1  0  0  0  0
 19 13  1  0  0  0  0
 20  3  1  0  0  0  0
 21 20  1  0  0  0  0
 21 22  1  0  0  0  0
 22 23  1  0  0  0  0
M  END
>  <minimizedAffinity>
-4.25412178

$$$$

 OpenBabel03242516233D

 23 24  0  0  0  0  0  0  0  0999 V2000
   38.4710   29.4770   42.2580 C   0  0  0  0  0  0  0  0  0  0  0  0
   39.7310   28.9820   42.5520 C   0  0  0  0  0  0  0  0  0  0  0  0
   39.8760   27.7950   43.2580 C   0  0  0  0  0  0  0  0  0  0  0  0
   38.7570   27.0860   43.6790 C   0  0  0  0  0  0  0  0  0  0  0  0
   37.5240   27.5680   43.3930 C   0  0  0  0  0  0  0  0  0  0  0  0
   37.3760   28.7540   42.6870 C   0  0  0  0  0  0  0  0  0  0  0  0
   40.6210   29.5150   42.2350 H   0  0  0  0  0  0  0  0  0  0  0  0
   38.8340   26.1640   44.2270 H   0  0  0  0  0  0  0  0  0  0  0  0
   36.6320   27.0550   43.6980 H   0  0  0  0  0  0  0  0  0  0  0  0
   36.3860   29.1210   42.4700 H   0  0  0  0  0  0  0  0  0  0  0  0
   39.2500   32.7960   40.9370 C   0  0  0  0  0  0  0  0  0  0  0  0
   38.1450   33.1090   40.1420 C   0  0  0  0  0  0  0  0  0  0  0  0
   37.1220   32.1750   40.0570 C   0  0  0  0  0  0  0  0  0  0  0  0
   37.2350   31.0010   40.7460 N   0  0  0  0  0  0  0  0  0  0  0  0
   38.3290   30.7340   41.5100 C   0  0  0  0  0  0  0  0  0  0  0  0
   39.3380   31.6310   41.6050 N   0  0  0  0  0  0  0  0  0  0  0  0
   40.0040   33.5570   40.9600 H   0  0  0  0  0  0  0  0  0  0  0  0
   37.9880   34.0020   39.5780 H   0  0  0  0  0  0  0  0  0  0  0  0
   36.1940   32.2320   39.5000 H   0  0  0  0  0  0  0  0  0  0  0  0
   41.5090   27.2030   43.6090 S   0  0  0  0  0  0  0  0  0  0  0  0
   41.5860   25.4790   43.0610 C   0  0  0  0  0  2  0  0  0  0  0  0
   41.3730   25.4590   41.5620 C   0  0  0  0  0  2  0  0  0  0  0  0
   40.3870   25.8540   41.2990 H   0  0  0  0  0  0  0  0  0  0  0  0
  1  2  2  0  0  0  0
  1  6  1  0  0  0  0
  2  3  1  0  0  0  0
  3 20  1  0  0  0  0
  3  4  2  0  0  0  0
  4  8  1  0  0  0  0
  5  4  1  0  0  0  0
  5  9  1  0  0  0  0
  6  5  2  0  0  0  0
  7  2  1  0  0  0  0
 10  6  1  0  0  0  0
 11 17  1  0  0  0  0
 11 16  1  0  0  0  0
 12 11  2  0  0  0  0
 13 12  1  0  0  0  0
 13 14  2  0  0  0  0
 14 15  1  0  0  0  0
 15 16  2  0  0  0  0
 15  1  1  0  0  0  0
 18 12  1  0  0  0  0
 19 13  1  0  0  0  0
 21 20  1  0  0  0  0
 22 21  1  0  0  0  0
 23 22  1  0  0  0  0
M  END
>  <minimizedAffinity>
-4.19470024

$$$$

 OpenBabel03242516233D

 23 24  0  0  0  0  0  0  0  0999 V2000
   37.4050   30.2670   40.4870 C   0  0  0  0  0  0  0  0  0  0  0  0
   38.0100   31.4530   40.8690 C   0  0  0  0  0  0  0  0  0  0  0  0
   38.0970   32.5180   39.9830 C   0  0  0  0  0  0  0  0  0  0  0  0
   37.5760   32.4090   38.6980 C   0  0  0  0  0  0  0  0  0  0  0  0
   36.9850   31.2500   38.3230 C   0  0  0  0  0  0  0  0  0  0  0  0
   36.8960   30.1840   39.2060 C   0  0  0  0  0  0  0  0  0  0  0  0
   38.4240   31.5650   41.8650 H   0  0  0  0  0  0  0  0  0  0  0  0
   37.6260   33.2140   37.9880 H   0  0  0  0  0  0  0  0  0  0  0  0
   36.5690   31.1200   37.3410 H   0  0  0  0  0  0  0  0  0  0  0  0
   36.4220   29.2690   38.8880 H   0  0  0  0  0  0  0  0  0  0  0  0
   37.0160   26.8560   41.7460 C   0  0  0  0  0  0  0  0  0  0  0  0
   37.1440   26.9920   43.1300 C   0  0  0  0  0  0  0  0  0  0  0  0
   37.3670   28.2640   43.6390 C   0  0  0  0  0  0  0  0  0  0  0  0
   37.4490   29.3200   42.7760 N   0  0  0  0  0  0  0  0  0  0  0  0
   37.3180   29.1450   41.4330 C   0  0  0  0  0  0  0  0  0  0  0  0
   37.1020   27.9130   40.9170 N   0  0  0  0  0  0  0  0  0  0  0  0
   36.8460   25.8510   41.4170 H   0  0  0  0  0  0  0  0  0  0  0  0
   37.0910   26.2180   43.8620 H   0  0  0  0  0  0  0  0  0  0  0  0
   37.4910   28.5720   44.6710 H   0  0  0  0  0  0  0  0  0  0  0  0
   38.8800   34.0150   40.5190 S   0  0  0  0  0  0  0  0  0  0  0  0
   40.4410   34.1610   39.6120 C   0  0  0  0  0  2  0  0  0  0  0  0
   41.2390   32.8980   39.8590 C   0  0  0  0  0  2  0  0  0  0  0  0
   41.4740   32.7820   40.9220 H   0  0  0  0  0  0  0  0  0  0  0  0
  1  2  1  0  0  0  0
  1 15  1  0  0  0  0
  2  7  1  0  0  0  0
  3 20  1  0  0  0  0
  3  2  2  0  0  0  0
  4  3  1  0  0  0  0
  5  4  2  0  0  0  0
  5  6  1  0  0  0  0
  6  1  2  0  0  0  0
  8  4  1  0  0  0  0
  9  5  1  0  0  0  0
 10  6  1  0  0  0  0
 11 12  1  0  0  0  0
 12 13  2  0  0  0  0
 12 18  1  0  0  0  0
 13 19  1  0  0  0  0
 14 13  1  0  0  0  0
 15 14  2  0  0  0  0
 16 15  1  0  0  0  0
 16 11  2  0  0  0  0
 17 11  1  0  0  0  0
 21 22  1  0  0  0  0
 21 20  1  0  0  0  0
 22 23  1  0  0  0  0
M  END
>  <minimizedAffinity>
-4.13641548

$$$$

 OpenBabel03242516233D

 23 24  0  0  0  0  0  0  0  0999 V2000
   37.2780   26.6150   41.6710 C   0  0  0  0  0  0  0  0  0  0  0  0
   36.8250   27.7970   41.1080 C   0  0  0  0  0  0  0  0  0  0  0  0
   36.9550   28.9990   41.7910 C   0  0  0  0  0  0  0  0  0  0  0  0
   37.5430   29.0330   43.0510 C   0  0  0  0  0  0  0  0  0  0  0  0
   37.9860   27.8790   43.6030 C   0  0  0  0  0  0  0  0  0  0  0  0
   37.8580   26.6760   42.9230 C   0  0  0  0  0  0  0  0  0  0  0  0
   36.3630   27.7990   40.1270 H   0  0  0  0  0  0  0  0  0  0  0  0
   37.6590   29.9460   43.6050 H   0  0  0  0  0  0  0  0  0  0  0  0
   38.4450   27.8570   44.5730 H   0  0  0  0  0  0  0  0  0  0  0  0
   38.2160   25.7680   43.3800 H   0  0  0  0  0  0  0  0  0  0  0  0
   36.2430   24.2280   39.1020 C   0  0  0  0  0  0  0  0  0  0  0  0
   36.8220   23.0240   39.5100 C   0  0  0  0  0  0  0  0  0  0  0  0
   37.5740   23.0280   40.6760 C   0  0  0  0  0  0  0  0  0  0  0  0
   37.7160   24.1950   41.3710 N   0  0  0  0  0  0  0  0  0  0  0  0
   37.1360   25.3480   40.9400 C   0  0  0  0  0  0  0  0  0  0  0  0
   36.4000   25.3660   39.8040 N   0  0  0  0  0  0  0  0  0  0  0  0
   35.6770   24.1590   38.1950 H   0  0  0  0  0  0  0  0  0  0  0  0
   36.7540   22.0780   39.0210 H   0  0  0  0  0  0  0  0  0  0  0  0
   38.0950   22.2060   41.1520 H   0  0  0  0  0  0  0  0  0  0  0  0
   36.3600   30.4840   41.0280 S   0  0  0  0  0  0  0  0  0  0  0  0
   37.3730   30.7750   39.5550 C   0  0  0  0  0  2  0  0  0  0  0  0
   36.5580   30.3690   38.3440 C   0  0  0  0  0  2  0  0  0  0  0  0
   36.3070   29.3040   38.3790 H   0  0  0  0  0  0  0  0  0  0  0  0
  1  6  1  0  0  0  0
  2  1  2  0  0  0  0
  2  3  1  0  0  0  0
  3  4  2  0  0  0  0
  4  5  1  0  0  0  0
  4  8  1  0  0  0  0
  5  9  1  0  0  0  0
  6 10  1  0  0  0  0
  6  5  2  0  0  0  0
  7  2  1  0  0  0  0
 11 12  2  0  0  0  0
 11 16  1  0  0  0  0
 12 13  1  0  0  0  0
 13 19  1  0  0  0  0
 13 14  2  0  0  0  0
 15 14  1  0  0  0  0
 15  1  1  0  0  0  0
 16 15  2  0  0  0  0
 17 11  1  0  0  0  0
 18 12  1  0  0  0  0
 20  3  1  0  0  0  0
 21 20  1  0  0  0  0
 22 23  1  0  0  0  0
 22 21  1  0  0  0  0
M  END
>  <minimizedAffinity>
-4.11627769

$$$$

 OpenBabel03242516233D

 23 24  0  0  0  0  0  0  0  0999 V2000
   38.4360   31.0840   41.3000 C   0  0  0  0  0  0  0  0  0  0  0  0
   39.5680   31.8760   41.1990 C   0  0  0  0  0  0  0  0  0  0  0  0
   39.5420   33.0560   40.4660 C   0  0  0  0  0  0  0  0  0  0  0  0
   38.3770   33.4590   39.8230 C   0  0  0  0  0  0  0  0  0  0  0  0
   37.2690   32.6860   39.9210 C   0  0  0  0  0  0  0  0  0  0  0  0
   37.2920   31.5070   40.6520 C   0  0  0  0  0  0  0  0  0  0  0  0
   40.4900   31.5850   41.6900 H   0  0  0  0  0  0  0  0  0  0  0  0
   38.3230   34.3660   39.2490 H   0  0  0  0  0  0  0  0  0  0  0  0
   36.3480   32.9580   39.4410 H   0  0  0  0  0  0  0  0  0  0  0  0
   36.4000   30.9060   40.7170 H   0  0  0  0  0  0  0  0  0  0  0  0
   37.2810   28.2080   43.2390 C   0  0  0  0  0  0  0  0  0  0  0  0
   38.4540   27.5120   43.5380 C   0  0  0  0  0  0  0  0  0  0  0  0
   39.6540   28.0320   43.0720 C   0  0  0  0  0  0  0  0  0  0  0  0
   39.6400   29.1900   42.3480 N   0  0  0  0  0  0  0  0  0  0  0  0
   38.4740   29.8380   42.0780 C   0  0  0  0  0  0  0  0  0  0  0  0
   37.2940   29.3470   42.5220 N   0  0  0  0  0  0  0  0  0  0  0  0
   36.3910   27.7550   43.6260 H   0  0  0  0  0  0  0  0  0  0  0  0
   38.5430   26.6060   44.0960 H   0  0  0  0  0  0  0  0  0  0  0  0
   40.6580   27.6440   43.1980 H   0  0  0  0  0  0  0  0  0  0  0  0
   41.0170   34.0340   40.3680 S   0  0  0  0  0  0  0  0  0  0  0  0
   41.4870   34.1240   38.6210 C   0  0  0  0  0  2  0  0  0  0  0  0
   41.5380   32.7100   38.0810 C   0  0  0  0  0  2  0  0  0  0  0  0
   42.2930   32.1160   38.6060 H   0  0  0  0  0  0  0  0  0  0  0  0
  1 15  1  0  0  0  0
  2  1  1  0  0  0  0
  2  7  1  0  0  0  0
  3  2  2  0  0  0  0
  4  5  2  0  0  0  0
  4  3  1  0  0  0  0
  5  6  1  0  0  0  0
  6 10  1  0  0  0  0
  6  1  2  0  0  0  0
  8  4  1  0  0  0  0
  9  5  1  0  0  0  0
 11 12  1  0  0  0  0
 11 17  1  0  0  0  0
 12 18  1  0  0  0  0
 13 19  1  0  0  0  0
 13 12  2  0  0  0  0
 14 13  1  0  0  0  0
 15 14  2  0  0  0  0
 15 16  1  0  0  0  0
 16 11  2  0  0  0  0
 20  3  1  0  0  0  0
 21 20  1  0  0  0  0
 22 23  1  0  0  0  0
 22 21  1  0  0  0  0
M  END
>  <minimizedAffinity>
-4.10161734

$$$$

 OpenBabel03242516233D

 23 24  0  0  0  0  0  0  0  0999 V2000
   36.5710   30.7820   39.5270 C   0  0  0  0  0  0  0  0  0  0  0  0
   36.5250   30.4050   38.1960 C   0  0  0  0  0  0  0  0  0  0  0  0
   35.6730   29.3920   37.7770 C   0  0  0  0  0  0  0  0  0  0  0  0
   34.8530   28.7400   38.6920 C   0  0  0  0  0  0  0  0  0  0  0  0
   34.8970   29.1060   39.9950 C   0  0  0  0  0  0  0  0  0  0  0  0
   35.7470   30.1190   40.4160 C   0  0  0  0  0  0  0  0  0  0  0  0
   37.1540   30.8970   37.4610 H   0  0  0  0  0  0  0  0  0  0  0  0
   34.1820   27.9520   38.4010 H   0  0  0  0  0  0  0  0  0  0  0  0
   34.2820   28.6310   40.7350 H   0  0  0  0  0  0  0  0  0  0  0  0
   35.7670   30.3960   41.4570 H   0  0  0  0  0  0  0  0  0  0  0  0
   37.9950   34.1270   39.9130 C   0  0  0  0  0  0  0  0  0  0  0  0
   39.1150   33.9240   40.7230 C   0  0  0  0  0  0  0  0  0  0  0  0
   39.3870   32.6290   41.1410 C   0  0  0  0  0  0  0  0  0  0  0  0
   38.5580   31.6160   40.7490 N   0  0  0  0  0  0  0  0  0  0  0  0
   37.4760   31.8560   39.9600 C   0  0  0  0  0  0  0  0  0  0  0  0
   37.1930   33.1120   39.5420 N   0  0  0  0  0  0  0  0  0  0  0  0
   37.8400   35.1470   39.6250 H   0  0  0  0  0  0  0  0  0  0  0  0
   39.8050   34.6630   41.0670 H   0  0  0  0  0  0  0  0  0  0  0  0
   40.1980   32.2720   41.7640 H   0  0  0  0  0  0  0  0  0  0  0  0
   35.6500   28.9470   36.0620 S   0  0  0  0  0  0  0  0  0  0  0  0
   36.6790   27.4680   35.8750 C   0  0  0  0  0  2  0  0  0  0  0  0
   38.1260   27.8880   36.0250 C   0  0  0  0  0  2  0  0  0  0  0  0
   38.4120   28.6000   35.2440 H   0  0  0  0  0  0  0  0  0  0  0  0
  1 15  1  0  0  0  0
  1  6  1  0  0  0  0
  2  1  2  0  0  0  0
  3  2  1  0  0  0  0
  3  4  2  0  0  0  0
  4  5  1  0  0  0  0
  5  6  2  0  0  0  0
  5  9  1  0  0  0  0
  6 10  1  0  0  0  0
  7  2  1  0  0  0  0
  8  4  1  0  0  0  0
 11 12  1  0  0  0  0
 12 18  1  0  0  0  0
 12 13  2  0  0  0  0
 13 19  1  0  0  0  0
 14 13  1  0  0  0  0
 15 14  2  0  0  0  0
 16 11  2  0  0  0  0
 16 15  1  0  0  0  0
 17 11  1  0  0  0  0
 20  3  1  0  0  0  0
 21 22  1  0  0  0  0
 21 20  1  0  0  0  0
 23 22  1  0  0  0  0
M  END
>  <minimizedAffinity>
-4.090312

$$$$

 OpenBabel03242516233D

 23 24  0  0  0  0  0  0  0  0999 V2000
   37.4780   28.3000   41.1990 C   0  0  0  0  0  0  0  0  0  0  0  0
   38.0560   29.1760   40.2950 C   0  0  0  0  0  0  0  0  0  0  0  0
   37.2670   30.0310   39.5360 C   0  0  0  0  0  0  0  0  0  0  0  0
   35.8830   30.0180   39.6730 C   0  0  0  0  0  0  0  0  0  0  0  0
   35.3160   29.1610   40.5550 C   0  0  0  0  0  0  0  0  0  0  0  0
   36.1020   28.3070   41.3150 C   0  0  0  0  0  0  0  0  0  0  0  0
   39.1330   29.2070   40.1690 H   0  0  0  0  0  0  0  0  0  0  0  0
   35.2450   30.6660   39.1010 H   0  0  0  0  0  0  0  0  0  0  0  0
   34.2520   29.1170   40.6930 H   0  0  0  0  0  0  0  0  0  0  0  0
   35.6300   27.6320   42.0120 H   0  0  0  0  0  0  0  0  0  0  0  0
   38.9470   25.2100   42.4860 C   0  0  0  0  0  0  0  0  0  0  0  0
   39.8630   25.6480   43.4460 C   0  0  0  0  0  0  0  0  0  0  0  0
   39.9790   27.0150   43.6550 C   0  0  0  0  0  0  0  0  0  0  0  0
   39.2020   27.8670   42.9240 N   0  0  0  0  0  0  0  0  0  0  0  0
   38.3220   27.4000   41.9980 C   0  0  0  0  0  0  0  0  0  0  0  0
   38.1940   26.0710   41.7770 N   0  0  0  0  0  0  0  0  0  0  0  0
   38.9060   24.1450   42.3720 H   0  0  0  0  0  0  0  0  0  0  0  0
   40.5000   25.0440   44.0530 H   0  0  0  0  0  0  0  0  0  0  0  0
   40.6240   27.5450   44.3470 H   0  0  0  0  0  0  0  0  0  0  0  0
   38.0550   31.1340   38.3950 S   0  0  0  0  0  0  0  0  0  0  0  0
   38.6310   32.5670   39.3410 C   0  0  0  0  0  2  0  0  0  0  0  0
   37.4340   33.4560   39.6090 C   0  0  0  0  0  2  0  0  0  0  0  0
   36.9980   33.8210   38.6730 H   0  0  0  0  0  0  0  0  0  0  0  0
  1  6  1  0  0  0  0
  1 15  1  0  0  0  0
  2  1  2  0  0  0  0
  3  4  2  0  0  0  0
  3  2  1  0  0  0  0
  4  5  1  0  0  0  0
  5  9  1  0  0  0  0
  5  6  2  0  0  0  0
  6 10  1  0  0  0  0
  7  2  1  0  0  0  0
  8  4  1  0  0  0  0
 11 12  1  0  0  0  0
 12 13  2  0  0  0  0
 12 18  1  0  0  0  0
 13 19  1  0  0  0  0
 14 13  1  0  0  0  0
 15 14  2  0  0  0  0
 16 15  1  0  0  0  0
 16 11  2  0  0  0  0
 17 11  1  0  0  0  0
 20 21  1  0  0  0  0
 20  3  1  0  0  0  0
 21 22  1  0  0  0  0
 23 22  1  0  0  0  0
M  END
>  <minimizedAffinity>
-4.02605677

$$$$
