
 OpenBabel03242520023D

 19 20  0  0  0  0  0  0  0  0999 V2000
   46.2320   32.9590   45.8980 C   0  0  0  0  0  0  0  0  0  0  0  0
   47.0060   31.8560   45.5240 C   0  0  0  0  0  0  0  0  0  0  0  0
   47.1950   31.0620   46.6100 C   0  0  0  0  0  0  0  0  0  0  0  0
   46.5530   31.6610   47.6250 N   0  0  0  0  0  0  0  0  0  0  0  0
   45.9830   32.7900   47.1860 N   0  0  0  0  0  0  0  0  0  0  0  0
   47.3920   31.6730   44.5140 H   0  0  0  0  0  0  0  0  0  0  0  0
   47.7610   30.1380   46.6060 H   0  0  0  0  0  0  0  0  0  0  0  0
   44.4750   35.9040   44.6060 C   0  0  0  0  0  0  0  0  0  0  0  0
   45.0290   36.0680   43.3260 C   0  0  0  0  0  0  0  0  0  0  0  0
   46.0130   35.1450   42.9270 C   0  0  0  0  0  0  0  0  0  0  0  0
   46.3680   34.1590   43.7940 N   0  0  0  0  0  0  0  0  0  0  0  0
   45.8180   34.0290   45.0110 C   0  0  0  0  0  0  0  0  0  0  0  0
   44.8690   34.9010   45.4220 N   0  0  0  0  0  0  0  0  0  0  0  0
   43.7270   36.6210   44.8840 H   0  0  0  0  0  0  0  0  0  0  0  0
   44.7010   36.8770   42.6870 H   0  0  0  0  0  0  0  0  0  0  0  0
   46.4650   35.2400   41.9430 H   0  0  0  0  0  0  0  0  0  0  0  0
   46.5260   31.1090   48.9670 C   0  0  0  0  0  0  0  0  0  0  0  0
   45.1190   31.2690   49.4900 C   0  0  0  0  0  0  0  0  0  0  0  0
   44.7790   30.3400   50.0030 H   0  0  0  0  0  0  0  0  0  0  0  0
  1  5  2  0  0  0  0
  2  1  1  0  0  0  0
  2  3  2  0  0  0  0
  3  4  1  0  0  0  0
  4 17  1  0  0  0  0
  5  4  1  0  0  0  0
  6  2  1  0  0  0  0
  7  3  1  0  0  0  0
  8 14  1  0  0  0  0
  8 13  1  0  0  0  0
  9  8  2  0  0  0  0
 10  9  1  0  0  0  0
 10 11  2  0  0  0  0
 11 12  1  0  0  0  0
 12 13  2  0  0  0  0
 12  1  1  0  0  0  0
 15  9  1  0  0  0  0
 16 10  1  0  0  0  0
 17 18  1  0  0  0  0
 18 19  1  0  0  0  0
M  END
>  <minimizedAffinity>
-4.50934696

>  <minimizedRMSD>
1.34549916

$$$$
