
 OpenBabel03252506353D

 27 28  0  0  1  0  0  0  0  0999 V2000
   36.8850   31.8090   39.6180 C   0  0  0  0  0  0  0  0  0  0  0  0
   37.8430   32.7830   39.9810 C   0  0  0  0  0  0  0  0  0  0  0  0
   38.7840   32.4690   40.9200 C   0  0  0  0  0  0  0  0  0  0  0  0
   38.7310   31.2240   41.4480 N   0  0  0  0  0  0  0  0  0  0  0  0
   37.8200   30.3170   41.0930 C   0  0  0  0  0  0  0  0  0  0  0  0
   36.8750   30.5750   40.1760 N   0  0  0  0  0  0  0  0  0  0  0  0
   37.8830   29.0460   41.7320 N   0  0  0  0  0  0  0  0  0  0  0  0
   37.1500   27.8600   41.2680 C   0  0  0  0  0  0  0  0  0  0  0  0
   36.7420   27.2220   42.5930 C   0  0  0  0  0  0  0  0  0  0  0  0
   37.5160   27.9240   43.6800 C   0  0  0  0  0  0  0  0  0  0  0  0
   38.6040   28.6130   42.8930 C   0  0  1  0  0  0  0  0  0  0  0  0
   36.0840   31.9330   38.8820 H   0  0  0  0  0  0  0  0  0  0  0  0
   39.4980   33.2380   41.1700 H   0  0  0  0  0  0  0  0  0  0  0  0
   36.2120   28.1890   40.7580 H   0  0  0  0  0  0  0  0  0  0  0  0
   37.7940   27.2290   40.6570 H   0  0  0  0  0  0  0  0  0  0  0  0
   35.6540   27.3070   42.7630 H   0  0  0  0  0  0  0  0  0  0  0  0
   37.0160   26.1530   42.5870 H   0  0  0  0  0  0  0  0  0  0  0  0
   36.8380   28.6760   44.1340 H   0  0  0  0  0  0  0  0  0  0  0  0
   37.9370   27.2320   44.4360 H   0  0  0  0  0  0  0  0  0  0  0  0
   38.9650   29.4920   43.4690 H   0  0  0  0  0  0  0  0  0  0  0  0
   37.7100   34.0360   39.2970 N   0  0  0  0  0  0  0  0  0  0  0  0
   36.8100   34.5820   39.4460 H   0  0  0  0  0  0  0  0  0  0  0  0
   38.4170   34.4810   38.6520 H   0  0  0  0  0  0  0  0  0  0  0  0
   39.8980   27.4350   42.5240 S   0  0  0  0  0  0  0  0  0  0  0  0
   40.0380   26.0770   43.6790 C   0  0  0  0  0  2  0  0  0  0  0  0
   39.7660   24.7370   43.0170 C   0  0  0  0  0  2  0  0  0  0  0  0
   40.6480   24.0450   43.1430 H   0  0  0  0  0  0  0  0  0  0  0  0
  1  2  2  0  0  0  0
  1  6  1  0  0  0  0
  2  3  1  0  0  0  0
  3 13  1  0  0  0  0
  3  4  2  0  0  0  0
  5  4  1  0  0  0  0
  5  7  1  0  0  0  0
  6  5  2  0  0  0  0
  7 11  1  0  0  0  0
  8  7  1  0  0  0  0
  8  9  1  0  0  0  0
  9 16  1  0  0  0  0
  9 10  1  0  0  0  0
 10 18  1  0  0  0  0
 10 19  1  0  0  0  0
 11 20  1  1  0  0  0
 11 10  1  0  0  0  0
 12  1  1  0  0  0  0
 14  8  1  0  0  0  0
 15  8  1  0  0  0  0
 17  9  1  0  0  0  0
 21 22  1  0  0  0  0
 21  2  1  0  0  0  0
 23 21  1  0  0  0  0
 24 11  1  0  0  0  0
 24 25  1  0  0  0  0
 26 27  1  0  0  0  0
 26 25  1  0  0  0  0
M  END
>  <minimizedAffinity>
-4.65614557

$$$$

 OpenBabel03252506353D

 27 28  0  0  1  0  0  0  0  0999 V2000
   38.9350   32.0590   38.9840 C   0  0  0  0  0  0  0  0  0  0  0  0
   39.5830   31.4610   37.8800 C   0  0  0  0  0  0  0  0  0  0  0  0
   39.7600   30.1070   37.8710 C   0  0  0  0  0  0  0  0  0  0  0  0
   39.2940   29.4210   38.9400 N   0  0  0  0  0  0  0  0  0  0  0  0
   38.6830   30.0020   39.9730 C   0  0  0  0  0  0  0  0  0  0  0  0
   38.4850   31.3280   40.0320 N   0  0  0  0  0  0  0  0  0  0  0  0
   38.2440   29.1560   41.0320 N   0  0  0  0  0  0  0  0  0  0  0  0
   37.3220   29.5840   42.0920 C   0  0  0  0  0  0  0  0  0  0  0  0
   37.9080   28.8690   43.3060 C   0  0  0  0  0  0  0  0  0  0  0  0
   38.9190   27.8760   42.7900 C   0  0  0  0  0  0  0  0  0  0  0  0
   38.5520   27.7870   41.3290 C   0  0  1  0  0  0  0  0  0  0  0  0
   38.7310   33.1280   39.1130 H   0  0  0  0  0  0  0  0  0  0  0  0
   40.2590   29.6860   37.0120 H   0  0  0  0  0  0  0  0  0  0  0  0
   37.4480   30.6810   42.2620 H   0  0  0  0  0  0  0  0  0  0  0  0
   36.3020   29.2820   41.8550 H   0  0  0  0  0  0  0  0  0  0  0  0
   38.3760   29.5820   44.0070 H   0  0  0  0  0  0  0  0  0  0  0  0
   37.1080   28.3270   43.8360 H   0  0  0  0  0  0  0  0  0  0  0  0
   39.9220   28.3360   42.9050 H   0  0  0  0  0  0  0  0  0  0  0  0
   38.8550   26.8870   43.2860 H   0  0  0  0  0  0  0  0  0  0  0  0
   39.4440   27.4620   40.7520 H   0  0  0  0  0  0  0  0  0  0  0  0
   39.9980   32.3790   36.8600 N   0  0  0  0  0  0  0  0  0  0  0  0
   40.7120   33.1190   37.1290 H   0  0  0  0  0  0  0  0  0  0  0  0
   39.6660   32.4020   35.8590 H   0  0  0  0  0  0  0  0  0  0  0  0
   37.1530   26.6900   41.1390 S   0  0  0  0  0  0  0  0  0  0  0  0
   37.1430   25.2800   42.2400 C   0  0  0  0  0  2  0  0  0  0  0  0
   38.1490   24.2230   41.8180 C   0  0  0  0  0  2  0  0  0  0  0  0
   38.8780   24.0120   42.6540 H   0  0  0  0  0  0  0  0  0  0  0  0
  1 12  1  0  0  0  0
  1  6  1  0  0  0  0
  2  1  2  0  0  0  0
  3  2  1  0  0  0  0
  3  4  2  0  0  0  0
  4  5  1  0  0  0  0
  5  6  2  0  0  0  0
  5  7  1  0  0  0  0
  7 11  1  0  0  0  0
  7  8  1  0  0  0  0
  8 14  1  0  0  0  0
  8  9  1  0  0  0  0
  9 17  1  0  0  0  0
  9 16  1  0  0  0  0
 10 18  1  0  0  0  0
 10 19  1  0  0  0  0
 10  9  1  0  0  0  0
 11 20  1  6  0  0  0
 11 10  1  0  0  0  0
 13  3  1  0  0  0  0
 15  8  1  0  0  0  0
 21 22  1  0  0  0  0
 21  2  1  0  0  0  0
 23 21  1  0  0  0  0
 24 11  1  0  0  0  0
 24 25  1  0  0  0  0
 26 25  1  0  0  0  0
 26 27  1  0  0  0  0
M  END
>  <minimizedAffinity>
-4.40273285

$$$$

 OpenBabel03252506353D

 27 28  0  0  1  0  0  0  0  0999 V2000
   41.0710   32.2720   37.1010 C   0  0  0  0  0  0  0  0  0  0  0  0
   41.6910   33.3710   37.7360 C   0  0  0  0  0  0  0  0  0  0  0  0
   41.4500   33.5920   39.0630 C   0  0  0  0  0  0  0  0  0  0  0  0
   40.6180   32.7250   39.6870 N   0  0  0  0  0  0  0  0  0  0  0  0
   40.0420   31.6920   39.0710 C   0  0  0  0  0  0  0  0  0  0  0  0
   40.2450   31.4310   37.7710 N   0  0  0  0  0  0  0  0  0  0  0  0
   39.1870   30.8610   39.8520 N   0  0  0  0  0  0  0  0  0  0  0  0
   38.7050   29.5440   39.4150 C   0  0  0  0  0  0  0  0  0  0  0  0
   37.2780   29.5540   39.9540 C   0  0  0  0  0  0  0  0  0  0  0  0
   37.1660   30.7310   40.8900 C   0  0  0  0  0  0  0  0  0  0  0  0
   38.6140   31.0620   41.1510 C   0  0  1  0  0  0  0  0  0  0  0  0
   41.1810   31.9860   36.0500 H   0  0  0  0  0  0  0  0  0  0  0  0
   41.9400   34.4400   39.5130 H   0  0  0  0  0  0  0  0  0  0  0  0
   38.6370   29.5340   38.3000 H   0  0  0  0  0  0  0  0  0  0  0  0
   39.3270   28.7540   39.8330 H   0  0  0  0  0  0  0  0  0  0  0  0
   36.5390   29.6270   39.1360 H   0  0  0  0  0  0  0  0  0  0  0  0
   37.0900   28.6250   40.5180 H   0  0  0  0  0  0  0  0  0  0  0  0
   36.6790   31.5540   40.3280 H   0  0  0  0  0  0  0  0  0  0  0  0
   36.6270   30.4930   41.8300 H   0  0  0  0  0  0  0  0  0  0  0  0
   38.6940   32.1310   41.4430 H   0  0  0  0  0  0  0  0  0  0  0  0
   42.5310   34.1600   36.8830 N   0  0  0  0  0  0  0  0  0  0  0  0
   42.0710   34.6450   36.0570 H   0  0  0  0  0  0  0  0  0  0  0  0
   43.5700   34.3110   36.9860 H   0  0  0  0  0  0  0  0  0  0  0  0
   39.2600   29.9450   42.3890 S   0  0  0  0  0  0  0  0  0  0  0  0
   38.0230   29.1310   43.3920 C   0  0  0  0  0  2  0  0  0  0  0  0
   38.1220   27.6170   43.2990 C   0  0  0  0  0  2  0  0  0  0  0  0
   38.2720   27.1640   44.3210 H   0  0  0  0  0  0  0  0  0  0  0  0
  1  2  2  0  0  0  0
  1  6  1  0  0  0  0
  2  3  1  0  0  0  0
  3 13  1  0  0  0  0
  3  4  2  0  0  0  0
  5  4  1  0  0  0  0
  5  7  1  0  0  0  0
  6  5  2  0  0  0  0
  7 11  1  0  0  0  0
  8 15  1  0  0  0  0
  8  7  1  0  0  0  0
  8  9  1  0  0  0  0
  9 17  1  0  0  0  0
  9 10  1  0  0  0  0
 10 11  1  0  0  0  0
 10 19  1  0  0  0  0
 11 20  1  1  0  0  0
 11 24  1  0  0  0  0
 12  1  1  0  0  0  0
 14  8  1  0  0  0  0
 16  9  1  0  0  0  0
 18 10  1  0  0  0  0
 21 23  1  0  0  0  0
 21  2  1  0  0  0  0
 22 21  1  0  0  0  0
 24 25  1  0  0  0  0
 26 25  1  0  0  0  0
 26 27  1  0  0  0  0
M  END
>  <minimizedAffinity>
-4.34797287

$$$$

 OpenBabel03252506353D

 27 28  0  0  1  0  0  0  0  0999 V2000
   36.2130   29.7560   39.9180 C   0  0  0  0  0  0  0  0  0  0  0  0
   36.8140   30.5740   40.9000 C   0  0  0  0  0  0  0  0  0  0  0  0
   37.5650   29.9900   41.8810 C   0  0  0  0  0  0  0  0  0  0  0  0
   37.6790   28.6410   41.8420 N   0  0  0  0  0  0  0  0  0  0  0  0
   37.1040   27.8850   40.9070 C   0  0  0  0  0  0  0  0  0  0  0  0
   36.3580   28.4090   39.9230 N   0  0  0  0  0  0  0  0  0  0  0  0
   37.3090   26.4770   40.9910 N   0  0  0  0  0  0  0  0  0  0  0  0
   36.9910   25.5390   39.9060 C   0  0  0  0  0  0  0  0  0  0  0  0
   36.4500   24.3470   40.6900 C   0  0  0  0  0  0  0  0  0  0  0  0
   36.7760   24.5870   42.1430 C   0  0  0  0  0  0  0  0  0  0  0  0
   37.8280   25.6650   42.0530 C   0  0  1  0  0  0  0  0  0  0  0  0
   35.5920   30.0980   39.0830 H   0  0  0  0  0  0  0  0  0  0  0  0
   38.0080   30.6460   42.6120 H   0  0  0  0  0  0  0  0  0  0  0  0
   36.1430   25.9510   39.3060 H   0  0  0  0  0  0  0  0  0  0  0  0
   37.8840   25.3130   39.3240 H   0  0  0  0  0  0  0  0  0  0  0  0
   35.3620   24.2280   40.5430 H   0  0  0  0  0  0  0  0  0  0  0  0
   36.9550   23.4250   40.3540 H   0  0  0  0  0  0  0  0  0  0  0  0
   35.8600   24.9850   42.6250 H   0  0  0  0  0  0  0  0  0  0  0  0
   37.1610   23.6860   42.6600 H   0  0  0  0  0  0  0  0  0  0  0  0
   37.8380   26.2400   43.0030 H   0  0  0  0  0  0  0  0  0  0  0  0
   36.5580   31.9770   40.7490 N   0  0  0  0  0  0  0  0  0  0  0  0
   35.5470   32.2990   40.8180 H   0  0  0  0  0  0  0  0  0  0  0  0
   37.2720   32.7340   40.5730 H   0  0  0  0  0  0  0  0  0  0  0  0
   39.4060   24.9180   41.6650 S   0  0  0  0  0  0  0  0  0  0  0  0
   40.7710   25.4650   42.6830 C   0  0  0  0  0  2  0  0  0  0  0  0
   40.3470   26.5310   43.6800 C   0  0  0  0  0  2  0  0  0  0  0  0
   40.5770   26.2030   44.7350 H   0  0  0  0  0  0  0  0  0  0  0  0
  1  6  2  0  0  0  0
  1  2  1  0  0  0  0
  2  3  2  0  0  0  0
  3 13  1  0  0  0  0
  4  3  1  0  0  0  0
  5  7  1  0  0  0  0
  5  4  2  0  0  0  0
  6  5  1  0  0  0  0
  7 11  1  0  0  0  0
  8  9  1  0  0  0  0
  8  7  1  0  0  0  0
  9 10  1  0  0  0  0
 10 18  1  0  0  0  0
 10 19  1  0  0  0  0
 11 10  1  0  0  0  0
 11 20  1  1  0  0  0
 12  1  1  0  0  0  0
 14  8  1  0  0  0  0
 15  8  1  0  0  0  0
 16  9  1  0  0  0  0
 17  9  1  0  0  0  0
 21 22  1  0  0  0  0
 21  2  1  0  0  0  0
 23 21  1  0  0  0  0
 24 11  1  0  0  0  0
 24 25  1  0  0  0  0
 25 26  1  0  0  0  0
 26 27  1  0  0  0  0
M  END
>  <minimizedAffinity>
-4.31011581

$$$$

 OpenBabel03252506353D

 27 28  0  0  1  0  0  0  0  0999 V2000
   36.8830   31.1850   39.1850 C   0  0  0  0  0  0  0  0  0  0  0  0
   37.5350   32.3560   39.6310 C   0  0  0  0  0  0  0  0  0  0  0  0
   38.2840   32.3030   40.7730 C   0  0  0  0  0  0  0  0  0  0  0  0
   38.3480   31.1090   41.4080 N   0  0  0  0  0  0  0  0  0  0  0  0
   37.7260   30.0140   40.9720 C   0  0  0  0  0  0  0  0  0  0  0  0
   36.9790   30.0120   39.8570 N   0  0  0  0  0  0  0  0  0  0  0  0
   37.8820   28.8250   41.7420 N   0  0  0  0  0  0  0  0  0  0  0  0
   37.5070   27.4870   41.2650 C   0  0  0  0  0  0  0  0  0  0  0  0
   36.9400   26.8640   42.5380 C   0  0  0  0  0  0  0  0  0  0  0  0
   37.3060   27.7780   43.6800 C   0  0  0  0  0  0  0  0  0  0  0  0
   38.3930   28.6250   43.0660 C   0  0  1  0  0  0  0  0  0  0  0  0
   36.2570   31.0940   38.2900 H   0  0  0  0  0  0  0  0  0  0  0  0
   38.7670   33.2160   41.0820 H   0  0  0  0  0  0  0  0  0  0  0  0
   36.6620   27.5830   40.5400 H   0  0  0  0  0  0  0  0  0  0  0  0
   38.3780   26.9660   40.8710 H   0  0  0  0  0  0  0  0  0  0  0  0
   35.8460   26.7340   42.4700 H   0  0  0  0  0  0  0  0  0  0  0  0
   37.4040   25.8770   42.7020 H   0  0  0  0  0  0  0  0  0  0  0  0
   36.4150   28.4010   43.9020 H   0  0  0  0  0  0  0  0  0  0  0  0
   37.6690   27.2370   44.5760 H   0  0  0  0  0  0  0  0  0  0  0  0
   38.4450   29.5940   43.6060 H   0  0  0  0  0  0  0  0  0  0  0  0
   37.3260   33.5090   38.8050 N   0  0  0  0  0  0  0  0  0  0  0  0
   36.3300   33.8660   38.7060 H   0  0  0  0  0  0  0  0  0  0  0  0
   38.0630   34.0480   38.2760 H   0  0  0  0  0  0  0  0  0  0  0  0
   39.9340   27.7190   43.0990 S   0  0  0  0  0  0  0  0  0  0  0  0
   41.2570   28.4390   42.1340 C   0  0  0  0  0  2  0  0  0  0  0  0
   42.2170   29.2420   42.9950 C   0  0  0  0  0  2  0  0  0  0  0  0
   43.2690   28.8480   42.8900 H   0  0  0  0  0  0  0  0  0  0  0  0
  1  2  2  0  0  0  0
  1  6  1  0  0  0  0
  2  3  1  0  0  0  0
  3 13  1  0  0  0  0
  3  4  2  0  0  0  0
  5  4  1  0  0  0  0
  5  7  1  0  0  0  0
  6  5  2  0  0  0  0
  7 11  1  0  0  0  0
  8  7  1  0  0  0  0
  8  9  1  0  0  0  0
  9 17  1  0  0  0  0
  9 10  1  0  0  0  0
 10 18  1  0  0  0  0
 10 19  1  0  0  0  0
 11 24  1  0  0  0  0
 11 20  1  1  0  0  0
 11 10  1  0  0  0  0
 12  1  1  0  0  0  0
 14  8  1  0  0  0  0
 15  8  1  0  0  0  0
 16  9  1  0  0  0  0
 21  2  1  0  0  0  0
 22 21  1  0  0  0  0
 23 21  1  0  0  0  0
 25 26  1  0  0  0  0
 25 24  1  0  0  0  0
 27 26  1  0  0  0  0
M  END
>  <minimizedAffinity>
-4.24495173

$$$$

 OpenBabel03252506353D

 27 28  0  0  1  0  0  0  0  0999 V2000
   37.0770   30.5200   37.4870 C   0  0  0  0  0  0  0  0  0  0  0  0
   38.1100   31.4740   37.3540 C   0  0  0  0  0  0  0  0  0  0  0  0
   39.0720   31.5480   38.3210 C   0  0  0  0  0  0  0  0  0  0  0  0
   38.9640   30.6870   39.3590 N   0  0  0  0  0  0  0  0  0  0  0  0
   37.9810   29.7920   39.4680 C   0  0  0  0  0  0  0  0  0  0  0  0
   37.0130   29.6780   38.5460 N   0  0  0  0  0  0  0  0  0  0  0  0
   37.9920   28.9490   40.6160 N   0  0  0  0  0  0  0  0  0  0  0  0
   37.1640   27.7430   40.7530 C   0  0  0  0  0  0  0  0  0  0  0  0
   36.7780   27.8100   42.2270 C   0  0  0  0  0  0  0  0  0  0  0  0
   37.6450   28.8660   42.8650 C   0  0  0  0  0  0  0  0  0  0  0  0
   38.7370   29.0350   41.8380 C   0  0  1  0  0  0  0  0  0  0  0  0
   36.2510   30.3590   36.7850 H   0  0  0  0  0  0  0  0  0  0  0  0
   39.8450   32.2890   38.1850 H   0  0  0  0  0  0  0  0  0  0  0  0
   36.2260   27.8770   40.1590 H   0  0  0  0  0  0  0  0  0  0  0  0
   37.7380   26.8550   40.4880 H   0  0  0  0  0  0  0  0  0  0  0  0
   35.7070   28.0480   42.3530 H   0  0  0  0  0  0  0  0  0  0  0  0
   36.9820   26.8370   42.7060 H   0  0  0  0  0  0  0  0  0  0  0  0
   37.0380   29.7920   42.9350 H   0  0  0  0  0  0  0  0  0  0  0  0
   38.0550   28.5610   43.8490 H   0  0  0  0  0  0  0  0  0  0  0  0
   39.1790   30.0480   41.9450 H   0  0  0  0  0  0  0  0  0  0  0  0
   38.0270   32.2870   36.1750 N   0  0  0  0  0  0  0  0  0  0  0  0
   37.1720   32.9090   36.0690 H   0  0  0  0  0  0  0  0  0  0  0  0
   38.7300   32.3330   35.3900 H   0  0  0  0  0  0  0  0  0  0  0  0
   39.9350   27.7210   42.0300 S   0  0  0  0  0  0  0  0  0  0  0  0
   40.0480   27.0370   43.6800 C   0  0  0  0  0  2  0  0  0  0  0  0
   39.8920   25.5260   43.6800 C   0  0  0  0  0  2  0  0  0  0  0  0
   40.7940   25.0330   44.1460 H   0  0  0  0  0  0  0  0  0  0  0  0
  1  6  1  0  0  0  0
  2  1  2  0  0  0  0
  2  3  1  0  0  0  0
  3  4  2  0  0  0  0
  4  5  1  0  0  0  0
  5  7  1  0  0  0  0
  6  5  2  0  0  0  0
  7  8  1  0  0  0  0
  7 11  1  0  0  0  0
  8  9  1  0  0  0  0
  9 16  1  0  0  0  0
  9 17  1  0  0  0  0
  9 10  1  0  0  0  0
 10 18  1  0  0  0  0
 10 19  1  0  0  0  0
 11 20  1  1  0  0  0
 11 24  1  0  0  0  0
 11 10  1  0  0  0  0
 12  1  1  0  0  0  0
 13  3  1  0  0  0  0
 14  8  1  0  0  0  0
 15  8  1  0  0  0  0
 21  2  1  0  0  0  0
 22 21  1  0  0  0  0
 23 21  1  0  0  0  0
 24 25  1  0  0  0  0
 25 26  1  0  0  0  0
 26 27  1  0  0  0  0
M  END
>  <minimizedAffinity>
-4.23816586

$$$$

 OpenBabel03252506353D

 27 28  0  0  1  0  0  0  0  0999 V2000
   41.8390   33.1450   39.1090 C   0  0  0  0  0  0  0  0  0  0  0  0
   41.4450   33.0640   37.7550 C   0  0  0  0  0  0  0  0  0  0  0  0
   40.3630   32.2980   37.4250 C   0  0  0  0  0  0  0  0  0  0  0  0
   39.7340   31.6580   38.4390 N   0  0  0  0  0  0  0  0  0  0  0  0
   40.1200   31.7470   39.7120 C   0  0  0  0  0  0  0  0  0  0  0  0
   41.1750   32.4850   40.0880 N   0  0  0  0  0  0  0  0  0  0  0  0
   39.3640   31.0190   40.6750 N   0  0  0  0  0  0  0  0  0  0  0  0
   39.4740   31.2230   42.1250 C   0  0  0  0  0  0  0  0  0  0  0  0
   39.3500   29.7920   42.6400 C   0  0  0  0  0  0  0  0  0  0  0  0
   38.8910   28.9430   41.4820 C   0  0  0  0  0  0  0  0  0  0  0  0
   38.3860   29.9830   40.5120 C   0  0  1  0  0  0  0  0  0  0  0  0
   42.6830   33.7220   39.5030 H   0  0  0  0  0  0  0  0  0  0  0  0
   40.0920   32.2600   36.3820 H   0  0  0  0  0  0  0  0  0  0  0  0
   40.5080   31.5720   42.3660 H   0  0  0  0  0  0  0  0  0  0  0  0
   38.6840   31.8870   42.4770 H   0  0  0  0  0  0  0  0  0  0  0  0
   40.3090   29.4250   43.0450 H   0  0  0  0  0  0  0  0  0  0  0  0
   38.5910   29.7530   43.4400 H   0  0  0  0  0  0  0  0  0  0  0  0
   39.7880   28.4370   41.0680 H   0  0  0  0  0  0  0  0  0  0  0  0
   38.0950   28.2210   41.7550 H   0  0  0  0  0  0  0  0  0  0  0  0
   38.4340   29.5700   39.4820 H   0  0  0  0  0  0  0  0  0  0  0  0
   42.2570   33.8210   36.8480 N   0  0  0  0  0  0  0  0  0  0  0  0
   43.2830   33.5530   36.7690 H   0  0  0  0  0  0  0  0  0  0  0  0
   41.9450   34.6280   36.2430 H   0  0  0  0  0  0  0  0  0  0  0  0
   36.7380   30.4850   40.9930 S   0  0  0  0  0  0  0  0  0  0  0  0
   35.4480   29.3040   40.6170 C   0  0  0  0  0  2  0  0  0  0  0  0
   35.7800   28.4700   39.3910 C   0  0  0  0  0  2  0  0  0  0  0  0
   35.7750   27.3700   39.6450 H   0  0  0  0  0  0  0  0  0  0  0  0
  1 12  1  0  0  0  0
  1  6  1  0  0  0  0
  2  1  2  0  0  0  0
  3  2  1  0  0  0  0
  3  4  2  0  0  0  0
  4  5  1  0  0  0  0
  5  6  2  0  0  0  0
  5  7  1  0  0  0  0
  7  8  1  0  0  0  0
  8 14  1  0  0  0  0
  8 15  1  0  0  0  0
  8  9  1  0  0  0  0
  9 16  1  0  0  0  0
  9 17  1  0  0  0  0
 10 19  1  0  0  0  0
 10  9  1  0  0  0  0
 11 20  1  6  0  0  0
 11  7  1  0  0  0  0
 11 24  1  0  0  0  0
 11 10  1  0  0  0  0
 13  3  1  0  0  0  0
 18 10  1  0  0  0  0
 21  2  1  0  0  0  0
 22 21  1  0  0  0  0
 23 21  1  0  0  0  0
 25 24  1  0  0  0  0
 26 27  1  0  0  0  0
 26 25  1  0  0  0  0
M  END
>  <minimizedAffinity>
-4.14871883

$$$$

 OpenBabel03252506353D

 27 28  0  0  1  0  0  0  0  0999 V2000
   39.5020   32.0450   38.5390 C   0  0  0  0  0  0  0  0  0  0  0  0
   39.5590   33.0440   39.5360 C   0  0  0  0  0  0  0  0  0  0  0  0
   38.8360   32.8770   40.6840 C   0  0  0  0  0  0  0  0  0  0  0  0
   38.1020   31.7450   40.7850 N   0  0  0  0  0  0  0  0  0  0  0  0
   38.0600   30.8120   39.8340 C   0  0  0  0  0  0  0  0  0  0  0  0
   38.7510   30.9270   38.6890 N   0  0  0  0  0  0  0  0  0  0  0  0
   37.2430   29.6700   40.0750 N   0  0  0  0  0  0  0  0  0  0  0  0
   37.3000   28.4390   39.2760 C   0  0  0  0  0  0  0  0  0  0  0  0
   35.8250   28.0520   39.2150 C   0  0  0  0  0  0  0  0  0  0  0  0
   35.0990   28.9160   40.2160 C   0  0  0  0  0  0  0  0  0  0  0  0
   36.2340   29.4300   41.0660 C   0  0  1  0  0  0  0  0  0  0  0  0
   40.0310   32.0560   37.5800 H   0  0  0  0  0  0  0  0  0  0  0  0
   38.9050   33.6610   41.4210 H   0  0  0  0  0  0  0  0  0  0  0  0
   37.6170   28.6960   38.2360 H   0  0  0  0  0  0  0  0  0  0  0  0
   37.9290   27.6970   39.7650 H   0  0  0  0  0  0  0  0  0  0  0  0
   35.4140   28.1910   38.2000 H   0  0  0  0  0  0  0  0  0  0  0  0
   35.7100   26.9930   39.5010 H   0  0  0  0  0  0  0  0  0  0  0  0
   34.6330   29.7510   39.6530 H   0  0  0  0  0  0  0  0  0  0  0  0
   34.3580   28.3560   40.8210 H   0  0  0  0  0  0  0  0  0  0  0  0
   35.9270   30.3880   41.5380 H   0  0  0  0  0  0  0  0  0  0  0  0
   40.3990   34.1610   39.2170 N   0  0  0  0  0  0  0  0  0  0  0  0
   40.1340   34.7450   38.3690 H   0  0  0  0  0  0  0  0  0  0  0  0
   41.2640   34.4700   39.7360 H   0  0  0  0  0  0  0  0  0  0  0  0
   36.6940   28.1770   42.2550 S   0  0  0  0  0  0  0  0  0  0  0  0
   38.2580   28.4540   43.0800 C   0  0  0  0  0  2  0  0  0  0  0  0
   38.8190   27.1750   43.6770 C   0  0  0  0  0  2  0  0  0  0  0  0
   39.8480   26.9620   43.2650 H   0  0  0  0  0  0  0  0  0  0  0  0
  1  6  2  0  0  0  0
  1  2  1  0  0  0  0
  2  3  2  0  0  0  0
  3  4  1  0  0  0  0
  3 13  1  0  0  0  0
  5  7  1  0  0  0  0
  5  4  2  0  0  0  0
  6  5  1  0  0  0  0
  7 11  1  0  0  0  0
  8 15  1  0  0  0  0
  8  7  1  0  0  0  0
  9  8  1  0  0  0  0
  9 17  1  0  0  0  0
  9 10  1  0  0  0  0
 10 19  1  0  0  0  0
 10 11  1  0  0  0  0
 11 20  1  1  0  0  0
 11 24  1  0  0  0  0
 12  1  1  0  0  0  0
 14  8  1  0  0  0  0
 16  9  1  0  0  0  0
 18 10  1  0  0  0  0
 21  2  1  0  0  0  0
 21 23  1  0  0  0  0
 22 21  1  0  0  0  0
 24 25  1  0  0  0  0
 25 26  1  0  0  0  0
 27 26  1  0  0  0  0
M  END
>  <minimizedAffinity>
-4.1344595

$$$$

 OpenBabel03252506353D

 27 28  0  0  1  0  0  0  0  0999 V2000
   36.0620   28.6120   41.1830 C   0  0  0  0  0  0  0  0  0  0  0  0
   36.6100   29.8920   41.4210 C   0  0  0  0  0  0  0  0  0  0  0  0
   37.9180   29.9920   41.8020 C   0  0  0  0  0  0  0  0  0  0  0  0
   38.6090   28.8350   41.9280 N   0  0  0  0  0  0  0  0  0  0  0  0
   38.0750   27.6350   41.7000 C   0  0  0  0  0  0  0  0  0  0  0  0
   36.7970   27.4820   41.3240 N   0  0  0  0  0  0  0  0  0  0  0  0
   38.9210   26.5020   41.8730 N   0  0  0  0  0  0  0  0  0  0  0  0
   38.5860   25.1520   41.4010 C   0  0  0  0  0  0  0  0  0  0  0  0
   39.1320   24.2920   42.5370 C   0  0  0  0  0  0  0  0  0  0  0  0
   39.9790   25.1890   43.4030 C   0  0  0  0  0  0  0  0  0  0  0  0
   40.2050   26.3750   42.4980 C   0  0  1  0  0  0  0  0  0  0  0  0
   35.0330   28.3960   40.8740 H   0  0  0  0  0  0  0  0  0  0  0  0
   38.3010   30.9860   41.9730 H   0  0  0  0  0  0  0  0  0  0  0  0
   37.4750   25.0320   41.4000 H   0  0  0  0  0  0  0  0  0  0  0  0
   39.0570   24.9570   40.4380 H   0  0  0  0  0  0  0  0  0  0  0  0
   38.3150   23.8330   43.1220 H   0  0  0  0  0  0  0  0  0  0  0  0
   39.7630   23.4890   42.1210 H   0  0  0  0  0  0  0  0  0  0  0  0
   39.3610   25.4860   44.2750 H   0  0  0  0  0  0  0  0  0  0  0  0
   40.9370   24.7240   43.7110 H   0  0  0  0  0  0  0  0  0  0  0  0
   40.4170   27.2700   43.1210 H   0  0  0  0  0  0  0  0  0  0  0  0
   35.6960   30.9800   41.2290 N   0  0  0  0  0  0  0  0  0  0  0  0
   34.8390   31.0140   41.8570 H   0  0  0  0  0  0  0  0  0  0  0  0
   35.7800   31.7580   40.5220 H   0  0  0  0  0  0  0  0  0  0  0  0
   41.5180   25.9940   41.3450 S   0  0  0  0  0  0  0  0  0  0  0  0
   41.8970   27.2920   40.1740 C   0  0  0  0  0  2  0  0  0  0  0  0
   40.9160   27.3150   39.0140 C   0  0  0  0  0  2  0  0  0  0  0  0
   40.4150   28.3230   38.9370 H   0  0  0  0  0  0  0  0  0  0  0  0
  1  6  2  0  0  0  0
  1  2  1  0  0  0  0
  2  3  2  0  0  0  0
  3  4  1  0  0  0  0
  3 13  1  0  0  0  0
  5  7  1  0  0  0  0
  5  4  2  0  0  0  0
  6  5  1  0  0  0  0
  7 11  1  0  0  0  0
  8  7  1  0  0  0  0
  8  9  1  0  0  0  0
  9 16  1  0  0  0  0
  9 10  1  0  0  0  0
 10 19  1  0  0  0  0
 10 18  1  0  0  0  0
 11 20  1  1  0  0  0
 11 10  1  0  0  0  0
 12  1  1  0  0  0  0
 14  8  1  0  0  0  0
 15  8  1  0  0  0  0
 17  9  1  0  0  0  0
 21  2  1  0  0  0  0
 21 22  1  0  0  0  0
 23 21  1  0  0  0  0
 24 11  1  0  0  0  0
 25 24  1  0  0  0  0
 26 25  1  0  0  0  0
 27 26  1  0  0  0  0
M  END
>  <minimizedAffinity>
-4.12643814

$$$$
