
 OpenBabel03242516213D

 23 24  0  0  0  0  0  0  0  0999 V2000
   45.9880   32.7590   47.0600 C   0  0  0  0  0  0  0  0  0  0  0  0
   47.2520   32.4330   47.5210 C   0  0  0  0  0  0  0  0  0  0  0  0
   47.4100   31.6370   48.6470 C   0  0  0  0  0  0  0  0  0  0  0  0
   46.2980   31.1530   49.3280 C   0  0  0  0  0  0  0  0  0  0  0  0
   45.0610   31.4710   48.8790 C   0  0  0  0  0  0  0  0  0  0  0  0
   44.9000   32.2660   47.7540 C   0  0  0  0  0  0  0  0  0  0  0  0
   48.1370   32.7970   47.0090 H   0  0  0  0  0  0  0  0  0  0  0  0
   46.3860   30.5340   50.2020 H   0  0  0  0  0  0  0  0  0  0  0  0
   44.1740   31.1200   49.3730 H   0  0  0  0  0  0  0  0  0  0  0  0
   43.9060   32.5080   47.4130 H   0  0  0  0  0  0  0  0  0  0  0  0
   44.7170   35.3750   44.8440 C   0  0  0  0  0  0  0  0  0  0  0  0
   45.4760   35.2280   43.6810 C   0  0  0  0  0  0  0  0  0  0  0  0
   46.4330   34.2220   43.6530 C   0  0  0  0  0  0  0  0  0  0  0  0
   46.5920   33.4260   44.7510 N   0  0  0  0  0  0  0  0  0  0  0  0
   45.8320   33.6030   45.8660 C   0  0  0  0  0  0  0  0  0  0  0  0
   44.8940   34.5780   45.9140 N   0  0  0  0  0  0  0  0  0  0  0  0
   43.9980   36.1680   44.8020 H   0  0  0  0  0  0  0  0  0  0  0  0
   45.4080   35.8090   42.7880 H   0  0  0  0  0  0  0  0  0  0  0  0
   47.1120   33.9520   42.8530 H   0  0  0  0  0  0  0  0  0  0  0  0
   49.0500   31.2480   49.1970 S   0  0  0  0  0  0  0  0  0  0  0  0
   49.4730   29.6220   48.5200 C   0  0  0  0  0  0  0  0  0  0  0  0
   50.9820   29.5450   48.4090 C   0  0  0  0  0  0  0  0  0  0  0  0
   51.3650   30.3080   47.7230 H   0  0  0  0  0  0  0  0  0  0  0  0
  1  2  2  0  0  0  0
  1  6  1  0  0  0  0
  2  3  1  0  0  0  0
  3 20  1  0  0  0  0
  3  4  2  0  0  0  0
  4  8  1  0  0  0  0
  5  4  1  0  0  0  0
  5  9  1  0  0  0  0
  6  5  2  0  0  0  0
  7  2  1  0  0  0  0
 10  6  1  0  0  0  0
 11 16  1  0  0  0  0
 12 11  2  0  0  0  0
 13 12  1  0  0  0  0
 13 14  2  0  0  0  0
 14 15  1  0  0  0  0
 15 16  2  0  0  0  0
 15  1  1  0  0  0  0
 17 11  1  0  0  0  0
 18 12  1  0  0  0  0
 19 13  1  0  0  0  0
 21 20  1  0  0  0  0
 22 21  1  0  0  0  0
 23 22  1  0  0  0  0
M  END
>  <minimizedAffinity>
-4.71668291

>  <minimizedRMSD>
0.09695822

$$$$
