REMARK  Name = 
REMARK  4 active torsions:
REMARK  status: ('A' for Active; 'I' for Inactive)
REMARK    1  A    between atoms: C_2  and  C_14
REMARK    2  A    between atoms: C_3  and  S_16
REMARK    3  A    between atoms: S_16  and  C_24
REMARK    4  A    between atoms: C_24  and  C_25
REMARK                            x       y       z     vdW  Elec       q    Type
REMARK                         _______ _______ _______ _____ _____    ______ ____
ROOT
ATOM      1  C   UNL     1      47.474  31.675  44.825  0.00  0.00    +0.000 A 
ATOM      2  C   UNL     1      46.791  32.862  44.538  0.00  0.00    +0.000 A 
ATOM      3  C   UNL     1      45.910  33.456  45.427  0.00  0.00    +0.000 A 
ATOM      4  C   UNL     1      45.682  32.856  46.671  0.00  0.00    +0.000 A 
ATOM      5  N   UNL     1      44.926  33.126  47.757  0.00  0.00    +0.000 N 
ATOM      6  C   UNL     1      45.104  32.179  48.690  0.00  0.00    +0.000 A 
ATOM      7  N   UNL     1      45.992  31.307  48.161  0.00  0.00    +0.000 NA
ATOM      8  C   UNL     1      46.365  31.698  46.921  0.00  0.00    +0.000 A 
ATOM      9  C   UNL     1      47.245  31.076  46.070  0.00  0.00    +0.000 A 
ATOM     10  H   UNL     1      48.149  31.273  44.068  0.00  0.00    +0.000 HD
ATOM     11  H   UNL     1      44.325  33.984  47.757  0.00  0.00    +0.000 HD
ATOM     12  H   UNL     1      44.623  32.147  49.658  0.00  0.00    +0.000 HD
ATOM     13  H   UNL     1      47.779  30.161  46.280  0.00  0.00    +0.000 HD
ENDROOT
BRANCH   2  18
ATOM     14  C   UNL     1      46.375  33.820  41.020  0.00  0.00    +0.000 A 
ATOM     15  C   UNL     1      47.419  34.719  40.816  0.00  0.00    +0.000 A 
ATOM     16  C   UNL     1      48.252  34.983  41.896  0.00  0.00    +0.000 A 
ATOM     17  N   UNL     1      48.029  34.364  43.106  0.00  0.00    +0.000 NA
ATOM     18  C   UNL     1      47.005  33.503  43.250  0.00  0.00    +0.000 A 
ATOM     19  N   UNL     1      46.173  33.224  42.216  0.00  0.00    +0.000 NA
ATOM     20  H   UNL     1      45.676  33.561  40.221  0.00  0.00    +0.000 HD
ATOM     21  H   UNL     1      47.552  35.181  39.844  0.00  0.00    +0.000 HD
ATOM     22  H   UNL     1      49.057  35.681  41.726  0.00  0.00    +0.000 HD
ENDBRANCH   2  18
BRANCH   3  23
ATOM     23  S   UNL     1      45.050  34.969  45.056  0.00  0.00    +0.000 S 
BRANCH  23  24
ATOM     24  C   UNL     1      46.097  36.339  45.590  0.00  0.00    +0.000 C 
BRANCH  24  25
ATOM     25  C   UNL     1      45.202  37.416  46.180  0.00  0.00    +0.000 C 
ATOM     26  H   UNL     1      44.542  37.831  45.387  0.00  0.00    +0.000 HD
ENDBRANCH  24  25
ENDBRANCH  23  24
ENDBRANCH   3  23
TORSDOF 4
