
 OpenBabel03252506373D

 38 40  0  0  1  0  0  0  0  0999 V2000
   44.4990   35.5520   45.1280 C   0  0  0  0  0  0  0  0  0  0  0  0
   45.1550   35.5330   43.8790 C   0  0  0  0  0  0  0  0  0  0  0  0
   46.0730   34.5680   43.6260 C   0  0  0  0  0  0  0  0  0  0  0  0
   46.3060   33.6640   44.6100 N   0  0  0  0  0  0  0  0  0  0  0  0
   45.6860   33.6870   45.7820 C   0  0  0  0  0  0  0  0  0  0  0  0
   44.7790   34.6260   46.0570 N   0  0  0  0  0  0  0  0  0  0  0  0
   46.0140   32.6780   46.7550 N   0  0  0  0  0  0  0  0  0  0  0  0
   45.2790   32.4420   47.9400 C   0  0  0  0  0  0  0  0  0  0  0  0
   46.3530   32.0980   48.9550 C   0  0  0  0  0  0  0  0  0  0  0  0
   47.6330   31.9820   48.1830 C   0  0  0  0  0  0  0  0  0  0  0  0
   47.1280   31.7640   46.7580 C   0  0  1  0  0  0  0  0  0  0  0  0
   43.7700   36.3350   45.3050 H   0  0  0  0  0  0  0  0  0  0  0  0
   46.5810   34.5340   42.6880 H   0  0  0  0  0  0  0  0  0  0  0  0
   44.9110   33.4580   48.2930 H   0  0  0  0  0  0  0  0  0  0  0  0
   44.4760   31.7920   48.0550 H   0  0  0  0  0  0  0  0  0  0  0  0
   46.1420   31.0940   49.4130 H   0  0  0  0  0  0  0  0  0  0  0  0
   46.4450   32.7980   49.7820 H   0  0  0  0  0  0  0  0  0  0  0  0
   48.2110   32.9180   48.2540 H   0  0  0  0  0  0  0  0  0  0  0  0
   48.2410   31.1020   48.4790 H   0  0  0  0  0  0  0  0  0  0  0  0
   47.8760   32.1060   46.0240 H   0  0  0  0  0  0  0  0  0  0  0  0
   44.8040   36.5570   42.9320 N   0  0  0  0  0  0  0  0  0  0  0  0
   44.7790   37.5640   43.2240 H   0  0  0  0  0  0  0  0  0  0  0  0
   44.6030   36.1130   41.9900 H   0  0  0  0  0  0  0  0  0  0  0  0
   46.6140   30.0710   46.5820 S   0  0  0  0  0  0  0  0  0  0  0  0
   45.8250   30.5390   43.3750 O   0  0  0  0  0  0  0  0  0  0  0  0
   45.1280   30.0070   44.2540 C   0  0  0  0  0  0  0  0  0  0  0  0
   45.1210   29.7850   45.7220 C   0  0  1  0  0  0  0  0  0  0  0  0
   44.5760   28.3830   45.8120 C   0  0  0  0  0  0  0  0  0  0  0  0
   43.3150   28.5960   44.9640 C   0  0  0  0  0  0  0  0  0  0  0  0
   43.8990   29.3580   43.8660 N   0  0  0  0  0  0  0  0  0  0  0  0
   44.2160   30.3850   46.0150 H   0  0  0  0  0  0  0  0  0  0  0  0
   45.2410   27.6460   45.2990 H   0  0  0  0  0  0  0  0  0  0  0  0
   44.2870   28.0800   46.8200 H   0  0  0  0  0  0  0  0  0  0  0  0
   42.9430   27.6110   44.6180 H   0  0  0  0  0  0  0  0  0  0  0  0
   42.5820   29.1630   45.5430 H   0  0  0  0  0  0  0  0  0  0  0  0
   43.1900   29.3550   42.5900 C   0  0  0  0  0  0  0  0  0  0  0  0
   41.9540   30.2450   42.6910 C   0  0  0  0  0  0  0  0  0  0  0  0
   41.1520   29.9360   41.9940 H   0  0  0  0  0  0  0  0  0  0  0  0
  1 12  1  0  0  0  0
  1  6  1  0  0  0  0
  2  1  2  0  0  0  0
  3  2  1  0  0  0  0
  3  4  2  0  0  0  0
  4  5  1  0  0  0  0
  5  6  2  0  0  0  0
  5  7  1  0  0  0  0
  7 11  1  0  0  0  0
  7  8  1  0  0  0  0
  8 15  1  0  0  0  0
  8 14  1  0  0  0  0
  8  9  1  0  0  0  0
  9 16  1  0  0  0  0
  9 17  1  0  0  0  0
 10 18  1  0  0  0  0
 10 19  1  0  0  0  0
 10  9  1  0  0  0  0
 11 20  1  6  0  0  0
 11 10  1  0  0  0  0
 13  3  1  0  0  0  0
 21 22  1  0  0  0  0
 21  2  1  0  0  0  0
 23 21  1  0  0  0  0
 24 11  1  0  0  0  0
 25 26  2  0  0  0  0
 26 27  1  0  0  0  0
 27 28  1  0  0  0  0
 27 31  1  1  0  0  0
 27 24  1  0  0  0  0
 28 33  1  0  0  0  0
 29 35  1  0  0  0  0
 29 28  1  0  0  0  0
 30 26  1  0  0  0  0
 30 29  1  0  0  0  0
 32 28  1  0  0  0  0
 34 29  1  0  0  0  0
 36 37  1  0  0  0  0
 36 30  1  0  0  0  0
 38 37  1  0  0  0  0
M  END
>  <minimizedAffinity>
-5.06762505

>  <minimizedRMSD>
0.330201

$$$$
