
 OpenBabel03242519373D

 21 21  0  0  0  0  0  0  0  0999 V2000
   48.0970   32.9090   41.9330 O   0  0  0  0  0  0  0  0  0  0  0  0
   47.2150   34.0120   41.3590 P   0  0  2  0  0  0  0  0  0  0  0  0
   45.6070   33.8010   41.9600 O   0  0  0  0  0  0  0  0  0  0  0  0
   44.3870   35.9330   44.6760 C   0  0  0  0  0  0  0  0  0  0  0  0
   44.6790   35.4890   43.3630 C   0  0  0  0  0  0  0  0  0  0  0  0
   45.3170   34.2440   43.2480 C   0  0  0  0  0  0  0  0  0  0  0  0
   45.6170   33.5440   44.3680 N   0  0  0  0  0  0  0  0  0  0  0  0
   45.3140   34.0180   45.6020 C   0  0  0  0  0  0  0  0  0  0  0  0
   44.7100   35.1920   45.7670 N   0  0  0  0  0  0  0  0  0  0  0  0
   43.8940   36.8870   44.8500 H   0  0  0  0  0  0  0  0  0  0  0  0
   44.3990   36.1220   42.5370 H   0  0  0  0  0  0  0  0  0  0  0  0
   45.5800   33.4090   46.4680 H   0  0  0  0  0  0  0  0  0  0  0  0
   47.1450   33.9540   39.6850 O   0  0  0  0  0  0  0  0  0  0  0  0
   47.9190   32.8640   39.2240 C   0  0  0  0  0  0  0  0  0  0  0  0
   48.6270   33.2350   37.9230 C   0  0  0  0  0  0  0  0  0  0  0  0
   48.4690   34.3180   37.7510 H   0  0  0  0  0  0  0  0  0  0  0  0
   47.7840   35.4940   41.9130 O   0  0  0  0  0  0  0  0  0  0  0  0
   49.0280   35.7970   41.4050 C   0  0  0  0  0  0  0  0  0  0  0  0
   49.5010   37.0360   41.8340 F   0  0  0  0  0  0  0  0  0  0  0  0
   49.9090   34.7720   41.6800 F   0  0  0  0  0  0  0  0  0  0  0  0
   48.9010   35.8760   40.0280 F   0  0  0  0  0  0  0  0  0  0  0  0
  2 17  1  0  0  0  0
  2  1  2  1  0  0  0
  2  3  1  0  0  0  0
  3  6  1  0  0  0  0
  4 10  1  0  0  0  0
  4  9  1  0  0  0  0
  5  4  2  0  0  0  0
  6  5  1  0  0  0  0
  6  7  2  0  0  0  0
  7  8  1  0  0  0  0
  8  9  2  0  0  0  0
  8 12  1  0  0  0  0
 11  5  1  0  0  0  0
 13  2  1  0  0  0  0
 14 13  1  0  0  0  0
 15 14  1  0  0  0  0
 16 15  1  0  0  0  0
 18 20  1  0  0  0  0
 18 19  1  0  0  0  0
 18 17  1  0  0  0  0
 21 18  1  0  0  0  0
M  END
>  <minimizedAffinity>
-4.64682913

>  <minimizedRMSD>
0.416108638

$$$$
