
 OpenBabel03252508593D

 39 40  0  0  1  0  0  0  0  0999 V2000
   47.1800   34.1540   43.0770 N   0  0  0  0  0  0  0  0  0  0  0  0
   46.6680   35.3530   42.5200 C   0  0  0  0  0  0  0  0  0  0  0  0
   45.1890   35.5940   42.7320 C   0  0  0  0  0  0  0  0  0  0  0  0
   44.6610   35.0530   44.0290 C   0  0  0  0  0  0  0  0  0  0  0  0
   45.7540   34.4620   44.8860 C   0  0  0  0  0  0  0  0  0  0  0  0
   46.4140   33.3930   43.9430 C   0  0  2  0  0  0  0  0  0  0  0  0
   46.8800   35.5240   41.4620 H   0  0  0  0  0  0  0  0  0  0  0  0
   47.1890   36.2010   43.0550 H   0  0  0  0  0  0  0  0  0  0  0  0
   45.0210   36.6870   42.6520 H   0  0  0  0  0  0  0  0  0  0  0  0
   44.6670   35.1310   41.8770 H   0  0  0  0  0  0  0  0  0  0  0  0
   43.9080   34.2440   43.8070 H   0  0  0  0  0  0  0  0  0  0  0  0
   44.1300   35.8390   44.5700 H   0  0  0  0  0  0  0  0  0  0  0  0
   46.4810   35.2410   45.1140 H   0  0  0  0  0  0  0  0  0  0  0  0
   45.3140   33.9550   45.7480 H   0  0  0  0  0  0  0  0  0  0  0  0
   45.5520   32.8250   43.5380 H   0  0  0  0  0  0  0  0  0  0  0  0
   48.1560   33.4930   42.2570 C   0  0  0  0  0  0  0  0  0  0  0  0
   48.7830   34.2820   41.7810 H   0  0  0  0  0  0  0  0  0  0  0  0
   48.8400   32.9140   42.9280 H   0  0  0  0  0  0  0  0  0  0  0  0
   47.4650   32.6640   41.2410 C   0  0  0  0  0  0  0  0  0  0  0  0
   46.3770   32.9250   41.1900 H   0  0  0  0  0  0  0  0  0  0  0  0
   47.5390   31.5950   41.4570 H   0  0  0  0  0  0  0  0  0  0  0  0
   49.3310   32.2930   38.0070 C   0  0  0  0  0  0  0  0  0  0  0  0
   48.8120   32.0300   39.2890 C   0  0  0  0  0  0  0  0  0  0  0  0
   48.0020   32.9550   39.8930 C   0  0  0  0  0  0  0  0  0  0  0  0
   47.7400   34.0850   39.2210 N   0  0  0  0  0  0  0  0  0  0  0  0
   48.2420   34.3250   37.9960 C   0  0  0  0  0  0  0  0  0  0  0  0
   49.0360   33.4390   37.3820 N   0  0  0  0  0  0  0  0  0  0  0  0
   49.9770   31.5800   37.4990 H   0  0  0  0  0  0  0  0  0  0  0  0
   49.0950   31.0940   39.7200 H   0  0  0  0  0  0  0  0  0  0  0  0
   47.9460   35.2750   37.5770 H   0  0  0  0  0  0  0  0  0  0  0  0
   47.2000   32.6760   44.8350 O   0  0  0  0  0  0  0  0  0  0  0  0
   45.8970   30.5690   43.9050 O   0  0  0  0  0  0  0  0  0  0  0  0
   46.6210   31.1240   45.1210 P   0  0  2  0  0  0  0  0  0  0  0  0
   45.4310   31.2750   46.3390 O   0  0  0  0  0  0  0  0  0  0  0  0
   45.8300   31.5010   47.2160 H   0  0  0  0  0  0  0  0  0  0  0  0
   47.8180   30.1020   45.6850 O   0  0  0  0  0  0  0  0  0  0  0  0
   48.6900   29.6820   44.6900 C   0  0  0  0  0  2  0  0  0  0  0  0
   49.8880   29.0400   45.3590 C   0  0  0  0  0  2  0  0  0  0  0  0
   49.7920   29.0370   46.4820 H   0  0  0  0  0  0  0  0  0  0  0  0
  1  6  1  0  0  0  0
  2  3  1  0  0  0  0
  2  8  1  0  0  0  0
  2  1  1  0  0  0  0
  3  4  1  0  0  0  0
  4 12  1  0  0  0  0
  4  5  1  0  0  0  0
  5 13  1  0  0  0  0
  5 14  1  0  0  0  0
  6 15  1  6  0  0  0
  6 31  1  0  0  0  0
  6  5  1  0  0  0  0
  7  2  1  0  0  0  0
  9  3  1  0  0  0  0
 10  3  1  0  0  0  0
 11  4  1  0  0  0  0
 16 18  1  0  0  0  0
 16  1  1  0  0  0  0
 17 16  1  0  0  0  0
 19 21  1  0  0  0  0
 19 16  1  0  0  0  0
 20 19  1  0  0  0  0
 22 23  1  0  0  0  0
 23 29  1  0  0  0  0
 23 24  2  0  0  0  0
 24 19  1  0  0  0  0
 25 24  1  0  0  0  0
 26 25  2  0  0  0  0
 27 26  1  0  0  0  0
 27 22  2  0  0  0  0
 28 22  1  0  0  0  0
 30 26  1  0  0  0  0
 31 33  1  0  0  0  0
 33 32  2  6  0  0  0
 33 36  1  0  0  0  0
 33 34  1  0  0  0  0
 34 35  1  0  0  0  0
 37 38  1  0  0  0  0
 37 36  1  0  0  0  0
 38 39  1  0  0  0  0
M  END
>  <minimizedAffinity>
-3.66437602

>  <minimizedRMSD>
0.139155373

$$$$
