
 OpenBabel03252500493D

 23 24  0  0  0  0  0  0  0  0999 V2000
   44.9080   35.0230   44.5000 C   0  0  0  0  0  0  0  0  0  0  0  0
   44.9920   34.2970   43.3240 C   0  0  0  0  0  0  0  0  0  0  0  0
   45.4350   32.9620   43.3420 C   0  0  0  0  0  0  0  0  0  0  0  0
   45.7740   32.4290   44.5620 N   0  0  0  0  0  0  0  0  0  0  0  0
   45.6850   33.1490   45.6840 C   0  0  0  0  0  0  0  0  0  0  0  0
   45.2570   34.4320   45.6530 N   0  0  0  0  0  0  0  0  0  0  0  0
   44.5710   36.0490   44.5090 H   0  0  0  0  0  0  0  0  0  0  0  0
   45.5050   32.3850   42.4310 H   0  0  0  0  0  0  0  0  0  0  0  0
   46.0490   32.5620   46.9630 C   0  0  0  0  0  0  0  0  0  0  0  0
   47.3280   32.2450   47.2890 C   0  0  0  0  0  0  0  0  0  0  0  0
   47.6930   31.6910   48.4890 C   0  0  0  0  0  0  0  0  0  0  0  0
   46.6940   31.4580   49.3760 N   0  0  0  0  0  0  0  0  0  0  0  0
   45.4440   31.7670   49.0550 C   0  0  0  0  0  0  0  0  0  0  0  0
   45.0600   32.3120   47.8860 N   0  0  0  0  0  0  0  0  0  0  0  0
   48.1240   32.4360   46.5740 H   0  0  0  0  0  0  0  0  0  0  0  0
   48.7150   31.4420   48.7430 H   0  0  0  0  0  0  0  0  0  0  0  0
   44.6500   31.5770   49.7720 H   0  0  0  0  0  0  0  0  0  0  0  0
   44.6140   34.9400   42.0830 C   0  0  0  0  0  0  0  0  0  0  0  0
   45.3240   34.6960   41.0730 O   0  0  0  0  0  0  0  0  0  0  0  0
   43.6020   35.8070   41.7310 O   0  0  0  0  0  0  0  0  0  0  0  0
   42.5420   35.3600   40.9340 C   0  0  0  0  0  0  0  0  0  0  0  0
   41.2140   35.4080   41.6540 C   0  0  0  0  0  0  0  0  0  0  0  0
   40.7460   34.4030   41.6930 H   0  0  0  0  0  0  0  0  0  0  0  0
  1  7  1  0  0  0  0
  1  6  1  0  0  0  0
  2  3  1  0  0  0  0
  2  1  2  0  0  0  0
  3  4  2  0  0  0  0
  4  5  1  0  0  0  0
  5  9  1  0  0  0  0
  6  5  2  0  0  0  0
  8  3  1  0  0  0  0
  9 10  2  0  0  0  0
  9 14  1  0  0  0  0
 10 11  1  0  0  0  0
 11 16  1  0  0  0  0
 11 12  2  0  0  0  0
 13 12  1  0  0  0  0
 13 17  1  0  0  0  0
 14 13  2  0  0  0  0
 15 10  1  0  0  0  0
 18  2  1  0  0  0  0
 19 18  2  0  0  0  0
 20 18  1  0  0  0  0
 21 22  1  0  0  0  0
 21 20  1  0  0  0  0
 22 23  1  0  0  0  0
M  END
>  <minimizedAffinity>
-4.52249718

>  <minimizedRMSD>
1.62920535

$$$$
