
 OpenBabel03252508583D

 39 40  0  0  1  0  0  0  0  0999 V2000
   47.1870   34.1520   43.0780 N   0  0  0  0  0  0  0  0  0  0  0  0
   46.6700   35.3470   42.5160 C   0  0  0  0  0  0  0  0  0  0  0  0
   45.1900   35.5830   42.7260 C   0  0  0  0  0  0  0  0  0  0  0  0
   44.6630   35.0430   44.0230 C   0  0  0  0  0  0  0  0  0  0  0  0
   45.7570   34.4600   44.8840 C   0  0  0  0  0  0  0  0  0  0  0  0
   46.4230   33.3900   43.9450 C   0  0  2  0  0  0  0  0  0  0  0  0
   46.8830   35.5160   41.4580 H   0  0  0  0  0  0  0  0  0  0  0  0
   47.1870   36.1990   43.0500 H   0  0  0  0  0  0  0  0  0  0  0  0
   45.0180   36.6750   42.6420 H   0  0  0  0  0  0  0  0  0  0  0  0
   44.6710   35.1150   41.8710 H   0  0  0  0  0  0  0  0  0  0  0  0
   43.9140   34.2310   43.8030 H   0  0  0  0  0  0  0  0  0  0  0  0
   44.1270   35.8290   44.5620 H   0  0  0  0  0  0  0  0  0  0  0  0
   46.4800   35.2430   45.1110 H   0  0  0  0  0  0  0  0  0  0  0  0
   45.3180   33.9540   45.7460 H   0  0  0  0  0  0  0  0  0  0  0  0
   45.5640   32.8180   43.5410 H   0  0  0  0  0  0  0  0  0  0  0  0
   48.1660   33.4930   42.2610 C   0  0  0  0  0  0  0  0  0  0  0  0
   48.7900   34.2830   41.7820 H   0  0  0  0  0  0  0  0  0  0  0  0
   48.8530   32.9210   42.9350 H   0  0  0  0  0  0  0  0  0  0  0  0
   47.4810   32.6560   41.2490 C   0  0  0  0  0  0  0  0  0  0  0  0
   46.3900   32.9070   41.2010 H   0  0  0  0  0  0  0  0  0  0  0  0
   47.5660   31.5880   41.4650 H   0  0  0  0  0  0  0  0  0  0  0  0
   49.3300   32.2950   38.0040 C   0  0  0  0  0  0  0  0  0  0  0  0
   48.8180   32.0290   39.2880 C   0  0  0  0  0  0  0  0  0  0  0  0
   48.0110   32.9510   39.8980 C   0  0  0  0  0  0  0  0  0  0  0  0
   47.7430   34.0830   39.2310 N   0  0  0  0  0  0  0  0  0  0  0  0
   48.2390   34.3270   38.0040 C   0  0  0  0  0  0  0  0  0  0  0  0
   49.0300   33.4430   37.3830 N   0  0  0  0  0  0  0  0  0  0  0  0
   49.9740   31.5850   37.4900 H   0  0  0  0  0  0  0  0  0  0  0  0
   49.1040   31.0920   39.7140 H   0  0  0  0  0  0  0  0  0  0  0  0
   47.9390   35.2770   37.5880 H   0  0  0  0  0  0  0  0  0  0  0  0
   47.2110   32.6800   44.8400 O   0  0  0  0  0  0  0  0  0  0  0  0
   45.9510   30.5510   43.9000 O   0  0  0  0  0  0  0  0  0  0  0  0
   46.6400   31.1250   45.1270 P   0  0  2  0  0  0  0  0  0  0  0  0
   45.4170   31.2770   46.3140 O   0  0  0  0  0  0  0  0  0  0  0  0
   45.7930   31.5150   47.1980 H   0  0  0  0  0  0  0  0  0  0  0  0
   47.8310   30.1210   45.7320 O   0  0  0  0  0  0  0  0  0  0  0  0
   48.7250   29.6890   44.7610 C   0  0  0  0  0  2  0  0  0  0  0  0
   48.5880   28.1860   44.6350 C   0  0  0  0  0  2  0  0  0  0  0  0
   47.8020   27.7750   45.3320 H   0  0  0  0  0  0  0  0  0  0  0  0
  1  6  1  0  0  0  0
  2  3  1  0  0  0  0
  2  8  1  0  0  0  0
  2  1  1  0  0  0  0
  3  4  1  0  0  0  0
  4 12  1  0  0  0  0
  4  5  1  0  0  0  0
  5 13  1  0  0  0  0
  5 14  1  0  0  0  0
  6 15  1  6  0  0  0
  6 31  1  0  0  0  0
  6  5  1  0  0  0  0
  7  2  1  0  0  0  0
  9  3  1  0  0  0  0
 10  3  1  0  0  0  0
 11  4  1  0  0  0  0
 16 18  1  0  0  0  0
 16  1  1  0  0  0  0
 17 16  1  0  0  0  0
 19 21  1  0  0  0  0
 19 16  1  0  0  0  0
 20 19  1  0  0  0  0
 22 23  1  0  0  0  0
 23 29  1  0  0  0  0
 23 24  2  0  0  0  0
 24 19  1  0  0  0  0
 25 24  1  0  0  0  0
 26 25  2  0  0  0  0
 27 26  1  0  0  0  0
 27 22  2  0  0  0  0
 28 22  1  0  0  0  0
 30 26  1  0  0  0  0
 31 33  1  0  0  0  0
 33 32  2  6  0  0  0
 33 36  1  0  0  0  0
 33 34  1  0  0  0  0
 34 35  1  0  0  0  0
 37 36  1  0  0  0  0
 38 37  1  0  0  0  0
 38 39  1  0  0  0  0
M  END
>  <minimizedAffinity>
-3.59657311

>  <minimizedRMSD>
0.0448757336

$$$$
