
 OpenBabel03252508593D

 39 40  0  0  1  0  0  0  0  0999 V2000
   47.0580   34.1400   43.1150 N   0  0  0  0  0  0  0  0  0  0  0  0
   46.6780   35.4250   42.6520 C   0  0  0  0  0  0  0  0  0  0  0  0
   45.2250   35.7940   42.8590 C   0  0  0  0  0  0  0  0  0  0  0  0
   44.6140   35.2030   44.0960 C   0  0  0  0  0  0  0  0  0  0  0  0
   45.6230   34.4390   44.9200 C   0  0  0  0  0  0  0  0  0  0  0  0
   46.2000   33.3900   43.9010 C   0  0  2  0  0  0  0  0  0  0  0  0
   46.9320   35.6600   41.6160 H   0  0  0  0  0  0  0  0  0  0  0  0
   47.2650   36.1720   43.2650 H   0  0  0  0  0  0  0  0  0  0  0  0
   45.1660   36.9010   42.8670 H   0  0  0  0  0  0  0  0  0  0  0  0
   44.6820   35.4560   41.9590 H   0  0  0  0  0  0  0  0  0  0  0  0
   43.7930   34.4930   43.7950 H   0  0  0  0  0  0  0  0  0  0  0  0
   44.1480   35.9910   44.6930 H   0  0  0  0  0  0  0  0  0  0  0  0
   46.4160   35.1220   45.2250 H   0  0  0  0  0  0  0  0  0  0  0  0
   45.1140   33.9100   45.7280 H   0  0  0  0  0  0  0  0  0  0  0  0
   45.2970   32.9460   43.4360 H   0  0  0  0  0  0  0  0  0  0  0  0
   47.9840   33.4560   42.2600 C   0  0  0  0  0  0  0  0  0  0  0  0
   48.6720   34.2200   41.8310 H   0  0  0  0  0  0  0  0  0  0  0  0
   48.6180   32.7880   42.8970 H   0  0  0  0  0  0  0  0  0  0  0  0
   47.2390   32.7420   41.1970 C   0  0  0  0  0  0  0  0  0  0  0  0
   46.1940   33.1400   41.1100 H   0  0  0  0  0  0  0  0  0  0  0  0
   47.1690   31.6680   41.3870 H   0  0  0  0  0  0  0  0  0  0  0  0
   49.2660   32.2460   38.0790 C   0  0  0  0  0  0  0  0  0  0  0  0
   48.6640   32.0230   39.3310 C   0  0  0  0  0  0  0  0  0  0  0  0
   47.8640   32.9910   39.8780 C   0  0  0  0  0  0  0  0  0  0  0  0
   47.6910   34.1230   39.1810 N   0  0  0  0  0  0  0  0  0  0  0  0
   48.2720   34.3240   37.9840 C   0  0  0  0  0  0  0  0  0  0  0  0
   49.0580   33.3960   37.4250 N   0  0  0  0  0  0  0  0  0  0  0  0
   49.9070   31.4990   37.6150 H   0  0  0  0  0  0  0  0  0  0  0  0
   48.8790   31.0810   39.7870 H   0  0  0  0  0  0  0  0  0  0  0  0
   48.0440   35.2800   37.5380 H   0  0  0  0  0  0  0  0  0  0  0  0
   46.8900   32.5290   44.7430 O   0  0  0  0  0  0  0  0  0  0  0  0
   45.1370   30.8000   43.7760 O   0  0  0  0  0  0  0  0  0  0  0  0
   46.1690   31.0160   44.8700 P   0  0  2  0  0  0  0  0  0  0  0  0
   45.2910   31.0260   46.3380 O   0  0  0  0  0  0  0  0  0  0  0  0
   45.8920   31.0240   47.1240 H   0  0  0  0  0  0  0  0  0  0  0  0
   47.3000   29.7870   44.9470 O   0  0  0  0  0  0  0  0  0  0  0  0
   48.5150   30.1270   44.3680 C   0  0  0  0  0  2  0  0  0  0  0  0
   48.4740   29.7010   42.9150 C   0  0  0  0  0  2  0  0  0  0  0  0
   47.4870   29.2320   42.6410 H   0  0  0  0  0  0  0  0  0  0  0  0
  1  6  1  0  0  0  0
  2  3  1  0  0  0  0
  2  1  1  0  0  0  0
  2  8  1  0  0  0  0
  3  9  1  0  0  0  0
  3  4  1  0  0  0  0
  4 12  1  0  0  0  0
  4  5  1  0  0  0  0
  5 13  1  0  0  0  0
  5 14  1  0  0  0  0
  6 15  1  6  0  0  0
  6 31  1  0  0  0  0
  6  5  1  0  0  0  0
  7  2  1  0  0  0  0
 10  3  1  0  0  0  0
 11  4  1  0  0  0  0
 16 18  1  0  0  0  0
 16  1  1  0  0  0  0
 17 16  1  0  0  0  0
 19 21  1  0  0  0  0
 19 16  1  0  0  0  0
 20 19  1  0  0  0  0
 22 23  1  0  0  0  0
 23 29  1  0  0  0  0
 23 24  2  0  0  0  0
 24 19  1  0  0  0  0
 25 24  1  0  0  0  0
 26 25  2  0  0  0  0
 27 26  1  0  0  0  0
 27 22  2  0  0  0  0
 28 22  1  0  0  0  0
 30 26  1  0  0  0  0
 31 33  1  0  0  0  0
 33 32  2  6  0  0  0
 33 36  1  0  0  0  0
 33 34  1  0  0  0  0
 34 35  1  0  0  0  0
 37 36  1  0  0  0  0
 38 37  1  0  0  0  0
 39 38  1  0  0  0  0
M  END
>  <minimizedAffinity>
-3.57810569

>  <minimizedRMSD>
0.410206735

$$$$
