
 OpenBabel03252508593D

 39 40  0  0  1  0  0  0  0  0999 V2000
   47.1850   34.1520   43.0780 N   0  0  0  0  0  0  0  0  0  0  0  0
   46.6680   35.3470   42.5170 C   0  0  0  0  0  0  0  0  0  0  0  0
   45.1880   35.5840   42.7280 C   0  0  0  0  0  0  0  0  0  0  0  0
   44.6630   35.0460   44.0270 C   0  0  0  0  0  0  0  0  0  0  0  0
   45.7580   34.4620   44.8870 C   0  0  0  0  0  0  0  0  0  0  0  0
   46.4220   33.3920   43.9470 C   0  0  2  0  0  0  0  0  0  0  0  0
   46.8790   35.5140   41.4580 H   0  0  0  0  0  0  0  0  0  0  0  0
   47.1860   36.1990   43.0480 H   0  0  0  0  0  0  0  0  0  0  0  0
   45.0170   36.6760   42.6440 H   0  0  0  0  0  0  0  0  0  0  0  0
   44.6680   35.1160   41.8750 H   0  0  0  0  0  0  0  0  0  0  0  0
   43.9130   34.2340   43.8090 H   0  0  0  0  0  0  0  0  0  0  0  0
   44.1290   35.8320   44.5660 H   0  0  0  0  0  0  0  0  0  0  0  0
   46.4820   35.2450   45.1110 H   0  0  0  0  0  0  0  0  0  0  0  0
   45.3200   33.9570   45.7500 H   0  0  0  0  0  0  0  0  0  0  0  0
   45.5610   32.8190   43.5450 H   0  0  0  0  0  0  0  0  0  0  0  0
   48.1620   33.4920   42.2610 C   0  0  0  0  0  0  0  0  0  0  0  0
   48.7880   34.2800   41.7830 H   0  0  0  0  0  0  0  0  0  0  0  0
   48.8470   32.9150   42.9340 H   0  0  0  0  0  0  0  0  0  0  0  0
   47.4740   32.6580   41.2460 C   0  0  0  0  0  0  0  0  0  0  0  0
   46.3840   32.9140   41.1970 H   0  0  0  0  0  0  0  0  0  0  0  0
   47.5540   31.5900   41.4620 H   0  0  0  0  0  0  0  0  0  0  0  0
   49.3320   32.2940   38.0070 C   0  0  0  0  0  0  0  0  0  0  0  0
   48.8170   32.0290   39.2900 C   0  0  0  0  0  0  0  0  0  0  0  0
   48.0070   32.9510   39.8960 C   0  0  0  0  0  0  0  0  0  0  0  0
   47.7400   34.0820   39.2270 N   0  0  0  0  0  0  0  0  0  0  0  0
   48.2390   34.3240   38.0010 C   0  0  0  0  0  0  0  0  0  0  0  0
   49.0330   33.4400   37.3830 N   0  0  0  0  0  0  0  0  0  0  0  0
   49.9780   31.5830   37.4960 H   0  0  0  0  0  0  0  0  0  0  0  0
   49.1030   31.0930   39.7190 H   0  0  0  0  0  0  0  0  0  0  0  0
   47.9400   35.2740   37.5830 H   0  0  0  0  0  0  0  0  0  0  0  0
   47.2100   32.6810   44.8420 O   0  0  0  0  0  0  0  0  0  0  0  0
   45.9520   30.5510   43.9030 O   0  0  0  0  0  0  0  0  0  0  0  0
   46.6400   31.1270   45.1300 P   0  0  2  0  0  0  0  0  0  0  0  0
   45.4170   31.2790   46.3160 O   0  0  0  0  0  0  0  0  0  0  0  0
   45.7920   31.5180   47.2000 H   0  0  0  0  0  0  0  0  0  0  0  0
   47.8320   30.1230   45.7360 O   0  0  0  0  0  0  0  0  0  0  0  0
   48.7250   29.6890   44.7660 C   0  0  0  0  0  2  0  0  0  0  0  0
   48.5860   28.1860   44.6410 C   0  0  0  0  0  2  0  0  0  0  0  0
   47.8010   27.7770   45.3380 H   0  0  0  0  0  0  0  0  0  0  0  0
  1  6  1  0  0  0  0
  2  3  1  0  0  0  0
  2  8  1  0  0  0  0
  2  1  1  0  0  0  0
  3  4  1  0  0  0  0
  4 12  1  0  0  0  0
  4  5  1  0  0  0  0
  5 13  1  0  0  0  0
  5 14  1  0  0  0  0
  6 15  1  6  0  0  0
  6 31  1  0  0  0  0
  6  5  1  0  0  0  0
  7  2  1  0  0  0  0
  9  3  1  0  0  0  0
 10  3  1  0  0  0  0
 11  4  1  0  0  0  0
 16 18  1  0  0  0  0
 16  1  1  0  0  0  0
 17 16  1  0  0  0  0
 19 21  1  0  0  0  0
 19 16  1  0  0  0  0
 20 19  1  0  0  0  0
 22 23  1  0  0  0  0
 23 29  1  0  0  0  0
 23 24  2  0  0  0  0
 24 19  1  0  0  0  0
 25 24  1  0  0  0  0
 26 25  2  0  0  0  0
 27 26  1  0  0  0  0
 27 22  2  0  0  0  0
 28 22  1  0  0  0  0
 30 26  1  0  0  0  0
 31 33  1  0  0  0  0
 33 32  2  6  0  0  0
 33 36  1  0  0  0  0
 33 34  1  0  0  0  0
 34 35  1  0  0  0  0
 37 36  1  0  0  0  0
 38 37  1  0  0  0  0
 38 39  1  0  0  0  0
M  END
>  <minimizedAffinity>
-3.59640622

>  <minimizedRMSD>
0.0564900674

$$$$
