
 OpenBabel03252508583D

 39 40  0  0  1  0  0  0  0  0999 V2000
   46.9340   34.2480   43.2790 N   0  0  0  0  0  0  0  0  0  0  0  0
   46.5270   35.4910   42.7310 C   0  0  0  0  0  0  0  0  0  0  0  0
   45.0620   35.8310   42.8970 C   0  0  0  0  0  0  0  0  0  0  0  0
   44.4500   35.3020   44.1610 C   0  0  0  0  0  0  0  0  0  0  0  0
   45.4680   34.6190   45.0430 C   0  0  0  0  0  0  0  0  0  0  0  0
   46.0860   33.5250   44.1000 C   0  0  2  0  0  0  0  0  0  0  0  0
   46.7890   35.6680   41.6850 H   0  0  0  0  0  0  0  0  0  0  0  0
   47.0850   36.2900   43.3030 H   0  0  0  0  0  0  0  0  0  0  0  0
   44.9730   36.9340   42.8350 H   0  0  0  0  0  0  0  0  0  0  0  0
   44.5400   35.4230   42.0130 H   0  0  0  0  0  0  0  0  0  0  0  0
   43.6520   34.5530   43.8960 H   0  0  0  0  0  0  0  0  0  0  0  0
   43.9550   36.1120   44.7010 H   0  0  0  0  0  0  0  0  0  0  0  0
   46.2370   35.3410   45.3140 H   0  0  0  0  0  0  0  0  0  0  0  0
   44.9620   34.1280   45.8770 H   0  0  0  0  0  0  0  0  0  0  0  0
   45.2020   33.0280   43.6530 H   0  0  0  0  0  0  0  0  0  0  0  0
   47.8910   33.5370   42.4790 C   0  0  0  0  0  0  0  0  0  0  0  0
   48.5670   34.2920   42.0150 H   0  0  0  0  0  0  0  0  0  0  0  0
   48.5300   32.9250   43.1640 H   0  0  0  0  0  0  0  0  0  0  0  0
   47.1800   32.7430   41.4500 C   0  0  0  0  0  0  0  0  0  0  0  0
   46.1220   33.0960   41.3380 H   0  0  0  0  0  0  0  0  0  0  0  0
   47.1490   31.6780   41.6940 H   0  0  0  0  0  0  0  0  0  0  0  0
   49.2410   32.1660   38.3680 C   0  0  0  0  0  0  0  0  0  0  0  0
   48.6390   31.9850   39.6280 C   0  0  0  0  0  0  0  0  0  0  0  0
   47.8040   32.9490   40.1230 C   0  0  0  0  0  0  0  0  0  0  0  0
   47.5960   34.0390   39.3710 N   0  0  0  0  0  0  0  0  0  0  0  0
   48.1770   34.2030   38.1680 C   0  0  0  0  0  0  0  0  0  0  0  0
   48.9980   33.2760   37.6590 N   0  0  0  0  0  0  0  0  0  0  0  0
   49.9090   31.4200   37.9440 H   0  0  0  0  0  0  0  0  0  0  0  0
   48.8840   31.0730   40.1300 H   0  0  0  0  0  0  0  0  0  0  0  0
   47.9190   35.1280   37.6760 H   0  0  0  0  0  0  0  0  0  0  0  0
   46.7870   32.7380   45.0030 O   0  0  0  0  0  0  0  0  0  0  0  0
   45.1650   30.8900   44.0250 O   0  0  0  0  0  0  0  0  0  0  0  0
   46.1840   31.1730   45.1170 P   0  0  2  0  0  0  0  0  0  0  0  0
   45.3140   31.1040   46.5890 O   0  0  0  0  0  0  0  0  0  0  0  0
   45.9180   31.1390   47.3720 H   0  0  0  0  0  0  0  0  0  0  0  0
   47.4040   30.0320   45.1780 O   0  0  0  0  0  0  0  0  0  0  0  0
   48.4610   30.3190   44.3240 C   0  0  0  0  0  2  0  0  0  0  0  0
   48.2590   29.5250   43.0500 C   0  0  0  0  0  2  0  0  0  0  0  0
   47.3160   28.9100   43.0820 H   0  0  0  0  0  0  0  0  0  0  0  0
  1  6  1  0  0  0  0
  2  3  1  0  0  0  0
  2  1  1  0  0  0  0
  2  8  1  0  0  0  0
  3  4  1  0  0  0  0
  4 12  1  0  0  0  0
  4  5  1  0  0  0  0
  5 13  1  0  0  0  0
  5 14  1  0  0  0  0
  6 15  1  6  0  0  0
  6 31  1  0  0  0  0
  6  5  1  0  0  0  0
  7  2  1  0  0  0  0
  9  3  1  0  0  0  0
 10  3  1  0  0  0  0
 11  4  1  0  0  0  0
 16 18  1  0  0  0  0
 16  1  1  0  0  0  0
 17 16  1  0  0  0  0
 19 21  1  0  0  0  0
 19 16  1  0  0  0  0
 20 19  1  0  0  0  0
 22 23  1  0  0  0  0
 23 24  2  0  0  0  0
 23 29  1  0  0  0  0
 24 19  1  0  0  0  0
 25 24  1  0  0  0  0
 26 25  2  0  0  0  0
 27 26  1  0  0  0  0
 27 22  2  0  0  0  0
 28 22  1  0  0  0  0
 30 26  1  0  0  0  0
 31 33  1  0  0  0  0
 33 32  2  6  0  0  0
 33 36  1  0  0  0  0
 33 34  1  0  0  0  0
 34 35  1  0  0  0  0
 37 36  1  0  0  0  0
 38 39  1  0  0  0  0
 38 37  1  0  0  0  0
M  END
>  <minimizedAffinity>
-3.57712102

>  <minimizedRMSD>
0.482901633

$$$$
