
 OpenBabel03252508593D

 39 40  0  0  1  0  0  0  0  0999 V2000
   47.1100   34.0930   43.1220 N   0  0  0  0  0  0  0  0  0  0  0  0
   46.7330   35.3790   42.6590 C   0  0  0  0  0  0  0  0  0  0  0  0
   45.2800   35.7500   42.8610 C   0  0  0  0  0  0  0  0  0  0  0  0
   44.6650   35.1590   44.0960 C   0  0  0  0  0  0  0  0  0  0  0  0
   45.6710   34.3920   44.9220 C   0  0  0  0  0  0  0  0  0  0  0  0
   46.2490   33.3440   43.9050 C   0  0  2  0  0  0  0  0  0  0  0  0
   46.9910   35.6150   41.6240 H   0  0  0  0  0  0  0  0  0  0  0  0
   47.3200   36.1240   43.2740 H   0  0  0  0  0  0  0  0  0  0  0  0
   45.2230   36.8570   42.8710 H   0  0  0  0  0  0  0  0  0  0  0  0
   44.7400   35.4130   41.9590 H   0  0  0  0  0  0  0  0  0  0  0  0
   43.8430   34.4510   43.7920 H   0  0  0  0  0  0  0  0  0  0  0  0
   44.1990   35.9460   44.6920 H   0  0  0  0  0  0  0  0  0  0  0  0
   46.4630   35.0740   45.2300 H   0  0  0  0  0  0  0  0  0  0  0  0
   45.1590   33.8630   45.7290 H   0  0  0  0  0  0  0  0  0  0  0  0
   45.3460   32.9010   43.4360 H   0  0  0  0  0  0  0  0  0  0  0  0
   48.0380   33.4080   42.2690 C   0  0  0  0  0  0  0  0  0  0  0  0
   48.7220   34.1730   41.8340 H   0  0  0  0  0  0  0  0  0  0  0  0
   48.6770   32.7470   42.9090 H   0  0  0  0  0  0  0  0  0  0  0  0
   47.2940   32.6850   41.2110 C   0  0  0  0  0  0  0  0  0  0  0  0
   46.2410   33.0610   41.1400 H   0  0  0  0  0  0  0  0  0  0  0  0
   47.2500   31.6080   41.3960 H   0  0  0  0  0  0  0  0  0  0  0  0
   49.2930   32.2520   38.0650 C   0  0  0  0  0  0  0  0  0  0  0  0
   48.7120   32.0090   39.3240 C   0  0  0  0  0  0  0  0  0  0  0  0
   47.8960   32.9550   39.8860 C   0  0  0  0  0  0  0  0  0  0  0  0
   47.6880   34.0860   39.1960 N   0  0  0  0  0  0  0  0  0  0  0  0
   48.2490   34.3070   37.9940 C   0  0  0  0  0  0  0  0  0  0  0  0
   49.0500   33.4000   37.4200 N   0  0  0  0  0  0  0  0  0  0  0  0
   49.9450   31.5220   37.5900 H   0  0  0  0  0  0  0  0  0  0  0  0
   48.9550   31.0700   39.7720 H   0  0  0  0  0  0  0  0  0  0  0  0
   47.9930   35.2600   37.5560 H   0  0  0  0  0  0  0  0  0  0  0  0
   46.9350   32.4810   44.7480 O   0  0  0  0  0  0  0  0  0  0  0  0
   45.1610   30.7550   43.8120 O   0  0  0  0  0  0  0  0  0  0  0  0
   46.1820   30.9870   44.9140 P   0  0  2  0  0  0  0  0  0  0  0  0
   45.2840   31.0640   46.3670 O   0  0  0  0  0  0  0  0  0  0  0  0
   45.8740   31.0760   47.1620 H   0  0  0  0  0  0  0  0  0  0  0  0
   47.2870   29.7390   45.0490 O   0  0  0  0  0  0  0  0  0  0  0  0
   48.5380   30.0620   44.5410 C   0  0  0  0  0  2  0  0  0  0  0  0
   48.5470   29.7150   43.0670 C   0  0  0  0  0  2  0  0  0  0  0  0
   47.5580   29.2970   42.7260 H   0  0  0  0  0  0  0  0  0  0  0  0
  1  6  1  0  0  0  0
  2  3  1  0  0  0  0
  2  1  1  0  0  0  0
  2  8  1  0  0  0  0
  3  9  1  0  0  0  0
  3  4  1  0  0  0  0
  4 12  1  0  0  0  0
  4  5  1  0  0  0  0
  5 13  1  0  0  0  0
  5 14  1  0  0  0  0
  6 15  1  6  0  0  0
  6 31  1  0  0  0  0
  6  5  1  0  0  0  0
  7  2  1  0  0  0  0
 10  3  1  0  0  0  0
 11  4  1  0  0  0  0
 16 18  1  0  0  0  0
 16  1  1  0  0  0  0
 17 16  1  0  0  0  0
 19 21  1  0  0  0  0
 19 16  1  0  0  0  0
 20 19  1  0  0  0  0
 22 23  1  0  0  0  0
 23 29  1  0  0  0  0
 23 24  2  0  0  0  0
 24 19  1  0  0  0  0
 25 24  1  0  0  0  0
 26 25  2  0  0  0  0
 27 26  1  0  0  0  0
 27 22  2  0  0  0  0
 28 22  1  0  0  0  0
 30 26  1  0  0  0  0
 31 33  1  0  0  0  0
 33 32  2  6  0  0  0
 33 36  1  0  0  0  0
 33 34  1  0  0  0  0
 34 35  1  0  0  0  0
 37 36  1  0  0  0  0
 38 37  1  0  0  0  0
 39 38  1  0  0  0  0
M  END
>  <minimizedAffinity>
-3.59802914

>  <minimizedRMSD>
0.402153015

$$$$
