
 OpenBabel03242514183D

 43 44  0  0  0  0  0  0  0  0999 V2000
   46.1790   34.5810   43.5440 C   0  0  0  0  0  0  0  0  0  0  0  0
   46.1710   33.8080   44.6820 C   0  0  0  0  0  0  0  0  0  0  0  0
   45.3380   34.2070   45.6930 C   0  0  0  0  0  0  0  0  0  0  0  0
   44.5770   35.3090   45.5440 N   0  0  0  0  0  0  0  0  0  0  0  0
   44.5840   36.0540   44.4470 C   0  0  0  0  0  0  0  0  0  0  0  0
   45.3880   35.6740   43.4660 N   0  0  0  0  0  0  0  0  0  0  0  0
   45.1890   33.7430   46.6570 H   0  0  0  0  0  0  0  0  0  0  0  0
   43.9830   36.9400   44.3030 H   0  0  0  0  0  0  0  0  0  0  0  0
   47.0170   34.1140   42.4310 C   0  0  0  0  0  0  0  0  0  0  0  0
   48.4030   34.6840   42.5100 C   0  0  0  0  0  0  0  0  0  0  0  0
   48.7140   35.5710   41.3880 C   0  0  0  0  0  0  0  0  0  0  0  0
   48.5070   34.8860   40.0540 C   0  0  0  0  0  0  0  0  0  0  0  0
   47.2640   34.0870   39.9790 C   0  0  0  0  0  0  0  0  0  0  0  0
   46.3400   34.3940   41.1370 C   0  0  0  0  0  0  0  0  0  0  0  0
   47.1920   33.0290   42.5610 H   0  0  0  0  0  0  0  0  0  0  0  0
   49.1830   33.9050   42.5750 H   0  0  0  0  0  0  0  0  0  0  0  0
   48.4800   35.2490   43.4610 H   0  0  0  0  0  0  0  0  0  0  0  0
   48.0260   36.4430   41.3940 H   0  0  0  0  0  0  0  0  0  0  0  0
   49.7490   35.9340   41.3860 H   0  0  0  0  0  0  0  0  0  0  0  0
   48.4570   35.7190   39.2990 H   0  0  0  0  0  0  0  0  0  0  0  0
   49.3950   34.2890   39.7510 H   0  0  0  0  0  0  0  0  0  0  0  0
   46.6840   34.2120   39.0360 H   0  0  0  0  0  0  0  0  0  0  0  0
   47.5490   33.0120   40.1080 H   0  0  0  0  0  0  0  0  0  0  0  0
   46.1580   35.5050   41.0860 H   0  0  0  0  0  0  0  0  0  0  0  0
   45.3860   33.8510   41.0150 H   0  0  0  0  0  0  0  0  0  0  0  0
   46.8400   32.7020   45.0130 O   0  0  0  0  0  0  0  0  0  0  0  0
   47.1370   32.0930   46.1990 C   0  0  0  0  0  0  0  0  0  0  0  0
   46.4180   32.1350   47.0160 H   0  0  0  0  0  0  0  0  0  0  0  0
   48.0680   32.5780   46.6040 H   0  0  0  0  0  0  0  0  0  0  0  0
   47.5100   30.6280   46.0430 C   0  0  0  0  0  0  0  0  0  0  0  0
   48.4120   30.6240   45.3870 H   0  0  0  0  0  0  0  0  0  0  0  0
   47.8410   30.2320   47.0110 H   0  0  0  0  0  0  0  0  0  0  0  0
   46.4690   29.8570   45.4040 N   0  0  0  0  0  0  0  0  0  0  0  0
   45.8220   30.5110   44.9500 H   0  0  0  0  0  0  0  0  0  0  0  0
   45.4810   29.1710   46.6680 S   0  0  0  0  0  0  0  0  0  0  0  0
   45.4120   27.6790   46.5430 O   0  0  0  0  0  0  0  0  0  0  0  0
   46.2080   27.1430   46.2860 H   0  0  0  0  0  0  0  0  0  0  0  0
   44.1180   29.7710   46.5310 O   0  0  0  0  0  0  0  0  0  0  0  0
   43.4050   29.3090   46.0300 H   0  0  0  0  0  0  0  0  0  0  0  0
   46.0640   29.5930   48.1740 O   0  0  0  0  0  0  0  0  0  0  0  0
   45.0140   30.1890   48.8630 C   0  0  0  0  0  0  0  0  0  0  0  0
   45.4750   31.5030   49.4550 C   0  0  0  0  0  0  0  0  0  0  0  0
   44.9480   31.7100   50.4040 H   0  0  0  0  0  0  0  0  0  0  0  0
  1  2  1  0  0  0  0
  2 26  1  0  0  0  0
  2  3  2  0  0  0  0
  3  7  1  0  0  0  0
  4  3  1  0  0  0  0
  5  4  2  0  0  0  0
  6  1  2  0  0  0  0
  6  5  1  0  0  0  0
  8  5  1  0  0  0  0
  9 10  1  0  0  0  0
  9 15  1  0  0  0  0
  9  1  1  0  0  0  0
 10 16  1  0  0  0  0
 10 17  1  0  0  0  0
 11 18  1  0  0  0  0
 11 10  1  0  0  0  0
 12 11  1  0  0  0  0
 13 12  1  0  0  0  0
 13 23  1  0  0  0  0
 13 14  1  0  0  0  0
 14  9  1  0  0  0  0
 19 11  1  0  0  0  0
 20 12  1  0  0  0  0
 21 12  1  0  0  0  0
 22 13  1  0  0  0  0
 24 14  1  0  0  0  0
 25 14  1  0  0  0  0
 26 27  1  0  0  0  0
 27 29  1  0  0  0  0
 27 28  1  0  0  0  0
 30 27  1  0  0  0  0
 30 32  1  0  0  0  0
 31 30  1  0  0  0  0
 33 30  1  0  0  0  0
 33 35  1  0  0  0  0
 34 33  1  0  0  0  0
 35 40  1  0  0  0  0
 36 35  1  0  0  0  0
 37 36  1  0  0  0  0
 38 35  1  0  0  0  0
 39 38  1  0  0  0  0
 40 41  1  0  0  0  0
 41 42  1  0  0  0  0
 42 43  1  0  0  0  0
M  END
>  <minimizedAffinity>
-5.41845942

>  <minimizedRMSD>
0.870081544

$$$$
