
 OpenBabel03252509023D

 39 40  0  0  1  0  0  0  0  0999 V2000
   37.1830   29.0910   41.4700 N   0  0  0  0  0  0  0  0  0  0  0  0
   35.9680   28.5920   40.9360 C   0  0  0  0  0  0  0  0  0  0  0  0
   35.2750   29.4890   39.9340 C   0  0  0  0  0  0  0  0  0  0  0  0
   36.2110   30.3090   39.0960 C   0  0  0  0  0  0  0  0  0  0  0  0
   37.6590   29.9850   39.3770 C   0  0  0  0  0  0  0  0  0  0  0  0
   37.7850   30.2130   40.9270 C   0  0  2  0  0  0  0  0  0  0  0  0
   35.2190   28.2670   41.6610 H   0  0  0  0  0  0  0  0  0  0  0  0
   36.2340   27.6540   40.3630 H   0  0  0  0  0  0  0  0  0  0  0  0
   34.6310   28.8410   39.3050 H   0  0  0  0  0  0  0  0  0  0  0  0
   34.5970   30.1420   40.5110 H   0  0  0  0  0  0  0  0  0  0  0  0
   36.0430   31.4000   39.3210 H   0  0  0  0  0  0  0  0  0  0  0  0
   35.9840   30.1660   38.0370 H   0  0  0  0  0  0  0  0  0  0  0  0
   37.8330   28.9330   39.1510 H   0  0  0  0  0  0  0  0  0  0  0  0
   38.3040   30.6960   38.8570 H   0  0  0  0  0  0  0  0  0  0  0  0
   37.3160   31.2050   41.0890 H   0  0  0  0  0  0  0  0  0  0  0  0
   37.3700   28.8160   42.8650 C   0  0  0  0  0  0  0  0  0  0  0  0
   38.4420   29.0080   43.1040 H   0  0  0  0  0  0  0  0  0  0  0  0
   36.7810   29.5670   43.4510 H   0  0  0  0  0  0  0  0  0  0  0  0
   36.9980   27.4090   43.1450 C   0  0  0  0  0  0  0  0  0  0  0  0
   36.3140   27.0150   42.3490 H   0  0  0  0  0  0  0  0  0  0  0  0
   36.4880   27.2970   44.1050 H   0  0  0  0  0  0  0  0  0  0  0  0
   40.5040   26.1680   43.6390 C   0  0  0  0  0  0  0  0  0  0  0  0
   39.3550   26.9800   43.6790 C   0  0  0  0  0  0  0  0  0  0  0  0
   38.1970   26.5420   43.0950 C   0  0  0  0  0  0  0  0  0  0  0  0
   38.2150   25.3400   42.5010 N   0  0  0  0  0  0  0  0  0  0  0  0
   39.3200   24.5720   42.4680 C   0  0  0  0  0  0  0  0  0  0  0  0
   40.4650   24.9740   43.0330 N   0  0  0  0  0  0  0  0  0  0  0  0
   41.4400   26.4840   44.0940 H   0  0  0  0  0  0  0  0  0  0  0  0
   39.4680   27.9160   44.1820 H   0  0  0  0  0  0  0  0  0  0  0  0
   39.1870   23.6310   41.9580 H   0  0  0  0  0  0  0  0  0  0  0  0
   39.1620   30.1980   41.1030 O   0  0  0  0  0  0  0  0  0  0  0  0
   40.7020   31.9400   39.8400 O   0  0  0  0  0  0  0  0  0  0  0  0
   39.8450   31.7340   41.0790 P   0  0  2  0  0  0  0  0  0  0  0  0
   40.9240   31.7980   42.4040 O   0  0  0  0  0  0  0  0  0  0  0  0
   40.4430   31.8110   43.2680 H   0  0  0  0  0  0  0  0  0  0  0  0
   38.6980   32.9340   41.2820 O   0  0  0  0  0  0  0  0  0  0  0  0
   38.6910   33.8610   40.2480 C   0  0  0  0  0  2  0  0  0  0  0  0
   37.3540   33.7620   39.5420 C   0  0  0  0  0  2  0  0  0  0  0  0
   36.6850   32.9880   40.0140 H   0  0  0  0  0  0  0  0  0  0  0  0
  1 16  1  0  0  0  0
  2  1  1  0  0  0  0
  2  7  1  0  0  0  0
  3 10  1  0  0  0  0
  3  2  1  0  0  0  0
  4 11  1  0  0  0  0
  4  5  1  0  0  0  0
  4  3  1  0  0  0  0
  5  6  1  0  0  0  0
  6 15  1  1  0  0  0
  6 31  1  0  0  0  0
  6  1  1  0  0  0  0
  8  2  1  0  0  0  0
  9  3  1  0  0  0  0
 12  4  1  0  0  0  0
 13  5  1  0  0  0  0
 14  5  1  0  0  0  0
 16 17  1  0  0  0  0
 16 19  1  0  0  0  0
 16 18  1  0  0  0  0
 19 21  1  0  0  0  0
 20 19  1  0  0  0  0
 22 23  1  0  0  0  0
 22 28  1  0  0  0  0
 23 29  1  0  0  0  0
 24 19  1  0  0  0  0
 24 23  2  0  0  0  0
 25 24  1  0  0  0  0
 26 25  2  0  0  0  0
 26 27  1  0  0  0  0
 27 22  2  0  0  0  0
 30 26  1  0  0  0  0
 33 32  2  6  0  0  0
 33 31  1  0  0  0  0
 33 36  1  0  0  0  0
 33 34  1  0  0  0  0
 34 35  1  0  0  0  0
 37 36  1  0  0  0  0
 38 39  1  0  0  0  0
 38 37  1  0  0  0  0
M  END
>  <minimizedAffinity>
-4.851089

$$$$

 OpenBabel03252509023D

 39 40  0  0  1  0  0  0  0  0999 V2000
   38.9230   28.5870   41.7450 N   0  0  0  0  0  0  0  0  0  0  0  0
   39.1600   27.7060   42.8310 C   0  0  0  0  0  0  0  0  0  0  0  0
   37.9520   27.3730   43.6790 C   0  0  0  0  0  0  0  0  0  0  0  0
   36.6600   27.3340   42.9170 C   0  0  0  0  0  0  0  0  0  0  0  0
   36.8670   27.5470   41.4360 C   0  0  0  0  0  0  0  0  0  0  0  0
   37.6310   28.9180   41.3730 C   0  0  2  0  0  0  0  0  0  0  0  0
   39.9720   27.9820   43.5080 H   0  0  0  0  0  0  0  0  0  0  0  0
   39.4880   26.7240   42.3790 H   0  0  0  0  0  0  0  0  0  0  0  0
   38.1590   26.4030   44.1750 H   0  0  0  0  0  0  0  0  0  0  0  0
   37.9080   28.1330   44.4790 H   0  0  0  0  0  0  0  0  0  0  0  0
   35.9840   28.1490   43.3010 H   0  0  0  0  0  0  0  0  0  0  0  0
   36.1490   26.3870   43.1010 H   0  0  0  0  0  0  0  0  0  0  0  0
   37.5110   26.7550   41.0540 H   0  0  0  0  0  0  0  0  0  0  0  0
   35.9000   27.6540   40.9400 H   0  0  0  0  0  0  0  0  0  0  0  0
   37.0380   29.5850   42.0310 H   0  0  0  0  0  0  0  0  0  0  0  0
   39.9710   29.5400   41.5190 C   0  0  0  0  0  0  0  0  0  0  0  0
   40.9300   29.0650   41.8320 H   0  0  0  0  0  0  0  0  0  0  0  0
   40.0540   29.7120   40.4160 H   0  0  0  0  0  0  0  0  0  0  0  0
   39.6970   30.7690   42.3010 C   0  0  0  0  0  0  0  0  0  0  0  0
   40.5010   30.9420   43.0610 H   0  0  0  0  0  0  0  0  0  0  0  0
   38.7430   30.7190   42.8330 H   0  0  0  0  0  0  0  0  0  0  0  0
   40.9800   33.4850   40.0520 C   0  0  0  0  0  0  0  0  0  0  0  0
   40.9310   32.3580   40.8940 C   0  0  0  0  0  0  0  0  0  0  0  0
   39.7310   31.9560   41.4160 C   0  0  0  0  0  0  0  0  0  0  0  0
   38.6420   32.6690   41.0950 N   0  0  0  0  0  0  0  0  0  0  0  0
   38.7010   33.7450   40.2900 C   0  0  0  0  0  0  0  0  0  0  0  0
   39.8600   34.1610   39.7640 N   0  0  0  0  0  0  0  0  0  0  0  0
   41.9160   33.8310   39.6190 H   0  0  0  0  0  0  0  0  0  0  0  0
   41.8670   31.8740   41.0740 H   0  0  0  0  0  0  0  0  0  0  0  0
   37.7470   34.2210   40.1190 H   0  0  0  0  0  0  0  0  0  0  0  0
   37.5450   29.2270   40.0220 O   0  0  0  0  0  0  0  0  0  0  0  0
   36.6290   31.2580   38.5950 O   0  0  0  0  0  0  0  0  0  0  0  0
   36.2540   30.2400   39.6600 P   0  0  2  0  0  0  0  0  0  0  0  0
   35.9460   31.1470   41.0780 O   0  0  0  0  0  0  0  0  0  0  0  0
   35.5600   30.5840   41.7950 H   0  0  0  0  0  0  0  0  0  0  0  0
   34.8710   29.3820   39.2790 O   0  0  0  0  0  0  0  0  0  0  0  0
   34.8510   28.9350   37.9640 C   0  0  0  0  0  2  0  0  0  0  0  0
   35.2280   27.4680   37.9640 C   0  0  0  0  0  2  0  0  0  0  0  0
   35.4200   27.0820   39.0050 H   0  0  0  0  0  0  0  0  0  0  0  0
  1  2  1  0  0  0  0
  2  7  1  0  0  0  0
  2  3  1  0  0  0  0
  3  9  1  0  0  0  0
  3 10  1  0  0  0  0
  4 12  1  0  0  0  0
  4 11  1  0  0  0  0
  4  3  1  0  0  0  0
  5  4  1  0  0  0  0
  6  5  1  0  0  0  0
  6  1  1  0  0  0  0
  6 15  1  1  0  0  0
  8  2  1  0  0  0  0
 13  5  1  0  0  0  0
 14  5  1  0  0  0  0
 16  1  1  0  0  0  0
 16 17  1  0  0  0  0
 16 19  1  0  0  0  0
 18 16  1  0  0  0  0
 19 21  1  0  0  0  0
 19 20  1  0  0  0  0
 22 23  1  0  0  0  0
 23 29  1  0  0  0  0
 23 24  2  0  0  0  0
 24 19  1  0  0  0  0
 25 24  1  0  0  0  0
 26 25  2  0  0  0  0
 27 22  2  0  0  0  0
 27 26  1  0  0  0  0
 28 22  1  0  0  0  0
 30 26  1  0  0  0  0
 31  6  1  0  0  0  0
 33 32  2  6  0  0  0
 33 31  1  0  0  0  0
 33 34  1  0  0  0  0
 34 35  1  0  0  0  0
 36 33  1  0  0  0  0
 37 36  1  0  0  0  0
 38 37  1  0  0  0  0
 38 39  1  0  0  0  0
M  END
>  <minimizedAffinity>
-4.71260929

$$$$

 OpenBabel03252509023D

 39 40  0  0  1  0  0  0  0  0999 V2000
   36.8000   29.0370   40.3410 N   0  0  0  0  0  0  0  0  0  0  0  0
   35.8050   28.1710   39.8240 C   0  0  0  0  0  0  0  0  0  0  0  0
   35.0150   28.7060   38.6490 C   0  0  0  0  0  0  0  0  0  0  0  0
   35.8010   29.6120   37.7470 C   0  0  0  0  0  0  0  0  0  0  0  0
   37.2490   29.7150   38.1630 C   0  0  0  0  0  0  0  0  0  0  0  0
   37.1600   30.1870   39.6600 C   0  0  2  0  0  0  0  0  0  0  0  0
   35.0890   27.7710   40.5460 H   0  0  0  0  0  0  0  0  0  0  0  0
   36.3470   27.2610   39.4290 H   0  0  0  0  0  0  0  0  0  0  0  0
   34.6160   27.8320   38.0970 H   0  0  0  0  0  0  0  0  0  0  0  0
   34.1440   29.2390   39.0700 H   0  0  0  0  0  0  0  0  0  0  0  0
   35.3490   30.6430   37.7800 H   0  0  0  0  0  0  0  0  0  0  0  0
   35.7220   29.2660   36.7140 H   0  0  0  0  0  0  0  0  0  0  0  0
   37.6970   28.7230   38.1230 H   0  0  0  0  0  0  0  0  0  0  0  0
   37.7480   30.4870   37.5740 H   0  0  0  0  0  0  0  0  0  0  0  0
   36.4490   31.0370   39.6300 H   0  0  0  0  0  0  0  0  0  0  0  0
   36.9100   29.0210   41.7720 C   0  0  0  0  0  0  0  0  0  0  0  0
   37.9650   29.2700   42.0300 H   0  0  0  0  0  0  0  0  0  0  0  0
   36.2840   29.8560   42.1780 H   0  0  0  0  0  0  0  0  0  0  0  0
   36.5300   27.6820   42.2810 C   0  0  0  0  0  0  0  0  0  0  0  0
   36.0320   27.0800   41.4770 H   0  0  0  0  0  0  0  0  0  0  0  0
   35.8400   27.7390   43.1270 H   0  0  0  0  0  0  0  0  0  0  0  0
   38.9770   24.8580   42.6220 C   0  0  0  0  0  0  0  0  0  0  0  0
   37.8330   25.6020   42.2740 C   0  0  0  0  0  0  0  0  0  0  0  0
   37.7390   26.9140   42.6530 C   0  0  0  0  0  0  0  0  0  0  0  0
   38.7590   27.4350   43.3510 N   0  0  0  0  0  0  0  0  0  0  0  0
   39.8470   26.7140   43.6780 C   0  0  0  0  0  0  0  0  0  0  0  0
   39.9660   25.4300   43.3200 N   0  0  0  0  0  0  0  0  0  0  0  0
   39.0840   23.8140   42.3360 H   0  0  0  0  0  0  0  0  0  0  0  0
   37.0900   25.0730   41.7170 H   0  0  0  0  0  0  0  0  0  0  0  0
   40.5870   27.2630   44.2400 H   0  0  0  0  0  0  0  0  0  0  0  0
   38.4740   30.5520   39.9190 O   0  0  0  0  0  0  0  0  0  0  0  0
   39.3620   32.3750   41.6180 O   0  0  0  0  0  0  0  0  0  0  0  0
   38.6420   32.1820   40.2940 P   0  0  2  0  0  0  0  0  0  0  0  0
   37.0580   32.7810   40.5380 O   0  0  0  0  0  0  0  0  0  0  0  0
   36.5490   32.8260   39.6910 H   0  0  0  0  0  0  0  0  0  0  0  0
   39.3390   33.0460   39.0440 O   0  0  0  0  0  0  0  0  0  0  0  0
   40.6790   32.7360   38.8490 C   0  0  0  0  0  2  0  0  0  0  0  0
   40.8670   32.3780   37.3890 C   0  0  0  0  0  2  0  0  0  0  0  0
   39.9040   32.4560   36.8080 H   0  0  0  0  0  0  0  0  0  0  0  0
  1 16  1  0  0  0  0
  2  1  1  0  0  0  0
  2  7  1  0  0  0  0
  3 10  1  0  0  0  0
  3  2  1  0  0  0  0
  4 11  1  0  0  0  0
  4  5  1  0  0  0  0
  4  3  1  0  0  0  0
  5  6  1  0  0  0  0
  6 15  1  1  0  0  0
  6 31  1  0  0  0  0
  6  1  1  0  0  0  0
  8  2  1  0  0  0  0
  9  3  1  0  0  0  0
 12  4  1  0  0  0  0
 13  5  1  0  0  0  0
 14  5  1  0  0  0  0
 16 17  1  0  0  0  0
 16 18  1  0  0  0  0
 16 19  1  0  0  0  0
 19 24  1  0  0  0  0
 19 21  1  0  0  0  0
 20 19  1  0  0  0  0
 22 27  1  0  0  0  0
 23 22  2  0  0  0  0
 23 24  1  0  0  0  0
 24 25  2  0  0  0  0
 25 26  1  0  0  0  0
 26 30  1  0  0  0  0
 27 26  2  0  0  0  0
 28 22  1  0  0  0  0
 29 23  1  0  0  0  0
 31 33  1  0  0  0  0
 33 34  1  0  0  0  0
 33 32  2  1  0  0  0
 35 34  1  0  0  0  0
 36 33  1  0  0  0  0
 37 36  1  0  0  0  0
 38 37  1  0  0  0  0
 39 38  1  0  0  0  0
M  END
>  <minimizedAffinity>
-4.70973349

$$$$

 OpenBabel03252509023D

 39 40  0  0  1  0  0  0  0  0999 V2000
   37.8370   28.6000   42.5720 N   0  0  0  0  0  0  0  0  0  0  0  0
   38.7730   27.8390   43.3170 C   0  0  0  0  0  0  0  0  0  0  0  0
   40.2290   28.0840   42.9860 C   0  0  0  0  0  0  0  0  0  0  0  0
   40.5320   29.4930   42.5680 C   0  0  0  0  0  0  0  0  0  0  0  0
   39.3190   30.3880   42.6610 C   0  0  0  0  0  0  0  0  0  0  0  0
   38.2570   29.6480   41.7710 C   0  0  2  0  0  0  0  0  0  0  0  0
   38.6170   26.7570   43.3290 H   0  0  0  0  0  0  0  0  0  0  0  0
   38.6540   28.1550   44.3950 H   0  0  0  0  0  0  0  0  0  0  0  0
   40.8210   27.7900   43.8760 H   0  0  0  0  0  0  0  0  0  0  0  0
   40.4950   27.3760   42.1820 H   0  0  0  0  0  0  0  0  0  0  0  0
   40.8880   29.4890   41.4990 H   0  0  0  0  0  0  0  0  0  0  0  0
   41.3510   29.8920   43.1720 H   0  0  0  0  0  0  0  0  0  0  0  0
   38.9760   30.4060   43.6950 H   0  0  0  0  0  0  0  0  0  0  0  0
   39.5430   31.3600   42.2170 H   0  0  0  0  0  0  0  0  0  0  0  0
   38.8050   29.4220   40.8340 H   0  0  0  0  0  0  0  0  0  0  0  0
   36.6550   27.8770   42.1980 C   0  0  0  0  0  0  0  0  0  0  0  0
   36.5330   27.0360   42.9190 H   0  0  0  0  0  0  0  0  0  0  0  0
   35.7730   28.5500   42.3520 H   0  0  0  0  0  0  0  0  0  0  0  0
   36.7980   27.3820   40.8090 C   0  0  0  0  0  0  0  0  0  0  0  0
   37.4430   28.0730   40.2060 H   0  0  0  0  0  0  0  0  0  0  0  0
   35.8360   27.2960   40.2960 H   0  0  0  0  0  0  0  0  0  0  0  0
   37.6130   23.7810   41.4770 C   0  0  0  0  0  0  0  0  0  0  0  0
   36.9540   25.0250   41.4750 C   0  0  0  0  0  0  0  0  0  0  0  0
   37.5040   26.0800   40.8000 C   0  0  0  0  0  0  0  0  0  0  0  0
   38.6650   25.8740   40.1620 N   0  0  0  0  0  0  0  0  0  0  0  0
   39.2870   24.6810   40.1700 C   0  0  0  0  0  0  0  0  0  0  0  0
   38.7710   23.6310   40.8220 N   0  0  0  0  0  0  0  0  0  0  0  0
   37.2040   22.9210   42.0030 H   0  0  0  0  0  0  0  0  0  0  0  0
   36.0350   25.0620   42.0210 H   0  0  0  0  0  0  0  0  0  0  0  0
   40.2120   24.6620   39.6150 H   0  0  0  0  0  0  0  0  0  0  0  0
   37.2750   30.6210   41.6360 O   0  0  0  0  0  0  0  0  0  0  0  0
   38.6290   31.3410   39.4800 O   0  0  0  0  0  0  0  0  0  0  0  0
   37.2440   31.3150   40.1060 P   0  0  2  0  0  0  0  0  0  0  0  0
   36.8100   32.9540   40.3350 O   0  0  0  0  0  0  0  0  0  0  0  0
   35.8640   33.0470   40.6120 H   0  0  0  0  0  0  0  0  0  0  0  0
   36.0980   30.6050   39.1170 O   0  0  0  0  0  0  0  0  0  0  0  0
   36.6540   29.8950   38.0620 C   0  0  0  0  0  2  0  0  0  0  0  0
   35.5470   29.1040   37.3960 C   0  0  0  0  0  2  0  0  0  0  0  0
   34.5490   29.2800   37.8890 H   0  0  0  0  0  0  0  0  0  0  0  0
  1  2  1  0  0  0  0
  2  7  1  0  0  0  0
  2  8  1  0  0  0  0
  3  2  1  0  0  0  0
  3  9  1  0  0  0  0
  4  5  1  0  0  0  0
  4  3  1  0  0  0  0
  4 12  1  0  0  0  0
  5 13  1  0  0  0  0
  6 15  1  6  0  0  0
  6  1  1  0  0  0  0
  6  5  1  0  0  0  0
 10  3  1  0  0  0  0
 11  4  1  0  0  0  0
 14  5  1  0  0  0  0
 16 18  1  0  0  0  0
 16  1  1  0  0  0  0
 16 17  1  0  0  0  0
 19 16  1  0  0  0  0
 20 19  1  0  0  0  0
 21 19  1  0  0  0  0
 22 28  1  0  0  0  0
 23 22  1  0  0  0  0
 23 29  1  0  0  0  0
 24 19  1  0  0  0  0
 24 23  2  0  0  0  0
 25 26  2  0  0  0  0
 25 24  1  0  0  0  0
 26 27  1  0  0  0  0
 27 22  2  0  0  0  0
 30 26  1  0  0  0  0
 31  6  1  0  0  0  0
 33 32  2  6  0  0  0
 33 34  1  0  0  0  0
 33 31  1  0  0  0  0
 34 35  1  0  0  0  0
 36 33  1  0  0  0  0
 37 36  1  0  0  0  0
 38 39  1  0  0  0  0
 38 37  1  0  0  0  0
M  END
>  <minimizedAffinity>
-4.69246674

$$$$

 OpenBabel03252509023D

 39 40  0  0  1  0  0  0  0  0999 V2000
   36.9990   26.8430   41.5630 N   0  0  0  0  0  0  0  0  0  0  0  0
   37.1130   25.4360   41.6920 C   0  0  0  0  0  0  0  0  0  0  0  0
   36.5320   24.6240   40.5550 C   0  0  0  0  0  0  0  0  0  0  0  0
   36.6310   25.2900   39.2140 C   0  0  0  0  0  0  0  0  0  0  0  0
   37.3820   26.5990   39.2830 C   0  0  0  0  0  0  0  0  0  0  0  0
   36.5890   27.4120   40.3690 C   0  0  2  0  0  0  0  0  0  0  0  0
   36.7440   25.0050   42.6260 H   0  0  0  0  0  0  0  0  0  0  0  0
   38.2190   25.2050   41.6900 H   0  0  0  0  0  0  0  0  0  0  0  0
   37.0460   23.6420   40.5590 H   0  0  0  0  0  0  0  0  0  0  0  0
   35.4760   24.4280   40.8140 H   0  0  0  0  0  0  0  0  0  0  0  0
   35.5920   25.4980   38.8310 H   0  0  0  0  0  0  0  0  0  0  0  0
   37.1020   24.6140   38.4980 H   0  0  0  0  0  0  0  0  0  0  0  0
   38.3920   26.4050   39.6420 H   0  0  0  0  0  0  0  0  0  0  0  0
   37.3090   27.1170   38.3240 H   0  0  0  0  0  0  0  0  0  0  0  0
   35.5290   27.3070   40.0600 H   0  0  0  0  0  0  0  0  0  0  0  0
   36.7000   27.5260   42.7890 C   0  0  0  0  0  0  0  0  0  0  0  0
   36.4210   28.5730   42.5310 H   0  0  0  0  0  0  0  0  0  0  0  0
   35.7840   27.0590   43.2330 H   0  0  0  0  0  0  0  0  0  0  0  0
   37.8860   27.4850   43.6770 C   0  0  0  0  0  0  0  0  0  0  0  0
   38.3770   26.4780   43.6370 H   0  0  0  0  0  0  0  0  0  0  0  0
   37.6320   27.6890   44.7200 H   0  0  0  0  0  0  0  0  0  0  0  0
   41.1720   28.8810   42.5200 C   0  0  0  0  0  0  0  0  0  0  0  0
   40.1840   27.9850   42.9710 C   0  0  0  0  0  0  0  0  0  0  0  0
   38.9140   28.4400   43.2020 C   0  0  0  0  0  0  0  0  0  0  0  0
   38.6690   29.7410   42.9850 N   0  0  0  0  0  0  0  0  0  0  0  0
   39.6210   30.5880   42.5540 C   0  0  0  0  0  0  0  0  0  0  0  0
   40.8720   30.1700   42.3190 N   0  0  0  0  0  0  0  0  0  0  0  0
   42.1910   28.5530   42.3260 H   0  0  0  0  0  0  0  0  0  0  0  0
   40.5040   26.9740   43.1060 H   0  0  0  0  0  0  0  0  0  0  0  0
   39.2810   31.6040   42.4230 H   0  0  0  0  0  0  0  0  0  0  0  0
   37.1080   28.6890   40.2000 O   0  0  0  0  0  0  0  0  0  0  0  0
   36.4980   30.8750   38.8390 O   0  0  0  0  0  0  0  0  0  0  0  0
   35.9390   29.8230   39.7840 P   0  0  2  0  0  0  0  0  0  0  0  0
   35.5500   30.6580   41.2260 O   0  0  0  0  0  0  0  0  0  0  0  0
   35.0500   30.0830   41.8580 H   0  0  0  0  0  0  0  0  0  0  0  0
   34.5450   29.1050   39.2050 O   0  0  0  0  0  0  0  0  0  0  0  0
   34.5010   29.0390   37.8180 C   0  0  0  0  0  2  0  0  0  0  0  0
   34.0820   27.6370   37.4300 C   0  0  0  0  0  2  0  0  0  0  0  0
   33.8930   26.9890   38.3330 H   0  0  0  0  0  0  0  0  0  0  0  0
  1  2  1  0  0  0  0
  1 16  1  0  0  0  0
  2  7  1  0  0  0  0
  3  9  1  0  0  0  0
  3 10  1  0  0  0  0
  3  2  1  0  0  0  0
  4  5  1  0  0  0  0
  4  3  1  0  0  0  0
  5 13  1  0  0  0  0
  5  6  1  0  0  0  0
  6 15  1  6  0  0  0
  6  1  1  0  0  0  0
  8  2  1  0  0  0  0
 11  4  1  0  0  0  0
 12  4  1  0  0  0  0
 14  5  1  0  0  0  0
 16 18  1  0  0  0  0
 16 19  1  0  0  0  0
 17 16  1  0  0  0  0
 19 21  1  0  0  0  0
 20 19  1  0  0  0  0
 22 23  1  0  0  0  0
 23 29  1  0  0  0  0
 23 24  2  0  0  0  0
 24 19  1  0  0  0  0
 25 24  1  0  0  0  0
 26 25  2  0  0  0  0
 27 22  2  0  0  0  0
 27 26  1  0  0  0  0
 28 22  1  0  0  0  0
 30 26  1  0  0  0  0
 31  6  1  0  0  0  0
 33 32  2  6  0  0  0
 33 31  1  0  0  0  0
 33 34  1  0  0  0  0
 34 35  1  0  0  0  0
 36 33  1  0  0  0  0
 37 36  1  0  0  0  0
 38 37  1  0  0  0  0
 38 39  1  0  0  0  0
M  END
>  <minimizedAffinity>
-4.65664625

$$$$

 OpenBabel03252509023D

 39 40  0  0  1  0  0  0  0  0999 V2000
   38.2740   27.2650   42.8760 N   0  0  0  0  0  0  0  0  0  0  0  0
   39.3700   26.4550   43.2670 C   0  0  0  0  0  0  0  0  0  0  0  0
   40.7090   26.8310   42.6700 C   0  0  0  0  0  0  0  0  0  0  0  0
   40.8780   28.3020   42.4260 C   0  0  0  0  0  0  0  0  0  0  0  0
   39.6980   29.1020   42.9240 C   0  0  0  0  0  0  0  0  0  0  0  0
   38.4790   28.4440   42.1810 C   0  0  2  0  0  0  0  0  0  0  0  0
   39.2450   25.3770   43.1400 H   0  0  0  0  0  0  0  0  0  0  0  0
   39.4900   26.5980   44.3820 H   0  0  0  0  0  0  0  0  0  0  0  0
   41.4920   26.4410   43.3500 H   0  0  0  0  0  0  0  0  0  0  0  0
   40.8030   26.2680   41.7250 H   0  0  0  0  0  0  0  0  0  0  0  0
   40.9850   28.4800   41.3190 H   0  0  0  0  0  0  0  0  0  0  0  0
   41.8030   28.6520   42.8920 H   0  0  0  0  0  0  0  0  0  0  0  0
   39.5950   28.9440   43.9970 H   0  0  0  0  0  0  0  0  0  0  0  0
   39.7940   30.1410   42.6020 H   0  0  0  0  0  0  0  0  0  0  0  0
   38.8080   28.3930   41.1230 H   0  0  0  0  0  0  0  0  0  0  0  0
   37.0550   26.5400   42.6590 C   0  0  0  0  0  0  0  0  0  0  0  0
   36.5120   26.4980   43.6310 H   0  0  0  0  0  0  0  0  0  0  0  0
   36.4100   27.1420   41.9680 H   0  0  0  0  0  0  0  0  0  0  0  0
   37.3700   25.1820   42.1560 C   0  0  0  0  0  0  0  0  0  0  0  0
   36.9320   24.4000   42.8280 H   0  0  0  0  0  0  0  0  0  0  0  0
   38.4470   25.0010   42.0950 H   0  0  0  0  0  0  0  0  0  0  0  0
   36.1730   25.7820   38.6510 C   0  0  0  0  0  0  0  0  0  0  0  0
   36.7720   25.9730   39.9100 C   0  0  0  0  0  0  0  0  0  0  0  0
   36.7360   24.9650   40.8360 C   0  0  0  0  0  0  0  0  0  0  0  0
   36.1190   23.8250   40.4920 N   0  0  0  0  0  0  0  0  0  0  0  0
   35.5500   23.6540   39.2850 C   0  0  0  0  0  0  0  0  0  0  0  0
   35.5710   24.6220   38.3600 N   0  0  0  0  0  0  0  0  0  0  0  0
   36.1840   26.5610   37.8920 H   0  0  0  0  0  0  0  0  0  0  0  0
   37.2320   26.9250   40.0640 H   0  0  0  0  0  0  0  0  0  0  0  0
   35.0910   22.6870   39.1470 H   0  0  0  0  0  0  0  0  0  0  0  0
   37.4710   29.3680   42.4200 O   0  0  0  0  0  0  0  0  0  0  0  0
   38.0580   31.5180   40.9950 O   0  0  0  0  0  0  0  0  0  0  0  0
   37.1230   30.3230   41.0820 P   0  0  2  0  0  0  0  0  0  0  0  0
   35.5640   30.9740   41.3530 O   0  0  0  0  0  0  0  0  0  0  0  0
   34.8610   30.2810   41.2880 H   0  0  0  0  0  0  0  0  0  0  0  0
   37.0760   29.4310   39.6690 O   0  0  0  0  0  0  0  0  0  0  0  0
   36.1620   29.9200   38.7450 C   0  0  0  0  0  2  0  0  0  0  0  0
   36.9230   30.3040   37.4930 C   0  0  0  0  0  2  0  0  0  0  0  0
   38.0270   30.0970   37.5910 H   0  0  0  0  0  0  0  0  0  0  0  0
  1  2  1  0  0  0  0
  2  8  1  0  0  0  0
  3  2  1  0  0  0  0
  3  9  1  0  0  0  0
  4  3  1  0  0  0  0
  4 12  1  0  0  0  0
  4  5  1  0  0  0  0
  5 13  1  0  0  0  0
  6 15  1  6  0  0  0
  6 31  1  0  0  0  0
  6  1  1  0  0  0  0
  6  5  1  0  0  0  0
  7  2  1  0  0  0  0
 10  3  1  0  0  0  0
 11  4  1  0  0  0  0
 14  5  1  0  0  0  0
 16  1  1  0  0  0  0
 16 17  1  0  0  0  0
 18 16  1  0  0  0  0
 19 16  1  0  0  0  0
 19 20  1  0  0  0  0
 21 19  1  0  0  0  0
 22 23  1  0  0  0  0
 23 29  1  0  0  0  0
 23 24  2  0  0  0  0
 24 19  1  0  0  0  0
 25 24  1  0  0  0  0
 26 25  2  0  0  0  0
 27 22  2  0  0  0  0
 27 26  1  0  0  0  0
 28 22  1  0  0  0  0
 30 26  1  0  0  0  0
 33 32  2  6  0  0  0
 33 34  1  0  0  0  0
 33 31  1  0  0  0  0
 35 34  1  0  0  0  0
 36 33  1  0  0  0  0
 37 36  1  0  0  0  0
 38 39  1  0  0  0  0
 38 37  1  0  0  0  0
M  END
>  <minimizedAffinity>
-4.64394331

$$$$

 OpenBabel03252509023D

 39 40  0  0  1  0  0  0  0  0999 V2000
   37.1340   29.5260   41.8340 N   0  0  0  0  0  0  0  0  0  0  0  0
   36.5270   28.2810   42.1400 C   0  0  0  0  0  0  0  0  0  0  0  0
   37.4370   27.0740   42.0710 C   0  0  0  0  0  0  0  0  0  0  0  0
   38.8600   27.3580   42.4530 C   0  0  0  0  0  0  0  0  0  0  0  0
   39.0510   28.7830   42.9170 C   0  0  0  0  0  0  0  0  0  0  0  0
   38.5080   29.6310   41.7110 C   0  0  2  0  0  0  0  0  0  0  0  0
   35.6170   28.0390   41.5860 H   0  0  0  0  0  0  0  0  0  0  0  0
   36.1960   28.3450   43.2180 H   0  0  0  0  0  0  0  0  0  0  0  0
   36.9920   26.2920   42.7180 H   0  0  0  0  0  0  0  0  0  0  0  0
   37.3810   26.6950   41.0350 H   0  0  0  0  0  0  0  0  0  0  0  0
   39.5210   27.1860   41.5570 H   0  0  0  0  0  0  0  0  0  0  0  0
   39.1850   26.6560   43.2240 H   0  0  0  0  0  0  0  0  0  0  0  0
   38.4240   28.9540   43.7910 H   0  0  0  0  0  0  0  0  0  0  0  0
   40.1160   28.9880   43.0480 H   0  0  0  0  0  0  0  0  0  0  0  0
   39.0030   29.1820   40.8250 H   0  0  0  0  0  0  0  0  0  0  0  0
   36.3040   30.4150   41.0720 C   0  0  0  0  0  0  0  0  0  0  0  0
   35.6930   31.0050   41.7940 H   0  0  0  0  0  0  0  0  0  0  0  0
   36.9680   31.1500   40.5510 H   0  0  0  0  0  0  0  0  0  0  0  0
   35.4460   29.6250   40.1570 C   0  0  0  0  0  0  0  0  0  0  0  0
   34.4040   30.0390   40.1350 H   0  0  0  0  0  0  0  0  0  0  0  0
   35.3790   28.5750   40.4520 H   0  0  0  0  0  0  0  0  0  0  0  0
   35.7110   29.2080   36.4370 C   0  0  0  0  0  0  0  0  0  0  0  0
   35.2520   29.1100   37.7640 C   0  0  0  0  0  0  0  0  0  0  0  0
   35.9420   29.7380   38.7660 C   0  0  0  0  0  0  0  0  0  0  0  0
   37.0420   30.4260   38.4280 N   0  0  0  0  0  0  0  0  0  0  0  0
   37.4720   30.5120   37.1560 C   0  0  0  0  0  0  0  0  0  0  0  0
   36.8160   29.9090   36.1560 N   0  0  0  0  0  0  0  0  0  0  0  0
   35.1870   28.7220   35.6170 H   0  0  0  0  0  0  0  0  0  0  0  0
   34.3630   28.5330   37.9050 H   0  0  0  0  0  0  0  0  0  0  0  0
   38.3690   31.0980   37.0330 H   0  0  0  0  0  0  0  0  0  0  0  0
   38.9610   30.9030   42.0330 O   0  0  0  0  0  0  0  0  0  0  0  0
   40.8550   30.3670   40.2650 O   0  0  0  0  0  0  0  0  0  0  0  0
   40.0920   31.4950   40.9400 P   0  0  2  0  0  0  0  0  0  0  0  0
   41.2490   32.3490   41.8650 O   0  0  0  0  0  0  0  0  0  0  0  0
   40.8760   33.1870   42.2350 H   0  0  0  0  0  0  0  0  0  0  0  0
   39.4090   32.5610   39.8470 O   0  0  0  0  0  0  0  0  0  0  0  0
   38.6350   33.5410   40.4530 C   0  0  0  0  0  2  0  0  0  0  0  0
   37.3820   33.7270   39.6220 C   0  0  0  0  0  2  0  0  0  0  0  0
   37.3590   33.0340   38.7330 H   0  0  0  0  0  0  0  0  0  0  0  0
  1  2  1  0  0  0  0
  2  8  1  0  0  0  0
  3  2  1  0  0  0  0
  3  4  1  0  0  0  0
  3  9  1  0  0  0  0
  4  5  1  0  0  0  0
  4 12  1  0  0  0  0
  5 14  1  0  0  0  0
  5 13  1  0  0  0  0
  6 15  1  6  0  0  0
  6  1  1  0  0  0  0
  6 31  1  0  0  0  0
  6  5  1  0  0  0  0
  7  2  1  0  0  0  0
 10  3  1  0  0  0  0
 11  4  1  0  0  0  0
 16 17  1  0  0  0  0
 16  1  1  0  0  0  0
 18 16  1  0  0  0  0
 19 21  1  0  0  0  0
 19 16  1  0  0  0  0
 20 19  1  0  0  0  0
 22 23  1  0  0  0  0
 23 29  1  0  0  0  0
 23 24  2  0  0  0  0
 24 19  1  0  0  0  0
 25 24  1  0  0  0  0
 26 25  2  0  0  0  0
 27 22  2  0  0  0  0
 27 26  1  0  0  0  0
 28 22  1  0  0  0  0
 30 26  1  0  0  0  0
 33 32  2  6  0  0  0
 33 34  1  0  0  0  0
 33 31  1  0  0  0  0
 34 35  1  0  0  0  0
 36 37  1  0  0  0  0
 36 33  1  0  0  0  0
 38 37  1  0  0  0  0
 39 38  1  0  0  0  0
M  END
>  <minimizedAffinity>
-4.61131763

$$$$

 OpenBabel03252509023D

 39 40  0  0  1  0  0  0  0  0999 V2000
   38.0770   27.6740   43.0220 N   0  0  0  0  0  0  0  0  0  0  0  0
   39.2680   27.1610   43.5950 C   0  0  0  0  0  0  0  0  0  0  0  0
   40.5580   27.7120   43.0280 C   0  0  0  0  0  0  0  0  0  0  0  0
   40.4670   29.1410   42.5780 C   0  0  0  0  0  0  0  0  0  0  0  0
   39.1170   29.7480   42.8790 C   0  0  0  0  0  0  0  0  0  0  0  0
   38.1150   28.7660   42.1720 C   0  0  2  0  0  0  0  0  0  0  0  0
   39.3600   26.0730   43.6240 H   0  0  0  0  0  0  0  0  0  0  0  0
   39.2610   27.4740   44.6810 H   0  0  0  0  0  0  0  0  0  0  0  0
   41.3390   27.5820   43.8050 H   0  0  0  0  0  0  0  0  0  0  0  0
   40.8390   27.0570   42.1850 H   0  0  0  0  0  0  0  0  0  0  0  0
   40.6340   29.1850   41.4640 H   0  0  0  0  0  0  0  0  0  0  0  0
   41.2640   29.7280   43.0400 H   0  0  0  0  0  0  0  0  0  0  0  0
   38.9530   29.7200   43.9560 H   0  0  0  0  0  0  0  0  0  0  0  0
   39.0430   30.7320   42.4120 H   0  0  0  0  0  0  0  0  0  0  0  0
   38.5380   28.6390   41.1550 H   0  0  0  0  0  0  0  0  0  0  0  0
   37.0400   26.6980   42.8450 C   0  0  0  0  0  0  0  0  0  0  0  0
   36.6190   26.4690   43.8510 H   0  0  0  0  0  0  0  0  0  0  0  0
   36.2110   27.1730   42.2610 H   0  0  0  0  0  0  0  0  0  0  0  0
   37.6070   25.4870   42.2070 C   0  0  0  0  0  0  0  0  0  0  0  0
   37.4100   24.5790   42.8350 H   0  0  0  0  0  0  0  0  0  0  0  0
   38.6880   25.5610   42.0620 H   0  0  0  0  0  0  0  0  0  0  0  0
   35.7510   23.7200   39.4660 C   0  0  0  0  0  0  0  0  0  0  0  0
   36.3950   23.9850   40.6890 C   0  0  0  0  0  0  0  0  0  0  0  0
   36.9320   25.2240   40.9160 C   0  0  0  0  0  0  0  0  0  0  0  0
   36.8150   26.1400   39.9440 N   0  0  0  0  0  0  0  0  0  0  0  0
   36.1960   25.8750   38.7790 C   0  0  0  0  0  0  0  0  0  0  0  0
   35.6620   24.6730   38.5300 N   0  0  0  0  0  0  0  0  0  0  0  0
   35.3130   22.7470   39.2540 H   0  0  0  0  0  0  0  0  0  0  0  0
   36.4240   23.1730   41.3830 H   0  0  0  0  0  0  0  0  0  0  0  0
   36.1770   26.7070   38.0910 H   0  0  0  0  0  0  0  0  0  0  0  0
   36.9330   29.4930   42.2110 O   0  0  0  0  0  0  0  0  0  0  0  0
   34.9900   29.2100   40.4360 O   0  0  0  0  0  0  0  0  0  0  0  0
   36.3400   29.8650   40.6830 P   0  0  2  0  0  0  0  0  0  0  0  0
   37.4150   29.1440   39.5640 O   0  0  0  0  0  0  0  0  0  0  0  0
   38.2910   29.6030   39.5520 H   0  0  0  0  0  0  0  0  0  0  0  0
   36.3220   31.5130   40.4010 O   0  0  0  0  0  0  0  0  0  0  0  0
   37.5930   32.0590   40.2790 C   0  0  0  0  0  2  0  0  0  0  0  0
   37.4550   33.4250   39.6390 C   0  0  0  0  0  2  0  0  0  0  0  0
   36.3790   33.6840   39.4260 H   0  0  0  0  0  0  0  0  0  0  0  0
  1  2  1  0  0  0  0
  2  7  1  0  0  0  0
  2  8  1  0  0  0  0
  3  2  1  0  0  0  0
  3  9  1  0  0  0  0
  4  5  1  0  0  0  0
  4  3  1  0  0  0  0
  4 12  1  0  0  0  0
  5 13  1  0  0  0  0
  6 15  1  6  0  0  0
  6 31  1  0  0  0  0
  6  5  1  0  0  0  0
  6  1  1  0  0  0  0
 10  3  1  0  0  0  0
 11  4  1  0  0  0  0
 14  5  1  0  0  0  0
 16  1  1  0  0  0  0
 16 17  1  0  0  0  0
 18 16  1  0  0  0  0
 19 20  1  0  0  0  0
 19 16  1  0  0  0  0
 21 19  1  0  0  0  0
 22 23  1  0  0  0  0
 23 24  2  0  0  0  0
 23 29  1  0  0  0  0
 24 19  1  0  0  0  0
 25 24  1  0  0  0  0
 26 25  2  0  0  0  0
 27 26  1  0  0  0  0
 27 22  2  0  0  0  0
 28 22  1  0  0  0  0
 30 26  1  0  0  0  0
 33 32  2  6  0  0  0
 33 31  1  0  0  0  0
 34 33  1  0  0  0  0
 35 34  1  0  0  0  0
 36 33  1  0  0  0  0
 37 36  1  0  0  0  0
 38 37  1  0  0  0  0
 39 38  1  0  0  0  0
M  END
>  <minimizedAffinity>
-4.60743856

$$$$

 OpenBabel03252509023D

 39 40  0  0  1  0  0  0  0  0999 V2000
   38.0780   28.4140   37.8310 N   0  0  0  0  0  0  0  0  0  0  0  0
   38.3470   28.1930   36.4560 C   0  0  0  0  0  0  0  0  0  0  0  0
   37.1970   28.4640   35.5110 C   0  0  0  0  0  0  0  0  0  0  0  0
   36.2890   29.5740   35.9560 C   0  0  0  0  0  0  0  0  0  0  0  0
   36.7840   30.2440   37.2150 C   0  0  0  0  0  0  0  0  0  0  0  0
   36.9160   29.0520   38.2300 C   0  0  2  0  0  0  0  0  0  0  0  0
   38.7630   27.2160   36.1960 H   0  0  0  0  0  0  0  0  0  0  0  0
   39.1530   28.9310   36.1660 H   0  0  0  0  0  0  0  0  0  0  0  0
   37.6350   28.6740   34.5150 H   0  0  0  0  0  0  0  0  0  0  0  0
   36.6350   27.5180   35.4160 H   0  0  0  0  0  0  0  0  0  0  0  0
   35.2660   29.1500   36.1590 H   0  0  0  0  0  0  0  0  0  0  0  0
   36.1750   30.3050   35.1510 H   0  0  0  0  0  0  0  0  0  0  0  0
   37.7700   30.6670   37.0230 H   0  0  0  0  0  0  0  0  0  0  0  0
   36.0290   30.9430   37.5820 H   0  0  0  0  0  0  0  0  0  0  0  0
   35.9510   28.5140   38.1370 H   0  0  0  0  0  0  0  0  0  0  0  0
   38.6710   27.4480   38.7100 C   0  0  0  0  0  0  0  0  0  0  0  0
   39.6690   27.1810   38.2920 H   0  0  0  0  0  0  0  0  0  0  0  0
   38.8670   27.9460   39.6940 H   0  0  0  0  0  0  0  0  0  0  0  0
   37.7890   26.2600   38.8040 C   0  0  0  0  0  0  0  0  0  0  0  0
   38.0700   25.4970   38.0320 H   0  0  0  0  0  0  0  0  0  0  0  0
   36.7360   26.5110   38.6530 H   0  0  0  0  0  0  0  0  0  0  0  0
   37.0640   24.3290   41.9380 C   0  0  0  0  0  0  0  0  0  0  0  0
   36.9020   24.9740   40.6970 C   0  0  0  0  0  0  0  0  0  0  0  0
   37.9760   25.5860   40.1080 C   0  0  0  0  0  0  0  0  0  0  0  0
   39.1500   25.5400   40.7550 N   0  0  0  0  0  0  0  0  0  0  0  0
   39.2930   24.9210   41.9410 C   0  0  0  0  0  0  0  0  0  0  0  0
   38.2600   24.3140   42.5390 N   0  0  0  0  0  0  0  0  0  0  0  0
   36.2320   23.8330   42.4330 H   0  0  0  0  0  0  0  0  0  0  0  0
   35.9170   24.9400   40.2840 H   0  0  0  0  0  0  0  0  0  0  0  0
   40.2930   24.9650   42.3430 H   0  0  0  0  0  0  0  0  0  0  0  0
   37.0810   29.7220   39.4340 O   0  0  0  0  0  0  0  0  0  0  0  0
   34.5010   29.2390   39.7640 O   0  0  0  0  0  0  0  0  0  0  0  0
   35.8070   29.4770   40.5030 P   0  0  2  0  0  0  0  0  0  0  0  0
   35.6000   30.9520   41.3450 O   0  0  0  0  0  0  0  0  0  0  0  0
   36.3490   31.1260   41.9680 H   0  0  0  0  0  0  0  0  0  0  0  0
   36.1470   28.2820   41.6210 O   0  0  0  0  0  0  0  0  0  0  0  0
   37.3370   28.4970   42.3040 C   0  0  0  0  0  2  0  0  0  0  0  0
   37.2800   27.7130   43.5990 C   0  0  0  0  0  2  0  0  0  0  0  0
   36.3160   27.1400   43.7020 H   0  0  0  0  0  0  0  0  0  0  0  0
  1  6  1  0  0  0  0
  1 16  1  0  0  0  0
  2  1  1  0  0  0  0
  3  4  1  0  0  0  0
  3  2  1  0  0  0  0
  4 11  1  0  0  0  0
  4  5  1  0  0  0  0
  5 14  1  0  0  0  0
  5  6  1  0  0  0  0
  6 15  1  6  0  0  0
  6 31  1  0  0  0  0
  7  2  1  0  0  0  0
  8  2  1  0  0  0  0
  9  3  1  0  0  0  0
 10  3  1  0  0  0  0
 12  4  1  0  0  0  0
 13  5  1  0  0  0  0
 16 19  1  0  0  0  0
 16 18  1  0  0  0  0
 17 16  1  0  0  0  0
 19 24  1  0  0  0  0
 20 19  1  0  0  0  0
 21 19  1  0  0  0  0
 22 28  1  0  0  0  0
 22 27  1  0  0  0  0
 23 22  2  0  0  0  0
 24 23  1  0  0  0  0
 24 25  2  0  0  0  0
 25 26  1  0  0  0  0
 26 30  1  0  0  0  0
 26 27  2  0  0  0  0
 29 23  1  0  0  0  0
 31 33  1  0  0  0  0
 33 32  2  6  0  0  0
 33 34  1  0  0  0  0
 33 36  1  0  0  0  0
 34 35  1  0  0  0  0
 36 37  1  0  0  0  0
 37 38  1  0  0  0  0
 38 39  1  0  0  0  0
M  END
>  <minimizedAffinity>
-4.60190725

$$$$
