
 OpenBabel03252506473D

 36 38  0  0  1  0  0  0  0  0999 V2000
   37.2180   31.1130   40.8840 N   0  0  1  0  0  0  0  0  0  0  0  0
   36.2100   30.7810   39.9070 C   0  0  0  0  0  0  0  0  0  0  0  0
   35.4650   29.5270   40.2240 C   0  0  0  0  0  0  0  0  0  0  0  0
   36.4210   28.3610   40.0780 C   0  0  0  0  0  0  0  0  0  0  0  0
   37.8020   28.7360   40.5860 C   0  0  0  0  0  0  0  0  0  0  0  0
   37.6680   29.8930   41.5210 C   0  0  2  0  0  0  0  0  0  0  0  0
   36.6980   30.6540   38.9170 H   0  0  0  0  0  0  0  0  0  0  0  0
   35.5250   31.6520   39.8170 H   0  0  0  0  0  0  0  0  0  0  0  0
   34.9070   29.5100   41.1520 H   0  0  0  0  0  0  0  0  0  0  0  0
   34.7220   29.3900   39.3910 H   0  0  0  0  0  0  0  0  0  0  0  0
   36.0420   27.5300   40.6890 H   0  0  0  0  0  0  0  0  0  0  0  0
   36.5310   28.0730   39.0040 H   0  0  0  0  0  0  0  0  0  0  0  0
   38.3550   27.9310   41.0410 H   0  0  0  0  0  0  0  0  0  0  0  0
   38.3510   29.1460   39.6830 H   0  0  0  0  0  0  0  0  0  0  0  0
   38.7170   30.1320   41.8670 H   0  0  0  0  0  0  0  0  0  0  0  0
   39.0480   32.9160   40.8820 C   0  0  1  0  0  0  0  0  0  0  0  0
   37.9380   33.3140   40.0230 C   0  0  0  0  0  0  0  0  0  0  0  0
   38.2200   31.8670   40.2260 C   0  0  2  0  0  0  0  0  0  0  0  0
   38.9090   33.0280   41.9890 H   0  0  0  0  0  0  0  0  0  0  0  0
   37.0380   33.7690   40.5350 H   0  0  0  0  0  0  0  0  0  0  0  0
   38.1330   33.7890   39.0560 H   0  0  0  0  0  0  0  0  0  0  0  0
   38.7150   31.3820   39.3510 H   0  0  0  0  0  0  0  0  0  0  0  0
   41.5250   32.5290   41.0890 C   0  0  0  0  0  0  0  0  0  0  0  0
   40.4290   33.1390   40.4540 C   0  0  0  0  0  0  0  0  0  0  0  0
   40.7240   33.9790   39.3780 C   0  0  0  0  0  0  0  0  0  0  0  0
   42.0210   34.1590   39.0120 N   0  0  0  0  0  0  0  0  0  0  0  0
   43.0360   33.5550   39.6480 C   0  0  0  0  0  0  0  0  0  0  0  0
   42.7950   32.7260   40.7040 N   0  0  0  0  0  0  0  0  0  0  0  0
   41.3160   31.8590   41.9400 H   0  0  0  0  0  0  0  0  0  0  0  0
   39.9070   34.4850   38.8430 H   0  0  0  0  0  0  0  0  0  0  0  0
   44.0860   33.7030   39.3630 H   0  0  0  0  0  0  0  0  0  0  0  0
   36.9190   29.5560   42.6910 N   0  0  0  0  0  0  0  0  0  0  0  0
   36.5610   30.3920   43.2190 H   0  0  0  0  0  0  0  0  0  0  0  0
   37.3400   28.4600   43.4550 C   0  0  0  0  0  2  0  0  0  0  0  0
   36.3800   27.3610   43.6770 C   0  0  0  0  0  2  0  0  0  0  0  0
   36.5230   26.9730   44.7490 H   0  0  0  0  0  0  0  0  0  0  0  0
  1  2  1  6  0  0  0
  1  6  1  0  0  0  0
  2  3  1  0  0  0  0
  3  9  1  0  0  0  0
  4  3  1  0  0  0  0
  4  5  1  0  0  0  0
  4 11  1  0  0  0  0
  5 13  1  0  0  0  0
  5  6  1  0  0  0  0
  6 15  1  1  0  0  0
  6 32  1  0  0  0  0
  7  2  1  0  0  0  0
  8  2  1  0  0  0  0
 10  3  1  0  0  0  0
 12  4  1  0  0  0  0
 14  5  1  0  0  0  0
 16 19  1  1  0  0  0
 17 18  1  0  0  0  0
 17 20  1  0  0  0  0
 17 16  1  0  0  0  0
 18 22  1  6  0  0  0
 18 16  1  0  0  0  0
 18  1  1  0  0  0  0
 21 17  1  0  0  0  0
 23 29  1  0  0  0  0
 24 16  1  0  0  0  0
 24 23  2  0  0  0  0
 25 24  1  0  0  0  0
 26 25  2  0  0  0  0
 26 27  1  0  0  0  0
 27 28  2  0  0  0  0
 28 23  1  0  0  0  0
 30 25  1  0  0  0  0
 31 27  1  0  0  0  0
 32 33  1  0  0  0  0
 32 34  1  0  0  0  0
 34 35  1  0  0  0  0
 35 36  1  0  0  0  0
M  END
>  <minimizedAffinity>
-4.83060646

$$$$

 OpenBabel03252506473D

 36 38  0  0  1  0  0  0  0  0999 V2000
   36.9170   29.7270   40.5640 N   0  0  1  0  0  0  0  0  0  0  0  0
   37.2270   31.1130   40.8220 C   0  0  0  0  0  0  0  0  0  0  0  0
   36.9480   32.0090   39.6620 C   0  0  0  0  0  0  0  0  0  0  0  0
   37.9370   31.6800   38.5630 C   0  0  0  0  0  0  0  0  0  0  0  0
   38.1850   30.1830   38.4990 C   0  0  0  0  0  0  0  0  0  0  0  0
   37.0340   29.4810   39.1430 C   0  0  2  0  0  0  0  0  0  0  0  0
   38.3050   31.1980   41.0760 H   0  0  0  0  0  0  0  0  0  0  0  0
   36.6600   31.4240   41.7260 H   0  0  0  0  0  0  0  0  0  0  0  0
   35.9230   32.0580   39.3160 H   0  0  0  0  0  0  0  0  0  0  0  0
   37.2320   33.0450   39.9970 H   0  0  0  0  0  0  0  0  0  0  0  0
   37.5020   31.9990   37.6060 H   0  0  0  0  0  0  0  0  0  0  0  0
   38.9210   32.1700   38.7580 H   0  0  0  0  0  0  0  0  0  0  0  0
   38.3750   29.7940   37.5130 H   0  0  0  0  0  0  0  0  0  0  0  0
   39.0680   29.9970   39.1870 H   0  0  0  0  0  0  0  0  0  0  0  0
   37.2690   28.3770   39.0710 H   0  0  0  0  0  0  0  0  0  0  0  0
   37.2620   27.9050   42.3430 C   0  0  1  0  0  0  0  0  0  0  0  0
   37.6790   29.2050   42.8560 C   0  0  0  0  0  0  0  0  0  0  0  0
   37.7540   28.9400   41.3930 C   0  0  2  0  0  0  0  0  0  0  0  0
   36.1610   27.6930   42.3080 H   0  0  0  0  0  0  0  0  0  0  0  0
   36.8620   29.8830   43.2440 H   0  0  0  0  0  0  0  0  0  0  0  0
   38.5930   29.2930   43.4530 H   0  0  0  0  0  0  0  0  0  0  0  0
   38.7920   28.7590   41.0260 H   0  0  0  0  0  0  0  0  0  0  0  0
   39.2110   26.7390   43.4250 C   0  0  0  0  0  0  0  0  0  0  0  0
   38.0640   26.7120   42.6120 C   0  0  0  0  0  0  0  0  0  0  0  0
   37.7200   25.4730   42.0660 C   0  0  0  0  0  0  0  0  0  0  0  0
   38.4930   24.3880   42.3400 N   0  0  0  0  0  0  0  0  0  0  0  0
   39.5790   24.4620   43.1240 C   0  0  0  0  0  0  0  0  0  0  0  0
   39.9520   25.6500   43.6800 N   0  0  0  0  0  0  0  0  0  0  0  0
   39.5000   27.7060   43.8700 H   0  0  0  0  0  0  0  0  0  0  0  0
   36.8340   25.3910   41.4190 H   0  0  0  0  0  0  0  0  0  0  0  0
   40.2110   23.5910   43.3430 H   0  0  0  0  0  0  0  0  0  0  0  0
   35.8120   29.6860   38.4310 N   0  0  0  0  0  0  0  0  0  0  0  0
   35.6290   30.6920   38.1850 H   0  0  0  0  0  0  0  0  0  0  0  0
   34.7000   28.9120   38.7840 C   0  0  0  0  0  2  0  0  0  0  0  0
   33.5660   28.8590   37.8410 C   0  0  0  0  0  2  0  0  0  0  0  0
   32.5920   28.8510   38.4520 H   0  0  0  0  0  0  0  0  0  0  0  0
  1  2  1  6  0  0  0
  1 18  1  0  0  0  0
  2  7  1  0  0  0  0
  2  8  1  0  0  0  0
  3 10  1  0  0  0  0
  3  2  1  0  0  0  0
  4 12  1  0  0  0  0
  4  3  1  0  0  0  0
  5  4  1  0  0  0  0
  5  6  1  0  0  0  0
  5 14  1  0  0  0  0
  6 15  1  6  0  0  0
  6  1  1  0  0  0  0
  9  3  1  0  0  0  0
 11  4  1  0  0  0  0
 13  5  1  0  0  0  0
 16 19  1  6  0  0  0
 16 24  1  0  0  0  0
 16 17  1  0  0  0  0
 17 20  1  0  0  0  0
 17 21  1  0  0  0  0
 18 22  1  6  0  0  0
 18 16  1  0  0  0  0
 18 17  1  0  0  0  0
 23 28  1  0  0  0  0
 23 29  1  0  0  0  0
 24 23  2  0  0  0  0
 25 26  2  0  0  0  0
 25 24  1  0  0  0  0
 26 27  1  0  0  0  0
 27 31  1  0  0  0  0
 27 28  2  0  0  0  0
 30 25  1  0  0  0  0
 32 34  1  0  0  0  0
 32  6  1  0  0  0  0
 33 32  1  0  0  0  0
 35 36  1  0  0  0  0
 35 34  1  0  0  0  0
M  END
>  <minimizedAffinity>
-4.59889555

$$$$

 OpenBabel03252506473D

 36 38  0  0  1  0  0  0  0  0999 V2000
   37.8330   31.3590   39.5010 N   0  0  1  0  0  0  0  0  0  0  0  0
   36.9890   32.4310   39.9710 C   0  0  0  0  0  0  0  0  0  0  0  0
   37.4790   33.7860   39.5830 C   0  0  0  0  0  0  0  0  0  0  0  0
   38.7610   34.0590   40.3420 C   0  0  0  0  0  0  0  0  0  0  0  0
   39.6000   32.7980   40.4430 C   0  0  0  0  0  0  0  0  0  0  0  0
   39.1840   31.8600   39.3570 C   0  0  2  0  0  0  0  0  0  0  0  0
   36.9340   32.3840   41.0790 H   0  0  0  0  0  0  0  0  0  0  0  0
   35.9610   32.2430   39.5920 H   0  0  0  0  0  0  0  0  0  0  0  0
   37.5550   33.9940   38.5230 H   0  0  0  0  0  0  0  0  0  0  0  0
   36.7360   34.5160   40.0090 H   0  0  0  0  0  0  0  0  0  0  0  0
   39.3340   34.8120   39.7840 H   0  0  0  0  0  0  0  0  0  0  0  0
   38.5380   34.3920   41.3850 H   0  0  0  0  0  0  0  0  0  0  0  0
   40.6660   32.9570   40.4310 H   0  0  0  0  0  0  0  0  0  0  0  0
   39.2750   32.2980   41.4080 H   0  0  0  0  0  0  0  0  0  0  0  0
   39.8340   30.9430   39.4780 H   0  0  0  0  0  0  0  0  0  0  0  0
   36.5420   29.3050   40.3460 C   0  0  1  0  0  0  0  0  0  0  0  0
   36.5470   30.3560   41.3570 C   0  0  0  0  0  0  0  0  0  0  0  0
   37.6760   30.2680   40.3910 C   0  0  2  0  0  0  0  0  0  0  0  0
   35.8340   29.4210   39.4840 H   0  0  0  0  0  0  0  0  0  0  0  0
   35.7870   31.1840   41.2310 H   0  0  0  0  0  0  0  0  0  0  0  0
   36.6960   30.1050   42.4120 H   0  0  0  0  0  0  0  0  0  0  0  0
   38.6090   29.8470   40.8340 H   0  0  0  0  0  0  0  0  0  0  0  0
   36.8220   26.8670   39.7910 C   0  0  0  0  0  0  0  0  0  0  0  0
   36.7470   27.9090   40.7320 C   0  0  0  0  0  0  0  0  0  0  0  0
   36.8790   27.5440   42.0730 C   0  0  0  0  0  0  0  0  0  0  0  0
   37.0680   26.2340   42.3910 N   0  0  0  0  0  0  0  0  0  0  0  0
   37.1340   25.2740   41.4570 C   0  0  0  0  0  0  0  0  0  0  0  0
   37.0110   25.5840   40.1340 N   0  0  0  0  0  0  0  0  0  0  0  0
   36.7230   27.1320   38.7250 H   0  0  0  0  0  0  0  0  0  0  0  0
   36.8270   28.3160   42.8550 H   0  0  0  0  0  0  0  0  0  0  0  0
   37.2780   24.2140   41.7070 H   0  0  0  0  0  0  0  0  0  0  0  0
   39.4570   32.3860   38.0570 N   0  0  0  0  0  0  0  0  0  0  0  0
   38.6180   32.4020   37.4220 H   0  0  0  0  0  0  0  0  0  0  0  0
   40.6900   32.0850   37.4640 C   0  0  0  0  0  2  0  0  0  0  0  0
   41.7230   33.1390   37.4430 C   0  0  0  0  0  2  0  0  0  0  0  0
   42.2830   33.0700   36.4410 H   0  0  0  0  0  0  0  0  0  0  0  0
  1  2  1  1  0  0  0
  1 18  1  0  0  0  0
  2  7  1  0  0  0  0
  3  2  1  0  0  0  0
  3 10  1  0  0  0  0
  3  4  1  0  0  0  0
  4  5  1  0  0  0  0
  4 12  1  0  0  0  0
  5 14  1  0  0  0  0
  6 15  1  1  0  0  0
  6  1  1  0  0  0  0
  6  5  1  0  0  0  0
  8  2  1  0  0  0  0
  9  3  1  0  0  0  0
 11  4  1  0  0  0  0
 13  5  1  0  0  0  0
 16 19  1  6  0  0  0
 16 18  1  0  0  0  0
 16 24  1  0  0  0  0
 16 17  1  0  0  0  0
 17 21  1  0  0  0  0
 18 22  1  1  0  0  0
 18 17  1  0  0  0  0
 20 17  1  0  0  0  0
 23 28  2  0  0  0  0
 23 24  1  0  0  0  0
 24 25  2  0  0  0  0
 25 26  1  0  0  0  0
 25 30  1  0  0  0  0
 27 31  1  0  0  0  0
 27 26  2  0  0  0  0
 28 27  1  0  0  0  0
 29 23  1  0  0  0  0
 32  6  1  0  0  0  0
 33 32  1  0  0  0  0
 34 32  1  0  0  0  0
 35 34  1  0  0  0  0
 36 35  1  0  0  0  0
M  END
>  <minimizedAffinity>
-4.5322485

$$$$

 OpenBabel03252506473D

 36 38  0  0  1  0  0  0  0  0999 V2000
   37.7420   28.6170   40.9230 N   0  0  1  0  0  0  0  0  0  0  0  0
   37.4060   29.4410   42.0590 C   0  0  0  0  0  0  0  0  0  0  0  0
   37.9360   28.9160   43.3510 C   0  0  0  0  0  0  0  0  0  0  0  0
   37.1960   27.6360   43.6800 C   0  0  0  0  0  0  0  0  0  0  0  0
   36.9450   26.8270   42.4200 C   0  0  0  0  0  0  0  0  0  0  0  0
   37.9240   27.2540   41.3750 C   0  0  2  0  0  0  0  0  0  0  0  0
   36.3000   29.5080   42.1380 H   0  0  0  0  0  0  0  0  0  0  0  0
   37.7740   30.4690   41.8520 H   0  0  0  0  0  0  0  0  0  0  0  0
   39.0120   28.8250   43.4380 H   0  0  0  0  0  0  0  0  0  0  0  0
   37.6040   29.6460   44.1400 H   0  0  0  0  0  0  0  0  0  0  0  0
   37.8280   27.0410   44.3530 H   0  0  0  0  0  0  0  0  0  0  0  0
   36.2000   27.8610   44.1320 H   0  0  0  0  0  0  0  0  0  0  0  0
   36.9620   25.7580   42.5530 H   0  0  0  0  0  0  0  0  0  0  0  0
   35.9340   27.1730   42.0380 H   0  0  0  0  0  0  0  0  0  0  0  0
   37.6940   26.6270   40.4630 H   0  0  0  0  0  0  0  0  0  0  0  0
   36.7600   29.8880   38.9180 C   0  0  1  0  0  0  0  0  0  0  0  0
   35.8950   30.0260   40.0840 C   0  0  0  0  0  0  0  0  0  0  0  0
   36.7380   28.8080   39.9420 C   0  0  2  0  0  0  0  0  0  0  0  0
   37.6890   30.5160   38.8880 H   0  0  0  0  0  0  0  0  0  0  0  0
   36.1910   30.8070   40.8460 H   0  0  0  0  0  0  0  0  0  0  0  0
   34.8070   29.9660   39.9730 H   0  0  0  0  0  0  0  0  0  0  0  0
   36.1650   27.9030   39.6320 H   0  0  0  0  0  0  0  0  0  0  0  0
   34.8890   29.1400   37.4110 C   0  0  0  0  0  0  0  0  0  0  0  0
   36.1830   29.6590   37.5940 C   0  0  0  0  0  0  0  0  0  0  0  0
   36.9040   29.9500   36.4340 C   0  0  0  0  0  0  0  0  0  0  0  0
   36.3320   29.7220   35.2210 N   0  0  0  0  0  0  0  0  0  0  0  0
   35.0920   29.2250   35.0960 C   0  0  0  0  0  0  0  0  0  0  0  0
   34.3510   28.9270   36.2010 N   0  0  0  0  0  0  0  0  0  0  0  0
   34.3000   28.9050   38.3140 H   0  0  0  0  0  0  0  0  0  0  0  0
   37.9230   30.3570   36.5140 H   0  0  0  0  0  0  0  0  0  0  0  0
   34.6280   29.0310   34.1200 H   0  0  0  0  0  0  0  0  0  0  0  0
   39.2720   26.9560   41.7470 N   0  0  0  0  0  0  0  0  0  0  0  0
   39.9830   27.5900   41.3020 H   0  0  0  0  0  0  0  0  0  0  0  0
   39.6350   25.6130   41.9040 C   0  0  0  0  0  2  0  0  0  0  0  0
   40.1340   25.1800   43.2240 C   0  0  0  0  0  2  0  0  0  0  0  0
   40.9770   24.4170   43.0560 H   0  0  0  0  0  0  0  0  0  0  0  0
  1  6  1  0  0  0  0
  1  2  1  1  0  0  0
  2  7  1  0  0  0  0
  2  3  1  0  0  0  0
  3  9  1  0  0  0  0
  3  4  1  0  0  0  0
  3 10  1  0  0  0  0
  4 12  1  0  0  0  0
  4 11  1  0  0  0  0
  5 13  1  0  0  0  0
  5  4  1  0  0  0  0
  6 15  1  6  0  0  0
  6 32  1  0  0  0  0
  6  5  1  0  0  0  0
  8  2  1  0  0  0  0
 14  5  1  0  0  0  0
 16 19  1  1  0  0  0
 16 18  1  0  0  0  0
 16 17  1  0  0  0  0
 17 20  1  0  0  0  0
 18 22  1  6  0  0  0
 18 17  1  0  0  0  0
 18  1  1  0  0  0  0
 21 17  1  0  0  0  0
 23 24  1  0  0  0  0
 23 29  1  0  0  0  0
 24 16  1  0  0  0  0
 25 30  1  0  0  0  0
 25 24  2  0  0  0  0
 26 25  1  0  0  0  0
 27 26  2  0  0  0  0
 27 28  1  0  0  0  0
 28 23  2  0  0  0  0
 31 27  1  0  0  0  0
 32 34  1  0  0  0  0
 33 32  1  0  0  0  0
 34 35  1  0  0  0  0
 36 35  1  0  0  0  0
M  END
>  <minimizedAffinity>
-4.47311831

$$$$

 OpenBabel03252506473D

 36 38  0  0  1  0  0  0  0  0999 V2000
   37.2260   28.0700   40.7280 N   0  0  1  0  0  0  0  0  0  0  0  0
   37.4940   29.3160   41.4050 C   0  0  0  0  0  0  0  0  0  0  0  0
   38.2830   29.1510   42.6610 C   0  0  0  0  0  0  0  0  0  0  0  0
   37.4120   28.4400   43.6760 C   0  0  0  0  0  0  0  0  0  0  0  0
   36.5690   27.3730   43.0000 C   0  0  0  0  0  0  0  0  0  0  0  0
   37.2160   27.0030   41.7050 C   0  0  2  0  0  0  0  0  0  0  0  0
   36.5280   29.8000   41.6620 H   0  0  0  0  0  0  0  0  0  0  0  0
   38.0070   29.9890   40.6850 H   0  0  0  0  0  0  0  0  0  0  0  0
   39.2710   28.7180   42.5660 H   0  0  0  0  0  0  0  0  0  0  0  0
   38.4170   30.1870   43.0800 H   0  0  0  0  0  0  0  0  0  0  0  0
   38.0700   27.9500   44.4070 H   0  0  0  0  0  0  0  0  0  0  0  0
   36.7080   29.1570   44.1630 H   0  0  0  0  0  0  0  0  0  0  0  0
   36.3730   26.4990   43.5990 H   0  0  0  0  0  0  0  0  0  0  0  0
   35.6030   27.8920   42.7110 H   0  0  0  0  0  0  0  0  0  0  0  0
   36.5520   26.2120   41.2450 H   0  0  0  0  0  0  0  0  0  0  0  0
   35.8380   29.2480   38.9150 C   0  0  1  0  0  0  0  0  0  0  0  0
   35.2620   29.4860   40.2340 C   0  0  0  0  0  0  0  0  0  0  0  0
   36.0290   28.2350   39.9880 C   0  0  2  0  0  0  0  0  0  0  0  0
   36.7470   29.8420   38.6350 H   0  0  0  0  0  0  0  0  0  0  0  0
   35.7380   30.3020   40.8560 H   0  0  0  0  0  0  0  0  0  0  0  0
   34.1760   29.4550   40.3750 H   0  0  0  0  0  0  0  0  0  0  0  0
   35.3830   27.3310   39.8760 H   0  0  0  0  0  0  0  0  0  0  0  0
   35.4760   28.7050   36.4860 C   0  0  0  0  0  0  0  0  0  0  0  0
   34.9720   28.9570   37.7730 C   0  0  0  0  0  0  0  0  0  0  0  0
   33.5830   28.9160   37.9140 C   0  0  0  0  0  0  0  0  0  0  0  0
   32.8120   28.6410   36.8270 N   0  0  0  0  0  0  0  0  0  0  0  0
   33.3390   28.4050   35.6170 C   0  0  0  0  0  0  0  0  0  0  0  0
   34.6900   28.4350   35.4320 N   0  0  0  0  0  0  0  0  0  0  0  0
   36.5710   28.7290   36.3510 H   0  0  0  0  0  0  0  0  0  0  0  0
   33.1290   29.1070   38.8980 H   0  0  0  0  0  0  0  0  0  0  0  0
   32.7230   28.1920   34.7340 H   0  0  0  0  0  0  0  0  0  0  0  0
   38.4980   26.4000   41.8970 N   0  0  0  0  0  0  0  0  0  0  0  0
   39.2230   26.7170   41.2040 H   0  0  0  0  0  0  0  0  0  0  0  0
   38.5470   25.0560   42.2900 C   0  0  0  0  0  2  0  0  0  0  0  0
   37.5830   24.1200   41.6790 C   0  0  0  0  0  2  0  0  0  0  0  0
   37.2500   23.3730   42.4860 H   0  0  0  0  0  0  0  0  0  0  0  0
  1  2  1  1  0  0  0
  1  6  1  0  0  0  0
  2  7  1  0  0  0  0
  2  3  1  0  0  0  0
  3 10  1  0  0  0  0
  3  4  1  0  0  0  0
  4 12  1  0  0  0  0
  4 11  1  0  0  0  0
  5 13  1  0  0  0  0
  5  4  1  0  0  0  0
  6 15  1  6  0  0  0
  6 32  1  0  0  0  0
  6  5  1  0  0  0  0
  8  2  1  0  0  0  0
  9  3  1  0  0  0  0
 14  5  1  0  0  0  0
 16 19  1  6  0  0  0
 16 18  1  0  0  0  0
 16 17  1  0  0  0  0
 17 21  1  0  0  0  0
 17 20  1  0  0  0  0
 18 22  1  6  0  0  0
 18 17  1  0  0  0  0
 18  1  1  0  0  0  0
 23 24  1  0  0  0  0
 24 25  2  0  0  0  0
 24 16  1  0  0  0  0
 25 30  1  0  0  0  0
 26 25  1  0  0  0  0
 27 26  2  0  0  0  0
 28 27  1  0  0  0  0
 28 23  2  0  0  0  0
 29 23  1  0  0  0  0
 31 27  1  0  0  0  0
 32 34  1  0  0  0  0
 33 32  1  0  0  0  0
 35 34  1  0  0  0  0
 35 36  1  0  0  0  0
M  END
>  <minimizedAffinity>
-4.45323324

$$$$

 OpenBabel03252506473D

 36 38  0  0  1  0  0  0  0  0999 V2000
   40.4600   32.1530   41.0140 N   0  0  1  0  0  0  0  0  0  0  0  0
   41.8750   32.4130   41.1310 C   0  0  0  0  0  0  0  0  0  0  0  0
   42.3650   33.4670   40.1960 C   0  0  0  0  0  0  0  0  0  0  0  0
   42.2760   32.9250   38.7850 C   0  0  0  0  0  0  0  0  0  0  0  0
   41.0200   32.0890   38.6130 C   0  0  0  0  0  0  0  0  0  0  0  0
   40.0380   32.4810   39.6680 C   0  0  2  0  0  0  0  0  0  0  0  0
   42.4300   31.4740   40.9190 H   0  0  0  0  0  0  0  0  0  0  0  0
   42.0840   32.6750   42.1910 H   0  0  0  0  0  0  0  0  0  0  0  0
   41.9360   34.4560   40.3050 H   0  0  0  0  0  0  0  0  0  0  0  0
   43.4690   33.5650   40.3930 H   0  0  0  0  0  0  0  0  0  0  0  0
   42.2200   33.7780   38.0950 H   0  0  0  0  0  0  0  0  0  0  0  0
   43.1470   32.2630   38.5610 H   0  0  0  0  0  0  0  0  0  0  0  0
   40.5750   32.1310   37.6330 H   0  0  0  0  0  0  0  0  0  0  0  0
   41.3290   31.0290   38.8740 H   0  0  0  0  0  0  0  0  0  0  0  0
   39.1280   31.8320   39.4980 H   0  0  0  0  0  0  0  0  0  0  0  0
   39.5410   30.4220   42.6750 C   0  0  1  0  0  0  0  0  0  0  0  0
   40.9960   30.3430   42.6070 C   0  0  0  0  0  0  0  0  0  0  0  0
   40.2350   30.8150   41.4180 C   0  0  2  0  0  0  0  0  0  0  0  0
   39.0980   31.2620   43.2720 H   0  0  0  0  0  0  0  0  0  0  0  0
   41.5740   31.0980   43.2170 H   0  0  0  0  0  0  0  0  0  0  0  0
   41.4940   29.3670   42.5980 H   0  0  0  0  0  0  0  0  0  0  0  0
   40.1620   30.0540   40.6050 H   0  0  0  0  0  0  0  0  0  0  0  0
   37.3720   29.1820   42.3800 C   0  0  0  0  0  0  0  0  0  0  0  0
   38.7360   29.2020   42.7210 C   0  0  0  0  0  0  0  0  0  0  0  0
   39.2950   27.9840   43.1120 C   0  0  0  0  0  0  0  0  0  0  0  0
   38.5130   26.8720   43.1420 N   0  0  0  0  0  0  0  0  0  0  0  0
   37.2140   26.9010   42.8060 C   0  0  0  0  0  0  0  0  0  0  0  0
   36.6250   28.0680   42.4170 N   0  0  0  0  0  0  0  0  0  0  0  0
   36.9090   30.1320   42.0650 H   0  0  0  0  0  0  0  0  0  0  0  0
   40.3580   27.9380   43.3920 H   0  0  0  0  0  0  0  0  0  0  0  0
   36.5750   26.0090   42.8360 H   0  0  0  0  0  0  0  0  0  0  0  0
   39.6060   33.8360   39.5250 N   0  0  0  0  0  0  0  0  0  0  0  0
   40.3520   34.5430   39.7460 H   0  0  0  0  0  0  0  0  0  0  0  0
   38.2980   34.1590   39.9070 C   0  0  0  0  0  2  0  0  0  0  0  0
   37.2280   33.1870   39.6070 C   0  0  0  0  0  2  0  0  0  0  0  0
   36.2870   33.7730   39.3040 H   0  0  0  0  0  0  0  0  0  0  0  0
  1  2  1  6  0  0  0
  1 18  1  0  0  0  0
  2  8  1  0  0  0  0
  3  9  1  0  0  0  0
  3 10  1  0  0  0  0
  3  2  1  0  0  0  0
  4  3  1  0  0  0  0
  5  4  1  0  0  0  0
  5 14  1  0  0  0  0
  5  6  1  0  0  0  0
  6 15  1  6  0  0  0
  6  1  1  0  0  0  0
  7  2  1  0  0  0  0
 11  4  1  0  0  0  0
 12  4  1  0  0  0  0
 13  5  1  0  0  0  0
 16 24  1  0  0  0  0
 16 19  1  1  0  0  0
 17 16  1  0  0  0  0
 17 20  1  0  0  0  0
 18 22  1  6  0  0  0
 18 17  1  0  0  0  0
 18 16  1  0  0  0  0
 21 17  1  0  0  0  0
 23 28  2  0  0  0  0
 23 24  1  0  0  0  0
 24 25  2  0  0  0  0
 25 26  1  0  0  0  0
 25 30  1  0  0  0  0
 27 31  1  0  0  0  0
 27 26  2  0  0  0  0
 28 27  1  0  0  0  0
 29 23  1  0  0  0  0
 32  6  1  0  0  0  0
 32 33  1  0  0  0  0
 32 34  1  0  0  0  0
 35 34  1  0  0  0  0
 36 35  1  0  0  0  0
M  END
>  <minimizedAffinity>
-4.41510773

$$$$

 OpenBabel03252506473D

 36 38  0  0  1  0  0  0  0  0999 V2000
   36.8860   26.8840   42.0020 N   0  0  1  0  0  0  0  0  0  0  0  0
   37.5570   27.1240   43.2560 C   0  0  0  0  0  0  0  0  0  0  0  0
   37.5610   28.5600   43.6640 C   0  0  0  0  0  0  0  0  0  0  0  0
   38.4460   29.3220   42.6990 C   0  0  0  0  0  0  0  0  0  0  0  0
   38.2760   28.7910   41.2870 C   0  0  0  0  0  0  0  0  0  0  0  0
   36.9630   28.0850   41.1970 C   0  0  2  0  0  0  0  0  0  0  0  0
   38.6120   26.7840   43.1690 H   0  0  0  0  0  0  0  0  0  0  0  0
   37.0770   26.4810   44.0250 H   0  0  0  0  0  0  0  0  0  0  0  0
   36.5960   29.0260   43.8210 H   0  0  0  0  0  0  0  0  0  0  0  0
   38.1100   28.6010   44.6450 H   0  0  0  0  0  0  0  0  0  0  0  0
   38.1360   30.3760   42.7130 H   0  0  0  0  0  0  0  0  0  0  0  0
   39.5220   29.1990   42.9710 H   0  0  0  0  0  0  0  0  0  0  0  0
   38.3750   29.5290   40.5080 H   0  0  0  0  0  0  0  0  0  0  0  0
   39.0590   27.9780   41.1770 H   0  0  0  0  0  0  0  0  0  0  0  0
   36.8880   27.7100   40.1330 H   0  0  0  0  0  0  0  0  0  0  0  0
   36.7880   24.3940   41.3790 C   0  0  1  0  0  0  0  0  0  0  0  0
   37.8350   24.6330   42.3650 C   0  0  0  0  0  0  0  0  0  0  0  0
   37.4570   25.7230   41.4260 C   0  0  2  0  0  0  0  0  0  0  0  0
   35.7290   24.3650   41.7470 H   0  0  0  0  0  0  0  0  0  0  0  0
   37.5080   24.7070   43.4450 H   0  0  0  0  0  0  0  0  0  0  0  0
   38.8040   24.1300   42.2730 H   0  0  0  0  0  0  0  0  0  0  0  0
   38.1990   25.8850   40.6080 H   0  0  0  0  0  0  0  0  0  0  0  0
   36.1650   23.4200   39.1440 C   0  0  0  0  0  0  0  0  0  0  0  0
   37.0260   23.4900   40.2540 C   0  0  0  0  0  0  0  0  0  0  0  0
   38.1360   22.6430   40.2310 C   0  0  0  0  0  0  0  0  0  0  0  0
   38.3210   21.8170   39.1660 N   0  0  0  0  0  0  0  0  0  0  0  0
   37.4720   21.7860   38.1280 C   0  0  0  0  0  0  0  0  0  0  0  0
   36.3750   22.5950   38.1070 N   0  0  0  0  0  0  0  0  0  0  0  0
   35.2830   24.0820   39.1380 H   0  0  0  0  0  0  0  0  0  0  0  0
   38.8450   22.6520   41.0730 H   0  0  0  0  0  0  0  0  0  0  0  0
   37.6110   21.1160   37.2700 H   0  0  0  0  0  0  0  0  0  0  0  0
   35.8600   28.9720   41.3970 N   0  0  0  0  0  0  0  0  0  0  0  0
   35.4350   28.9090   42.3560 H   0  0  0  0  0  0  0  0  0  0  0  0
   34.9780   29.1850   40.3300 C   0  0  0  0  0  2  0  0  0  0  0  0
   35.3330   28.6190   39.0140 C   0  0  0  0  0  2  0  0  0  0  0  0
   35.0160   29.3700   38.2040 H   0  0  0  0  0  0  0  0  0  0  0  0
  1  2  1  1  0  0  0
  2  3  1  0  0  0  0
  2  8  1  0  0  0  0
  3  9  1  0  0  0  0
  3 10  1  0  0  0  0
  4 11  1  0  0  0  0
  4 12  1  0  0  0  0
  4  3  1  0  0  0  0
  5  4  1  0  0  0  0
  6 15  1  6  0  0  0
  6  5  1  0  0  0  0
  6 32  1  0  0  0  0
  6  1  1  0  0  0  0
  7  2  1  0  0  0  0
 13  5  1  0  0  0  0
 14  5  1  0  0  0  0
 16 18  1  0  0  0  0
 16 19  1  1  0  0  0
 16 17  1  0  0  0  0
 17 20  1  0  0  0  0
 18 22  1  6  0  0  0
 18  1  1  0  0  0  0
 18 17  1  0  0  0  0
 21 17  1  0  0  0  0
 23 24  1  0  0  0  0
 24 16  1  0  0  0  0
 25 24  2  0  0  0  0
 25 30  1  0  0  0  0
 26 25  1  0  0  0  0
 27 26  2  0  0  0  0
 28 27  1  0  0  0  0
 28 23  2  0  0  0  0
 29 23  1  0  0  0  0
 31 27  1  0  0  0  0
 32 33  1  0  0  0  0
 34 32  1  0  0  0  0
 35 34  1  0  0  0  0
 36 35  1  0  0  0  0
M  END
>  <minimizedAffinity>
-4.39531898

$$$$

 OpenBabel03252506473D

 36 38  0  0  1  0  0  0  0  0999 V2000
   37.1320   29.0250   41.7300 N   0  0  1  0  0  0  0  0  0  0  0  0
   36.7440   27.9540   42.6150 C   0  0  0  0  0  0  0  0  0  0  0  0
   37.7510   27.6690   43.6790 C   0  0  0  0  0  0  0  0  0  0  0  0
   38.9810   27.0810   43.0190 C   0  0  0  0  0  0  0  0  0  0  0  0
   39.2500   27.7640   41.6900 C   0  0  0  0  0  0  0  0  0  0  0  0
   38.5770   29.0980   41.6940 C   0  0  2  0  0  0  0  0  0  0  0  0
   36.5980   27.0290   42.0170 H   0  0  0  0  0  0  0  0  0  0  0  0
   35.7530   28.2140   43.0480 H   0  0  0  0  0  0  0  0  0  0  0  0
   37.9760   28.4730   44.3680 H   0  0  0  0  0  0  0  0  0  0  0  0
   37.3250   26.8230   44.2880 H   0  0  0  0  0  0  0  0  0  0  0  0
   39.8400   27.2590   43.6800 H   0  0  0  0  0  0  0  0  0  0  0  0
   38.8340   25.9940   42.8080 H   0  0  0  0  0  0  0  0  0  0  0  0
   40.2910   27.8560   41.4270 H   0  0  0  0  0  0  0  0  0  0  0  0
   38.6890   27.1510   40.9190 H   0  0  0  0  0  0  0  0  0  0  0  0
   38.8060   29.5610   40.6880 H   0  0  0  0  0  0  0  0  0  0  0  0
   35.9130   29.8740   39.6340 C   0  0  1  0  0  0  0  0  0  0  0  0
   35.0290   29.0330   40.4330 C   0  0  0  0  0  0  0  0  0  0  0  0
   36.4980   28.8010   40.4830 C   0  0  2  0  0  0  0  0  0  0  0  0
   36.0820   30.9250   39.9860 H   0  0  0  0  0  0  0  0  0  0  0  0
   34.5260   29.5240   41.3180 H   0  0  0  0  0  0  0  0  0  0  0  0
   34.3680   28.3090   39.9450 H   0  0  0  0  0  0  0  0  0  0  0  0
   36.8270   27.9010   39.9110 H   0  0  0  0  0  0  0  0  0  0  0  0
   34.9120   29.0980   37.4590 C   0  0  0  0  0  0  0  0  0  0  0  0
   35.9300   29.7510   38.1760 C   0  0  0  0  0  0  0  0  0  0  0  0
   36.9760   30.2860   37.4200 C   0  0  0  0  0  0  0  0  0  0  0  0
   36.9550   30.1500   36.0670 N   0  0  0  0  0  0  0  0  0  0  0  0
   35.9600   29.5190   35.4260 C   0  0  0  0  0  0  0  0  0  0  0  0
   34.9180   28.9820   36.1230 N   0  0  0  0  0  0  0  0  0  0  0  0
   34.0740   28.6710   38.0350 H   0  0  0  0  0  0  0  0  0  0  0  0
   37.8020   30.8060   37.9270 H   0  0  0  0  0  0  0  0  0  0  0  0
   35.9420   29.3990   34.3350 H   0  0  0  0  0  0  0  0  0  0  0  0
   39.1240   29.9750   42.6810 N   0  0  0  0  0  0  0  0  0  0  0  0
   38.5480   30.0360   43.5580 H   0  0  0  0  0  0  0  0  0  0  0  0
   39.7450   31.1540   42.2510 C   0  0  0  0  0  2  0  0  0  0  0  0
   39.3340   31.7180   40.9500 C   0  0  0  0  0  2  0  0  0  0  0  0
   40.2680   32.1440   40.4340 H   0  0  0  0  0  0  0  0  0  0  0  0
  1  2  1  1  0  0  0
  2  8  1  0  0  0  0
  2  3  1  0  0  0  0
  3 10  1  0  0  0  0
  3  9  1  0  0  0  0
  4  3  1  0  0  0  0
  4 11  1  0  0  0  0
  5  6  1  0  0  0  0
  5  4  1  0  0  0  0
  6 15  1  6  0  0  0
  6  1  1  0  0  0  0
  6 32  1  0  0  0  0
  7  2  1  0  0  0  0
 12  4  1  0  0  0  0
 13  5  1  0  0  0  0
 14  5  1  0  0  0  0
 16 19  1  1  0  0  0
 16 17  1  0  0  0  0
 16 18  1  0  0  0  0
 17 18  1  0  0  0  0
 17 20  1  0  0  0  0
 18 22  1  6  0  0  0
 18  1  1  0  0  0  0
 21 17  1  0  0  0  0
 23 29  1  0  0  0  0
 23 24  1  0  0  0  0
 24 16  1  0  0  0  0
 25 30  1  0  0  0  0
 25 24  2  0  0  0  0
 26 25  1  0  0  0  0
 27 26  2  0  0  0  0
 27 28  1  0  0  0  0
 28 23  2  0  0  0  0
 31 27  1  0  0  0  0
 32 33  1  0  0  0  0
 34 32  1  0  0  0  0
 35 34  1  0  0  0  0
 36 35  1  0  0  0  0
M  END
>  <minimizedAffinity>
-4.37281036

$$$$

 OpenBabel03252506473D

 36 38  0  0  1  0  0  0  0  0999 V2000
   38.0690   26.6780   42.1030 N   0  0  1  0  0  0  0  0  0  0  0  0
   36.9500   25.7660   42.1200 C   0  0  0  0  0  0  0  0  0  0  0  0
   37.3550   24.3310   42.1750 C   0  0  0  0  0  0  0  0  0  0  0  0
   38.0130   23.9750   40.8580 C   0  0  0  0  0  0  0  0  0  0  0  0
   38.8650   25.1280   40.3590 C   0  0  0  0  0  0  0  0  0  0  0  0
   39.2090   26.0050   41.5190 C   0  0  2  0  0  0  0  0  0  0  0  0
   36.3470   25.9230   41.2010 H   0  0  0  0  0  0  0  0  0  0  0  0
   36.3010   26.0430   42.9790 H   0  0  0  0  0  0  0  0  0  0  0  0
   37.9270   24.0170   43.0400 H   0  0  0  0  0  0  0  0  0  0  0  0
   36.3970   23.7400   42.1830 H   0  0  0  0  0  0  0  0  0  0  0  0
   38.6670   23.1090   41.0270 H   0  0  0  0  0  0  0  0  0  0  0  0
   37.2420   23.7710   40.0750 H   0  0  0  0  0  0  0  0  0  0  0  0
   39.7500   24.8400   39.8160 H   0  0  0  0  0  0  0  0  0  0  0  0
   38.1750   25.7520   39.7100 H   0  0  0  0  0  0  0  0  0  0  0  0
   39.8380   26.8430   41.0960 H   0  0  0  0  0  0  0  0  0  0  0  0
   37.3840   29.1540   42.1240 C   0  0  1  0  0  0  0  0  0  0  0  0
   36.2600   28.3170   41.7190 C   0  0  0  0  0  0  0  0  0  0  0  0
   37.6490   27.8580   41.4420 C   0  0  2  0  0  0  0  0  0  0  0  0
   37.6310   29.1920   43.2180 H   0  0  0  0  0  0  0  0  0  0  0  0
   35.6770   27.8160   42.5470 H   0  0  0  0  0  0  0  0  0  0  0  0
   35.6050   28.6340   40.9000 H   0  0  0  0  0  0  0  0  0  0  0  0
   37.9480   27.9640   40.3720 H   0  0  0  0  0  0  0  0  0  0  0  0
   38.8960   31.0650   41.4990 C   0  0  0  0  0  0  0  0  0  0  0  0
   37.6510   30.4170   41.4350 C   0  0  0  0  0  0  0  0  0  0  0  0
   36.6640   31.0430   40.6710 C   0  0  0  0  0  0  0  0  0  0  0  0
   36.9520   32.2170   40.0460 N   0  0  0  0  0  0  0  0  0  0  0  0
   38.1570   32.7990   40.1350 C   0  0  0  0  0  0  0  0  0  0  0  0
   39.1520   32.2230   40.8700 N   0  0  0  0  0  0  0  0  0  0  0  0
   39.6920   30.5870   42.0950 H   0  0  0  0  0  0  0  0  0  0  0  0
   35.6680   30.5840   40.5850 H   0  0  0  0  0  0  0  0  0  0  0  0
   38.3940   33.7500   39.6400 H   0  0  0  0  0  0  0  0  0  0  0  0
   40.0210   25.3300   42.4820 N   0  0  0  0  0  0  0  0  0  0  0  0
   39.8300   24.2980   42.5490 H   0  0  0  0  0  0  0  0  0  0  0  0
   40.3230   25.9930   43.6780 C   0  0  0  0  0  2  0  0  0  0  0  0
   41.2650   27.1280   43.6220 C   0  0  0  0  0  2  0  0  0  0  0  0
   41.9200   27.0960   44.5650 H   0  0  0  0  0  0  0  0  0  0  0  0
  1  2  1  6  0  0  0
  2  3  1  0  0  0  0
  2  8  1  0  0  0  0
  3 10  1  0  0  0  0
  3  9  1  0  0  0  0
  4 11  1  0  0  0  0
  4  3  1  0  0  0  0
  5  4  1  0  0  0  0
  5  6  1  0  0  0  0
  6 15  1  6  0  0  0
  6  1  1  0  0  0  0
  6 32  1  0  0  0  0
  7  2  1  0  0  0  0
 12  4  1  0  0  0  0
 13  5  1  0  0  0  0
 14  5  1  0  0  0  0
 16 19  1  1  0  0  0
 17 16  1  0  0  0  0
 17 20  1  0  0  0  0
 18 22  1  6  0  0  0
 18 17  1  0  0  0  0
 18  1  1  0  0  0  0
 18 16  1  0  0  0  0
 21 17  1  0  0  0  0
 23 29  1  0  0  0  0
 24 23  1  0  0  0  0
 24 16  1  0  0  0  0
 25 24  2  0  0  0  0
 26 27  2  0  0  0  0
 26 25  1  0  0  0  0
 27 28  1  0  0  0  0
 28 23  2  0  0  0  0
 30 25  1  0  0  0  0
 31 27  1  0  0  0  0
 32 33  1  0  0  0  0
 32 34  1  0  0  0  0
 35 34  1  0  0  0  0
 35 36  1  0  0  0  0
M  END
>  <minimizedAffinity>
-4.34017372

$$$$
