
 OpenBabel03252505283D

 18 18  0  0  0  0  0  0  0  0999 V2000
   38.9890   27.0810   42.2670 C   0  0  0  0  0  0  0  0  0  0  0  0
   38.2600   27.1350   43.4800 C   0  0  0  0  0  0  0  0  0  0  0  0
   37.4750   28.2820   43.6790 C   0  0  0  0  0  0  0  0  0  0  0  0
   37.4490   29.2500   42.7400 N   0  0  0  0  0  0  0  0  0  0  0  0
   38.1670   29.1510   41.5920 C   0  0  0  0  0  0  0  0  0  0  0  0
   38.9240   28.0830   41.3610 N   0  0  0  0  0  0  0  0  0  0  0  0
   39.5810   26.1850   42.1470 H   0  0  0  0  0  0  0  0  0  0  0  0
   38.2840   26.3680   44.2190 H   0  0  0  0  0  0  0  0  0  0  0  0
   36.8810   28.4320   44.5600 H   0  0  0  0  0  0  0  0  0  0  0  0
   38.1700   30.1220   40.6000 O   0  0  0  0  0  0  0  0  0  0  0  0
   36.4270   30.8420   38.8360 O   0  0  0  0  0  0  0  0  0  0  0  0
   36.9220   31.1830   40.2340 P   0  0  1  0  0  0  0  0  0  0  0  0
   35.6680   31.0300   41.3560 O   0  0  0  0  0  0  0  0  0  0  0  0
   34.8850   30.6210   40.9140 H   0  0  0  0  0  0  0  0  0  0  0  0
   37.3920   32.8020   40.2140 O   0  0  0  0  0  0  0  0  0  0  0  0
   38.6630   32.9800   40.7380 C   0  0  0  0  0  2  0  0  0  0  0  0
   39.3820   34.1590   40.0760 C   0  0  0  0  0  2  0  0  0  0  0  0
   39.8850   34.7770   40.8590 H   0  0  0  0  0  0  0  0  0  0  0  0
  1  2  1  0  0  0  0
  2  3  2  0  0  0  0
  2  8  1  0  0  0  0
  3  9  1  0  0  0  0
  4  3  1  0  0  0  0
  5  4  2  0  0  0  0
  6  5  1  0  0  0  0
  6  1  2  0  0  0  0
  7  1  1  0  0  0  0
 10  5  1  0  0  0  0
 12 11  2  6  0  0  0
 12 10  1  0  0  0  0
 12 13  1  0  0  0  0
 14 13  1  0  0  0  0
 15 12  1  0  0  0  0
 15 16  1  0  0  0  0
 17 16  1  0  0  0  0
 17 18  1  0  0  0  0
M  END
>  <minimizedAffinity>
-4.07766962

$$$$

 OpenBabel03252505283D

 18 18  0  0  0  0  0  0  0  0999 V2000
   39.2440   28.9930   42.7590 C   0  0  0  0  0  0  0  0  0  0  0  0
   39.7050   27.7670   43.2970 C   0  0  0  0  0  0  0  0  0  0  0  0
   38.8540   26.6630   43.1390 C   0  0  0  0  0  0  0  0  0  0  0  0
   37.6730   26.8110   42.5030 N   0  0  0  0  0  0  0  0  0  0  0  0
   37.2750   28.0090   42.0050 C   0  0  0  0  0  0  0  0  0  0  0  0
   38.0490   29.0810   42.1310 N   0  0  0  0  0  0  0  0  0  0  0  0
   39.9240   29.8210   42.8980 H   0  0  0  0  0  0  0  0  0  0  0  0
   40.6390   27.6560   43.7980 H   0  0  0  0  0  0  0  0  0  0  0  0
   39.0990   25.6850   43.5060 H   0  0  0  0  0  0  0  0  0  0  0  0
   36.0690   28.2060   41.3440 O   0  0  0  0  0  0  0  0  0  0  0  0
   34.2690   29.2610   39.8230 O   0  0  0  0  0  0  0  0  0  0  0  0
   35.6450   29.5350   40.4120 P   0  0  1  0  0  0  0  0  0  0  0  0
   35.6120   30.9350   41.3580 O   0  0  0  0  0  0  0  0  0  0  0  0
   34.6760   31.2370   41.4580 H   0  0  0  0  0  0  0  0  0  0  0  0
   36.6910   29.8200   39.1200 O   0  0  0  0  0  0  0  0  0  0  0  0
   36.8870   31.1750   38.9000 C   0  0  0  0  0  2  0  0  0  0  0  0
   37.6450   31.4250   37.5920 C   0  0  0  0  0  2  0  0  0  0  0  0
   37.1570   32.2620   37.0330 H   0  0  0  0  0  0  0  0  0  0  0  0
  1  7  1  0  0  0  0
  1  2  1  0  0  0  0
  2  8  1  0  0  0  0
  3  2  2  0  0  0  0
  3  9  1  0  0  0  0
  4  3  1  0  0  0  0
  5  6  1  0  0  0  0
  5  4  2  0  0  0  0
  6  1  2  0  0  0  0
 10  5  1  0  0  0  0
 12 11  2  6  0  0  0
 12 10  1  0  0  0  0
 12 13  1  0  0  0  0
 13 14  1  0  0  0  0
 15 12  1  0  0  0  0
 16 15  1  0  0  0  0
 17 16  1  0  0  0  0
 18 17  1  0  0  0  0
M  END
>  <minimizedAffinity>
-4.00077057

$$$$

 OpenBabel03252505283D

 18 18  0  0  0  0  0  0  0  0999 V2000
   40.3000   32.6350   38.9380 C   0  0  0  0  0  0  0  0  0  0  0  0
   40.0680   33.7690   39.7550 C   0  0  0  0  0  0  0  0  0  0  0  0
   39.0040   33.6700   40.6640 C   0  0  0  0  0  0  0  0  0  0  0  0
   38.2710   32.5380   40.7200 N   0  0  0  0  0  0  0  0  0  0  0  0
   38.5330   31.4780   39.9140 C   0  0  0  0  0  0  0  0  0  0  0  0
   39.5310   31.5260   39.0390 N   0  0  0  0  0  0  0  0  0  0  0  0
   41.1260   32.7470   38.2510 H   0  0  0  0  0  0  0  0  0  0  0  0
   40.6490   34.6610   39.7060 H   0  0  0  0  0  0  0  0  0  0  0  0
   38.7350   34.4660   41.3320 H   0  0  0  0  0  0  0  0  0  0  0  0
   37.8060   30.2940   39.9380 O   0  0  0  0  0  0  0  0  0  0  0  0
   37.3640   29.3840   42.3140 O   0  0  0  0  0  0  0  0  0  0  0  0
   36.6390   29.8600   41.0640 P   0  0  1  0  0  0  0  0  0  0  0  0
   35.6460   31.1780   41.4250 O   0  0  0  0  0  0  0  0  0  0  0  0
   35.8240   31.4740   42.3510 H   0  0  0  0  0  0  0  0  0  0  0  0
   35.6430   28.5980   40.5550 O   0  0  0  0  0  0  0  0  0  0  0  0
   34.5150   29.0610   39.8950 C   0  0  0  0  0  2  0  0  0  0  0  0
   34.6030   28.8040   38.3880 C   0  0  0  0  0  2  0  0  0  0  0  0
   33.6260   28.4050   38.0190 H   0  0  0  0  0  0  0  0  0  0  0  0
  1  6  2  0  0  0  0
  1  2  1  0  0  0  0
  2  3  2  0  0  0  0
  3  4  1  0  0  0  0
  3  9  1  0  0  0  0
  5 10  1  0  0  0  0
  5  4  2  0  0  0  0
  6  5  1  0  0  0  0
  7  1  1  0  0  0  0
  8  2  1  0  0  0  0
 10 12  1  0  0  0  0
 12 13  1  0  0  0  0
 12 11  2  1  0  0  0
 13 14  1  0  0  0  0
 15 12  1  0  0  0  0
 16 15  1  0  0  0  0
 17 16  1  0  0  0  0
 18 17  1  0  0  0  0
M  END
>  <minimizedAffinity>
-3.72489953

$$$$

 OpenBabel03252505283D

 18 18  0  0  0  0  0  0  0  0999 V2000
   38.9510   27.2700   43.6500 C   0  0  0  0  0  0  0  0  0  0  0  0
   39.2500   25.9780   43.1520 C   0  0  0  0  0  0  0  0  0  0  0  0
   38.4220   25.5060   42.1220 C   0  0  0  0  0  0  0  0  0  0  0  0
   37.4110   26.2750   41.6660 N   0  0  0  0  0  0  0  0  0  0  0  0
   37.1650   27.5080   42.1780 C   0  0  0  0  0  0  0  0  0  0  0  0
   37.9240   27.9960   43.1540 N   0  0  0  0  0  0  0  0  0  0  0  0
   39.6080   27.6010   44.4410 H   0  0  0  0  0  0  0  0  0  0  0  0
   40.0490   25.3750   43.5160 H   0  0  0  0  0  0  0  0  0  0  0  0
   38.5530   24.5420   41.6680 H   0  0  0  0  0  0  0  0  0  0  0  0
   36.1370   28.3320   41.7400 O   0  0  0  0  0  0  0  0  0  0  0  0
   35.5790   29.3240   39.4210 O   0  0  0  0  0  0  0  0  0  0  0  0
   36.2840   29.6630   40.7260 P   0  0  1  0  0  0  0  0  0  0  0  0
   35.5840   31.0270   41.4360 O   0  0  0  0  0  0  0  0  0  0  0  0
   34.7660   31.2680   40.9390 H   0  0  0  0  0  0  0  0  0  0  0  0
   37.8800   30.0510   40.3440 O   0  0  0  0  0  0  0  0  0  0  0  0
   38.3010   31.2060   40.9850 C   0  0  0  0  0  2  0  0  0  0  0  0
   39.4750   30.9270   41.9290 C   0  0  0  0  0  2  0  0  0  0  0  0
   40.2530   31.7190   41.8010 H   0  0  0  0  0  0  0  0  0  0  0  0
  1  7  1  0  0  0  0
  2  8  1  0  0  0  0
  2  1  2  0  0  0  0
  3  2  1  0  0  0  0
  4  3  2  0  0  0  0
  4  5  1  0  0  0  0
  5  6  2  0  0  0  0
  6  1  1  0  0  0  0
  9  3  1  0  0  0  0
 10  5  1  0  0  0  0
 12 11  2  6  0  0  0
 12 13  1  0  0  0  0
 12 10  1  0  0  0  0
 14 13  1  0  0  0  0
 15 12  1  0  0  0  0
 15 16  1  0  0  0  0
 16 17  1  0  0  0  0
 18 17  1  0  0  0  0
M  END
>  <minimizedAffinity>
-3.72355819

$$$$

 OpenBabel03252505283D

 18 18  0  0  0  0  0  0  0  0999 V2000
   38.0020   30.7770   38.6590 C   0  0  0  0  0  0  0  0  0  0  0  0
   37.1090   31.7530   39.1650 C   0  0  0  0  0  0  0  0  0  0  0  0
   36.7210   31.6000   40.5050 C   0  0  0  0  0  0  0  0  0  0  0  0
   37.1970   30.5650   41.2290 N   0  0  0  0  0  0  0  0  0  0  0  0
   38.0520   29.6560   40.6970 C   0  0  0  0  0  0  0  0  0  0  0  0
   38.4470   29.7610   39.4330 N   0  0  0  0  0  0  0  0  0  0  0  0
   38.2800   30.9260   37.6260 H   0  0  0  0  0  0  0  0  0  0  0  0
   36.7350   32.5670   38.5890 H   0  0  0  0  0  0  0  0  0  0  0  0
   36.0480   32.2780   40.9950 H   0  0  0  0  0  0  0  0  0  0  0  0
   38.5670   28.5770   41.4050 O   0  0  0  0  0  0  0  0  0  0  0  0
   39.1170   27.4150   43.6450 O   0  0  0  0  0  0  0  0  0  0  0  0
   37.9430   27.9180   42.8170 P   0  0  1  0  0  0  0  0  0  0  0  0
   37.0710   29.0810   43.6780 O   0  0  0  0  0  0  0  0  0  0  0  0
   37.5640   29.3110   44.5030 H   0  0  0  0  0  0  0  0  0  0  0  0
   36.9180   26.6040   42.5570 O   0  0  0  0  0  0  0  0  0  0  0  0
   37.6220   25.4490   42.2520 C   0  0  0  0  0  2  0  0  0  0  0  0
   36.7190   24.4010   41.5950 C   0  0  0  0  0  2  0  0  0  0  0  0
   37.2470   23.9490   40.7200 H   0  0  0  0  0  0  0  0  0  0  0  0
  1  2  2  0  0  0  0
  1  6  1  0  0  0  0
  2  3  1  0  0  0  0
  3  9  1  0  0  0  0
  3  4  2  0  0  0  0
  5  4  1  0  0  0  0
  5 10  1  0  0  0  0
  6  5  2  0  0  0  0
  7  1  1  0  0  0  0
  8  2  1  0  0  0  0
 10 12  1  0  0  0  0
 12 11  2  1  0  0  0
 12 13  1  0  0  0  0
 13 14  1  0  0  0  0
 15 12  1  0  0  0  0
 16 15  1  0  0  0  0
 17 16  1  0  0  0  0
 18 17  1  0  0  0  0
M  END
>  <minimizedAffinity>
-3.68151641

$$$$

 OpenBabel03252505283D

 18 18  0  0  0  0  0  0  0  0999 V2000
   37.9840   24.4090   42.2140 C   0  0  0  0  0  0  0  0  0  0  0  0
   39.2570   24.5520   42.8170 C   0  0  0  0  0  0  0  0  0  0  0  0
   39.5680   25.8290   43.3100 C   0  0  0  0  0  0  0  0  0  0  0  0
   38.6720   26.8310   43.1930 N   0  0  0  0  0  0  0  0  0  0  0  0
   37.4640   26.6430   42.6060 C   0  0  0  0  0  0  0  0  0  0  0  0
   37.1260   25.4520   42.1250 N   0  0  0  0  0  0  0  0  0  0  0  0
   37.7780   23.4140   41.8460 H   0  0  0  0  0  0  0  0  0  0  0  0
   39.9610   23.7570   42.9070 H   0  0  0  0  0  0  0  0  0  0  0  0
   40.5030   26.0550   43.7860 H   0  0  0  0  0  0  0  0  0  0  0  0
   36.5120   27.6450   42.4640 O   0  0  0  0  0  0  0  0  0  0  0  0
   37.0830   28.1290   39.9920 O   0  0  0  0  0  0  0  0  0  0  0  0
   36.4010   28.7480   41.2030 P   0  0  1  0  0  0  0  0  0  0  0  0
   34.7830   29.0900   40.8580 O   0  0  0  0  0  0  0  0  0  0  0  0
   34.5500   28.7020   39.9790 H   0  0  0  0  0  0  0  0  0  0  0  0
   37.1750   30.2140   41.5150 O   0  0  0  0  0  0  0  0  0  0  0  0
   36.5420   31.2780   40.8890 C   0  0  0  0  0  2  0  0  0  0  0  0
   37.5450   32.1650   40.1440 C   0  0  0  0  0  2  0  0  0  0  0  0
   37.1390   32.4200   39.1340 H   0  0  0  0  0  0  0  0  0  0  0  0
  1  2  1  0  0  0  0
  2  8  1  0  0  0  0
  2  3  2  0  0  0  0
  3  9  1  0  0  0  0
  4  3  1  0  0  0  0
  5  4  2  0  0  0  0
  6  1  2  0  0  0  0
  6  5  1  0  0  0  0
  7  1  1  0  0  0  0
 10  5  1  0  0  0  0
 12 11  2  6  0  0  0
 12 15  1  0  0  0  0
 12 10  1  0  0  0  0
 13 12  1  0  0  0  0
 14 13  1  0  0  0  0
 16 15  1  0  0  0  0
 17 16  1  0  0  0  0
 18 17  1  0  0  0  0
M  END
>  <minimizedAffinity>
-3.65734339

$$$$

 OpenBabel03252505283D

 18 18  0  0  0  0  0  0  0  0999 V2000
   35.6980   29.1640   36.5710 C   0  0  0  0  0  0  0  0  0  0  0  0
   34.3590   28.8330   36.8930 C   0  0  0  0  0  0  0  0  0  0  0  0
   34.0520   28.7600   38.2610 C   0  0  0  0  0  0  0  0  0  0  0  0
   35.0120   28.9990   39.1790 N   0  0  0  0  0  0  0  0  0  0  0  0
   36.2820   29.3120   38.8190 C   0  0  0  0  0  0  0  0  0  0  0  0
   36.6180   29.3930   37.5360 N   0  0  0  0  0  0  0  0  0  0  0  0
   35.8990   29.2120   35.5110 H   0  0  0  0  0  0  0  0  0  0  0  0
   33.6050   28.6450   36.1640 H   0  0  0  0  0  0  0  0  0  0  0  0
   33.0710   28.5170   38.6230 H   0  0  0  0  0  0  0  0  0  0  0  0
   37.3000   29.5660   39.7290 O   0  0  0  0  0  0  0  0  0  0  0  0
   38.0830   31.7330   40.8960 O   0  0  0  0  0  0  0  0  0  0  0  0
   37.1950   30.5160   41.1090 P   0  0  1  0  0  0  0  0  0  0  0  0
   35.5960   30.9940   41.3770 O   0  0  0  0  0  0  0  0  0  0  0  0
   35.5160   31.9650   41.2140 H   0  0  0  0  0  0  0  0  0  0  0  0
   37.7350   29.7430   42.5070 O   0  0  0  0  0  0  0  0  0  0  0  0
   37.8850   28.3780   42.3200 C   0  0  0  0  0  2  0  0  0  0  0  0
   36.6050   27.6190   42.6840 C   0  0  0  0  0  2  0  0  0  0  0  0
   36.3890   26.8530   41.9000 H   0  0  0  0  0  0  0  0  0  0  0  0
  1  2  2  0  0  0  0
  1  6  1  0  0  0  0
  2  3  1  0  0  0  0
  3  9  1  0  0  0  0
  3  4  2  0  0  0  0
  5  4  1  0  0  0  0
  5 10  1  0  0  0  0
  6  5  2  0  0  0  0
  7  1  1  0  0  0  0
  8  2  1  0  0  0  0
 10 12  1  0  0  0  0
 12 11  2  6  0  0  0
 12 13  1  0  0  0  0
 12 15  1  0  0  0  0
 14 13  1  0  0  0  0
 16 15  1  0  0  0  0
 16 17  1  0  0  0  0
 18 17  1  0  0  0  0
M  END
>  <minimizedAffinity>
-3.6171267

$$$$

 OpenBabel03252505283D

 18 18  0  0  0  0  0  0  0  0999 V2000
   39.9920   25.6760   43.6800 C   0  0  0  0  0  0  0  0  0  0  0  0
   39.7060   24.4360   43.0580 C   0  0  0  0  0  0  0  0  0  0  0  0
   38.5200   24.3780   42.3100 C   0  0  0  0  0  0  0  0  0  0  0  0
   37.7300   25.4680   42.2180 N   0  0  0  0  0  0  0  0  0  0  0  0
   38.0490   26.6350   42.8330 C   0  0  0  0  0  0  0  0  0  0  0  0
   39.1610   26.7360   43.5520 N   0  0  0  0  0  0  0  0  0  0  0  0
   40.9120   25.6850   44.2460 H   0  0  0  0  0  0  0  0  0  0  0  0
   40.3340   23.5780   43.1350 H   0  0  0  0  0  0  0  0  0  0  0  0
   38.2010   23.4910   41.7960 H   0  0  0  0  0  0  0  0  0  0  0  0
   37.2650   27.7800   42.7650 O   0  0  0  0  0  0  0  0  0  0  0  0
   38.3370   28.9420   40.7230 O   0  0  0  0  0  0  0  0  0  0  0  0
   37.6940   29.2460   42.0680 P   0  0  1  0  0  0  0  0  0  0  0  0
   36.3310   30.2230   41.8620 O   0  0  0  0  0  0  0  0  0  0  0  0
   36.1330   30.3030   40.8970 H   0  0  0  0  0  0  0  0  0  0  0  0
   38.8160   30.1230   42.9700 O   0  0  0  0  0  0  0  0  0  0  0  0
   39.6150   30.9240   42.1670 C   0  0  0  0  0  2  0  0  0  0  0  0
   41.0510   30.9910   42.6960 C   0  0  0  0  0  2  0  0  0  0  0  0
   41.7670   30.8740   41.8460 H   0  0  0  0  0  0  0  0  0  0  0  0
  1  7  1  0  0  0  0
  2  8  1  0  0  0  0
  2  1  2  0  0  0  0
  3  2  1  0  0  0  0
  4  3  2  0  0  0  0
  4  5  1  0  0  0  0
  5  6  2  0  0  0  0
  6  1  1  0  0  0  0
  9  3  1  0  0  0  0
 10  5  1  0  0  0  0
 12 11  2  6  0  0  0
 12 10  1  0  0  0  0
 12 15  1  0  0  0  0
 13 12  1  0  0  0  0
 14 13  1  0  0  0  0
 16 17  1  0  0  0  0
 16 15  1  0  0  0  0
 18 17  1  0  0  0  0
M  END
>  <minimizedAffinity>
-3.61144018

$$$$

 OpenBabel03252505283D

 18 18  0  0  0  0  0  0  0  0999 V2000
   38.7750   24.7690   40.6520 C   0  0  0  0  0  0  0  0  0  0  0  0
   37.8830   24.1640   41.5700 C   0  0  0  0  0  0  0  0  0  0  0  0
   37.0230   25.0320   42.2600 C   0  0  0  0  0  0  0  0  0  0  0  0
   37.0800   26.3600   42.0280 N   0  0  0  0  0  0  0  0  0  0  0  0
   37.9550   26.8910   41.1360 C   0  0  0  0  0  0  0  0  0  0  0  0
   38.7880   26.1080   40.4600 N   0  0  0  0  0  0  0  0  0  0  0  0
   39.4220   24.0710   40.1390 H   0  0  0  0  0  0  0  0  0  0  0  0
   37.8420   23.1140   41.7500 H   0  0  0  0  0  0  0  0  0  0  0  0
   36.3050   24.6870   42.9800 H   0  0  0  0  0  0  0  0  0  0  0  0
   38.0480   28.2510   40.8660 O   0  0  0  0  0  0  0  0  0  0  0  0
   35.6960   29.3130   40.9470 O   0  0  0  0  0  0  0  0  0  0  0  0
   37.0960   29.4690   41.5210 P   0  0  1  0  0  0  0  0  0  0  0  0
   37.0590   29.3490   43.2060 O   0  0  0  0  0  0  0  0  0  0  0  0
   36.1560   29.0680   43.4910 H   0  0  0  0  0  0  0  0  0  0  0  0
   37.6240   31.0230   41.1340 O   0  0  0  0  0  0  0  0  0  0  0  0
   36.8980   31.5720   40.0880 C   0  0  0  0  0  2  0  0  0  0  0  0
   37.3780   32.9880   39.7560 C   0  0  0  0  0  2  0  0  0  0  0  0
   37.4640   33.1030   38.6470 H   0  0  0  0  0  0  0  0  0  0  0  0
  1  2  1  0  0  0  0
  2  8  1  0  0  0  0
  2  3  2  0  0  0  0
  3  9  1  0  0  0  0
  4  3  1  0  0  0  0
  5  4  2  0  0  0  0
  6  1  2  0  0  0  0
  6  5  1  0  0  0  0
  7  1  1  0  0  0  0
 10  5  1  0  0  0  0
 10 12  1  0  0  0  0
 12 11  2  6  0  0  0
 12 13  1  0  0  0  0
 13 14  1  0  0  0  0
 15 12  1  0  0  0  0
 16 15  1  0  0  0  0
 17 16  1  0  0  0  0
 18 17  1  0  0  0  0
M  END
>  <minimizedAffinity>
-3.55426097

$$$$
