
 OpenBabel03252506113D

 30 31  0  0  0  0  0  0  0  0999 V2000
   45.1680   33.3820   41.2050 F   0  0  0  0  0  0  0  0  0  0  0  0
   46.3360   34.0030   41.0650 C   0  0  0  0  0  0  0  0  0  0  0  0
   46.8210   34.7760   42.1050 C   0  0  0  0  0  0  0  0  0  0  0  0
   48.0380   35.4580   42.0400 C   0  0  0  0  0  0  0  0  0  0  0  0
   48.8080   35.3640   40.8800 C   0  0  0  0  0  0  0  0  0  0  0  0
   48.2920   34.5860   39.8690 C   0  0  0  0  0  0  0  0  0  0  0  0
   47.1110   33.9140   39.9110 C   0  0  0  0  0  0  0  0  0  0  0  0
   48.3500   36.0510   42.9090 H   0  0  0  0  0  0  0  0  0  0  0  0
   49.7200   35.9090   40.9020 H   0  0  0  0  0  0  0  0  0  0  0  0
   48.9910   34.5970   39.0410 H   0  0  0  0  0  0  0  0  0  0  0  0
   45.4450   34.0250   45.4240 C   0  0  0  0  0  0  0  0  0  0  0  0
   44.6140   35.1340   45.6510 C   0  0  0  0  0  0  0  0  0  0  0  0
   44.5240   36.1520   44.6510 C   0  0  0  0  0  0  0  0  0  0  0  0
   45.2720   35.9670   43.5210 N   0  0  0  0  0  0  0  0  0  0  0  0
   46.0500   34.9000   43.3450 C   0  0  0  0  0  0  0  0  0  0  0  0
   46.1340   33.9420   44.2850 N   0  0  0  0  0  0  0  0  0  0  0  0
   44.0400   35.2350   46.5620 H   0  0  0  0  0  0  0  0  0  0  0  0
   43.8910   37.0170   44.7980 H   0  0  0  0  0  0  0  0  0  0  0  0
   45.5210   33.0290   46.4240 N   0  0  0  0  0  0  0  0  0  0  0  0
   45.7190   32.0260   46.1690 H   0  0  0  0  0  0  0  0  0  0  0  0
   45.3870   33.2360   47.4460 H   0  0  0  0  0  0  0  0  0  0  0  0
   46.6910   33.1690   38.8440 O   0  0  0  0  0  0  0  0  0  0  0  0
   47.9910   34.6040   37.0350 O   0  0  0  0  0  0  0  0  0  0  0  0
   47.1210   33.4080   37.2340 P   0  0  2  0  0  0  0  0  0  0  0  0
   45.6860   33.5300   36.3110 O   0  0  0  0  0  0  0  0  0  0  0  0
   45.9090   33.8650   35.3890 H   0  0  0  0  0  0  0  0  0  0  0  0
   47.9170   32.0430   36.5830 O   0  0  0  0  0  0  0  0  0  0  0  0
   48.7590   32.5960   35.6070 C   0  0  0  0  0  0  0  0  0  0  0  0
   48.3040   32.3220   34.2150 C   0  0  0  0  0  0  0  0  0  0  0  0
   48.1280   31.2400   34.0410 H   0  0  0  0  0  0  0  0  0  0  0  0
  2  1  1  0  0  0  0
  2  3  1  0  0  0  0
  3 15  1  0  0  0  0
  4  3  2  0  0  0  0
  4  8  1  0  0  0  0
  5  9  1  0  0  0  0
  5  4  1  0  0  0  0
  6  7  1  0  0  0  0
  6  5  2  0  0  0  0
  7  2  2  0  0  0  0
 10  6  1  0  0  0  0
 11 12  1  0  0  0  0
 11 19  1  0  0  0  0
 12 17  1  0  0  0  0
 13 18  1  0  0  0  0
 13 12  2  0  0  0  0
 14 13  1  0  0  0  0
 15 14  2  0  0  0  0
 15 16  1  0  0  0  0
 16 11  2  0  0  0  0
 19 21  1  0  0  0  0
 20 19  1  0  0  0  0
 22  7  1  0  0  0  0
 24 23  2  6  0  0  0
 24 22  1  0  0  0  0
 25 24  1  0  0  0  0
 26 25  1  0  0  0  0
 27 24  1  0  0  0  0
 28 27  1  0  0  0  0
 29 28  1  0  0  0  0
 30 29  1  0  0  0  0
M  END
>  <minimizedAffinity>
-5.8992157

>  <minimizedRMSD>
1.21163654

$$$$
