
 OpenBabel03242513253D

 24 25  0  0  0  0  0  0  0  0999 V2000
   46.3170   33.9950   41.0120 C   0  0  0  0  0  0  0  0  0  0  0  0
   46.8370   34.7870   42.0240 C   0  0  0  0  0  0  0  0  0  0  0  0
   48.0250   35.4100   41.7880 C   0  0  0  0  0  0  0  0  0  0  0  0
   48.6960   35.2610   40.5840 C   0  0  0  0  0  0  0  0  0  0  0  0
   48.1800   34.4830   39.5980 C   0  0  0  0  0  0  0  0  0  0  0  0
   46.9670   33.8260   39.7930 C   0  0  0  0  0  0  0  0  0  0  0  0
   48.4560   36.0360   42.5620 H   0  0  0  0  0  0  0  0  0  0  0  0
   49.6420   35.7550   40.3910 H   0  0  0  0  0  0  0  0  0  0  0  0
   48.6960   34.3680   38.6670 H   0  0  0  0  0  0  0  0  0  0  0  0
   44.5190   36.0410   44.7200 C   0  0  0  0  0  0  0  0  0  0  0  0
   45.2370   35.9500   43.5240 C   0  0  0  0  0  0  0  0  0  0  0  0
   46.0920   34.8980   43.2470 C   0  0  0  0  0  0  0  0  0  0  0  0
   46.1590   33.9840   44.2390 N   0  0  0  0  0  0  0  0  0  0  0  0
   45.4810   34.0480   45.3960 C   0  0  0  0  0  0  0  0  0  0  0  0
   44.6550   35.0850   45.6390 N   0  0  0  0  0  0  0  0  0  0  0  0
   43.8560   36.8930   44.8900 H   0  0  0  0  0  0  0  0  0  0  0  0
   45.1100   36.7370   42.7950 H   0  0  0  0  0  0  0  0  0  0  0  0
   45.6520   33.2180   46.0960 H   0  0  0  0  0  0  0  0  0  0  0  0
   45.1040   33.3420   41.2180 O   0  0  0  0  0  0  0  0  0  0  0  0
   45.0280   32.3450   41.2720 H   0  0  0  0  0  0  0  0  0  0  0  0
   46.3750   33.0200   38.8470 O   0  0  0  0  0  0  0  0  0  0  0  0
   46.6260   33.1000   37.4680 C   0  0  0  0  0  0  0  0  0  0  0  0
   45.4280   33.0940   36.5910 C   0  0  0  0  0  0  0  0  0  0  0  0
   44.4850   32.9640   37.1620 H   0  0  0  0  0  0  0  0  0  0  0  0
  1 19  1  0  0  0  0
  1  2  1  0  0  0  0
  2 12  1  0  0  0  0
  3  2  2  0  0  0  0
  3  7  1  0  0  0  0
  4  3  1  0  0  0  0
  5  6  1  0  0  0  0
  5  4  2  0  0  0  0
  6  1  2  0  0  0  0
  8  4  1  0  0  0  0
  9  5  1  0  0  0  0
 10 16  1  0  0  0  0
 10 15  1  0  0  0  0
 11 10  2  0  0  0  0
 12 11  1  0  0  0  0
 12 13  2  0  0  0  0
 13 14  1  0  0  0  0
 14 15  2  0  0  0  0
 14 18  1  0  0  0  0
 17 11  1  0  0  0  0
 19 20  1  0  0  0  0
 21  6  1  0  0  0  0
 22 21  1  0  0  0  0
 23 24  1  0  0  0  0
 23 22  1  0  0  0  0
M  END
>  <minimizedAffinity>
-5.0394206

>  <minimizedRMSD>
0.267502934

$$$$
