
 OpenBabel03252505483D

 16 16  0  0  0  0  0  0  0  0999 V2000
   45.1330   34.7960   44.9690 C   0  0  0  0  0  0  0  0  0  0  0  0
   45.9970   34.5830   43.9080 C   0  0  0  0  0  0  0  0  0  0  0  0
   46.9370   33.5590   44.0440 C   0  0  0  0  0  0  0  0  0  0  0  0
   46.9640   32.8350   45.1800 N   0  0  0  0  0  0  0  0  0  0  0  0
   46.1070   33.0700   46.1900 C   0  0  0  0  0  0  0  0  0  0  0  0
   45.1960   34.0370   46.0990 N   0  0  0  0  0  0  0  0  0  0  0  0
   44.3680   35.5760   44.9430 H   0  0  0  0  0  0  0  0  0  0  0  0
   47.5880   33.4200   43.2120 H   0  0  0  0  0  0  0  0  0  0  0  0
   45.8450   35.4630   42.7230 C   0  0  0  0  0  0  0  0  0  0  0  0
   47.0930   35.6230   42.1940 F   0  0  0  0  0  0  0  0  0  0  0  0
   45.3340   36.6720   43.1500 F   0  0  0  0  0  0  0  0  0  0  0  0
   44.9550   34.8470   41.8520 F   0  0  0  0  0  0  0  0  0  0  0  0
   46.1570   32.3070   47.3500 O   0  0  0  0  0  0  0  0  0  0  0  0
   45.0540   31.9710   48.1330 C   0  0  0  0  0  0  0  0  0  0  0  0
   45.3710   31.3570   49.4570 C   0  0  0  0  0  0  0  0  0  0  0  0
   45.2990   30.2570   49.4070 H   0  0  0  0  0  0  0  0  0  0  0  0
  1  6  1  0  0  0  0
  2  3  1  0  0  0  0
  2  1  2  0  0  0  0
  3  4  2  0  0  0  0
  4  5  1  0  0  0  0
  5 13  1  0  0  0  0
  6  5  2  0  0  0  0
  7  1  1  0  0  0  0
  8  3  1  0  0  0  0
  9 11  1  0  0  0  0
  9  2  1  0  0  0  0
 10  9  1  0  0  0  0
 12  9  1  0  0  0  0
 13 14  1  0  0  0  0
 14 15  1  0  0  0  0
 16 15  1  0  0  0  0
M  END
>  <minimizedAffinity>
-4.29740191

>  <minimizedRMSD>
1.52661431

$$$$
