
     RDKit          3D

 25 25  0  0  0  0  0  0  0  0999 V2000
   47.1601   33.9687   42.4790 C   0  0  0  0  0  0  0  0  0  0  0  0
   45.2892   34.2286   45.6968 C   0  0  0  0  0  0  0  0  0  0  0  0
   46.1597   33.7478   44.7020 C   0  0  0  0  0  0  0  0  0  0  0  0
   46.2584   34.4551   43.5255 C   0  0  0  0  0  0  0  0  0  0  0  0
   45.5106   35.5886   43.3740 N   0  0  0  0  0  0  0  0  0  0  0  0
   44.6720   36.0380   44.3515 C   0  0  0  0  0  0  0  0  0  0  0  0
   44.5790   35.3510   45.4886 N   0  0  0  0  0  0  0  0  0  0  0  0
   48.3257   33.4226   43.0150 O   0  0  0  0  0  0  0  0  0  0  0  0
   50.6630   33.1102   41.8992 O   0  0  0  0  0  0  0  0  0  0  0  0
   49.6271   34.1620   42.2265 P   0  0  2  0  0  0  0  0  0  0  0  0
   50.2101   35.3549   43.2502 O   0  0  0  0  0  0  0  0  0  0  0  0
   49.0661   34.7986   40.7786 O   0  0  0  0  0  0  0  0  0  0  0  0
   47.3276   34.7029   41.6824 H   0  0  0  0  0  0  0  0  0  0  0  0
   46.6345   33.1002   41.9922 H   0  0  0  0  0  0  0  0  0  0  0  0
   45.2551   33.6298   46.5980 H   0  0  0  0  0  0  0  0  0  0  0  0
   46.7498   32.8472   44.8302 H   0  0  0  0  0  0  0  0  0  0  0  0
   44.1018   36.9504   44.1687 H   0  0  0  0  0  0  0  0  0  0  0  0
   51.0926   35.1736   43.6408 H   0  0  0  0  0  0  0  0  0  0  0  0
   49.2674   36.1867   40.7501 C   0  0  0  0  0  0  0  0  0  0  0  0
   49.2133   36.7880   42.1227 C   0  0  0  0  0  0  0  0  0  0  0  0
   49.6745   36.0752   42.8660 H   0  0  0  0  0  0  0  0  0  0  0  0
   50.2853   36.4164   40.3270 H   0  0  0  0  0  0  0  0  0  0  0  0
   48.5363   36.6583   40.0853 H   0  0  0  0  0  0  0  0  0  0  0  0
   49.8367   37.7037   42.1235 H   0  0  0  0  0  0  0  0  0  0  0  0
   48.1923   37.0951   42.4218 H   0  0  0  0  0  0  0  0  0  0  0  0
  1  8  1  0
  1  4  1  0
  3  2  2  0
  4  3  1  0
  5  4  2  0
  5  6  1  0
  6  7  2  0
  7  2  1  0
  9 10  2  0
 10  8  1  1
 10 11  1  0
 12 10  1  0
  1 13  1  0
  1 14  1  0
  2 15  1  0
  3 16  1  0
  6 17  1  0
 11 18  1  0
 19 20  1  0
 20 21  1  0
 19 22  1  0
 19 23  1  0
 20 24  1  0
 20 25  1  0
 12 19  1  0
M  ISO  7  13   8  14   8  15  14  16  14  17  14  18   3  21   8
M  END
>  <DihAtoms>  (1) 
9,11,18,19

>  <DihDeg>  (1) 
179.99745081911212

$$$$
