
 OpenBabel03252509313D

 21 21  0  0  0  0  0  0  0  0999 V2000
   46.9330   34.1840   42.4570 C   0  0  0  0  0  0  0  0  0  0  0  0
   47.0230   34.9850   41.7150 H   0  0  0  0  0  0  0  0  0  0  0  0
   46.3930   33.3420   41.9380 H   0  0  0  0  0  0  0  0  0  0  0  0
   45.3170   34.1320   45.8200 C   0  0  0  0  0  0  0  0  0  0  0  0
   46.1220   33.7600   44.7280 C   0  0  0  0  0  0  0  0  0  0  0  0
   46.1010   34.5550   43.6050 C   0  0  0  0  0  0  0  0  0  0  0  0
   45.3040   35.6650   43.5970 N   0  0  0  0  0  0  0  0  0  0  0  0
   44.5310   36.0070   44.6680 C   0  0  0  0  0  0  0  0  0  0  0  0
   44.5530   35.2360   45.7530 N   0  0  0  0  0  0  0  0  0  0  0  0
   45.3760   33.4680   46.6730 H   0  0  0  0  0  0  0  0  0  0  0  0
   46.7510   32.8780   44.7410 H   0  0  0  0  0  0  0  0  0  0  0  0
   43.9160   36.9050   44.5990 H   0  0  0  0  0  0  0  0  0  0  0  0
   48.1480   33.6300   42.8590 O   0  0  0  0  0  0  0  0  0  0  0  0
   50.6000   33.3750   42.0040 O   0  0  0  0  0  0  0  0  0  0  0  0
   49.2110   33.7650   41.5500 P   0  0  2  0  0  0  0  0  0  0  0  0
   49.1230   35.3480   41.0050 O   0  0  0  0  0  0  0  0  0  0  0  0
   49.9240   35.8910   41.1720 H   0  0  0  0  0  0  0  0  0  0  0  0
   48.7290   32.6710   40.3730 O   0  0  0  0  0  0  0  0  0  0  0  0
   48.4430   33.3420   39.1750 C   0  0  0  0  0  2  0  0  0  0  0  0
   46.9800   33.3100   38.8510 C   0  0  0  0  0  2  0  0  0  0  0  0
   46.3800   33.3880   39.8030 H   0  0  0  0  0  0  0  0  0  0  0  0
  1 13  1  0  0  0  0
  1  6  1  0  0  0  0
  2  1  1  0  0  0  0
  3  1  1  0  0  0  0
  4 10  1  0  0  0  0
  5 11  1  0  0  0  0
  5  4  2  0  0  0  0
  6  5  1  0  0  0  0
  7  6  2  0  0  0  0
  7  8  1  0  0  0  0
  8  9  2  0  0  0  0
  9  4  1  0  0  0  0
 12  8  1  0  0  0  0
 15 14  2  1  0  0  0
 15 13  1  0  0  0  0
 16 17  1  0  0  0  0
 16 15  1  0  0  0  0
 18 15  1  0  0  0  0
 19 18  1  0  0  0  0
 20 19  1  0  0  0  0
 20 21  1  0  0  0  0
M  END
>  <minimizedAffinity>
-3.64092708

>  <minimizedRMSD>
1.6738652

$$$$
