
 OpenBabel03242520313D

 35 36  0  0  0  0  0  0  0  0999 V2000
   37.4990   31.9630   38.0710 C   0  0  0  0  0  0  0  0  0  0  0  0
   37.2500   30.6220   38.4540 C   0  0  0  0  0  0  0  0  0  0  0  0
   37.0150   30.3660   39.8030 C   0  0  0  0  0  0  0  0  0  0  0  0
   37.0350   31.3970   40.6750 N   0  0  0  0  0  0  0  0  0  0  0  0
   37.2740   32.6660   40.2960 C   0  0  0  0  0  0  0  0  0  0  0  0
   37.5040   32.9460   39.0000 N   0  0  0  0  0  0  0  0  0  0  0  0
   37.6860   32.2050   37.0340 H   0  0  0  0  0  0  0  0  0  0  0  0
   37.2860   33.4780   41.0170 H   0  0  0  0  0  0  0  0  0  0  0  0
   37.2660   29.6700   37.4080 N   0  0  0  0  0  0  0  0  0  0  0  0
   38.4480   28.9250   37.0310 C   0  0  0  0  0  0  0  0  0  0  0  0
   38.0890   27.9140   35.9700 C   0  0  0  0  0  0  0  0  0  0  0  0
   37.3770   28.4780   34.8630 N   0  0  0  0  0  0  0  0  0  0  0  0
   36.2680   29.3030   35.2040 C   0  0  0  0  0  0  0  0  0  0  0  0
   36.0220   29.4300   36.6750 C   0  0  0  0  0  0  0  0  0  0  0  0
   38.8030   28.3490   37.9110 H   0  0  0  0  0  0  0  0  0  0  0  0
   39.2490   29.5870   36.6970 H   0  0  0  0  0  0  0  0  0  0  0  0
   37.4730   27.1270   36.4660 H   0  0  0  0  0  0  0  0  0  0  0  0
   38.9990   27.4290   35.5880 H   0  0  0  0  0  0  0  0  0  0  0  0
   38.0090   28.8480   34.1350 H   0  0  0  0  0  0  0  0  0  0  0  0
   35.3220   28.9740   34.7340 H   0  0  0  0  0  0  0  0  0  0  0  0
   36.4740   30.3300   34.7990 H   0  0  0  0  0  0  0  0  0  0  0  0
   35.6700   28.4290   37.0300 H   0  0  0  0  0  0  0  0  0  0  0  0
   35.2600   30.1690   36.8870 H   0  0  0  0  0  0  0  0  0  0  0  0
   36.7750   29.0470   40.1380 O   0  0  0  0  0  0  0  0  0  0  0  0
   39.2460   28.0490   40.1680 O   0  0  0  0  0  0  0  0  0  0  0  0
   37.9850   28.1780   41.0340 P   0  0  1  0  0  0  0  0  0  0  0  0
   38.2770   29.0160   42.4340 O   0  0  0  0  0  0  0  0  0  0  0  0
   39.6280   29.2300   42.6730 C   0  0  0  0  0  2  0  0  0  0  0  0
   39.8360   30.7490   42.6700 C   0  0  0  0  0  2  0  0  0  0  0  0
   39.1800   31.1500   43.4690 H   0  0  0  0  0  0  0  0  0  0  0  0
   37.3570   26.6380   41.2870 O   0  0  0  0  0  0  0  0  0  0  0  0
   37.1220   26.3680   42.6080 C   0  0  0  0  0  0  0  0  0  0  0  0
   36.2090   27.2340   43.1900 F   0  0  0  0  0  0  0  0  0  0  0  0
   38.2260   26.3090   43.4040 F   0  0  0  0  0  0  0  0  0  0  0  0
   36.5440   25.0980   42.6430 F   0  0  0  0  0  0  0  0  0  0  0  0
  1  2  2  0  0  0  0
  1  6  1  0  0  0  0
  2  3  1  0  0  0  0
  3 24  1  0  0  0  0
  3  4  2  0  0  0  0
  5  4  1  0  0  0  0
  5  8  1  0  0  0  0
  6  5  2  0  0  0  0
  7  1  1  0  0  0  0
  9  2  1  0  0  0  0
 10  9  1  0  0  0  0
 10 15  1  0  0  0  0
 11 17  1  0  0  0  0
 11 10  1  0  0  0  0
 12 13  1  0  0  0  0
 12 11  1  0  0  0  0
 13 14  1  0  0  0  0
 14 23  1  0  0  0  0
 14 22  1  0  0  0  0
 14  9  1  0  0  0  0
 16 10  1  0  0  0  0
 18 11  1  0  0  0  0
 19 12  1  0  0  0  0
 20 13  1  0  0  0  0
 21 13  1  0  0  0  0
 24 26  1  0  0  0  0
 26 25  2  6  0  0  0
 26 31  1  0  0  0  0
 26 27  1  0  0  0  0
 27 28  1  0  0  0  0
 29 28  1  0  0  0  0
 29 30  1  0  0  0  0
 31 32  1  0  0  0  0
 32 35  1  0  0  0  0
 32 33  1  0  0  0  0
 32 34  1  0  0  0  0
M  END
>  <minimizedAffinity>
-4.81036043

$$$$

 OpenBabel03242520313D

 35 36  0  0  0  0  0  0  0  0999 V2000
   37.3300   30.6770   36.9900 C   0  0  0  0  0  0  0  0  0  0  0  0
   37.3490   30.7060   38.4070 C   0  0  0  0  0  0  0  0  0  0  0  0
   36.6410   29.7160   39.0850 C   0  0  0  0  0  0  0  0  0  0  0  0
   35.9750   28.7850   38.3690 N   0  0  0  0  0  0  0  0  0  0  0  0
   35.9660   28.7720   37.0230 C   0  0  0  0  0  0  0  0  0  0  0  0
   36.6410   29.7130   36.3390 N   0  0  0  0  0  0  0  0  0  0  0  0
   37.8670   31.4280   36.4260 H   0  0  0  0  0  0  0  0  0  0  0  0
   35.4230   28.0110   36.4690 H   0  0  0  0  0  0  0  0  0  0  0  0
   38.0980   31.7530   38.9920 N   0  0  0  0  0  0  0  0  0  0  0  0
   37.4990   32.9650   39.5100 C   0  0  0  0  0  0  0  0  0  0  0  0
   38.5600   33.8100   40.1700 C   0  0  0  0  0  0  0  0  0  0  0  0
   39.7060   34.0340   39.3410 N   0  0  0  0  0  0  0  0  0  0  0  0
   40.2590   32.8730   38.7310 C   0  0  0  0  0  0  0  0  0  0  0  0
   39.5510   31.6000   39.0750 C   0  0  0  0  0  0  0  0  0  0  0  0
   36.7710   32.6920   40.3030 H   0  0  0  0  0  0  0  0  0  0  0  0
   36.9750   33.5190   38.7290 H   0  0  0  0  0  0  0  0  0  0  0  0
   38.8570   33.2850   41.1080 H   0  0  0  0  0  0  0  0  0  0  0  0
   38.1410   34.7860   40.4560 H   0  0  0  0  0  0  0  0  0  0  0  0
   39.5950   34.8580   38.7280 H   0  0  0  0  0  0  0  0  0  0  0  0
   41.3320   32.7320   38.9610 H   0  0  0  0  0  0  0  0  0  0  0  0
   40.1960   33.0130   37.6190 H   0  0  0  0  0  0  0  0  0  0  0  0
   39.7550   31.3990   40.1560 H   0  0  0  0  0  0  0  0  0  0  0  0
   39.9200   30.7700   38.4850 H   0  0  0  0  0  0  0  0  0  0  0  0
   36.6830   29.7760   40.4650 O   0  0  0  0  0  0  0  0  0  0  0  0
   38.9100   28.3130   40.4790 O   0  0  0  0  0  0  0  0  0  0  0  0
   37.6670   28.6290   41.3230 P   0  0  1  0  0  0  0  0  0  0  0  0
   38.0640   29.2980   42.7860 O   0  0  0  0  0  0  0  0  0  0  0  0
   39.4210   29.5560   42.9210 C   0  0  0  0  0  2  0  0  0  0  0  0
   39.6240   31.0310   42.5550 C   0  0  0  0  0  2  0  0  0  0  0  0
   38.9950   31.6120   43.2600 H   0  0  0  0  0  0  0  0  0  0  0  0
   36.7430   27.2290   41.4490 O   0  0  0  0  0  0  0  0  0  0  0  0
   36.9720   26.5410   42.6100 C   0  0  0  0  0  0  0  0  0  0  0  0
   36.2250   27.0090   43.6800 F   0  0  0  0  0  0  0  0  0  0  0  0
   38.2740   26.4570   43.0000 F   0  0  0  0  0  0  0  0  0  0  0  0
   36.5480   25.2320   42.3700 F   0  0  0  0  0  0  0  0  0  0  0  0
  1  2  1  0  0  0  0
  2  9  1  0  0  0  0
  2  3  2  0  0  0  0
  3 24  1  0  0  0  0
  4  3  1  0  0  0  0
  5  4  2  0  0  0  0
  6  1  2  0  0  0  0
  6  5  1  0  0  0  0
  7  1  1  0  0  0  0
  8  5  1  0  0  0  0
  9 14  1  0  0  0  0
  9 10  1  0  0  0  0
 10 11  1  0  0  0  0
 10 15  1  0  0  0  0
 11 18  1  0  0  0  0
 11 17  1  0  0  0  0
 12 11  1  0  0  0  0
 13 20  1  0  0  0  0
 13 14  1  0  0  0  0
 13 12  1  0  0  0  0
 14 22  1  0  0  0  0
 16 10  1  0  0  0  0
 19 12  1  0  0  0  0
 21 13  1  0  0  0  0
 23 14  1  0  0  0  0
 24 26  1  0  0  0  0
 26 25  2  6  0  0  0
 26 31  1  0  0  0  0
 26 27  1  0  0  0  0
 27 28  1  0  0  0  0
 29 28  1  0  0  0  0
 29 30  1  0  0  0  0
 31 32  1  0  0  0  0
 32 34  1  0  0  0  0
 32 33  1  0  0  0  0
 35 32  1  0  0  0  0
M  END
>  <minimizedAffinity>
-4.76436186

$$$$

 OpenBabel03242520313D

 35 36  0  0  0  0  0  0  0  0999 V2000
   37.7010   31.2200   37.2940 C   0  0  0  0  0  0  0  0  0  0  0  0
   38.0350   31.1690   38.6700 C   0  0  0  0  0  0  0  0  0  0  0  0
   37.5620   30.0900   39.4130 C   0  0  0  0  0  0  0  0  0  0  0  0
   36.8140   29.1510   38.7930 N   0  0  0  0  0  0  0  0  0  0  0  0
   36.5050   29.2140   37.4850 C   0  0  0  0  0  0  0  0  0  0  0  0
   36.9480   30.2440   36.7410 N   0  0  0  0  0  0  0  0  0  0  0  0
   38.0490   32.0420   36.6820 H   0  0  0  0  0  0  0  0  0  0  0  0
   35.9020   28.4460   37.0090 H   0  0  0  0  0  0  0  0  0  0  0  0
   38.8270   32.2370   39.1520 N   0  0  0  0  0  0  0  0  0  0  0  0
   40.2740   32.2140   39.1580 C   0  0  0  0  0  0  0  0  0  0  0  0
   40.7980   33.5510   39.6210 C   0  0  0  0  0  0  0  0  0  0  0  0
   40.2170   33.9960   40.8510 N   0  0  0  0  0  0  0  0  0  0  0  0
   38.7960   33.9340   40.9160 C   0  0  0  0  0  0  0  0  0  0  0  0
   38.1430   33.4230   39.6700 C   0  0  0  0  0  0  0  0  0  0  0  0
   40.6330   32.0750   38.1170 H   0  0  0  0  0  0  0  0  0  0  0  0
   40.6590   31.3990   39.7740 H   0  0  0  0  0  0  0  0  0  0  0  0
   40.5870   34.2830   38.8050 H   0  0  0  0  0  0  0  0  0  0  0  0
   41.8900   33.5040   39.7480 H   0  0  0  0  0  0  0  0  0  0  0  0
   40.7230   33.6410   41.6780 H   0  0  0  0  0  0  0  0  0  0  0  0
   38.3310   34.9070   41.1640 H   0  0  0  0  0  0  0  0  0  0  0  0
   38.5270   33.2390   41.7560 H   0  0  0  0  0  0  0  0  0  0  0  0
   38.2940   34.2060   38.8840 H   0  0  0  0  0  0  0  0  0  0  0  0
   37.0820   33.2670   39.8140 H   0  0  0  0  0  0  0  0  0  0  0  0
   37.9070   30.0740   40.7500 O   0  0  0  0  0  0  0  0  0  0  0  0
   39.8310   28.3180   40.1900 O   0  0  0  0  0  0  0  0  0  0  0  0
   38.9290   28.7960   41.3360 P   0  0  1  0  0  0  0  0  0  0  0  0
   39.8070   29.3940   42.6090 O   0  0  0  0  0  0  0  0  0  0  0  0
   39.9000   30.7790   42.6070 C   0  0  0  0  0  2  0  0  0  0  0  0
   41.3920   31.1160   42.7290 C   0  0  0  0  0  2  0  0  0  0  0  0
   41.8860   30.6410   41.8580 H   0  0  0  0  0  0  0  0  0  0  0  0
   37.8990   27.5360   41.7590 O   0  0  0  0  0  0  0  0  0  0  0  0
   36.8410   27.9450   42.5250 C   0  0  0  0  0  0  0  0  0  0  0  0
   35.7410   28.3340   41.7750 F   0  0  0  0  0  0  0  0  0  0  0  0
   37.1110   28.9250   43.4310 F   0  0  0  0  0  0  0  0  0  0  0  0
   36.4450   26.8270   43.2620 F   0  0  0  0  0  0  0  0  0  0  0  0
  1  2  1  0  0  0  0
  2  9  1  0  0  0  0
  2  3  2  0  0  0  0
  3 24  1  0  0  0  0
  4  3  1  0  0  0  0
  5  4  2  0  0  0  0
  6  1  2  0  0  0  0
  6  5  1  0  0  0  0
  7  1  1  0  0  0  0
  8  5  1  0  0  0  0
  9 10  1  0  0  0  0
  9 14  1  0  0  0  0
 10 11  1  0  0  0  0
 10 16  1  0  0  0  0
 11 18  1  0  0  0  0
 11 12  1  0  0  0  0
 12 13  1  0  0  0  0
 12 19  1  0  0  0  0
 13 20  1  0  0  0  0
 13 21  1  0  0  0  0
 14 23  1  0  0  0  0
 14 13  1  0  0  0  0
 15 10  1  0  0  0  0
 17 11  1  0  0  0  0
 22 14  1  0  0  0  0
 24 26  1  0  0  0  0
 26 25  2  6  0  0  0
 26 31  1  0  0  0  0
 26 27  1  0  0  0  0
 28 27  1  0  0  0  0
 28 29  1  0  0  0  0
 30 29  1  0  0  0  0
 31 32  1  0  0  0  0
 32 35  1  0  0  0  0
 32 34  1  0  0  0  0
 33 32  1  0  0  0  0
M  END
>  <minimizedAffinity>
-4.66456223

$$$$

 OpenBabel03242520313D

 35 36  0  0  0  0  0  0  0  0999 V2000
   37.9960   28.3190   37.0900 C   0  0  0  0  0  0  0  0  0  0  0  0
   38.1700   28.4110   38.4930 C   0  0  0  0  0  0  0  0  0  0  0  0
   39.1550   27.6190   39.0780 C   0  0  0  0  0  0  0  0  0  0  0  0
   39.8920   26.8070   38.2890 N   0  0  0  0  0  0  0  0  0  0  0  0
   39.7140   26.7300   36.9570 C   0  0  0  0  0  0  0  0  0  0  0  0
   38.7710   27.4830   36.3630 N   0  0  0  0  0  0  0  0  0  0  0  0
   37.2420   28.9180   36.5970 H   0  0  0  0  0  0  0  0  0  0  0  0
   40.3200   26.0690   36.3430 H   0  0  0  0  0  0  0  0  0  0  0  0
   37.3110   29.3130   39.1620 N   0  0  0  0  0  0  0  0  0  0  0  0
   37.7620   30.5660   39.7310 C   0  0  0  0  0  0  0  0  0  0  0  0
   36.5760   31.3360   40.2580 C   0  0  0  0  0  0  0  0  0  0  0  0
   35.7390   30.5670   41.1290 N   0  0  0  0  0  0  0  0  0  0  0  0
   35.3620   29.2840   40.6420 C   0  0  0  0  0  0  0  0  0  0  0  0
   35.8970   28.9580   39.2830 C   0  0  0  0  0  0  0  0  0  0  0  0
   38.2090   31.1840   38.9240 H   0  0  0  0  0  0  0  0  0  0  0  0
   38.5120   30.4070   40.5080 H   0  0  0  0  0  0  0  0  0  0  0  0
   35.9960   31.6860   39.3710 H   0  0  0  0  0  0  0  0  0  0  0  0
   36.9180   32.2290   40.8020 H   0  0  0  0  0  0  0  0  0  0  0  0
   36.0540   30.6040   42.1120 H   0  0  0  0  0  0  0  0  0  0  0  0
   34.2660   29.1350   40.6150 H   0  0  0  0  0  0  0  0  0  0  0  0
   35.7600   28.5200   41.3610 H   0  0  0  0  0  0  0  0  0  0  0  0
   35.3710   29.6320   38.5600 H   0  0  0  0  0  0  0  0  0  0  0  0
   35.6980   27.9280   39.0150 H   0  0  0  0  0  0  0  0  0  0  0  0
   39.2960   27.7360   40.4470 O   0  0  0  0  0  0  0  0  0  0  0  0
   40.2320   25.3580   41.2030 O   0  0  0  0  0  0  0  0  0  0  0  0
   39.0630   26.3260   41.4370 P   0  0  1  0  0  0  0  0  0  0  0  0
   38.9760   26.8240   43.0150 O   0  0  0  0  0  0  0  0  0  0  0  0
   38.8420   28.2000   43.1480 C   0  0  0  0  0  2  0  0  0  0  0  0
   37.4250   28.4510   43.6790 C   0  0  0  0  0  2  0  0  0  0  0  0
   37.3570   27.9070   44.6430 H   0  0  0  0  0  0  0  0  0  0  0  0
   37.6530   25.5970   40.8810 O   0  0  0  0  0  0  0  0  0  0  0  0
   37.0760   24.7730   41.8090 C   0  0  0  0  0  0  0  0  0  0  0  0
   36.3510   25.4580   42.7730 F   0  0  0  0  0  0  0  0  0  0  0  0
   37.9200   23.9100   42.4400 F   0  0  0  0  0  0  0  0  0  0  0  0
   36.1600   23.9860   41.1080 F   0  0  0  0  0  0  0  0  0  0  0  0
  1  2  1  0  0  0  0
  2  3  2  0  0  0  0
  2  9  1  0  0  0  0
  3 24  1  0  0  0  0
  4  3  1  0  0  0  0
  5  4  2  0  0  0  0
  6  5  1  0  0  0  0
  6  1  2  0  0  0  0
  7  1  1  0  0  0  0
  8  5  1  0  0  0  0
  9 14  1  0  0  0  0
  9 10  1  0  0  0  0
 10 11  1  0  0  0  0
 10 16  1  0  0  0  0
 11 18  1  0  0  0  0
 11 12  1  0  0  0  0
 12 19  1  0  0  0  0
 13 12  1  0  0  0  0
 13 21  1  0  0  0  0
 14 13  1  0  0  0  0
 15 10  1  0  0  0  0
 17 11  1  0  0  0  0
 20 13  1  0  0  0  0
 22 14  1  0  0  0  0
 23 14  1  0  0  0  0
 24 26  1  0  0  0  0
 26 25  2  6  0  0  0
 26 27  1  0  0  0  0
 27 28  1  0  0  0  0
 28 29  1  0  0  0  0
 29 30  1  0  0  0  0
 31 26  1  0  0  0  0
 31 32  1  0  0  0  0
 32 34  1  0  0  0  0
 32 33  1  0  0  0  0
 35 32  1  0  0  0  0
M  END
>  <minimizedAffinity>
-4.64043808

$$$$

 OpenBabel03242520313D

 35 36  0  0  0  0  0  0  0  0999 V2000
   41.6950   31.1400   39.2940 C   0  0  0  0  0  0  0  0  0  0  0  0
   40.3610   30.8360   39.6620 C   0  0  0  0  0  0  0  0  0  0  0  0
   40.0620   29.5130   39.9810 C   0  0  0  0  0  0  0  0  0  0  0  0
   41.0470   28.5910   39.9250 N   0  0  0  0  0  0  0  0  0  0  0  0
   42.3090   28.8960   39.5730 C   0  0  0  0  0  0  0  0  0  0  0  0
   42.6300   30.1640   39.2610 N   0  0  0  0  0  0  0  0  0  0  0  0
   41.9690   32.1550   39.0390 H   0  0  0  0  0  0  0  0  0  0  0  0
   43.0850   28.1360   39.5360 H   0  0  0  0  0  0  0  0  0  0  0  0
   39.4590   31.9250   39.6660 N   0  0  0  0  0  0  0  0  0  0  0  0
   39.2840   32.8070   40.8010 C   0  0  0  0  0  0  0  0  0  0  0  0
   38.3450   33.9270   40.4290 C   0  0  0  0  0  0  0  0  0  0  0  0
   37.1170   33.4730   39.8490 N   0  0  0  0  0  0  0  0  0  0  0  0
   37.2520   32.5240   38.7960 C   0  0  0  0  0  0  0  0  0  0  0  0
   38.6670   32.1700   38.4610 C   0  0  0  0  0  0  0  0  0  0  0  0
   40.2610   33.2770   41.0420 H   0  0  0  0  0  0  0  0  0  0  0  0
   38.9300   32.2640   41.6800 H   0  0  0  0  0  0  0  0  0  0  0  0
   38.8920   34.5860   39.7140 H   0  0  0  0  0  0  0  0  0  0  0  0
   38.1070   34.5310   41.3180 H   0  0  0  0  0  0  0  0  0  0  0  0
   36.3990   33.2610   40.5600 H   0  0  0  0  0  0  0  0  0  0  0  0
   36.7550   32.8420   37.8590 H   0  0  0  0  0  0  0  0  0  0  0  0
   36.7290   31.5850   39.1200 H   0  0  0  0  0  0  0  0  0  0  0  0
   39.1250   33.0800   37.9970 H   0  0  0  0  0  0  0  0  0  0  0  0
   38.7140   31.3510   37.7540 H   0  0  0  0  0  0  0  0  0  0  0  0
   38.7510   29.2550   40.3340 O   0  0  0  0  0  0  0  0  0  0  0  0
   39.2970   29.9190   42.8570 O   0  0  0  0  0  0  0  0  0  0  0  0
   38.3650   29.0350   42.0150 P   0  0  1  0  0  0  0  0  0  0  0  0
   36.7710   29.4380   42.2240 O   0  0  0  0  0  0  0  0  0  0  0  0
   36.2500   30.1760   41.1700 C   0  0  0  0  0  2  0  0  0  0  0  0
   35.2200   29.2770   40.4740 C   0  0  0  0  0  2  0  0  0  0  0  0
   34.4660   29.0190   41.2450 H   0  0  0  0  0  0  0  0  0  0  0  0
   38.7060   27.4260   42.3620 O   0  0  0  0  0  0  0  0  0  0  0  0
   37.6430   26.5940   42.1360 C   0  0  0  0  0  0  0  0  0  0  0  0
   37.1510   26.6740   40.8430 F   0  0  0  0  0  0  0  0  0  0  0  0
   36.6000   26.7200   43.0020 F   0  0  0  0  0  0  0  0  0  0  0  0
   38.1310   25.2950   42.2960 F   0  0  0  0  0  0  0  0  0  0  0  0
  1  2  1  0  0  0  0
  2  9  1  0  0  0  0
  2  3  2  0  0  0  0
  3 24  1  0  0  0  0
  4  3  1  0  0  0  0
  5  4  2  0  0  0  0
  6  1  2  0  0  0  0
  6  5  1  0  0  0  0
  7  1  1  0  0  0  0
  8  5  1  0  0  0  0
  9 10  1  0  0  0  0
 10 15  1  0  0  0  0
 10 16  1  0  0  0  0
 11 10  1  0  0  0  0
 11 18  1  0  0  0  0
 12 11  1  0  0  0  0
 12 19  1  0  0  0  0
 13 21  1  0  0  0  0
 13 12  1  0  0  0  0
 14 13  1  0  0  0  0
 14  9  1  0  0  0  0
 17 11  1  0  0  0  0
 20 13  1  0  0  0  0
 22 14  1  0  0  0  0
 23 14  1  0  0  0  0
 24 26  1  0  0  0  0
 26 27  1  0  0  0  0
 26 31  1  0  0  0  0
 26 25  2  1  0  0  0
 28 27  1  0  0  0  0
 29 28  1  0  0  0  0
 29 30  1  0  0  0  0
 32 35  1  0  0  0  0
 32 31  1  0  0  0  0
 32 34  1  0  0  0  0
 33 32  1  0  0  0  0
M  END
>  <minimizedAffinity>
-4.61235666

$$$$

 OpenBabel03242520313D

 35 36  0  0  0  0  0  0  0  0999 V2000
   36.6710   29.3720   36.4000 C   0  0  0  0  0  0  0  0  0  0  0  0
   37.2030   29.3290   37.7130 C   0  0  0  0  0  0  0  0  0  0  0  0
   37.9080   28.1870   38.0890 C   0  0  0  0  0  0  0  0  0  0  0  0
   38.0510   27.1860   37.1940 N   0  0  0  0  0  0  0  0  0  0  0  0
   37.5400   27.2420   35.9510 C   0  0  0  0  0  0  0  0  0  0  0  0
   36.8540   28.3310   35.5580 N   0  0  0  0  0  0  0  0  0  0  0  0
   36.1170   30.2400   36.0690 H   0  0  0  0  0  0  0  0  0  0  0  0
   37.6680   26.4230   35.2490 H   0  0  0  0  0  0  0  0  0  0  0  0
   36.9570   30.4670   38.5150 N   0  0  0  0  0  0  0  0  0  0  0  0
   37.6960   31.7050   38.3850 C   0  0  0  0  0  0  0  0  0  0  0  0
   37.1020   32.7450   39.3020 C   0  0  0  0  0  0  0  0  0  0  0  0
   36.9510   32.2950   40.6530 N   0  0  0  0  0  0  0  0  0  0  0  0
   36.3200   31.0290   40.8100 C   0  0  0  0  0  0  0  0  0  0  0  0
   35.9030   30.3830   39.5260 C   0  0  0  0  0  0  0  0  0  0  0  0
   37.5730   32.0860   37.3500 H   0  0  0  0  0  0  0  0  0  0  0  0
   38.7600   31.5590   38.5820 H   0  0  0  0  0  0  0  0  0  0  0  0
   36.1100   33.0270   38.8750 H   0  0  0  0  0  0  0  0  0  0  0  0
   37.7300   33.6480   39.3040 H   0  0  0  0  0  0  0  0  0  0  0  0
   37.8020   32.4490   41.2180 H   0  0  0  0  0  0  0  0  0  0  0  0
   35.4320   31.0660   41.4700 H   0  0  0  0  0  0  0  0  0  0  0  0
   37.0530   30.3460   41.3170 H   0  0  0  0  0  0  0  0  0  0  0  0
   35.0630   30.9980   39.1140 H   0  0  0  0  0  0  0  0  0  0  0  0
   35.5530   29.3710   39.6860 H   0  0  0  0  0  0  0  0  0  0  0  0
   38.4120   28.1810   39.3750 O   0  0  0  0  0  0  0  0  0  0  0  0
   36.7250   26.1660   39.8180 O   0  0  0  0  0  0  0  0  0  0  0  0
   37.8370   26.9810   40.4930 P   0  0  1  0  0  0  0  0  0  0  0  0
   39.1270   26.0320   40.9230 O   0  0  0  0  0  0  0  0  0  0  0  0
   40.3530   26.5840   40.5760 C   0  0  0  0  0  2  0  0  0  0  0  0
   40.9060   27.2510   41.8420 C   0  0  0  0  0  2  0  0  0  0  0  0
   40.9850   26.4480   42.6020 H   0  0  0  0  0  0  0  0  0  0  0  0
   37.1650   27.8290   41.7800 O   0  0  0  0  0  0  0  0  0  0  0  0
   36.9430   27.0450   42.8790 C   0  0  0  0  0  0  0  0  0  0  0  0
   36.7830   25.7020   42.5710 F   0  0  0  0  0  0  0  0  0  0  0  0
   35.9080   27.4280   43.6790 F   0  0  0  0  0  0  0  0  0  0  0  0
   38.0970   27.1400   43.6580 F   0  0  0  0  0  0  0  0  0  0  0  0
  1  2  1  0  0  0  0
  2  3  2  0  0  0  0
  2  9  1  0  0  0  0
  3 24  1  0  0  0  0
  4  3  1  0  0  0  0
  5  4  2  0  0  0  0
  6  5  1  0  0  0  0
  6  1  2  0  0  0  0
  7  1  1  0  0  0  0
  8  5  1  0  0  0  0
  9 14  1  0  0  0  0
 10  9  1  0  0  0  0
 10 16  1  0  0  0  0
 10 11  1  0  0  0  0
 11 18  1  0  0  0  0
 11 12  1  0  0  0  0
 12 13  1  0  0  0  0
 12 19  1  0  0  0  0
 13 21  1  0  0  0  0
 13 20  1  0  0  0  0
 14 23  1  0  0  0  0
 14 13  1  0  0  0  0
 15 10  1  0  0  0  0
 17 11  1  0  0  0  0
 22 14  1  0  0  0  0
 24 26  1  0  0  0  0
 26 25  2  6  0  0  0
 26 27  1  0  0  0  0
 26 31  1  0  0  0  0
 28 27  1  0  0  0  0
 28 29  1  0  0  0  0
 29 30  1  0  0  0  0
 31 32  1  0  0  0  0
 32 35  1  0  0  0  0
 32 34  1  0  0  0  0
 33 32  1  0  0  0  0
M  END
>  <minimizedAffinity>
-4.5484848

$$$$

 OpenBabel03242520313D

 35 36  0  0  0  0  0  0  0  0999 V2000
   41.1740   30.8700   41.1750 C   0  0  0  0  0  0  0  0  0  0  0  0
   39.7580   30.9080   41.1890 C   0  0  0  0  0  0  0  0  0  0  0  0
   39.0900   29.9270   41.9190 C   0  0  0  0  0  0  0  0  0  0  0  0
   39.8160   28.9940   42.5730 N   0  0  0  0  0  0  0  0  0  0  0  0
   41.1610   28.9720   42.5500 C   0  0  0  0  0  0  0  0  0  0  0  0
   41.8350   29.9060   41.8550 N   0  0  0  0  0  0  0  0  0  0  0  0
   41.7310   31.6140   40.6210 H   0  0  0  0  0  0  0  0  0  0  0  0
   41.7230   28.2120   43.0850 H   0  0  0  0  0  0  0  0  0  0  0  0
   39.1620   31.9540   40.4470 N   0  0  0  0  0  0  0  0  0  0  0  0
   38.8330   33.2440   41.0180 C   0  0  0  0  0  0  0  0  0  0  0  0
   38.3280   34.1610   39.9310 C   0  0  0  0  0  0  0  0  0  0  0  0
   37.2810   33.5870   39.1410 N   0  0  0  0  0  0  0  0  0  0  0  0
   37.5320   32.2750   38.6500 C   0  0  0  0  0  0  0  0  0  0  0  0
   38.8670   31.7170   39.0340 C   0  0  0  0  0  0  0  0  0  0  0  0
   39.7600   33.7040   41.4180 H   0  0  0  0  0  0  0  0  0  0  0  0
   38.1080   33.1500   41.8290 H   0  0  0  0  0  0  0  0  0  0  0  0
   39.2040   34.4150   39.2880 H   0  0  0  0  0  0  0  0  0  0  0  0
   37.9590   35.0990   40.3710 H   0  0  0  0  0  0  0  0  0  0  0  0
   36.3460   33.7460   39.5500 H   0  0  0  0  0  0  0  0  0  0  0  0
   37.4410   32.1990   37.5500 H   0  0  0  0  0  0  0  0  0  0  0  0
   36.7420   31.5990   39.0740 H   0  0  0  0  0  0  0  0  0  0  0  0
   39.6360   32.3110   38.4780 H   0  0  0  0  0  0  0  0  0  0  0  0
   38.9560   30.6750   38.7550 H   0  0  0  0  0  0  0  0  0  0  0  0
   37.7100   29.9960   41.9080 O   0  0  0  0  0  0  0  0  0  0  0  0
   37.6360   28.5760   39.6540 O   0  0  0  0  0  0  0  0  0  0  0  0
   36.8230   28.8720   40.9220 P   0  0  1  0  0  0  0  0  0  0  0  0
   36.5600   27.5070   41.8240 O   0  0  0  0  0  0  0  0  0  0  0  0
   37.1880   26.3810   41.3090 C   0  0  0  0  0  2  0  0  0  0  0  0
   38.0630   25.8160   42.4350 C   0  0  0  0  0  2  0  0  0  0  0  0
   37.3760   25.5890   43.2740 H   0  0  0  0  0  0  0  0  0  0  0  0
   35.4110   29.6660   40.4710 O   0  0  0  0  0  0  0  0  0  0  0  0
   34.7870   29.0810   39.4030 C   0  0  0  0  0  0  0  0  0  0  0  0
   33.4040   29.1670   39.4610 F   0  0  0  0  0  0  0  0  0  0  0  0
   35.1260   27.7840   39.1580 F   0  0  0  0  0  0  0  0  0  0  0  0
   35.1840   29.8090   38.2800 F   0  0  0  0  0  0  0  0  0  0  0  0
  1  2  2  0  0  0  0
  1  6  1  0  0  0  0
  2  3  1  0  0  0  0
  3  4  2  0  0  0  0
  5  4  1  0  0  0  0
  5  8  1  0  0  0  0
  6  5  2  0  0  0  0
  7  1  1  0  0  0  0
  9 10  1  0  0  0  0
  9  2  1  0  0  0  0
 10 15  1  0  0  0  0
 10 16  1  0  0  0  0
 11 18  1  0  0  0  0
 11 10  1  0  0  0  0
 12 19  1  0  0  0  0
 12 11  1  0  0  0  0
 13 14  1  0  0  0  0
 13 21  1  0  0  0  0
 13 12  1  0  0  0  0
 14  9  1  0  0  0  0
 17 11  1  0  0  0  0
 20 13  1  0  0  0  0
 22 14  1  0  0  0  0
 23 14  1  0  0  0  0
 24  3  1  0  0  0  0
 26 25  2  6  0  0  0
 26 27  1  0  0  0  0
 26 24  1  0  0  0  0
 28 27  1  0  0  0  0
 28 29  1  0  0  0  0
 29 30  1  0  0  0  0
 31 26  1  0  0  0  0
 32 33  1  0  0  0  0
 32 31  1  0  0  0  0
 34 32  1  0  0  0  0
 35 32  1  0  0  0  0
M  END
>  <minimizedAffinity>
-4.51934338

$$$$

 OpenBabel03242520313D

 35 36  0  0  0  0  0  0  0  0999 V2000
   39.1550   30.1340   42.5240 C   0  0  0  0  0  0  0  0  0  0  0  0
   38.4960   30.7270   41.4200 C   0  0  0  0  0  0  0  0  0  0  0  0
   37.2390   30.2370   41.0740 C   0  0  0  0  0  0  0  0  0  0  0  0
   36.7110   29.2280   41.8000 N   0  0  0  0  0  0  0  0  0  0  0  0
   37.3500   28.6740   42.8470 C   0  0  0  0  0  0  0  0  0  0  0  0
   38.5650   29.1260   43.2060 N   0  0  0  0  0  0  0  0  0  0  0  0
   40.1330   30.4860   42.8260 H   0  0  0  0  0  0  0  0  0  0  0  0
   36.9040   27.8630   43.4170 H   0  0  0  0  0  0  0  0  0  0  0  0
   39.1960   31.7730   40.7740 N   0  0  0  0  0  0  0  0  0  0  0  0
   38.8310   33.1680   40.8970 C   0  0  0  0  0  0  0  0  0  0  0  0
   39.8520   34.0210   40.1860 C   0  0  0  0  0  0  0  0  0  0  0  0
   40.1080   33.6010   38.8410 N   0  0  0  0  0  0  0  0  0  0  0  0
   40.3690   32.2120   38.6720 C   0  0  0  0  0  0  0  0  0  0  0  0
   40.3470   31.4210   39.9410 C   0  0  0  0  0  0  0  0  0  0  0  0
   38.8690   33.4540   41.9690 H   0  0  0  0  0  0  0  0  0  0  0  0
   37.8230   33.3530   40.5190 H   0  0  0  0  0  0  0  0  0  0  0  0
   40.7890   33.9790   40.7900 H   0  0  0  0  0  0  0  0  0  0  0  0
   39.5190   35.0700   40.1660 H   0  0  0  0  0  0  0  0  0  0  0  0
   39.4520   34.0240   38.1640 H   0  0  0  0  0  0  0  0  0  0  0  0
   41.3340   32.0110   38.1680 H   0  0  0  0  0  0  0  0  0  0  0  0
   39.5750   31.8000   37.9940 H   0  0  0  0  0  0  0  0  0  0  0  0
   41.2390   31.7420   40.5370 H   0  0  0  0  0  0  0  0  0  0  0  0
   40.4160   30.3580   39.7480 H   0  0  0  0  0  0  0  0  0  0  0  0
   36.6280   30.8400   39.9920 O   0  0  0  0  0  0  0  0  0  0  0  0
   37.3460   31.2540   37.4590 O   0  0  0  0  0  0  0  0  0  0  0  0
   36.8560   30.1540   38.4110 P   0  0  1  0  0  0  0  0  0  0  0  0
   37.9530   28.9200   38.5500 O   0  0  0  0  0  0  0  0  0  0  0  0
   38.8680   28.8800   37.5060 C   0  0  0  0  0  2  0  0  0  0  0  0
   39.6290   27.5560   37.6420 C   0  0  0  0  0  2  0  0  0  0  0  0
   38.8650   26.7550   37.5860 H   0  0  0  0  0  0  0  0  0  0  0  0
   35.3350   29.6510   37.9000 O   0  0  0  0  0  0  0  0  0  0  0  0
   34.7640   28.7350   38.7430 C   0  0  0  0  0  0  0  0  0  0  0  0
   34.1110   29.3160   39.8200 F   0  0  0  0  0  0  0  0  0  0  0  0
   35.5980   27.7680   39.2170 F   0  0  0  0  0  0  0  0  0  0  0  0
   33.7870   28.0790   37.9920 F   0  0  0  0  0  0  0  0  0  0  0  0
  1  7  1  0  0  0  0
  1  6  1  0  0  0  0
  2  1  2  0  0  0  0
  3  2  1  0  0  0  0
  3  4  2  0  0  0  0
  4  5  1  0  0  0  0
  5  6  2  0  0  0  0
  5  8  1  0  0  0  0
  9 10  1  0  0  0  0
  9  2  1  0  0  0  0
 10 15  1  0  0  0  0
 11 17  1  0  0  0  0
 11 10  1  0  0  0  0
 12 11  1  0  0  0  0
 13 12  1  0  0  0  0
 13 14  1  0  0  0  0
 14 22  1  0  0  0  0
 14  9  1  0  0  0  0
 16 10  1  0  0  0  0
 18 11  1  0  0  0  0
 19 12  1  0  0  0  0
 20 13  1  0  0  0  0
 21 13  1  0  0  0  0
 23 14  1  0  0  0  0
 24  3  1  0  0  0  0
 26 25  2  6  0  0  0
 26 27  1  0  0  0  0
 26 24  1  0  0  0  0
 28 29  1  0  0  0  0
 28 27  1  0  0  0  0
 30 29  1  0  0  0  0
 31 26  1  0  0  0  0
 31 32  1  0  0  0  0
 32 34  1  0  0  0  0
 32 33  1  0  0  0  0
 35 32  1  0  0  0  0
M  END
>  <minimizedAffinity>
-4.51497507

$$$$

 OpenBabel03242520313D

 35 36  0  0  0  0  0  0  0  0999 V2000
   37.9640   28.9110   37.0030 C   0  0  0  0  0  0  0  0  0  0  0  0
   38.4070   29.3560   38.2720 C   0  0  0  0  0  0  0  0  0  0  0  0
   39.4250   28.6350   38.8940 C   0  0  0  0  0  0  0  0  0  0  0  0
   39.9360   27.5550   38.2640 N   0  0  0  0  0  0  0  0  0  0  0  0
   39.5030   27.1440   37.0580 C   0  0  0  0  0  0  0  0  0  0  0  0
   38.5230   27.8200   36.4320 N   0  0  0  0  0  0  0  0  0  0  0  0
   37.1760   29.4430   36.4860 H   0  0  0  0  0  0  0  0  0  0  0  0
   39.9310   26.2720   36.5710 H   0  0  0  0  0  0  0  0  0  0  0  0
   37.7600   30.5050   38.7830 N   0  0  0  0  0  0  0  0  0  0  0  0
   38.2580   31.8500   38.5880 C   0  0  0  0  0  0  0  0  0  0  0  0
   37.2700   32.8410   39.1520 C   0  0  0  0  0  0  0  0  0  0  0  0
   36.8800   32.5520   40.5000 N   0  0  0  0  0  0  0  0  0  0  0  0
   36.4830   31.2080   40.7480 C   0  0  0  0  0  0  0  0  0  0  0  0
   36.5250   30.3190   39.5450 C   0  0  0  0  0  0  0  0  0  0  0  0
   38.3230   32.0520   37.4980 H   0  0  0  0  0  0  0  0  0  0  0  0
   39.2480   31.9790   39.0290 H   0  0  0  0  0  0  0  0  0  0  0  0
   36.3790   32.8300   38.4800 H   0  0  0  0  0  0  0  0  0  0  0  0
   37.6940   33.8550   39.1220 H   0  0  0  0  0  0  0  0  0  0  0  0
   37.5210   32.9700   41.1940 H   0  0  0  0  0  0  0  0  0  0  0  0
   35.4700   31.1300   41.1870 H   0  0  0  0  0  0  0  0  0  0  0  0
   37.1850   30.7850   41.5150 H   0  0  0  0  0  0  0  0  0  0  0  0
   35.7110   30.6660   38.8590 H   0  0  0  0  0  0  0  0  0  0  0  0
   36.3460   29.2850   39.8100 H   0  0  0  0  0  0  0  0  0  0  0  0
   39.8310   29.0990   40.1300 O   0  0  0  0  0  0  0  0  0  0  0  0
   40.1390   26.7610   41.3690 O   0  0  0  0  0  0  0  0  0  0  0  0
   39.4880   28.1400   41.5380 P   0  0  1  0  0  0  0  0  0  0  0  0
   40.0810   28.9500   42.8580 O   0  0  0  0  0  0  0  0  0  0  0  0
   41.4070   29.3350   42.7130 C   0  0  0  0  0  2  0  0  0  0  0  0
   41.4400   30.8590   42.8790 C   0  0  0  0  0  2  0  0  0  0  0  0
   41.0300   31.0670   43.8870 H   0  0  0  0  0  0  0  0  0  0  0  0
   37.8180   27.9370   41.5660 O   0  0  0  0  0  0  0  0  0  0  0  0
   37.4010   27.0800   42.5480 C   0  0  0  0  0  0  0  0  0  0  0  0
   38.2010   27.1120   43.6790 F   0  0  0  0  0  0  0  0  0  0  0  0
   37.2440   25.7800   42.1700 F   0  0  0  0  0  0  0  0  0  0  0  0
   36.1390   27.5300   42.9400 F   0  0  0  0  0  0  0  0  0  0  0  0
  1  2  1  0  0  0  0
  2  9  1  0  0  0  0
  2  3  2  0  0  0  0
  3 24  1  0  0  0  0
  4  3  1  0  0  0  0
  5  4  2  0  0  0  0
  6  1  2  0  0  0  0
  6  5  1  0  0  0  0
  7  1  1  0  0  0  0
  8  5  1  0  0  0  0
  9 14  1  0  0  0  0
 10  9  1  0  0  0  0
 10 16  1  0  0  0  0
 10 11  1  0  0  0  0
 11 12  1  0  0  0  0
 12 13  1  0  0  0  0
 12 19  1  0  0  0  0
 13 20  1  0  0  0  0
 13 21  1  0  0  0  0
 14 23  1  0  0  0  0
 14 13  1  0  0  0  0
 15 10  1  0  0  0  0
 17 11  1  0  0  0  0
 18 11  1  0  0  0  0
 22 14  1  0  0  0  0
 24 26  1  0  0  0  0
 26 25  2  6  0  0  0
 26 31  1  0  0  0  0
 26 27  1  0  0  0  0
 28 27  1  0  0  0  0
 28 29  1  0  0  0  0
 29 30  1  0  0  0  0
 31 32  1  0  0  0  0
 32 35  1  0  0  0  0
 32 33  1  0  0  0  0
 34 32  1  0  0  0  0
M  END
>  <minimizedAffinity>
-4.50842619

$$$$
