
 OpenBabel03242510173D

 21 22  0  0  1  0  0  0  0  0999 V2000
   46.8270   32.7580   43.1540 C   0  0  1  0  0  0  0  0  0  0  0  0
   47.3580   32.7440   41.8140 C   0  0  0  0  0  0  0  0  0  0  0  0
   48.3180   33.0190   42.9290 C   0  0  1  0  0  0  0  0  0  0  0  0
   46.6780   31.8530   43.8100 H   0  0  0  0  0  0  0  0  0  0  0  0
   47.0680   33.5930   41.1370 H   0  0  0  0  0  0  0  0  0  0  0  0
   47.4140   31.7930   41.2640 H   0  0  0  0  0  0  0  0  0  0  0  0
   49.0250   32.1640   43.1090 H   0  0  0  0  0  0  0  0  0  0  0  0
   45.6900   34.9770   42.8160 C   0  0  0  0  0  0  0  0  0  0  0  0
   46.0130   33.9080   43.6560 C   0  0  0  0  0  0  0  0  0  0  0  0
   45.5820   33.9570   44.9890 C   0  0  0  0  0  0  0  0  0  0  0  0
   44.8690   35.0480   45.3970 N   0  0  0  0  0  0  0  0  0  0  0  0
   44.5760   36.0550   44.5700 C   0  0  0  0  0  0  0  0  0  0  0  0
   44.9860   36.0340   43.2590 N   0  0  0  0  0  0  0  0  0  0  0  0
   45.9980   34.9870   41.7800 H   0  0  0  0  0  0  0  0  0  0  0  0
   45.8330   33.1270   45.6340 H   0  0  0  0  0  0  0  0  0  0  0  0
   44.0120   36.7940   45.1210 H   0  0  0  0  0  0  0  0  0  0  0  0
   48.7980   34.2620   43.2810 N   0  0  0  0  0  0  0  0  0  0  0  0
   48.1410   34.9120   43.7740 H   0  0  0  0  0  0  0  0  0  0  0  0
   49.7330   34.9960   42.5490 C   0  0  0  0  0  0  0  0  0  0  0  0
   49.1000   35.9650   41.5490 C   0  0  0  0  0  0  0  0  0  0  0  0
   48.1910   36.4500   42.0030 H   0  0  0  0  0  0  0  0  0  0  0  0
  1  9  1  0  0  0  0
  1  4  1  1  0  0  0
  2  3  1  0  0  0  0
  2  1  1  0  0  0  0
  3  7  1  1  0  0  0
  3  1  1  0  0  0  0
  3 17  1  0  0  0  0
  5  2  1  0  0  0  0
  6  2  1  0  0  0  0
  8 13  2  0  0  0  0
  8  9  1  0  0  0  0
  9 10  2  0  0  0  0
 10 11  1  0  0  0  0
 10 15  1  0  0  0  0
 12 16  1  0  0  0  0
 12 11  2  0  0  0  0
 13 12  1  0  0  0  0
 14  8  1  0  0  0  0
 17 18  1  0  0  0  0
 19 17  1  0  0  0  0
 20 21  1  0  0  0  0
 20 19  1  0  0  0  0
M  END
>  <minimizedAffinity>
-4.16236067

>  <minimizedRMSD>
1.97759318

$$$$
