
 OpenBabel03252509313D

 21 21  0  0  0  0  0  0  0  0999 V2000
   46.4950   34.2810   42.9700 C   0  0  0  0  0  0  0  0  0  0  0  0
   45.6050   34.9100   42.8470 H   0  0  0  0  0  0  0  0  0  0  0  0
   46.4660   33.5370   42.1250 H   0  0  0  0  0  0  0  0  0  0  0  0
   47.1380   31.5630   45.4440 C   0  0  0  0  0  0  0  0  0  0  0  0
   47.1670   32.3060   44.2500 C   0  0  0  0  0  0  0  0  0  0  0  0
   46.4760   33.4940   44.2060 C   0  0  0  0  0  0  0  0  0  0  0  0
   45.7940   33.9020   45.3170 N   0  0  0  0  0  0  0  0  0  0  0  0
   45.7790   33.1660   46.4660 C   0  0  0  0  0  0  0  0  0  0  0  0
   46.4490   32.0160   46.5050 N   0  0  0  0  0  0  0  0  0  0  0  0
   47.7000   30.6380   45.4170 H   0  0  0  0  0  0  0  0  0  0  0  0
   47.7110   31.9760   43.3710 H   0  0  0  0  0  0  0  0  0  0  0  0
   45.2150   33.5460   47.3190 H   0  0  0  0  0  0  0  0  0  0  0  0
   47.7040   34.9560   42.8070 O   0  0  0  0  0  0  0  0  0  0  0  0
   48.9830   35.9070   40.7410 O   0  0  0  0  0  0  0  0  0  0  0  0
   48.2040   34.6990   41.2120 P   0  0  2  0  0  0  0  0  0  0  0  0
   46.8240   34.4190   40.3020 O   0  0  0  0  0  0  0  0  0  0  0  0
   46.5890   35.1340   39.6700 H   0  0  0  0  0  0  0  0  0  0  0  0
   49.2420   33.3800   41.1960 O   0  0  0  0  0  0  0  0  0  0  0  0
   48.6620   32.3150   40.4910 C   0  0  0  0  0  2  0  0  0  0  0  0
   49.3290   32.0900   39.1670 C   0  0  0  0  0  2  0  0  0  0  0  0
   50.4370   32.2830   39.2650 H   0  0  0  0  0  0  0  0  0  0  0  0
  1  6  1  0  0  0  0
  2  1  1  0  0  0  0
  3  1  1  0  0  0  0
  4  9  1  0  0  0  0
  5  4  2  0  0  0  0
  6  5  1  0  0  0  0
  6  7  2  0  0  0  0
  7  8  1  0  0  0  0
  8  9  2  0  0  0  0
  8 12  1  0  0  0  0
 10  4  1  0  0  0  0
 11  5  1  0  0  0  0
 13  1  1  0  0  0  0
 15 14  2  6  0  0  0
 15 13  1  0  0  0  0
 16 15  1  0  0  0  0
 17 16  1  0  0  0  0
 18 15  1  0  0  0  0
 19 18  1  0  0  0  0
 20 21  1  0  0  0  0
 20 19  1  0  0  0  0
M  END
>  <minimizedAffinity>
-3.19574356

>  <minimizedRMSD>
3.07958722

$$$$
