
 OpenBabel03252504573D

 31 32  0  0  1  0  0  0  0  0999 V2000
   47.8550   34.0050   41.9650 N   0  0  0  0  0  0  0  0  0  0  0  0
   47.8510   35.0910   41.0560 C   0  0  0  0  0  0  0  0  0  0  0  0
   49.0800   35.8170   41.4220 C   0  0  0  0  0  0  0  0  0  0  0  0
   49.7850   35.0640   42.5310 C   0  0  0  0  0  0  0  0  0  0  0  0
   49.1460   33.6700   42.4060 C   0  0  2  0  0  0  0  0  0  0  0  0
   47.2720   35.4950   40.2620 H   0  0  0  0  0  0  0  0  0  0  0  0
   49.5090   36.7110   41.0210 H   0  0  0  0  0  0  0  0  0  0  0  0
   49.5880   35.5080   43.5120 H   0  0  0  0  0  0  0  0  0  0  0  0
   50.8520   35.0050   42.2480 H   0  0  0  0  0  0  0  0  0  0  0  0
   49.1460   33.0910   43.3250 H   0  0  0  0  0  0  0  0  0  0  0  0
   46.6670   33.4260   42.3470 C   0  0  0  0  0  0  0  0  0  0  0  0
   46.8780   32.3580   42.6030 H   0  0  0  0  0  0  0  0  0  0  0  0
   45.9180   33.3200   41.5310 H   0  0  0  0  0  0  0  0  0  0  0  0
   44.5730   35.7930   44.4320 C   0  0  0  0  0  0  0  0  0  0  0  0
   45.2280   35.2590   43.2850 C   0  0  0  0  0  0  0  0  0  0  0  0
   45.9760   34.0920   43.4310 C   0  0  0  0  0  0  0  0  0  0  0  0
   46.0320   33.5410   44.6640 N   0  0  0  0  0  0  0  0  0  0  0  0
   45.3940   34.0660   45.7660 C   0  0  0  0  0  0  0  0  0  0  0  0
   44.6720   35.1810   45.6510 N   0  0  0  0  0  0  0  0  0  0  0  0
   44.0130   36.7040   44.2230 H   0  0  0  0  0  0  0  0  0  0  0  0
   45.1610   35.7220   42.3330 H   0  0  0  0  0  0  0  0  0  0  0  0
   45.4940   33.5560   46.7150 H   0  0  0  0  0  0  0  0  0  0  0  0
   49.7890   33.0510   41.3240 O   0  0  0  0  0  0  0  0  0  0  0  0
   49.4660   30.6080   42.3110 O   0  0  0  0  0  0  0  0  0  0  0  0
   50.4370   31.5650   41.6660 P   0  0  2  0  0  0  0  0  0  0  0  0
   51.7110   31.7840   42.7670 O   0  0  0  0  0  0  0  0  0  0  0  0
   52.4490   32.3090   42.3430 H   0  0  0  0  0  0  0  0  0  0  0  0
   51.1440   30.8560   40.2780 O   0  0  0  0  0  0  0  0  0  0  0  0
   50.7720   31.4840   39.1130 C   0  0  0  0  0  0  0  0  0  0  0  0
   51.9650   31.6060   38.1680 C   0  0  0  0  0  0  0  0  0  0  0  0
   51.5850   31.9680   37.1860 H   0  0  0  0  0  0  0  0  0  0  0  0
  1 11  1  0  0  0  0
  1  5  1  0  0  0  0
  2  3  2  0  0  0  0
  2  1  1  0  0  0  0
  3  4  1  0  0  0  0
  4  8  1  0  0  0  0
  5  4  1  0  0  0  0
  5 10  1  1  0  0  0
  6  2  1  0  0  0  0
  7  3  1  0  0  0  0
  9  4  1  0  0  0  0
 11 12  1  0  0  0  0
 11 16  1  0  0  0  0
 13 11  1  0  0  0  0
 14 19  1  0  0  0  0
 15 16  1  0  0  0  0
 15 14  2  0  0  0  0
 16 17  2  0  0  0  0
 17 18  1  0  0  0  0
 18 22  1  0  0  0  0
 19 18  2  0  0  0  0
 20 14  1  0  0  0  0
 21 15  1  0  0  0  0
 23 25  1  0  0  0  0
 23  5  1  0  0  0  0
 25 24  2  1  0  0  0
 25 26  1  0  0  0  0
 27 26  1  0  0  0  0
 28 25  1  0  0  0  0
 29 28  1  0  0  0  0
 30 29  1  0  0  0  0
 31 30  1  0  0  0  0
M  END
>  <minimizedAffinity>
-4.64957237

>  <minimizedRMSD>
0.956044912

$$$$
