
 OpenBabel03252506453D

 36 38  0  0  1  0  0  0  0  0999 V2000
   49.6820   33.6520   41.4340 N   0  0  1  0  0  0  0  0  0  0  0  0
   50.7120   33.0650   42.2570 C   0  0  0  0  0  0  0  0  0  0  0  0
   51.2420   31.7780   41.7180 C   0  0  0  0  0  0  0  0  0  0  0  0
   50.1460   30.7370   41.8200 C   0  0  0  0  0  0  0  0  0  0  0  0
   48.7950   31.3520   41.5040 C   0  0  0  0  0  0  0  0  0  0  0  0
   49.0120   32.5960   40.7050 C   0  0  2  0  0  0  0  0  0  0  0  0
   50.2950   32.8730   43.2690 H   0  0  0  0  0  0  0  0  0  0  0  0
   51.5170   33.8210   42.3810 H   0  0  0  0  0  0  0  0  0  0  0  0
   51.7120   31.8130   40.7430 H   0  0  0  0  0  0  0  0  0  0  0  0
   52.0260   31.4370   42.4500 H   0  0  0  0  0  0  0  0  0  0  0  0
   50.3520   29.9530   41.0790 H   0  0  0  0  0  0  0  0  0  0  0  0
   50.0880   30.3270   42.8570 H   0  0  0  0  0  0  0  0  0  0  0  0
   48.0970   30.6930   41.0140 H   0  0  0  0  0  0  0  0  0  0  0  0
   48.3870   31.7070   42.5010 H   0  0  0  0  0  0  0  0  0  0  0  0
   47.9810   33.0130   40.4990 H   0  0  0  0  0  0  0  0  0  0  0  0
   47.4390   34.7830   41.9750 C   0  0  1  0  0  0  0  0  0  0  0  0
   48.4800   35.7840   41.7700 C   0  0  0  0  0  0  0  0  0  0  0  0
   48.8550   34.4350   42.2760 C   0  0  2  0  0  0  0  0  0  0  0  0
   47.0000   34.3010   41.0620 H   0  0  0  0  0  0  0  0  0  0  0  0
   48.7240   36.0500   40.6990 H   0  0  0  0  0  0  0  0  0  0  0  0
   48.5370   36.6600   42.4250 H   0  0  0  0  0  0  0  0  0  0  0  0
   49.0940   34.4190   43.3660 H   0  0  0  0  0  0  0  0  0  0  0  0
   45.5800   36.0190   43.1350 C   0  0  0  0  0  0  0  0  0  0  0  0
   46.4720   34.9340   43.0620 C   0  0  0  0  0  0  0  0  0  0  0  0
   46.3890   33.9930   44.0900 C   0  0  0  0  0  0  0  0  0  0  0  0
   45.4750   34.1700   45.0820 N   0  0  0  0  0  0  0  0  0  0  0  0
   44.6440   35.2220   45.1100 C   0  0  0  0  0  0  0  0  0  0  0  0
   44.6880   36.1670   44.1270 N   0  0  0  0  0  0  0  0  0  0  0  0
   45.6250   36.7740   42.3320 H   0  0  0  0  0  0  0  0  0  0  0  0
   47.0620   33.1230   44.0870 H   0  0  0  0  0  0  0  0  0  0  0  0
   43.9100   35.3760   45.9120 H   0  0  0  0  0  0  0  0  0  0  0  0
   49.6040   32.3230   39.4330 N   0  0  0  0  0  0  0  0  0  0  0  0
   50.6430   32.4800   39.4080 H   0  0  0  0  0  0  0  0  0  0  0  0
   48.8860   32.6640   38.2800 C   0  0  0  0  0  0  0  0  0  0  0  0
   48.0900   33.9070   38.3020 C   0  0  0  0  0  0  0  0  0  0  0  0
   47.1170   33.7190   37.7210 H   0  0  0  0  0  0  0  0  0  0  0  0
  1  2  1  1  0  0  0
  1 18  1  0  0  0  0
  2  8  1  0  0  0  0
  2  7  1  0  0  0  0
  3  4  1  0  0  0  0
  3  2  1  0  0  0  0
  3 10  1  0  0  0  0
  4 12  1  0  0  0  0
  5  4  1  0  0  0  0
  5 14  1  0  0  0  0
  6 15  1  6  0  0  0
  6  1  1  0  0  0  0
  6  5  1  0  0  0  0
  9  3  1  0  0  0  0
 11  4  1  0  0  0  0
 13  5  1  0  0  0  0
 16 19  1  6  0  0  0
 16 18  1  0  0  0  0
 16 24  1  0  0  0  0
 17 16  1  0  0  0  0
 17 18  1  0  0  0  0
 17 21  1  0  0  0  0
 18 22  1  1  0  0  0
 20 17  1  0  0  0  0
 23 28  1  0  0  0  0
 24 23  2  0  0  0  0
 24 25  1  0  0  0  0
 25 26  2  0  0  0  0
 26 27  1  0  0  0  0
 27 31  1  0  0  0  0
 28 27  2  0  0  0  0
 29 23  1  0  0  0  0
 30 25  1  0  0  0  0
 32  6  1  0  0  0  0
 33 32  1  0  0  0  0
 34 35  1  0  0  0  0
 34 32  1  0  0  0  0
 36 35  1  0  0  0  0
M  END
>  <minimizedAffinity>
-4.7078023

>  <minimizedRMSD>
1.20508099

$$$$
