REMARK  Name = 
REMARK  7 active torsions:
REMARK  status: ('A' for Active; 'I' for Inactive)
REMARK    1  A    between atoms: C_2  and  O_17
REMARK    2  A    between atoms: C_3  and  C_7
REMARK    3  A    between atoms: O_17  and  P_19
REMARK    4  A    between atoms: P_19  and  O_20
REMARK    5  A    between atoms: P_19  and  O_21
REMARK    6  A    between atoms: O_21  and  C_32
REMARK    7  A    between atoms: C_32  and  C_33
REMARK                            x       y       z     vdW  Elec       q    Type
REMARK                         _______ _______ _______ _____ _____    ______ ____
ROOT
ATOM      1  C   UNL     1      46.231  35.216  42.733  0.00  0.00    +0.000 A 
ATOM      2  C   UNL     1      46.831  34.036  43.177  0.00  0.00    +0.000 A 
ATOM      3  C   UNL     1      46.408  33.481  44.373  0.00  0.00    +0.000 A 
ATOM      4  N   UNL     1      45.409  34.106  45.070  0.00  0.00    +0.000 NA
ATOM      5  C   UNL     1      44.847  35.235  44.623  0.00  0.00    +0.000 A 
ATOM      6  N   UNL     1      45.264  35.780  43.462  0.00  0.00    +0.000 NA
ATOM      7  H   UNL     1      46.512  35.708  41.813  0.00  0.00    +0.000 HD
ATOM      8  H   UNL     1      44.057  35.656  45.255  0.00  0.00    +0.000 HD
ENDROOT
BRANCH   3   9
ATOM      9  C   UNL     1      46.943  32.279  44.926  0.00  0.00    +0.000 A 
ATOM     10  C   UNL     1      47.649  31.311  44.229  0.00  0.00    +0.000 A 
ATOM     11  C   UNL     1      48.063  30.121  44.756  0.00  0.00    +0.000 A 
ATOM     12  C   UNL     1      47.776  29.820  46.073  0.00  0.00    +0.000 A 
ATOM     13  C   UNL     1      47.058  30.796  46.804  0.00  0.00    +0.000 A 
ATOM     14  C   UNL     1      46.762  30.512  48.120  0.00  0.00    +0.000 A 
ATOM     15  C   UNL     1      46.072  31.413  48.897  0.00  0.00    +0.000 A 
ATOM     16  C   UNL     1      45.671  32.631  48.341  0.00  0.00    +0.000 A 
ATOM     17  C   UNL     1      45.982  32.900  46.996  0.00  0.00    +0.000 A 
ATOM     18  C   UNL     1      46.669  31.969  46.243  0.00  0.00    +0.000 A 
ATOM     19  H   UNL     1      47.908  31.450  43.202  0.00  0.00    +0.000 HD
ATOM     20  H   UNL     1      48.615  29.381  44.193  0.00  0.00    +0.000 HD
ATOM     21  H   UNL     1      48.077  28.894  46.538  0.00  0.00    +0.000 HD
ATOM     22  H   UNL     1      47.088  29.562  48.520  0.00  0.00    +0.000 HD
ATOM     23  H   UNL     1      45.887  31.087  49.925  0.00  0.00    +0.000 HD
ATOM     24  H   UNL     1      45.148  33.217  49.083  0.00  0.00    +0.000 HD
ATOM     25  H   UNL     1      45.613  33.865  46.858  0.00  0.00    +0.000 HD
ENDBRANCH   3   9
BRANCH   2  26
ATOM     26  O   UNL     1      47.807  33.489  42.386  0.00  0.00    +0.000 OA
BRANCH  26  28
ATOM     27  O   UNL     1      50.314  33.292  41.623  0.00  0.00    +0.000 OA
ATOM     28  P   UNL     1      49.279  34.277  42.048  0.00  0.00    +0.000 P 
BRANCH  28  29
ATOM     29  O   UNL     1      49.094  35.381  40.769  0.00  0.00    +0.000 OA
ATOM     30  H   UNL     1      48.768  36.230  41.164  0.00  0.00    +0.000 HD
ENDBRANCH  28  29
BRANCH  28  31
ATOM     31  O   UNL     1      49.764  35.122  43.404  0.00  0.00    +0.000 OA
BRANCH  31  32
ATOM     32  C   UNL     1      50.472  34.368  44.312  0.00  0.00    +0.000 C 
BRANCH  32  33
ATOM     33  C   UNL     1      50.366  32.874  44.086  0.00  0.00    +0.000 C 
ATOM     34  H   UNL     1      50.836  32.573  43.133  0.00  0.00    +0.000 HD
ENDBRANCH  32  33
ENDBRANCH  31  32
ENDBRANCH  28  31
ENDBRANCH  26  28
ENDBRANCH   2  26
TORSDOF 7
