
 OpenBabel03252507103D

 30 31  0  0  1  0  0  0  0  0999 V2000
   37.8530   27.7690   43.6790 C   0  0  0  0  0  0  0  0  0  0  0  0
   38.0430   29.0710   43.1350 C   0  0  0  0  0  0  0  0  0  0  0  0
   38.0830   29.1620   41.7470 C   0  0  0  0  0  0  0  0  0  0  0  0
   37.9450   28.0490   41.0050 N   0  0  0  0  0  0  0  0  0  0  0  0
   37.7660   26.8380   41.5400 C   0  0  0  0  0  0  0  0  0  0  0  0
   37.7210   26.6990   42.8920 N   0  0  0  0  0  0  0  0  0  0  0  0
   37.8260   27.7360   44.7600 H   0  0  0  0  0  0  0  0  0  0  0  0
   38.1520   29.9470   43.7650 H   0  0  0  0  0  0  0  0  0  0  0  0
   37.0470   24.4350   41.5310 C   0  0  1  0  0  0  0  0  0  0  0  0
   37.6220   25.5910   40.7840 C   0  0  1  0  0  0  0  0  0  0  0  0
   36.5530   25.7500   39.6930 C   0  0  0  0  0  0  0  0  0  0  0  0
   35.9850   24.5350   39.4930 O   0  0  0  0  0  0  0  0  0  0  0  0
   36.5550   23.6030   40.3540 C   0  0  0  0  0  0  0  0  0  0  0  0
   36.1510   24.7810   42.0800 H   0  0  0  0  0  0  0  0  0  0  0  0
   38.5870   25.3190   40.3290 H   0  0  0  0  0  0  0  0  0  0  0  0
   37.1160   26.0440   38.7820 H   0  0  0  0  0  0  0  0  0  0  0  0
   35.8510   26.5750   39.9070 H   0  0  0  0  0  0  0  0  0  0  0  0
   35.7160   22.9840   40.7290 H   0  0  0  0  0  0  0  0  0  0  0  0
   37.3400   23.0530   39.8370 H   0  0  0  0  0  0  0  0  0  0  0  0
   37.9250   23.8000   42.3600 O   0  0  0  0  0  0  0  0  0  0  0  0
   37.5340   23.5070   43.2300 H   0  0  0  0  0  0  0  0  0  0  0  0
   38.2670   30.4320   41.2380 O   0  0  0  0  0  0  0  0  0  0  0  0
   36.7730   30.6780   39.0480 O   0  0  0  0  0  0  0  0  0  0  0  0
   36.9760   31.2240   40.4500 P   0  0  1  0  0  0  0  0  0  0  0  0
   35.6020   31.0660   41.3830 O   0  0  0  0  0  0  0  0  0  0  0  0
   35.7010   31.6420   42.1780 H   0  0  0  0  0  0  0  0  0  0  0  0
   37.4310   32.8560   40.3080 O   0  0  0  0  0  0  0  0  0  0  0  0
   38.7000   33.0690   40.7950 C   0  0  0  0  0  2  0  0  0  0  0  0
   39.6330   33.3400   39.6330 C   0  0  0  0  0  2  0  0  0  0  0  0
   39.7060   32.4420   38.9860 H   0  0  0  0  0  0  0  0  0  0  0  0
  1  7  1  0  0  0  0
  2  1  1  0  0  0  0
  2  8  1  0  0  0  0
  3  2  2  0  0  0  0
  4  5  2  0  0  0  0
  4  3  1  0  0  0  0
  5  6  1  0  0  0  0
  6  1  2  0  0  0  0
  9 14  1  1  0  0  0
  9 20  1  0  0  0  0
 10 15  1  6  0  0  0
 10  9  1  0  0  0  0
 10  5  1  0  0  0  0
 11 17  1  0  0  0  0
 11 10  1  0  0  0  0
 12 11  1  0  0  0  0
 12 13  1  0  0  0  0
 13 18  1  0  0  0  0
 13  9  1  0  0  0  0
 16 11  1  0  0  0  0
 19 13  1  0  0  0  0
 20 21  1  0  0  0  0
 22  3  1  0  0  0  0
 24 23  2  6  0  0  0
 24 22  1  0  0  0  0
 24 25  1  0  0  0  0
 25 26  1  0  0  0  0
 27 24  1  0  0  0  0
 27 28  1  0  0  0  0
 29 28  1  0  0  0  0
 30 29  1  0  0  0  0
M  END
>  <minimizedAffinity>
-5.19254732

$$$$

 OpenBabel03252507103D

 30 31  0  0  1  0  0  0  0  0999 V2000
   36.9610   27.8270   43.3600 C   0  0  0  0  0  0  0  0  0  0  0  0
   38.1780   27.1610   43.6790 C   0  0  0  0  0  0  0  0  0  0  0  0
   39.2730   27.4510   42.8700 C   0  0  0  0  0  0  0  0  0  0  0  0
   39.1360   28.3220   41.8550 N   0  0  0  0  0  0  0  0  0  0  0  0
   37.9820   28.9350   41.5770 C   0  0  0  0  0  0  0  0  0  0  0  0
   36.8840   28.6830   42.3390 N   0  0  0  0  0  0  0  0  0  0  0  0
   36.1320   27.5780   44.0090 H   0  0  0  0  0  0  0  0  0  0  0  0
   38.2520   26.4630   44.5060 H   0  0  0  0  0  0  0  0  0  0  0  0
   37.1550   31.1900   40.8510 C   0  0  1  0  0  0  0  0  0  0  0  0
   37.7690   29.8820   40.4790 C   0  0  1  0  0  0  0  0  0  0  0  0
   39.1170   30.3760   39.9330 C   0  0  0  0  0  0  0  0  0  0  0  0
   38.9330   31.6340   39.4600 O   0  0  0  0  0  0  0  0  0  0  0  0
   37.6120   32.0220   39.6610 C   0  0  0  0  0  0  0  0  0  0  0  0
   37.6790   31.5840   41.7420 H   0  0  0  0  0  0  0  0  0  0  0  0
   37.1930   29.3950   39.6760 H   0  0  0  0  0  0  0  0  0  0  0  0
   39.3470   29.6980   39.0840 H   0  0  0  0  0  0  0  0  0  0  0  0
   39.9370   30.2560   40.6620 H   0  0  0  0  0  0  0  0  0  0  0  0
   37.6540   33.0750   40.0050 H   0  0  0  0  0  0  0  0  0  0  0  0
   37.0360   31.8560   38.7520 H   0  0  0  0  0  0  0  0  0  0  0  0
   35.8050   31.1500   41.0430 O   0  0  0  0  0  0  0  0  0  0  0  0
   35.4790   31.7090   41.8020 H   0  0  0  0  0  0  0  0  0  0  0  0
   40.4450   26.7970   43.1960 O   0  0  0  0  0  0  0  0  0  0  0  0
   40.9540   25.5650   40.8910 O   0  0  0  0  0  0  0  0  0  0  0  0
   40.8590   25.3490   42.3900 P   0  0  1  0  0  0  0  0  0  0  0  0
   42.2900   24.7740   43.0260 O   0  0  0  0  0  0  0  0  0  0  0  0
   42.1080   24.4240   43.9300 H   0  0  0  0  0  0  0  0  0  0  0  0
   39.5850   24.2610   42.6770 O   0  0  0  0  0  0  0  0  0  0  0  0
   38.8780   23.9990   41.5260 C   0  0  0  0  0  2  0  0  0  0  0  0
   37.4000   24.1750   41.8060 C   0  0  0  0  0  2  0  0  0  0  0  0
   37.0600   23.4200   42.5430 H   0  0  0  0  0  0  0  0  0  0  0  0
  1  2  1  0  0  0  0
  1  7  1  0  0  0  0
  2  8  1  0  0  0  0
  3 22  1  0  0  0  0
  3  2  2  0  0  0  0
  4  3  1  0  0  0  0
  5  4  2  0  0  0  0
  5  6  1  0  0  0  0
  6  1  2  0  0  0  0
  9 20  1  0  0  0  0
  9 14  1  1  0  0  0
 10 15  1  6  0  0  0
 10  9  1  0  0  0  0
 10  5  1  0  0  0  0
 11 10  1  0  0  0  0
 11 17  1  0  0  0  0
 12 13  1  0  0  0  0
 12 11  1  0  0  0  0
 13 18  1  0  0  0  0
 13  9  1  0  0  0  0
 16 11  1  0  0  0  0
 19 13  1  0  0  0  0
 20 21  1  0  0  0  0
 24 23  2  6  0  0  0
 24 27  1  0  0  0  0
 24 25  1  0  0  0  0
 24 22  1  0  0  0  0
 25 26  1  0  0  0  0
 28 29  1  0  0  0  0
 28 27  1  0  0  0  0
 29 30  1  0  0  0  0
M  END
>  <minimizedAffinity>
-4.87577963

$$$$

 OpenBabel03252507103D

 30 31  0  0  1  0  0  0  0  0999 V2000
   37.8670   28.7060   43.5010 C   0  0  0  0  0  0  0  0  0  0  0  0
   37.8860   27.2840   43.5390 C   0  0  0  0  0  0  0  0  0  0  0  0
   37.4860   26.6280   42.3780 C   0  0  0  0  0  0  0  0  0  0  0  0
   37.1120   27.3470   41.3050 N   0  0  0  0  0  0  0  0  0  0  0  0
   37.1040   28.6840   41.2950 C   0  0  0  0  0  0  0  0  0  0  0  0
   37.4860   29.3680   42.4060 N   0  0  0  0  0  0  0  0  0  0  0  0
   38.1830   29.1820   44.4200 H   0  0  0  0  0  0  0  0  0  0  0  0
   38.1930   26.7360   44.4230 H   0  0  0  0  0  0  0  0  0  0  0  0
   36.8790   30.9910   40.3340 C   0  0  1  0  0  0  0  0  0  0  0  0
   36.6960   29.5190   40.1620 C   0  0  1  0  0  0  0  0  0  0  0  0
   37.6260   29.2830   38.9630 C   0  0  0  0  0  0  0  0  0  0  0  0
   37.6790   30.4360   38.2500 O   0  0  0  0  0  0  0  0  0  0  0  0
   36.9000   31.4070   38.8700 C   0  0  0  0  0  0  0  0  0  0  0  0
   37.8920   31.1750   40.7390 H   0  0  0  0  0  0  0  0  0  0  0  0
   35.6560   29.2860   39.8840 H   0  0  0  0  0  0  0  0  0  0  0  0
   37.1180   28.5030   38.3580 H   0  0  0  0  0  0  0  0  0  0  0  0
   38.6020   28.8620   39.2630 H   0  0  0  0  0  0  0  0  0  0  0  0
   37.4850   32.3470   38.8140 H   0  0  0  0  0  0  0  0  0  0  0  0
   35.9170   31.4460   38.4030 H   0  0  0  0  0  0  0  0  0  0  0  0
   35.9210   31.5970   41.0930 O   0  0  0  0  0  0  0  0  0  0  0  0
   36.2660   32.3080   41.7020 H   0  0  0  0  0  0  0  0  0  0  0  0
   37.5120   25.2490   42.4330 O   0  0  0  0  0  0  0  0  0  0  0  0
   39.8610   25.3200   41.1810 O   0  0  0  0  0  0  0  0  0  0  0  0
   38.9140   24.4070   41.9390 P   0  0  1  0  0  0  0  0  0  0  0  0
   39.6380   23.7400   43.2850 O   0  0  0  0  0  0  0  0  0  0  0  0
   39.0820   22.9860   43.5940 H   0  0  0  0  0  0  0  0  0  0  0  0
   38.3920   23.1970   40.8650 O   0  0  0  0  0  0  0  0  0  0  0  0
   37.0970   23.4130   40.4540 C   0  0  0  0  0  2  0  0  0  0  0  0
   37.1180   24.1530   39.1330 C   0  0  0  0  0  2  0  0  0  0  0  0
   37.5620   25.1600   39.2680 H   0  0  0  0  0  0  0  0  0  0  0  0
  1  2  1  0  0  0  0
  1  7  1  0  0  0  0
  2  8  1  0  0  0  0
  3 22  1  0  0  0  0
  3  2  2  0  0  0  0
  4  3  1  0  0  0  0
  5  4  2  0  0  0  0
  5  6  1  0  0  0  0
  6  1  2  0  0  0  0
  9 14  1  1  0  0  0
  9 20  1  0  0  0  0
 10 15  1  6  0  0  0
 10  9  1  0  0  0  0
 10  5  1  0  0  0  0
 11 17  1  0  0  0  0
 11 10  1  0  0  0  0
 12 13  1  0  0  0  0
 12 11  1  0  0  0  0
 13  9  1  0  0  0  0
 16 11  1  0  0  0  0
 18 13  1  0  0  0  0
 19 13  1  0  0  0  0
 20 21  1  0  0  0  0
 24 23  2  6  0  0  0
 24 22  1  0  0  0  0
 24 25  1  0  0  0  0
 25 26  1  0  0  0  0
 27 24  1  0  0  0  0
 28 27  1  0  0  0  0
 29 30  1  0  0  0  0
 29 28  1  0  0  0  0
M  END
>  <minimizedAffinity>
-4.8218832

$$$$

 OpenBabel03252507103D

 30 31  0  0  1  0  0  0  0  0999 V2000
   39.8620   27.6380   43.0720 C   0  0  0  0  0  0  0  0  0  0  0  0
   39.6930   29.0120   42.7420 C   0  0  0  0  0  0  0  0  0  0  0  0
   38.5620   29.3350   41.9970 C   0  0  0  0  0  0  0  0  0  0  0  0
   37.7070   28.3640   41.6330 N   0  0  0  0  0  0  0  0  0  0  0  0
   37.8880   27.0800   41.9570 C   0  0  0  0  0  0  0  0  0  0  0  0
   38.9780   26.7150   42.6830 N   0  0  0  0  0  0  0  0  0  0  0  0
   40.7510   27.4230   43.6510 H   0  0  0  0  0  0  0  0  0  0  0  0
   40.4040   29.7690   43.0520 H   0  0  0  0  0  0  0  0  0  0  0  0
   36.9470   25.6470   40.1250 C   0  0  1  0  0  0  0  0  0  0  0  0
   36.9990   25.9780   41.5790 C   0  0  1  0  0  0  0  0  0  0  0  0
   37.5370   24.6470   42.1270 C   0  0  0  0  0  0  0  0  0  0  0  0
   37.1490   23.6650   41.2760 O   0  0  0  0  0  0  0  0  0  0  0  0
   36.4330   24.2160   40.2180 C   0  0  0  0  0  0  0  0  0  0  0  0
   37.9820   25.5950   39.7380 H   0  0  0  0  0  0  0  0  0  0  0  0
   35.9880   26.1660   41.9730 H   0  0  0  0  0  0  0  0  0  0  0  0
   37.0220   24.5110   43.1010 H   0  0  0  0  0  0  0  0  0  0  0  0
   38.6190   24.6890   42.3470 H   0  0  0  0  0  0  0  0  0  0  0  0
   36.7850   23.6910   39.3080 H   0  0  0  0  0  0  0  0  0  0  0  0
   35.3650   24.1370   40.4140 H   0  0  0  0  0  0  0  0  0  0  0  0
   36.1770   26.4890   39.3770 O   0  0  0  0  0  0  0  0  0  0  0  0
   36.5540   26.7060   38.4800 H   0  0  0  0  0  0  0  0  0  0  0  0
   38.4140   30.6730   41.6880 O   0  0  0  0  0  0  0  0  0  0  0  0
   37.2980   30.4430   39.2820 O   0  0  0  0  0  0  0  0  0  0  0  0
   37.1810   31.1630   40.6130 P   0  0  1  0  0  0  0  0  0  0  0  0
   35.7030   30.8930   41.3370 O   0  0  0  0  0  0  0  0  0  0  0  0
   35.5840   31.5600   42.0540 H   0  0  0  0  0  0  0  0  0  0  0  0
   37.4260   32.8210   40.3280 O   0  0  0  0  0  0  0  0  0  0  0  0
   38.6710   33.2250   40.7500 C   0  0  0  0  0  2  0  0  0  0  0  0
   39.6130   33.2320   39.5640 C   0  0  0  0  0  2  0  0  0  0  0  0
   39.7480   32.2010   39.1800 H   0  0  0  0  0  0  0  0  0  0  0  0
  1  7  1  0  0  0  0
  2  8  1  0  0  0  0
  2  1  1  0  0  0  0
  3  2  2  0  0  0  0
  4  5  2  0  0  0  0
  4  3  1  0  0  0  0
  5  6  1  0  0  0  0
  6  1  2  0  0  0  0
  9 14  1  6  0  0  0
  9 13  1  0  0  0  0
  9 10  1  0  0  0  0
 10  5  1  0  0  0  0
 10 15  1  1  0  0  0
 10 11  1  0  0  0  0
 11 17  1  0  0  0  0
 11 16  1  0  0  0  0
 12 11  1  0  0  0  0
 13 19  1  0  0  0  0
 13 12  1  0  0  0  0
 18 13  1  0  0  0  0
 20  9  1  0  0  0  0
 21 20  1  0  0  0  0
 22  3  1  0  0  0  0
 24 23  2  6  0  0  0
 24 25  1  0  0  0  0
 24 22  1  0  0  0  0
 25 26  1  0  0  0  0
 27 24  1  0  0  0  0
 27 28  1  0  0  0  0
 29 28  1  0  0  0  0
 30 29  1  0  0  0  0
M  END
>  <minimizedAffinity>
-4.80450964

$$$$

 OpenBabel03252507103D

 30 31  0  0  1  0  0  0  0  0999 V2000
   35.9100   28.0530   39.9630 C   0  0  0  0  0  0  0  0  0  0  0  0
   35.8590   29.4740   40.0130 C   0  0  0  0  0  0  0  0  0  0  0  0
   36.5510   30.0820   41.0570 C   0  0  0  0  0  0  0  0  0  0  0  0
   37.2170   29.3220   41.9440 N   0  0  0  0  0  0  0  0  0  0  0  0
   37.2500   27.9880   41.8740 C   0  0  0  0  0  0  0  0  0  0  0  0
   36.5890   27.3490   40.8730 N   0  0  0  0  0  0  0  0  0  0  0  0
   35.3610   27.6150   39.1400 H   0  0  0  0  0  0  0  0  0  0  0  0
   35.3110   30.0560   39.2810 H   0  0  0  0  0  0  0  0  0  0  0  0
   38.5040   25.8470   42.2450 C   0  0  1  0  0  0  0  0  0  0  0  0
   37.9470   27.1080   42.8160 C   0  0  1  0  0  0  0  0  0  0  0  0
   39.2470   27.7670   43.3000 C   0  0  0  0  0  0  0  0  0  0  0  0
   40.1320   26.7780   43.5770 O   0  0  0  0  0  0  0  0  0  0  0  0
   39.5550   25.5420   43.3030 C   0  0  0  0  0  0  0  0  0  0  0  0
   39.0460   26.0920   41.3110 H   0  0  0  0  0  0  0  0  0  0  0  0
   37.2930   26.8910   43.6740 H   0  0  0  0  0  0  0  0  0  0  0  0
   38.9710   28.2840   44.2420 H   0  0  0  0  0  0  0  0  0  0  0  0
   39.6070   28.5490   42.6070 H   0  0  0  0  0  0  0  0  0  0  0  0
   40.3440   24.9420   42.8070 H   0  0  0  0  0  0  0  0  0  0  0  0
   39.1550   25.1110   44.2190 H   0  0  0  0  0  0  0  0  0  0  0  0
   37.5850   24.8590   42.0430 O   0  0  0  0  0  0  0  0  0  0  0  0
   37.7180   24.3350   41.2050 H   0  0  0  0  0  0  0  0  0  0  0  0
   36.4910   31.4610   41.0890 O   0  0  0  0  0  0  0  0  0  0  0  0
   38.1700   31.5830   39.0260 O   0  0  0  0  0  0  0  0  0  0  0  0
   37.6200   32.3800   40.1950 P   0  0  1  0  0  0  0  0  0  0  0  0
   36.8850   33.7910   39.6940 O   0  0  0  0  0  0  0  0  0  0  0  0
   36.7690   34.3750   40.4800 H   0  0  0  0  0  0  0  0  0  0  0  0
   38.9120   32.7080   41.2510 O   0  0  0  0  0  0  0  0  0  0  0  0
   39.9280   31.7930   41.1020 C   0  0  0  0  0  2  0  0  0  0  0  0
   40.2300   31.1700   42.4490 C   0  0  0  0  0  2  0  0  0  0  0  0
   40.6200   31.9400   43.1450 H   0  0  0  0  0  0  0  0  0  0  0  0
  1  2  2  0  0  0  0
  1  6  1  0  0  0  0
  2  3  1  0  0  0  0
  3 22  1  0  0  0  0
  3  4  2  0  0  0  0
  5  4  1  0  0  0  0
  5 10  1  0  0  0  0
  6  5  2  0  0  0  0
  7  1  1  0  0  0  0
  8  2  1  0  0  0  0
  9 14  1  6  0  0  0
  9 10  1  0  0  0  0
  9 13  1  0  0  0  0
 10 11  1  0  0  0  0
 10 15  1  1  0  0  0
 11 12  1  0  0  0  0
 11 16  1  0  0  0  0
 13 12  1  0  0  0  0
 13 19  1  0  0  0  0
 17 11  1  0  0  0  0
 18 13  1  0  0  0  0
 20  9  1  0  0  0  0
 21 20  1  0  0  0  0
 24 23  2  6  0  0  0
 24 22  1  0  0  0  0
 24 27  1  0  0  0  0
 25 24  1  0  0  0  0
 25 26  1  0  0  0  0
 28 27  1  0  0  0  0
 28 29  1  0  0  0  0
 29 30  1  0  0  0  0
M  END
>  <minimizedAffinity>
-4.78669357

$$$$

 OpenBabel03252507103D

 30 31  0  0  1  0  0  0  0  0999 V2000
   37.8410   29.0780   43.2640 C   0  0  0  0  0  0  0  0  0  0  0  0
   37.6830   27.6680   43.3790 C   0  0  0  0  0  0  0  0  0  0  0  0
   37.1660   27.0120   42.2650 C   0  0  0  0  0  0  0  0  0  0  0  0
   36.8490   27.7170   41.1660 N   0  0  0  0  0  0  0  0  0  0  0  0
   37.0090   29.0410   41.0830 C   0  0  0  0  0  0  0  0  0  0  0  0
   37.5100   29.7270   42.1450 N   0  0  0  0  0  0  0  0  0  0  0  0
   38.2450   29.5560   44.1470 H   0  0  0  0  0  0  0  0  0  0  0  0
   37.9480   27.1310   44.2820 H   0  0  0  0  0  0  0  0  0  0  0  0
   37.1470   31.2780   39.9550 C   0  0  1  0  0  0  0  0  0  0  0  0
   36.6710   29.8640   39.9190 C   0  0  1  0  0  0  0  0  0  0  0  0
   37.4310   29.3700   38.6780 C   0  0  0  0  0  0  0  0  0  0  0  0
   37.6420   30.4390   37.8710 O   0  0  0  0  0  0  0  0  0  0  0  0
   37.1200   31.5850   38.4640 C   0  0  0  0  0  0  0  0  0  0  0  0
   38.2080   31.2850   40.2690 H   0  0  0  0  0  0  0  0  0  0  0  0
   35.5860   29.8230   39.7370 H   0  0  0  0  0  0  0  0  0  0  0  0
   36.7320   28.6670   38.1780 H   0  0  0  0  0  0  0  0  0  0  0  0
   38.3300   28.7850   38.9400 H   0  0  0  0  0  0  0  0  0  0  0  0
   37.8670   32.3840   38.2890 H   0  0  0  0  0  0  0  0  0  0  0  0
   36.1260   31.7860   38.0680 H   0  0  0  0  0  0  0  0  0  0  0  0
   36.3940   32.1120   40.7300 O   0  0  0  0  0  0  0  0  0  0  0  0
   36.9200   32.7790   41.2510 H   0  0  0  0  0  0  0  0  0  0  0  0
   37.0200   25.6440   42.3940 O   0  0  0  0  0  0  0  0  0  0  0  0
   37.5180   23.2900   41.2560 O   0  0  0  0  0  0  0  0  0  0  0  0
   38.1630   24.5990   41.6740 P   0  0  1  0  0  0  0  0  0  0  0  0
   38.8680   25.3850   40.3830 O   0  0  0  0  0  0  0  0  0  0  0  0
   39.4690   26.0830   40.7370 H   0  0  0  0  0  0  0  0  0  0  0  0
   39.3140   24.2480   42.8760 O   0  0  0  0  0  0  0  0  0  0  0  0
   40.5220   24.8490   42.6060 C   0  0  0  0  0  2  0  0  0  0  0  0
   40.7900   25.9060   43.6570 C   0  0  0  0  0  2  0  0  0  0  0  0
   40.0330   26.7120   43.5880 H   0  0  0  0  0  0  0  0  0  0  0  0
  1  2  1  0  0  0  0
  1  7  1  0  0  0  0
  2  8  1  0  0  0  0
  3 22  1  0  0  0  0
  3  2  2  0  0  0  0
  4  3  1  0  0  0  0
  5  4  2  0  0  0  0
  5  6  1  0  0  0  0
  6  1  2  0  0  0  0
  9 14  1  1  0  0  0
  9 20  1  0  0  0  0
 10 15  1  6  0  0  0
 10  9  1  0  0  0  0
 10  5  1  0  0  0  0
 11 17  1  0  0  0  0
 11 10  1  0  0  0  0
 12 13  1  0  0  0  0
 12 11  1  0  0  0  0
 13  9  1  0  0  0  0
 16 11  1  0  0  0  0
 18 13  1  0  0  0  0
 19 13  1  0  0  0  0
 20 21  1  0  0  0  0
 24 23  2  6  0  0  0
 24 22  1  0  0  0  0
 24 27  1  0  0  0  0
 25 26  1  0  0  0  0
 25 24  1  0  0  0  0
 28 27  1  0  0  0  0
 28 29  1  0  0  0  0
 30 29  1  0  0  0  0
M  END
>  <minimizedAffinity>
-4.75769663

$$$$

 OpenBabel03252507103D

 30 31  0  0  1  0  0  0  0  0999 V2000
   40.0030   27.4400   38.7550 C   0  0  0  0  0  0  0  0  0  0  0  0
   38.7360   27.7540   39.3220 C   0  0  0  0  0  0  0  0  0  0  0  0
   38.3180   29.0760   39.2070 C   0  0  0  0  0  0  0  0  0  0  0  0
   39.1050   29.9700   38.5840 N   0  0  0  0  0  0  0  0  0  0  0  0
   40.2910   29.6490   38.0590 C   0  0  0  0  0  0  0  0  0  0  0  0
   40.7430   28.3700   38.1470 N   0  0  0  0  0  0  0  0  0  0  0  0
   40.2970   26.4040   38.8630 H   0  0  0  0  0  0  0  0  0  0  0  0
   38.1280   27.0060   39.8190 H   0  0  0  0  0  0  0  0  0  0  0  0
   40.8460   32.0280   37.4840 C   0  0  1  0  0  0  0  0  0  0  0  0
   41.1960   30.5810   37.3800 C   0  0  1  0  0  0  0  0  0  0  0  0
   42.5650   30.5970   38.0780 C   0  0  0  0  0  0  0  0  0  0  0  0
   43.0990   31.8320   37.9080 O   0  0  0  0  0  0  0  0  0  0  0  0
   42.2130   32.6320   37.1930 C   0  0  0  0  0  0  0  0  0  0  0  0
   40.6080   32.2580   38.5390 H   0  0  0  0  0  0  0  0  0  0  0  0
   41.3140   30.2830   36.3270 H   0  0  0  0  0  0  0  0  0  0  0  0
   43.1770   29.8560   37.5230 H   0  0  0  0  0  0  0  0  0  0  0  0
   42.5100   30.2400   39.1220 H   0  0  0  0  0  0  0  0  0  0  0  0
   42.2350   33.6240   37.6860 H   0  0  0  0  0  0  0  0  0  0  0  0
   42.4860   32.6330   36.1390 H   0  0  0  0  0  0  0  0  0  0  0  0
   39.8470   32.4320   36.6470 O   0  0  0  0  0  0  0  0  0  0  0  0
   39.2120   33.0880   37.0490 H   0  0  0  0  0  0  0  0  0  0  0  0
   37.0860   29.3620   39.7620 O   0  0  0  0  0  0  0  0  0  0  0  0
   38.2190   30.9880   41.5390 O   0  0  0  0  0  0  0  0  0  0  0  0
   36.9990   30.1190   41.2900 P   0  0  1  0  0  0  0  0  0  0  0  0
   35.5840   30.9990   41.3710 O   0  0  0  0  0  0  0  0  0  0  0  0
   34.8310   30.3660   41.4470 H   0  0  0  0  0  0  0  0  0  0  0  0
   37.0070   28.8710   42.4440 O   0  0  0  0  0  0  0  0  0  0  0  0
   38.1270   28.9300   43.2400 C   0  0  0  0  0  2  0  0  0  0  0  0
   38.7310   27.5450   43.3410 C   0  0  0  0  0  2  0  0  0  0  0  0
   38.0300   26.8610   43.8610 H   0  0  0  0  0  0  0  0  0  0  0  0
  1  7  1  0  0  0  0
  1  2  1  0  0  0  0
  2  8  1  0  0  0  0
  3  2  2  0  0  0  0
  3 22  1  0  0  0  0
  4  3  1  0  0  0  0
  5  6  1  0  0  0  0
  5  4  2  0  0  0  0
  6  1  2  0  0  0  0
  9 14  1  1  0  0  0
 10 15  1  6  0  0  0
 10  9  1  0  0  0  0
 10  5  1  0  0  0  0
 10 11  1  0  0  0  0
 11 17  1  0  0  0  0
 12 11  1  0  0  0  0
 13  9  1  0  0  0  0
 13 18  1  0  0  0  0
 13 12  1  0  0  0  0
 16 11  1  0  0  0  0
 19 13  1  0  0  0  0
 20 21  1  0  0  0  0
 20  9  1  0  0  0  0
 22 24  1  0  0  0  0
 24 25  1  0  0  0  0
 24 23  2  1  0  0  0
 24 27  1  0  0  0  0
 25 26  1  0  0  0  0
 27 28  1  0  0  0  0
 28 29  1  0  0  0  0
 29 30  1  0  0  0  0
M  END
>  <minimizedAffinity>
-4.64545822

$$$$

 OpenBabel03252507103D

 30 31  0  0  1  0  0  0  0  0999 V2000
   36.6380   31.2650   40.4940 C   0  0  0  0  0  0  0  0  0  0  0  0
   37.5610   32.2910   40.1440 C   0  0  0  0  0  0  0  0  0  0  0  0
   38.8000   32.2520   40.7770 C   0  0  0  0  0  0  0  0  0  0  0  0
   39.0610   31.2760   41.6640 N   0  0  0  0  0  0  0  0  0  0  0  0
   38.1780   30.3230   41.9750 C   0  0  0  0  0  0  0  0  0  0  0  0
   36.9540   30.3200   41.3830 N   0  0  0  0  0  0  0  0  0  0  0  0
   35.6860   31.3270   39.9830 H   0  0  0  0  0  0  0  0  0  0  0  0
   37.3150   33.0640   39.4240 H   0  0  0  0  0  0  0  0  0  0  0  0
   37.5640   28.0210   42.7610 C   0  0  1  0  0  0  0  0  0  0  0  0
   38.4010   29.2430   42.9400 C   0  0  1  0  0  0  0  0  0  0  0  0
   39.7960   28.6310   42.7430 C   0  0  0  0  0  0  0  0  0  0  0  0
   39.7300   27.3280   43.1120 O   0  0  0  0  0  0  0  0  0  0  0  0
   38.4330   27.0180   43.5090 C   0  0  0  0  0  0  0  0  0  0  0  0
   37.5840   27.7340   41.6930 H   0  0  0  0  0  0  0  0  0  0  0  0
   38.3040   29.6360   43.9650 H   0  0  0  0  0  0  0  0  0  0  0  0
   40.4510   29.1790   43.4530 H   0  0  0  0  0  0  0  0  0  0  0  0
   40.2000   28.8210   41.7330 H   0  0  0  0  0  0  0  0  0  0  0  0
   38.2140   26.0210   43.0760 H   0  0  0  0  0  0  0  0  0  0  0  0
   38.3530   27.0790   44.5930 H   0  0  0  0  0  0  0  0  0  0  0  0
   36.2860   28.1340   43.2240 O   0  0  0  0  0  0  0  0  0  0  0  0
   35.5980   27.6960   42.6490 H   0  0  0  0  0  0  0  0  0  0  0  0
   39.6820   33.2540   40.4240 O   0  0  0  0  0  0  0  0  0  0  0  0
   42.1450   34.1610   39.9800 O   0  0  0  0  0  0  0  0  0  0  0  0
   41.3640   32.9700   40.5060 P   0  0  1  0  0  0  0  0  0  0  0  0
   41.7680   32.6110   42.0840 O   0  0  0  0  0  0  0  0  0  0  0  0
   41.4290   31.7080   42.2920 H   0  0  0  0  0  0  0  0  0  0  0  0
   41.6780   31.6510   39.4810 O   0  0  0  0  0  0  0  0  0  0  0  0
   42.1360   32.0660   38.2530 C   0  0  0  0  0  2  0  0  0  0  0  0
   40.9730   32.1100   37.2840 C   0  0  0  0  0  2  0  0  0  0  0  0
   40.5720   31.0890   37.1240 H   0  0  0  0  0  0  0  0  0  0  0  0
  1  6  1  0  0  0  0
  2  1  2  0  0  0  0
  2  3  1  0  0  0  0
  3  4  2  0  0  0  0
  4  5  1  0  0  0  0
  5 10  1  0  0  0  0
  6  5  2  0  0  0  0
  7  1  1  0  0  0  0
  8  2  1  0  0  0  0
  9 14  1  6  0  0  0
  9 10  1  0  0  0  0
  9 20  1  0  0  0  0
  9 13  1  0  0  0  0
 10 15  1  1  0  0  0
 11 10  1  0  0  0  0
 11 12  1  0  0  0  0
 11 16  1  0  0  0  0
 12 13  1  0  0  0  0
 13 19  1  0  0  0  0
 17 11  1  0  0  0  0
 18 13  1  0  0  0  0
 21 20  1  0  0  0  0
 22 24  1  0  0  0  0
 22  3  1  0  0  0  0
 24 23  2  6  0  0  0
 24 25  1  0  0  0  0
 25 26  1  0  0  0  0
 27 24  1  0  0  0  0
 28 27  1  0  0  0  0
 29 28  1  0  0  0  0
 30 29  1  0  0  0  0
M  END
>  <minimizedAffinity>
-4.58542681

$$$$

 OpenBabel03252507103D

 30 31  0  0  1  0  0  0  0  0999 V2000
   36.6070   30.2100   38.1200 C   0  0  0  0  0  0  0  0  0  0  0  0
   36.1080   29.8550   39.4050 C   0  0  0  0  0  0  0  0  0  0  0  0
   37.0120   29.9270   40.4610 C   0  0  0  0  0  0  0  0  0  0  0  0
   38.2770   30.3190   40.2270 N   0  0  0  0  0  0  0  0  0  0  0  0
   38.7200   30.6480   39.0110 C   0  0  0  0  0  0  0  0  0  0  0  0
   37.8750   30.5920   37.9470 N   0  0  0  0  0  0  0  0  0  0  0  0
   35.8780   30.1420   37.3230 H   0  0  0  0  0  0  0  0  0  0  0  0
   35.0810   29.5430   39.5570 H   0  0  0  0  0  0  0  0  0  0  0  0
   40.2250   32.3830   38.0010 C   0  0  1  0  0  0  0  0  0  0  0  0
   40.0880   31.0690   38.6930 C   0  0  1  0  0  0  0  0  0  0  0  0
   40.8640   31.3750   39.9830 C   0  0  0  0  0  0  0  0  0  0  0  0
   41.7820   32.3310   39.6930 O   0  0  0  0  0  0  0  0  0  0  0  0
   41.6710   32.6980   38.3560 C   0  0  0  0  0  0  0  0  0  0  0  0
   39.5930   33.1250   38.5250 H   0  0  0  0  0  0  0  0  0  0  0  0
   40.5980   30.2750   38.1260 H   0  0  0  0  0  0  0  0  0  0  0  0
   41.3890   30.4290   40.2310 H   0  0  0  0  0  0  0  0  0  0  0  0
   40.1970   31.5970   40.8340 H   0  0  0  0  0  0  0  0  0  0  0  0
   41.7730   33.8010   38.3340 H   0  0  0  0  0  0  0  0  0  0  0  0
   42.4050   32.1540   37.7620 H   0  0  0  0  0  0  0  0  0  0  0  0
   39.9520   32.3530   36.6640 O   0  0  0  0  0  0  0  0  0  0  0  0
   39.4560   33.1490   36.3260 H   0  0  0  0  0  0  0  0  0  0  0  0
   36.5100   29.5810   41.7000 O   0  0  0  0  0  0  0  0  0  0  0  0
   38.4620   28.8990   43.3770 O   0  0  0  0  0  0  0  0  0  0  0  0
   37.2720   28.3530   42.6100 P   0  0  1  0  0  0  0  0  0  0  0  0
   36.1430   27.6620   43.6260 O   0  0  0  0  0  0  0  0  0  0  0  0
   35.5280   27.1180   43.0800 H   0  0  0  0  0  0  0  0  0  0  0  0
   37.8560   27.2180   41.4870 O   0  0  0  0  0  0  0  0  0  0  0  0
   37.1500   26.0390   41.5510 C   0  0  0  0  0  2  0  0  0  0  0  0
   38.0420   24.9630   42.1350 C   0  0  0  0  0  2  0  0  0  0  0  0
   38.8950   24.7650   41.4540 H   0  0  0  0  0  0  0  0  0  0  0  0
  1  2  1  0  0  0  0
  2  8  1  0  0  0  0
  2  3  2  0  0  0  0
  3 22  1  0  0  0  0
  4  3  1  0  0  0  0
  5  4  2  0  0  0  0
  6  1  2  0  0  0  0
  6  5  1  0  0  0  0
  7  1  1  0  0  0  0
  9 13  1  0  0  0  0
  9 14  1  1  0  0  0
  9 10  1  0  0  0  0
 10 15  1  6  0  0  0
 10  5  1  0  0  0  0
 10 11  1  0  0  0  0
 11 16  1  0  0  0  0
 11 17  1  0  0  0  0
 12 11  1  0  0  0  0
 13 12  1  0  0  0  0
 18 13  1  0  0  0  0
 19 13  1  0  0  0  0
 20  9  1  0  0  0  0
 21 20  1  0  0  0  0
 22 24  1  0  0  0  0
 24 23  2  1  0  0  0
 24 25  1  0  0  0  0
 26 25  1  0  0  0  0
 27 28  1  0  0  0  0
 27 24  1  0  0  0  0
 28 29  1  0  0  0  0
 30 29  1  0  0  0  0
M  END
>  <minimizedAffinity>
-4.53723812

$$$$
