
     RDKit          3D

 38 40  0  0  0  0  0  0  0  0999 V2000
   46.2313   35.2159   42.7328 C   0  0  0  0  0  0  0  0  0  0  0  0
   46.8309   34.0365   43.1772 C   0  0  0  0  0  0  0  0  0  0  0  0
   46.4078   33.4806   44.3728 C   0  0  0  0  0  0  0  0  0  0  0  0
   45.4093   34.1057   45.0700 N   0  0  0  0  0  0  0  0  0  0  0  0
   44.8474   35.2351   44.6229 C   0  0  0  0  0  0  0  0  0  0  0  0
   45.2639   35.7796   43.4616 N   0  0  0  0  0  0  0  0  0  0  0  0
   46.9425   32.2795   44.9263 C   0  0  0  0  0  0  0  0  0  0  0  0
   47.6488   31.3113   44.2286 C   0  0  0  0  0  0  0  0  0  0  0  0
   48.0629   30.1209   44.7557 C   0  0  0  0  0  0  0  0  0  0  0  0
   47.7765   29.8195   46.0734 C   0  0  0  0  0  0  0  0  0  0  0  0
   47.0577   30.7957   46.8036 C   0  0  0  0  0  0  0  0  0  0  0  0
   46.7618   30.5118   48.1200 C   0  0  0  0  0  0  0  0  0  0  0  0
   46.0716   31.4133   48.8973 C   0  0  0  0  0  0  0  0  0  0  0  0
   45.6708   32.6314   48.3411 C   0  0  0  0  0  0  0  0  0  0  0  0
   45.9817   32.9004   46.9959 C   0  0  0  0  0  0  0  0  0  0  0  0
   46.6688   31.9692   46.2428 C   0  0  0  0  0  0  0  0  0  0  0  0
   47.8070   33.4887   42.3862 O   0  0  0  0  0  0  0  0  0  0  0  0
   50.3136   33.2917   41.6229 O   0  0  0  0  0  0  0  0  0  0  0  0
   49.2786   34.2774   42.0477 P   0  0  1  0  0  0  0  0  0  0  0  0
   49.0943   35.3811   40.7693 O   0  0  0  0  0  0  0  0  0  0  0  0
   49.7637   35.1216   43.4039 O   0  0  0  0  0  0  0  0  0  0  0  0
   46.5119   35.7083   41.8131 H   0  0  0  0  0  0  0  0  0  0  0  0
   44.0573   35.6564   45.2547 H   0  0  0  0  0  0  0  0  0  0  0  0
   47.9083   31.4496   43.2017 H   0  0  0  0  0  0  0  0  0  0  0  0
   48.6147   29.3805   44.1928 H   0  0  0  0  0  0  0  0  0  0  0  0
   48.0771   28.8936   46.5382 H   0  0  0  0  0  0  0  0  0  0  0  0
   47.0881   29.5619   48.5202 H   0  0  0  0  0  0  0  0  0  0  0  0
   45.8874   31.0873   49.9252 H   0  0  0  0  0  0  0  0  0  0  0  0
   45.1484   33.2166   49.0825 H   0  0  0  0  0  0  0  0  0  0  0  0
   45.6132   33.8648   46.8583 H   0  0  0  0  0  0  0  0  0  0  0  0
   48.7678   36.2304   41.1645 H   0  0  0  0  0  0  0  0  0  0  0  0
   50.4724   34.3685   44.3117 C   0  0  0  0  0  0  0  0  0  0  0  0
   50.3657   32.8741   44.0856 C   0  0  0  0  0  0  0  0  0  0  0  0
   50.8358   32.5733   43.1334 H   0  0  0  0  0  0  0  0  0  0  0  0
   51.5552   34.6283   44.1553 H   0  0  0  0  0  0  0  0  0  0  0  0
   50.2822   34.6134   45.3672 H   0  0  0  0  0  0  0  0  0  0  0  0
   49.3352   32.5145   44.0916 H   0  0  0  0  0  0  0  0  0  0  0  0
   50.9696   32.4093   44.9042 H   0  0  0  0  0  0  0  0  0  0  0  0
  1  2  2  0
  1  6  1  0
  2  3  1  0
  3  7  1  0
  3  4  2  0
  5  4  1  0
  6  5  2  0
  7 16  2  0
  8  9  2  0
  8  7  1  0
  9 10  1  0
 10 11  2  0
 11 12  1  0
 12 13  2  0
 14 13  1  0
 15 14  2  0
 16 11  1  0
 16 15  1  0
 17  2  1  0
 18 19  2  0
 19 17  1  1
 19 21  1  0
 20 19  1  0
  1 22  1  0
  5 23  1  0
  8 24  1  0
  9 25  1  0
 10 26  1  0
 12 27  1  0
 13 28  1  0
 14 29  1  0
 15 30  1  0
 20 31  1  0
 32 33  1  0
 33 34  1  0
 32 35  1  0
 32 36  1  0
 33 37  1  0
 33 38  1  0
 21 32  1  0
M  ISO  8  22  14  23  14  24  14  25  14  26  14  27  14  28  14  29  14
M  ISO  3  30  14  31   3  34   8
M  END
>  <DihAtoms>  (1) 
18,20,31,32

>  <DihDeg>  (1) 
-179.98943431816767

$$$$
