
 OpenBabel03252509303D

 21 21  0  0  0  0  0  0  0  0999 V2000
   47.1250   33.5800   42.9240 C   0  0  0  0  0  0  0  0  0  0  0  0
   46.8960   33.8110   41.8770 H   0  0  0  0  0  0  0  0  0  0  0  0
   46.9680   32.4710   43.0370 H   0  0  0  0  0  0  0  0  0  0  0  0
   45.1280   34.2770   45.9990 C   0  0  0  0  0  0  0  0  0  0  0  0
   46.0170   33.6500   45.1060 C   0  0  0  0  0  0  0  0  0  0  0  0
   46.2030   34.2190   43.8670 C   0  0  0  0  0  0  0  0  0  0  0  0
   45.5230   35.3630   43.5580 N   0  0  0  0  0  0  0  0  0  0  0  0
   44.6660   35.9550   44.4390 C   0  0  0  0  0  0  0  0  0  0  0  0
   44.4870   35.4010   45.6370 N   0  0  0  0  0  0  0  0  0  0  0  0
   45.0230   33.7820   46.9560 H   0  0  0  0  0  0  0  0  0  0  0  0
   46.5530   32.7420   45.3590 H   0  0  0  0  0  0  0  0  0  0  0  0
   44.1520   36.8670   44.1320 H   0  0  0  0  0  0  0  0  0  0  0  0
   48.4560   33.7890   43.2830 O   0  0  0  0  0  0  0  0  0  0  0  0
   50.7780   33.3910   42.1630 O   0  0  0  0  0  0  0  0  0  0  0  0
   49.3580   33.8080   41.8530 P   0  0  2  0  0  0  0  0  0  0  0  0
   49.2550   35.3590   41.2260 O   0  0  0  0  0  0  0  0  0  0  0  0
   50.0870   35.8800   41.2630 H   0  0  0  0  0  0  0  0  0  0  0  0
   48.7040   32.6670   40.8090 O   0  0  0  0  0  0  0  0  0  0  0  0
   48.5490   33.2150   39.5270 C   0  0  0  0  0  2  0  0  0  0  0  0
   47.1070   33.4390   39.1860 C   0  0  0  0  0  2  0  0  0  0  0  0
   46.5460   33.7650   40.1090 H   0  0  0  0  0  0  0  0  0  0  0  0
  1  3  1  0  0  0  0
  1 13  1  0  0  0  0
  1  6  1  0  0  0  0
  2  1  1  0  0  0  0
  4 10  1  0  0  0  0
  5 11  1  0  0  0  0
  5  4  2  0  0  0  0
  6  5  1  0  0  0  0
  7  6  2  0  0  0  0
  7  8  1  0  0  0  0
  8  9  2  0  0  0  0
  9  4  1  0  0  0  0
 12  8  1  0  0  0  0
 15 14  2  1  0  0  0
 15 13  1  0  0  0  0
 16 17  1  0  0  0  0
 16 15  1  0  0  0  0
 18 15  1  0  0  0  0
 19 18  1  0  0  0  0
 20 19  1  0  0  0  0
 20 21  1  0  0  0  0
M  END
>  <minimizedAffinity>
-3.67499256

>  <minimizedRMSD>
1.61131918

$$$$
