
 OpenBabel03242520333D

 22 23  0  0  1  0  0  0  0  0999 V2000
   47.4380   33.2130   41.3200 C   0  0  1  0  0  0  0  0  0  0  0  0
   46.9920   34.1320   40.2930 C   0  0  0  0  0  0  0  0  0  0  0  0
   48.3610   34.3250   40.8300 C   0  0  1  0  0  0  0  0  0  0  0  0
   47.7630   32.1840   41.0220 H   0  0  0  0  0  0  0  0  0  0  0  0
   46.2710   34.9260   40.6120 H   0  0  0  0  0  0  0  0  0  0  0  0
   46.8190   33.8260   39.2430 H   0  0  0  0  0  0  0  0  0  0  0  0
   49.1830   34.0100   40.1380 H   0  0  0  0  0  0  0  0  0  0  0  0
   45.6670   33.9720   42.9850 C   0  0  0  0  0  0  0  0  0  0  0  0
   46.9070   33.3120   42.7010 C   0  0  0  0  0  0  0  0  0  0  0  0
   47.5970   32.7810   43.7750 C   0  0  0  0  0  0  0  0  0  0  0  0
   47.0830   32.9060   45.0170 N   0  0  0  0  0  0  0  0  0  0  0  0
   45.9180   33.5290   45.2560 C   0  0  0  0  0  0  0  0  0  0  0  0
   45.2130   34.0610   44.2280 N   0  0  0  0  0  0  0  0  0  0  0  0
   45.1110   34.3940   42.1510 H   0  0  0  0  0  0  0  0  0  0  0  0
   48.5400   32.2680   43.6510 H   0  0  0  0  0  0  0  0  0  0  0  0
   45.3030   33.6970   46.5990 C   0  0  0  0  0  0  0  0  0  0  0  0
   45.5940   32.5330   47.5110 C   0  0  0  0  0  0  0  0  0  0  0  0
   46.6310   32.6370   47.9200 H   0  0  0  0  0  0  0  0  0  0  0  0
   48.6940   35.4720   41.7130 C   0  0  0  0  0  0  0  0  0  0  0  0
   49.3520   36.4830   41.0330 F   0  0  0  0  0  0  0  0  0  0  0  0
   49.4760   35.0800   42.8000 F   0  0  0  0  0  0  0  0  0  0  0  0
   47.5190   36.0070   42.1820 F   0  0  0  0  0  0  0  0  0  0  0  0
  1  4  1  6  0  0  0
  1  9  1  0  0  0  0
  2  5  1  0  0  0  0
  2  3  1  0  0  0  0
  2  1  1  0  0  0  0
  3  7  1  6  0  0  0
  3  1  1  0  0  0  0
  3 19  1  0  0  0  0
  6  2  1  0  0  0  0
  8 13  1  0  0  0  0
  9  8  2  0  0  0  0
  9 10  1  0  0  0  0
 10 11  2  0  0  0  0
 11 12  1  0  0  0  0
 12 16  1  0  0  0  0
 13 12  2  0  0  0  0
 14  8  1  0  0  0  0
 15 10  1  0  0  0  0
 16 17  1  0  0  0  0
 17 18  1  0  0  0  0
 19 22  1  0  0  0  0
 19 21  1  0  0  0  0
 20 19  1  0  0  0  0
M  END
>  <minimizedAffinity>
-4.51617956

>  <minimizedRMSD>
0.365237415

$$$$
