
     RDKit          3D

 38 40  0  0  0  0  0  0  0  0999 V2000
   48.0765   35.4740   41.8052 C   0  0  1  0  0  0  0  0  0  0  0  0
   49.3193   34.7003   41.6914 C   0  0  0  0  0  0  0  0  0  0  0  0
   48.4810   35.0822   40.4567 C   0  0  1  0  0  0  0  0  0  0  0  0
   46.0532   32.9289   43.7520 C   0  0  0  0  0  0  0  0  0  0  0  0
   47.1440   33.6156   43.2280 C   0  0  0  0  0  0  0  0  0  0  0  0
   46.9146   34.7268   42.3945 C   0  0  0  0  0  0  0  0  0  0  0  0
   45.6359   35.0945   42.1272 N   0  0  0  0  0  0  0  0  0  0  0  0
   44.5869   34.4121   42.6474 C   0  0  0  0  0  0  0  0  0  0  0  0
   44.7949   33.3310   43.4586 N   0  0  0  0  0  0  0  0  0  0  0  0
   47.7665   34.1394   39.8108 O   0  0  0  0  0  0  0  0  0  0  0  0
   48.5164   32.4017   37.9896 O   0  0  0  0  0  0  0  0  0  0  0  0
   48.0934   33.8508   38.2348 P   0  0  2  0  0  0  0  0  0  0  0  0
   49.3391   34.7966   37.5797 O   0  0  0  0  0  0  0  0  0  0  0  0
   46.7369   34.0726   37.2742 O   0  0  0  0  0  0  0  0  0  0  0  0
   45.7919   33.0912   37.0266 C   0  0  0  0  0  0  0  0  0  0  0  0
   45.6502   32.2820   35.9168 C   0  0  0  0  0  0  0  0  0  0  0  0
   44.6594   31.3534   35.8198 C   0  0  0  0  0  0  0  0  0  0  0  0
   43.7587   31.1983   36.8483 C   0  0  0  0  0  0  0  0  0  0  0  0
   43.9302   32.0330   37.9572 C   0  0  0  0  0  0  0  0  0  0  0  0
   44.9199   32.9458   38.0301 N   0  0  0  0  0  0  0  0  0  0  0  0
   48.0966   36.5261   42.1268 H   0  0  0  0  0  0  0  0  0  0  0  0
   50.2949   35.1836   41.8093 H   0  0  0  0  0  0  0  0  0  0  0  0
   49.3041   33.5838   41.8471 H   0  0  0  0  0  0  0  0  0  0  0  0
   49.0062   35.8115   39.8118 H   0  0  0  0  0  0  0  0  0  0  0  0
   46.2154   32.0756   44.3924 H   0  0  0  0  0  0  0  0  0  0  0  0
   48.1218   33.2831   43.4717 H   0  0  0  0  0  0  0  0  0  0  0  0
   43.5938   34.7657   42.3884 H   0  0  0  0  0  0  0  0  0  0  0  0
   50.1979   34.3362   37.5528 H   0  0  0  0  0  0  0  0  0  0  0  0
   46.4029   32.4665   35.1464 H   0  0  0  0  0  0  0  0  0  0  0  0
   44.6339   30.7680   34.9075 H   0  0  0  0  0  0  0  0  0  0  0  0
   42.9978   30.4653   36.7417 H   0  0  0  0  0  0  0  0  0  0  0  0
   42.9540   31.8793   39.0952 C   0  0  0  0  0  0  0  0  0  0  0  0
   43.0130   33.0355   40.0337 C   0  0  0  0  0  0  0  0  0  0  0  0
   44.0408   33.1451   40.4171 H   0  0  0  0  0  0  0  0  0  0  0  0
   43.1454   30.9263   39.5837 H   0  0  0  0  0  0  0  0  0  0  0  0
   41.9241   31.8000   38.6481 H   0  0  0  0  0  0  0  0  0  0  0  0
   42.3717   32.7631   40.9053 H   0  0  0  0  0  0  0  0  0  0  0  0
   42.5716   33.9454   39.6025 H   0  0  0  0  0  0  0  0  0  0  0  0
  1  6  1  0
  2  1  1  0
  3  2  1  0
  3  1  1  0
  5  4  2  0
  6  5  1  0
  7  6  2  0
  7  8  1  0
  8  9  2  0
  9  4  1  0
 10  3  1  0
 12 11  2  0
 12 10  1  1
 13 12  1  0
 14 12  1  0
 15 14  1  0
 15 20  1  0
 16 15  2  0
 17 16  1  0
 17 18  2  0
 18 19  1  0
 19 20  2  0
  1 21  1  6
  2 22  1  0
  2 23  1  0
  3 24  1  6
  4 25  1  0
  5 26  1  0
  8 27  1  0
 13 28  1  0
 16 29  1  0
 17 30  1  0
 18 31  1  0
 32 33  1  0
 33 34  1  0
 32 35  1  0
 32 36  1  0
 33 37  1  0
 33 38  1  0
 19 32  1  0
M  ISO  8  21  13  22  13  23  13  24  13  25  14  26  14  27  14  28   3
M  ISO  4  29  14  30  14  31  14  34   8
M  END
>  <DihAtoms>  (1) 
17,18,31,32

>  <DihDeg>  (1) 
0.0005002249526742072

$$$$
