
 OpenBabel03252504323D

 34 35  0  0  0  0  0  0  0  0999 V2000
   43.8420   35.1790   40.9980 C   0  0  0  0  0  3  0  0  0  0  0  0
   43.9110   35.5940   42.2580 C   0  0  0  0  0  3  0  0  0  0  0  0
   45.1560   35.6060   43.1270 C   0  0  0  0  0  0  0  0  0  0  0  0
   45.9690   35.2270   42.4660 H   0  0  0  0  0  0  0  0  0  0  0  0
   45.3810   36.6300   43.4910 H   0  0  0  0  0  0  0  0  0  0  0  0
   44.9390   34.7320   44.1690 O   0  0  0  0  0  0  0  0  0  0  0  0
   45.7050   32.5790   42.8010 O   0  0  0  0  0  0  0  0  0  0  0  0
   45.9470   33.3860   44.0550 P   0  0  1  0  0  0  0  0  0  0  0  0
   47.5790   33.8870   44.0160 O   0  0  0  0  0  0  0  0  0  0  0  0
   47.7040   34.7460   44.4900 H   0  0  0  0  0  0  0  0  0  0  0  0
   45.7650   32.4070   45.4180 O   0  0  0  0  0  0  0  0  0  0  0  0
   46.0690   33.0740   46.5870 C   0  0  0  0  0  0  0  0  0  0  0  0
   46.9650   32.3990   47.5810 C   0  0  0  0  0  0  0  0  0  0  0  0
   45.4800   32.4850   47.8470 C   0  0  0  0  0  0  0  0  0  0  0  0
   46.1540   34.1780   46.5360 H   0  0  0  0  0  0  0  0  0  0  0  0
   47.3290   31.3980   47.2690 H   0  0  0  0  0  0  0  0  0  0  0  0
   47.5870   32.9950   48.2570 H   0  0  0  0  0  0  0  0  0  0  0  0
   45.1100   33.1420   48.6500 H   0  0  0  0  0  0  0  0  0  0  0  0
   44.8930   31.5480   47.7730 H   0  0  0  0  0  0  0  0  0  0  0  0
   42.5940   35.2570   40.4010 O   0  0  0  0  0  0  0  0  0  0  0  0
   41.4030   35.5980   40.9740 C   0  0  0  0  0  0  0  0  0  0  0  0
   41.4020   35.8510   42.0550 H   0  0  0  0  0  0  0  0  0  0  0  0
   40.9570   36.4680   40.4460 H   0  0  0  0  0  0  0  0  0  0  0  0
   40.6960   33.3490   41.6320 C   0  0  0  0  0  0  0  0  0  0  0  0
   40.3790   34.5040   40.8790 C   0  0  0  0  0  0  0  0  0  0  0  0
   39.2140   34.4970   40.1790 C   0  0  0  0  0  0  0  0  0  0  0  0
   38.4640   33.4100   40.2560 N   0  0  0  0  0  0  0  0  0  0  0  0
   38.7500   32.3280   40.9540 C   0  0  0  0  0  0  0  0  0  0  0  0
   39.9260   32.2560   41.6980 N   0  0  0  0  0  0  0  0  0  0  0  0
   41.5960   33.2460   42.2250 H   0  0  0  0  0  0  0  0  0  0  0  0
   39.0220   35.4110   39.6200 H   0  0  0  0  0  0  0  0  0  0  0  0
   37.8270   31.1680   40.9620 C   0  0  0  0  0  2  0  0  0  0  0  0
   38.0190   30.3490   39.6870 C   0  0  0  0  0  2  0  0  0  0  0  0
   38.7340   30.8670   38.9850 H   0  0  0  0  0  0  0  0  0  0  0  0
  1  2  2  0  0  0  0
  2  3  1  0  0  0  0
  3  5  1  0  0  0  0
  3  6  1  0  0  0  0
  4  3  1  0  0  0  0
  8  7  2  6  0  0  0
  8  6  1  0  0  0  0
  8 11  1  0  0  0  0
  9  8  1  0  0  0  0
  9 10  1  0  0  0  0
 11 12  1  0  0  0  0
 12 13  1  0  0  0  0
 12 14  1  0  0  0  0
 13 14  1  0  0  0  0
 13 17  1  0  0  0  0
 14 18  1  0  0  0  0
 15 12  1  0  0  0  0
 16 13  1  0  0  0  0
 19 14  1  0  0  0  0
 20 21  1  0  0  0  0
 20  1  1  0  0  0  0
 21 22  1  0  0  0  0
 23 21  1  0  0  0  0
 24 29  1  0  0  0  0
 24 30  1  0  0  0  0
 25 21  1  0  0  0  0
 25 24  2  0  0  0  0
 26 27  2  0  0  0  0
 26 25  1  0  0  0  0
 27 28  1  0  0  0  0
 28 32  1  0  0  0  0
 28 29  2  0  0  0  0
 31 26  1  0  0  0  0
 33 32  1  0  0  0  0
 34 33  1  0  0  0  0
M  END
>  <minimizedAffinity>
-4.75969744

>  <minimizedRMSD>
0.597051859

$$$$
