
 OpenBabel03252504323D

 34 35  0  0  0  0  0  0  0  0999 V2000
   43.8210   35.1900   40.9890 C   0  0  0  0  0  3  0  0  0  0  0  0
   43.8930   35.5880   42.2540 C   0  0  0  0  0  3  0  0  0  0  0  0
   45.1430   35.6030   43.1150 C   0  0  0  0  0  0  0  0  0  0  0  0
   45.9520   35.2210   42.4510 H   0  0  0  0  0  0  0  0  0  0  0  0
   45.3700   36.6280   43.4740 H   0  0  0  0  0  0  0  0  0  0  0  0
   44.9320   34.7330   44.1620 O   0  0  0  0  0  0  0  0  0  0  0  0
   45.7020   32.5800   42.7960 O   0  0  0  0  0  0  0  0  0  0  0  0
   45.9420   33.3880   44.0490 P   0  0  1  0  0  0  0  0  0  0  0  0
   47.5730   33.8910   44.0110 O   0  0  0  0  0  0  0  0  0  0  0  0
   47.6970   34.7500   44.4850 H   0  0  0  0  0  0  0  0  0  0  0  0
   45.7600   32.4090   45.4120 O   0  0  0  0  0  0  0  0  0  0  0  0
   46.0680   33.0750   46.5810 C   0  0  0  0  0  0  0  0  0  0  0  0
   46.9760   32.4030   47.5670 C   0  0  0  0  0  0  0  0  0  0  0  0
   45.4920   32.4780   47.8430 C   0  0  0  0  0  0  0  0  0  0  0  0
   46.1450   34.1800   46.5320 H   0  0  0  0  0  0  0  0  0  0  0  0
   47.3440   31.4060   47.2490 H   0  0  0  0  0  0  0  0  0  0  0  0
   47.5980   33.0030   48.2400 H   0  0  0  0  0  0  0  0  0  0  0  0
   45.1240   33.1300   48.6510 H   0  0  0  0  0  0  0  0  0  0  0  0
   44.9110   31.5370   47.7710 H   0  0  0  0  0  0  0  0  0  0  0  0
   42.5690   35.2610   40.4000 O   0  0  0  0  0  0  0  0  0  0  0  0
   41.3790   35.5930   40.9830 C   0  0  0  0  0  0  0  0  0  0  0  0
   41.3830   35.8370   42.0660 H   0  0  0  0  0  0  0  0  0  0  0  0
   40.9270   36.4650   40.4640 H   0  0  0  0  0  0  0  0  0  0  0  0
   40.6730   33.3440   41.6460 C   0  0  0  0  0  0  0  0  0  0  0  0
   40.3590   34.4940   40.8850 C   0  0  0  0  0  0  0  0  0  0  0  0
   39.2000   34.4800   40.1750 C   0  0  0  0  0  0  0  0  0  0  0  0
   38.4530   33.3910   40.2510 N   0  0  0  0  0  0  0  0  0  0  0  0
   38.7360   32.3150   40.9570 C   0  0  0  0  0  0  0  0  0  0  0  0
   39.9060   32.2500   41.7120 N   0  0  0  0  0  0  0  0  0  0  0  0
   41.5680   33.2480   42.2470 H   0  0  0  0  0  0  0  0  0  0  0  0
   39.0110   35.3910   39.6090 H   0  0  0  0  0  0  0  0  0  0  0  0
   37.8170   31.1510   40.9630 C   0  0  0  0  0  2  0  0  0  0  0  0
   38.5090   29.9510   41.6060 C   0  0  0  0  0  2  0  0  0  0  0  0
   39.5890   30.1870   41.8290 H   0  0  0  0  0  0  0  0  0  0  0  0
  1  2  2  0  0  0  0
  2  3  1  0  0  0  0
  3  5  1  0  0  0  0
  3  6  1  0  0  0  0
  4  3  1  0  0  0  0
  8  7  2  6  0  0  0
  8  6  1  0  0  0  0
  8 11  1  0  0  0  0
  9  8  1  0  0  0  0
  9 10  1  0  0  0  0
 11 12  1  0  0  0  0
 12 13  1  0  0  0  0
 12 14  1  0  0  0  0
 13 14  1  0  0  0  0
 13 17  1  0  0  0  0
 14 18  1  0  0  0  0
 15 12  1  0  0  0  0
 16 13  1  0  0  0  0
 19 14  1  0  0  0  0
 20 21  1  0  0  0  0
 20  1  1  0  0  0  0
 21 22  1  0  0  0  0
 23 21  1  0  0  0  0
 24 29  1  0  0  0  0
 24 30  1  0  0  0  0
 25 21  1  0  0  0  0
 25 24  2  0  0  0  0
 26 27  2  0  0  0  0
 26 25  1  0  0  0  0
 27 28  1  0  0  0  0
 28 32  1  0  0  0  0
 28 29  2  0  0  0  0
 31 26  1  0  0  0  0
 32 33  1  0  0  0  0
 33 34  1  0  0  0  0
M  END
>  <minimizedAffinity>
-4.69604111

>  <minimizedRMSD>
0.524070621

$$$$
