
 OpenBabel03242520343D

 22 23  0  0  1  0  0  0  0  0999 V2000
   37.6580   28.4330   43.3900 C   0  0  1  0  0  0  0  0  0  0  0  0
   36.5490   27.5200   43.5720 C   0  0  0  0  0  0  0  0  0  0  0  0
   37.7550   26.9970   42.8840 C   0  0  1  0  0  0  0  0  0  0  0  0
   38.3250   28.6570   44.2620 H   0  0  0  0  0  0  0  0  0  0  0  0
   35.6720   27.6590   42.8910 H   0  0  0  0  0  0  0  0  0  0  0  0
   36.2370   27.1380   44.5630 H   0  0  0  0  0  0  0  0  0  0  0  0
   38.3800   26.3010   43.4990 H   0  0  0  0  0  0  0  0  0  0  0  0
   36.3450   29.8800   41.7570 C   0  0  0  0  0  0  0  0  0  0  0  0
   37.5830   29.5200   42.3840 C   0  0  0  0  0  0  0  0  0  0  0  0
   38.7090   30.2230   42.0000 C   0  0  0  0  0  0  0  0  0  0  0  0
   38.5960   31.1960   41.0700 N   0  0  0  0  0  0  0  0  0  0  0  0
   37.4240   31.5120   40.4970 C   0  0  0  0  0  0  0  0  0  0  0  0
   36.2980   30.8460   40.8490 N   0  0  0  0  0  0  0  0  0  0  0  0
   35.4480   29.3370   42.0480 H   0  0  0  0  0  0  0  0  0  0  0  0
   39.6830   30.0160   42.4220 H   0  0  0  0  0  0  0  0  0  0  0  0
   37.2380   32.5710   39.4710 C   0  0  0  0  0  2  0  0  0  0  0  0
   37.8770   33.8760   39.8720 C   0  0  0  0  0  2  0  0  0  0  0  0
   38.9790   33.8180   39.6820 H   0  0  0  0  0  0  0  0  0  0  0  0
   37.7540   26.7120   41.4260 C   0  0  0  0  0  0  0  0  0  0  0  0
   38.7610   27.3890   40.7580 F   0  0  0  0  0  0  0  0  0  0  0  0
   36.5300   27.0310   40.8350 F   0  0  0  0  0  0  0  0  0  0  0  0
   37.9930   25.3700   41.2520 F   0  0  0  0  0  0  0  0  0  0  0  0
  1  2  1  0  0  0  0
  1  4  1  1  0  0  0
  2  6  1  0  0  0  0
  3  1  1  0  0  0  0
  3  7  1  1  0  0  0
  3  2  1  0  0  0  0
  5  2  1  0  0  0  0
  8 14  1  0  0  0  0
  8  9  1  0  0  0  0
  9  1  1  0  0  0  0
 10  9  2  0  0  0  0
 10 15  1  0  0  0  0
 11 10  1  0  0  0  0
 12 13  1  0  0  0  0
 12 11  2  0  0  0  0
 13  8  2  0  0  0  0
 16 17  1  0  0  0  0
 16 12  1  0  0  0  0
 18 17  1  0  0  0  0
 19  3  1  0  0  0  0
 20 19  1  0  0  0  0
 21 19  1  0  0  0  0
 22 19  1  0  0  0  0
M  END
>  <minimizedAffinity>
-4.52669287

$$$$

 OpenBabel03242520343D

 22 23  0  0  1  0  0  0  0  0999 V2000
   39.3400   27.5930   42.1460 C   0  0  1  0  0  0  0  0  0  0  0  0
   39.3280   27.1930   43.5380 C   0  0  0  0  0  0  0  0  0  0  0  0
   38.1030   26.9300   42.7440 C   0  0  1  0  0  0  0  0  0  0  0  0
   39.8870   26.9570   41.4040 H   0  0  0  0  0  0  0  0  0  0  0  0
   39.2040   28.0110   44.2920 H   0  0  0  0  0  0  0  0  0  0  0  0
   39.9500   26.3670   43.9350 H   0  0  0  0  0  0  0  0  0  0  0  0
   37.9430   25.8550   42.4730 H   0  0  0  0  0  0  0  0  0  0  0  0
   39.7500   30.0600   42.6290 C   0  0  0  0  0  0  0  0  0  0  0  0
   39.2470   29.0260   41.7730 C   0  0  0  0  0  0  0  0  0  0  0  0
   38.6570   29.4210   40.5880 C   0  0  0  0  0  0  0  0  0  0  0  0
   38.5810   30.7380   40.2950 N   0  0  0  0  0  0  0  0  0  0  0  0
   39.0600   31.6870   41.1140 C   0  0  0  0  0  0  0  0  0  0  0  0
   39.6470   31.3370   42.2840 N   0  0  0  0  0  0  0  0  0  0  0  0
   40.2180   29.7650   43.5650 H   0  0  0  0  0  0  0  0  0  0  0  0
   38.2510   28.7070   39.8850 H   0  0  0  0  0  0  0  0  0  0  0  0
   39.0070   33.1480   40.8460 C   0  0  0  0  0  2  0  0  0  0  0  0
   37.8700   33.5200   39.9290 C   0  0  0  0  0  2  0  0  0  0  0  0
   36.9170   33.5450   40.5180 H   0  0  0  0  0  0  0  0  0  0  0  0
   36.8580   27.7110   42.9560 C   0  0  0  0  0  0  0  0  0  0  0  0
   36.2320   28.0350   41.7630 F   0  0  0  0  0  0  0  0  0  0  0  0
   37.0970   28.8860   43.6700 F   0  0  0  0  0  0  0  0  0  0  0  0
   35.9780   26.9310   43.6670 F   0  0  0  0  0  0  0  0  0  0  0  0
  1  4  1  6  0  0  0
  1  3  1  0  0  0  0
  1  2  1  0  0  0  0
  2  6  1  0  0  0  0
  2  5  1  0  0  0  0
  3  7  1  6  0  0  0
  3 19  1  0  0  0  0
  3  2  1  0  0  0  0
  8 14  1  0  0  0  0
  9  1  1  0  0  0  0
  9  8  2  0  0  0  0
 10  9  1  0  0  0  0
 11 10  2  0  0  0  0
 11 12  1  0  0  0  0
 12 13  2  0  0  0  0
 13  8  1  0  0  0  0
 15 10  1  0  0  0  0
 16 12  1  0  0  0  0
 17 18  1  0  0  0  0
 17 16  1  0  0  0  0
 19 22  1  0  0  0  0
 19 21  1  0  0  0  0
 20 19  1  0  0  0  0
M  END
>  <minimizedAffinity>
-4.43658733

$$$$

 OpenBabel03242520343D

 22 23  0  0  1  0  0  0  0  0999 V2000
   36.6330   27.6430   42.3940 C   0  0  1  0  0  0  0  0  0  0  0  0
   37.1980   26.3320   42.1500 C   0  0  0  0  0  0  0  0  0  0  0  0
   37.8780   27.1900   43.1510 C   0  0  1  0  0  0  0  0  0  0  0  0
   35.7160   27.7280   43.0300 H   0  0  0  0  0  0  0  0  0  0  0  0
   37.7790   26.2060   41.2020 H   0  0  0  0  0  0  0  0  0  0  0  0
   36.6910   25.3920   42.4430 H   0  0  0  0  0  0  0  0  0  0  0  0
   37.7190   26.8830   44.2160 H   0  0  0  0  0  0  0  0  0  0  0  0
   36.7040   30.1100   41.7640 C   0  0  0  0  0  0  0  0  0  0  0  0
   36.7870   28.7270   41.3930 C   0  0  0  0  0  0  0  0  0  0  0  0
   37.0030   28.4460   40.0580 C   0  0  0  0  0  0  0  0  0  0  0  0
   37.1230   29.4650   39.1790 N   0  0  0  0  0  0  0  0  0  0  0  0
   37.0410   30.7510   39.5520 C   0  0  0  0  0  0  0  0  0  0  0  0
   36.8310   31.0660   40.8530 N   0  0  0  0  0  0  0  0  0  0  0  0
   36.5350   30.3480   42.8110 H   0  0  0  0  0  0  0  0  0  0  0  0
   37.0780   27.4310   39.6920 H   0  0  0  0  0  0  0  0  0  0  0  0
   37.1650   31.9130   38.6330 C   0  0  0  0  0  2  0  0  0  0  0  0
   37.2660   33.2210   39.3740 C   0  0  0  0  0  2  0  0  0  0  0  0
   38.3130   33.3480   39.7530 H   0  0  0  0  0  0  0  0  0  0  0  0
   39.1970   27.8120   42.8720 C   0  0  0  0  0  0  0  0  0  0  0  0
   39.2160   29.1630   43.1790 F   0  0  0  0  0  0  0  0  0  0  0  0
   39.5760   27.6510   41.5390 F   0  0  0  0  0  0  0  0  0  0  0  0
   40.1340   27.2090   43.6750 F   0  0  0  0  0  0  0  0  0  0  0  0
  1  4  1  1  0  0  0
  1  3  1  0  0  0  0
  2  1  1  0  0  0  0
  2  6  1  0  0  0  0
  2  3  1  0  0  0  0
  3  7  1  1  0  0  0
  5  2  1  0  0  0  0
  8 14  1  0  0  0  0
  9  8  1  0  0  0  0
  9  1  1  0  0  0  0
 10  9  2  0  0  0  0
 11 12  2  0  0  0  0
 11 10  1  0  0  0  0
 12 13  1  0  0  0  0
 13  8  2  0  0  0  0
 15 10  1  0  0  0  0
 16 17  1  0  0  0  0
 16 12  1  0  0  0  0
 17 18  1  0  0  0  0
 19  3  1  0  0  0  0
 19 20  1  0  0  0  0
 19 22  1  0  0  0  0
 21 19  1  0  0  0  0
M  END
>  <minimizedAffinity>
-4.41600657

$$$$

 OpenBabel03242520343D

 22 23  0  0  1  0  0  0  0  0999 V2000
   39.3400   27.3560   42.2940 C   0  0  1  0  0  0  0  0  0  0  0  0
   38.9860   27.1270   43.6800 C   0  0  0  0  0  0  0  0  0  0  0  0
   38.4640   26.1670   42.6760 C   0  0  1  0  0  0  0  0  0  0  0  0
   40.3660   27.0750   41.9430 H   0  0  0  0  0  0  0  0  0  0  0  0
   38.1980   27.7940   44.1110 H   0  0  0  0  0  0  0  0  0  0  0  0
   39.7210   26.8180   44.4480 H   0  0  0  0  0  0  0  0  0  0  0  0
   38.9680   25.1670   42.6780 H   0  0  0  0  0  0  0  0  0  0  0  0
   38.7330   28.4910   40.0970 C   0  0  0  0  0  0  0  0  0  0  0  0
   38.7130   28.4620   41.5300 C   0  0  0  0  0  0  0  0  0  0  0  0
   38.0950   29.5180   42.1720 C   0  0  0  0  0  0  0  0  0  0  0  0
   37.5500   30.5110   41.4360 N   0  0  0  0  0  0  0  0  0  0  0  0
   37.5830   30.5140   40.0940 C   0  0  0  0  0  0  0  0  0  0  0  0
   38.1790   29.4950   39.4300 N   0  0  0  0  0  0  0  0  0  0  0  0
   39.2150   27.6670   39.5760 H   0  0  0  0  0  0  0  0  0  0  0  0
   38.0360   29.5760   43.2490 H   0  0  0  0  0  0  0  0  0  0  0  0
   37.0000   31.5760   39.2320 C   0  0  0  0  0  2  0  0  0  0  0  0
   37.4260   32.9570   39.6590 C   0  0  0  0  0  2  0  0  0  0  0  0
   38.4630   33.1540   39.2830 H   0  0  0  0  0  0  0  0  0  0  0  0
   37.0270   26.1400   42.3030 C   0  0  0  0  0  0  0  0  0  0  0  0
   36.8360   26.2870   40.9390 F   0  0  0  0  0  0  0  0  0  0  0  0
   36.2990   27.1290   42.9660 F   0  0  0  0  0  0  0  0  0  0  0  0
   36.5180   24.9100   42.6450 F   0  0  0  0  0  0  0  0  0  0  0  0
  1  4  1  6  0  0  0
  1  3  1  0  0  0  0
  1  2  1  0  0  0  0
  2  5  1  0  0  0  0
  2  6  1  0  0  0  0
  3  7  1  6  0  0  0
  3  2  1  0  0  0  0
  8  9  1  0  0  0  0
  9 10  2  0  0  0  0
  9  1  1  0  0  0  0
 10 15  1  0  0  0  0
 11 10  1  0  0  0  0
 12 11  2  0  0  0  0
 13 12  1  0  0  0  0
 13  8  2  0  0  0  0
 14  8  1  0  0  0  0
 16 17  1  0  0  0  0
 16 12  1  0  0  0  0
 18 17  1  0  0  0  0
 19 22  1  0  0  0  0
 19  3  1  0  0  0  0
 19 21  1  0  0  0  0
 20 19  1  0  0  0  0
M  END
>  <minimizedAffinity>
-4.3744688

$$$$

 OpenBabel03242520343D

 22 23  0  0  1  0  0  0  0  0999 V2000
   36.9490   32.4330   40.2050 C   0  0  1  0  0  0  0  0  0  0  0  0
   38.1960   33.0770   39.8500 C   0  0  0  0  0  0  0  0  0  0  0  0
   37.3240   32.6230   38.7390 C   0  0  1  0  0  0  0  0  0  0  0  0
   36.0890   33.0650   40.5440 H   0  0  0  0  0  0  0  0  0  0  0  0
   39.1260   32.4660   39.9660 H   0  0  0  0  0  0  0  0  0  0  0  0
   38.3930   34.1520   40.0290 H   0  0  0  0  0  0  0  0  0  0  0  0
   36.7890   33.4450   38.1980 H   0  0  0  0  0  0  0  0  0  0  0  0
   38.0970   30.4870   41.3820 C   0  0  0  0  0  0  0  0  0  0  0  0
   36.9430   31.0510   40.7450 C   0  0  0  0  0  0  0  0  0  0  0  0
   35.8240   30.2460   40.6430 C   0  0  0  0  0  0  0  0  0  0  0  0
   35.8680   28.9890   41.1370 N   0  0  0  0  0  0  0  0  0  0  0  0
   36.9620   28.4850   41.7280 C   0  0  0  0  0  0  0  0  0  0  0  0
   38.0770   29.2450   41.8480 N   0  0  0  0  0  0  0  0  0  0  0  0
   38.9850   31.1070   41.4710 H   0  0  0  0  0  0  0  0  0  0  0  0
   34.9120   30.5910   40.1780 H   0  0  0  0  0  0  0  0  0  0  0  0
   37.0690   27.1130   42.2900 C   0  0  0  0  0  2  0  0  0  0  0  0
   38.1760   26.9940   43.3050 C   0  0  0  0  0  2  0  0  0  0  0  0
   37.8260   27.4180   44.2820 H   0  0  0  0  0  0  0  0  0  0  0  0
   37.6860   31.4550   37.8960 C   0  0  0  0  0  0  0  0  0  0  0  0
   36.6520   30.5390   37.7980 F   0  0  0  0  0  0  0  0  0  0  0  0
   38.8210   30.8010   38.3760 F   0  0  0  0  0  0  0  0  0  0  0  0
   37.9400   31.9070   36.6230 F   0  0  0  0  0  0  0  0  0  0  0  0
  1  4  1  1  0  0  0
  1  9  1  0  0  0  0
  2  5  1  0  0  0  0
  2  6  1  0  0  0  0
  2  1  1  0  0  0  0
  3  7  1  6  0  0  0
  3  2  1  0  0  0  0
  3  1  1  0  0  0  0
  8 14  1  0  0  0  0
  8 13  1  0  0  0  0
  9  8  2  0  0  0  0
 10  9  1  0  0  0  0
 10 11  2  0  0  0  0
 11 12  1  0  0  0  0
 12 13  2  0  0  0  0
 12 16  1  0  0  0  0
 15 10  1  0  0  0  0
 16 17  1  0  0  0  0
 17 18  1  0  0  0  0
 19 21  1  0  0  0  0
 19  3  1  0  0  0  0
 20 19  1  0  0  0  0
 22 19  1  0  0  0  0
M  END
>  <minimizedAffinity>
-4.28428793

$$$$

 OpenBabel03242520343D

 22 23  0  0  1  0  0  0  0  0999 V2000
   39.6780   31.8600   40.0610 C   0  0  1  0  0  0  0  0  0  0  0  0
   39.7010   32.1900   38.6520 C   0  0  0  0  0  0  0  0  0  0  0  0
   38.8450   33.0220   39.5320 C   0  0  1  0  0  0  0  0  0  0  0  0
   40.5410   32.1700   40.7050 H   0  0  0  0  0  0  0  0  0  0  0  0
   39.1210   31.5180   37.9710 H   0  0  0  0  0  0  0  0  0  0  0  0
   40.5910   32.6110   38.1440 H   0  0  0  0  0  0  0  0  0  0  0  0
   39.2440   34.0470   39.7400 H   0  0  0  0  0  0  0  0  0  0  0  0
   38.7010   30.4360   41.9330 C   0  0  0  0  0  0  0  0  0  0  0  0
   38.9600   30.6530   40.5400 C   0  0  0  0  0  0  0  0  0  0  0  0
   38.5230   29.6810   39.6600 C   0  0  0  0  0  0  0  0  0  0  0  0
   37.8860   28.5930   40.1420 N   0  0  0  0  0  0  0  0  0  0  0  0
   37.6560   28.4130   41.4530 C   0  0  0  0  0  0  0  0  0  0  0  0
   38.0690   29.3450   42.3450 N   0  0  0  0  0  0  0  0  0  0  0  0
   39.0380   31.1920   42.6390 H   0  0  0  0  0  0  0  0  0  0  0  0
   38.6770   29.7650   38.5940 H   0  0  0  0  0  0  0  0  0  0  0  0
   36.9610   27.2380   42.0410 C   0  0  0  0  0  2  0  0  0  0  0  0
   36.5540   27.4720   43.4730 C   0  0  0  0  0  2  0  0  0  0  0  0
   35.6220   28.0940   43.4930 H   0  0  0  0  0  0  0  0  0  0  0  0
   37.3630   32.9280   39.4870 C   0  0  0  0  0  0  0  0  0  0  0  0
   36.7650   34.1610   39.2840 F   0  0  0  0  0  0  0  0  0  0  0  0
   36.8440   32.3650   40.6540 F   0  0  0  0  0  0  0  0  0  0  0  0
   37.0160   32.1370   38.4200 F   0  0  0  0  0  0  0  0  0  0  0  0
  1  9  1  0  0  0  0
  1  4  1  1  0  0  0
  2  3  1  0  0  0  0
  2  1  1  0  0  0  0
  3  7  1  1  0  0  0
  3  1  1  0  0  0  0
  5  2  1  0  0  0  0
  6  2  1  0  0  0  0
  8 13  1  0  0  0  0
  8 14  1  0  0  0  0
  9  8  2  0  0  0  0
 10 11  2  0  0  0  0
 10  9  1  0  0  0  0
 11 12  1  0  0  0  0
 12 16  1  0  0  0  0
 12 13  2  0  0  0  0
 15 10  1  0  0  0  0
 16 17  1  0  0  0  0
 17 18  1  0  0  0  0
 19  3  1  0  0  0  0
 19 21  1  0  0  0  0
 20 19  1  0  0  0  0
 22 19  1  0  0  0  0
M  END
>  <minimizedAffinity>
-4.24563885

$$$$

 OpenBabel03242520343D

 22 23  0  0  1  0  0  0  0  0999 V2000
   35.9140   28.4930   39.5740 C   0  0  1  0  0  0  0  0  0  0  0  0
   34.7480   29.2670   39.9460 C   0  0  0  0  0  0  0  0  0  0  0  0
   35.8620   29.9910   39.2870 C   0  0  1  0  0  0  0  0  0  0  0  0
   35.8690   27.8490   38.6590 H   0  0  0  0  0  0  0  0  0  0  0  0
   34.6360   29.5120   41.0320 H   0  0  0  0  0  0  0  0  0  0  0  0
   33.7620   29.1480   39.4540 H   0  0  0  0  0  0  0  0  0  0  0  0
   35.6670   30.2790   38.2230 H   0  0  0  0  0  0  0  0  0  0  0  0
   36.5220   28.0190   42.0020 C   0  0  0  0  0  0  0  0  0  0  0  0
   36.8650   28.0190   40.6100 C   0  0  0  0  0  0  0  0  0  0  0  0
   38.1270   27.5690   40.2730 C   0  0  0  0  0  0  0  0  0  0  0  0
   38.9650   27.1590   41.2490 N   0  0  0  0  0  0  0  0  0  0  0  0
   38.6190   27.1700   42.5460 C   0  0  0  0  0  0  0  0  0  0  0  0
   37.3890   27.6030   42.9150 N   0  0  0  0  0  0  0  0  0  0  0  0
   35.5320   28.3690   42.2840 H   0  0  0  0  0  0  0  0  0  0  0  0
   38.4670   27.5360   39.2470 H   0  0  0  0  0  0  0  0  0  0  0  0
   39.4960   26.7310   43.6630 C   0  0  0  0  0  2  0  0  0  0  0  0
   39.9670   25.3090   43.4970 C   0  0  0  0  0  2  0  0  0  0  0  0
   40.8110   25.2850   42.7610 H   0  0  0  0  0  0  0  0  0  0  0  0
   36.7280   30.9330   40.0400 C   0  0  0  0  0  0  0  0  0  0  0  0
   38.0640   30.5680   39.9940 F   0  0  0  0  0  0  0  0  0  0  0  0
   36.3390   31.0410   41.3760 F   0  0  0  0  0  0  0  0  0  0  0  0
   36.6330   32.1690   39.4490 F   0  0  0  0  0  0  0  0  0  0  0  0
  1  4  1  6  0  0  0
  1  2  1  0  0  0  0
  1  9  1  0  0  0  0
  2  5  1  0  0  0  0
  3  7  1  6  0  0  0
  3  1  1  0  0  0  0
  3  2  1  0  0  0  0
  3 19  1  0  0  0  0
  6  2  1  0  0  0  0
  8 14  1  0  0  0  0
  8 13  1  0  0  0  0
  9  8  2  0  0  0  0
 10  9  1  0  0  0  0
 10 11  2  0  0  0  0
 11 12  1  0  0  0  0
 12 13  2  0  0  0  0
 12 16  1  0  0  0  0
 15 10  1  0  0  0  0
 17 16  1  0  0  0  0
 18 17  1  0  0  0  0
 19 21  1  0  0  0  0
 20 19  1  0  0  0  0
 22 19  1  0  0  0  0
M  END
>  <minimizedAffinity>
-4.23986769

$$$$

 OpenBabel03242520343D

 22 23  0  0  1  0  0  0  0  0999 V2000
   38.2580   27.2960   40.6970 C   0  0  1  0  0  0  0  0  0  0  0  0
   39.0200   27.0460   41.9020 C   0  0  0  0  0  0  0  0  0  0  0  0
   37.5550   26.8260   41.9670 C   0  0  1  0  0  0  0  0  0  0  0  0
   38.2770   26.5350   39.8750 H   0  0  0  0  0  0  0  0  0  0  0  0
   39.3630   27.9460   42.4730 H   0  0  0  0  0  0  0  0  0  0  0  0
   39.7370   26.2070   42.0010 H   0  0  0  0  0  0  0  0  0  0  0  0
   37.2430   25.7510   41.9860 H   0  0  0  0  0  0  0  0  0  0  0  0
   36.9690   28.9900   39.2980 C   0  0  0  0  0  0  0  0  0  0  0  0
   38.0070   28.6850   40.2380 C   0  0  0  0  0  0  0  0  0  0  0  0
   38.7760   29.7400   40.6910 C   0  0  0  0  0  0  0  0  0  0  0  0
   38.5210   30.9860   40.2370 N   0  0  0  0  0  0  0  0  0  0  0  0
   37.5420   31.2450   39.3550 C   0  0  0  0  0  0  0  0  0  0  0  0
   36.7670   30.2360   38.8900 N   0  0  0  0  0  0  0  0  0  0  0  0
   36.3540   28.1710   38.9320 H   0  0  0  0  0  0  0  0  0  0  0  0
   39.5790   29.5980   41.4000 H   0  0  0  0  0  0  0  0  0  0  0  0
   37.2150   32.5930   38.8200 C   0  0  0  0  0  2  0  0  0  0  0  0
   37.6290   33.6970   39.7590 C   0  0  0  0  0  2  0  0  0  0  0  0
   38.7310   33.8710   39.6560 H   0  0  0  0  0  0  0  0  0  0  0  0
   36.6640   27.7470   42.7190 C   0  0  0  0  0  0  0  0  0  0  0  0
   35.6960   28.3170   41.9100 F   0  0  0  0  0  0  0  0  0  0  0  0
   37.3820   28.7660   43.3460 F   0  0  0  0  0  0  0  0  0  0  0  0
   36.0040   27.0160   43.6770 F   0  0  0  0  0  0  0  0  0  0  0  0
  1  4  1  6  0  0  0
  1  2  1  0  0  0  0
  1  3  1  0  0  0  0
  2  3  1  0  0  0  0
  2  6  1  0  0  0  0
  2  5  1  0  0  0  0
  3  7  1  6  0  0  0
  3 19  1  0  0  0  0
  8  9  1  0  0  0  0
  9 10  2  0  0  0  0
  9  1  1  0  0  0  0
 10 15  1  0  0  0  0
 11 10  1  0  0  0  0
 12 11  2  0  0  0  0
 13  8  2  0  0  0  0
 13 12  1  0  0  0  0
 14  8  1  0  0  0  0
 16 12  1  0  0  0  0
 16 17  1  0  0  0  0
 18 17  1  0  0  0  0
 19 21  1  0  0  0  0
 19 22  1  0  0  0  0
 20 19  1  0  0  0  0
M  END
>  <minimizedAffinity>
-4.15801144

$$$$

 OpenBabel03242520343D

 22 23  0  0  1  0  0  0  0  0999 V2000
   37.6180   24.5250   42.2220 C   0  0  1  0  0  0  0  0  0  0  0  0
   38.5610   23.7830   41.4100 C   0  0  0  0  0  0  0  0  0  0  0  0
   39.0710   24.3850   42.6660 C   0  0  1  0  0  0  0  0  0  0  0  0
   36.8890   23.9610   42.8580 H   0  0  0  0  0  0  0  0  0  0  0  0
   38.9350   24.2920   40.4870 H   0  0  0  0  0  0  0  0  0  0  0  0
   38.5080   22.6850   41.2750 H   0  0  0  0  0  0  0  0  0  0  0  0
   39.2630   23.6540   43.4920 H   0  0  0  0  0  0  0  0  0  0  0  0
   36.7740   26.8690   42.7480 C   0  0  0  0  0  0  0  0  0  0  0  0
   37.1500   25.8660   41.7950 C   0  0  0  0  0  0  0  0  0  0  0  0
   37.0440   26.1980   40.4580 C   0  0  0  0  0  0  0  0  0  0  0  0
   36.5990   27.4260   40.1150 N   0  0  0  0  0  0  0  0  0  0  0  0
   36.2530   28.3480   41.0280 C   0  0  0  0  0  0  0  0  0  0  0  0
   36.3440   28.0590   42.3480 N   0  0  0  0  0  0  0  0  0  0  0  0
   36.8520   26.6250   43.8050 H   0  0  0  0  0  0  0  0  0  0  0  0
   37.3050   25.5010   39.6740 H   0  0  0  0  0  0  0  0  0  0  0  0
   35.7590   29.7130   40.7110 C   0  0  0  0  0  2  0  0  0  0  0  0
   36.8010   30.7720   40.9640 C   0  0  0  0  0  2  0  0  0  0  0  0
   37.5260   30.7850   40.1090 H   0  0  0  0  0  0  0  0  0  0  0  0
   39.9800   25.5600   42.6500 C   0  0  0  0  0  0  0  0  0  0  0  0
   39.8740   26.2890   41.4770 F   0  0  0  0  0  0  0  0  0  0  0  0
   41.3130   25.1870   42.8280 F   0  0  0  0  0  0  0  0  0  0  0  0
   39.6140   26.3990   43.6740 F   0  0  0  0  0  0  0  0  0  0  0  0
  1  3  1  0  0  0  0
  1  4  1  1  0  0  0
  2  1  1  0  0  0  0
  2  3  1  0  0  0  0
  3  7  1  1  0  0  0
  5  2  1  0  0  0  0
  6  2  1  0  0  0  0
  8 14  1  0  0  0  0
  9  1  1  0  0  0  0
  9  8  2  0  0  0  0
 10  9  1  0  0  0  0
 11 10  2  0  0  0  0
 11 12  1  0  0  0  0
 12 13  2  0  0  0  0
 13  8  1  0  0  0  0
 15 10  1  0  0  0  0
 16 17  1  0  0  0  0
 16 12  1  0  0  0  0
 18 17  1  0  0  0  0
 19  3  1  0  0  0  0
 19 21  1  0  0  0  0
 19 22  1  0  0  0  0
 20 19  1  0  0  0  0
M  END
>  <minimizedAffinity>
-4.10350084

$$$$
