REMARK  Name = 
REMARK  8 active torsions:
REMARK  status: ('A' for Active; 'I' for Inactive)
REMARK    1  A    between atoms: C_1  and  C_6
REMARK    2  A    between atoms: C_3  and  O_10
REMARK    3  A    between atoms: O_10  and  P_12
REMARK    4  A    between atoms: P_12  and  O_13
REMARK    5  A    between atoms: P_12  and  O_14
REMARK    6  A    between atoms: O_14  and  C_15
REMARK    7  A    between atoms: C_19  and  C_32
REMARK    8  A    between atoms: C_32  and  C_33
REMARK                            x       y       z     vdW  Elec       q    Type
REMARK                         _______ _______ _______ _____ _____    ______ ____
ROOT
ATOM      1  O   UNL     1      47.767  34.139  39.811  0.00  0.00    +0.000 OA
ENDROOT
BRANCH   1   4
ATOM      2  C   UNL     1      48.077  35.474  41.805  0.00  0.00    +0.000 C 
ATOM      3  C   UNL     1      49.319  34.700  41.691  0.00  0.00    +0.000 C 
ATOM      4  C   UNL     1      48.481  35.082  40.457  0.00  0.00    +0.000 C 
ATOM      5  H   UNL     1      48.097  36.526  42.127  0.00  0.00    +0.000 HD
ATOM      6  H   UNL     1      50.295  35.184  41.809  0.00  0.00    +0.000 HD
ATOM      7  H   UNL     1      49.304  33.584  41.847  0.00  0.00    +0.000 HD
ATOM      8  H   UNL     1      49.006  35.812  39.812  0.00  0.00    +0.000 HD
BRANCH   2  11
ATOM      9  C   UNL     1      46.053  32.929  43.752  0.00  0.00    +0.000 A 
ATOM     10  C   UNL     1      47.144  33.616  43.228  0.00  0.00    +0.000 A 
ATOM     11  C   UNL     1      46.915  34.727  42.395  0.00  0.00    +0.000 A 
ATOM     12  N   UNL     1      45.636  35.094  42.127  0.00  0.00    +0.000 NA
ATOM     13  C   UNL     1      44.587  34.412  42.647  0.00  0.00    +0.000 A 
ATOM     14  N   UNL     1      44.795  33.331  43.459  0.00  0.00    +0.000 NA
ATOM     15  H   UNL     1      46.215  32.076  44.392  0.00  0.00    +0.000 HD
ATOM     16  H   UNL     1      48.122  33.283  43.472  0.00  0.00    +0.000 HD
ATOM     17  H   UNL     1      43.594  34.766  42.388  0.00  0.00    +0.000 HD
ENDBRANCH   2  11
ENDBRANCH   1   4
BRANCH   1  19
ATOM     18  O   UNL     1      48.516  32.402  37.990  0.00  0.00    +0.000 OA
ATOM     19  P   UNL     1      48.093  33.851  38.235  0.00  0.00    +0.000 P 
BRANCH  19  20
ATOM     20  O   UNL     1      49.339  34.797  37.580  0.00  0.00    +0.000 OA
ATOM     21  H   UNL     1      50.198  34.336  37.553  0.00  0.00    +0.000 HD
ENDBRANCH  19  20
BRANCH  19  22
ATOM     22  O   UNL     1      46.737  34.073  37.274  0.00  0.00    +0.000 OA
BRANCH  22  23
ATOM     23  C   UNL     1      45.792  33.091  37.027  0.00  0.00    +0.000 A 
ATOM     24  C   UNL     1      45.650  32.282  35.917  0.00  0.00    +0.000 A 
ATOM     25  C   UNL     1      44.659  31.353  35.820  0.00  0.00    +0.000 A 
ATOM     26  C   UNL     1      43.759  31.198  36.848  0.00  0.00    +0.000 A 
ATOM     27  C   UNL     1      43.930  32.033  37.957  0.00  0.00    +0.000 A 
ATOM     28  N   UNL     1      44.920  32.946  38.030  0.00  0.00    +0.000 NA
ATOM     29  H   UNL     1      46.403  32.467  35.146  0.00  0.00    +0.000 HD
ATOM     30  H   UNL     1      44.634  30.768  34.907  0.00  0.00    +0.000 HD
ATOM     31  H   UNL     1      42.998  30.465  36.742  0.00  0.00    +0.000 HD
BRANCH  27  32
ATOM     32  C   UNL     1      42.954  31.879  39.095  0.00  0.00    +0.000 C 
BRANCH  32  33
ATOM     33  C   UNL     1      43.013  33.035  40.034  0.00  0.00    +0.000 C 
ATOM     34  H   UNL     1      44.041  33.145  40.417  0.00  0.00    +0.000 HD
ENDBRANCH  32  33
ENDBRANCH  27  32
ENDBRANCH  22  23
ENDBRANCH  19  22
ENDBRANCH   1  19
TORSDOF 8
