
 OpenBabel03252504323D

 34 35  0  0  0  0  0  0  0  0999 V2000
   43.8420   35.1720   40.9980 C   0  0  0  0  0  3  0  0  0  0  0  0
   43.9100   35.5920   42.2570 C   0  0  0  0  0  3  0  0  0  0  0  0
   45.1550   35.6070   43.1260 C   0  0  0  0  0  0  0  0  0  0  0  0
   45.9690   35.2290   42.4660 H   0  0  0  0  0  0  0  0  0  0  0  0
   45.3770   36.6310   43.4890 H   0  0  0  0  0  0  0  0  0  0  0  0
   44.9390   34.7330   44.1690 O   0  0  0  0  0  0  0  0  0  0  0  0
   45.7040   32.5800   42.8000 O   0  0  0  0  0  0  0  0  0  0  0  0
   45.9480   33.3870   44.0530 P   0  0  1  0  0  0  0  0  0  0  0  0
   47.5790   33.8870   44.0140 O   0  0  0  0  0  0  0  0  0  0  0  0
   47.7040   34.7470   44.4880 H   0  0  0  0  0  0  0  0  0  0  0  0
   45.7660   32.4070   45.4160 O   0  0  0  0  0  0  0  0  0  0  0  0
   46.0700   33.0750   46.5860 C   0  0  0  0  0  0  0  0  0  0  0  0
   46.9670   32.4000   47.5790 C   0  0  0  0  0  0  0  0  0  0  0  0
   45.4820   32.4840   47.8450 C   0  0  0  0  0  0  0  0  0  0  0  0
   46.1530   34.1790   46.5350 H   0  0  0  0  0  0  0  0  0  0  0  0
   47.3320   31.4000   47.2660 H   0  0  0  0  0  0  0  0  0  0  0  0
   47.5880   32.9970   48.2550 H   0  0  0  0  0  0  0  0  0  0  0  0
   45.1120   33.1400   48.6490 H   0  0  0  0  0  0  0  0  0  0  0  0
   44.8970   31.5460   47.7710 H   0  0  0  0  0  0  0  0  0  0  0  0
   42.5950   35.2480   40.4000 O   0  0  0  0  0  0  0  0  0  0  0  0
   41.4030   35.5900   40.9720 C   0  0  0  0  0  0  0  0  0  0  0  0
   41.4020   35.8450   42.0520 H   0  0  0  0  0  0  0  0  0  0  0  0
   40.9570   36.4590   40.4410 H   0  0  0  0  0  0  0  0  0  0  0  0
   40.6990   33.3380   41.6260 C   0  0  0  0  0  0  0  0  0  0  0  0
   40.3790   34.4950   40.8780 C   0  0  0  0  0  0  0  0  0  0  0  0
   39.2100   34.4900   40.1840 C   0  0  0  0  0  0  0  0  0  0  0  0
   38.4610   33.4030   40.2600 N   0  0  0  0  0  0  0  0  0  0  0  0
   38.7510   32.3200   40.9540 C   0  0  0  0  0  0  0  0  0  0  0  0
   39.9300   32.2450   41.6930 N   0  0  0  0  0  0  0  0  0  0  0  0
   41.6020   33.2350   42.2150 H   0  0  0  0  0  0  0  0  0  0  0  0
   39.0160   35.4060   39.6280 H   0  0  0  0  0  0  0  0  0  0  0  0
   37.8290   31.1590   40.9630 C   0  0  0  0  0  2  0  0  0  0  0  0
   38.5180   29.9580   41.6080 C   0  0  0  0  0  2  0  0  0  0  0  0
   39.5990   30.1910   41.8290 H   0  0  0  0  0  0  0  0  0  0  0  0
  1  2  2  0  0  0  0
  2  3  1  0  0  0  0
  3  5  1  0  0  0  0
  3  6  1  0  0  0  0
  4  3  1  0  0  0  0
  8  7  2  6  0  0  0
  8  6  1  0  0  0  0
  8 11  1  0  0  0  0
  9  8  1  0  0  0  0
  9 10  1  0  0  0  0
 11 12  1  0  0  0  0
 12 13  1  0  0  0  0
 12 14  1  0  0  0  0
 13 14  1  0  0  0  0
 13 17  1  0  0  0  0
 14 18  1  0  0  0  0
 15 12  1  0  0  0  0
 16 13  1  0  0  0  0
 19 14  1  0  0  0  0
 20 21  1  0  0  0  0
 20  1  1  0  0  0  0
 21 22  1  0  0  0  0
 23 21  1  0  0  0  0
 24 29  1  0  0  0  0
 24 30  1  0  0  0  0
 25 21  1  0  0  0  0
 25 24  2  0  0  0  0
 26 27  2  0  0  0  0
 26 25  1  0  0  0  0
 27 28  1  0  0  0  0
 28 32  1  0  0  0  0
 28 29  2  0  0  0  0
 31 26  1  0  0  0  0
 32 33  1  0  0  0  0
 33 34  1  0  0  0  0
M  END
>  <minimizedAffinity>
-4.69218826

>  <minimizedRMSD>
0.553400695

$$$$
