
 OpenBabel03252504323D

 34 35  0  0  0  0  0  0  0  0999 V2000
   43.8410   35.1770   40.9980 C   0  0  0  0  0  3  0  0  0  0  0  0
   43.9160   35.6030   42.2540 C   0  0  0  0  0  3  0  0  0  0  0  0
   45.1630   35.6110   43.1200 C   0  0  0  0  0  0  0  0  0  0  0  0
   45.9740   35.2280   42.4580 H   0  0  0  0  0  0  0  0  0  0  0  0
   45.3930   36.6340   43.4820 H   0  0  0  0  0  0  0  0  0  0  0  0
   44.9450   34.7390   44.1640 O   0  0  0  0  0  0  0  0  0  0  0  0
   45.7060   32.5840   42.7960 O   0  0  0  0  0  0  0  0  0  0  0  0
   45.9490   33.3900   44.0510 P   0  0  1  0  0  0  0  0  0  0  0  0
   47.5820   33.8850   44.0140 O   0  0  0  0  0  0  0  0  0  0  0  0
   47.7100   34.7430   44.4890 H   0  0  0  0  0  0  0  0  0  0  0  0
   45.7610   32.4100   45.4130 O   0  0  0  0  0  0  0  0  0  0  0  0
   46.0690   33.0750   46.5830 C   0  0  0  0  0  0  0  0  0  0  0  0
   46.9840   32.4050   47.5630 C   0  0  0  0  0  0  0  0  0  0  0  0
   45.5000   32.4710   47.8450 C   0  0  0  0  0  0  0  0  0  0  0  0
   46.1400   34.1800   46.5370 H   0  0  0  0  0  0  0  0  0  0  0  0
   47.3560   31.4100   47.2420 H   0  0  0  0  0  0  0  0  0  0  0  0
   47.6050   33.0050   48.2360 H   0  0  0  0  0  0  0  0  0  0  0  0
   45.1310   33.1190   48.6550 H   0  0  0  0  0  0  0  0  0  0  0  0
   44.9250   31.5280   47.7710 H   0  0  0  0  0  0  0  0  0  0  0  0
   42.5930   35.2610   40.4030 O   0  0  0  0  0  0  0  0  0  0  0  0
   41.4030   35.5990   40.9800 C   0  0  0  0  0  0  0  0  0  0  0  0
   41.4040   35.8470   42.0620 H   0  0  0  0  0  0  0  0  0  0  0  0
   40.9550   36.4710   40.4560 H   0  0  0  0  0  0  0  0  0  0  0  0
   40.6940   33.3490   41.6360 C   0  0  0  0  0  0  0  0  0  0  0  0
   40.3790   34.5040   40.8830 C   0  0  0  0  0  0  0  0  0  0  0  0
   39.2150   34.4970   40.1800 C   0  0  0  0  0  0  0  0  0  0  0  0
   38.4650   33.4100   40.2550 N   0  0  0  0  0  0  0  0  0  0  0  0
   38.7500   32.3290   40.9540 C   0  0  0  0  0  0  0  0  0  0  0  0
   39.9240   32.2570   41.7010 N   0  0  0  0  0  0  0  0  0  0  0  0
   41.5930   33.2470   42.2310 H   0  0  0  0  0  0  0  0  0  0  0  0
   39.0250   35.4110   39.6200 H   0  0  0  0  0  0  0  0  0  0  0  0
   37.8270   31.1690   40.9600 C   0  0  0  0  0  2  0  0  0  0  0  0
   38.0210   30.3500   39.6850 C   0  0  0  0  0  2  0  0  0  0  0  0
   38.7360   30.8680   38.9840 H   0  0  0  0  0  0  0  0  0  0  0  0
  1  2  2  0  0  0  0
  2  3  1  0  0  0  0
  3  5  1  0  0  0  0
  3  6  1  0  0  0  0
  4  3  1  0  0  0  0
  8  7  2  6  0  0  0
  8  6  1  0  0  0  0
  8 11  1  0  0  0  0
  9  8  1  0  0  0  0
  9 10  1  0  0  0  0
 11 12  1  0  0  0  0
 12 13  1  0  0  0  0
 12 14  1  0  0  0  0
 13 14  1  0  0  0  0
 13 17  1  0  0  0  0
 14 18  1  0  0  0  0
 15 12  1  0  0  0  0
 16 13  1  0  0  0  0
 19 14  1  0  0  0  0
 20 21  1  0  0  0  0
 20  1  1  0  0  0  0
 21 22  1  0  0  0  0
 23 21  1  0  0  0  0
 24 29  1  0  0  0  0
 24 30  1  0  0  0  0
 25 21  1  0  0  0  0
 25 24  2  0  0  0  0
 26 27  2  0  0  0  0
 26 25  1  0  0  0  0
 27 28  1  0  0  0  0
 28 32  1  0  0  0  0
 28 29  2  0  0  0  0
 31 26  1  0  0  0  0
 33 32  1  0  0  0  0
 34 33  1  0  0  0  0
M  END
>  <minimizedAffinity>
-4.75967693

>  <minimizedRMSD>
0.508048058

$$$$
