
 OpenBabel03252504323D

 34 35  0  0  0  0  0  0  0  0999 V2000
   43.8380   35.1830   40.9970 C   0  0  0  0  0  3  0  0  0  0  0  0
   43.9100   35.5980   42.2570 C   0  0  0  0  0  3  0  0  0  0  0  0
   45.1570   35.6090   43.1220 C   0  0  0  0  0  0  0  0  0  0  0  0
   45.9690   35.2270   42.4600 H   0  0  0  0  0  0  0  0  0  0  0  0
   45.3850   36.6320   43.4840 H   0  0  0  0  0  0  0  0  0  0  0  0
   44.9410   34.7360   44.1660 O   0  0  0  0  0  0  0  0  0  0  0  0
   45.7050   32.5820   42.7980 O   0  0  0  0  0  0  0  0  0  0  0  0
   45.9470   33.3890   44.0520 P   0  0  1  0  0  0  0  0  0  0  0  0
   47.5790   33.8860   44.0150 O   0  0  0  0  0  0  0  0  0  0  0  0
   47.7060   34.7460   44.4890 H   0  0  0  0  0  0  0  0  0  0  0  0
   45.7630   32.4090   45.4150 O   0  0  0  0  0  0  0  0  0  0  0  0
   46.0700   33.0750   46.5840 C   0  0  0  0  0  0  0  0  0  0  0  0
   46.9770   32.4020   47.5700 C   0  0  0  0  0  0  0  0  0  0  0  0
   45.4920   32.4770   47.8460 C   0  0  0  0  0  0  0  0  0  0  0  0
   46.1460   34.1790   46.5360 H   0  0  0  0  0  0  0  0  0  0  0  0
   47.3450   31.4050   47.2520 H   0  0  0  0  0  0  0  0  0  0  0  0
   47.5990   33.0010   48.2440 H   0  0  0  0  0  0  0  0  0  0  0  0
   45.1240   33.1280   48.6530 H   0  0  0  0  0  0  0  0  0  0  0  0
   44.9130   31.5360   47.7720 H   0  0  0  0  0  0  0  0  0  0  0  0
   42.5890   35.2630   40.4020 O   0  0  0  0  0  0  0  0  0  0  0  0
   41.3990   35.6000   40.9800 C   0  0  0  0  0  0  0  0  0  0  0  0
   41.4000   35.8480   42.0620 H   0  0  0  0  0  0  0  0  0  0  0  0
   40.9510   36.4720   40.4560 H   0  0  0  0  0  0  0  0  0  0  0  0
   40.6910   33.3500   41.6370 C   0  0  0  0  0  0  0  0  0  0  0  0
   40.3760   34.5050   40.8830 C   0  0  0  0  0  0  0  0  0  0  0  0
   39.2130   34.4960   40.1790 C   0  0  0  0  0  0  0  0  0  0  0  0
   38.4630   33.4090   40.2540 N   0  0  0  0  0  0  0  0  0  0  0  0
   38.7480   32.3280   40.9540 C   0  0  0  0  0  0  0  0  0  0  0  0
   39.9220   32.2570   41.7020 N   0  0  0  0  0  0  0  0  0  0  0  0
   41.5900   33.2490   42.2330 H   0  0  0  0  0  0  0  0  0  0  0  0
   39.0220   35.4100   39.6180 H   0  0  0  0  0  0  0  0  0  0  0  0
   37.8260   31.1670   40.9600 C   0  0  0  0  0  2  0  0  0  0  0  0
   38.0200   30.3490   39.6860 C   0  0  0  0  0  2  0  0  0  0  0  0
   38.7350   30.8670   38.9840 H   0  0  0  0  0  0  0  0  0  0  0  0
  1  2  2  0  0  0  0
  2  3  1  0  0  0  0
  3  5  1  0  0  0  0
  3  6  1  0  0  0  0
  4  3  1  0  0  0  0
  8  7  2  6  0  0  0
  8  6  1  0  0  0  0
  8 11  1  0  0  0  0
  9  8  1  0  0  0  0
  9 10  1  0  0  0  0
 11 12  1  0  0  0  0
 12 13  1  0  0  0  0
 12 14  1  0  0  0  0
 13 14  1  0  0  0  0
 13 17  1  0  0  0  0
 14 18  1  0  0  0  0
 15 12  1  0  0  0  0
 16 13  1  0  0  0  0
 19 14  1  0  0  0  0
 20 21  1  0  0  0  0
 20  1  1  0  0  0  0
 21 22  1  0  0  0  0
 23 21  1  0  0  0  0
 24 29  1  0  0  0  0
 24 30  1  0  0  0  0
 25 21  1  0  0  0  0
 25 24  2  0  0  0  0
 26 27  2  0  0  0  0
 26 25  1  0  0  0  0
 27 28  1  0  0  0  0
 28 32  1  0  0  0  0
 28 29  2  0  0  0  0
 31 26  1  0  0  0  0
 33 32  1  0  0  0  0
 34 33  1  0  0  0  0
M  END
>  <minimizedAffinity>
-4.75934172

>  <minimizedRMSD>
0.440647691

$$$$
