
 OpenBabel03252501143D

 22 23  0  0  1  0  0  0  0  0999 V2000
   45.7180   34.8530   43.7050 C   0  0  0  0  0  0  0  0  0  0  0  0
   46.7760   34.8610   42.7760 C   0  0  0  0  0  0  0  0  0  0  0  0
   47.7360   33.8820   42.9890 C   0  0  0  0  0  0  0  0  0  0  0  0
   47.6100   33.0000   44.0430 N   0  0  0  0  0  0  0  0  0  0  0  0
   46.5650   33.0540   44.8960 C   0  0  0  0  0  0  0  0  0  0  0  0
   45.6080   33.9970   44.7170 N   0  0  0  0  0  0  0  0  0  0  0  0
   46.8480   35.5530   41.9750 H   0  0  0  0  0  0  0  0  0  0  0  0
   46.5070   32.3450   45.7050 H   0  0  0  0  0  0  0  0  0  0  0  0
   48.9230   33.7570   42.0930 C   0  0  1  0  0  0  0  0  0  0  0  0
   50.0030   34.7480   42.3930 C   0  0  0  0  0  0  0  0  0  0  0  0
   50.1720   33.2070   42.6360 C   0  0  2  0  0  0  0  0  0  0  0  0
   48.6220   33.5390   41.0500 H   0  0  0  0  0  0  0  0  0  0  0  0
   50.6040   35.1820   41.5690 H   0  0  0  0  0  0  0  0  0  0  0  0
   49.9710   35.3550   43.3070 H   0  0  0  0  0  0  0  0  0  0  0  0
   50.2200   32.9020   43.6860 H   0  0  0  0  0  0  0  0  0  0  0  0
   51.0530   32.5300   41.6030 C   0  0  0  0  0  0  0  0  0  0  0  0
   51.3290   31.0910   41.8910 C   0  0  0  0  0  0  0  0  0  0  0  0
   52.2060   30.8140   41.2360 H   0  0  0  0  0  0  0  0  0  0  0  0
   44.6460   35.8810   43.5090 C   0  0  0  0  0  0  0  0  0  0  0  0
   43.9370   35.9700   44.6980 F   0  0  0  0  0  0  0  0  0  0  0  0
   43.7860   35.4250   42.5460 F   0  0  0  0  0  0  0  0  0  0  0  0
   45.1810   37.1130   43.2360 F   0  0  0  0  0  0  0  0  0  0  0  0
  1  6  1  0  0  0  0
  2  3  1  0  0  0  0
  2  1  2  0  0  0  0
  3  4  2  0  0  0  0
  4  5  1  0  0  0  0
  5  8  1  0  0  0  0
  6  5  2  0  0  0  0
  7  2  1  0  0  0  0
  9 12  1  6  0  0  0
  9 10  1  0  0  0  0
  9 11  1  0  0  0  0
  9  3  1  0  0  0  0
 10 11  1  0  0  0  0
 10 14  1  0  0  0  0
 11 15  1  1  0  0  0
 13 10  1  0  0  0  0
 16 17  1  0  0  0  0
 16 11  1  0  0  0  0
 18 17  1  0  0  0  0
 19  1  1  0  0  0  0
 19 20  1  0  0  0  0
 21 19  1  0  0  0  0
 22 19  1  0  0  0  0
M  END
>  <minimizedAffinity>
-4.56230974

>  <minimizedRMSD>
1.17373478

$$$$
