
 OpenBabel03252509133D

 39 42  0  0  1  0  0  0  0  0999 V2000
   47.4800   32.5340   44.3260 C   0  0  0  0  0  0  0  0  0  0  0  0
   46.7850   33.5140   43.6130 C   0  0  0  0  0  0  0  0  0  0  0  0
   45.7490   34.2570   44.1700 C   0  0  0  0  0  0  0  0  0  0  0  0
   45.3780   34.0210   45.5000 C   0  0  0  0  0  0  0  0  0  0  0  0
   44.4550   34.5270   46.3420 N   0  0  0  0  0  0  0  0  0  0  0  0
   44.5470   33.9080   47.5400 C   0  0  0  0  0  0  0  0  0  0  0  0
   45.5340   33.0220   47.4100 N   0  0  0  0  0  0  0  0  0  0  0  0
   46.0750   33.0520   46.1800 C   0  0  0  0  0  0  0  0  0  0  0  0
   47.1050   32.3000   45.6580 C   0  0  0  0  0  0  0  0  0  0  0  0
   48.2670   32.0140   43.8030 H   0  0  0  0  0  0  0  0  0  0  0  0
   43.7710   35.2920   46.0910 H   0  0  0  0  0  0  0  0  0  0  0  0
   43.9650   34.0660   48.4370 H   0  0  0  0  0  0  0  0  0  0  0  0
   47.6370   31.5540   46.1940 H   0  0  0  0  0  0  0  0  0  0  0  0
   47.0090   33.2180   39.9750 C   0  0  0  0  0  0  0  0  0  0  0  0
   47.8590   34.2690   39.6260 C   0  0  0  0  0  0  0  0  0  0  0  0
   48.3500   35.0730   40.6480 C   0  0  0  0  0  0  0  0  0  0  0  0
   47.9820   34.8030   41.9440 N   0  0  0  0  0  0  0  0  0  0  0  0
   47.1570   33.7750   42.2250 C   0  0  0  0  0  0  0  0  0  0  0  0
   46.6530   32.9630   41.2710 N   0  0  0  0  0  0  0  0  0  0  0  0
   46.6230   32.5890   39.1850 H   0  0  0  0  0  0  0  0  0  0  0  0
   48.1250   34.4490   38.5980 H   0  0  0  0  0  0  0  0  0  0  0  0
   49.0140   35.9040   40.4520 H   0  0  0  0  0  0  0  0  0  0  0  0
   44.8810   35.4950   43.2470 S   0  0  0  0  0  0  0  0  0  0  0  0
   42.3510   35.4070   42.5450 N   0  0  0  0  0  0  0  0  0  0  0  0
   43.6270   34.8340   42.1320 C   0  0  1  0  0  0  0  0  0  0  0  0
   44.0120   35.2920   40.7360 C   0  0  0  0  0  0  0  0  0  0  0  0
   42.9610   35.2820   39.8400 O   0  0  0  0  0  0  0  0  0  0  0  0
   41.8180   34.6460   40.2770 C   0  0  0  0  0  0  0  0  0  0  0  0
   41.3430   35.3130   41.5330 C   0  0  1  0  0  0  0  0  0  0  0  0
   42.1070   34.9560   43.4530 H   0  0  0  0  0  0  0  0  0  0  0  0
   43.5730   33.7260   42.1940 H   0  0  0  0  0  0  0  0  0  0  0  0
   44.4250   36.3200   40.7920 H   0  0  0  0  0  0  0  0  0  0  0  0
   44.7290   34.5870   40.3230 H   0  0  0  0  0  0  0  0  0  0  0  0
   41.0530   34.7730   39.5060 H   0  0  0  0  0  0  0  0  0  0  0  0
   42.0560   33.5900   40.4930 H   0  0  0  0  0  0  0  0  0  0  0  0
   40.9040   36.3170   41.3100 H   0  0  0  0  0  0  0  0  0  0  0  0
   40.2020   34.4600   42.0980 C   0  0  0  0  0  2  0  0  0  0  0  0
   39.5670   33.5770   41.0770 C   0  0  0  0  0  2  0  0  0  0  0  0
   40.0130   32.5550   41.0830 H   0  0  0  0  0  0  0  0  0  0  0  0
  1  9  1  0  0  0  0
  2  3  1  0  0  0  0
  2  1  2  0  0  0  0
  3  4  2  0  0  0  0
  4  8  1  0  0  0  0
  4  5  1  0  0  0  0
  5  6  1  0  0  0  0
  6 12  1  0  0  0  0
  7  6  2  0  0  0  0
  8  7  1  0  0  0  0
  9  8  2  0  0  0  0
  9 13  1  0  0  0  0
 10  1  1  0  0  0  0
 11  5  1  0  0  0  0
 14 19  1  0  0  0  0
 15 14  2  0  0  0  0
 15 16  1  0  0  0  0
 16 17  2  0  0  0  0
 17 18  1  0  0  0  0
 18  2  1  0  0  0  0
 19 18  2  0  0  0  0
 20 14  1  0  0  0  0
 21 15  1  0  0  0  0
 22 16  1  0  0  0  0
 23  3  1  0  0  0  0
 24 30  1  0  0  0  0
 25 31  1  1  0  0  0
 25 24  1  0  0  0  0
 25 23  1  0  0  0  0
 26 32  1  0  0  0  0
 26 25  1  0  0  0  0
 27 28  1  0  0  0  0
 27 26  1  0  0  0  0
 28 35  1  0  0  0  0
 28 29  1  0  0  0  0
 29 36  1  6  0  0  0
 29 37  1  0  0  0  0
 29 24  1  0  0  0  0
 33 26  1  0  0  0  0
 34 28  1  0  0  0  0
 38 39  1  0  0  0  0
 38 37  1  0  0  0  0
M  END
>  <minimizedAffinity>
-5.81963539

>  <minimizedRMSD>
0.357724488

$$$$
