
 OpenBabel03252507373D

 32 35  0  0  0  0  0  0  0  0999 V2000
   45.1020   34.8350   42.8740 C   0  0  0  0  0  0  0  0  0  0  0  0
   45.6810   33.7080   43.5170 C   0  0  0  0  0  0  0  0  0  0  0  0
   45.6240   33.6860   44.9080 C   0  0  0  0  0  0  0  0  0  0  0  0
   45.0370   34.7110   45.5640 N   0  0  0  0  0  0  0  0  0  0  0  0
   44.4940   35.7730   44.9200 C   0  0  0  0  0  0  0  0  0  0  0  0
   44.5310   35.8260   43.5940 N   0  0  0  0  0  0  0  0  0  0  0  0
   46.1460   32.8940   43.0180 H   0  0  0  0  0  0  0  0  0  0  0  0
   44.0290   36.5850   45.4460 H   0  0  0  0  0  0  0  0  0  0  0  0
   46.7670   32.9470   46.9270 C   0  0  0  0  0  0  0  0  0  0  0  0
   46.1700   32.6030   45.7190 C   0  0  0  0  0  0  0  0  0  0  0  0
   46.1320   31.2820   45.3700 C   0  0  0  0  0  0  0  0  0  0  0  0
   46.6600   30.2870   46.1660 C   0  0  0  0  0  0  0  0  0  0  0  0
   46.7270   28.9370   46.0110 N   0  0  0  0  0  0  0  0  0  0  0  0
   47.3710   28.4380   47.1350 C   0  0  0  0  0  0  0  0  0  0  0  0
   47.6740   29.4740   47.9260 N   0  0  0  0  0  0  0  0  0  0  0  0
   47.2480   30.6150   47.3550 C   0  0  0  0  0  0  0  0  0  0  0  0
   47.3000   31.9380   47.7310 C   0  0  0  0  0  0  0  0  0  0  0  0
   46.8290   33.9730   47.2600 H   0  0  0  0  0  0  0  0  0  0  0  0
   45.6570   31.0540   44.4180 H   0  0  0  0  0  0  0  0  0  0  0  0
   46.3560   28.3810   45.1900 H   0  0  0  0  0  0  0  0  0  0  0  0
   47.5410   27.3800   47.2350 H   0  0  0  0  0  0  0  0  0  0  0  0
   47.7720   32.2100   48.6850 H   0  0  0  0  0  0  0  0  0  0  0  0
   45.1550   34.8650   41.4840 O   0  0  0  0  0  0  0  0  0  0  0  0
   43.9880   34.7310   40.7400 C   0  0  0  0  0  0  0  0  0  0  0  0
   44.2660   33.6170   40.0360 C   0  0  0  0  0  0  0  0  0  0  0  0
   42.6900   33.3920   39.0020 S   0  0  0  0  0  0  0  0  0  0  0  0
   41.9720   34.9570   39.8100 C   0  0  0  0  0  0  0  0  0  0  0  0
   42.8060   35.2270   40.4740 N   0  0  0  0  0  0  0  0  0  0  0  0
   44.8710   32.6470   39.6220 H   0  0  0  0  0  0  0  0  0  0  0  0
   40.6260   35.5030   39.4940 C   0  0  0  0  0  2  0  0  0  0  0  0
   40.1940   36.3560   40.6360 C   0  0  0  0  0  2  0  0  0  0  0  0
   40.6160   37.3900   40.4820 H   0  0  0  0  0  0  0  0  0  0  0  0
  1  2  2  0  0  0  0
  1  6  1  0  0  0  0
  2  3  1  0  0  0  0
  3  4  2  0  0  0  0
  3 10  1  0  0  0  0
  5  8  1  0  0  0  0
  5  4  1  0  0  0  0
  6  5  2  0  0  0  0
  7  2  1  0  0  0  0
  9 18  1  0  0  0  0
  9 17  1  0  0  0  0
 10  9  2  0  0  0  0
 11 10  1  0  0  0  0
 11 12  2  0  0  0  0
 12 16  1  0  0  0  0
 13 12  1  0  0  0  0
 13 14  1  0  0  0  0
 14 21  1  0  0  0  0
 14 15  2  0  0  0  0
 16 17  2  0  0  0  0
 16 15  1  0  0  0  0
 17 22  1  0  0  0  0
 19 11  1  0  0  0  0
 20 13  1  0  0  0  0
 23  1  1  0  0  0  0
 24 23  1  0  0  0  0
 25 24  2  0  0  0  0
 26 27  1  0  0  0  0
 26 25  1  0  0  0  0
 27 28  2  0  0  0  0
 28 24  1  0  0  0  0
 29 25  1  0  0  0  0
 30 27  1  0  0  0  0
 30 31  1  0  0  0  0
 32 31  1  0  0  0  0
M  END
>  <minimizedAffinity>
-5.81803322

>  <minimizedRMSD>
0.948029876

$$$$
