
     RDKit          3D

 36 39  0  0  0  0  0  0  0  0999 V2000
   45.4934   34.8303   43.5386 C   0  0  0  0  0  0  0  0  0  0  0  0
   46.2156   33.7494   44.1096 C   0  0  0  0  0  0  0  0  0  0  0  0
   46.0215   33.5184   45.4693 C   0  0  0  0  0  0  0  0  0  0  0  0
   45.1778   34.3124   46.1625 N   0  0  0  0  0  0  0  0  0  0  0  0
   44.5023   35.3372   45.5883 C   0  0  0  0  0  0  0  0  0  0  0  0
   44.6642   35.5850   44.2938 N   0  0  0  0  0  0  0  0  0  0  0  0
   47.0210   32.6994   47.5327 C   0  0  0  0  0  0  0  0  0  0  0  0
   46.6874   32.4489   46.2069 C   0  0  0  0  0  0  0  0  0  0  0  0
   47.0004   31.2267   45.6810 C   0  0  0  0  0  0  0  0  0  0  0  0
   47.6298   30.2424   46.4127 C   0  0  0  0  0  0  0  0  0  0  0  0
   48.0250   28.9796   46.0913 N   0  0  0  0  0  0  0  0  0  0  0  0
   48.6095   28.4417   47.2292 C   0  0  0  0  0  0  0  0  0  0  0  0
   48.5571   29.3689   48.1933 N   0  0  0  0  0  0  0  0  0  0  0  0
   47.9621   30.4783   47.7167 C   0  0  0  0  0  0  0  0  0  0  0  0
   47.6585   31.7011   48.2724 C   0  0  0  0  0  0  0  0  0  0  0  0
   45.6811   35.0691   42.1811 O   0  0  0  0  0  0  0  0  0  0  0  0
   44.6191   34.9230   41.2947 C   0  0  0  0  0  0  0  0  0  0  0  0
   45.0109   33.8305   40.6113 C   0  0  0  0  0  0  0  0  0  0  0  0
   43.5822   33.5906   39.3849 S   0  0  0  0  0  0  0  0  0  0  0  0
   42.7287   35.1212   40.1252 C   0  0  0  0  0  0  0  0  0  0  0  0
   43.4674   35.3969   40.8925 N   0  0  0  0  0  0  0  0  0  0  0  0
   46.8826   33.1155   43.5798 H   0  0  0  0  0  0  0  0  0  0  0  0
   43.8329   35.9649   46.1444 H   0  0  0  0  0  0  0  0  0  0  0  0
   46.8007   33.6451   48.0068 H   0  0  0  0  0  0  0  0  0  0  0  0
   46.7229   31.0700   44.6407 H   0  0  0  0  0  0  0  0  0  0  0  0
   47.9050   28.5073   45.1507 H   0  0  0  0  0  0  0  0  0  0  0  0
   49.0008   27.4403   47.2129 H   0  0  0  0  0  0  0  0  0  0  0  0
   47.9220   31.8992   49.3198 H   0  0  0  0  0  0  0  0  0  0  0  0
   45.6885   32.8838   40.2594 H   0  0  0  0  0  0  0  0  0  0  0  0
   41.4188   35.6420   39.6529 C   0  0  0  0  0  0  0  0  0  0  0  0
   41.5313   37.1212   39.5225 C   0  0  0  0  0  0  0  0  0  0  0  0
   41.9560   37.3542   38.5050 H   0  0  0  0  0  0  0  0  0  0  0  0
   41.2310   35.2082   38.6353 H   0  0  0  0  0  0  0  0  0  0  0  0
   40.5858   35.4146   40.3520 H   0  0  0  0  0  0  0  0  0  0  0  0
   42.0457   37.6378   40.3346 H   0  0  0  0  0  0  0  0  0  0  0  0
   40.4756   37.5112   39.4586 H   0  0  0  0  0  0  0  0  0  0  0  0
  1  2  2  0
  1  6  1  0
  2  3  1  0
  3  4  2  0
  3  8  1  0
  5  4  1  0
  6  5  2  0
  7 15  2  0
  8  7  1  0
  9  8  2  0
  9 10  1  0
 10 14  2  0
 11 10  1  0
 11 12  1  0
 12 13  2  0
 14 13  1  0
 14 15  1  0
 16  1  1  0
 17 16  1  0
 18 17  2  0
 19 20  1  0
 19 18  1  0
 20 21  2  0
 21 17  1  0
  2 22  1  0
  5 23  1  0
  7 24  1  0
  9 25  1  0
 11 26  1  0
 12 27  1  0
 15 28  1  0
 18 29  1  0
 30 31  1  0
 31 32  1  0
 30 33  1  0
 30 34  1  0
 31 35  1  0
 31 36  1  0
 20 30  1  0
M  ISO  8  22  14  23  14  24  14  25  14  26   9  27  14  28  14  29  14
M  ISO  1  32   8
M  END
>  <DihAtoms>  (1) 
18,19,29,30

>  <DihDeg>  (1) 
179.99992244812358

$$$$
