
 OpenBabel03252509143D

 39 42  0  0  1  0  0  0  0  0999 V2000
   47.4860   32.5750   44.2680 C   0  0  0  0  0  0  0  0  0  0  0  0
   46.7920   33.5470   43.5420 C   0  0  0  0  0  0  0  0  0  0  0  0
   45.7520   34.2940   44.0870 C   0  0  0  0  0  0  0  0  0  0  0  0
   45.3760   34.0700   45.4170 C   0  0  0  0  0  0  0  0  0  0  0  0
   44.4490   34.5840   46.2510 N   0  0  0  0  0  0  0  0  0  0  0  0
   44.5370   33.9780   47.4550 C   0  0  0  0  0  0  0  0  0  0  0  0
   45.5260   33.0910   47.3390 N   0  0  0  0  0  0  0  0  0  0  0  0
   46.0720   33.1100   46.1100 C   0  0  0  0  0  0  0  0  0  0  0  0
   47.1060   32.3540   45.6010 C   0  0  0  0  0  0  0  0  0  0  0  0
   48.2760   32.0510   43.7540 H   0  0  0  0  0  0  0  0  0  0  0  0
   43.7650   35.3450   45.9890 H   0  0  0  0  0  0  0  0  0  0  0  0
   43.9510   34.1430   48.3480 H   0  0  0  0  0  0  0  0  0  0  0  0
   47.6360   31.6140   46.1470 H   0  0  0  0  0  0  0  0  0  0  0  0
   47.0330   33.2130   39.9080 C   0  0  0  0  0  0  0  0  0  0  0  0
   47.8820   34.2630   39.5520 C   0  0  0  0  0  0  0  0  0  0  0  0
   48.3670   35.0780   40.5680 C   0  0  0  0  0  0  0  0  0  0  0  0
   47.9940   34.8210   41.8650 N   0  0  0  0  0  0  0  0  0  0  0  0
   47.1700   33.7940   42.1530 C   0  0  0  0  0  0  0  0  0  0  0  0
   46.6720   32.9720   41.2060 N   0  0  0  0  0  0  0  0  0  0  0  0
   46.6520   32.5760   39.1230 H   0  0  0  0  0  0  0  0  0  0  0  0
   48.1520   34.4330   38.5230 H   0  0  0  0  0  0  0  0  0  0  0  0
   49.0300   35.9090   40.3660 H   0  0  0  0  0  0  0  0  0  0  0  0
   44.8870   35.5210   43.1480 S   0  0  0  0  0  0  0  0  0  0  0  0
   42.3530   35.4680   42.4560 N   0  0  0  0  0  0  0  0  0  0  0  0
   43.6130   34.8500   42.0610 C   0  0  1  0  0  0  0  0  0  0  0  0
   44.0050   35.2460   40.6490 C   0  0  0  0  0  0  0  0  0  0  0  0
   42.9510   35.2290   39.7560 O   0  0  0  0  0  0  0  0  0  0  0  0
   41.7940   34.6370   40.2190 C   0  0  0  0  0  0  0  0  0  0  0  0
   41.3400   35.3620   41.4500 C   0  0  1  0  0  0  0  0  0  0  0  0
   42.1010   35.0580   43.3800 H   0  0  0  0  0  0  0  0  0  0  0  0
   43.5330   33.7460   42.1640 H   0  0  0  0  0  0  0  0  0  0  0  0
   44.4430   36.2650   40.6650 H   0  0  0  0  0  0  0  0  0  0  0  0
   44.7030   34.5090   40.2600 H   0  0  0  0  0  0  0  0  0  0  0  0
   41.0300   34.7540   39.4460 H   0  0  0  0  0  0  0  0  0  0  0  0
   42.0070   33.5850   40.4740 H   0  0  0  0  0  0  0  0  0  0  0  0
   40.9250   36.3670   41.1910 H   0  0  0  0  0  0  0  0  0  0  0  0
   40.1800   34.5590   42.0500 C   0  0  0  0  0  2  0  0  0  0  0  0
   40.1350   33.1460   41.5690 C   0  0  0  0  0  2  0  0  0  0  0  0
   40.6590   32.4560   42.2720 H   0  0  0  0  0  0  0  0  0  0  0  0
  1  9  1  0  0  0  0
  2  3  1  0  0  0  0
  2  1  2  0  0  0  0
  3  4  2  0  0  0  0
  4  8  1  0  0  0  0
  4  5  1  0  0  0  0
  5  6  1  0  0  0  0
  6 12  1  0  0  0  0
  7  6  2  0  0  0  0
  8  7  1  0  0  0  0
  9  8  2  0  0  0  0
  9 13  1  0  0  0  0
 10  1  1  0  0  0  0
 11  5  1  0  0  0  0
 14 19  1  0  0  0  0
 15 14  2  0  0  0  0
 15 16  1  0  0  0  0
 16 17  2  0  0  0  0
 17 18  1  0  0  0  0
 18  2  1  0  0  0  0
 19 18  2  0  0  0  0
 20 14  1  0  0  0  0
 21 15  1  0  0  0  0
 22 16  1  0  0  0  0
 23  3  1  0  0  0  0
 24 30  1  0  0  0  0
 25 31  1  1  0  0  0
 25 24  1  0  0  0  0
 25 23  1  0  0  0  0
 26 32  1  0  0  0  0
 26 25  1  0  0  0  0
 27 28  1  0  0  0  0
 27 26  1  0  0  0  0
 28 35  1  0  0  0  0
 28 29  1  0  0  0  0
 29 36  1  6  0  0  0
 29 37  1  0  0  0  0
 29 24  1  0  0  0  0
 33 26  1  0  0  0  0
 34 28  1  0  0  0  0
 38 37  1  0  0  0  0
 38 39  1  0  0  0  0
M  END
>  <minimizedAffinity>
-5.81257629

>  <minimizedRMSD>
0.3085922

$$$$
