
 OpenBabel03242519083D

 37 39  0  0  1  0  0  0  0  0999 V2000
   39.1880   32.7460   39.9140 N   0  0  0  0  0  0  0  0  0  0  0  0
   39.1470   31.7850   41.0010 C   0  0  0  0  0  0  0  0  0  0  0  0
   37.9230   31.0240   40.5910 C   0  0  2  0  0  0  0  0  0  0  0  0
   36.9540   32.1540   40.3450 C   0  0  0  0  0  0  0  0  0  0  0  0
   37.8320   33.2100   39.7240 C   0  0  0  0  0  0  0  0  0  0  0  0
   39.0660   32.2590   41.9810 H   0  0  0  0  0  0  0  0  0  0  0  0
   40.0410   31.1200   40.8960 H   0  0  0  0  0  0  0  0  0  0  0  0
   38.1610   30.4650   39.6850 H   0  0  0  0  0  0  0  0  0  0  0  0
   36.0820   31.8680   39.7240 H   0  0  0  0  0  0  0  0  0  0  0  0
   36.6370   32.5370   41.3560 H   0  0  0  0  0  0  0  0  0  0  0  0
   37.6220   33.3700   38.6600 H   0  0  0  0  0  0  0  0  0  0  0  0
   37.7450   34.1750   40.2600 H   0  0  0  0  0  0  0  0  0  0  0  0
   42.0660   34.7090   38.5710 C   0  0  0  0  0  0  0  0  0  0  0  0
   41.0040   34.3350   39.4050 C   0  0  0  0  0  0  0  0  0  0  0  0
   40.2670   33.2010   39.1380 C   0  0  0  0  0  0  0  0  0  0  0  0
   40.6200   32.4760   38.0410 N   0  0  0  0  0  0  0  0  0  0  0  0
   41.6330   32.8160   37.2280 C   0  0  0  0  0  0  0  0  0  0  0  0
   42.3590   33.9350   37.4940 N   0  0  0  0  0  0  0  0  0  0  0  0
   42.6490   35.5930   38.7700 H   0  0  0  0  0  0  0  0  0  0  0  0
   40.7410   34.9320   40.2790 H   0  0  0  0  0  0  0  0  0  0  0  0
   41.8550   32.1750   36.3620 H   0  0  0  0  0  0  0  0  0  0  0  0
   37.3860   30.2140   41.6640 N   0  0  0  0  0  0  0  0  0  0  0  0
   36.6620   30.6980   42.2630 H   0  0  0  0  0  0  0  0  0  0  0  0
   37.1650   27.7490   41.3980 C   0  0  0  0  0  0  0  0  0  0  0  0
   37.6520   28.8850   42.0570 C   0  0  0  0  0  0  0  0  0  0  0  0
   38.4330   28.6060   43.1490 C   0  0  0  0  0  0  0  0  0  0  0  0
   38.7420   27.3440   43.6040 C   0  0  0  0  0  0  0  0  0  0  0  0
   38.2490   26.2450   42.9350 C   0  0  0  0  0  0  0  0  0  0  0  0
   37.4560   26.4850   41.8250 C   0  0  0  0  0  0  0  0  0  0  0  0
   38.8540   29.4230   43.7230 H   0  0  0  0  0  0  0  0  0  0  0  0
   39.3650   27.1680   44.4780 H   0  0  0  0  0  0  0  0  0  0  0  0
   38.4650   25.2340   43.2560 H   0  0  0  0  0  0  0  0  0  0  0  0
   35.6570   28.1390   39.2980 N   0  0  0  0  0  0  0  0  0  0  0  0
   36.3270   27.9560   40.2220 C   0  0  0  0  0  0  0  0  0  0  0  0
   36.9130   25.3130   41.0930 C   0  0  0  0  0  2  0  0  0  0  0  0
   37.3510   24.0700   41.8280 C   0  0  0  0  0  2  0  0  0  0  0  0
   37.3940   24.2150   42.9210 H   0  0  0  0  0  0  0  0  0  0  0  0
  1  2  1  0  0  0  0
  2  6  1  0  0  0  0
  3  8  1  6  0  0  0
  3  2  1  0  0  0  0
  3 22  1  0  0  0  0
  4  3  1  0  0  0  0
  4 10  1  0  0  0  0
  5  1  1  0  0  0  0
  5 12  1  0  0  0  0
  5  4  1  0  0  0  0
  7  2  1  0  0  0  0
  9  4  1  0  0  0  0
 11  5  1  0  0  0  0
 13 19  1  0  0  0  0
 13 14  1  0  0  0  0
 14 20  1  0  0  0  0
 15 14  2  0  0  0  0
 15  1  1  0  0  0  0
 16 15  1  0  0  0  0
 17 18  1  0  0  0  0
 17 16  2  0  0  0  0
 18 13  2  0  0  0  0
 21 17  1  0  0  0  0
 22 25  1  0  0  0  0
 22 23  1  0  0  0  0
 24 29  2  0  0  0  0
 24 25  1  0  0  0  0
 25 26  2  0  0  0  0
 26 27  1  0  0  0  0
 26 30  1  0  0  0  0
 27 31  1  0  0  0  0
 28 32  1  0  0  0  0
 28 27  2  0  0  0  0
 29 28  1  0  0  0  0
 33 34  3  0  0  0  0
 34 24  1  0  0  0  0
 35 29  1  0  0  0  0
 35 36  1  0  0  0  0
 36 37  1  0  0  0  0
M  END
>  <minimizedAffinity>
-5.47767639

$$$$

 OpenBabel03242519083D

 37 39  0  0  1  0  0  0  0  0999 V2000
   39.7370   27.6650   43.2200 N   0  0  0  0  0  0  0  0  0  0  0  0
   39.0900   28.6180   42.3370 C   0  0  0  0  0  0  0  0  0  0  0  0
   38.0100   29.0930   43.2600 C   0  0  2  0  0  0  0  0  0  0  0  0
   37.4470   27.7780   43.7410 C   0  0  0  0  0  0  0  0  0  0  0  0
   38.6790   26.9190   43.8650 C   0  0  0  0  0  0  0  0  0  0  0  0
   38.7180   28.1580   41.4190 H   0  0  0  0  0  0  0  0  0  0  0  0
   39.8110   29.4540   42.1590 H   0  0  0  0  0  0  0  0  0  0  0  0
   38.4780   29.6710   44.0580 H   0  0  0  0  0  0  0  0  0  0  0  0
   36.8560   27.8590   44.6740 H   0  0  0  0  0  0  0  0  0  0  0  0
   36.8330   27.3580   42.8950 H   0  0  0  0  0  0  0  0  0  0  0  0
   38.9420   26.6970   44.9060 H   0  0  0  0  0  0  0  0  0  0  0  0
   38.5700   25.9700   43.3070 H   0  0  0  0  0  0  0  0  0  0  0  0
   43.0130   26.0810   44.0550 C   0  0  0  0  0  0  0  0  0  0  0  0
   41.6380   26.2140   43.8240 C   0  0  0  0  0  0  0  0  0  0  0  0
   41.0990   27.4330   43.4710 C   0  0  0  0  0  0  0  0  0  0  0  0
   41.9600   28.4820   43.3610 N   0  0  0  0  0  0  0  0  0  0  0  0
   43.2810   28.3770   43.5770 C   0  0  0  0  0  0  0  0  0  0  0  0
   43.8100   27.1730   43.9250 N   0  0  0  0  0  0  0  0  0  0  0  0
   43.4450   25.1330   44.3310 H   0  0  0  0  0  0  0  0  0  0  0  0
   40.9680   25.3570   43.9190 H   0  0  0  0  0  0  0  0  0  0  0  0
   43.9090   29.2730   43.4660 H   0  0  0  0  0  0  0  0  0  0  0  0
   36.9510   29.7930   42.5640 N   0  0  0  0  0  0  0  0  0  0  0  0
   36.3340   30.3880   43.1840 H   0  0  0  0  0  0  0  0  0  0  0  0
   37.1070   30.7400   40.2680 C   0  0  0  0  0  0  0  0  0  0  0  0
   36.5910   29.8310   41.2010 C   0  0  0  0  0  0  0  0  0  0  0  0
   35.6800   28.9500   40.6780 C   0  0  0  0  0  0  0  0  0  0  0  0
   35.2710   28.9170   39.3640 C   0  0  0  0  0  0  0  0  0  0  0  0
   35.7960   29.8230   38.4690 C   0  0  0  0  0  0  0  0  0  0  0  0
   36.7200   30.7300   38.9590 C   0  0  0  0  0  0  0  0  0  0  0  0
   35.2260   28.2090   41.3260 H   0  0  0  0  0  0  0  0  0  0  0  0
   34.5430   28.2000   38.9910 H   0  0  0  0  0  0  0  0  0  0  0  0
   35.5030   29.8340   37.4270 H   0  0  0  0  0  0  0  0  0  0  0  0
   38.8760   32.4740   41.1070 N   0  0  0  0  0  0  0  0  0  0  0  0
   38.0860   31.7130   40.7410 C   0  0  0  0  0  0  0  0  0  0  0  0
   37.2950   31.7160   38.0100 C   0  0  0  0  0  2  0  0  0  0  0  0
   37.3730   31.0570   36.6540 C   0  0  0  0  0  2  0  0  0  0  0  0
   36.5370   30.3610   36.4710 H   0  0  0  0  0  0  0  0  0  0  0  0
  1 15  1  0  0  0  0
  1  5  1  0  0  0  0
  2  1  1  0  0  0  0
  2  3  1  0  0  0  0
  3  4  1  0  0  0  0
  3  8  1  1  0  0  0
  4  5  1  0  0  0  0
  4  9  1  0  0  0  0
  5 11  1  0  0  0  0
  6  2  1  0  0  0  0
  7  2  1  0  0  0  0
 10  4  1  0  0  0  0
 12  5  1  0  0  0  0
 13 19  1  0  0  0  0
 14 20  1  0  0  0  0
 14 13  2  0  0  0  0
 15 14  1  0  0  0  0
 16 15  2  0  0  0  0
 16 17  1  0  0  0  0
 17 18  2  0  0  0  0
 18 13  1  0  0  0  0
 21 17  1  0  0  0  0
 22 23  1  0  0  0  0
 22  3  1  0  0  0  0
 24 34  1  0  0  0  0
 24 25  1  0  0  0  0
 25 22  1  0  0  0  0
 26 25  2  0  0  0  0
 26 30  1  0  0  0  0
 27 26  1  0  0  0  0
 28 29  1  0  0  0  0
 28 27  2  0  0  0  0
 29 24  2  0  0  0  0
 31 27  1  0  0  0  0
 32 28  1  0  0  0  0
 34 33  3  0  0  0  0
 35 29  1  0  0  0  0
 36 35  1  0  0  0  0
 37 36  1  0  0  0  0
M  END
>  <minimizedAffinity>
-5.39240122

$$$$

 OpenBabel03242519083D

 37 39  0  0  1  0  0  0  0  0999 V2000
   36.5630   30.2340   38.5400 N   0  0  0  0  0  0  0  0  0  0  0  0
   36.8830   29.4940   39.7470 C   0  0  0  0  0  0  0  0  0  0  0  0
   36.3550   30.4630   40.7590 C   0  0  2  0  0  0  0  0  0  0  0  0
   36.9950   31.7450   40.2880 C   0  0  0  0  0  0  0  0  0  0  0  0
   36.9410   31.6080   38.7880 C   0  0  0  0  0  0  0  0  0  0  0  0
   37.9500   29.2870   39.8460 H   0  0  0  0  0  0  0  0  0  0  0  0
   36.2450   28.5750   39.7560 H   0  0  0  0  0  0  0  0  0  0  0  0
   35.2670   30.4780   40.6780 H   0  0  0  0  0  0  0  0  0  0  0  0
   36.5050   32.6600   40.6760 H   0  0  0  0  0  0  0  0  0  0  0  0
   38.0810   31.6960   40.5880 H   0  0  0  0  0  0  0  0  0  0  0  0
   36.2280   32.2960   38.3210 H   0  0  0  0  0  0  0  0  0  0  0  0
   37.9390   31.7530   38.3310 H   0  0  0  0  0  0  0  0  0  0  0  0
   34.3530   28.6900   35.9570 C   0  0  0  0  0  0  0  0  0  0  0  0
   34.8360   29.0750   37.2150 C   0  0  0  0  0  0  0  0  0  0  0  0
   36.0010   29.8030   37.3270 C   0  0  0  0  0  0  0  0  0  0  0  0
   36.6460   30.1220   36.1710 N   0  0  0  0  0  0  0  0  0  0  0  0
   36.2010   29.7640   34.9560 C   0  0  0  0  0  0  0  0  0  0  0  0
   35.0510   29.0460   34.8490 N   0  0  0  0  0  0  0  0  0  0  0  0
   33.4430   28.1210   35.8580 H   0  0  0  0  0  0  0  0  0  0  0  0
   34.3000   28.8070   38.1270 H   0  0  0  0  0  0  0  0  0  0  0  0
   36.7810   30.0630   34.0700 H   0  0  0  0  0  0  0  0  0  0  0  0
   36.8440   30.1950   42.0950 N   0  0  0  0  0  0  0  0  0  0  0  0
   36.5840   30.9240   42.8160 H   0  0  0  0  0  0  0  0  0  0  0  0
   39.0060   29.1250   42.7090 C   0  0  0  0  0  0  0  0  0  0  0  0
   37.6080   29.1290   42.6160 C   0  0  0  0  0  0  0  0  0  0  0  0
   37.0130   27.9860   43.0840 C   0  0  0  0  0  0  0  0  0  0  0  0
   37.6790   26.9000   43.6060 C   0  0  0  0  0  0  0  0  0  0  0  0
   39.0540   26.9240   43.6850 C   0  0  0  0  0  0  0  0  0  0  0  0
   39.6930   28.0620   43.2230 C   0  0  0  0  0  0  0  0  0  0  0  0
   35.9330   27.8980   43.0520 H   0  0  0  0  0  0  0  0  0  0  0  0
   37.1660   26.0100   43.9650 H   0  0  0  0  0  0  0  0  0  0  0  0
   39.6190   26.0930   44.0880 H   0  0  0  0  0  0  0  0  0  0  0  0
   40.2720   31.2540   41.8690 N   0  0  0  0  0  0  0  0  0  0  0  0
   39.7190   30.3060   42.2350 C   0  0  0  0  0  0  0  0  0  0  0  0
   41.1740   28.1060   43.2970 C   0  0  0  0  0  2  0  0  0  0  0  0
   41.6320   26.8800   44.0500 C   0  0  0  0  0  2  0  0  0  0  0  0
   40.9980   25.9990   43.8540 H   0  0  0  0  0  0  0  0  0  0  0  0
  1  5  1  0  0  0  0
  1  2  1  0  0  0  0
  2  7  1  0  0  0  0
  2  6  1  0  0  0  0
  2  3  1  0  0  0  0
  3  8  1  6  0  0  0
  3 22  1  0  0  0  0
  4 10  1  0  0  0  0
  4  9  1  0  0  0  0
  4  3  1  0  0  0  0
  5  4  1  0  0  0  0
 11  5  1  0  0  0  0
 12  5  1  0  0  0  0
 13 14  1  0  0  0  0
 14 15  2  0  0  0  0
 14 20  1  0  0  0  0
 15  1  1  0  0  0  0
 16 15  1  0  0  0  0
 17 16  2  0  0  0  0
 18 17  1  0  0  0  0
 18 13  2  0  0  0  0
 19 13  1  0  0  0  0
 21 17  1  0  0  0  0
 22 25  1  0  0  0  0
 22 23  1  0  0  0  0
 24 29  1  0  0  0  0
 25 24  2  0  0  0  0
 25 26  1  0  0  0  0
 26 27  2  0  0  0  0
 27 28  1  0  0  0  0
 27 31  1  0  0  0  0
 28 32  1  0  0  0  0
 29 35  1  0  0  0  0
 29 28  2  0  0  0  0
 30 26  1  0  0  0  0
 33 34  3  0  0  0  0
 34 24  1  0  0  0  0
 35 36  1  0  0  0  0
 37 36  1  0  0  0  0
M  END
>  <minimizedAffinity>
-5.28193331

$$$$

 OpenBabel03242519083D

 37 39  0  0  1  0  0  0  0  0999 V2000
   37.7140   26.9210   42.0060 N   0  0  0  0  0  0  0  0  0  0  0  0
   38.2360   28.2220   41.6290 C   0  0  0  0  0  0  0  0  0  0  0  0
   38.6020   28.7280   42.9900 C   0  0  2  0  0  0  0  0  0  0  0  0
   37.3290   28.4500   43.7500 C   0  0  0  0  0  0  0  0  0  0  0  0
   36.8800   27.1350   43.1670 C   0  0  0  0  0  0  0  0  0  0  0  0
   37.5000   28.8390   41.1100 H   0  0  0  0  0  0  0  0  0  0  0  0
   39.1720   28.0510   41.0400 H   0  0  0  0  0  0  0  0  0  0  0  0
   39.4490   28.1420   43.3510 H   0  0  0  0  0  0  0  0  0  0  0  0
   37.4580   28.4370   44.8500 H   0  0  0  0  0  0  0  0  0  0  0  0
   36.5810   29.2290   43.4280 H   0  0  0  0  0  0  0  0  0  0  0  0
   36.9760   26.3000   43.8710 H   0  0  0  0  0  0  0  0  0  0  0  0
   35.8350   27.1870   42.8060 H   0  0  0  0  0  0  0  0  0  0  0  0
   37.3030   23.3870   40.8750 C   0  0  0  0  0  0  0  0  0  0  0  0
   37.0110   24.6160   41.4800 C   0  0  0  0  0  0  0  0  0  0  0  0
   37.9160   25.6560   41.4310 C   0  0  0  0  0  0  0  0  0  0  0  0
   39.0870   25.4270   40.7750 N   0  0  0  0  0  0  0  0  0  0  0  0
   39.3870   24.2570   40.1890 C   0  0  0  0  0  0  0  0  0  0  0  0
   38.4920   23.2340   40.2390 N   0  0  0  0  0  0  0  0  0  0  0  0
   36.6030   22.5680   40.9070 H   0  0  0  0  0  0  0  0  0  0  0  0
   36.0650   24.7750   42.0000 H   0  0  0  0  0  0  0  0  0  0  0  0
   40.3550   24.1540   39.6770 H   0  0  0  0  0  0  0  0  0  0  0  0
   38.8210   30.1590   43.0120 N   0  0  0  0  0  0  0  0  0  0  0  0
   38.1560   30.6980   43.6330 H   0  0  0  0  0  0  0  0  0  0  0  0
   39.4770   31.8120   41.2700 C   0  0  0  0  0  0  0  0  0  0  0  0
   39.7670   30.9720   42.3530 C   0  0  0  0  0  0  0  0  0  0  0  0
   41.0820   30.9960   42.7430 C   0  0  0  0  0  0  0  0  0  0  0  0
   42.0700   31.7560   42.1580 C   0  0  0  0  0  0  0  0  0  0  0  0
   41.7550   32.5730   41.0950 C   0  0  0  0  0  0  0  0  0  0  0  0
   40.4360   32.5770   40.6710 C   0  0  0  0  0  0  0  0  0  0  0  0
   41.4010   30.3770   43.5730 H   0  0  0  0  0  0  0  0  0  0  0  0
   43.1030   31.7430   42.4990 H   0  0  0  0  0  0  0  0  0  0  0  0
   42.4990   33.1880   40.6040 H   0  0  0  0  0  0  0  0  0  0  0  0
   37.0050   31.8580   40.4180 N   0  0  0  0  0  0  0  0  0  0  0  0
   38.0990   31.8480   40.7940 C   0  0  0  0  0  0  0  0  0  0  0  0
   40.0780   33.4490   39.5250 C   0  0  0  0  0  2  0  0  0  0  0  0
   40.9830   34.6570   39.5670 C   0  0  0  0  0  2  0  0  0  0  0  0
   41.9940   34.4170   39.9350 H   0  0  0  0  0  0  0  0  0  0  0  0
  1  5  1  0  0  0  0
  2  1  1  0  0  0  0
  2  3  1  0  0  0  0
  3 22  1  0  0  0  0
  3  8  1  1  0  0  0
  3  4  1  0  0  0  0
  4  9  1  0  0  0  0
  5  4  1  0  0  0  0
  5 11  1  0  0  0  0
  6  2  1  0  0  0  0
  7  2  1  0  0  0  0
 10  4  1  0  0  0  0
 12  5  1  0  0  0  0
 13 19  1  0  0  0  0
 13 14  1  0  0  0  0
 14 20  1  0  0  0  0
 15 14  2  0  0  0  0
 15  1  1  0  0  0  0
 16 15  1  0  0  0  0
 17 18  1  0  0  0  0
 17 16  2  0  0  0  0
 18 13  2  0  0  0  0
 21 17  1  0  0  0  0
 22 23  1  0  0  0  0
 24 25  1  0  0  0  0
 25 26  2  0  0  0  0
 25 22  1  0  0  0  0
 26 30  1  0  0  0  0
 27 31  1  0  0  0  0
 27 26  1  0  0  0  0
 28 27  2  0  0  0  0
 29 28  1  0  0  0  0
 29 24  2  0  0  0  0
 32 28  1  0  0  0  0
 33 34  3  0  0  0  0
 34 24  1  0  0  0  0
 35 36  1  0  0  0  0
 35 29  1  0  0  0  0
 36 37  1  0  0  0  0
M  END
>  <minimizedAffinity>
-5.08645153

$$$$

 OpenBabel03242519083D

 37 39  0  0  1  0  0  0  0  0999 V2000
   35.3200   28.9420   38.5850 N   0  0  0  0  0  0  0  0  0  0  0  0
   35.7270   28.6060   39.9370 C   0  0  0  0  0  0  0  0  0  0  0  0
   35.7560   29.9850   40.5210 C   0  0  2  0  0  0  0  0  0  0  0  0
   36.5740   30.7160   39.4850 C   0  0  0  0  0  0  0  0  0  0  0  0
   36.1030   30.0940   38.1960 C   0  0  0  0  0  0  0  0  0  0  0  0
   36.6880   28.0890   39.9730 H   0  0  0  0  0  0  0  0  0  0  0  0
   34.8910   28.0290   40.4060 H   0  0  0  0  0  0  0  0  0  0  0  0
   34.7290   30.3470   40.5830 H   0  0  0  0  0  0  0  0  0  0  0  0
   36.4630   31.8170   39.5230 H   0  0  0  0  0  0  0  0  0  0  0  0
   37.6460   30.4000   39.6340 H   0  0  0  0  0  0  0  0  0  0  0  0
   35.5050   30.7800   37.5840 H   0  0  0  0  0  0  0  0  0  0  0  0
   36.9510   29.7160   37.5940 H   0  0  0  0  0  0  0  0  0  0  0  0
   32.4430   28.3210   36.2890 C   0  0  0  0  0  0  0  0  0  0  0  0
   33.3410   29.0090   37.1150 C   0  0  0  0  0  0  0  0  0  0  0  0
   34.3720   28.3410   37.7420 C   0  0  0  0  0  0  0  0  0  0  0  0
   34.4680   27.0020   37.5190 N   0  0  0  0  0  0  0  0  0  0  0  0
   33.6180   26.3230   36.7320 C   0  0  0  0  0  0  0  0  0  0  0  0
   32.6020   26.9840   36.1150 N   0  0  0  0  0  0  0  0  0  0  0  0
   31.6330   28.8330   35.7940 H   0  0  0  0  0  0  0  0  0  0  0  0
   33.2430   30.0840   37.2770 H   0  0  0  0  0  0  0  0  0  0  0  0
   33.7660   25.2410   36.6030 H   0  0  0  0  0  0  0  0  0  0  0  0
   36.4810   30.0440   41.7720 N   0  0  0  0  0  0  0  0  0  0  0  0
   36.2550   30.8840   42.3750 H   0  0  0  0  0  0  0  0  0  0  0  0
   38.8230   29.4030   42.3210 C   0  0  0  0  0  0  0  0  0  0  0  0
   37.4400   29.1800   42.3420 C   0  0  0  0  0  0  0  0  0  0  0  0
   37.0700   28.0230   42.9770 C   0  0  0  0  0  0  0  0  0  0  0  0
   37.9350   27.1230   43.5570 C   0  0  0  0  0  0  0  0  0  0  0  0
   39.2900   27.3680   43.5210 C   0  0  0  0  0  0  0  0  0  0  0  0
   39.7050   28.5290   42.8890 C   0  0  0  0  0  0  0  0  0  0  0  0
   36.0190   27.7660   43.0420 H   0  0  0  0  0  0  0  0  0  0  0  0
   37.5980   26.2140   44.0510 H   0  0  0  0  0  0  0  0  0  0  0  0
   40.0080   26.6900   43.9640 H   0  0  0  0  0  0  0  0  0  0  0  0
   39.7010   31.5710   41.1510 N   0  0  0  0  0  0  0  0  0  0  0  0
   39.3020   30.6150   41.6660 C   0  0  0  0  0  0  0  0  0  0  0  0
   41.1610   28.8090   42.8370 C   0  0  0  0  0  2  0  0  0  0  0  0
   41.8590   27.7660   43.6760 C   0  0  0  0  0  2  0  0  0  0  0  0
   41.3660   26.7810   43.6260 H   0  0  0  0  0  0  0  0  0  0  0  0
  1  2  1  0  0  0  0
  2  6  1  0  0  0  0
  2  7  1  0  0  0  0
  2  3  1  0  0  0  0
  3  8  1  1  0  0  0
  3 22  1  0  0  0  0
  4  9  1  0  0  0  0
  4 10  1  0  0  0  0
  4  3  1  0  0  0  0
  5  1  1  0  0  0  0
  5  4  1  0  0  0  0
 11  5  1  0  0  0  0
 12  5  1  0  0  0  0
 13 14  1  0  0  0  0
 14 20  1  0  0  0  0
 14 15  2  0  0  0  0
 15  1  1  0  0  0  0
 16 15  1  0  0  0  0
 17 16  2  0  0  0  0
 18 13  2  0  0  0  0
 18 17  1  0  0  0  0
 19 13  1  0  0  0  0
 21 17  1  0  0  0  0
 22 25  1  0  0  0  0
 22 23  1  0  0  0  0
 24 25  2  0  0  0  0
 24 29  1  0  0  0  0
 25 26  1  0  0  0  0
 26 30  1  0  0  0  0
 26 27  2  0  0  0  0
 27 31  1  0  0  0  0
 28 27  1  0  0  0  0
 28 32  1  0  0  0  0
 29 28  2  0  0  0  0
 33 34  3  0  0  0  0
 34 24  1  0  0  0  0
 35 29  1  0  0  0  0
 35 36  1  0  0  0  0
 37 36  1  0  0  0  0
M  END
>  <minimizedAffinity>
-5.08102608

$$$$

 OpenBabel03242519083D

 37 39  0  0  1  0  0  0  0  0999 V2000
   39.1860   32.2900   39.4320 N   0  0  0  0  0  0  0  0  0  0  0  0
   38.7360   30.9710   39.8360 C   0  0  0  0  0  0  0  0  0  0  0  0
   37.2880   31.0990   39.4740 C   0  0  2  0  0  0  0  0  0  0  0  0
   36.9450   32.4130   40.1320 C   0  0  0  0  0  0  0  0  0  0  0  0
   38.1940   33.2270   39.9110 C   0  0  0  0  0  0  0  0  0  0  0  0
   38.9120   30.7700   40.8940 H   0  0  0  0  0  0  0  0  0  0  0  0
   39.2170   30.2280   39.1520 H   0  0  0  0  0  0  0  0  0  0  0  0
   37.2140   31.1380   38.3870 H   0  0  0  0  0  0  0  0  0  0  0  0
   36.0230   32.8840   39.7390 H   0  0  0  0  0  0  0  0  0  0  0  0
   36.8700   32.2130   41.2390 H   0  0  0  0  0  0  0  0  0  0  0  0
   38.0520   34.0420   39.1920 H   0  0  0  0  0  0  0  0  0  0  0  0
   38.5800   33.6450   40.8610 H   0  0  0  0  0  0  0  0  0  0  0  0
   42.1490   34.1730   38.1620 C   0  0  0  0  0  0  0  0  0  0  0  0
   41.0140   33.8660   38.9230 C   0  0  0  0  0  0  0  0  0  0  0  0
   40.3310   32.6860   38.7200 C   0  0  0  0  0  0  0  0  0  0  0  0
   40.8090   31.8500   37.7580 N   0  0  0  0  0  0  0  0  0  0  0  0
   41.8950   32.1250   37.0170 C   0  0  0  0  0  0  0  0  0  0  0  0
   42.5670   33.2900   37.2190 N   0  0  0  0  0  0  0  0  0  0  0  0
   42.6910   35.0930   38.3120 H   0  0  0  0  0  0  0  0  0  0  0  0
   40.6500   34.5520   39.6890 H   0  0  0  0  0  0  0  0  0  0  0  0
   42.2170   31.3950   36.2600 H   0  0  0  0  0  0  0  0  0  0  0  0
   36.4680   30.0760   40.0870 N   0  0  0  0  0  0  0  0  0  0  0  0
   35.6790   30.4430   40.6880 H   0  0  0  0  0  0  0  0  0  0  0  0
   36.9260   27.8430   41.0870 C   0  0  0  0  0  0  0  0  0  0  0  0
   36.5270   28.6680   40.0270 C   0  0  0  0  0  0  0  0  0  0  0  0
   36.1850   27.9870   38.8870 C   0  0  0  0  0  0  0  0  0  0  0  0
   36.2140   26.6180   38.7400 C   0  0  0  0  0  0  0  0  0  0  0  0
   36.6110   25.8330   39.7990 C   0  0  0  0  0  0  0  0  0  0  0  0
   36.9650   26.4830   40.9700 C   0  0  0  0  0  0  0  0  0  0  0  0
   35.8630   28.5420   38.0130 H   0  0  0  0  0  0  0  0  0  0  0  0
   35.9350   26.1190   37.8150 H   0  0  0  0  0  0  0  0  0  0  0  0
   36.6500   24.7530   39.7300 H   0  0  0  0  0  0  0  0  0  0  0  0
   37.6200   29.0090   43.3230 N   0  0  0  0  0  0  0  0  0  0  0  0
   37.3060   28.4880   42.3390 C   0  0  0  0  0  0  0  0  0  0  0  0
   37.3980   25.6540   42.1220 C   0  0  0  0  0  2  0  0  0  0  0  0
   37.2190   24.2050   41.7370 C   0  0  0  0  0  2  0  0  0  0  0  0
   37.4180   24.0220   40.6680 H   0  0  0  0  0  0  0  0  0  0  0  0
  1  2  1  0  0  0  0
  1  5  1  0  0  0  0
  2  6  1  0  0  0  0
  3  8  1  6  0  0  0
  3  2  1  0  0  0  0
  3 22  1  0  0  0  0
  3  4  1  0  0  0  0
  4 10  1  0  0  0  0
  5  4  1  0  0  0  0
  5 12  1  0  0  0  0
  7  2  1  0  0  0  0
  9  4  1  0  0  0  0
 11  5  1  0  0  0  0
 13 19  1  0  0  0  0
 13 14  1  0  0  0  0
 14 20  1  0  0  0  0
 15 14  2  0  0  0  0
 15  1  1  0  0  0  0
 16 15  1  0  0  0  0
 17 18  1  0  0  0  0
 17 16  2  0  0  0  0
 18 13  2  0  0  0  0
 21 17  1  0  0  0  0
 22 23  1  0  0  0  0
 24 34  1  0  0  0  0
 25 22  1  0  0  0  0
 25 24  2  0  0  0  0
 26 25  1  0  0  0  0
 27 26  2  0  0  0  0
 27 28  1  0  0  0  0
 28 29  2  0  0  0  0
 29 24  1  0  0  0  0
 29 35  1  0  0  0  0
 30 26  1  0  0  0  0
 31 27  1  0  0  0  0
 32 28  1  0  0  0  0
 34 33  3  0  0  0  0
 36 35  1  0  0  0  0
 37 36  1  0  0  0  0
M  END
>  <minimizedAffinity>
-5.02029514

$$$$

 OpenBabel03242519083D

 37 39  0  0  1  0  0  0  0  0999 V2000
   37.7260   24.6240   41.7440 N   0  0  0  0  0  0  0  0  0  0  0  0
   37.1720   25.9290   42.0540 C   0  0  0  0  0  0  0  0  0  0  0  0
   38.4390   26.7260   42.0460 C   0  0  2  0  0  0  0  0  0  0  0  0
   39.3150   25.8800   42.9360 C   0  0  0  0  0  0  0  0  0  0  0  0
   38.9140   24.4780   42.5550 C   0  0  0  0  0  0  0  0  0  0  0  0
   36.6430   25.9470   43.0090 H   0  0  0  0  0  0  0  0  0  0  0  0
   36.5400   26.2400   41.1850 H   0  0  0  0  0  0  0  0  0  0  0  0
   38.8010   26.7740   41.0180 H   0  0  0  0  0  0  0  0  0  0  0  0
   40.3980   26.0860   42.8260 H   0  0  0  0  0  0  0  0  0  0  0  0
   38.9650   26.0500   43.9940 H   0  0  0  0  0  0  0  0  0  0  0  0
   39.6970   23.9450   42.0030 H   0  0  0  0  0  0  0  0  0  0  0  0
   38.6260   23.8830   43.4430 H   0  0  0  0  0  0  0  0  0  0  0  0
   35.7240   22.6250   39.3060 C   0  0  0  0  0  0  0  0  0  0  0  0
   36.0820   23.6650   40.1740 C   0  0  0  0  0  0  0  0  0  0  0  0
   37.2810   23.6310   40.8550 C   0  0  0  0  0  0  0  0  0  0  0  0
   38.0830   22.5510   40.6440 N   0  0  0  0  0  0  0  0  0  0  0  0
   37.7590   21.5440   39.8170 C   0  0  0  0  0  0  0  0  0  0  0  0
   36.5770   21.5800   39.1470 N   0  0  0  0  0  0  0  0  0  0  0  0
   34.7900   22.6410   38.7690 H   0  0  0  0  0  0  0  0  0  0  0  0
   35.4220   24.5200   40.3270 H   0  0  0  0  0  0  0  0  0  0  0  0
   38.4650   20.7080   39.7010 H   0  0  0  0  0  0  0  0  0  0  0  0
   38.2890   28.0180   42.6810 N   0  0  0  0  0  0  0  0  0  0  0  0
   37.9290   27.9830   43.6750 H   0  0  0  0  0  0  0  0  0  0  0  0
   37.6510   30.0730   41.4280 C   0  0  0  0  0  0  0  0  0  0  0  0
   38.5390   29.3260   42.2150 C   0  0  0  0  0  0  0  0  0  0  0  0
   39.7080   29.9780   42.5100 C   0  0  0  0  0  0  0  0  0  0  0  0
   40.0350   31.2500   42.0970 C   0  0  0  0  0  0  0  0  0  0  0  0
   39.1430   31.9610   41.3240 C   0  0  0  0  0  0  0  0  0  0  0  0
   37.9480   31.3360   41.0040 C   0  0  0  0  0  0  0  0  0  0  0  0
   40.4570   29.4780   43.1140 H   0  0  0  0  0  0  0  0  0  0  0  0
   40.9770   31.7300   42.3540 H   0  0  0  0  0  0  0  0  0  0  0  0
   39.3560   32.9630   40.9760 H   0  0  0  0  0  0  0  0  0  0  0  0
   35.3820   28.9500   40.7720 N   0  0  0  0  0  0  0  0  0  0  0  0
   36.3800   29.4530   41.0700 C   0  0  0  0  0  0  0  0  0  0  0  0
   36.9750   32.0840   40.1710 C   0  0  0  0  0  2  0  0  0  0  0  0
   37.6420   33.3610   39.7210 C   0  0  0  0  0  2  0  0  0  0  0  0
   38.7220   33.2350   39.5370 H   0  0  0  0  0  0  0  0  0  0  0  0
  1  2  1  0  0  0  0
  1  5  1  0  0  0  0
  2  6  1  0  0  0  0
  3  8  1  6  0  0  0
  3  2  1  0  0  0  0
  3 22  1  0  0  0  0
  3  4  1  0  0  0  0
  4 10  1  0  0  0  0
  5  4  1  0  0  0  0
  5 12  1  0  0  0  0
  7  2  1  0  0  0  0
  9  4  1  0  0  0  0
 11  5  1  0  0  0  0
 13 14  1  0  0  0  0
 14 20  1  0  0  0  0
 14 15  2  0  0  0  0
 15  1  1  0  0  0  0
 16 15  1  0  0  0  0
 17 16  2  0  0  0  0
 18 13  2  0  0  0  0
 18 17  1  0  0  0  0
 19 13  1  0  0  0  0
 21 17  1  0  0  0  0
 22 23  1  0  0  0  0
 24 25  1  0  0  0  0
 25 26  2  0  0  0  0
 25 22  1  0  0  0  0
 26 30  1  0  0  0  0
 27 31  1  0  0  0  0
 27 26  1  0  0  0  0
 28 27  2  0  0  0  0
 29 28  1  0  0  0  0
 29 24  2  0  0  0  0
 32 28  1  0  0  0  0
 33 34  3  0  0  0  0
 34 24  1  0  0  0  0
 35 29  1  0  0  0  0
 36 35  1  0  0  0  0
 37 36  1  0  0  0  0
M  END
>  <minimizedAffinity>
-5.00360823

$$$$

 OpenBabel03242519083D

 37 39  0  0  1  0  0  0  0  0999 V2000
   38.1790   31.9240   39.4460 N   0  0  0  0  0  0  0  0  0  0  0  0
   37.6550   31.0780   40.5020 C   0  0  0  0  0  0  0  0  0  0  0  0
   37.3830   29.8440   39.6970 C   0  0  2  0  0  0  0  0  0  0  0  0
   36.6130   30.4240   38.5370 C   0  0  0  0  0  0  0  0  0  0  0  0
   37.3120   31.7390   38.3030 C   0  0  0  0  0  0  0  0  0  0  0  0
   36.7690   31.4990   40.9800 H   0  0  0  0  0  0  0  0  0  0  0  0
   38.4930   30.8710   41.2140 H   0  0  0  0  0  0  0  0  0  0  0  0
   38.3420   29.4180   39.3990 H   0  0  0  0  0  0  0  0  0  0  0  0
   36.5800   29.7660   37.6470 H   0  0  0  0  0  0  0  0  0  0  0  0
   35.5790   30.6610   38.9180 H   0  0  0  0  0  0  0  0  0  0  0  0
   37.8900   31.7570   37.3720 H   0  0  0  0  0  0  0  0  0  0  0  0
   36.5970   32.5840   38.3030 H   0  0  0  0  0  0  0  0  0  0  0  0
   40.5600   34.7230   40.1060 C   0  0  0  0  0  0  0  0  0  0  0  0
   39.4090   33.9290   40.1890 C   0  0  0  0  0  0  0  0  0  0  0  0
   39.2900   32.7830   39.4310 C   0  0  0  0  0  0  0  0  0  0  0  0
   40.3330   32.4700   38.6130 N   0  0  0  0  0  0  0  0  0  0  0  0
   41.4450   33.2170   38.5190 C   0  0  0  0  0  0  0  0  0  0  0  0
   41.5590   34.3470   39.2670 N   0  0  0  0  0  0  0  0  0  0  0  0
   40.6630   35.6210   40.6920 H   0  0  0  0  0  0  0  0  0  0  0  0
   38.5870   34.2010   40.8520 H   0  0  0  0  0  0  0  0  0  0  0  0
   42.2430   32.8930   37.8340 H   0  0  0  0  0  0  0  0  0  0  0  0
   36.5100   28.9140   40.3810 N   0  0  0  0  0  0  0  0  0  0  0  0
   35.5550   29.3010   40.6220 H   0  0  0  0  0  0  0  0  0  0  0  0
   36.6230   26.4700   39.9260 C   0  0  0  0  0  0  0  0  0  0  0  0
   36.6980   27.5750   40.7840 C   0  0  0  0  0  0  0  0  0  0  0  0
   36.9770   27.2550   42.0870 C   0  0  0  0  0  0  0  0  0  0  0  0
   37.1730   25.9790   42.5670 C   0  0  0  0  0  0  0  0  0  0  0  0
   37.0940   24.9110   41.7010 C   0  0  0  0  0  0  0  0  0  0  0  0
   36.8140   25.1940   40.3740 C   0  0  0  0  0  0  0  0  0  0  0  0
   37.0530   28.0460   42.8240 H   0  0  0  0  0  0  0  0  0  0  0  0
   37.3910   25.7690   43.6120 H   0  0  0  0  0  0  0  0  0  0  0  0
   37.2410   23.8910   42.0330 H   0  0  0  0  0  0  0  0  0  0  0  0
   36.0880   26.9370   37.4100 N   0  0  0  0  0  0  0  0  0  0  0  0
   36.3320   26.7230   38.5200 C   0  0  0  0  0  0  0  0  0  0  0  0
   36.7220   24.0560   39.4260 C   0  0  0  0  0  2  0  0  0  0  0  0
   35.3660   23.4190   39.6040 C   0  0  0  0  0  2  0  0  0  0  0  0
   34.5790   24.1530   39.8450 H   0  0  0  0  0  0  0  0  0  0  0  0
  1  2  1  0  0  0  0
  2  6  1  0  0  0  0
  2  7  1  0  0  0  0
  3  8  1  6  0  0  0
  3 22  1  0  0  0  0
  3  2  1  0  0  0  0
  4 10  1  0  0  0  0
  4  3  1  0  0  0  0
  5  4  1  0  0  0  0
  5  1  1  0  0  0  0
  9  4  1  0  0  0  0
 11  5  1  0  0  0  0
 12  5  1  0  0  0  0
 13 14  1  0  0  0  0
 13 19  1  0  0  0  0
 14 20  1  0  0  0  0
 15  1  1  0  0  0  0
 15 14  2  0  0  0  0
 16 15  1  0  0  0  0
 17 16  2  0  0  0  0
 17 18  1  0  0  0  0
 18 13  2  0  0  0  0
 21 17  1  0  0  0  0
 22 23  1  0  0  0  0
 22 25  1  0  0  0  0
 24 29  2  0  0  0  0
 24 25  1  0  0  0  0
 25 26  2  0  0  0  0
 26 27  1  0  0  0  0
 26 30  1  0  0  0  0
 27 31  1  0  0  0  0
 28 32  1  0  0  0  0
 28 27  2  0  0  0  0
 29 28  1  0  0  0  0
 33 34  3  0  0  0  0
 34 24  1  0  0  0  0
 35 36  1  0  0  0  0
 35 29  1  0  0  0  0
 36 37  1  0  0  0  0
M  END
>  <minimizedAffinity>
-4.92837811

$$$$

 OpenBabel03242519083D

 37 39  0  0  1  0  0  0  0  0999 V2000
   38.6610   32.0860   40.3010 N   0  0  0  0  0  0  0  0  0  0  0  0
   38.0490   30.9730   41.0020 C   0  0  0  0  0  0  0  0  0  0  0  0
   37.5440   30.2040   39.8200 C   0  0  2  0  0  0  0  0  0  0  0  0
   36.8330   31.2920   39.0540 C   0  0  0  0  0  0  0  0  0  0  0  0
   37.7290   32.4850   39.2690 C   0  0  0  0  0  0  0  0  0  0  0  0
   37.2650   31.2880   41.6920 H   0  0  0  0  0  0  0  0  0  0  0  0
   38.8700   30.3910   41.4910 H   0  0  0  0  0  0  0  0  0  0  0  0
   38.4060   29.8030   39.2840 H   0  0  0  0  0  0  0  0  0  0  0  0
   36.6550   31.0470   37.9890 H   0  0  0  0  0  0  0  0  0  0  0  0
   35.8690   31.4980   39.6000 H   0  0  0  0  0  0  0  0  0  0  0  0
   38.2630   32.7880   38.3610 H   0  0  0  0  0  0  0  0  0  0  0  0
   37.1640   33.3510   39.6650 H   0  0  0  0  0  0  0  0  0  0  0  0
   42.1930   32.8490   41.2410 C   0  0  0  0  0  0  0  0  0  0  0  0
   41.0000   32.1320   41.0840 C   0  0  0  0  0  0  0  0  0  0  0  0
   39.8980   32.7220   40.5010 C   0  0  0  0  0  0  0  0  0  0  0  0
   40.0300   34.0140   40.0930 N   0  0  0  0  0  0  0  0  0  0  0  0
   41.1640   34.7190   40.2340 C   0  0  0  0  0  0  0  0  0  0  0  0
   42.2490   34.1350   40.8090 N   0  0  0  0  0  0  0  0  0  0  0  0
   43.0600   32.3990   41.6960 H   0  0  0  0  0  0  0  0  0  0  0  0
   40.9190   31.0970   41.4200 H   0  0  0  0  0  0  0  0  0  0  0  0
   41.1880   35.7590   39.8760 H   0  0  0  0  0  0  0  0  0  0  0  0
   36.5580   29.2090   40.1820 N   0  0  0  0  0  0  0  0  0  0  0  0
   35.7000   29.5930   40.6670 H   0  0  0  0  0  0  0  0  0  0  0  0
   36.8870   26.8760   40.9850 C   0  0  0  0  0  0  0  0  0  0  0  0
   36.5300   27.8090   40.0030 C   0  0  0  0  0  0  0  0  0  0  0  0
   36.1380   27.2490   38.8150 C   0  0  0  0  0  0  0  0  0  0  0  0
   36.0820   25.8990   38.5530 C   0  0  0  0  0  0  0  0  0  0  0  0
   36.4390   25.0040   39.5380 C   0  0  0  0  0  0  0  0  0  0  0  0
   36.8410   25.5310   40.7540 C   0  0  0  0  0  0  0  0  0  0  0  0
   35.8430   27.8940   37.9950 H   0  0  0  0  0  0  0  0  0  0  0  0
   35.7650   25.4960   37.5930 H   0  0  0  0  0  0  0  0  0  0  0  0
   36.4110   23.9340   39.3780 H   0  0  0  0  0  0  0  0  0  0  0  0
   37.6590   27.8120   43.3010 N   0  0  0  0  0  0  0  0  0  0  0  0
   37.3150   27.3880   42.2820 C   0  0  0  0  0  0  0  0  0  0  0  0
   37.2320   24.5820   41.8260 C   0  0  0  0  0  2  0  0  0  0  0  0
   37.8250   23.3620   41.1660 C   0  0  0  0  0  2  0  0  0  0  0  0
   38.3900   23.6060   40.2510 H   0  0  0  0  0  0  0  0  0  0  0  0
  1 15  1  0  0  0  0
  1  2  1  0  0  0  0
  2  7  1  0  0  0  0
  2  6  1  0  0  0  0
  3  8  1  6  0  0  0
  3 22  1  0  0  0  0
  3  2  1  0  0  0  0
  4  5  1  0  0  0  0
  4 10  1  0  0  0  0
  4  3  1  0  0  0  0
  5 12  1  0  0  0  0
  5  1  1  0  0  0  0
  9  4  1  0  0  0  0
 11  5  1  0  0  0  0
 13 19  1  0  0  0  0
 14 13  1  0  0  0  0
 14 20  1  0  0  0  0
 15 14  2  0  0  0  0
 16 17  2  0  0  0  0
 16 15  1  0  0  0  0
 17 18  1  0  0  0  0
 18 13  2  0  0  0  0
 21 17  1  0  0  0  0
 22 23  1  0  0  0  0
 24 34  1  0  0  0  0
 25 22  1  0  0  0  0
 25 24  2  0  0  0  0
 26 25  1  0  0  0  0
 27 26  2  0  0  0  0
 27 28  1  0  0  0  0
 28 29  2  0  0  0  0
 29 24  1  0  0  0  0
 29 35  1  0  0  0  0
 30 26  1  0  0  0  0
 31 27  1  0  0  0  0
 32 28  1  0  0  0  0
 34 33  3  0  0  0  0
 36 35  1  0  0  0  0
 37 36  1  0  0  0  0
M  END
>  <minimizedAffinity>
-4.87628078

$$$$
