
 OpenBabel03252509143D

 39 42  0  0  1  0  0  0  0  0999 V2000
   47.4850   32.5780   44.2550 C   0  0  0  0  0  0  0  0  0  0  0  0
   46.7910   33.5490   43.5280 C   0  0  0  0  0  0  0  0  0  0  0  0
   45.7510   34.2960   44.0730 C   0  0  0  0  0  0  0  0  0  0  0  0
   45.3770   34.0760   45.4050 C   0  0  0  0  0  0  0  0  0  0  0  0
   44.4520   34.5910   46.2390 N   0  0  0  0  0  0  0  0  0  0  0  0
   44.5410   33.9870   47.4440 C   0  0  0  0  0  0  0  0  0  0  0  0
   45.5300   33.1010   47.3280 N   0  0  0  0  0  0  0  0  0  0  0  0
   46.0750   33.1170   46.0990 C   0  0  0  0  0  0  0  0  0  0  0  0
   47.1070   32.3600   45.5890 C   0  0  0  0  0  0  0  0  0  0  0  0
   48.2750   32.0530   43.7410 H   0  0  0  0  0  0  0  0  0  0  0  0
   43.7670   35.3510   45.9770 H   0  0  0  0  0  0  0  0  0  0  0  0
   43.9570   34.1540   48.3380 H   0  0  0  0  0  0  0  0  0  0  0  0
   47.6390   31.6210   46.1360 H   0  0  0  0  0  0  0  0  0  0  0  0
   47.0230   33.2080   39.8940 C   0  0  0  0  0  0  0  0  0  0  0  0
   47.8740   34.2560   39.5350 C   0  0  0  0  0  0  0  0  0  0  0  0
   48.3620   35.0720   40.5490 C   0  0  0  0  0  0  0  0  0  0  0  0
   47.9910   34.8170   41.8470 N   0  0  0  0  0  0  0  0  0  0  0  0
   47.1660   33.7930   42.1380 C   0  0  0  0  0  0  0  0  0  0  0  0
   46.6640   32.9690   41.1930 N   0  0  0  0  0  0  0  0  0  0  0  0
   46.6400   32.5700   39.1110 H   0  0  0  0  0  0  0  0  0  0  0  0
   48.1420   34.4240   38.5060 H   0  0  0  0  0  0  0  0  0  0  0  0
   49.0260   35.9020   40.3440 H   0  0  0  0  0  0  0  0  0  0  0  0
   44.8840   35.5210   43.1330 S   0  0  0  0  0  0  0  0  0  0  0  0
   42.3480   35.4640   42.4500 N   0  0  0  0  0  0  0  0  0  0  0  0
   43.6080   34.8470   42.0510 C   0  0  1  0  0  0  0  0  0  0  0  0
   43.9940   35.2440   40.6370 C   0  0  0  0  0  0  0  0  0  0  0  0
   42.9370   35.2240   39.7480 O   0  0  0  0  0  0  0  0  0  0  0  0
   41.7830   34.6310   40.2150 C   0  0  0  0  0  0  0  0  0  0  0  0
   41.3310   35.3560   41.4480 C   0  0  1  0  0  0  0  0  0  0  0  0
   42.1000   35.0540   43.3750 H   0  0  0  0  0  0  0  0  0  0  0  0
   43.5290   33.7440   42.1550 H   0  0  0  0  0  0  0  0  0  0  0  0
   44.4310   36.2630   40.6520 H   0  0  0  0  0  0  0  0  0  0  0  0
   44.6920   34.5080   40.2460 H   0  0  0  0  0  0  0  0  0  0  0  0
   41.0150   34.7470   39.4450 H   0  0  0  0  0  0  0  0  0  0  0  0
   41.9980   33.5790   40.4700 H   0  0  0  0  0  0  0  0  0  0  0  0
   40.9140   36.3610   41.1900 H   0  0  0  0  0  0  0  0  0  0  0  0
   40.1750   34.5510   42.0520 C   0  0  0  0  0  2  0  0  0  0  0  0
   40.1290   33.1390   41.5700 C   0  0  0  0  0  2  0  0  0  0  0  0
   40.6570   32.4480   42.2700 H   0  0  0  0  0  0  0  0  0  0  0  0
  1  9  1  0  0  0  0
  2  3  1  0  0  0  0
  2  1  2  0  0  0  0
  3  4  2  0  0  0  0
  4  8  1  0  0  0  0
  4  5  1  0  0  0  0
  5  6  1  0  0  0  0
  6 12  1  0  0  0  0
  7  6  2  0  0  0  0
  8  7  1  0  0  0  0
  9  8  2  0  0  0  0
  9 13  1  0  0  0  0
 10  1  1  0  0  0  0
 11  5  1  0  0  0  0
 14 19  1  0  0  0  0
 15 14  2  0  0  0  0
 15 16  1  0  0  0  0
 16 17  2  0  0  0  0
 17 18  1  0  0  0  0
 18  2  1  0  0  0  0
 19 18  2  0  0  0  0
 20 14  1  0  0  0  0
 21 15  1  0  0  0  0
 22 16  1  0  0  0  0
 23  3  1  0  0  0  0
 24 30  1  0  0  0  0
 25 31  1  1  0  0  0
 25 24  1  0  0  0  0
 25 23  1  0  0  0  0
 26 32  1  0  0  0  0
 26 25  1  0  0  0  0
 27 28  1  0  0  0  0
 27 26  1  0  0  0  0
 28 35  1  0  0  0  0
 28 29  1  0  0  0  0
 29 36  1  6  0  0  0
 29 37  1  0  0  0  0
 29 24  1  0  0  0  0
 33 26  1  0  0  0  0
 34 28  1  0  0  0  0
 38 37  1  0  0  0  0
 38 39  1  0  0  0  0
M  END
>  <minimizedAffinity>
-5.81412554

>  <minimizedRMSD>
0.246734843

$$$$
