
 OpenBabel03252507393D

 32 35  0  0  0  0  0  0  0  0999 V2000
   37.8140   29.5980   42.3000 C   0  0  0  0  0  0  0  0  0  0  0  0
   38.8400   30.4240   41.7700 C   0  0  0  0  0  0  0  0  0  0  0  0
   38.4690   31.3080   40.7590 C   0  0  0  0  0  0  0  0  0  0  0  0
   37.1850   31.3360   40.3420 N   0  0  0  0  0  0  0  0  0  0  0  0
   36.2280   30.5330   40.8690 C   0  0  0  0  0  0  0  0  0  0  0  0
   36.5480   29.6790   41.8340 N   0  0  0  0  0  0  0  0  0  0  0  0
   39.8530   30.4150   42.0860 H   0  0  0  0  0  0  0  0  0  0  0  0
   35.2100   30.5600   40.5330 H   0  0  0  0  0  0  0  0  0  0  0  0
   39.4660   33.5230   40.6000 C   0  0  0  0  0  0  0  0  0  0  0  0
   39.4000   32.2240   40.1100 C   0  0  0  0  0  0  0  0  0  0  0  0
   40.2060   31.8890   39.0580 C   0  0  0  0  0  0  0  0  0  0  0  0
   41.0730   32.7860   38.4700 C   0  0  0  0  0  0  0  0  0  0  0  0
   41.9470   32.6630   37.4340 N   0  0  0  0  0  0  0  0  0  0  0  0
   42.5610   33.8980   37.2810 C   0  0  0  0  0  0  0  0  0  0  0  0
   42.0570   34.7240   38.2060 N   0  0  0  0  0  0  0  0  0  0  0  0
   41.1450   34.0650   38.9450 C   0  0  0  0  0  0  0  0  0  0  0  0
   40.3450   34.4300   40.0050 C   0  0  0  0  0  0  0  0  0  0  0  0
   38.8550   33.8510   41.4290 H   0  0  0  0  0  0  0  0  0  0  0  0
   40.1250   30.8640   38.7030 H   0  0  0  0  0  0  0  0  0  0  0  0
   42.1200   31.7890   36.8610 H   0  0  0  0  0  0  0  0  0  0  0  0
   43.3000   34.0430   36.5120 H   0  0  0  0  0  0  0  0  0  0  0  0
   40.3960   35.4560   40.3920 H   0  0  0  0  0  0  0  0  0  0  0  0
   38.1750   28.7110   43.3100 O   0  0  0  0  0  0  0  0  0  0  0  0
   38.4550   27.3840   43.0040 C   0  0  0  0  0  0  0  0  0  0  0  0
   39.6340   27.2240   43.6350 C   0  0  0  0  0  0  0  0  0  0  0  0
   40.0550   25.4150   43.2450 S   0  0  0  0  0  0  0  0  0  0  0  0
   38.4380   25.2820   42.2530 C   0  0  0  0  0  0  0  0  0  0  0  0
   38.0500   26.3030   42.3860 N   0  0  0  0  0  0  0  0  0  0  0  0
   40.6190   27.4810   44.3010 H   0  0  0  0  0  0  0  0  0  0  0  0
   37.9970   24.0440   41.5600 C   0  0  0  0  0  2  0  0  0  0  0  0
   36.5800   24.2310   41.1410 C   0  0  0  0  0  2  0  0  0  0  0  0
   36.5740   24.7540   40.1420 H   0  0  0  0  0  0  0  0  0  0  0  0
  1 23  1  0  0  0  0
  2  7  1  0  0  0  0
  2  1  2  0  0  0  0
  3  2  1  0  0  0  0
  4  3  2  0  0  0  0
  4  5  1  0  0  0  0
  5  6  2  0  0  0  0
  6  1  1  0  0  0  0
  8  5  1  0  0  0  0
  9 18  1  0  0  0  0
 10  9  1  0  0  0  0
 10  3  1  0  0  0  0
 11 10  2  0  0  0  0
 12 16  2  0  0  0  0
 12 11  1  0  0  0  0
 13 12  1  0  0  0  0
 14 13  1  0  0  0  0
 14 15  2  0  0  0  0
 15 16  1  0  0  0  0
 16 17  1  0  0  0  0
 17 22  1  0  0  0  0
 17  9  2  0  0  0  0
 19 11  1  0  0  0  0
 20 13  1  0  0  0  0
 21 14  1  0  0  0  0
 24 23  1  0  0  0  0
 24 25  2  0  0  0  0
 25 29  1  0  0  0  0
 26 25  1  0  0  0  0
 27 28  2  0  0  0  0
 27 26  1  0  0  0  0
 28 24  1  0  0  0  0
 30 27  1  0  0  0  0
 31 30  1  0  0  0  0
 32 31  1  0  0  0  0
M  END
>  <minimizedAffinity>
-5.71962261

$$$$

 OpenBabel03252507393D

 32 35  0  0  0  0  0  0  0  0999 V2000
   38.1060   32.8410   39.8800 C   0  0  0  0  0  0  0  0  0  0  0  0
   39.1320   32.2230   39.1170 C   0  0  0  0  0  0  0  0  0  0  0  0
   40.3150   32.9410   38.9660 C   0  0  0  0  0  0  0  0  0  0  0  0
   40.4280   34.1610   39.5360 N   0  0  0  0  0  0  0  0  0  0  0  0
   39.4290   34.7240   40.2590 C   0  0  0  0  0  0  0  0  0  0  0  0
   38.2870   34.0660   40.4220 N   0  0  0  0  0  0  0  0  0  0  0  0
   39.0610   31.2660   38.6630 H   0  0  0  0  0  0  0  0  0  0  0  0
   39.5240   35.6930   40.7090 H   0  0  0  0  0  0  0  0  0  0  0  0
   42.6850   33.0840   38.4240 C   0  0  0  0  0  0  0  0  0  0  0  0
   41.4660   32.4490   38.2150 C   0  0  0  0  0  0  0  0  0  0  0  0
   41.4200   31.4120   37.3260 C   0  0  0  0  0  0  0  0  0  0  0  0
   42.5320   30.9770   36.6350 C   0  0  0  0  0  0  0  0  0  0  0  0
   42.7050   29.9830   35.7220 N   0  0  0  0  0  0  0  0  0  0  0  0
   44.0450   30.0000   35.3620 C   0  0  0  0  0  0  0  0  0  0  0  0
   44.6410   30.9830   36.0480 N   0  0  0  0  0  0  0  0  0  0  0  0
   43.7350   31.5940   36.8340 C   0  0  0  0  0  0  0  0  0  0  0  0
   43.8080   32.6420   37.7240 C   0  0  0  0  0  0  0  0  0  0  0  0
   42.7860   33.9100   39.1140 H   0  0  0  0  0  0  0  0  0  0  0  0
   40.4490   30.9430   37.1900 H   0  0  0  0  0  0  0  0  0  0  0  0
   41.9560   29.3260   35.3620 H   0  0  0  0  0  0  0  0  0  0  0  0
   44.4210   29.2940   34.6420 H   0  0  0  0  0  0  0  0  0  0  0  0
   44.7720   33.1430   37.8900 H   0  0  0  0  0  0  0  0  0  0  0  0
   36.9190   32.1310   40.0360 O   0  0  0  0  0  0  0  0  0  0  0  0
   36.9110   30.9370   40.7480 C   0  0  0  0  0  0  0  0  0  0  0  0
   36.1100   30.1850   39.9690 C   0  0  0  0  0  0  0  0  0  0  0  0
   36.0720   28.5350   40.9060 S   0  0  0  0  0  0  0  0  0  0  0  0
   37.2210   29.2880   42.2200 C   0  0  0  0  0  0  0  0  0  0  0  0
   37.3470   30.2990   41.8050 N   0  0  0  0  0  0  0  0  0  0  0  0
   35.3850   29.8650   39.0460 H   0  0  0  0  0  0  0  0  0  0  0  0
   37.7060   28.5460   43.4140 C   0  0  0  0  0  2  0  0  0  0  0  0
   36.6230   27.6220   43.8510 C   0  0  0  0  0  2  0  0  0  0  0  0
   36.7130   26.6670   43.2600 H   0  0  0  0  0  0  0  0  0  0  0  0
  1 23  1  0  0  0  0
  1  6  1  0  0  0  0
  2  1  2  0  0  0  0
  3  2  1  0  0  0  0
  3  4  2  0  0  0  0
  4  5  1  0  0  0  0
  5  6  2  0  0  0  0
  5  8  1  0  0  0  0
  7  2  1  0  0  0  0
  9 18  1  0  0  0  0
 10  9  1  0  0  0  0
 10  3  1  0  0  0  0
 11 10  2  0  0  0  0
 12 16  2  0  0  0  0
 12 11  1  0  0  0  0
 13 12  1  0  0  0  0
 14 13  1  0  0  0  0
 14 15  2  0  0  0  0
 15 16  1  0  0  0  0
 16 17  1  0  0  0  0
 17 22  1  0  0  0  0
 17  9  2  0  0  0  0
 19 11  1  0  0  0  0
 20 13  1  0  0  0  0
 21 14  1  0  0  0  0
 23 24  1  0  0  0  0
 24 28  1  0  0  0  0
 25 24  2  0  0  0  0
 25 26  1  0  0  0  0
 26 27  1  0  0  0  0
 27 30  1  0  0  0  0
 28 27  2  0  0  0  0
 29 25  1  0  0  0  0
 30 31  1  0  0  0  0
 32 31  1  0  0  0  0
M  END
>  <minimizedAffinity>
-5.71611547

$$$$

 OpenBabel03252507393D

 32 35  0  0  0  0  0  0  0  0999 V2000
   38.9140   32.0070   40.9970 C   0  0  0  0  0  0  0  0  0  0  0  0
   38.3730   31.0380   40.1110 C   0  0  0  0  0  0  0  0  0  0  0  0
   37.5400   31.5130   39.1020 C   0  0  0  0  0  0  0  0  0  0  0  0
   37.2910   32.8380   39.0150 N   0  0  0  0  0  0  0  0  0  0  0  0
   37.8230   33.7380   39.8780 C   0  0  0  0  0  0  0  0  0  0  0  0
   38.6220   33.3190   40.8520 N   0  0  0  0  0  0  0  0  0  0  0  0
   38.5580   29.9940   40.1630 H   0  0  0  0  0  0  0  0  0  0  0  0
   37.6220   34.7890   39.8060 H   0  0  0  0  0  0  0  0  0  0  0  0
   35.8600   29.8420   38.5410 C   0  0  0  0  0  0  0  0  0  0  0  0
   36.9050   30.6510   38.1100 C   0  0  0  0  0  0  0  0  0  0  0  0
   37.2700   30.5900   36.7940 C   0  0  0  0  0  0  0  0  0  0  0  0
   36.6430   29.7600   35.8870 C   0  0  0  0  0  0  0  0  0  0  0  0
   36.8440   29.5480   34.5580 N   0  0  0  0  0  0  0  0  0  0  0  0
   35.9140   28.5990   34.1600 C   0  0  0  0  0  0  0  0  0  0  0  0
   35.1870   28.2630   35.2330 N   0  0  0  0  0  0  0  0  0  0  0  0
   35.6150   28.9620   36.3010 C   0  0  0  0  0  0  0  0  0  0  0  0
   35.2270   29.0040   37.6210 C   0  0  0  0  0  0  0  0  0  0  0  0
   35.5250   29.8440   39.5680 H   0  0  0  0  0  0  0  0  0  0  0  0
   38.0910   31.2370   36.4960 H   0  0  0  0  0  0  0  0  0  0  0  0
   37.5710   30.0220   33.9510 H   0  0  0  0  0  0  0  0  0  0  0  0
   35.8820   28.2680   33.1370 H   0  0  0  0  0  0  0  0  0  0  0  0
   34.4020   28.3640   37.9620 H   0  0  0  0  0  0  0  0  0  0  0  0
   39.7480   31.5420   42.0090 O   0  0  0  0  0  0  0  0  0  0  0  0
   39.6260   30.2340   42.4660 C   0  0  0  0  0  0  0  0  0  0  0  0
   40.9010   29.8140   42.3700 C   0  0  0  0  0  0  0  0  0  0  0  0
   40.7820   28.0240   42.9900 S   0  0  0  0  0  0  0  0  0  0  0  0
   38.9150   28.2700   43.2520 C   0  0  0  0  0  0  0  0  0  0  0  0
   38.8130   29.3140   42.9220 N   0  0  0  0  0  0  0  0  0  0  0  0
   42.0960   29.8280   42.1450 H   0  0  0  0  0  0  0  0  0  0  0  0
   38.0100   27.2120   43.7730 C   0  0  0  0  0  2  0  0  0  0  0  0
   36.6460   27.4650   43.2310 C   0  0  0  0  0  2  0  0  0  0  0  0
   36.5740   26.9820   42.2150 H   0  0  0  0  0  0  0  0  0  0  0  0
  1 23  1  0  0  0  0
  2  7  1  0  0  0  0
  2  1  2  0  0  0  0
  3  2  1  0  0  0  0
  4  3  2  0  0  0  0
  4  5  1  0  0  0  0
  5  6  2  0  0  0  0
  6  1  1  0  0  0  0
  8  5  1  0  0  0  0
  9 18  1  0  0  0  0
 10  9  1  0  0  0  0
 10  3  1  0  0  0  0
 11 10  2  0  0  0  0
 12 16  2  0  0  0  0
 12 11  1  0  0  0  0
 13 12  1  0  0  0  0
 14 13  1  0  0  0  0
 14 15  2  0  0  0  0
 15 16  1  0  0  0  0
 16 17  1  0  0  0  0
 17 22  1  0  0  0  0
 17  9  2  0  0  0  0
 19 11  1  0  0  0  0
 20 13  1  0  0  0  0
 21 14  1  0  0  0  0
 23 24  1  0  0  0  0
 24 28  1  0  0  0  0
 25 24  2  0  0  0  0
 25 26  1  0  0  0  0
 26 27  1  0  0  0  0
 27 30  1  0  0  0  0
 28 27  2  0  0  0  0
 29 25  1  0  0  0  0
 31 30  1  0  0  0  0
 32 31  1  0  0  0  0
M  END
>  <minimizedAffinity>
-5.67387295

$$$$

 OpenBabel03252507393D

 32 35  0  0  0  0  0  0  0  0999 V2000
   38.4100   27.2600   43.3410 C   0  0  0  0  0  0  0  0  0  0  0  0
   37.7340   26.4450   42.3950 C   0  0  0  0  0  0  0  0  0  0  0  0
   38.2650   25.1780   42.1710 C   0  0  0  0  0  0  0  0  0  0  0  0
   39.3690   24.7930   42.8460 N   0  0  0  0  0  0  0  0  0  0  0  0
   39.9920   25.5950   43.7440 C   0  0  0  0  0  0  0  0  0  0  0  0
   39.5120   26.8100   43.9820 N   0  0  0  0  0  0  0  0  0  0  0  0
   36.8650   26.7310   41.8550 H   0  0  0  0  0  0  0  0  0  0  0  0
   40.8700   25.2840   44.2780 H   0  0  0  0  0  0  0  0  0  0  0  0
   38.5120   23.1880   40.7890 C   0  0  0  0  0  0  0  0  0  0  0  0
   37.6910   24.2180   41.2330 C   0  0  0  0  0  0  0  0  0  0  0  0
   36.4070   24.2680   40.7660 C   0  0  0  0  0  0  0  0  0  0  0  0
   35.9020   23.3410   39.8790 C   0  0  0  0  0  0  0  0  0  0  0  0
   34.6780   23.2070   39.3000 N   0  0  0  0  0  0  0  0  0  0  0  0
   34.7400   22.0830   38.4890 C   0  0  0  0  0  0  0  0  0  0  0  0
   35.9730   21.5720   38.5930 N   0  0  0  0  0  0  0  0  0  0  0  0
   36.7010   22.3250   39.4370 C   0  0  0  0  0  0  0  0  0  0  0  0
   37.9990   22.2500   39.8920 C   0  0  0  0  0  0  0  0  0  0  0  0
   39.5360   23.0930   41.1210 H   0  0  0  0  0  0  0  0  0  0  0  0
   35.7970   25.0890   41.1360 H   0  0  0  0  0  0  0  0  0  0  0  0
   33.8430   23.8430   39.4450 H   0  0  0  0  0  0  0  0  0  0  0  0
   33.8780   21.7760   37.9230 H   0  0  0  0  0  0  0  0  0  0  0  0
   38.6480   21.4360   39.5410 H   0  0  0  0  0  0  0  0  0  0  0  0
   37.8860   28.5290   43.5710 O   0  0  0  0  0  0  0  0  0  0  0  0
   37.9280   29.4910   42.5680 C   0  0  0  0  0  0  0  0  0  0  0  0
   39.1510   30.0150   42.7740 C   0  0  0  0  0  0  0  0  0  0  0  0
   39.2540   31.3390   41.4180 S   0  0  0  0  0  0  0  0  0  0  0  0
   37.5070   30.8500   40.8490 C   0  0  0  0  0  0  0  0  0  0  0  0
   37.2900   30.0500   41.5710 N   0  0  0  0  0  0  0  0  0  0  0  0
   40.2490   30.1990   43.2640 H   0  0  0  0  0  0  0  0  0  0  0  0
   36.8000   31.4960   39.7120 C   0  0  0  0  0  2  0  0  0  0  0  0
   37.3050   32.8920   39.5910 C   0  0  0  0  0  2  0  0  0  0  0  0
   38.2380   32.8770   38.9600 H   0  0  0  0  0  0  0  0  0  0  0  0
  1 23  1  0  0  0  0
  1  6  1  0  0  0  0
  2  1  2  0  0  0  0
  3  2  1  0  0  0  0
  3  4  2  0  0  0  0
  4  5  1  0  0  0  0
  5  6  2  0  0  0  0
  5  8  1  0  0  0  0
  7  2  1  0  0  0  0
  9 18  1  0  0  0  0
  9 10  1  0  0  0  0
 10  3  1  0  0  0  0
 11 19  1  0  0  0  0
 11 10  2  0  0  0  0
 12 11  1  0  0  0  0
 13 20  1  0  0  0  0
 13 12  1  0  0  0  0
 14 15  2  0  0  0  0
 14 13  1  0  0  0  0
 15 16  1  0  0  0  0
 16 12  2  0  0  0  0
 16 17  1  0  0  0  0
 17  9  2  0  0  0  0
 21 14  1  0  0  0  0
 22 17  1  0  0  0  0
 24 25  2  0  0  0  0
 24 23  1  0  0  0  0
 25 29  1  0  0  0  0
 26 25  1  0  0  0  0
 27 26  1  0  0  0  0
 27 28  2  0  0  0  0
 28 24  1  0  0  0  0
 30 27  1  0  0  0  0
 31 30  1  0  0  0  0
 32 31  1  0  0  0  0
M  END
>  <minimizedAffinity>
-5.66967201

$$$$

 OpenBabel03252507393D

 32 35  0  0  0  0  0  0  0  0999 V2000
   33.5640   28.7520   36.8610 C   0  0  0  0  0  0  0  0  0  0  0  0
   34.0160   28.3800   38.1560 C   0  0  0  0  0  0  0  0  0  0  0  0
   35.3870   28.4500   38.3810 C   0  0  0  0  0  0  0  0  0  0  0  0
   36.2040   28.8570   37.3850 N   0  0  0  0  0  0  0  0  0  0  0  0
   35.7410   29.2060   36.1590 C   0  0  0  0  0  0  0  0  0  0  0  0
   34.4380   29.1500   35.9100 N   0  0  0  0  0  0  0  0  0  0  0  0
   33.3890   28.0580   38.9500 H   0  0  0  0  0  0  0  0  0  0  0  0
   36.3940   29.5280   35.3710 H   0  0  0  0  0  0  0  0  0  0  0  0
   36.5600   26.8320   39.7730 C   0  0  0  0  0  0  0  0  0  0  0  0
   36.0130   28.1050   39.6540 C   0  0  0  0  0  0  0  0  0  0  0  0
   36.0930   28.9460   40.7280 C   0  0  0  0  0  0  0  0  0  0  0  0
   36.6940   28.5800   41.9150 C   0  0  0  0  0  0  0  0  0  0  0  0
   36.8790   29.2500   43.0850 N   0  0  0  0  0  0  0  0  0  0  0  0
   37.5500   28.3840   43.9380 C   0  0  0  0  0  0  0  0  0  0  0  0
   37.7500   27.2360   43.2810 N   0  0  0  0  0  0  0  0  0  0  0  0
   37.2350   27.3330   42.0420 C   0  0  0  0  0  0  0  0  0  0  0  0
   37.1680   26.4650   40.9750 C   0  0  0  0  0  0  0  0  0  0  0  0
   36.5290   26.1210   38.9600 H   0  0  0  0  0  0  0  0  0  0  0  0
   35.6530   29.9320   40.5960 H   0  0  0  0  0  0  0  0  0  0  0  0
   36.5700   30.2410   43.2960 H   0  0  0  0  0  0  0  0  0  0  0  0
   37.8080   28.6990   44.9340 H   0  0  0  0  0  0  0  0  0  0  0  0
   37.6000   25.4590   41.0680 H   0  0  0  0  0  0  0  0  0  0  0  0
   32.1940   28.6840   36.6260 O   0  0  0  0  0  0  0  0  0  0  0  0
   31.4540   29.8520   36.4830 C   0  0  0  0  0  0  0  0  0  0  0  0
   30.8990   29.9500   37.7060 C   0  0  0  0  0  0  0  0  0  0  0  0
   29.8760   31.5410   37.5580 S   0  0  0  0  0  0  0  0  0  0  0  0
   30.4700   31.7210   35.7600 C   0  0  0  0  0  0  0  0  0  0  0  0
   31.1080   30.8280   35.6820 N   0  0  0  0  0  0  0  0  0  0  0  0
   30.6200   29.6840   38.8600 H   0  0  0  0  0  0  0  0  0  0  0  0
   30.0660   32.8380   34.8670 C   0  0  0  0  0  2  0  0  0  0  0  0
   30.3140   32.4160   33.4610 C   0  0  0  0  0  2  0  0  0  0  0  0
   29.4130   31.8440   33.0990 H   0  0  0  0  0  0  0  0  0  0  0  0
  1  2  1  0  0  0  0
  2  3  2  0  0  0  0
  2  7  1  0  0  0  0
  3 10  1  0  0  0  0
  4  3  1  0  0  0  0
  5  4  2  0  0  0  0
  6  5  1  0  0  0  0
  6  1  2  0  0  0  0
  8  5  1  0  0  0  0
  9 17  1  0  0  0  0
 10  9  2  0  0  0  0
 10 11  1  0  0  0  0
 11 12  2  0  0  0  0
 12 16  1  0  0  0  0
 12 13  1  0  0  0  0
 13 20  1  0  0  0  0
 13 14  1  0  0  0  0
 14 21  1  0  0  0  0
 15 14  2  0  0  0  0
 16 15  1  0  0  0  0
 17 22  1  0  0  0  0
 17 16  2  0  0  0  0
 18  9  1  0  0  0  0
 19 11  1  0  0  0  0
 23  1  1  0  0  0  0
 24 23  1  0  0  0  0
 24 25  2  0  0  0  0
 25 29  1  0  0  0  0
 26 25  1  0  0  0  0
 27 26  1  0  0  0  0
 28 27  2  0  0  0  0
 28 24  1  0  0  0  0
 30 27  1  0  0  0  0
 31 30  1  0  0  0  0
 32 31  1  0  0  0  0
M  END
>  <minimizedAffinity>
-5.56168222

$$$$

 OpenBabel03252507393D

 32 35  0  0  0  0  0  0  0  0999 V2000
   38.1950   26.6840   42.6310 C   0  0  0  0  0  0  0  0  0  0  0  0
   37.8040   27.9000   42.0080 C   0  0  0  0  0  0  0  0  0  0  0  0
   38.7010   28.9610   42.0950 C   0  0  0  0  0  0  0  0  0  0  0  0
   39.8690   28.7910   42.7510 N   0  0  0  0  0  0  0  0  0  0  0  0
   40.2130   27.6170   43.3360 C   0  0  0  0  0  0  0  0  0  0  0  0
   39.3810   26.5840   43.2720 N   0  0  0  0  0  0  0  0  0  0  0  0
   36.8910   28.0510   41.4880 H   0  0  0  0  0  0  0  0  0  0  0  0
   41.1420   27.4870   43.8560 H   0  0  0  0  0  0  0  0  0  0  0  0
   37.2770   30.4410   40.7860 C   0  0  0  0  0  0  0  0  0  0  0  0
   38.4520   30.2750   41.5100 C   0  0  0  0  0  0  0  0  0  0  0  0
   39.2960   31.3440   41.6270 C   0  0  0  0  0  0  0  0  0  0  0  0
   39.0240   32.5710   41.0580 C   0  0  0  0  0  0  0  0  0  0  0  0
   39.7130   33.7440   41.0520 N   0  0  0  0  0  0  0  0  0  0  0  0
   38.9570   34.6470   40.3180 C   0  0  0  0  0  0  0  0  0  0  0  0
   37.8530   34.0150   39.9040 N   0  0  0  0  0  0  0  0  0  0  0  0
   37.8720   32.7440   40.3440 C   0  0  0  0  0  0  0  0  0  0  0  0
   37.0040   31.6830   40.2110 C   0  0  0  0  0  0  0  0  0  0  0  0
   36.5700   29.6340   40.6560 H   0  0  0  0  0  0  0  0  0  0  0  0
   40.2040   31.1740   42.2000 H   0  0  0  0  0  0  0  0  0  0  0  0
   40.6450   33.9260   41.5210 H   0  0  0  0  0  0  0  0  0  0  0  0
   39.3070   35.6550   40.1760 H   0  0  0  0  0  0  0  0  0  0  0  0
   36.0760   31.8130   39.6380 H   0  0  0  0  0  0  0  0  0  0  0  0
   37.3050   25.6180   42.5490 O   0  0  0  0  0  0  0  0  0  0  0  0
   37.0230   25.0390   41.3160 C   0  0  0  0  0  0  0  0  0  0  0  0
   37.6550   23.8570   41.4430 C   0  0  0  0  0  0  0  0  0  0  0  0
   37.2920   23.0270   39.7750 S   0  0  0  0  0  0  0  0  0  0  0  0
   36.3080   24.5690   39.2550 C   0  0  0  0  0  0  0  0  0  0  0  0
   36.4250   25.1820   40.1600 N   0  0  0  0  0  0  0  0  0  0  0  0
   38.3140   22.9590   41.9310 H   0  0  0  0  0  0  0  0  0  0  0  0
   35.6350   24.7100   37.9370 C   0  0  0  0  0  2  0  0  0  0  0  0
   35.4460   26.1630   37.6710 C   0  0  0  0  0  2  0  0  0  0  0  0
   36.3880   26.5610   37.1970 H   0  0  0  0  0  0  0  0  0  0  0  0
  1  6  1  0  0  0  0
  2  3  1  0  0  0  0
  2  1  2  0  0  0  0
  3  4  2  0  0  0  0
  4  5  1  0  0  0  0
  5  8  1  0  0  0  0
  6  5  2  0  0  0  0
  7  2  1  0  0  0  0
  9 10  1  0  0  0  0
 10 11  2  0  0  0  0
 10  3  1  0  0  0  0
 11 19  1  0  0  0  0
 12 11  1  0  0  0  0
 13 12  1  0  0  0  0
 13 20  1  0  0  0  0
 14 13  1  0  0  0  0
 15 14  2  0  0  0  0
 15 16  1  0  0  0  0
 16 12  2  0  0  0  0
 17 16  1  0  0  0  0
 17  9  2  0  0  0  0
 18  9  1  0  0  0  0
 21 14  1  0  0  0  0
 22 17  1  0  0  0  0
 23  1  1  0  0  0  0
 24 25  2  0  0  0  0
 24 23  1  0  0  0  0
 25 29  1  0  0  0  0
 26 25  1  0  0  0  0
 27 26  1  0  0  0  0
 27 28  2  0  0  0  0
 28 24  1  0  0  0  0
 30 27  1  0  0  0  0
 31 30  1  0  0  0  0
 32 31  1  0  0  0  0
M  END
>  <minimizedAffinity>
-5.41014338

$$$$

 OpenBabel03252507393D

 32 35  0  0  0  0  0  0  0  0999 V2000
   38.1910   29.3340   42.1030 C   0  0  0  0  0  0  0  0  0  0  0  0
   37.4660   28.9810   40.9340 C   0  0  0  0  0  0  0  0  0  0  0  0
   37.4720   29.9050   39.8930 C   0  0  0  0  0  0  0  0  0  0  0  0
   38.1490   31.0640   40.0390 N   0  0  0  0  0  0  0  0  0  0  0  0
   38.8330   31.3720   41.1690 C   0  0  0  0  0  0  0  0  0  0  0  0
   38.8470   30.5140   42.1810 N   0  0  0  0  0  0  0  0  0  0  0  0
   36.9280   28.0750   40.8020 H   0  0  0  0  0  0  0  0  0  0  0  0
   39.3690   32.2950   41.2800 H   0  0  0  0  0  0  0  0  0  0  0  0
   35.4550   29.2740   38.6840 C   0  0  0  0  0  0  0  0  0  0  0  0
   36.7780   29.6960   38.6260 C   0  0  0  0  0  0  0  0  0  0  0  0
   37.3420   29.8870   37.3960 C   0  0  0  0  0  0  0  0  0  0  0  0
   36.6520   29.6780   36.2210 C   0  0  0  0  0  0  0  0  0  0  0  0
   37.0150   29.8060   34.9160 N   0  0  0  0  0  0  0  0  0  0  0  0
   35.9060   29.4610   34.1560 C   0  0  0  0  0  0  0  0  0  0  0  0
   34.9180   29.1370   34.9990 N   0  0  0  0  0  0  0  0  0  0  0  0
   35.3510   29.2630   36.2670 C   0  0  0  0  0  0  0  0  0  0  0  0
   34.7570   29.0630   37.4930 C   0  0  0  0  0  0  0  0  0  0  0  0
   34.9520   29.1040   39.6250 H   0  0  0  0  0  0  0  0  0  0  0  0
   38.3790   30.2170   37.3930 H   0  0  0  0  0  0  0  0  0  0  0  0
   37.9640   30.1120   34.5570 H   0  0  0  0  0  0  0  0  0  0  0  0
   35.9570   29.4870   33.0820 H   0  0  0  0  0  0  0  0  0  0  0  0
   33.7120   28.7290   37.5390 H   0  0  0  0  0  0  0  0  0  0  0  0
   38.1900   28.4170   43.1490 O   0  0  0  0  0  0  0  0  0  0  0  0
   38.4140   27.0680   42.8930 C   0  0  0  0  0  0  0  0  0  0  0  0
   39.5890   26.8840   43.5240 C   0  0  0  0  0  0  0  0  0  0  0  0
   39.9340   25.0460   43.2020 S   0  0  0  0  0  0  0  0  0  0  0  0
   38.3070   24.9420   42.2230 C   0  0  0  0  0  0  0  0  0  0  0  0
   37.9620   25.9820   42.3180 N   0  0  0  0  0  0  0  0  0  0  0  0
   40.5870   27.1250   44.1750 H   0  0  0  0  0  0  0  0  0  0  0  0
   37.8110   23.6970   41.5790 C   0  0  0  0  0  2  0  0  0  0  0  0
   36.5220   24.0100   40.9030 C   0  0  0  0  0  2  0  0  0  0  0  0
   36.7510   24.4130   39.8760 H   0  0  0  0  0  0  0  0  0  0  0  0
  1  6  1  0  0  0  0
  1 23  1  0  0  0  0
  2  1  2  0  0  0  0
  3  4  2  0  0  0  0
  3  2  1  0  0  0  0
  4  5  1  0  0  0  0
  5  8  1  0  0  0  0
  5  6  2  0  0  0  0
  7  2  1  0  0  0  0
  9 18  1  0  0  0  0
 10  9  1  0  0  0  0
 10  3  1  0  0  0  0
 11 10  2  0  0  0  0
 12 16  2  0  0  0  0
 12 11  1  0  0  0  0
 13 12  1  0  0  0  0
 14 13  1  0  0  0  0
 14 15  2  0  0  0  0
 15 16  1  0  0  0  0
 16 17  1  0  0  0  0
 17 22  1  0  0  0  0
 17  9  2  0  0  0  0
 19 11  1  0  0  0  0
 20 13  1  0  0  0  0
 21 14  1  0  0  0  0
 24 23  1  0  0  0  0
 24 25  2  0  0  0  0
 25 29  1  0  0  0  0
 26 25  1  0  0  0  0
 27 28  2  0  0  0  0
 27 26  1  0  0  0  0
 28 24  1  0  0  0  0
 30 27  1  0  0  0  0
 31 30  1  0  0  0  0
 32 31  1  0  0  0  0
M  END
>  <minimizedAffinity>
-5.40079308

$$$$

 OpenBabel03252507393D

 32 35  0  0  0  0  0  0  0  0999 V2000
   36.9950   27.0800   41.5570 C   0  0  0  0  0  0  0  0  0  0  0  0
   37.2720   28.3230   40.9280 C   0  0  0  0  0  0  0  0  0  0  0  0
   37.6590   29.3700   41.7600 C   0  0  0  0  0  0  0  0  0  0  0  0
   37.7500   29.1610   43.0910 N   0  0  0  0  0  0  0  0  0  0  0  0
   37.4790   27.9610   43.6610 C   0  0  0  0  0  0  0  0  0  0  0  0
   37.1070   26.9410   42.8970 N   0  0  0  0  0  0  0  0  0  0  0  0
   37.2050   28.5050   39.8840 H   0  0  0  0  0  0  0  0  0  0  0  0
   37.5530   27.8010   44.7200 H   0  0  0  0  0  0  0  0  0  0  0  0
   36.9890   31.3880   40.5730 C   0  0  0  0  0  0  0  0  0  0  0  0
   37.9790   30.7080   41.2730 C   0  0  0  0  0  0  0  0  0  0  0  0
   39.1820   31.3300   41.4600 C   0  0  0  0  0  0  0  0  0  0  0  0
   39.4450   32.5970   40.9840 C   0  0  0  0  0  0  0  0  0  0  0  0
   40.5520   33.3860   41.0580 N   0  0  0  0  0  0  0  0  0  0  0  0
   40.2440   34.5670   40.3980 C   0  0  0  0  0  0  0  0  0  0  0  0
   38.9870   34.4700   39.9480 N   0  0  0  0  0  0  0  0  0  0  0  0
   38.4780   33.2740   40.2950 C   0  0  0  0  0  0  0  0  0  0  0  0
   37.2570   32.6700   40.0920 C   0  0  0  0  0  0  0  0  0  0  0  0
   36.0180   30.9510   40.3920 H   0  0  0  0  0  0  0  0  0  0  0  0
   39.9300   30.7650   42.0120 H   0  0  0  0  0  0  0  0  0  0  0  0
   41.4670   33.1390   41.5300 H   0  0  0  0  0  0  0  0  0  0  0  0
   40.9770   35.3530   40.3260 H   0  0  0  0  0  0  0  0  0  0  0  0
   36.4750   33.2080   39.5390 H   0  0  0  0  0  0  0  0  0  0  0  0
   36.6070   26.0270   40.7340 O   0  0  0  0  0  0  0  0  0  0  0  0
   37.5480   25.1000   40.2990 C   0  0  0  0  0  0  0  0  0  0  0  0
   37.0160   23.9590   40.7760 C   0  0  0  0  0  0  0  0  0  0  0  0
   38.2720   22.6580   40.2000 S   0  0  0  0  0  0  0  0  0  0  0  0
   39.2950   24.0450   39.3960 C   0  0  0  0  0  0  0  0  0  0  0  0
   38.6710   24.9140   39.6520 N   0  0  0  0  0  0  0  0  0  0  0  0
   36.2470   23.2030   41.3410 H   0  0  0  0  0  0  0  0  0  0  0  0
   40.5680   23.8110   38.6640 C   0  0  0  0  0  2  0  0  0  0  0  0
   40.4350   22.5350   37.9070 C   0  0  0  0  0  2  0  0  0  0  0  0
   39.9450   22.7600   36.9180 H   0  0  0  0  0  0  0  0  0  0  0  0
  1  6  1  0  0  0  0
  2  1  2  0  0  0  0
  2  3  1  0  0  0  0
  3  4  2  0  0  0  0
  4  5  1  0  0  0  0
  5  8  1  0  0  0  0
  6  5  2  0  0  0  0
  7  2  1  0  0  0  0
  9 10  1  0  0  0  0
 10 11  2  0  0  0  0
 10  3  1  0  0  0  0
 11 19  1  0  0  0  0
 12 13  1  0  0  0  0
 12 11  1  0  0  0  0
 13 20  1  0  0  0  0
 14 13  1  0  0  0  0
 15 16  1  0  0  0  0
 15 14  2  0  0  0  0
 16 12  2  0  0  0  0
 17 16  1  0  0  0  0
 17  9  2  0  0  0  0
 18  9  1  0  0  0  0
 21 14  1  0  0  0  0
 22 17  1  0  0  0  0
 23  1  1  0  0  0  0
 24 23  1  0  0  0  0
 24 25  2  0  0  0  0
 25 29  1  0  0  0  0
 26 25  1  0  0  0  0
 27 28  2  0  0  0  0
 27 26  1  0  0  0  0
 28 24  1  0  0  0  0
 30 27  1  0  0  0  0
 31 30  1  0  0  0  0
 32 31  1  0  0  0  0
M  END
>  <minimizedAffinity>
-5.36993933

$$$$

 OpenBabel03252507393D

 32 35  0  0  0  0  0  0  0  0999 V2000
   36.5870   28.7190   41.7800 C   0  0  0  0  0  0  0  0  0  0  0  0
   35.9300   28.3560   40.5740 C   0  0  0  0  0  0  0  0  0  0  0  0
   35.7690   29.3610   39.6250 C   0  0  0  0  0  0  0  0  0  0  0  0
   36.2320   30.6020   39.8880 N   0  0  0  0  0  0  0  0  0  0  0  0
   36.8560   30.9170   41.0500 C   0  0  0  0  0  0  0  0  0  0  0  0
   37.0260   29.9820   41.9770 N   0  0  0  0  0  0  0  0  0  0  0  0
   35.5600   27.3860   40.3510 H   0  0  0  0  0  0  0  0  0  0  0  0
   37.2210   31.9050   41.2540 H   0  0  0  0  0  0  0  0  0  0  0  0
   35.8840   29.3480   37.1930 C   0  0  0  0  0  0  0  0  0  0  0  0
   35.1170   29.1540   38.3360 C   0  0  0  0  0  0  0  0  0  0  0  0
   33.8100   28.7850   38.1820 C   0  0  0  0  0  0  0  0  0  0  0  0
   33.2310   28.5990   36.9440 C   0  0  0  0  0  0  0  0  0  0  0  0
   31.9720   28.2390   36.5720 N   0  0  0  0  0  0  0  0  0  0  0  0
   31.9590   28.2080   35.1850 C   0  0  0  0  0  0  0  0  0  0  0  0
   33.1810   28.5440   34.7570 N   0  0  0  0  0  0  0  0  0  0  0  0
   33.9760   28.7870   35.8150 C   0  0  0  0  0  0  0  0  0  0  0  0
   35.2960   29.1600   35.9410 C   0  0  0  0  0  0  0  0  0  0  0  0
   36.9230   29.6410   37.2470 H   0  0  0  0  0  0  0  0  0  0  0  0
   33.2430   28.6430   39.1000 H   0  0  0  0  0  0  0  0  0  0  0  0
   31.1640   28.0240   37.2230 H   0  0  0  0  0  0  0  0  0  0  0  0
   31.0580   27.9450   34.6590 H   0  0  0  0  0  0  0  0  0  0  0  0
   35.9020   29.3140   35.0380 H   0  0  0  0  0  0  0  0  0  0  0  0
   36.7530   27.7210   42.7350 O   0  0  0  0  0  0  0  0  0  0  0  0
   38.0110   27.1740   42.9600 C   0  0  0  0  0  0  0  0  0  0  0  0
   37.8380   25.9330   42.4670 C   0  0  0  0  0  0  0  0  0  0  0  0
   39.5420   25.1460   42.7510 S   0  0  0  0  0  0  0  0  0  0  0  0
   40.1350   26.7800   43.5230 C   0  0  0  0  0  0  0  0  0  0  0  0
   39.2160   27.3770   43.4300 N   0  0  0  0  0  0  0  0  0  0  0  0
   37.2990   24.9720   41.9500 H   0  0  0  0  0  0  0  0  0  0  0  0
   41.5090   26.9900   44.0500 C   0  0  0  0  0  2  0  0  0  0  0  0
   42.3320   25.8070   43.6740 C   0  0  0  0  0  2  0  0  0  0  0  0
   42.7390   25.9750   42.6360 H   0  0  0  0  0  0  0  0  0  0  0  0
  1  6  1  0  0  0  0
  1 23  1  0  0  0  0
  2  1  2  0  0  0  0
  3  4  2  0  0  0  0
  3  2  1  0  0  0  0
  4  5  1  0  0  0  0
  5  8  1  0  0  0  0
  5  6  2  0  0  0  0
  7  2  1  0  0  0  0
  9 18  1  0  0  0  0
  9 10  1  0  0  0  0
 10  3  1  0  0  0  0
 11 10  2  0  0  0  0
 11 19  1  0  0  0  0
 12 11  1  0  0  0  0
 13 12  1  0  0  0  0
 13 20  1  0  0  0  0
 14 13  1  0  0  0  0
 15 14  2  0  0  0  0
 15 16  1  0  0  0  0
 16 17  1  0  0  0  0
 16 12  2  0  0  0  0
 17  9  2  0  0  0  0
 21 14  1  0  0  0  0
 22 17  1  0  0  0  0
 23 24  1  0  0  0  0
 24 28  1  0  0  0  0
 25 26  1  0  0  0  0
 25 24  2  0  0  0  0
 26 27  1  0  0  0  0
 27 30  1  0  0  0  0
 28 27  2  0  0  0  0
 29 25  1  0  0  0  0
 31 30  1  0  0  0  0
 32 31  1  0  0  0  0
M  END
>  <minimizedAffinity>
-5.35309505

$$$$
