
 OpenBabel03252509143D

 39 42  0  0  1  0  0  0  0  0999 V2000
   47.5290   32.6490   44.1650 C   0  0  0  0  0  0  0  0  0  0  0  0
   46.8560   33.5710   43.3600 C   0  0  0  0  0  0  0  0  0  0  0  0
   45.7900   34.3370   43.8230 C   0  0  0  0  0  0  0  0  0  0  0  0
   45.3670   34.1860   45.1490 C   0  0  0  0  0  0  0  0  0  0  0  0
   44.4060   34.7370   45.9170 N   0  0  0  0  0  0  0  0  0  0  0  0
   44.4530   34.2010   47.1570 C   0  0  0  0  0  0  0  0  0  0  0  0
   45.4530   33.3200   47.1270 N   0  0  0  0  0  0  0  0  0  0  0  0
   46.0440   33.2740   45.9210 C   0  0  0  0  0  0  0  0  0  0  0  0
   47.1020   32.5000   45.4930 C   0  0  0  0  0  0  0  0  0  0  0  0
   48.3420   32.1050   43.7110 H   0  0  0  0  0  0  0  0  0  0  0  0
   43.7260   35.4750   45.5880 H   0  0  0  0  0  0  0  0  0  0  0  0
   43.8330   34.4110   48.0170 H   0  0  0  0  0  0  0  0  0  0  0  0
   47.6180   31.7980   46.1000 H   0  0  0  0  0  0  0  0  0  0  0  0
   47.3640   32.9490   39.7920 C   0  0  0  0  0  0  0  0  0  0  0  0
   48.0860   34.0700   39.3780 C   0  0  0  0  0  0  0  0  0  0  0  0
   48.3930   35.0330   40.3320 C   0  0  0  0  0  0  0  0  0  0  0  0
   47.9780   34.8440   41.6280 N   0  0  0  0  0  0  0  0  0  0  0  0
   47.2820   33.7430   41.9730 C   0  0  0  0  0  0  0  0  0  0  0  0
   46.9580   32.7770   41.0870 N   0  0  0  0  0  0  0  0  0  0  0  0
   47.1220   32.1970   39.0550 H   0  0  0  0  0  0  0  0  0  0  0  0
   48.3940   34.1830   38.3520 H   0  0  0  0  0  0  0  0  0  0  0  0
   48.9500   35.9270   40.0830 H   0  0  0  0  0  0  0  0  0  0  0  0
   44.9500   35.5000   42.7840 S   0  0  0  0  0  0  0  0  0  0  0  0
   42.5010   35.7120   41.8570 N   0  0  0  0  0  0  0  0  0  0  0  0
   43.6210   34.7790   41.8010 C   0  0  1  0  0  0  0  0  0  0  0  0
   44.1590   34.6460   40.3870 C   0  0  0  0  0  0  0  0  0  0  0  0
   43.1710   34.5540   39.4250 O   0  0  0  0  0  0  0  0  0  0  0  0
   41.8930   34.3580   39.9070 C   0  0  0  0  0  0  0  0  0  0  0  0
   41.5400   35.4950   40.8180 C   0  0  1  0  0  0  0  0  0  0  0  0
   42.1220   35.6580   42.8260 H   0  0  0  0  0  0  0  0  0  0  0  0
   43.3030   33.7950   42.2080 H   0  0  0  0  0  0  0  0  0  0  0  0
   44.8010   35.5210   40.1590 H   0  0  0  0  0  0  0  0  0  0  0  0
   44.7040   33.7090   40.3080 H   0  0  0  0  0  0  0  0  0  0  0  0
   41.2110   34.3740   39.0520 H   0  0  0  0  0  0  0  0  0  0  0  0
   41.8660   33.4130   40.4760 H   0  0  0  0  0  0  0  0  0  0  0  0
   41.3610   36.4330   40.2360 H   0  0  0  0  0  0  0  0  0  0  0  0
   40.2080   35.1440   41.4900 C   0  0  0  0  0  2  0  0  0  0  0  0
   39.9560   33.6730   41.5600 C   0  0  0  0  0  2  0  0  0  0  0  0
   40.2850   33.2460   42.5360 H   0  0  0  0  0  0  0  0  0  0  0  0
  1  9  1  0  0  0  0
  2  3  1  0  0  0  0
  2  1  2  0  0  0  0
  3  4  2  0  0  0  0
  4  5  1  0  0  0  0
  4  8  1  0  0  0  0
  5  6  1  0  0  0  0
  6 12  1  0  0  0  0
  7  6  2  0  0  0  0
  8  7  1  0  0  0  0
  9  8  2  0  0  0  0
  9 13  1  0  0  0  0
 10  1  1  0  0  0  0
 11  5  1  0  0  0  0
 14 19  1  0  0  0  0
 15 14  2  0  0  0  0
 15 16  1  0  0  0  0
 16 17  2  0  0  0  0
 17 18  1  0  0  0  0
 18  2  1  0  0  0  0
 19 18  2  0  0  0  0
 20 14  1  0  0  0  0
 21 15  1  0  0  0  0
 22 16  1  0  0  0  0
 23  3  1  0  0  0  0
 24 30  1  0  0  0  0
 25 24  1  0  0  0  0
 25 31  1  1  0  0  0
 25 23  1  0  0  0  0
 26 25  1  0  0  0  0
 27 28  1  0  0  0  0
 27 26  1  0  0  0  0
 28 35  1  0  0  0  0
 28 29  1  0  0  0  0
 29 36  1  6  0  0  0
 29 37  1  0  0  0  0
 29 24  1  0  0  0  0
 32 26  1  0  0  0  0
 33 26  1  0  0  0  0
 34 28  1  0  0  0  0
 37 38  1  0  0  0  0
 38 39  1  0  0  0  0
M  END
>  <minimizedAffinity>
-5.57984877

>  <minimizedRMSD>
0.698877454

$$$$
