
     RDKit          3D

 43 46  0  0  0  0  0  0  0  0999 V2000
   47.5386   32.6689   44.2702 C   0  0  0  0  0  0  0  0  0  0  0  0
   46.8408   33.6427   43.5515 C   0  0  0  0  0  0  0  0  0  0  0  0
   45.7820   34.3640   44.0943 C   0  0  0  0  0  0  0  0  0  0  0  0
   45.3912   34.1116   45.4149 C   0  0  0  0  0  0  0  0  0  0  0  0
   44.4453   34.5967   46.2442 N   0  0  0  0  0  0  0  0  0  0  0  0
   44.5246   33.9707   47.4389 C   0  0  0  0  0  0  0  0  0  0  0  0
   45.5295   33.1024   47.3205 N   0  0  0  0  0  0  0  0  0  0  0  0
   46.0920   33.1501   46.1013 C   0  0  0  0  0  0  0  0  0  0  0  0
   47.1439   32.4190   45.5931 C   0  0  0  0  0  0  0  0  0  0  0  0
   47.0678   33.4308   39.9071 C   0  0  0  0  0  0  0  0  0  0  0  0
   47.9754   34.4439   39.5899 C   0  0  0  0  0  0  0  0  0  0  0  0
   48.5028   35.1929   40.6348 C   0  0  0  0  0  0  0  0  0  0  0  0
   48.1139   34.9091   41.9223 N   0  0  0  0  0  0  0  0  0  0  0  0
   47.2344   33.9198   42.1721 C   0  0  0  0  0  0  0  0  0  0  0  0
   46.6920   33.1622   41.1947 N   0  0  0  0  0  0  0  0  0  0  0  0
   44.9115   35.5943   43.1643 S   0  0  0  0  0  0  0  0  0  0  0  0
   42.3252   35.6117   42.6987 N   0  0  0  0  0  0  0  0  0  0  0  0
   43.5261   34.9456   42.2070 C   0  0  1  0  0  0  0  0  0  0  0  0
   43.8030   35.3065   40.7581 C   0  0  0  0  0  0  0  0  0  0  0  0
   42.6744   35.3066   39.9625 O   0  0  0  0  0  0  0  0  0  0  0  0
   41.5455   34.7612   40.5371 C   0  0  0  0  0  0  0  0  0  0  0  0
   41.2241   35.5212   41.7895 C   0  0  1  0  0  0  0  0  0  0  0  0
   48.3441   32.1660   43.7581 H   0  0  0  0  0  0  0  0  0  0  0  0
   43.7531   35.3521   45.9862 H   0  0  0  0  0  0  0  0  0  0  0  0
   43.9242   34.1117   48.3259 H   0  0  0  0  0  0  0  0  0  0  0  0
   47.6781   31.6780   46.1337 H   0  0  0  0  0  0  0  0  0  0  0  0
   46.6543   32.8451   39.0992 H   0  0  0  0  0  0  0  0  0  0  0  0
   48.2561   34.6366   38.5684 H   0  0  0  0  0  0  0  0  0  0  0  0
   49.2107   35.9929   40.4639 H   0  0  0  0  0  0  0  0  0  0  0  0
   42.1439   35.2259   43.6497 H   0  0  0  0  0  0  0  0  0  0  0  0
   43.4206   33.8484   42.3390 H   0  0  0  0  0  0  0  0  0  0  0  0
   44.2720   36.3096   40.7158 H   0  0  0  0  0  0  0  0  0  0  0  0
   44.4409   34.5403   40.3242 H   0  0  0  0  0  0  0  0  0  0  0  0
   40.7195   34.8902   39.8319 H   0  0  0  0  0  0  0  0  0  0  0  0
   41.7466   33.7072   40.7929 H   0  0  0  0  0  0  0  0  0  0  0  0
   40.8195   36.5355   41.5484 H   0  0  0  0  0  0  0  0  0  0  0  0
   40.0984   34.7658   42.5044 C   0  0  0  0  0  0  0  0  0  0  0  0
   40.5747   33.5507   43.2283 C   0  0  0  0  0  0  0  0  0  0  0  0
   40.7837   33.7677   44.3024 H   0  0  0  0  0  0  0  0  0  0  0  0
   39.6066   35.4177   43.2650 H   0  0  0  0  0  0  0  0  0  0  0  0
   39.3048   34.4750   41.7938 H   0  0  0  0  0  0  0  0  0  0  0  0
   39.7796   32.7776   43.1984 H   0  0  0  0  0  0  0  0  0  0  0  0
   41.4933   33.0862   42.8169 H   0  0  0  0  0  0  0  0  0  0  0  0
  1  9  2  0
  2  3  2  0
  2  1  1  0
  3  4  1  0
  4  8  2  0
  4  5  1  0
  5  6  1  0
  7  6  2  0
  8  7  1  0
  9  8  1  0
 10 15  2  0
 11 10  1  0
 11 12  2  0
 12 13  1  0
 13 14  2  0
 14  2  1  0
 15 14  1  0
 16  3  1  0
 18 17  1  0
 18 16  1  0
 19 18  1  0
 20 21  1  0
 20 19  1  0
 21 22  1  0
 22 17  1  0
  1 23  1  0
  5 24  1  0
  6 25  1  0
  9 26  1  0
 10 27  1  0
 11 28  1  0
 12 29  1  0
 17 30  1  0
 18 31  1  6
 19 32  1  0
 19 33  1  0
 21 34  1  0
 21 35  1  0
 22 36  1  6
 37 38  1  0
 38 39  1  0
 37 40  1  0
 37 41  1  0
 38 42  1  0
 38 43  1  0
 22 37  1  0
M  ISO  8  23  14  24   9  25  14  26  14  27  14  28  14  29  14  30   5
M  ISO  7  31  13  32  13  33  13  34  13  35  13  36  13  39   8
M  END
>  <DihAtoms>  (1) 
20,21,36,37

>  <DihDeg>  (1) 
-177.68120696585763

$$$$
