
 OpenBabel03252509143D

 39 42  0  0  1  0  0  0  0  0999 V2000
   47.4290   32.5470   44.2000 C   0  0  0  0  0  0  0  0  0  0  0  0
   46.7330   33.5130   43.4690 C   0  0  0  0  0  0  0  0  0  0  0  0
   45.7130   34.2820   44.0210 C   0  0  0  0  0  0  0  0  0  0  0  0
   45.3610   34.0880   45.3630 C   0  0  0  0  0  0  0  0  0  0  0  0
   44.4570   34.6280   46.2050 N   0  0  0  0  0  0  0  0  0  0  0  0
   44.5620   34.0430   47.4180 C   0  0  0  0  0  0  0  0  0  0  0  0
   45.5380   33.1430   47.2990 N   0  0  0  0  0  0  0  0  0  0  0  0
   46.0600   33.1320   46.0590 C   0  0  0  0  0  0  0  0  0  0  0  0
   47.0740   32.3550   45.5430 C   0  0  0  0  0  0  0  0  0  0  0  0
   48.2030   32.0040   43.6800 H   0  0  0  0  0  0  0  0  0  0  0  0
   43.7770   35.3930   45.9430 H   0  0  0  0  0  0  0  0  0  0  0  0
   43.9960   34.2320   48.3190 H   0  0  0  0  0  0  0  0  0  0  0  0
   47.6060   31.6190   46.0930 H   0  0  0  0  0  0  0  0  0  0  0  0
   46.8950   33.1090   39.8380 C   0  0  0  0  0  0  0  0  0  0  0  0
   47.7500   34.1420   39.4460 C   0  0  0  0  0  0  0  0  0  0  0  0
   48.2650   34.9700   40.4360 C   0  0  0  0  0  0  0  0  0  0  0  0
   47.9150   34.7410   41.7450 N   0  0  0  0  0  0  0  0  0  0  0  0
   47.0850   33.7300   42.0690 C   0  0  0  0  0  0  0  0  0  0  0  0
   46.5580   32.8960   41.1470 N   0  0  0  0  0  0  0  0  0  0  0  0
   46.4920   32.4620   39.0730 H   0  0  0  0  0  0  0  0  0  0  0  0
   48.0010   34.2890   38.4090 H   0  0  0  0  0  0  0  0  0  0  0  0
   48.9330   35.7890   40.2060 H   0  0  0  0  0  0  0  0  0  0  0  0
   44.8430   35.5020   43.0760 S   0  0  0  0  0  0  0  0  0  0  0  0
   42.3010   35.4030   42.4160 N   0  0  0  0  0  0  0  0  0  0  0  0
   43.5710   34.8210   41.9940 C   0  0  1  0  0  0  0  0  0  0  0  0
   43.9340   35.2540   40.5840 C   0  0  0  0  0  0  0  0  0  0  0  0
   42.8690   35.2280   39.7050 O   0  0  0  0  0  0  0  0  0  0  0  0
   41.7320   34.6000   40.1720 C   0  0  0  0  0  0  0  0  0  0  0  0
   41.2780   35.2910   41.4220 C   0  0  1  0  0  0  0  0  0  0  0  0
   42.0720   34.9690   43.3360 H   0  0  0  0  0  0  0  0  0  0  0  0
   43.5170   33.7150   42.0770 H   0  0  0  0  0  0  0  0  0  0  0  0
   44.3490   36.2820   40.6150 H   0  0  0  0  0  0  0  0  0  0  0  0
   44.6440   34.5410   40.1720 H   0  0  0  0  0  0  0  0  0  0  0  0
   40.9550   34.7140   39.4110 H   0  0  0  0  0  0  0  0  0  0  0  0
   41.9730   33.5490   40.4040 H   0  0  0  0  0  0  0  0  0  0  0  0
   40.8360   36.2910   41.1880 H   0  0  0  0  0  0  0  0  0  0  0  0
   40.1450   34.4490   42.0210 C   0  0  0  0  0  2  0  0  0  0  0  0
   40.1880   33.0200   41.5930 C   0  0  0  0  0  2  0  0  0  0  0  0
   40.7270   32.3850   42.3350 H   0  0  0  0  0  0  0  0  0  0  0  0
  1  9  1  0  0  0  0
  2  3  1  0  0  0  0
  2  1  2  0  0  0  0
  3  4  2  0  0  0  0
  4  8  1  0  0  0  0
  4  5  1  0  0  0  0
  5  6  1  0  0  0  0
  6 12  1  0  0  0  0
  7  6  2  0  0  0  0
  8  7  1  0  0  0  0
  9  8  2  0  0  0  0
  9 13  1  0  0  0  0
 10  1  1  0  0  0  0
 11  5  1  0  0  0  0
 14 19  1  0  0  0  0
 15 14  2  0  0  0  0
 15 16  1  0  0  0  0
 16 17  2  0  0  0  0
 17 18  1  0  0  0  0
 18  2  1  0  0  0  0
 19 18  2  0  0  0  0
 20 14  1  0  0  0  0
 21 15  1  0  0  0  0
 22 16  1  0  0  0  0
 23  3  1  0  0  0  0
 24 30  1  0  0  0  0
 25 31  1  1  0  0  0
 25 24  1  0  0  0  0
 25 23  1  0  0  0  0
 26 32  1  0  0  0  0
 26 25  1  0  0  0  0
 27 28  1  0  0  0  0
 27 26  1  0  0  0  0
 28 35  1  0  0  0  0
 28 29  1  0  0  0  0
 29 36  1  6  0  0  0
 29 37  1  0  0  0  0
 29 24  1  0  0  0  0
 33 26  1  0  0  0  0
 34 28  1  0  0  0  0
 38 37  1  0  0  0  0
 38 39  1  0  0  0  0
M  END
>  <minimizedAffinity>
-5.78006887

>  <minimizedRMSD>
0.45704037

$$$$
