
 OpenBabel03242520433D

 33 35  0  0  1  0  0  0  0  0999 V2000
   38.5200   28.1530   36.7550 C   0  0  0  0  0  0  0  0  0  0  0  0
   37.4100   28.1120   35.8810 C   0  0  0  0  0  0  0  0  0  0  0  0
   36.5760   29.2670   35.8030 C   0  0  0  0  0  0  0  0  0  0  0  0
   36.8870   30.3560   36.5740 N   0  0  0  0  0  0  0  0  0  0  0  0
   37.9610   30.3350   37.3900 C   0  0  0  0  0  0  0  0  0  0  0  0
   38.7590   29.2430   37.4710 N   0  0  0  0  0  0  0  0  0  0  0  0
   38.1930   31.4980   38.1400 N   0  0  0  0  0  0  0  0  0  0  0  0
   37.2170   31.9830   39.0580 C   0  0  2  0  0  0  0  0  0  0  0  0
   37.4790   33.3500   39.5820 C   0  0  0  0  0  0  0  0  0  0  0  0
   38.8330   33.7470   39.7000 N   0  0  0  0  0  0  0  0  0  0  0  0
   39.7810   32.7460   39.3480 C   0  0  0  0  0  0  0  0  0  0  0  0
   39.4420   32.2180   37.9790 C   0  0  0  0  0  0  0  0  0  0  0  0
   39.1480   27.2840   36.8150 H   0  0  0  0  0  0  0  0  0  0  0  0
   37.1850   27.2380   35.2820 H   0  0  0  0  0  0  0  0  0  0  0  0
   35.7260   29.2520   35.1430 H   0  0  0  0  0  0  0  0  0  0  0  0
   36.2670   32.0960   38.4500 H   0  0  0  0  0  0  0  0  0  0  0  0
   36.9830   33.4080   40.5930 H   0  0  0  0  0  0  0  0  0  0  0  0
   36.9630   34.1360   38.9940 H   0  0  0  0  0  0  0  0  0  0  0  0
   39.0630   34.2390   40.5710 H   0  0  0  0  0  0  0  0  0  0  0  0
   40.7570   33.2890   39.2020 H   0  0  0  0  0  0  0  0  0  0  0  0
   39.9970   31.9950   40.1040 H   0  0  0  0  0  0  0  0  0  0  0  0
   40.2230   31.4880   37.7010 H   0  0  0  0  0  0  0  0  0  0  0  0
   39.3700   33.0780   37.3030 H   0  0  0  0  0  0  0  0  0  0  0  0
   36.9250   30.9980   40.1300 C   0  0  0  0  0  0  0  0  0  0  0  0
   35.8100   30.2310   40.4160 C   0  0  0  0  0  0  0  0  0  0  0  0
   36.0070   29.4670   41.5000 N   0  0  0  0  0  0  0  0  0  0  0  0
   37.2460   29.7480   41.9070 C   0  0  0  0  0  0  0  0  0  0  0  0
   37.8020   30.6600   41.0970 N   0  0  0  0  0  0  0  0  0  0  0  0
   34.9140   30.2600   39.8300 H   0  0  0  0  0  0  0  0  0  0  0  0
   35.3310   28.8160   41.9090 H   0  0  0  0  0  0  0  0  0  0  0  0
   37.9780   29.1820   43.0720 C   0  0  0  0  0  2  0  0  0  0  0  0
   37.2430   28.0140   43.6800 C   0  0  0  0  0  2  0  0  0  0  0  0
   37.3990   28.0100   44.7950 H   0  0  0  0  0  0  0  0  0  0  0  0
  1 13  1  0  0  0  0
  1  6  1  0  0  0  0
  2  1  2  0  0  0  0
  3  2  1  0  0  0  0
  3  4  2  0  0  0  0
  4  5  1  0  0  0  0
  5  6  2  0  0  0  0
  5  7  1  0  0  0  0
  7  8  1  0  0  0  0
  8 16  1  6  0  0  0
  8  9  1  0  0  0  0
  8 24  1  0  0  0  0
  9 10  1  0  0  0  0
  9 17  1  0  0  0  0
 10 19  1  0  0  0  0
 11 10  1  0  0  0  0
 11 21  1  0  0  0  0
 12  7  1  0  0  0  0
 12 11  1  0  0  0  0
 14  2  1  0  0  0  0
 15  3  1  0  0  0  0
 18  9  1  0  0  0  0
 20 11  1  0  0  0  0
 22 12  1  0  0  0  0
 23 12  1  0  0  0  0
 24 25  2  0  0  0  0
 24 28  1  0  0  0  0
 25 26  1  0  0  0  0
 26 27  1  0  0  0  0
 26 30  1  0  0  0  0
 27 31  1  0  0  0  0
 28 27  2  0  0  0  0
 29 25  1  0  0  0  0
 31 32  1  0  0  0  0
 32 33  1  0  0  0  0
M  END
>  <minimizedAffinity>
-5.33604813

$$$$

 OpenBabel03242520433D

 33 35  0  0  1  0  0  0  0  0999 V2000
   41.5780   30.4950   42.6110 C   0  0  0  0  0  0  0  0  0  0  0  0
   42.3060   29.5650   41.8340 C   0  0  0  0  0  0  0  0  0  0  0  0
   42.0370   29.5070   40.4340 C   0  0  0  0  0  0  0  0  0  0  0  0
   41.0920   30.3490   39.9110 N   0  0  0  0  0  0  0  0  0  0  0  0
   40.4290   31.2150   40.7040 C   0  0  0  0  0  0  0  0  0  0  0  0
   40.6780   31.2780   42.0350 N   0  0  0  0  0  0  0  0  0  0  0  0
   39.4790   32.0320   40.0730 N   0  0  0  0  0  0  0  0  0  0  0  0
   38.3710   31.4640   39.3800 C   0  0  2  0  0  0  0  0  0  0  0  0
   37.5990   32.4250   38.5450 C   0  0  0  0  0  0  0  0  0  0  0  0
   37.5560   33.7710   38.9840 N   0  0  0  0  0  0  0  0  0  0  0  0
   38.2220   34.0170   40.2170 C   0  0  0  0  0  0  0  0  0  0  0  0
   39.6240   33.4750   40.1270 C   0  0  0  0  0  0  0  0  0  0  0  0
   41.7790   30.5390   43.6650 H   0  0  0  0  0  0  0  0  0  0  0  0
   43.0490   28.9100   42.2720 H   0  0  0  0  0  0  0  0  0  0  0  0
   42.5830   28.8050   39.8280 H   0  0  0  0  0  0  0  0  0  0  0  0
   38.8260   30.7480   38.6290 H   0  0  0  0  0  0  0  0  0  0  0  0
   36.5500   32.0190   38.4770 H   0  0  0  0  0  0  0  0  0  0  0  0
   37.9410   32.4400   37.4900 H   0  0  0  0  0  0  0  0  0  0  0  0
   36.6330   34.2130   38.9220 H   0  0  0  0  0  0  0  0  0  0  0  0
   38.3600   35.1340   40.2690 H   0  0  0  0  0  0  0  0  0  0  0  0
   37.6750   33.7670   41.1220 H   0  0  0  0  0  0  0  0  0  0  0  0
   40.1410   33.7310   41.0690 H   0  0  0  0  0  0  0  0  0  0  0  0
   40.0870   33.9030   39.2300 H   0  0  0  0  0  0  0  0  0  0  0  0
   37.5090   30.6540   40.2770 C   0  0  0  0  0  0  0  0  0  0  0  0
   36.3350   30.9370   40.9510 C   0  0  0  0  0  0  0  0  0  0  0  0
   35.9060   29.8770   41.6510 N   0  0  0  0  0  0  0  0  0  0  0  0
   36.8070   28.9190   41.4260 C   0  0  0  0  0  0  0  0  0  0  0  0
   37.7660   29.3730   40.6070 N   0  0  0  0  0  0  0  0  0  0  0  0
   35.8490   31.8900   40.9040 H   0  0  0  0  0  0  0  0  0  0  0  0
   35.0620   29.8400   42.2300 H   0  0  0  0  0  0  0  0  0  0  0  0
   36.8210   27.5310   41.9590 C   0  0  0  0  0  2  0  0  0  0  0  0
   36.4720   27.4930   43.4260 C   0  0  0  0  0  2  0  0  0  0  0  0
   37.0570   26.6730   43.9300 H   0  0  0  0  0  0  0  0  0  0  0  0
  1 13  1  0  0  0  0
  2 14  1  0  0  0  0
  2  1  2  0  0  0  0
  3  2  1  0  0  0  0
  4  3  2  0  0  0  0
  4  5  1  0  0  0  0
  5  6  2  0  0  0  0
  6  1  1  0  0  0  0
  7 12  1  0  0  0  0
  7  5  1  0  0  0  0
  8 16  1  6  0  0  0
  8  7  1  0  0  0  0
  8 24  1  0  0  0  0
  9 10  1  0  0  0  0
  9  8  1  0  0  0  0
 10 11  1  0  0  0  0
 11 20  1  0  0  0  0
 11 21  1  0  0  0  0
 12 11  1  0  0  0  0
 12 22  1  0  0  0  0
 15  3  1  0  0  0  0
 17  9  1  0  0  0  0
 18  9  1  0  0  0  0
 19 10  1  0  0  0  0
 23 12  1  0  0  0  0
 24 28  1  0  0  0  0
 24 25  2  0  0  0  0
 25 26  1  0  0  0  0
 26 30  1  0  0  0  0
 27 26  1  0  0  0  0
 27 31  1  0  0  0  0
 28 27  2  0  0  0  0
 29 25  1  0  0  0  0
 31 32  1  0  0  0  0
 32 33  1  0  0  0  0
M  END
>  <minimizedAffinity>
-5.01151371

$$$$

 OpenBabel03242520433D

 33 35  0  0  1  0  0  0  0  0999 V2000
   37.9420   27.5340   37.2870 C   0  0  0  0  0  0  0  0  0  0  0  0
   39.2520   27.8200   36.8380 C   0  0  0  0  0  0  0  0  0  0  0  0
   40.2550   28.0760   37.8210 C   0  0  0  0  0  0  0  0  0  0  0  0
   39.9060   28.0320   39.1440 N   0  0  0  0  0  0  0  0  0  0  0  0
   38.6380   27.7540   39.5100 C   0  0  0  0  0  0  0  0  0  0  0  0
   37.6780   27.5100   38.5850 N   0  0  0  0  0  0  0  0  0  0  0  0
   38.3800   27.7360   40.8890 N   0  0  0  0  0  0  0  0  0  0  0  0
   38.6000   28.8940   41.6900 C   0  0  2  0  0  0  0  0  0  0  0  0
   38.5390   28.6580   43.1580 C   0  0  0  0  0  0  0  0  0  0  0  0
   37.6800   27.6270   43.6100 N   0  0  0  0  0  0  0  0  0  0  0  0
   36.9340   26.9810   42.5860 C   0  0  0  0  0  0  0  0  0  0  0  0
   37.8830   26.5220   41.5110 C   0  0  0  0  0  0  0  0  0  0  0  0
   37.1860   27.3420   36.5490 H   0  0  0  0  0  0  0  0  0  0  0  0
   39.5030   27.8490   35.7850 H   0  0  0  0  0  0  0  0  0  0  0  0
   41.2570   28.2960   37.4960 H   0  0  0  0  0  0  0  0  0  0  0  0
   39.6790   29.1860   41.5010 H   0  0  0  0  0  0  0  0  0  0  0  0
   38.2310   29.6360   43.6270 H   0  0  0  0  0  0  0  0  0  0  0  0
   39.5380   28.4620   43.5980 H   0  0  0  0  0  0  0  0  0  0  0  0
   37.1190   27.8670   44.4360 H   0  0  0  0  0  0  0  0  0  0  0  0
   36.5530   26.0250   43.0450 H   0  0  0  0  0  0  0  0  0  0  0  0
   36.0400   27.4930   42.2400 H   0  0  0  0  0  0  0  0  0  0  0  0
   37.2930   25.9710   40.7580 H   0  0  0  0  0  0  0  0  0  0  0  0
   38.6650   25.9250   41.9940 H   0  0  0  0  0  0  0  0  0  0  0  0
   37.7630   30.0390   41.2520 C   0  0  0  0  0  0  0  0  0  0  0  0
   36.4190   30.3280   41.4070 C   0  0  0  0  0  0  0  0  0  0  0  0
   36.1020   31.5000   40.8380 N   0  0  0  0  0  0  0  0  0  0  0  0
   37.2420   31.9580   40.3190 C   0  0  0  0  0  0  0  0  0  0  0  0
   38.2380   31.0940   40.5610 N   0  0  0  0  0  0  0  0  0  0  0  0
   35.7370   29.6810   41.9200 H   0  0  0  0  0  0  0  0  0  0  0  0
   35.1720   31.9280   40.8190 H   0  0  0  0  0  0  0  0  0  0  0  0
   37.4650   33.2250   39.5710 C   0  0  0  0  0  2  0  0  0  0  0  0
   38.3800   34.1610   40.3190 C   0  0  0  0  0  2  0  0  0  0  0  0
   38.0620   35.2250   40.1350 H   0  0  0  0  0  0  0  0  0  0  0  0
  1  6  1  0  0  0  0
  2  1  2  0  0  0  0
  2  3  1  0  0  0  0
  3  4  2  0  0  0  0
  4  5  1  0  0  0  0
  5  7  1  0  0  0  0
  6  5  2  0  0  0  0
  7 12  1  0  0  0  0
  7  8  1  0  0  0  0
  8 16  1  6  0  0  0
  8  9  1  0  0  0  0
  9 18  1  0  0  0  0
  9 10  1  0  0  0  0
  9 17  1  0  0  0  0
 10 19  1  0  0  0  0
 11 20  1  0  0  0  0
 11 10  1  0  0  0  0
 12 23  1  0  0  0  0
 12 11  1  0  0  0  0
 13  1  1  0  0  0  0
 14  2  1  0  0  0  0
 15  3  1  0  0  0  0
 21 11  1  0  0  0  0
 22 12  1  0  0  0  0
 24 25  2  0  0  0  0
 24  8  1  0  0  0  0
 25 29  1  0  0  0  0
 26 25  1  0  0  0  0
 27 28  2  0  0  0  0
 27 26  1  0  0  0  0
 28 24  1  0  0  0  0
 30 26  1  0  0  0  0
 31 32  1  0  0  0  0
 31 27  1  0  0  0  0
 33 32  1  0  0  0  0
M  END
>  <minimizedAffinity>
-4.90743685

$$$$

 OpenBabel03242520433D

 33 35  0  0  1  0  0  0  0  0999 V2000
   37.3360   27.5060   37.6870 C   0  0  0  0  0  0  0  0  0  0  0  0
   35.9300   27.3580   37.6560 C   0  0  0  0  0  0  0  0  0  0  0  0
   35.1310   28.4930   37.9840 C   0  0  0  0  0  0  0  0  0  0  0  0
   35.7570   29.6660   38.3120 N   0  0  0  0  0  0  0  0  0  0  0  0
   37.1040   29.7450   38.3240 C   0  0  0  0  0  0  0  0  0  0  0  0
   37.8720   28.6730   38.0140 N   0  0  0  0  0  0  0  0  0  0  0  0
   37.6490   30.9890   38.6760 N   0  0  0  0  0  0  0  0  0  0  0  0
   37.3740   31.5760   39.9450 C   0  0  2  0  0  0  0  0  0  0  0  0
   37.7950   32.9960   40.0800 C   0  0  0  0  0  0  0  0  0  0  0  0
   38.9230   33.4090   39.3290 N   0  0  0  0  0  0  0  0  0  0  0  0
   39.5480   32.3760   38.5760 C   0  0  0  0  0  0  0  0  0  0  0  0
   38.5050   31.6890   37.7360 C   0  0  0  0  0  0  0  0  0  0  0  0
   37.9390   26.6520   37.4400 H   0  0  0  0  0  0  0  0  0  0  0  0
   35.4600   26.4180   37.3930 H   0  0  0  0  0  0  0  0  0  0  0  0
   34.0590   28.3980   37.9650 H   0  0  0  0  0  0  0  0  0  0  0  0
   36.2440   31.6130   40.0170 H   0  0  0  0  0  0  0  0  0  0  0  0
   37.9910   33.1710   41.1760 H   0  0  0  0  0  0  0  0  0  0  0  0
   36.9750   33.7060   39.8460 H   0  0  0  0  0  0  0  0  0  0  0  0
   39.5870   34.0010   39.8410 H   0  0  0  0  0  0  0  0  0  0  0  0
   40.2050   32.9010   37.8270 H   0  0  0  0  0  0  0  0  0  0  0  0
   40.2240   31.7210   39.1200 H   0  0  0  0  0  0  0  0  0  0  0  0
   39.0200   30.9340   37.1160 H   0  0  0  0  0  0  0  0  0  0  0  0
   37.9830   32.4630   37.1600 H   0  0  0  0  0  0  0  0  0  0  0  0
   37.8460   30.7230   41.0650 C   0  0  0  0  0  0  0  0  0  0  0  0
   39.0940   30.5270   41.6290 C   0  0  0  0  0  0  0  0  0  0  0  0
   39.0400   29.6510   42.6420 N   0  0  0  0  0  0  0  0  0  0  0  0
   37.7600   29.2870   42.7250 C   0  0  0  0  0  0  0  0  0  0  0  0
   37.0400   29.9210   41.7890 N   0  0  0  0  0  0  0  0  0  0  0  0
   39.9770   31.0240   41.2820 H   0  0  0  0  0  0  0  0  0  0  0  0
   39.8320   29.3430   43.2150 H   0  0  0  0  0  0  0  0  0  0  0  0
   37.1380   28.3310   43.6800 C   0  0  0  0  0  2  0  0  0  0  0  0
   36.8610   26.9970   43.0330 C   0  0  0  0  0  2  0  0  0  0  0  0
   35.9170   26.5600   43.4630 H   0  0  0  0  0  0  0  0  0  0  0  0
  1  6  1  0  0  0  0
  2  1  2  0  0  0  0
  2  3  1  0  0  0  0
  3  4  2  0  0  0  0
  4  5  1  0  0  0  0
  5  7  1  0  0  0  0
  6  5  2  0  0  0  0
  7  8  1  0  0  0  0
  8 16  1  1  0  0  0
  8  9  1  0  0  0  0
  8 24  1  0  0  0  0
  9 17  1  0  0  0  0
 10 19  1  0  0  0  0
 10  9  1  0  0  0  0
 11 21  1  0  0  0  0
 11 10  1  0  0  0  0
 12 11  1  0  0  0  0
 12  7  1  0  0  0  0
 13  1  1  0  0  0  0
 14  2  1  0  0  0  0
 15  3  1  0  0  0  0
 18  9  1  0  0  0  0
 20 11  1  0  0  0  0
 22 12  1  0  0  0  0
 23 12  1  0  0  0  0
 24 25  2  0  0  0  0
 24 28  1  0  0  0  0
 25 26  1  0  0  0  0
 26 27  1  0  0  0  0
 26 30  1  0  0  0  0
 27 31  1  0  0  0  0
 28 27  2  0  0  0  0
 29 25  1  0  0  0  0
 32 33  1  0  0  0  0
 32 31  1  0  0  0  0
M  END
>  <minimizedAffinity>
-4.89374542

$$$$

 OpenBabel03242520433D

 33 35  0  0  1  0  0  0  0  0999 V2000
   38.2250   28.4740   37.4010 C   0  0  0  0  0  0  0  0  0  0  0  0
   36.8300   28.5420   37.1770 C   0  0  0  0  0  0  0  0  0  0  0  0
   36.1230   29.6670   37.6960 C   0  0  0  0  0  0  0  0  0  0  0  0
   36.8230   30.6230   38.3830 N   0  0  0  0  0  0  0  0  0  0  0  0
   38.1540   30.5030   38.5640 C   0  0  0  0  0  0  0  0  0  0  0  0
   38.8340   29.4380   38.0750 N   0  0  0  0  0  0  0  0  0  0  0  0
   38.7780   31.5330   39.2830 N   0  0  0  0  0  0  0  0  0  0  0  0
   38.3910   31.8300   40.6220 C   0  0  2  0  0  0  0  0  0  0  0  0
   38.9440   33.1000   41.1640 C   0  0  0  0  0  0  0  0  0  0  0  0
   40.2070   33.5150   40.6760 N   0  0  0  0  0  0  0  0  0  0  0  0
   40.8150   32.6150   39.7560 C   0  0  0  0  0  0  0  0  0  0  0  0
   39.8330   32.3090   38.6560 C   0  0  0  0  0  0  0  0  0  0  0  0
   38.7580   27.6270   37.0110 H   0  0  0  0  0  0  0  0  0  0  0  0
   36.3000   27.7710   36.6310 H   0  0  0  0  0  0  0  0  0  0  0  0
   35.0610   29.7340   37.5350 H   0  0  0  0  0  0  0  0  0  0  0  0
   37.2730   32.0120   40.5750 H   0  0  0  0  0  0  0  0  0  0  0  0
   38.9980   32.9750   42.2840 H   0  0  0  0  0  0  0  0  0  0  0  0
   38.2500   33.9550   41.0320 H   0  0  0  0  0  0  0  0  0  0  0  0
   40.8520   33.8640   41.3930 H   0  0  0  0  0  0  0  0  0  0  0  0
   41.6270   33.2050   39.2460 H   0  0  0  0  0  0  0  0  0  0  0  0
   41.3280   31.7570   40.1840 H   0  0  0  0  0  0  0  0  0  0  0  0
   40.3440   31.6590   37.9250 H   0  0  0  0  0  0  0  0  0  0  0  0
   39.4890   33.2650   38.2460 H   0  0  0  0  0  0  0  0  0  0  0  0
   38.5990   30.6740   41.5300 C   0  0  0  0  0  0  0  0  0  0  0  0
   39.7390   30.0250   41.9710 C   0  0  0  0  0  0  0  0  0  0  0  0
   39.4360   29.0160   42.8010 N   0  0  0  0  0  0  0  0  0  0  0  0
   38.1050   29.0200   42.8880 C   0  0  0  0  0  0  0  0  0  0  0  0
   37.5970   30.0050   42.1340 N   0  0  0  0  0  0  0  0  0  0  0  0
   40.7260   30.3110   41.6740 H   0  0  0  0  0  0  0  0  0  0  0  0
   40.1060   28.3900   43.2570 H   0  0  0  0  0  0  0  0  0  0  0  0
   37.2360   28.1080   43.6790 C   0  0  0  0  0  2  0  0  0  0  0  0
   36.8380   26.8890   42.8860 C   0  0  0  0  0  2  0  0  0  0  0  0
   35.7930   26.5790   43.1710 H   0  0  0  0  0  0  0  0  0  0  0  0
  1  6  1  0  0  0  0
  2  1  2  0  0  0  0
  2  3  1  0  0  0  0
  3  4  2  0  0  0  0
  4  5  1  0  0  0  0
  5  7  1  0  0  0  0
  6  5  2  0  0  0  0
  7  8  1  0  0  0  0
  8 16  1  6  0  0  0
  8  9  1  0  0  0  0
  8 24  1  0  0  0  0
  9 17  1  0  0  0  0
 10  9  1  0  0  0  0
 10 19  1  0  0  0  0
 11 21  1  0  0  0  0
 11 10  1  0  0  0  0
 12  7  1  0  0  0  0
 12 11  1  0  0  0  0
 13  1  1  0  0  0  0
 14  2  1  0  0  0  0
 15  3  1  0  0  0  0
 18  9  1  0  0  0  0
 20 11  1  0  0  0  0
 22 12  1  0  0  0  0
 23 12  1  0  0  0  0
 24 25  2  0  0  0  0
 24 28  1  0  0  0  0
 25 26  1  0  0  0  0
 26 27  1  0  0  0  0
 26 30  1  0  0  0  0
 27 31  1  0  0  0  0
 28 27  2  0  0  0  0
 29 25  1  0  0  0  0
 32 33  1  0  0  0  0
 32 31  1  0  0  0  0
M  END
>  <minimizedAffinity>
-4.74845791

$$$$

 OpenBabel03242520433D

 33 35  0  0  1  0  0  0  0  0999 V2000
   40.3640   26.5070   41.2000 C   0  0  0  0  0  0  0  0  0  0  0  0
   41.3340   26.9950   42.1060 C   0  0  0  0  0  0  0  0  0  0  0  0
   41.0640   28.2250   42.7770 C   0  0  0  0  0  0  0  0  0  0  0  0
   39.8860   28.8720   42.5150 N   0  0  0  0  0  0  0  0  0  0  0  0
   38.9990   28.3560   41.6390 C   0  0  0  0  0  0  0  0  0  0  0  0
   39.2460   27.1880   40.9970 N   0  0  0  0  0  0  0  0  0  0  0  0
   37.8240   29.0960   41.4380 N   0  0  0  0  0  0  0  0  0  0  0  0
   37.8770   30.4340   40.9480 C   0  0  2  0  0  0  0  0  0  0  0  0
   36.5920   31.1790   41.0320 C   0  0  0  0  0  0  0  0  0  0  0  0
   35.3990   30.4240   40.9250 N   0  0  0  0  0  0  0  0  0  0  0  0
   35.5940   29.0340   40.6890 C   0  0  0  0  0  0  0  0  0  0  0  0
   36.5370   28.4930   41.7310 C   0  0  0  0  0  0  0  0  0  0  0  0
   40.5660   25.5810   40.6940 H   0  0  0  0  0  0  0  0  0  0  0  0
   42.2590   26.4630   42.2950 H   0  0  0  0  0  0  0  0  0  0  0  0
   41.7920   28.6100   43.4690 H   0  0  0  0  0  0  0  0  0  0  0  0
   38.5640   30.9840   41.6610 H   0  0  0  0  0  0  0  0  0  0  0  0
   36.6180   31.9570   40.2160 H   0  0  0  0  0  0  0  0  0  0  0  0
   36.5110   31.7800   41.9610 H   0  0  0  0  0  0  0  0  0  0  0  0
   34.6780   30.8430   40.3280 H   0  0  0  0  0  0  0  0  0  0  0  0
   34.6080   28.5450   40.9290 H   0  0  0  0  0  0  0  0  0  0  0  0
   35.8020   28.7400   39.6640 H   0  0  0  0  0  0  0  0  0  0  0  0
   36.6260   27.4050   41.5670 H   0  0  0  0  0  0  0  0  0  0  0  0
   36.1370   28.7690   42.7130 H   0  0  0  0  0  0  0  0  0  0  0  0
   38.5040   30.5090   39.6040 C   0  0  0  0  0  0  0  0  0  0  0  0
   38.2490   29.8490   38.4160 C   0  0  0  0  0  0  0  0  0  0  0  0
   39.0810   30.2510   37.4450 N   0  0  0  0  0  0  0  0  0  0  0  0
   39.8670   31.1670   38.0140 C   0  0  0  0  0  0  0  0  0  0  0  0
   39.5300   31.3280   39.3010 N   0  0  0  0  0  0  0  0  0  0  0  0
   37.4790   29.1130   38.3090 H   0  0  0  0  0  0  0  0  0  0  0  0
   39.0900   29.9100   36.4800 H   0  0  0  0  0  0  0  0  0  0  0  0
   40.9730   31.9420   37.3880 C   0  0  0  0  0  2  0  0  0  0  0  0
   42.0910   31.0430   36.9230 C   0  0  0  0  0  2  0  0  0  0  0  0
   43.0770   31.5690   37.0560 H   0  0  0  0  0  0  0  0  0  0  0  0
  1  2  1  0  0  0  0
  2 14  1  0  0  0  0
  2  3  2  0  0  0  0
  3 15  1  0  0  0  0
  4  3  1  0  0  0  0
  5  4  2  0  0  0  0
  6  1  2  0  0  0  0
  6  5  1  0  0  0  0
  7  5  1  0  0  0  0
  7 12  1  0  0  0  0
  8  9  1  0  0  0  0
  8  7  1  0  0  0  0
  8 16  1  1  0  0  0
  9 18  1  0  0  0  0
 10  9  1  0  0  0  0
 11 10  1  0  0  0  0
 11 20  1  0  0  0  0
 11 12  1  0  0  0  0
 12 23  1  0  0  0  0
 13  1  1  0  0  0  0
 17  9  1  0  0  0  0
 19 10  1  0  0  0  0
 21 11  1  0  0  0  0
 22 12  1  0  0  0  0
 24  8  1  0  0  0  0
 25 24  2  0  0  0  0
 26 27  1  0  0  0  0
 26 25  1  0  0  0  0
 27 28  2  0  0  0  0
 28 24  1  0  0  0  0
 29 25  1  0  0  0  0
 30 26  1  0  0  0  0
 31 27  1  0  0  0  0
 32 33  1  0  0  0  0
 32 31  1  0  0  0  0
M  END
>  <minimizedAffinity>
-4.73974752

$$$$

 OpenBabel03242520433D

 33 35  0  0  1  0  0  0  0  0999 V2000
   40.5650   28.2970   38.0470 C   0  0  0  0  0  0  0  0  0  0  0  0
   40.1800   27.5510   36.9090 C   0  0  0  0  0  0  0  0  0  0  0  0
   38.7870   27.4360   36.6240 C   0  0  0  0  0  0  0  0  0  0  0  0
   37.8920   28.0500   37.4600 N   0  0  0  0  0  0  0  0  0  0  0  0
   38.3210   28.7480   38.5310 C   0  0  0  0  0  0  0  0  0  0  0  0
   39.6420   28.8630   38.8100 N   0  0  0  0  0  0  0  0  0  0  0  0
   37.3260   29.3370   39.3260 N   0  0  0  0  0  0  0  0  0  0  0  0
   36.3280   28.5400   39.9580 C   0  0  2  0  0  0  0  0  0  0  0  0
   35.1970   29.3070   40.5460 C   0  0  0  0  0  0  0  0  0  0  0  0
   35.4800   30.6110   41.0220 N   0  0  0  0  0  0  0  0  0  0  0  0
   36.8460   30.9970   40.9240 C   0  0  0  0  0  0  0  0  0  0  0  0
   37.3120   30.7760   39.5100 C   0  0  0  0  0  0  0  0  0  0  0  0
   41.6130   28.3840   38.2620 H   0  0  0  0  0  0  0  0  0  0  0  0
   40.9080   27.0750   36.2640 H   0  0  0  0  0  0  0  0  0  0  0  0
   38.4770   26.8720   35.7620 H   0  0  0  0  0  0  0  0  0  0  0  0
   35.8520   27.9420   39.1210 H   0  0  0  0  0  0  0  0  0  0  0  0
   34.7870   28.6810   41.3890 H   0  0  0  0  0  0  0  0  0  0  0  0
   34.3380   29.3980   39.8490 H   0  0  0  0  0  0  0  0  0  0  0  0
   35.0540   30.8390   41.9270 H   0  0  0  0  0  0  0  0  0  0  0  0
   36.8540   32.1170   41.0470 H   0  0  0  0  0  0  0  0  0  0  0  0
   37.5100   30.6320   41.7030 H   0  0  0  0  0  0  0  0  0  0  0  0
   38.3530   31.1380   39.4420 H   0  0  0  0  0  0  0  0  0  0  0  0
   36.6110   31.2960   38.8470 H   0  0  0  0  0  0  0  0  0  0  0  0
   36.9160   27.5600   40.9050 C   0  0  0  0  0  0  0  0  0  0  0  0
   37.5710   27.7060   42.1140 C   0  0  0  0  0  0  0  0  0  0  0  0
   37.9280   26.5180   42.6230 N   0  0  0  0  0  0  0  0  0  0  0  0
   37.5020   25.6140   41.7390 C   0  0  0  0  0  0  0  0  0  0  0  0
   36.8970   26.2260   40.7110 N   0  0  0  0  0  0  0  0  0  0  0  0
   37.7580   28.6580   42.5670 H   0  0  0  0  0  0  0  0  0  0  0  0
   38.4230   26.3650   43.5070 H   0  0  0  0  0  0  0  0  0  0  0  0
   37.6350   24.1340   41.8050 C   0  0  0  0  0  2  0  0  0  0  0  0
   37.7840   23.5250   40.4340 C   0  0  0  0  0  2  0  0  0  0  0  0
   37.2740   22.5220   40.4090 H   0  0  0  0  0  0  0  0  0  0  0  0
  1 13  1  0  0  0  0
  1  6  1  0  0  0  0
  2  1  2  0  0  0  0
  3  2  1  0  0  0  0
  3  4  2  0  0  0  0
  4  5  1  0  0  0  0
  5  6  2  0  0  0  0
  5  7  1  0  0  0  0
  7 12  1  0  0  0  0
  7  8  1  0  0  0  0
  8 16  1  6  0  0  0
  8  9  1  0  0  0  0
  8 24  1  0  0  0  0
  9 10  1  0  0  0  0
  9 17  1  0  0  0  0
 10 19  1  0  0  0  0
 11 10  1  0  0  0  0
 11 20  1  0  0  0  0
 11 21  1  0  0  0  0
 12 11  1  0  0  0  0
 14  2  1  0  0  0  0
 15  3  1  0  0  0  0
 18  9  1  0  0  0  0
 22 12  1  0  0  0  0
 23 12  1  0  0  0  0
 24 25  2  0  0  0  0
 25 29  1  0  0  0  0
 25 26  1  0  0  0  0
 26 30  1  0  0  0  0
 27 31  1  0  0  0  0
 27 26  1  0  0  0  0
 28 24  1  0  0  0  0
 28 27  2  0  0  0  0
 32 31  1  0  0  0  0
 33 32  1  0  0  0  0
M  END
>  <minimizedAffinity>
-4.71958637

$$$$

 OpenBabel03242520433D

 33 35  0  0  1  0  0  0  0  0999 V2000
   39.8100   26.8520   41.5890 C   0  0  0  0  0  0  0  0  0  0  0  0
   40.9240   27.0950   42.4260 C   0  0  0  0  0  0  0  0  0  0  0  0
   41.1480   28.4310   42.8710 C   0  0  0  0  0  0  0  0  0  0  0  0
   40.2790   29.4120   42.4720 N   0  0  0  0  0  0  0  0  0  0  0  0
   39.2330   29.1180   41.6720 C   0  0  0  0  0  0  0  0  0  0  0  0
   39.0120   27.8510   41.2440 N   0  0  0  0  0  0  0  0  0  0  0  0
   38.4030   30.1920   41.3170 N   0  0  0  0  0  0  0  0  0  0  0  0
   38.9230   31.3150   40.6100 C   0  0  2  0  0  0  0  0  0  0  0  0
   38.0040   32.4820   40.5320 C   0  0  0  0  0  0  0  0  0  0  0  0
   36.6140   32.2100   40.5210 N   0  0  0  0  0  0  0  0  0  0  0  0
   36.2780   30.8270   40.5290 C   0  0  0  0  0  0  0  0  0  0  0  0
   36.9960   30.1610   41.6720 C   0  0  0  0  0  0  0  0  0  0  0  0
   39.6400   25.8460   41.2530 H   0  0  0  0  0  0  0  0  0  0  0  0
   41.5960   26.3010   42.7270 H   0  0  0  0  0  0  0  0  0  0  0  0
   41.9910   28.6330   43.5080 H   0  0  0  0  0  0  0  0  0  0  0  0
   39.7900   31.6860   41.2380 H   0  0  0  0  0  0  0  0  0  0  0  0
   38.2820   33.0480   39.5970 H   0  0  0  0  0  0  0  0  0  0  0  0
   38.1820   33.2180   41.3430 H   0  0  0  0  0  0  0  0  0  0  0  0
   36.0740   32.7580   39.8420 H   0  0  0  0  0  0  0  0  0  0  0  0
   35.1910   30.7810   40.8210 H   0  0  0  0  0  0  0  0  0  0  0  0
   36.3260   30.3110   39.5740 H   0  0  0  0  0  0  0  0  0  0  0  0
   36.6750   29.1050   41.6970 H   0  0  0  0  0  0  0  0  0  0  0  0
   36.7620   30.7240   42.5830 H   0  0  0  0  0  0  0  0  0  0  0  0
   39.4830   30.9300   39.2900 C   0  0  0  0  0  0  0  0  0  0  0  0
   38.9660   30.2070   38.2300 C   0  0  0  0  0  0  0  0  0  0  0  0
   39.8490   30.1150   37.2250 N   0  0  0  0  0  0  0  0  0  0  0  0
   40.9290   30.7770   37.6440 C   0  0  0  0  0  0  0  0  0  0  0  0
   40.7210   31.2660   38.8740 N   0  0  0  0  0  0  0  0  0  0  0  0
   37.9830   29.7850   38.2340 H   0  0  0  0  0  0  0  0  0  0  0  0
   39.7000   29.6310   36.3350 H   0  0  0  0  0  0  0  0  0  0  0  0
   42.2120   30.9880   36.9210 C   0  0  0  0  0  2  0  0  0  0  0  0
   42.6430   29.7510   36.1750 C   0  0  0  0  0  2  0  0  0  0  0  0
   43.7660   29.6760   36.1880 H   0  0  0  0  0  0  0  0  0  0  0  0
  1  2  1  0  0  0  0
  2 14  1  0  0  0  0
  2  3  2  0  0  0  0
  3 15  1  0  0  0  0
  4  3  1  0  0  0  0
  5  4  2  0  0  0  0
  6  1  2  0  0  0  0
  6  5  1  0  0  0  0
  7  5  1  0  0  0  0
  7 12  1  0  0  0  0
  8 16  1  1  0  0  0
  8  7  1  0  0  0  0
  9  8  1  0  0  0  0
  9 18  1  0  0  0  0
 10 11  1  0  0  0  0
 10  9  1  0  0  0  0
 11 20  1  0  0  0  0
 11 12  1  0  0  0  0
 12 22  1  0  0  0  0
 12 23  1  0  0  0  0
 13  1  1  0  0  0  0
 17  9  1  0  0  0  0
 19 10  1  0  0  0  0
 21 11  1  0  0  0  0
 24  8  1  0  0  0  0
 25 29  1  0  0  0  0
 25 24  2  0  0  0  0
 26 27  1  0  0  0  0
 26 25  1  0  0  0  0
 27 28  2  0  0  0  0
 28 24  1  0  0  0  0
 30 26  1  0  0  0  0
 31 27  1  0  0  0  0
 32 33  1  0  0  0  0
 32 31  1  0  0  0  0
M  END
>  <minimizedAffinity>
-4.668365

$$$$

 OpenBabel03242520433D

 33 35  0  0  1  0  0  0  0  0999 V2000
   38.3020   27.9790   36.1570 C   0  0  0  0  0  0  0  0  0  0  0  0
   37.1440   27.2670   35.7650 C   0  0  0  0  0  0  0  0  0  0  0  0
   35.9100   27.5930   36.4010 C   0  0  0  0  0  0  0  0  0  0  0  0
   35.9020   28.5750   37.3560 N   0  0  0  0  0  0  0  0  0  0  0  0
   37.0390   29.2190   37.6880 C   0  0  0  0  0  0  0  0  0  0  0  0
   38.2170   28.9170   37.0890 N   0  0  0  0  0  0  0  0  0  0  0  0
   36.9270   30.2060   38.6790 N   0  0  0  0  0  0  0  0  0  0  0  0
   36.4600   29.8810   39.9860 C   0  0  2  0  0  0  0  0  0  0  0  0
   36.1430   31.0530   40.8450 C   0  0  0  0  0  0  0  0  0  0  0  0
   36.8930   32.2340   40.6260 N   0  0  0  0  0  0  0  0  0  0  0  0
   37.9070   32.1220   39.6340 C   0  0  0  0  0  0  0  0  0  0  0  0
   37.2910   31.5770   38.3720 C   0  0  0  0  0  0  0  0  0  0  0  0
   39.2310   27.7350   35.6790 H   0  0  0  0  0  0  0  0  0  0  0  0
   37.1780   26.4950   35.0060 H   0  0  0  0  0  0  0  0  0  0  0  0
   35.0200   27.0610   36.1140 H   0  0  0  0  0  0  0  0  0  0  0  0
   35.4580   29.3760   39.8260 H   0  0  0  0  0  0  0  0  0  0  0  0
   36.2790   30.7160   41.9120 H   0  0  0  0  0  0  0  0  0  0  0  0
   35.0720   31.3380   40.7960 H   0  0  0  0  0  0  0  0  0  0  0  0
   37.2080   32.7070   41.4800 H   0  0  0  0  0  0  0  0  0  0  0  0
   38.1910   33.1790   39.3690 H   0  0  0  0  0  0  0  0  0  0  0  0
   38.8390   31.6570   39.9440 H   0  0  0  0  0  0  0  0  0  0  0  0
   38.0800   31.5550   37.6000 H   0  0  0  0  0  0  0  0  0  0  0  0
   36.4340   32.2130   38.1220 H   0  0  0  0  0  0  0  0  0  0  0  0
   37.3360   28.8890   40.6590 C   0  0  0  0  0  0  0  0  0  0  0  0
   38.6810   28.8990   40.9820 C   0  0  0  0  0  0  0  0  0  0  0  0
   39.0430   27.7660   41.6010 N   0  0  0  0  0  0  0  0  0  0  0  0
   37.9300   27.0330   41.6710 C   0  0  0  0  0  0  0  0  0  0  0  0
   36.9070   27.6950   41.1120 N   0  0  0  0  0  0  0  0  0  0  0  0
   39.3310   29.7190   40.7570 H   0  0  0  0  0  0  0  0  0  0  0  0
   39.9830   27.5370   41.9370 H   0  0  0  0  0  0  0  0  0  0  0  0
   37.7610   25.6790   42.2630 C   0  0  0  0  0  2  0  0  0  0  0  0
   36.9410   24.7790   41.3730 C   0  0  0  0  0  2  0  0  0  0  0  0
   36.3170   24.0900   42.0070 H   0  0  0  0  0  0  0  0  0  0  0  0
  1  6  1  0  0  0  0
  2  1  2  0  0  0  0
  2  3  1  0  0  0  0
  3  4  2  0  0  0  0
  4  5  1  0  0  0  0
  5  7  1  0  0  0  0
  6  5  2  0  0  0  0
  7  8  1  0  0  0  0
  8 16  1  6  0  0  0
  8 24  1  0  0  0  0
  8  9  1  0  0  0  0
  9 17  1  0  0  0  0
 10  9  1  0  0  0  0
 10 19  1  0  0  0  0
 11 21  1  0  0  0  0
 11 10  1  0  0  0  0
 12  7  1  0  0  0  0
 12 11  1  0  0  0  0
 13  1  1  0  0  0  0
 14  2  1  0  0  0  0
 15  3  1  0  0  0  0
 18  9  1  0  0  0  0
 20 11  1  0  0  0  0
 22 12  1  0  0  0  0
 23 12  1  0  0  0  0
 24 25  2  0  0  0  0
 24 28  1  0  0  0  0
 25 26  1  0  0  0  0
 26 27  1  0  0  0  0
 26 30  1  0  0  0  0
 27 31  1  0  0  0  0
 28 27  2  0  0  0  0
 29 25  1  0  0  0  0
 32 33  1  0  0  0  0
 32 31  1  0  0  0  0
M  END
>  <minimizedAffinity>
-4.62015438

$$$$
