
 OpenBabel03242512063D

 21 22  0  0  1  0  0  0  0  0999 V2000
   46.5480   34.4770   41.6630 C   0  0  0  0  0  0  0  0  0  0  0  0
   45.8450   34.3280   40.6550 O   0  0  0  0  0  0  0  0  0  0  0  0
   45.2840   35.9840   43.1080 C   0  0  0  0  0  0  0  0  0  0  0  0
   45.9280   34.7960   42.9030 C   0  0  0  0  0  0  0  0  0  0  0  0
   45.9520   33.8660   43.9570 C   0  0  0  0  0  0  0  0  0  0  0  0
   45.3480   34.1630   45.1250 N   0  0  0  0  0  0  0  0  0  0  0  0
   44.7100   35.3600   45.3050 C   0  0  0  0  0  0  0  0  0  0  0  0
   44.6900   36.2330   44.3070 N   0  0  0  0  0  0  0  0  0  0  0  0
   45.2450   36.7240   42.3230 H   0  0  0  0  0  0  0  0  0  0  0  0
   46.4580   32.8990   43.8380 H   0  0  0  0  0  0  0  0  0  0  0  0
   44.2530   35.5220   46.2620 H   0  0  0  0  0  0  0  0  0  0  0  0
   48.0200   34.2940   41.4810 C   0  0  1  0  0  0  0  0  0  0  0  0
   48.7090   35.5630   40.8790 C   0  0  0  0  0  0  0  0  0  0  0  0
   48.9580   35.0660   42.2600 C   0  0  2  0  0  0  0  0  0  0  0  0
   48.2070   33.5090   40.7040 H   0  0  0  0  0  0  0  0  0  0  0  0
   49.5520   35.4280   40.1940 H   0  0  0  0  0  0  0  0  0  0  0  0
   48.0890   36.4460   40.7160 H   0  0  0  0  0  0  0  0  0  0  0  0
   48.5270   35.6810   43.0760 H   0  0  0  0  0  0  0  0  0  0  0  0
   50.3080   34.4920   42.6310 C   0  0  0  0  0  0  0  0  0  0  0  0
   50.3930   33.0620   42.0930 C   0  0  0  0  0  0  0  0  0  0  0  0
   49.7650   33.0690   41.1540 H   0  0  0  0  0  0  0  0  0  0  0  0
  1  4  1  0  0  0  0
  2  1  2  0  0  0  0
  3  8  1  0  0  0  0
  4  3  2  0  0  0  0
  4  5  1  0  0  0  0
  5  6  2  0  0  0  0
  6  7  1  0  0  0  0
  7 11  1  0  0  0  0
  8  7  2  0  0  0  0
  9  3  1  0  0  0  0
 10  5  1  0  0  0  0
 12 15  1  6  0  0  0
 12  1  1  0  0  0  0
 12 14  1  0  0  0  0
 13 12  1  0  0  0  0
 13 14  1  0  0  0  0
 14 19  1  0  0  0  0
 14 18  1  1  0  0  0
 16 13  1  0  0  0  0
 17 13  1  0  0  0  0
 20 19  1  0  0  0  0
 21 20  1  0  0  0  0
M  END
>  <minimizedAffinity>
-4.71769857

>  <minimizedRMSD>
0.814546645

$$$$
