
 OpenBabel03252505423D

 30 32  0  0  1  0  0  0  0  0999 V2000
   37.4540   30.5270   38.3220 C   0  0  1  0  0  0  0  0  0  0  0  0
   37.1570   32.0000   38.7330 C   0  0  0  0  0  0  0  0  0  0  0  0
   36.7920   30.8060   39.5820 C   0  0  2  0  0  0  0  0  0  0  0  0
   38.5670   30.3460   38.2700 H   0  0  0  0  0  0  0  0  0  0  0  0
   38.0040   32.6180   39.0500 H   0  0  0  0  0  0  0  0  0  0  0  0
   36.2850   32.4830   38.2340 H   0  0  0  0  0  0  0  0  0  0  0  0
   35.7290   30.6050   39.7660 H   0  0  0  0  0  0  0  0  0  0  0  0
   36.7250   30.0990   37.1060 C   0  0  0  0  0  0  0  0  0  0  0  0
   35.8050   29.0280   37.2140 C   0  0  0  0  0  0  0  0  0  0  0  0
   35.1140   28.6330   36.0740 C   0  0  0  0  0  0  0  0  0  0  0  0
   35.3590   29.2950   34.9160 N   0  0  0  0  0  0  0  0  0  0  0  0
   36.2420   30.3080   34.8490 C   0  0  0  0  0  0  0  0  0  0  0  0
   36.9090   30.6890   35.9540 N   0  0  0  0  0  0  0  0  0  0  0  0
   35.6020   28.5020   38.1110 H   0  0  0  0  0  0  0  0  0  0  0  0
   34.3930   27.8260   36.0630 H   0  0  0  0  0  0  0  0  0  0  0  0
   36.3660   30.9100   33.4820 C   0  0  0  0  0  0  0  0  0  0  0  0
   36.7870   29.9880   32.5510 F   0  0  0  0  0  0  0  0  0  0  0  0
   37.3380   31.9290   33.5160 F   0  0  0  0  0  0  0  0  0  0  0  0
   35.1800   31.5270   33.1440 F   0  0  0  0  0  0  0  0  0  0  0  0
   37.6360   30.5300   40.7960 C   0  0  0  0  0  0  0  0  0  0  0  0
   38.7770   31.2680   41.0530 C   0  0  0  0  0  0  0  0  0  0  0  0
   39.5720   31.0490   42.1590 C   0  0  0  0  0  0  0  0  0  0  0  0
   39.2010   30.0690   43.0150 N   0  0  0  0  0  0  0  0  0  0  0  0
   38.0840   29.3410   42.7690 C   0  0  0  0  0  0  0  0  0  0  0  0
   37.3100   29.5590   41.6860 N   0  0  0  0  0  0  0  0  0  0  0  0
   39.0990   32.0570   40.3880 H   0  0  0  0  0  0  0  0  0  0  0  0
   40.4700   31.6190   42.3750 H   0  0  0  0  0  0  0  0  0  0  0  0
   37.6360   28.2540   43.6790 C   0  0  0  0  0  2  0  0  0  0  0  0
   36.5060   27.4750   43.0660 C   0  0  0  0  0  2  0  0  0  0  0  0
   35.6060   28.1370   43.1400 H   0  0  0  0  0  0  0  0  0  0  0  0
  1  4  1  1  0  0  0
  1  2  1  0  0  0  0
  1  3  1  0  0  0  0
  2  5  1  0  0  0  0
  2  3  1  0  0  0  0
  3  7  1  1  0  0  0
  3 20  1  0  0  0  0
  6  2  1  0  0  0  0
  8  9  1  0  0  0  0
  8  1  1  0  0  0  0
  9 14  1  0  0  0  0
 10  9  2  0  0  0  0
 11 10  1  0  0  0  0
 12 11  2  0  0  0  0
 12 13  1  0  0  0  0
 13  8  2  0  0  0  0
 15 10  1  0  0  0  0
 16 18  1  0  0  0  0
 16 12  1  0  0  0  0
 17 16  1  0  0  0  0
 19 16  1  0  0  0  0
 20 21  2  0  0  0  0
 20 25  1  0  0  0  0
 21 22  1  0  0  0  0
 22 27  1  0  0  0  0
 22 23  2  0  0  0  0
 24 23  1  0  0  0  0
 24 28  1  0  0  0  0
 25 24  2  0  0  0  0
 26 21  1  0  0  0  0
 29 30  1  0  0  0  0
 29 28  1  0  0  0  0
M  END
>  <minimizedAffinity>
-5.29490089

$$$$

 OpenBabel03252505423D

 30 32  0  0  1  0  0  0  0  0999 V2000
   39.1960   29.1690   42.2380 C   0  0  1  0  0  0  0  0  0  0  0  0
   38.1130   29.1200   43.3560 C   0  0  0  0  0  0  0  0  0  0  0  0
   38.1350   28.1830   42.1730 C   0  0  2  0  0  0  0  0  0  0  0  0
   40.2130   28.9130   42.6580 H   0  0  0  0  0  0  0  0  0  0  0  0
   38.4110   28.7240   44.3330 H   0  0  0  0  0  0  0  0  0  0  0  0
   37.3160   29.8970   43.3030 H   0  0  0  0  0  0  0  0  0  0  0  0
   37.3060   28.2320   41.4570 H   0  0  0  0  0  0  0  0  0  0  0  0
   39.1770   30.4270   41.4570 C   0  0  0  0  0  0  0  0  0  0  0  0
   40.1230   31.4310   41.7720 C   0  0  0  0  0  0  0  0  0  0  0  0
   40.1090   32.6080   41.0310 C   0  0  0  0  0  0  0  0  0  0  0  0
   39.1870   32.7320   40.0440 N   0  0  0  0  0  0  0  0  0  0  0  0
   38.3020   31.7570   39.7720 C   0  0  0  0  0  0  0  0  0  0  0  0
   38.3170   30.6180   40.4900 N   0  0  0  0  0  0  0  0  0  0  0  0
   40.8490   31.3500   42.5390 H   0  0  0  0  0  0  0  0  0  0  0  0
   40.7940   33.4280   41.2020 H   0  0  0  0  0  0  0  0  0  0  0  0
   37.3710   32.0850   38.6430 C   0  0  0  0  0  0  0  0  0  0  0  0
   36.3830   31.1380   38.5010 F   0  0  0  0  0  0  0  0  0  0  0  0
   38.0990   32.1000   37.4380 F   0  0  0  0  0  0  0  0  0  0  0  0
   36.8850   33.3640   38.8090 F   0  0  0  0  0  0  0  0  0  0  0  0
   38.5910   26.7700   42.4120 C   0  0  0  0  0  0  0  0  0  0  0  0
   39.5940   26.4890   43.3230 C   0  0  0  0  0  0  0  0  0  0  0  0
   40.0330   25.2060   43.5730 C   0  0  0  0  0  0  0  0  0  0  0  0
   39.4460   24.1960   42.8910 N   0  0  0  0  0  0  0  0  0  0  0  0
   38.4630   24.4630   41.9970 C   0  0  0  0  0  0  0  0  0  0  0  0
   38.0360   25.7210   41.7540 N   0  0  0  0  0  0  0  0  0  0  0  0
   40.0820   27.2740   43.8820 H   0  0  0  0  0  0  0  0  0  0  0  0
   40.8180   24.9690   44.2840 H   0  0  0  0  0  0  0  0  0  0  0  0
   37.7870   23.3880   41.2230 C   0  0  0  0  0  2  0  0  0  0  0  0
   36.4600   23.8590   40.7000 C   0  0  0  0  0  2  0  0  0  0  0  0
   35.7760   23.8830   41.5850 H   0  0  0  0  0  0  0  0  0  0  0  0
  1  4  1  1  0  0  0
  1  2  1  0  0  0  0
  2  5  1  0  0  0  0
  3  7  1  6  0  0  0
  3  1  1  0  0  0  0
  3 20  1  0  0  0  0
  3  2  1  0  0  0  0
  6  2  1  0  0  0  0
  8  9  1  0  0  0  0
  8  1  1  0  0  0  0
  9 14  1  0  0  0  0
 10 15  1  0  0  0  0
 10  9  2  0  0  0  0
 11 10  1  0  0  0  0
 12 11  2  0  0  0  0
 12 13  1  0  0  0  0
 13  8  2  0  0  0  0
 16 19  1  0  0  0  0
 16 12  1  0  0  0  0
 17 16  1  0  0  0  0
 18 16  1  0  0  0  0
 20 21  1  0  0  0  0
 21 22  2  0  0  0  0
 21 26  1  0  0  0  0
 22 27  1  0  0  0  0
 23 22  1  0  0  0  0
 24 23  2  0  0  0  0
 25 24  1  0  0  0  0
 25 20  2  0  0  0  0
 28 24  1  0  0  0  0
 29 28  1  0  0  0  0
 29 30  1  0  0  0  0
M  END
>  <minimizedAffinity>
-5.27216387

$$$$

 OpenBabel03252505423D

 30 32  0  0  1  0  0  0  0  0999 V2000
   38.9460   28.8930   41.6750 C   0  0  1  0  0  0  0  0  0  0  0  0
   37.8140   29.7000   42.3770 C   0  0  0  0  0  0  0  0  0  0  0  0
   39.2840   29.9690   42.5860 C   0  0  2  0  0  0  0  0  0  0  0  0
   38.9160   29.0540   40.5580 H   0  0  0  0  0  0  0  0  0  0  0  0
   37.2420   30.4060   41.7660 H   0  0  0  0  0  0  0  0  0  0  0  0
   37.3190   29.2010   43.2420 H   0  0  0  0  0  0  0  0  0  0  0  0
   39.7050   29.8080   43.5860 H   0  0  0  0  0  0  0  0  0  0  0  0
   38.9800   27.4650   42.0680 C   0  0  0  0  0  0  0  0  0  0  0  0
   39.8290   27.0790   43.1330 C   0  0  0  0  0  0  0  0  0  0  0  0
   39.8520   25.7400   43.5070 C   0  0  0  0  0  0  0  0  0  0  0  0
   39.0600   24.8720   42.8300 N   0  0  0  0  0  0  0  0  0  0  0  0
   38.2650   25.2740   41.8220 C   0  0  0  0  0  0  0  0  0  0  0  0
   38.2430   26.5710   41.4620 N   0  0  0  0  0  0  0  0  0  0  0  0
   40.4530   27.7430   43.6720 H   0  0  0  0  0  0  0  0  0  0  0  0
   40.4700   25.3550   44.3080 H   0  0  0  0  0  0  0  0  0  0  0  0
   37.4650   24.1650   41.2070 C   0  0  0  0  0  0  0  0  0  0  0  0
   38.1420   22.9670   41.2340 F   0  0  0  0  0  0  0  0  0  0  0  0
   37.2270   24.4690   39.8520 F   0  0  0  0  0  0  0  0  0  0  0  0
   36.2250   24.1080   41.8060 F   0  0  0  0  0  0  0  0  0  0  0  0
   39.8720   31.1810   41.9160 C   0  0  0  0  0  0  0  0  0  0  0  0
   41.2410   31.3770   41.8700 C   0  0  0  0  0  0  0  0  0  0  0  0
   41.8160   32.4710   41.2590 C   0  0  0  0  0  0  0  0  0  0  0  0
   40.9910   33.3770   40.6860 N   0  0  0  0  0  0  0  0  0  0  0  0
   39.6480   33.1920   40.7260 C   0  0  0  0  0  0  0  0  0  0  0  0
   39.0900   32.1200   41.3260 N   0  0  0  0  0  0  0  0  0  0  0  0
   41.9260   30.6710   42.3190 H   0  0  0  0  0  0  0  0  0  0  0  0
   42.8880   32.6390   41.2150 H   0  0  0  0  0  0  0  0  0  0  0  0
   38.7010   34.1590   40.1110 C   0  0  0  0  0  2  0  0  0  0  0  0
   37.4450   33.4660   39.6650 C   0  0  0  0  0  2  0  0  0  0  0  0
   37.7240   32.8960   38.7420 H   0  0  0  0  0  0  0  0  0  0  0  0
  1  4  1  6  0  0  0
  1  8  1  0  0  0  0
  1  2  1  0  0  0  0
  1  3  1  0  0  0  0
  2  3  1  0  0  0  0
  2  6  1  0  0  0  0
  3  7  1  1  0  0  0
  5  2  1  0  0  0  0
  8  9  1  0  0  0  0
  9 10  2  0  0  0  0
  9 14  1  0  0  0  0
 10 15  1  0  0  0  0
 11 10  1  0  0  0  0
 12 11  2  0  0  0  0
 13 12  1  0  0  0  0
 13  8  2  0  0  0  0
 16 17  1  0  0  0  0
 16 19  1  0  0  0  0
 16 12  1  0  0  0  0
 18 16  1  0  0  0  0
 20  3  1  0  0  0  0
 21 20  1  0  0  0  0
 21 26  1  0  0  0  0
 22 21  2  0  0  0  0
 23 24  2  0  0  0  0
 23 22  1  0  0  0  0
 24 25  1  0  0  0  0
 25 20  2  0  0  0  0
 27 22  1  0  0  0  0
 28 24  1  0  0  0  0
 29 28  1  0  0  0  0
 30 29  1  0  0  0  0
M  END
>  <minimizedAffinity>
-5.18847799

$$$$

 OpenBabel03252505423D

 30 32  0  0  1  0  0  0  0  0999 V2000
   35.2280   29.3460   38.6400 C   0  0  1  0  0  0  0  0  0  0  0  0
   36.0370   28.8150   37.4200 C   0  0  0  0  0  0  0  0  0  0  0  0
   34.8310   28.1110   37.9930 C   0  0  2  0  0  0  0  0  0  0  0  0
   34.7310   30.3290   38.3910 H   0  0  0  0  0  0  0  0  0  0  0  0
   35.9230   29.3430   36.4670 H   0  0  0  0  0  0  0  0  0  0  0  0
   37.0060   28.3140   37.6530 H   0  0  0  0  0  0  0  0  0  0  0  0
   34.9720   27.1190   38.4390 H   0  0  0  0  0  0  0  0  0  0  0  0
   36.0140   29.3810   39.8960 C   0  0  0  0  0  0  0  0  0  0  0  0
   36.7190   30.5650   40.2170 C   0  0  0  0  0  0  0  0  0  0  0  0
   37.4480   30.5990   41.4000 C   0  0  0  0  0  0  0  0  0  0  0  0
   37.4470   29.4940   42.1850 N   0  0  0  0  0  0  0  0  0  0  0  0
   36.7660   28.3840   41.8480 C   0  0  0  0  0  0  0  0  0  0  0  0
   36.0600   28.3520   40.7020 N   0  0  0  0  0  0  0  0  0  0  0  0
   36.7300   31.4370   39.6160 H   0  0  0  0  0  0  0  0  0  0  0  0
   38.0170   31.4610   41.7250 H   0  0  0  0  0  0  0  0  0  0  0  0
   36.8880   27.2740   42.8490 C   0  0  0  0  0  0  0  0  0  0  0  0
   38.0850   27.3240   43.5280 F   0  0  0  0  0  0  0  0  0  0  0  0
   36.8550   26.0400   42.1720 F   0  0  0  0  0  0  0  0  0  0  0  0
   35.7870   27.2820   43.6780 F   0  0  0  0  0  0  0  0  0  0  0  0
   33.5410   28.2050   37.2250 C   0  0  0  0  0  0  0  0  0  0  0  0
   33.1240   27.1740   36.4020 C   0  0  0  0  0  0  0  0  0  0  0  0
   31.9450   27.2220   35.6890 C   0  0  0  0  0  0  0  0  0  0  0  0
   31.1790   28.3290   35.8150 N   0  0  0  0  0  0  0  0  0  0  0  0
   31.5800   29.3440   36.6200 C   0  0  0  0  0  0  0  0  0  0  0  0
   32.7350   29.2930   37.3150 N   0  0  0  0  0  0  0  0  0  0  0  0
   33.7150   26.2770   36.2810 H   0  0  0  0  0  0  0  0  0  0  0  0
   31.6040   26.4210   35.0390 H   0  0  0  0  0  0  0  0  0  0  0  0
   30.7730   30.5810   36.7900 C   0  0  0  0  0  2  0  0  0  0  0  0
   30.8710   31.4550   35.5720 C   0  0  0  0  0  2  0  0  0  0  0  0
   31.8910   31.9140   35.6080 H   0  0  0  0  0  0  0  0  0  0  0  0
  1  4  1  6  0  0  0
  1  8  1  0  0  0  0
  2  6  1  0  0  0  0
  2  3  1  0  0  0  0
  2  1  1  0  0  0  0
  3  7  1  1  0  0  0
  3  1  1  0  0  0  0
  5  2  1  0  0  0  0
  8  9  2  0  0  0  0
  8 13  1  0  0  0  0
  9 10  1  0  0  0  0
 10 15  1  0  0  0  0
 10 11  2  0  0  0  0
 12 11  1  0  0  0  0
 12 16  1  0  0  0  0
 13 12  2  0  0  0  0
 14  9  1  0  0  0  0
 16 17  1  0  0  0  0
 16 19  1  0  0  0  0
 18 16  1  0  0  0  0
 20 25  1  0  0  0  0
 20  3  1  0  0  0  0
 21 20  2  0  0  0  0
 22 23  2  0  0  0  0
 22 21  1  0  0  0  0
 23 24  1  0  0  0  0
 24 28  1  0  0  0  0
 24 25  2  0  0  0  0
 26 21  1  0  0  0  0
 27 22  1  0  0  0  0
 29 30  1  0  0  0  0
 29 28  1  0  0  0  0
M  END
>  <minimizedAffinity>
-5.15222359

$$$$

 OpenBabel03252505423D

 30 32  0  0  1  0  0  0  0  0999 V2000
   35.6820   29.5710   38.5860 C   0  0  1  0  0  0  0  0  0  0  0  0
   36.2780   28.6490   37.4820 C   0  0  0  0  0  0  0  0  0  0  0  0
   34.8910   28.4800   38.0520 C   0  0  2  0  0  0  0  0  0  0  0  0
   35.5650   30.6270   38.2030 H   0  0  0  0  0  0  0  0  0  0  0  0
   36.3750   29.0630   36.4730 H   0  0  0  0  0  0  0  0  0  0  0  0
   37.0050   27.8760   37.8270 H   0  0  0  0  0  0  0  0  0  0  0  0
   34.6660   27.5630   38.6100 H   0  0  0  0  0  0  0  0  0  0  0  0
   36.4040   29.4850   39.8770 C   0  0  0  0  0  0  0  0  0  0  0  0
   37.1920   30.5880   40.2830 C   0  0  0  0  0  0  0  0  0  0  0  0
   37.8620   30.5100   41.4990 C   0  0  0  0  0  0  0  0  0  0  0  0
   37.7250   29.3780   42.2330 N   0  0  0  0  0  0  0  0  0  0  0  0
   36.9690   28.3470   41.8160 C   0  0  0  0  0  0  0  0  0  0  0  0
   36.3210   28.4250   40.6380 N   0  0  0  0  0  0  0  0  0  0  0  0
   37.3080   31.4800   39.7230 H   0  0  0  0  0  0  0  0  0  0  0  0
   38.4850   31.3040   41.8890 H   0  0  0  0  0  0  0  0  0  0  0  0
   36.9440   27.1910   42.7700 C   0  0  0  0  0  0  0  0  0  0  0  0
   36.7200   25.9970   42.1240 F   0  0  0  0  0  0  0  0  0  0  0  0
   35.8830   27.3690   43.6790 F   0  0  0  0  0  0  0  0  0  0  0  0
   38.0970   27.1980   43.5260 F   0  0  0  0  0  0  0  0  0  0  0  0
   33.7310   28.9200   37.2000 C   0  0  0  0  0  0  0  0  0  0  0  0
   33.8070   28.8870   35.8190 C   0  0  0  0  0  0  0  0  0  0  0  0
   32.7630   29.2750   35.0060 C   0  0  0  0  0  0  0  0  0  0  0  0
   31.6270   29.7010   35.6040 N   0  0  0  0  0  0  0  0  0  0  0  0
   31.5440   29.7370   36.9570 C   0  0  0  0  0  0  0  0  0  0  0  0
   32.5690   29.3570   37.7480 N   0  0  0  0  0  0  0  0  0  0  0  0
   34.7020   28.5510   35.3130 H   0  0  0  0  0  0  0  0  0  0  0  0
   32.8070   29.2540   33.9220 H   0  0  0  0  0  0  0  0  0  0  0  0
   30.3180   30.1980   37.6600 C   0  0  0  0  0  2  0  0  0  0  0  0
   30.0180   31.6320   37.3280 C   0  0  0  0  0  2  0  0  0  0  0  0
   30.7720   32.2380   37.8920 H   0  0  0  0  0  0  0  0  0  0  0  0
  1  4  1  6  0  0  0
  1  8  1  0  0  0  0
  2  6  1  0  0  0  0
  2  3  1  0  0  0  0
  2  1  1  0  0  0  0
  3  1  1  0  0  0  0
  3  7  1  1  0  0  0
  5  2  1  0  0  0  0
  8  9  2  0  0  0  0
  8 13  1  0  0  0  0
  9 10  1  0  0  0  0
 10 15  1  0  0  0  0
 10 11  2  0  0  0  0
 12 11  1  0  0  0  0
 12 16  1  0  0  0  0
 13 12  2  0  0  0  0
 14  9  1  0  0  0  0
 16 19  1  0  0  0  0
 16 18  1  0  0  0  0
 17 16  1  0  0  0  0
 20 25  1  0  0  0  0
 20  3  1  0  0  0  0
 21 20  2  0  0  0  0
 22 23  2  0  0  0  0
 22 21  1  0  0  0  0
 23 24  1  0  0  0  0
 24 28  1  0  0  0  0
 24 25  2  0  0  0  0
 26 21  1  0  0  0  0
 27 22  1  0  0  0  0
 29 28  1  0  0  0  0
 29 30  1  0  0  0  0
M  END
>  <minimizedAffinity>
-5.06610584

$$$$

 OpenBabel03252505423D

 30 32  0  0  1  0  0  0  0  0999 V2000
   36.7010   29.3530   38.5110 C   0  0  1  0  0  0  0  0  0  0  0  0
   36.6160   30.7410   39.2140 C   0  0  0  0  0  0  0  0  0  0  0  0
   35.9550   29.4920   39.7450 C   0  0  2  0  0  0  0  0  0  0  0  0
   37.7650   28.9750   38.5040 H   0  0  0  0  0  0  0  0  0  0  0  0
   37.5140   31.1060   39.7240 H   0  0  0  0  0  0  0  0  0  0  0  0
   35.9050   31.4740   38.7690 H   0  0  0  0  0  0  0  0  0  0  0  0
   34.8590   29.4670   39.7980 H   0  0  0  0  0  0  0  0  0  0  0  0
   36.0560   29.3310   37.1770 C   0  0  0  0  0  0  0  0  0  0  0  0
   34.9500   28.4700   36.9780 C   0  0  0  0  0  0  0  0  0  0  0  0
   34.3390   28.4570   35.7300 C   0  0  0  0  0  0  0  0  0  0  0  0
   34.8370   29.2700   34.7650 N   0  0  0  0  0  0  0  0  0  0  0  0
   35.8910   30.0750   34.9880 C   0  0  0  0  0  0  0  0  0  0  0  0
   36.4810   30.0870   36.1980 N   0  0  0  0  0  0  0  0  0  0  0  0
   34.5490   27.8300   37.7210 H   0  0  0  0  0  0  0  0  0  0  0  0
   33.4900   27.8310   35.4880 H   0  0  0  0  0  0  0  0  0  0  0  0
   36.2850   30.8970   33.7980 C   0  0  0  0  0  0  0  0  0  0  0  0
   36.9850   30.1570   32.8720 F   0  0  0  0  0  0  0  0  0  0  0  0
   37.1390   31.9350   34.2190 F   0  0  0  0  0  0  0  0  0  0  0  0
   35.1670   31.5120   33.2760 F   0  0  0  0  0  0  0  0  0  0  0  0
   36.5910   28.8170   40.9290 C   0  0  0  0  0  0  0  0  0  0  0  0
   37.1640   29.5570   41.9490 C   0  0  0  0  0  0  0  0  0  0  0  0
   37.7500   28.9730   43.0530 C   0  0  0  0  0  0  0  0  0  0  0  0
   37.7540   27.6220   43.1220 N   0  0  0  0  0  0  0  0  0  0  0  0
   37.1950   26.8910   42.1260 C   0  0  0  0  0  0  0  0  0  0  0  0
   36.6230   27.4660   41.0480 N   0  0  0  0  0  0  0  0  0  0  0  0
   37.1760   30.6370   41.9220 H   0  0  0  0  0  0  0  0  0  0  0  0
   38.2020   29.5390   43.8610 H   0  0  0  0  0  0  0  0  0  0  0  0
   37.1750   25.4040   42.1570 C   0  0  0  0  0  2  0  0  0  0  0  0
   36.8460   24.8470   40.8010 C   0  0  0  0  0  2  0  0  0  0  0  0
   35.7500   25.0260   40.6570 H   0  0  0  0  0  0  0  0  0  0  0  0
  1  4  1  1  0  0  0
  1  2  1  0  0  0  0
  1  3  1  0  0  0  0
  2  5  1  0  0  0  0
  2  3  1  0  0  0  0
  3  7  1  6  0  0  0
  3 20  1  0  0  0  0
  6  2  1  0  0  0  0
  8  1  1  0  0  0  0
  9  8  1  0  0  0  0
  9 14  1  0  0  0  0
 10  9  2  0  0  0  0
 11 12  2  0  0  0  0
 11 10  1  0  0  0  0
 12 13  1  0  0  0  0
 13  8  2  0  0  0  0
 15 10  1  0  0  0  0
 16 18  1  0  0  0  0
 16 12  1  0  0  0  0
 17 16  1  0  0  0  0
 19 16  1  0  0  0  0
 20 25  2  0  0  0  0
 20 21  1  0  0  0  0
 21 22  2  0  0  0  0
 22 23  1  0  0  0  0
 22 27  1  0  0  0  0
 24 28  1  0  0  0  0
 24 23  2  0  0  0  0
 25 24  1  0  0  0  0
 26 21  1  0  0  0  0
 29 28  1  0  0  0  0
 30 29  1  0  0  0  0
M  END
>  <minimizedAffinity>
-5.05661106

$$$$

 OpenBabel03252505423D

 30 32  0  0  1  0  0  0  0  0999 V2000
   38.3260   31.4880   39.4780 C   0  0  1  0  0  0  0  0  0  0  0  0
   38.3570   32.8450   40.2420 C   0  0  0  0  0  0  0  0  0  0  0  0
   39.5660   31.9580   40.0650 C   0  0  2  0  0  0  0  0  0  0  0  0
   38.0920   31.6520   38.3850 H   0  0  0  0  0  0  0  0  0  0  0  0
   38.2990   33.7630   39.6470 H   0  0  0  0  0  0  0  0  0  0  0  0
   37.9380   32.8360   41.2750 H   0  0  0  0  0  0  0  0  0  0  0  0
   40.0210   31.5150   40.9590 H   0  0  0  0  0  0  0  0  0  0  0  0
   37.4650   30.4700   40.1230 C   0  0  0  0  0  0  0  0  0  0  0  0
   36.1570   30.2770   39.6190 C   0  0  0  0  0  0  0  0  0  0  0  0
   35.3530   29.3150   40.2190 C   0  0  0  0  0  0  0  0  0  0  0  0
   35.8650   28.6110   41.2600 N   0  0  0  0  0  0  0  0  0  0  0  0
   37.1130   28.8220   41.7140 C   0  0  0  0  0  0  0  0  0  0  0  0
   37.8900   29.7540   41.1310 N   0  0  0  0  0  0  0  0  0  0  0  0
   35.7420   30.8170   38.8070 H   0  0  0  0  0  0  0  0  0  0  0  0
   34.3410   29.0990   39.9010 H   0  0  0  0  0  0  0  0  0  0  0  0
   37.4920   27.9410   42.8660 C   0  0  0  0  0  0  0  0  0  0  0  0
   37.9120   26.6990   42.4470 F   0  0  0  0  0  0  0  0  0  0  0  0
   36.3600   27.7370   43.6790 F   0  0  0  0  0  0  0  0  0  0  0  0
   38.4140   28.5930   43.6570 F   0  0  0  0  0  0  0  0  0  0  0  0
   40.6010   32.3850   39.0600 C   0  0  0  0  0  0  0  0  0  0  0  0
   41.0070   33.7050   38.9710 C   0  0  0  0  0  0  0  0  0  0  0  0
   41.9580   34.1310   38.0680 C   0  0  0  0  0  0  0  0  0  0  0  0
   42.5030   33.2060   37.2450 N   0  0  0  0  0  0  0  0  0  0  0  0
   42.1090   31.9110   37.3250 C   0  0  0  0  0  0  0  0  0  0  0  0
   41.1780   31.4980   38.2100 N   0  0  0  0  0  0  0  0  0  0  0  0
   40.5900   34.4660   39.6150 H   0  0  0  0  0  0  0  0  0  0  0  0
   42.2880   35.1620   37.9860 H   0  0  0  0  0  0  0  0  0  0  0  0
   42.6780   30.8580   36.4430 C   0  0  0  0  0  2  0  0  0  0  0  0
   41.9990   29.5390   36.6780 C   0  0  0  0  0  2  0  0  0  0  0  0
   42.3920   29.1660   37.6580 H   0  0  0  0  0  0  0  0  0  0  0  0
  1  4  1  6  0  0  0
  1  3  1  0  0  0  0
  1  8  1  0  0  0  0
  1  2  1  0  0  0  0
  2  6  1  0  0  0  0
  3  2  1  0  0  0  0
  3  7  1  1  0  0  0
  5  2  1  0  0  0  0
  8 13  1  0  0  0  0
  9  8  2  0  0  0  0
  9 10  1  0  0  0  0
 10 11  2  0  0  0  0
 11 12  1  0  0  0  0
 12 16  1  0  0  0  0
 13 12  2  0  0  0  0
 14  9  1  0  0  0  0
 15 10  1  0  0  0  0
 16 19  1  0  0  0  0
 16 18  1  0  0  0  0
 17 16  1  0  0  0  0
 20  3  1  0  0  0  0
 21 20  1  0  0  0  0
 21 26  1  0  0  0  0
 22 21  2  0  0  0  0
 23 24  2  0  0  0  0
 23 22  1  0  0  0  0
 24 25  1  0  0  0  0
 25 20  2  0  0  0  0
 27 22  1  0  0  0  0
 28 29  1  0  0  0  0
 28 24  1  0  0  0  0
 29 30  1  0  0  0  0
M  END
>  <minimizedAffinity>
-5.01077652

$$$$

 OpenBabel03252505423D

 30 32  0  0  1  0  0  0  0  0999 V2000
   36.4920   28.6360   37.8960 C   0  0  1  0  0  0  0  0  0  0  0  0
   35.4150   29.3540   38.7620 C   0  0  0  0  0  0  0  0  0  0  0  0
   35.6330   27.8600   38.7690 C   0  0  2  0  0  0  0  0  0  0  0  0
   37.5300   28.9470   38.2150 H   0  0  0  0  0  0  0  0  0  0  0  0
   35.7610   29.9300   39.6260 H   0  0  0  0  0  0  0  0  0  0  0  0
   34.4890   29.6730   38.2290 H   0  0  0  0  0  0  0  0  0  0  0  0
   34.8230   27.2150   38.4070 H   0  0  0  0  0  0  0  0  0  0  0  0
   36.2560   28.7640   36.4390 C   0  0  0  0  0  0  0  0  0  0  0  0
   35.8140   27.6240   35.7260 C   0  0  0  0  0  0  0  0  0  0  0  0
   35.5840   27.7470   34.3600 C   0  0  0  0  0  0  0  0  0  0  0  0
   35.7950   28.9560   33.7820 N   0  0  0  0  0  0  0  0  0  0  0  0
   36.2160   30.0190   34.4910 C   0  0  0  0  0  0  0  0  0  0  0  0
   36.4380   29.8970   35.8130 N   0  0  0  0  0  0  0  0  0  0  0  0
   35.6440   26.6730   36.1620 H   0  0  0  0  0  0  0  0  0  0  0  0
   35.2460   26.9300   33.7360 H   0  0  0  0  0  0  0  0  0  0  0  0
   36.3850   31.2620   33.6710 C   0  0  0  0  0  0  0  0  0  0  0  0
   37.1440   31.0350   32.5450 F   0  0  0  0  0  0  0  0  0  0  0  0
   37.0690   32.2270   34.4360 F   0  0  0  0  0  0  0  0  0  0  0  0
   35.1470   31.8020   33.3970 F   0  0  0  0  0  0  0  0  0  0  0  0
   36.3380   27.2660   39.9580 C   0  0  0  0  0  0  0  0  0  0  0  0
   36.8550   25.9830   39.9120 C   0  0  0  0  0  0  0  0  0  0  0  0
   37.5130   25.4080   40.9780 C   0  0  0  0  0  0  0  0  0  0  0  0
   37.6490   26.1450   42.1050 N   0  0  0  0  0  0  0  0  0  0  0  0
   37.1450   27.4020   42.1570 C   0  0  0  0  0  0  0  0  0  0  0  0
   36.5010   27.9610   41.1110 N   0  0  0  0  0  0  0  0  0  0  0  0
   36.7620   25.3710   39.0260 H   0  0  0  0  0  0  0  0  0  0  0  0
   37.9240   24.4030   40.9580 H   0  0  0  0  0  0  0  0  0  0  0  0
   37.2690   28.2510   43.3720 C   0  0  0  0  0  2  0  0  0  0  0  0
   38.2330   29.3790   43.1400 C   0  0  0  0  0  2  0  0  0  0  0  0
   39.2520   28.9160   43.1550 H   0  0  0  0  0  0  0  0  0  0  0  0
  1  4  1  1  0  0  0
  1  2  1  0  0  0  0
  1  3  1  0  0  0  0
  2  3  1  0  0  0  0
  2  5  1  0  0  0  0
  3  7  1  6  0  0  0
  3 20  1  0  0  0  0
  6  2  1  0  0  0  0
  8  1  1  0  0  0  0
  9 14  1  0  0  0  0
  9  8  2  0  0  0  0
 10  9  1  0  0  0  0
 11 10  2  0  0  0  0
 11 12  1  0  0  0  0
 12 13  2  0  0  0  0
 13  8  1  0  0  0  0
 15 10  1  0  0  0  0
 16 18  1  0  0  0  0
 16 12  1  0  0  0  0
 17 16  1  0  0  0  0
 19 16  1  0  0  0  0
 20 25  1  0  0  0  0
 21 20  2  0  0  0  0
 21 22  1  0  0  0  0
 22 23  2  0  0  0  0
 23 24  1  0  0  0  0
 24 28  1  0  0  0  0
 25 24  2  0  0  0  0
 26 21  1  0  0  0  0
 27 22  1  0  0  0  0
 29 30  1  0  0  0  0
 29 28  1  0  0  0  0
M  END
>  <minimizedAffinity>
-5.00495625

$$$$

 OpenBabel03252505423D

 30 32  0  0  1  0  0  0  0  0999 V2000
   35.0150   28.4880   37.9820 C   0  0  1  0  0  0  0  0  0  0  0  0
   35.9940   29.6500   38.3280 C   0  0  0  0  0  0  0  0  0  0  0  0
   35.3420   28.7680   39.3670 C   0  0  2  0  0  0  0  0  0  0  0  0
   35.5480   27.6780   37.4030 H   0  0  0  0  0  0  0  0  0  0  0  0
   37.0570   29.4970   38.1160 H   0  0  0  0  0  0  0  0  0  0  0  0
   35.5700   30.6800   38.2800 H   0  0  0  0  0  0  0  0  0  0  0  0
   34.6420   29.2290   40.0740 H   0  0  0  0  0  0  0  0  0  0  0  0
   33.7610   28.9480   37.3420 C   0  0  0  0  0  0  0  0  0  0  0  0
   33.6990   28.9830   35.9280 C   0  0  0  0  0  0  0  0  0  0  0  0
   32.5180   29.4060   35.3290 C   0  0  0  0  0  0  0  0  0  0  0  0
   31.4860   29.7660   36.1320 N   0  0  0  0  0  0  0  0  0  0  0  0
   31.5800   29.7220   37.4730 C   0  0  0  0  0  0  0  0  0  0  0  0
   32.7240   29.3110   38.0510 N   0  0  0  0  0  0  0  0  0  0  0  0
   34.4960   28.7050   35.2870 H   0  0  0  0  0  0  0  0  0  0  0  0
   32.3810   29.4640   34.2570 H   0  0  0  0  0  0  0  0  0  0  0  0
   30.3310   30.1550   38.1790 C   0  0  0  0  0  0  0  0  0  0  0  0
   30.1640   31.5200   38.1370 F   0  0  0  0  0  0  0  0  0  0  0  0
   30.4250   29.7970   39.5380 F   0  0  0  0  0  0  0  0  0  0  0  0
   29.2540   29.4560   37.6760 F   0  0  0  0  0  0  0  0  0  0  0  0
   36.1960   27.7170   40.0220 C   0  0  0  0  0  0  0  0  0  0  0  0
   36.5150   26.5440   39.3620 C   0  0  0  0  0  0  0  0  0  0  0  0
   37.3000   25.5620   39.9290 C   0  0  0  0  0  0  0  0  0  0  0  0
   37.7680   25.7750   41.1800 N   0  0  0  0  0  0  0  0  0  0  0  0
   37.4600   26.9220   41.8330 C   0  0  0  0  0  0  0  0  0  0  0  0
   36.6910   27.8800   41.2750 N   0  0  0  0  0  0  0  0  0  0  0  0
   36.1560   26.3450   38.3620 H   0  0  0  0  0  0  0  0  0  0  0  0
   37.5590   24.6360   39.4240 H   0  0  0  0  0  0  0  0  0  0  0  0
   37.9500   27.2020   43.2090 C   0  0  0  0  0  2  0  0  0  0  0  0
   37.6820   28.6300   43.5910 C   0  0  0  0  0  2  0  0  0  0  0  0
   38.4270   29.2410   43.0210 H   0  0  0  0  0  0  0  0  0  0  0  0
  1  4  1  6  0  0  0
  1  2  1  0  0  0  0
  1  3  1  0  0  0  0
  2  3  1  0  0  0  0
  3 20  1  0  0  0  0
  3  7  1  1  0  0  0
  5  2  1  0  0  0  0
  6  2  1  0  0  0  0
  8  1  1  0  0  0  0
  8 13  1  0  0  0  0
  9  8  2  0  0  0  0
 10  9  1  0  0  0  0
 10 11  2  0  0  0  0
 11 12  1  0  0  0  0
 12 13  2  0  0  0  0
 12 16  1  0  0  0  0
 14  9  1  0  0  0  0
 15 10  1  0  0  0  0
 16 18  1  0  0  0  0
 17 16  1  0  0  0  0
 19 16  1  0  0  0  0
 20 25  1  0  0  0  0
 21 22  1  0  0  0  0
 21 20  2  0  0  0  0
 22 23  2  0  0  0  0
 23 24  1  0  0  0  0
 24 28  1  0  0  0  0
 25 24  2  0  0  0  0
 26 21  1  0  0  0  0
 27 22  1  0  0  0  0
 28 29  1  0  0  0  0
 30 29  1  0  0  0  0
M  END
>  <minimizedAffinity>
-4.90869522

$$$$
