
 OpenBabel03252509333D

 34 35  0  0  1  0  0  0  0  0999 V2000
   44.6860   35.1560   45.1520 O   0  0  0  0  0  0  0  0  0  0  0  0
   45.5050   34.1160   44.4510 P   0  0  2  0  0  0  0  0  0  0  0  0
   44.5690   32.8540   43.8670 O   0  0  0  0  0  0  0  0  0  0  0  0
   44.5110   32.8450   42.8810 H   0  0  0  0  0  0  0  0  0  0  0  0
   46.5920   33.4180   45.5540 O   0  0  0  0  0  0  0  0  0  0  0  0
   46.3970   32.0660   45.5540 C   0  0  0  0  0  0  0  0  0  0  0  0
   45.7430   31.6320   44.8130 H   0  0  0  0  0  0  0  0  0  0  0  0
   47.4180   31.6160   45.3650 H   0  0  0  0  0  0  0  0  0  0  0  0
   45.7090   31.9060   49.2060 C   0  0  0  0  0  0  0  0  0  0  0  0
   46.1030   32.4050   47.9570 C   0  0  0  0  0  0  0  0  0  0  0  0
   45.9910   31.5610   46.8670 C   0  0  0  0  0  0  0  0  0  0  0  0
   45.5080   30.2950   47.0650 N   0  0  0  0  0  0  0  0  0  0  0  0
   45.1380   29.8490   48.2860 C   0  0  0  0  0  0  0  0  0  0  0  0
   45.2440   30.6610   49.3390 N   0  0  0  0  0  0  0  0  0  0  0  0
   45.7710   32.5160   50.1000 H   0  0  0  0  0  0  0  0  0  0  0  0
   46.4730   33.4310   47.9220 H   0  0  0  0  0  0  0  0  0  0  0  0
   44.7890   28.8250   48.2040 H   0  0  0  0  0  0  0  0  0  0  0  0
   46.4120   34.8390   43.2310 O   0  0  0  0  0  0  0  0  0  0  0  0
   46.5280   33.9670   42.1620 C   0  0  1  0  0  0  0  0  0  0  0  0
   45.7770   34.4000   40.9320 C   0  0  0  0  0  0  0  0  0  0  0  0
   46.3670   33.4870   39.8770 C   0  0  0  0  0  0  0  0  0  0  0  0
   47.7690   33.1620   40.3460 C   0  0  0  0  0  0  0  0  0  0  0  0
   47.9600   33.9410   41.6320 C   0  0  1  0  0  0  0  0  0  0  0  0
   46.2880   32.9180   42.4290 H   0  0  0  0  0  0  0  0  0  0  0  0
   45.9470   35.4570   40.7270 H   0  0  0  0  0  0  0  0  0  0  0  0
   44.6810   34.1550   41.0370 H   0  0  0  0  0  0  0  0  0  0  0  0
   46.3980   33.9870   38.8950 H   0  0  0  0  0  0  0  0  0  0  0  0
   45.7620   32.5630   39.7240 H   0  0  0  0  0  0  0  0  0  0  0  0
   47.8670   32.0700   40.5070 H   0  0  0  0  0  0  0  0  0  0  0  0
   48.5180   33.4590   39.5620 H   0  0  0  0  0  0  0  0  0  0  0  0
   48.6120   33.3900   42.3170 H   0  0  0  0  0  0  0  0  0  0  0  0
   48.5300   35.3080   41.3920 C   0  0  0  0  0  2  0  0  0  0  0  0
   49.7550   35.4530   42.2930 C   0  0  0  0  0  2  0  0  0  0  0  0
   49.6710   36.3360   42.9680 H   0  0  0  0  0  0  0  0  0  0  0  0
  2  1  2  1  0  0  0
  2  5  1  0  0  0  0
  3  2  1  0  0  0  0
  4  3  1  0  0  0  0
  6  5  1  0  0  0  0
  6 11  1  0  0  0  0
  7  6  1  0  0  0  0
  8  6  1  0  0  0  0
  9 14  1  0  0  0  0
  9 15  1  0  0  0  0
 10  9  2  0  0  0  0
 11 12  2  0  0  0  0
 11 10  1  0  0  0  0
 12 13  1  0  0  0  0
 13 14  2  0  0  0  0
 16 10  1  0  0  0  0
 17 13  1  0  0  0  0
 18  2  1  0  0  0  0
 19 24  1  1  0  0  0
 19 18  1  0  0  0  0
 20 26  1  0  0  0  0
 20 19  1  0  0  0  0
 21 22  1  0  0  0  0
 21 20  1  0  0  0  0
 22 29  1  0  0  0  0
 22 23  1  0  0  0  0
 23 19  1  0  0  0  0
 23 31  1  1  0  0  0
 25 20  1  0  0  0  0
 27 21  1  0  0  0  0
 28 21  1  0  0  0  0
 30 22  1  0  0  0  0
 32 23  1  0  0  0  0
 32 33  1  0  0  0  0
 33 34  1  0  0  0  0
M  END
>  <minimizedAffinity>
-5.09827709

>  <minimizedRMSD>
0.926701486

$$$$
