
     RDKit          3D

 27 28  0  0  0  0  0  0  0  0999 V2000
   42.0969   31.9332   41.7043 Cl  0  0  0  0  0  0  0  0  0  0  0  0
   41.2668   33.3607   41.1100 C   0  0  0  0  0  0  0  0  0  0  0  0
   42.0867   34.4253   40.8471 C   0  0  0  0  0  0  0  0  0  0  0  0
   41.4625   35.5915   40.3684 C   0  0  0  0  0  0  0  0  0  0  0  0
   40.0856   35.6197   40.1861 C   0  0  0  0  0  0  0  0  0  0  0  0
   39.2729   34.5391   40.4553 C   0  0  0  0  0  0  0  0  0  0  0  0
   39.9049   33.3844   40.9311 C   0  0  0  0  0  0  0  0  0  0  0  0
   38.9776   31.9428   41.3100 Cl  0  0  0  0  0  0  0  0  0  0  0  0
   43.8281   34.5377   41.0268 S   0  0  0  0  0  0  0  0  0  0  0  0
   44.3609   34.6216   42.7288 C   0  0  0  0  0  0  0  0  0  0  0  0
   45.0237   33.4934   43.2147 C   0  0  0  0  0  0  0  0  0  0  0  0
   45.4709   33.4896   44.5449 C   0  0  0  0  0  0  0  0  0  0  0  0
   45.2323   34.5895   45.2880 N   0  0  0  0  0  0  0  0  0  0  0  0
   44.5900   35.6735   44.8048 C   0  0  0  0  0  0  0  0  0  0  0  0
   44.1431   35.7069   43.5146 N   0  0  0  0  0  0  0  0  0  0  0  0
   42.0095   36.4913   40.1279 H   0  0  0  0  0  0  0  0  0  0  0  0
   39.5997   36.5246   39.8144 H   0  0  0  0  0  0  0  0  0  0  0  0
   38.2102   34.5530   40.3173 H   0  0  0  0  0  0  0  0  0  0  0  0
   45.1963   32.6263   42.5823 H   0  0  0  0  0  0  0  0  0  0  0  0
   45.9816   32.6107   44.9066 H   0  0  0  0  0  0  0  0  0  0  0  0
   44.3444   36.8636   45.6466 C   0  0  0  0  0  0  0  0  0  0  0  0
   45.5749   37.5179   46.1799 C   0  0  0  0  0  0  0  0  0  0  0  0
   45.4538   37.7945   47.2678 H   0  0  0  0  0  0  0  0  0  0  0  0
   43.6757   36.6205   46.5195 H   0  0  0  0  0  0  0  0  0  0  0  0
   43.7656   37.6628   45.1046 H   0  0  0  0  0  0  0  0  0  0  0  0
   45.7845   38.5108   45.6906 H   0  0  0  0  0  0  0  0  0  0  0  0
   46.4962   36.9183   46.1259 H   0  0  0  0  0  0  0  0  0  0  0  0
  2  1  1  0
  3  9  1  0
  3  2  2  0
  4  3  1  0
  5  4  2  0
  5  6  1  0
  6  7  2  0
  7  2  1  0
  7  8  1  0
  9 10  1  0
 10 11  2  0
 10 15  1  0
 11 12  1  0
 12 13  2  0
 14 13  1  0
 15 14  2  0
  4 16  1  0
  5 17  1  0
  6 18  1  0
 11 19  1  0
 12 20  1  0
 21 22  1  0
 22 23  1  0
 21 24  1  0
 21 25  1  0
 22 26  1  0
 22 27  1  0
 14 21  1  0
M  ISO  6  16  14  17  14  18  14  19  14  20  14  23   8
M  END
>  <DihAtoms>  (1) 
12,13,20,21

>  <DihDeg>  (1) 
-89.99997905906513

$$$$
