
 OpenBabel03242513103D

 35 38  0  0  0  0  0  0  0  0999 V2000
   38.5950   27.7480   40.3150 C   0  0  0  0  0  0  0  0  0  0  0  0
   38.1930   27.2900   41.5640 C   0  0  0  0  0  0  0  0  0  0  0  0
   37.8000   28.2450   42.4900 C   0  0  0  0  0  0  0  0  0  0  0  0
   37.8380   29.5520   42.1070 N   0  0  0  0  0  0  0  0  0  0  0  0
   38.2230   29.9790   40.9120 C   0  0  0  0  0  0  0  0  0  0  0  0
   38.6090   29.0670   39.9960 N   0  0  0  0  0  0  0  0  0  0  0  0
   38.9040   27.0130   39.5830 H   0  0  0  0  0  0  0  0  0  0  0  0
   37.1850   31.9690   39.9500 C   0  0  0  0  0  0  0  0  0  0  0  0
   38.2260   31.3900   40.6080 C   0  0  0  0  0  0  0  0  0  0  0  0
   39.3560   32.1230   41.0250 C   0  0  0  0  0  0  0  0  0  0  0  0
   39.4330   33.4880   40.7670 C   0  0  0  0  0  0  0  0  0  0  0  0
   40.3280   34.4790   41.0080 N   0  0  0  0  0  0  0  0  0  0  0  0
   39.8000   35.6410   40.4860 C   0  0  0  0  0  0  0  0  0  0  0  0
   38.6130   35.3360   39.9450 N   0  0  0  0  0  0  0  0  0  0  0  0
   38.3600   34.0270   40.1020 C   0  0  0  0  0  0  0  0  0  0  0  0
   37.2420   33.3350   39.6810 C   0  0  0  0  0  0  0  0  0  0  0  0
   36.3160   31.4370   39.6230 H   0  0  0  0  0  0  0  0  0  0  0  0
   40.1900   31.6660   41.5520 H   0  0  0  0  0  0  0  0  0  0  0  0
   41.2110   34.2200   41.5160 H   0  0  0  0  0  0  0  0  0  0  0  0
   40.4630   36.4850   40.6390 H   0  0  0  0  0  0  0  0  0  0  0  0
   36.4230   33.8180   39.1590 H   0  0  0  0  0  0  0  0  0  0  0  0
   37.3620   27.8170   43.8380 C   0  0  0  0  0  0  0  0  0  0  0  0
   37.0620   28.9460   44.6340 F   0  0  0  0  0  0  0  0  0  0  0  0
   36.1940   27.0940   43.7540 F   0  0  0  0  0  0  0  0  0  0  0  0
   38.3630   27.1010   44.4080 F   0  0  0  0  0  0  0  0  0  0  0  0
   38.2000   25.9710   41.8230 O   0  0  0  0  0  0  0  0  0  0  0  0
   37.5870   25.0450   41.0320 C   0  0  0  0  0  0  0  0  0  0  0  0
   38.4140   23.9130   41.1130 C   0  0  0  0  0  0  0  0  0  0  0  0
   37.5390   22.6990   40.0230 S   0  0  0  0  0  0  0  0  0  0  0  0
   36.1920   23.9390   39.6410 C   0  0  0  0  0  0  0  0  0  0  0  0
   36.5610   24.7920   40.2430 N   0  0  0  0  0  0  0  0  0  0  0  0
   39.3290   23.4700   41.5400 H   0  0  0  0  0  0  0  0  0  0  0  0
   35.0660   23.5800   38.7400 C   0  0  0  0  0  2  0  0  0  0  0  0
   34.0880   22.7590   39.5150 C   0  0  0  0  0  2  0  0  0  0  0  0
   33.8530   23.1810   40.5020 H   0  0  0  0  0  0  0  0  0  0  0  0
  1  2  1  0  0  0  0
  2 26  1  0  0  0  0
  2  3  2  0  0  0  0
  3 22  1  0  0  0  0
  4  3  1  0  0  0  0
  5  4  2  0  0  0  0
  6  1  2  0  0  0  0
  6  5  1  0  0  0  0
  7  1  1  0  0  0  0
  8  9  1  0  0  0  0
  9  5  1  0  0  0  0
  9 10  2  0  0  0  0
 10 18  1  0  0  0  0
 11 12  1  0  0  0  0
 11 10  1  0  0  0  0
 12 19  1  0  0  0  0
 13 20  1  0  0  0  0
 13 12  1  0  0  0  0
 14 15  1  0  0  0  0
 14 13  2  0  0  0  0
 15 11  2  0  0  0  0
 16  8  2  0  0  0  0
 16 15  1  0  0  0  0
 17  8  1  0  0  0  0
 21 16  1  0  0  0  0
 22 25  1  0  0  0  0
 22 23  1  0  0  0  0
 24 22  1  0  0  0  0
 27 28  2  0  0  0  0
 27 26  1  0  0  0  0
 28 32  1  0  0  0  0
 29 28  1  0  0  0  0
 30 29  1  0  0  0  0
 30 31  2  0  0  0  0
 31 27  1  0  0  0  0
 33 34  1  0  0  0  0
 33 30  1  0  0  0  0
 34 35  1  0  0  0  0
M  END
>  <minimizedAffinity>
-6.85082817

$$$$

 OpenBabel03242513103D

 35 38  0  0  0  0  0  0  0  0999 V2000
   37.2160   27.9700   39.8810 C   0  0  0  0  0  0  0  0  0  0  0  0
   37.1300   27.4550   41.1700 C   0  0  0  0  0  0  0  0  0  0  0  0
   37.3030   28.3480   42.2170 C   0  0  0  0  0  0  0  0  0  0  0  0
   37.5400   29.6530   41.9050 N   0  0  0  0  0  0  0  0  0  0  0  0
   37.6190   30.1340   40.6720 C   0  0  0  0  0  0  0  0  0  0  0  0
   37.4550   29.2820   39.6380 N   0  0  0  0  0  0  0  0  0  0  0  0
   37.0830   27.2830   39.0540 H   0  0  0  0  0  0  0  0  0  0  0  0
   36.9830   32.3180   39.7840 C   0  0  0  0  0  0  0  0  0  0  0  0
   37.8760   31.5370   40.4510 C   0  0  0  0  0  0  0  0  0  0  0  0
   39.0910   32.0430   40.9580 C   0  0  0  0  0  0  0  0  0  0  0  0
   39.4100   33.3860   40.7830 C   0  0  0  0  0  0  0  0  0  0  0  0
   40.4460   34.1950   41.1190 N   0  0  0  0  0  0  0  0  0  0  0  0
   40.1490   35.4550   40.6430 C   0  0  0  0  0  0  0  0  0  0  0  0
   38.9570   35.3860   40.0360 N   0  0  0  0  0  0  0  0  0  0  0  0
   38.4800   34.1340   40.1050 C   0  0  0  0  0  0  0  0  0  0  0  0
   37.2840   33.6660   39.5980 C   0  0  0  0  0  0  0  0  0  0  0  0
   36.0550   31.9600   39.3900 H   0  0  0  0  0  0  0  0  0  0  0  0
   39.8080   31.4240   41.4920 H   0  0  0  0  0  0  0  0  0  0  0  0
   41.2450   33.7640   41.6470 H   0  0  0  0  0  0  0  0  0  0  0  0
   40.9370   36.1650   40.8730 H   0  0  0  0  0  0  0  0  0  0  0  0
   36.5860   34.3070   39.0710 H   0  0  0  0  0  0  0  0  0  0  0  0
   37.2240   27.8590   43.6120 C   0  0  0  0  0  0  0  0  0  0  0  0
   37.2520   28.9480   44.5130 F   0  0  0  0  0  0  0  0  0  0  0  0
   36.0230   27.2220   43.8280 F   0  0  0  0  0  0  0  0  0  0  0  0
   38.2810   27.0410   43.8420 F   0  0  0  0  0  0  0  0  0  0  0  0
   36.8910   26.1460   41.3490 O   0  0  0  0  0  0  0  0  0  0  0  0
   37.6160   25.1580   40.7480 C   0  0  0  0  0  0  0  0  0  0  0  0
   37.0120   23.9680   41.1820 C   0  0  0  0  0  0  0  0  0  0  0  0
   38.0330   22.6720   40.3420 S   0  0  0  0  0  0  0  0  0  0  0  0
   39.1110   23.9730   39.5400 C   0  0  0  0  0  0  0  0  0  0  0  0
   38.6260   24.8800   39.9480 N   0  0  0  0  0  0  0  0  0  0  0  0
   36.2150   23.5070   41.7900 H   0  0  0  0  0  0  0  0  0  0  0  0
   40.2350   23.5810   38.6490 C   0  0  0  0  0  2  0  0  0  0  0  0
   39.9770   22.1970   38.1500 C   0  0  0  0  0  2  0  0  0  0  0  0
   38.9490   22.0490   37.7910 H   0  0  0  0  0  0  0  0  0  0  0  0
  1  2  1  0  0  0  0
  2 26  1  0  0  0  0
  2  3  2  0  0  0  0
  3 22  1  0  0  0  0
  4  3  1  0  0  0  0
  5  4  2  0  0  0  0
  6  1  2  0  0  0  0
  6  5  1  0  0  0  0
  7  1  1  0  0  0  0
  8  9  1  0  0  0  0
  9  5  1  0  0  0  0
  9 10  2  0  0  0  0
 10 18  1  0  0  0  0
 11 10  1  0  0  0  0
 11 12  1  0  0  0  0
 12 19  1  0  0  0  0
 13 20  1  0  0  0  0
 13 12  1  0  0  0  0
 14 15  1  0  0  0  0
 14 13  2  0  0  0  0
 15 11  2  0  0  0  0
 16  8  2  0  0  0  0
 16 15  1  0  0  0  0
 17  8  1  0  0  0  0
 21 16  1  0  0  0  0
 22 24  1  0  0  0  0
 22 25  1  0  0  0  0
 22 23  1  0  0  0  0
 27 28  2  0  0  0  0
 27 26  1  0  0  0  0
 28 32  1  0  0  0  0
 29 28  1  0  0  0  0
 30 31  2  0  0  0  0
 30 29  1  0  0  0  0
 31 27  1  0  0  0  0
 33 30  1  0  0  0  0
 34 33  1  0  0  0  0
 35 34  1  0  0  0  0
M  END
>  <minimizedAffinity>
-6.73025846

$$$$

 OpenBabel03242513103D

 35 38  0  0  0  0  0  0  0  0999 V2000
   39.2690   27.2920   40.2420 C   0  0  0  0  0  0  0  0  0  0  0  0
   38.6810   26.9860   41.4640 C   0  0  0  0  0  0  0  0  0  0  0  0
   38.3790   28.0490   42.3020 C   0  0  0  0  0  0  0  0  0  0  0  0
   38.6780   29.3040   41.8660 N   0  0  0  0  0  0  0  0  0  0  0  0
   39.2390   29.5860   40.6990 C   0  0  0  0  0  0  0  0  0  0  0  0
   39.5420   28.5670   39.8680 N   0  0  0  0  0  0  0  0  0  0  0  0
   39.5110   26.4710   39.5790 H   0  0  0  0  0  0  0  0  0  0  0  0
   40.3010   31.2510   39.2630 C   0  0  0  0  0  0  0  0  0  0  0  0
   39.5150   30.9550   40.3330 C   0  0  0  0  0  0  0  0  0  0  0  0
   38.9320   31.9530   41.1410 C   0  0  0  0  0  0  0  0  0  0  0  0
   39.1530   33.2970   40.8530 C   0  0  0  0  0  0  0  0  0  0  0  0
   38.7730   34.4850   41.3850 N   0  0  0  0  0  0  0  0  0  0  0  0
   39.3440   35.4770   40.6160 C   0  0  0  0  0  0  0  0  0  0  0  0
   40.0490   34.8800   39.6460 N   0  0  0  0  0  0  0  0  0  0  0  0
   39.9520   33.5460   39.7650 C   0  0  0  0  0  0  0  0  0  0  0  0
   40.5360   32.5910   38.9570 C   0  0  0  0  0  0  0  0  0  0  0  0
   40.7550   30.5140   38.6330 H   0  0  0  0  0  0  0  0  0  0  0  0
   38.3030   31.7230   41.9970 H   0  0  0  0  0  0  0  0  0  0  0  0
   38.1530   34.4600   42.2330 H   0  0  0  0  0  0  0  0  0  0  0  0
   39.0850   36.4650   40.9820 H   0  0  0  0  0  0  0  0  0  0  0  0
   41.1580   32.8500   38.1070 H   0  0  0  0  0  0  0  0  0  0  0  0
   37.7520   27.7850   43.6170 C   0  0  0  0  0  0  0  0  0  0  0  0
   36.5770   27.0160   43.4530 F   0  0  0  0  0  0  0  0  0  0  0  0
   38.5910   27.0290   44.4030 F   0  0  0  0  0  0  0  0  0  0  0  0
   37.4490   28.9740   44.1950 F   0  0  0  0  0  0  0  0  0  0  0  0
   38.4350   25.7040   41.7820 O   0  0  0  0  0  0  0  0  0  0  0  0
   37.7130   24.8570   40.9920 C   0  0  0  0  0  0  0  0  0  0  0  0
   38.4270   23.6500   41.0290 C   0  0  0  0  0  0  0  0  0  0  0  0
   37.4080   22.5490   39.9440 S   0  0  0  0  0  0  0  0  0  0  0  0
   36.1790   23.9210   39.6240 C   0  0  0  0  0  0  0  0  0  0  0  0
   36.6460   24.7210   40.2300 N   0  0  0  0  0  0  0  0  0  0  0  0
   39.3070   23.1110   41.4200 H   0  0  0  0  0  0  0  0  0  0  0  0
   34.9990   23.6920   38.7500 C   0  0  0  0  0  2  0  0  0  0  0  0
   34.3050   22.4530   39.2140 C   0  0  0  0  0  2  0  0  0  0  0  0
   34.1630   22.4160   40.3040 H   0  0  0  0  0  0  0  0  0  0  0  0
  1  2  1  0  0  0  0
  2 26  1  0  0  0  0
  2  3  2  0  0  0  0
  3 22  1  0  0  0  0
  4  3  1  0  0  0  0
  5  4  2  0  0  0  0
  6  1  2  0  0  0  0
  6  5  1  0  0  0  0
  7  1  1  0  0  0  0
  8  9  1  0  0  0  0
  9  5  1  0  0  0  0
  9 10  2  0  0  0  0
 10 18  1  0  0  0  0
 11 10  1  0  0  0  0
 11 12  1  0  0  0  0
 12 19  1  0  0  0  0
 13 20  1  0  0  0  0
 13 12  1  0  0  0  0
 14 15  1  0  0  0  0
 14 13  2  0  0  0  0
 15 11  2  0  0  0  0
 16  8  2  0  0  0  0
 16 15  1  0  0  0  0
 17  8  1  0  0  0  0
 21 16  1  0  0  0  0
 22 25  1  0  0  0  0
 22 24  1  0  0  0  0
 23 22  1  0  0  0  0
 27 28  2  0  0  0  0
 27 26  1  0  0  0  0
 28 32  1  0  0  0  0
 29 28  1  0  0  0  0
 30 29  1  0  0  0  0
 30 31  2  0  0  0  0
 31 27  1  0  0  0  0
 33 34  1  0  0  0  0
 33 30  1  0  0  0  0
 34 35  1  0  0  0  0
M  END
>  <minimizedAffinity>
-6.32725668

$$$$

 OpenBabel03242513103D

 35 38  0  0  0  0  0  0  0  0999 V2000
   36.5670   28.2310   40.0400 C   0  0  0  0  0  0  0  0  0  0  0  0
   37.0510   28.5720   41.2990 C   0  0  0  0  0  0  0  0  0  0  0  0
   37.4470   27.5300   42.1240 C   0  0  0  0  0  0  0  0  0  0  0  0
   37.3350   26.2610   41.6420 N   0  0  0  0  0  0  0  0  0  0  0  0
   36.8740   25.9470   40.4400 C   0  0  0  0  0  0  0  0  0  0  0  0
   36.4820   26.9450   39.6200 N   0  0  0  0  0  0  0  0  0  0  0  0
   36.2540   29.0350   39.3860 H   0  0  0  0  0  0  0  0  0  0  0  0
   35.8830   24.1600   39.1010 C   0  0  0  0  0  0  0  0  0  0  0  0
   36.7960   24.5660   40.0260 C   0  0  0  0  0  0  0  0  0  0  0  0
   37.7060   23.6740   40.6290 C   0  0  0  0  0  0  0  0  0  0  0  0
   37.6920   22.3270   40.2830 C   0  0  0  0  0  0  0  0  0  0  0  0
   38.3890   21.2190   40.6400 N   0  0  0  0  0  0  0  0  0  0  0  0
   37.8760   20.1640   39.9150 C   0  0  0  0  0  0  0  0  0  0  0  0
   36.8920   20.6450   39.1440 N   0  0  0  0  0  0  0  0  0  0  0  0
   36.7550   21.9650   39.3470 C   0  0  0  0  0  0  0  0  0  0  0  0
   35.8520   22.8150   38.7400 C   0  0  0  0  0  0  0  0  0  0  0  0
   35.1810   24.8150   38.6280 H   0  0  0  0  0  0  0  0  0  0  0  0
   38.4380   23.9930   41.3680 H   0  0  0  0  0  0  0  0  0  0  0  0
   39.1490   21.3350   41.3550 H   0  0  0  0  0  0  0  0  0  0  0  0
   38.3850   19.2350   40.1470 H   0  0  0  0  0  0  0  0  0  0  0  0
   35.1340   22.4690   38.0040 H   0  0  0  0  0  0  0  0  0  0  0  0
   37.9690   27.8300   43.4770 C   0  0  0  0  0  0  0  0  0  0  0  0
   38.8840   28.9070   43.4190 F   0  0  0  0  0  0  0  0  0  0  0  0
   36.9490   28.2460   44.3020 F   0  0  0  0  0  0  0  0  0  0  0  0
   38.5890   26.7220   43.9540 F   0  0  0  0  0  0  0  0  0  0  0  0
   37.1120   29.8640   41.6610 O   0  0  0  0  0  0  0  0  0  0  0  0
   37.7310   30.8260   40.9180 C   0  0  0  0  0  0  0  0  0  0  0  0
   36.6900   31.6720   40.5050 C   0  0  0  0  0  0  0  0  0  0  0  0
   37.5840   32.9470   39.5030 S   0  0  0  0  0  0  0  0  0  0  0  0
   39.2270   32.1120   39.8180 C   0  0  0  0  0  0  0  0  0  0  0  0
   38.8790   31.2670   40.4440 N   0  0  0  0  0  0  0  0  0  0  0  0
   35.6070   31.8800   40.5300 H   0  0  0  0  0  0  0  0  0  0  0  0
   40.4820   32.6690   39.2470 C   0  0  0  0  0  2  0  0  0  0  0  0
   41.6380   32.0470   39.9590 C   0  0  0  0  0  2  0  0  0  0  0  0
   41.5500   30.9560   40.0610 H   0  0  0  0  0  0  0  0  0  0  0  0
  1  2  1  0  0  0  0
  2 26  1  0  0  0  0
  2  3  2  0  0  0  0
  3 22  1  0  0  0  0
  4  3  1  0  0  0  0
  5  4  2  0  0  0  0
  6  1  2  0  0  0  0
  6  5  1  0  0  0  0
  7  1  1  0  0  0  0
  8  9  1  0  0  0  0
  9  5  1  0  0  0  0
  9 10  2  0  0  0  0
 10 18  1  0  0  0  0
 11 10  1  0  0  0  0
 11 12  1  0  0  0  0
 12 19  1  0  0  0  0
 13 20  1  0  0  0  0
 13 12  1  0  0  0  0
 14 15  1  0  0  0  0
 14 13  2  0  0  0  0
 15 11  2  0  0  0  0
 16  8  2  0  0  0  0
 16 15  1  0  0  0  0
 17  8  1  0  0  0  0
 21 16  1  0  0  0  0
 22 25  1  0  0  0  0
 22 24  1  0  0  0  0
 23 22  1  0  0  0  0
 27 26  1  0  0  0  0
 28 32  1  0  0  0  0
 28 27  2  0  0  0  0
 29 30  1  0  0  0  0
 29 28  1  0  0  0  0
 30 31  2  0  0  0  0
 31 27  1  0  0  0  0
 33 30  1  0  0  0  0
 33 34  1  0  0  0  0
 34 35  1  0  0  0  0
M  END
>  <minimizedAffinity>
-5.88993692

$$$$

 OpenBabel03242513103D

 35 38  0  0  0  0  0  0  0  0999 V2000
   39.9640   31.4210   41.8770 C   0  0  0  0  0  0  0  0  0  0  0  0
   39.3580   32.1960   40.8950 C   0  0  0  0  0  0  0  0  0  0  0  0
   38.2860   31.6320   40.2200 C   0  0  0  0  0  0  0  0  0  0  0  0
   37.9100   30.3700   40.5690 N   0  0  0  0  0  0  0  0  0  0  0  0
   38.4940   29.6400   41.5080 C   0  0  0  0  0  0  0  0  0  0  0  0
   39.5400   30.1690   42.1770 N   0  0  0  0  0  0  0  0  0  0  0  0
   40.8030   31.8500   42.4120 H   0  0  0  0  0  0  0  0  0  0  0  0
   37.1110   28.0910   42.7930 C   0  0  0  0  0  0  0  0  0  0  0  0
   38.0160   28.3090   41.8010 C   0  0  0  0  0  0  0  0  0  0  0  0
   38.5370   27.2640   41.0110 C   0  0  0  0  0  0  0  0  0  0  0  0
   38.1250   25.9540   41.2330 C   0  0  0  0  0  0  0  0  0  0  0  0
   38.3980   24.7390   40.6940 N   0  0  0  0  0  0  0  0  0  0  0  0
   37.6440   23.8100   41.3790 C   0  0  0  0  0  0  0  0  0  0  0  0
   36.9390   24.4700   42.3080 N   0  0  0  0  0  0  0  0  0  0  0  0
   37.2120   25.7820   42.2430 C   0  0  0  0  0  0  0  0  0  0  0  0
   36.6850   26.7860   43.0330 C   0  0  0  0  0  0  0  0  0  0  0  0
   36.6990   28.8650   43.4070 H   0  0  0  0  0  0  0  0  0  0  0  0
   39.2600   27.4330   40.2160 H   0  0  0  0  0  0  0  0  0  0  0  0
   39.0870   24.7050   39.9020 H   0  0  0  0  0  0  0  0  0  0  0  0
   37.8090   22.8060   41.0030 H   0  0  0  0  0  0  0  0  0  0  0  0
   35.9630   26.5880   43.8170 H   0  0  0  0  0  0  0  0  0  0  0  0
   37.6010   32.4090   39.1620 C   0  0  0  0  0  0  0  0  0  0  0  0
   37.1820   33.6600   39.6680 F   0  0  0  0  0  0  0  0  0  0  0  0
   38.4730   32.6910   38.1350 F   0  0  0  0  0  0  0  0  0  0  0  0
   36.5270   31.6990   38.7350 F   0  0  0  0  0  0  0  0  0  0  0  0
   39.8220   33.4310   40.6400 O   0  0  0  0  0  0  0  0  0  0  0  0
   41.1500   33.7330   40.5470 C   0  0  0  0  0  0  0  0  0  0  0  0
   41.4960   33.3860   39.2320 C   0  0  0  0  0  0  0  0  0  0  0  0
   43.2970   33.8110   39.1680 S   0  0  0  0  0  0  0  0  0  0  0  0
   43.2730   34.3920   40.9450 C   0  0  0  0  0  0  0  0  0  0  0  0
   42.2070   34.2040   41.1780 N   0  0  0  0  0  0  0  0  0  0  0  0
   41.1530   32.9820   38.2650 H   0  0  0  0  0  0  0  0  0  0  0  0
   44.5080   34.9110   41.5890 C   0  0  0  0  0  2  0  0  0  0  0  0
   44.1580   35.3850   42.9610 C   0  0  0  0  0  2  0  0  0  0  0  0
   43.5360   34.6740   43.5220 H   0  0  0  0  0  0  0  0  0  0  0  0
  1  6  1  0  0  0  0
  1  7  1  0  0  0  0
  2  1  2  0  0  0  0
  3  4  2  0  0  0  0
  3  2  1  0  0  0  0
  4  5  1  0  0  0  0
  5  9  1  0  0  0  0
  5  6  2  0  0  0  0
  8 16  1  0  0  0  0
  8 17  1  0  0  0  0
  9  8  2  0  0  0  0
 10 11  2  0  0  0  0
 10  9  1  0  0  0  0
 11 15  1  0  0  0  0
 12 11  1  0  0  0  0
 12 13  1  0  0  0  0
 13 14  2  0  0  0  0
 15 14  1  0  0  0  0
 15 16  2  0  0  0  0
 16 21  1  0  0  0  0
 18 10  1  0  0  0  0
 19 12  1  0  0  0  0
 20 13  1  0  0  0  0
 22 23  1  0  0  0  0
 22  3  1  0  0  0  0
 24 22  1  0  0  0  0
 25 22  1  0  0  0  0
 26  2  1  0  0  0  0
 27 26  1  0  0  0  0
 27 31  1  0  0  0  0
 28 27  2  0  0  0  0
 29 28  1  0  0  0  0
 29 30  1  0  0  0  0
 30 31  2  0  0  0  0
 30 33  1  0  0  0  0
 32 28  1  0  0  0  0
 33 34  1  0  0  0  0
 34 35  1  0  0  0  0
M  END
>  <minimizedAffinity>
-5.83481932

$$$$

 OpenBabel03242513103D

 35 38  0  0  0  0  0  0  0  0999 V2000
   36.4270   27.9200   40.2930 C   0  0  0  0  0  0  0  0  0  0  0  0
   36.9760   28.3680   41.4900 C   0  0  0  0  0  0  0  0  0  0  0  0
   37.5860   27.4210   42.2970 C   0  0  0  0  0  0  0  0  0  0  0  0
   37.6030   26.1310   41.8600 N   0  0  0  0  0  0  0  0  0  0  0  0
   37.0770   25.7130   40.7170 C   0  0  0  0  0  0  0  0  0  0  0  0
   36.4780   26.6190   39.9150 N   0  0  0  0  0  0  0  0  0  0  0  0
   35.9480   28.6500   39.6540 H   0  0  0  0  0  0  0  0  0  0  0  0
   38.2410   23.5670   40.6500 C   0  0  0  0  0  0  0  0  0  0  0  0
   37.1480   24.3190   40.3460 C   0  0  0  0  0  0  0  0  0  0  0  0
   36.0360   23.7920   39.6600 C   0  0  0  0  0  0  0  0  0  0  0  0
   36.0310   22.4570   39.2680 C   0  0  0  0  0  0  0  0  0  0  0  0
   35.1710   21.6330   38.6170 N   0  0  0  0  0  0  0  0  0  0  0  0
   35.7720   20.3940   38.5430 C   0  0  0  0  0  0  0  0  0  0  0  0
   36.9660   20.4880   39.1420 N   0  0  0  0  0  0  0  0  0  0  0  0
   37.1530   21.7380   39.5960 C   0  0  0  0  0  0  0  0  0  0  0  0
   38.2560   22.2280   40.2670 C   0  0  0  0  0  0  0  0  0  0  0  0
   39.0980   23.9420   41.1700 H   0  0  0  0  0  0  0  0  0  0  0  0
   35.1600   24.3880   39.4150 H   0  0  0  0  0  0  0  0  0  0  0  0
   34.2580   22.0410   38.2980 H   0  0  0  0  0  0  0  0  0  0  0  0
   35.1420   19.6750   38.0310 H   0  0  0  0  0  0  0  0  0  0  0  0
   39.1160   21.6090   40.4990 H   0  0  0  0  0  0  0  0  0  0  0  0
   38.1870   27.8380   43.5840 C   0  0  0  0  0  0  0  0  0  0  0  0
   38.8770   26.7540   44.1750 F   0  0  0  0  0  0  0  0  0  0  0  0
   39.1330   28.8160   43.3750 F   0  0  0  0  0  0  0  0  0  0  0  0
   37.1940   28.2580   44.4070 F   0  0  0  0  0  0  0  0  0  0  0  0
   36.8960   29.6700   41.8120 O   0  0  0  0  0  0  0  0  0  0  0  0
   37.5540   30.6560   41.1370 C   0  0  0  0  0  0  0  0  0  0  0  0
   36.5340   31.4840   40.6430 C   0  0  0  0  0  0  0  0  0  0  0  0
   37.4830   32.7920   39.7400 S   0  0  0  0  0  0  0  0  0  0  0  0
   39.1110   31.9890   40.1890 C   0  0  0  0  0  0  0  0  0  0  0  0
   38.7290   31.1290   40.7720 N   0  0  0  0  0  0  0  0  0  0  0  0
   35.4490   31.6670   40.5740 H   0  0  0  0  0  0  0  0  0  0  0  0
   40.3980   32.5820   39.7380 C   0  0  0  0  0  2  0  0  0  0  0  0
   40.4340   34.0100   40.1750 C   0  0  0  0  0  2  0  0  0  0  0  0
   40.1320   34.1530   41.2230 H   0  0  0  0  0  0  0  0  0  0  0  0
  1  2  1  0  0  0  0
  2 26  1  0  0  0  0
  2  3  2  0  0  0  0
  3 22  1  0  0  0  0
  4  3  1  0  0  0  0
  5  4  2  0  0  0  0
  6  1  2  0  0  0  0
  6  5  1  0  0  0  0
  7  1  1  0  0  0  0
  8 17  1  0  0  0  0
  9  8  1  0  0  0  0
  9  5  1  0  0  0  0
 10  9  2  0  0  0  0
 11 15  2  0  0  0  0
 11 10  1  0  0  0  0
 12 11  1  0  0  0  0
 13 12  1  0  0  0  0
 13 14  2  0  0  0  0
 14 15  1  0  0  0  0
 15 16  1  0  0  0  0
 16 21  1  0  0  0  0
 16  8  2  0  0  0  0
 18 10  1  0  0  0  0
 19 12  1  0  0  0  0
 20 13  1  0  0  0  0
 22 23  1  0  0  0  0
 22 25  1  0  0  0  0
 24 22  1  0  0  0  0
 27 26  1  0  0  0  0
 28 27  2  0  0  0  0
 29 30  1  0  0  0  0
 29 28  1  0  0  0  0
 30 31  2  0  0  0  0
 31 27  1  0  0  0  0
 32 28  1  0  0  0  0
 33 34  1  0  0  0  0
 33 30  1  0  0  0  0
 34 35  1  0  0  0  0
M  END
>  <minimizedAffinity>
-5.8334775

$$$$

 OpenBabel03242513103D

 35 38  0  0  0  0  0  0  0  0999 V2000
   37.5630   30.5980   40.8760 C   0  0  0  0  0  0  0  0  0  0  0  0
   37.2110   29.4970   41.6480 C   0  0  0  0  0  0  0  0  0  0  0  0
   38.1440   29.0490   42.5710 C   0  0  0  0  0  0  0  0  0  0  0  0
   39.3280   29.7190   42.6510 N   0  0  0  0  0  0  0  0  0  0  0  0
   39.6550   30.7690   41.9110 C   0  0  0  0  0  0  0  0  0  0  0  0
   38.7610   31.2210   41.0060 N   0  0  0  0  0  0  0  0  0  0  0  0
   36.8440   30.9580   40.1520 H   0  0  0  0  0  0  0  0  0  0  0  0
   41.7950   31.0190   43.0590 C   0  0  0  0  0  0  0  0  0  0  0  0
   40.9390   31.4070   42.0750 C   0  0  0  0  0  0  0  0  0  0  0  0
   41.2490   32.4430   41.1710 C   0  0  0  0  0  0  0  0  0  0  0  0
   42.4680   33.1070   41.2660 C   0  0  0  0  0  0  0  0  0  0  0  0
   43.0870   34.1130   40.5990 N   0  0  0  0  0  0  0  0  0  0  0  0
   44.3120   34.3080   41.2020 C   0  0  0  0  0  0  0  0  0  0  0  0
   44.4100   33.4300   42.2080 N   0  0  0  0  0  0  0  0  0  0  0  0
   43.2980   32.6810   42.2730 C   0  0  0  0  0  0  0  0  0  0  0  0
   43.0210   31.6710   43.1730 C   0  0  0  0  0  0  0  0  0  0  0  0
   41.5850   30.2360   43.7580 H   0  0  0  0  0  0  0  0  0  0  0  0
   40.5690   32.7570   40.3830 H   0  0  0  0  0  0  0  0  0  0  0  0
   42.5730   34.5480   39.7930 H   0  0  0  0  0  0  0  0  0  0  0  0
   44.8710   35.1040   40.7210 H   0  0  0  0  0  0  0  0  0  0  0  0
   43.7200   31.3770   43.9490 H   0  0  0  0  0  0  0  0  0  0  0  0
   37.8270   27.8790   43.4200 C   0  0  0  0  0  0  0  0  0  0  0  0
   37.3680   26.8060   42.6220 F   0  0  0  0  0  0  0  0  0  0  0  0
   38.9630   27.4220   44.0490 F   0  0  0  0  0  0  0  0  0  0  0  0
   36.8660   28.2400   44.3070 F   0  0  0  0  0  0  0  0  0  0  0  0
   36.0100   28.9190   41.4750 O   0  0  0  0  0  0  0  0  0  0  0  0
   35.4500   28.6970   40.2510 C   0  0  0  0  0  0  0  0  0  0  0  0
   36.2110   27.6530   39.7030 C   0  0  0  0  0  0  0  0  0  0  0  0
   35.4110   27.4000   38.0520 S   0  0  0  0  0  0  0  0  0  0  0  0
   34.1730   28.7610   38.3890 C   0  0  0  0  0  0  0  0  0  0  0  0
   34.5100   29.0590   39.4010 N   0  0  0  0  0  0  0  0  0  0  0  0
   37.0510   26.9530   39.8440 H   0  0  0  0  0  0  0  0  0  0  0  0
   33.1420   29.1130   37.3780 C   0  0  0  0  0  2  0  0  0  0  0  0
   33.0520   27.9960   36.3920 C   0  0  0  0  0  2  0  0  0  0  0  0
   33.0050   27.0030   36.8610 H   0  0  0  0  0  0  0  0  0  0  0  0
  1  6  2  0  0  0  0
  1  2  1  0  0  0  0
  2  3  2  0  0  0  0
  3  4  1  0  0  0  0
  3 22  1  0  0  0  0
  5  9  1  0  0  0  0
  5  4  2  0  0  0  0
  6  5  1  0  0  0  0
  7  1  1  0  0  0  0
  8 16  1  0  0  0  0
  8 17  1  0  0  0  0
  9  8  2  0  0  0  0
 10 11  2  0  0  0  0
 10  9  1  0  0  0  0
 11 15  1  0  0  0  0
 12 13  1  0  0  0  0
 12 11  1  0  0  0  0
 13 14  2  0  0  0  0
 14 15  1  0  0  0  0
 15 16  2  0  0  0  0
 16 21  1  0  0  0  0
 18 10  1  0  0  0  0
 19 12  1  0  0  0  0
 20 13  1  0  0  0  0
 22 24  1  0  0  0  0
 22 25  1  0  0  0  0
 23 22  1  0  0  0  0
 26  2  1  0  0  0  0
 27 26  1  0  0  0  0
 28 32  1  0  0  0  0
 28 27  2  0  0  0  0
 29 30  1  0  0  0  0
 29 28  1  0  0  0  0
 30 31  2  0  0  0  0
 31 27  1  0  0  0  0
 33 30  1  0  0  0  0
 34 35  1  0  0  0  0
 34 33  1  0  0  0  0
M  END
>  <minimizedAffinity>
-5.82501793

$$$$

 OpenBabel03242513103D

 35 38  0  0  0  0  0  0  0  0999 V2000
   36.7370   29.5820   37.0690 C   0  0  0  0  0  0  0  0  0  0  0  0
   36.1170   29.0100   38.1740 C   0  0  0  0  0  0  0  0  0  0  0  0
   36.5440   29.4310   39.4240 C   0  0  0  0  0  0  0  0  0  0  0  0
   37.5310   30.3680   39.4750 N   0  0  0  0  0  0  0  0  0  0  0  0
   38.1160   30.9090   38.4150 C   0  0  0  0  0  0  0  0  0  0  0  0
   37.7160   30.5130   37.1880 N   0  0  0  0  0  0  0  0  0  0  0  0
   36.4130   29.2620   36.0870 H   0  0  0  0  0  0  0  0  0  0  0  0
   39.1900   32.7050   39.6740 C   0  0  0  0  0  0  0  0  0  0  0  0
   39.1560   31.8970   38.5790 C   0  0  0  0  0  0  0  0  0  0  0  0
   40.1190   31.9750   37.5530 C   0  0  0  0  0  0  0  0  0  0  0  0
   41.1520   32.9030   37.6390 C   0  0  0  0  0  0  0  0  0  0  0  0
   42.2170   33.2540   36.8740 N   0  0  0  0  0  0  0  0  0  0  0  0
   42.8730   34.2730   37.5320 C   0  0  0  0  0  0  0  0  0  0  0  0
   42.2020   34.5180   38.6660 N   0  0  0  0  0  0  0  0  0  0  0  0
   41.1450   33.6960   38.7590 C   0  0  0  0  0  0  0  0  0  0  0  0
   40.2160   33.6420   39.7790 C   0  0  0  0  0  0  0  0  0  0  0  0
   38.4720   32.6660   40.4670 H   0  0  0  0  0  0  0  0  0  0  0  0
   40.0970   31.3320   36.6770 H   0  0  0  0  0  0  0  0  0  0  0  0
   42.3580   32.7310   35.9740 H   0  0  0  0  0  0  0  0  0  0  0  0
   43.7420   34.6110   36.9790 H   0  0  0  0  0  0  0  0  0  0  0  0
   40.2640   34.2960   40.6440 H   0  0  0  0  0  0  0  0  0  0  0  0
   35.9220   28.8570   40.6390 C   0  0  0  0  0  0  0  0  0  0  0  0
   34.5200   29.0400   40.6030 F   0  0  0  0  0  0  0  0  0  0  0  0
   36.1220   27.4950   40.6800 F   0  0  0  0  0  0  0  0  0  0  0  0
   36.4420   29.4800   41.7250 F   0  0  0  0  0  0  0  0  0  0  0  0
   35.1530   28.0920   37.9950 O   0  0  0  0  0  0  0  0  0  0  0  0
   33.9560   28.3630   37.3990 C   0  0  0  0  0  0  0  0  0  0  0  0
   33.8710   27.4380   36.3460 C   0  0  0  0  0  0  0  0  0  0  0  0
   32.2390   27.8540   35.5780 S   0  0  0  0  0  0  0  0  0  0  0  0
   31.9460   29.2180   36.8230 C   0  0  0  0  0  0  0  0  0  0  0  0
   32.8780   29.1220   37.4130 N   0  0  0  0  0  0  0  0  0  0  0  0
   34.3560   26.6040   35.8120 H   0  0  0  0  0  0  0  0  0  0  0  0
   30.7050   30.0350   36.7740 C   0  0  0  0  0  2  0  0  0  0  0  0
   30.3530   30.4380   38.1680 C   0  0  0  0  0  2  0  0  0  0  0  0
   31.2100   30.8240   38.7390 H   0  0  0  0  0  0  0  0  0  0  0  0
  1  6  2  0  0  0  0
  1  2  1  0  0  0  0
  2  3  2  0  0  0  0
  3  4  1  0  0  0  0
  3 22  1  0  0  0  0
  5  9  1  0  0  0  0
  5  4  2  0  0  0  0
  6  5  1  0  0  0  0
  7  1  1  0  0  0  0
  8 16  1  0  0  0  0
  8 17  1  0  0  0  0
  9  8  2  0  0  0  0
 10 11  2  0  0  0  0
 10  9  1  0  0  0  0
 11 15  1  0  0  0  0
 12 13  1  0  0  0  0
 12 11  1  0  0  0  0
 13 14  2  0  0  0  0
 14 15  1  0  0  0  0
 15 16  2  0  0  0  0
 16 21  1  0  0  0  0
 18 10  1  0  0  0  0
 19 12  1  0  0  0  0
 20 13  1  0  0  0  0
 22 24  1  0  0  0  0
 22 25  1  0  0  0  0
 23 22  1  0  0  0  0
 26  2  1  0  0  0  0
 27 31  1  0  0  0  0
 27 26  1  0  0  0  0
 28 27  2  0  0  0  0
 29 28  1  0  0  0  0
 29 30  1  0  0  0  0
 30 31  2  0  0  0  0
 32 28  1  0  0  0  0
 33 30  1  0  0  0  0
 33 34  1  0  0  0  0
 34 35  1  0  0  0  0
M  END
>  <minimizedAffinity>
-5.82077837

$$$$

 OpenBabel03242513103D

 35 38  0  0  0  0  0  0  0  0999 V2000
   36.9280   27.6390   41.4610 C   0  0  0  0  0  0  0  0  0  0  0  0
   37.8170   26.9090   42.2420 C   0  0  0  0  0  0  0  0  0  0  0  0
   38.9680   27.5580   42.6600 C   0  0  0  0  0  0  0  0  0  0  0  0
   39.1400   28.8550   42.2770 N   0  0  0  0  0  0  0  0  0  0  0  0
   38.2850   29.5420   41.5330 C   0  0  0  0  0  0  0  0  0  0  0  0
   37.1580   28.9300   41.1150 N   0  0  0  0  0  0  0  0  0  0  0  0
   36.0250   27.1430   41.1280 H   0  0  0  0  0  0  0  0  0  0  0  0
   39.7830   31.4680   41.4230 C   0  0  0  0  0  0  0  0  0  0  0  0
   38.5630   30.9150   41.1820 C   0  0  0  0  0  0  0  0  0  0  0  0
   37.5110   31.6390   40.5850 C   0  0  0  0  0  0  0  0  0  0  0  0
   37.7010   32.9680   40.2200 C   0  0  0  0  0  0  0  0  0  0  0  0
   36.9490   33.9410   39.6470 N   0  0  0  0  0  0  0  0  0  0  0  0
   37.7410   35.0660   39.5540 C   0  0  0  0  0  0  0  0  0  0  0  0
   38.9400   34.7590   40.0670 N   0  0  0  0  0  0  0  0  0  0  0  0
   38.9460   33.4820   40.4830 C   0  0  0  0  0  0  0  0  0  0  0  0
   39.9950   32.7980   41.0650 C   0  0  0  0  0  0  0  0  0  0  0  0
   40.5990   30.9420   41.8740 H   0  0  0  0  0  0  0  0  0  0  0  0
   36.5340   31.2020   40.3900 H   0  0  0  0  0  0  0  0  0  0  0  0
   35.9620   33.6980   39.3850 H   0  0  0  0  0  0  0  0  0  0  0  0
   37.2060   35.8950   39.1030 H   0  0  0  0  0  0  0  0  0  0  0  0
   40.9600   33.2600   41.2470 H   0  0  0  0  0  0  0  0  0  0  0  0
   39.9540   26.8320   43.4930 C   0  0  0  0  0  0  0  0  0  0  0  0
   41.0410   27.6780   43.8130 F   0  0  0  0  0  0  0  0  0  0  0  0
   39.3900   26.4730   44.6970 F   0  0  0  0  0  0  0  0  0  0  0  0
   40.3950   25.7550   42.7970 F   0  0  0  0  0  0  0  0  0  0  0  0
   37.5360   25.6320   42.5540 O   0  0  0  0  0  0  0  0  0  0  0  0
   37.1700   24.6950   41.6340 C   0  0  0  0  0  0  0  0  0  0  0  0
   38.3110   23.8920   41.4790 C   0  0  0  0  0  0  0  0  0  0  0  0
   37.7580   22.6480   40.2240 S   0  0  0  0  0  0  0  0  0  0  0  0
   36.0640   23.4330   40.1220 C   0  0  0  0  0  0  0  0  0  0  0  0
   36.2050   24.2530   40.8520 N   0  0  0  0  0  0  0  0  0  0  0  0
   39.3550   23.7060   41.7840 H   0  0  0  0  0  0  0  0  0  0  0  0
   35.0260   22.8770   39.2140 C   0  0  0  0  0  2  0  0  0  0  0  0
   35.1280   23.5790   37.9000 C   0  0  0  0  0  2  0  0  0  0  0  0
   36.1600   23.6580   37.5280 H   0  0  0  0  0  0  0  0  0  0  0  0
  1  2  1  0  0  0  0
  2 26  1  0  0  0  0
  2  3  2  0  0  0  0
  3 22  1  0  0  0  0
  4  3  1  0  0  0  0
  5  4  2  0  0  0  0
  6  1  2  0  0  0  0
  6  5  1  0  0  0  0
  7  1  1  0  0  0  0
  8 17  1  0  0  0  0
  9  8  1  0  0  0  0
  9  5  1  0  0  0  0
 10  9  2  0  0  0  0
 11 15  2  0  0  0  0
 11 10  1  0  0  0  0
 12 11  1  0  0  0  0
 13 12  1  0  0  0  0
 13 14  2  0  0  0  0
 14 15  1  0  0  0  0
 15 16  1  0  0  0  0
 16 21  1  0  0  0  0
 16  8  2  0  0  0  0
 18 10  1  0  0  0  0
 19 12  1  0  0  0  0
 20 13  1  0  0  0  0
 22 23  1  0  0  0  0
 22 24  1  0  0  0  0
 25 22  1  0  0  0  0
 27 26  1  0  0  0  0
 28 27  2  0  0  0  0
 28 32  1  0  0  0  0
 29 28  1  0  0  0  0
 30 29  1  0  0  0  0
 30 31  2  0  0  0  0
 31 27  1  0  0  0  0
 33 30  1  0  0  0  0
 34 33  1  0  0  0  0
 35 34  1  0  0  0  0
M  END
>  <minimizedAffinity>
-5.81038761

$$$$
