
 OpenBabel03242521463D

 41 43  0  0  1  0  0  0  0  0999 V2000
   45.5450   35.6020   43.6840 C   0  0  0  0  0  0  0  0  0  0  0  0
   46.5940   34.7960   43.2210 C   0  0  0  0  0  0  0  0  0  0  0  0
   46.9920   33.6820   43.9810 C   0  0  0  0  0  0  0  0  0  0  0  0
   46.3450   33.4510   45.1080 N   0  0  0  0  0  0  0  0  0  0  0  0
   45.3290   34.2400   45.5430 C   0  0  0  0  0  0  0  0  0  0  0  0
   44.9260   35.3180   44.8340 N   0  0  0  0  0  0  0  0  0  0  0  0
   47.0290   35.1030   42.2880 H   0  0  0  0  0  0  0  0  0  0  0  0
   44.8460   33.9780   46.4890 H   0  0  0  0  0  0  0  0  0  0  0  0
   49.0770   33.6420   42.6220 C   0  0  2  0  0  0  0  0  0  0  0  0
   48.0840   32.9070   43.4240 C   0  0  2  0  0  0  0  0  0  0  0  0
   47.6650   31.8850   42.4990 O   0  0  0  0  0  0  0  0  0  0  0  0
   48.9050   31.3660   42.1310 C   0  0  0  0  0  0  0  0  0  0  0  0
   49.9400   32.4370   42.1760 C   0  0  1  0  0  0  0  0  0  0  0  0
   48.6080   34.0190   41.6700 H   0  0  0  0  0  0  0  0  0  0  0  0
   48.5760   32.2970   44.2260 H   0  0  0  0  0  0  0  0  0  0  0  0
   48.8040   31.0180   41.0750 H   0  0  0  0  0  0  0  0  0  0  0  0
   49.2290   30.5150   42.7720 H   0  0  0  0  0  0  0  0  0  0  0  0
   50.7270   32.2690   42.9250 H   0  0  0  0  0  0  0  0  0  0  0  0
   49.7660   34.6070   43.2680 O   0  0  0  0  0  0  0  0  0  0  0  0
   50.0570   35.3430   42.6630 H   0  0  0  0  0  0  0  0  0  0  0  0
   50.5240   32.7450   40.9430 O   0  0  0  0  0  0  0  0  0  0  0  0
   49.8260   33.0450   40.3070 H   0  0  0  0  0  0  0  0  0  0  0  0
   45.1400   36.8000   42.8550 C   0  0  0  0  0  0  0  0  0  0  0  0
   45.9700   37.0760   42.1890 H   0  0  0  0  0  0  0  0  0  0  0  0
   44.1960   36.5380   42.3430 H   0  0  0  0  0  0  0  0  0  0  0  0
   45.4390   39.1700   43.8520 C   0  0  0  0  0  0  0  0  0  0  0  0
   46.2600   39.4400   42.9460 O   0  0  0  0  0  0  0  0  0  0  0  0
   44.8540   37.8700   43.7920 N   0  0  0  0  0  0  0  0  0  0  0  0
   44.1230   37.6290   44.5010 H   0  0  0  0  0  0  0  0  0  0  0  0
   45.0620   40.0840   44.9300 C   0  0  0  0  0  0  0  0  0  0  0  0
   45.1960   39.7020   46.2230 C   0  0  0  0  0  0  0  0  0  0  0  0
   44.8120   40.6370   47.1820 C   0  0  0  0  0  0  0  0  0  0  0  0
   44.3140   41.8990   46.9000 C   0  0  0  0  0  0  0  0  0  0  0  0
   44.2150   42.1960   45.5560 C   0  0  0  0  0  0  0  0  0  0  0  0
   44.5750   41.3220   44.6140 N   0  0  0  0  0  0  0  0  0  0  0  0
   45.5740   38.7400   46.4860 H   0  0  0  0  0  0  0  0  0  0  0  0
   44.9240   40.3180   48.2280 H   0  0  0  0  0  0  0  0  0  0  0  0
   44.0380   42.5660   47.7050 H   0  0  0  0  0  0  0  0  0  0  0  0
   43.6890   43.5360   45.1610 C   0  0  0  0  0  0  0  0  0  0  0  0
   42.2070   43.4980   44.9020 C   0  0  0  0  0  0  0  0  0  0  0  0
   41.7160   44.4280   45.2860 H   0  0  0  0  0  0  0  0  0  0  0  0
  1  6  1  0  0  0  0
  2  1  2  0  0  0  0
  2  3  1  0  0  0  0
  3  4  2  0  0  0  0
  4  5  1  0  0  0  0
  5  8  1  0  0  0  0
  6  5  2  0  0  0  0
  7  2  1  0  0  0  0
  9 14  1  6  0  0  0
  9 19  1  0  0  0  0
  9 10  1  0  0  0  0
 10  3  1  0  0  0  0
 10 15  1  1  0  0  0
 11 10  1  0  0  0  0
 12 13  1  0  0  0  0
 12 11  1  0  0  0  0
 12 17  1  0  0  0  0
 13  9  1  0  0  0  0
 13 18  1  1  0  0  0
 16 12  1  0  0  0  0
 20 19  1  0  0  0  0
 21 13  1  0  0  0  0
 22 21  1  0  0  0  0
 23  1  1  0  0  0  0
 23 28  1  0  0  0  0
 24 23  1  0  0  0  0
 25 23  1  0  0  0  0
 26 30  1  0  0  0  0
 27 26  2  0  0  0  0
 28 26  1  0  0  0  0
 28 29  1  0  0  0  0
 30 31  1  0  0  0  0
 31 36  1  0  0  0  0
 31 32  2  0  0  0  0
 32 37  1  0  0  0  0
 33 32  1  0  0  0  0
 33 38  1  0  0  0  0
 34 33  2  0  0  0  0
 35 30  2  0  0  0  0
 35 34  1  0  0  0  0
 39 34  1  0  0  0  0
 40 39  1  0  0  0  0
 40 41  1  0  0  0  0
M  END
>  <minimizedAffinity>
-4.99955463

>  <minimizedRMSD>
0.201611638

$$$$
