
     RDKit          3D

 40 41  0  0  0  0  0  0  0  0999 V2000
   50.2249   34.9079   42.6992 O   0  0  0  0  0  0  0  0  0  0  0  0
   49.0580   34.6182   41.8364 P   0  0  1  0  0  0  0  0  0  0  0  0
   48.9623   35.8720   40.6864 O   0  0  0  0  0  0  0  0  0  0  0  0
   49.3143   33.1579   40.9587 O   0  0  0  0  0  0  0  0  0  0  0  0
   49.5314   31.4387   42.5589 C   0  0  0  0  0  0  0  0  0  0  0  0
   50.0551   32.1192   41.4846 C   0  0  0  0  0  0  0  0  0  0  0  0
   51.3176   31.7232   40.9751 C   0  0  0  0  0  0  0  0  0  0  0  0
   51.9332   30.6856   41.5893 N   0  0  0  0  0  0  0  0  0  0  0  0
   51.3996   30.0550   42.6196 C   0  0  0  0  0  0  0  0  0  0  0  0
   50.1888   30.4435   43.0994 N   0  0  0  0  0  0  0  0  0  0  0  0
   47.0893   31.0364   42.8276 C   0  0  0  0  0  0  0  0  0  0  0  0
   46.9208   30.6991   41.5965 O   0  0  0  0  0  0  0  0  0  0  0  0
   48.3843   31.4350   43.3951 N   0  0  0  0  0  0  0  0  0  0  0  0
   47.6265   34.5618   42.6542 O   0  0  0  0  0  0  0  0  0  0  0  0
   46.5394   35.1211   42.1152 C   0  0  2  0  0  0  0  0  0  0  0  0
   45.4883   35.6016   43.0327 C   0  0  0  0  0  0  0  0  0  0  0  0
   44.1875   35.7475   42.3081 C   0  0  0  0  0  0  0  0  0  0  0  0
   43.6577   34.5328   41.9040 O   0  0  0  0  0  0  0  0  0  0  0  0
   44.6464   33.5851   41.7149 C   0  0  0  0  0  0  0  0  0  0  0  0
   45.8627   34.2033   41.0931 C   0  0  1  0  0  0  0  0  0  0  0  0
   48.8610   36.7009   41.2233 H   0  0  0  0  0  0  0  0  0  0  0  0
   51.6647   32.2953   40.1396 H   0  0  0  0  0  0  0  0  0  0  0  0
   51.8925   29.2247   43.1108 H   0  0  0  0  0  0  0  0  0  0  0  0
   46.1676   30.9955   43.4083 H   0  0  0  0  0  0  0  0  0  0  0  0
   48.3094   31.6833   44.3835 H   0  0  0  0  0  0  0  0  0  0  0  0
   46.8647   35.9818   41.4573 H   0  0  0  0  0  0  0  0  0  0  0  0
   45.7335   36.5883   43.5186 H   0  0  0  0  0  0  0  0  0  0  0  0
   45.2927   34.9238   43.8925 H   0  0  0  0  0  0  0  0  0  0  0  0
   44.1364   36.5594   41.5743 H   0  0  0  0  0  0  0  0  0  0  0  0
   43.4630   36.0865   43.1154 H   0  0  0  0  0  0  0  0  0  0  0  0
   44.9413   33.1645   42.6884 H   0  0  0  0  0  0  0  0  0  0  0  0
   44.2404   32.7818   41.0726 H   0  0  0  0  0  0  0  0  0  0  0  0
   46.5753   33.3414   40.9967 H   0  0  0  0  0  0  0  0  0  0  0  0
   45.7096   34.7546   39.7339 C   0  0  0  0  0  0  0  0  0  0  0  0
   46.4691   33.8322   38.7646 C   0  0  0  0  0  0  0  0  0  0  0  0
   46.5741   34.3119   37.7734 H   0  0  0  0  0  0  0  0  0  0  0  0
   46.2777   35.7155   39.6964 H   0  0  0  0  0  0  0  0  0  0  0  0
   44.7145   34.8150   39.3037 H   0  0  0  0  0  0  0  0  0  0  0  0
   45.8504   32.8943   38.7281 H   0  0  0  0  0  0  0  0  0  0  0  0
   47.4243   33.5436   39.2421 H   0  0  0  0  0  0  0  0  0  0  0  0
  2 14  1  1
  2  1  2  0
  3  2  1  0
  4  6  1  0
  4  2  1  0
  5 10  2  0
  5 13  1  0
  6  5  1  0
  7  6  2  0
  7  8  1  0
  8  9  2  0
  9 10  1  0
 11 13  1  0
 12 11  2  0
 15 14  1  0
 15 16  1  0
 17 16  1  0
 18 17  1  0
 19 18  1  0
 20 19  1  0
 20 15  1  0
  3 21  1  0
  7 22  1  0
  9 23  1  0
 11 24  1  0
 13 25  1  0
 15 26  1  6
 16 27  1  0
 16 28  1  0
 17 29  1  0
 17 30  1  0
 19 31  1  0
 19 32  1  0
 20 33  1  6
 34 35  1  0
 35 36  1  0
 34 37  1  0
 34 38  1  0
 35 39  1  0
 35 40  1  0
 20 34  1  0
M  ISO  8  21   3  22  14  23  14  24   6  26  13  27  13  28  13  29  13
M  ISO  5  30  13  31  13  32  13  33  13  36   8
M  END
>  <DihAtoms>  (1) 
18,19,33,34

>  <DihDeg>  (1) 
-48.9996018835873

$$$$
