
 OpenBabel03252509333D

 34 35  0  0  1  0  0  0  0  0999 V2000
   44.4260   35.4180   44.7150 O   0  0  0  0  0  0  0  0  0  0  0  0
   45.3690   34.2860   44.4490 P   0  0  2  0  0  0  0  0  0  0  0  0
   44.5790   32.9100   43.9080 O   0  0  0  0  0  0  0  0  0  0  0  0
   44.7640   32.7120   42.9580 H   0  0  0  0  0  0  0  0  0  0  0  0
   46.1380   33.8420   45.8970 O   0  0  0  0  0  0  0  0  0  0  0  0
   46.4840   32.5230   45.8150 C   0  0  0  0  0  0  0  0  0  0  0  0
   46.2540   31.9770   44.9120 H   0  0  0  0  0  0  0  0  0  0  0  0
   47.6110   32.5020   45.9110 H   0  0  0  0  0  0  0  0  0  0  0  0
   45.4430   31.5980   49.2640 C   0  0  0  0  0  0  0  0  0  0  0  0
   45.9210   32.3580   48.1890 C   0  0  0  0  0  0  0  0  0  0  0  0
   45.9860   31.7440   46.9510 C   0  0  0  0  0  0  0  0  0  0  0  0
   45.5850   30.4390   46.8450 N   0  0  0  0  0  0  0  0  0  0  0  0
   45.1290   29.7380   47.9060 C   0  0  0  0  0  0  0  0  0  0  0  0
   45.0640   30.3280   49.1010 N   0  0  0  0  0  0  0  0  0  0  0  0
   45.3660   32.0200   50.2610 H   0  0  0  0  0  0  0  0  0  0  0  0
   46.2130   33.3880   48.3950 H   0  0  0  0  0  0  0  0  0  0  0  0
   44.8690   28.7330   47.5890 H   0  0  0  0  0  0  0  0  0  0  0  0
   46.5630   34.7860   43.3730 O   0  0  0  0  0  0  0  0  0  0  0  0
   46.5630   33.9580   42.2640 C   0  0  1  0  0  0  0  0  0  0  0  0
   45.7600   34.4830   41.1050 C   0  0  0  0  0  0  0  0  0  0  0  0
   46.2320   33.5880   39.9770 C   0  0  0  0  0  0  0  0  0  0  0  0
   47.6410   33.1710   40.3390 C   0  0  0  0  0  0  0  0  0  0  0  0
   47.9560   33.8820   41.6400 C   0  0  1  0  0  0  0  0  0  0  0  0
   46.2850   32.9120   42.5030 H   0  0  0  0  0  0  0  0  0  0  0  0
   45.9730   35.5380   40.9320 H   0  0  0  0  0  0  0  0  0  0  0  0
   44.6620   34.2900   41.2720 H   0  0  0  0  0  0  0  0  0  0  0  0
   46.2280   34.1290   39.0170 H   0  0  0  0  0  0  0  0  0  0  0  0
   45.5690   32.7040   39.8270 H   0  0  0  0  0  0  0  0  0  0  0  0
   47.6900   32.0690   40.4490 H   0  0  0  0  0  0  0  0  0  0  0  0
   48.3540   33.4640   39.5200 H   0  0  0  0  0  0  0  0  0  0  0  0
   48.6180   33.2690   42.2580 H   0  0  0  0  0  0  0  0  0  0  0  0
   48.5820   35.2270   41.4190 C   0  0  0  0  0  2  0  0  0  0  0  0
   49.8040   35.3130   42.3310 C   0  0  0  0  0  2  0  0  0  0  0  0
   49.7510   36.1930   43.0150 H   0  0  0  0  0  0  0  0  0  0  0  0
  2  1  2  1  0  0  0
  2  5  1  0  0  0  0
  3  2  1  0  0  0  0
  4  3  1  0  0  0  0
  6  5  1  0  0  0  0
  6  8  1  0  0  0  0
  6 11  1  0  0  0  0
  7  6  1  0  0  0  0
  9 15  1  0  0  0  0
 10 16  1  0  0  0  0
 10  9  2  0  0  0  0
 11 10  1  0  0  0  0
 12 11  2  0  0  0  0
 12 13  1  0  0  0  0
 13 14  2  0  0  0  0
 14  9  1  0  0  0  0
 17 13  1  0  0  0  0
 18  2  1  0  0  0  0
 19 24  1  1  0  0  0
 19 18  1  0  0  0  0
 20 26  1  0  0  0  0
 20 19  1  0  0  0  0
 21 22  1  0  0  0  0
 21 20  1  0  0  0  0
 22 29  1  0  0  0  0
 22 23  1  0  0  0  0
 23 31  1  1  0  0  0
 23 19  1  0  0  0  0
 25 20  1  0  0  0  0
 27 21  1  0  0  0  0
 28 21  1  0  0  0  0
 30 22  1  0  0  0  0
 32 23  1  0  0  0  0
 32 33  1  0  0  0  0
 33 34  1  0  0  0  0
M  END
>  <minimizedAffinity>
-5.15779972

>  <minimizedRMSD>
0.982212842

$$$$
