
 OpenBabel03252505463D

 22 23  0  0  1  0  0  0  0  0999 V2000
   46.5330   32.9060   46.4170 C   0  0  1  0  0  0  0  0  0  0  0  0
   45.7470   31.5560   46.3920 C   0  0  1  0  0  0  0  0  0  0  0  0
   47.2290   31.6760   46.2000 C   0  0  0  0  0  0  0  0  0  0  0  0
   46.5270   33.4050   47.4170 H   0  0  0  0  0  0  0  0  0  0  0  0
   45.0790   31.3610   45.5590 H   0  0  0  0  0  0  0  0  0  0  0  0
   47.5530   31.4370   45.1470 H   0  0  0  0  0  0  0  0  0  0  0  0
   47.8860   31.2220   46.9460 H   0  0  0  0  0  0  0  0  0  0  0  0
   46.0930   33.8100   45.3440 C   0  0  0  0  0  0  0  0  0  0  0  0
   45.0120   34.7170   45.6100 C   0  0  0  0  0  0  0  0  0  0  0  0
   44.5720   35.5950   44.6340 C   0  0  0  0  0  0  0  0  0  0  0  0
   45.2150   35.5430   43.4310 N   0  0  0  0  0  0  0  0  0  0  0  0
   46.2380   34.6670   43.2140 C   0  0  0  0  0  0  0  0  0  0  0  0
   46.6640   33.8260   44.1440 N   0  0  0  0  0  0  0  0  0  0  0  0
   44.5160   34.7310   46.5940 H   0  0  0  0  0  0  0  0  0  0  0  0
   43.7570   36.2750   44.8420 H   0  0  0  0  0  0  0  0  0  0  0  0
   46.8690   34.6980   41.8670 C   0  0  0  0  0  0  0  0  0  0  0  0
   48.2460   35.3280   41.9150 C   0  0  0  0  0  0  0  0  0  0  0  0
   48.9060   34.7910   42.6170 H   0  0  0  0  0  0  0  0  0  0  0  0
   45.3210   31.0820   47.7620 C   0  0  0  0  0  0  0  0  0  0  0  0
   46.3770   31.0160   48.6450 F   0  0  0  0  0  0  0  0  0  0  0  0
   44.3970   32.0080   48.2750 F   0  0  0  0  0  0  0  0  0  0  0  0
   44.6480   29.8830   47.6810 F   0  0  0  0  0  0  0  0  0  0  0  0
  1  4  1  1  0  0  0
  2  5  1  6  0  0  0
  2  1  1  0  0  0  0
  2 19  1  0  0  0  0
  3  2  1  0  0  0  0
  3  1  1  0  0  0  0
  3  7  1  0  0  0  0
  6  3  1  0  0  0  0
  8  9  1  0  0  0  0
  8  1  1  0  0  0  0
  9 14  1  0  0  0  0
 10 15  1  0  0  0  0
 10  9  2  0  0  0  0
 11 10  1  0  0  0  0
 12 11  2  0  0  0  0
 12 13  1  0  0  0  0
 13  8  2  0  0  0  0
 16 17  1  0  0  0  0
 16 12  1  0  0  0  0
 17 18  1  0  0  0  0
 19 21  1  0  0  0  0
 19 20  1  0  0  0  0
 22 19  1  0  0  0  0
M  END
>  <minimizedAffinity>
-4.75686359

>  <minimizedRMSD>
5.52041578

$$$$
