
 OpenBabel03252506483D

 23 24  0  0  0  0  0  0  0  0999 V2000
   42.9750   34.6360   39.4530 S   0  0  0  0  0  0  0  0  0  0  0  0
   42.2780   31.8870   40.9350 Cl  0  0  0  0  0  0  0  0  0  0  0  0
   40.9640   32.9740   40.5230 C   0  0  0  0  0  0  0  0  0  0  0  0
   41.3560   34.1240   39.8910 C   0  0  0  0  0  0  0  0  0  0  0  0
   40.3320   35.0250   39.5420 C   0  0  0  0  0  0  0  0  0  0  0  0
   39.0100   34.7260   39.8400 C   0  0  0  0  0  0  0  0  0  0  0  0
   38.6300   33.5630   40.4760 C   0  0  0  0  0  0  0  0  0  0  0  0
   39.6560   32.6740   40.8190 C   0  0  0  0  0  0  0  0  0  0  0  0
   39.3000   31.1600   41.6320 Cl  0  0  0  0  0  0  0  0  0  0  0  0
   40.5260   35.9620   39.0420 H   0  0  0  0  0  0  0  0  0  0  0  0
   38.2150   35.4240   39.5690 H   0  0  0  0  0  0  0  0  0  0  0  0
   37.6110   33.3240   40.7090 H   0  0  0  0  0  0  0  0  0  0  0  0
   44.1000   34.6920   40.8380 C   0  0  0  0  0  0  0  0  0  0  0  0
   45.3380   34.0760   40.6420 C   0  0  0  0  0  0  0  0  0  0  0  0
   46.2720   34.0830   41.6890 C   0  0  0  0  0  0  0  0  0  0  0  0
   45.9170   34.6900   42.8400 N   0  0  0  0  0  0  0  0  0  0  0  0
   44.7180   35.2810   43.0150 C   0  0  0  0  0  0  0  0  0  0  0  0
   43.7880   35.2920   42.0160 N   0  0  0  0  0  0  0  0  0  0  0  0
   45.5840   33.5970   39.6970 H   0  0  0  0  0  0  0  0  0  0  0  0
   47.2240   33.6040   41.5230 H   0  0  0  0  0  0  0  0  0  0  0  0
   44.3600   35.9390   44.2910 C   0  0  0  0  0  0  0  0  0  0  0  0
   44.7080   35.1590   45.5150 C   0  0  0  0  0  0  0  0  0  0  0  0
   43.8670   35.1820   46.2680 H   0  0  0  0  0  0  0  0  0  0  0  0
  1  4  1  0  0  0  0
  1 13  1  0  0  0  0
  3  8  1  0  0  0  0
  3  2  1  0  0  0  0
  4  3  2  0  0  0  0
  5  6  2  0  0  0  0
  5  4  1  0  0  0  0
  6  7  1  0  0  0  0
  7 12  1  0  0  0  0
  7  8  2  0  0  0  0
  8  9  1  0  0  0  0
 10  5  1  0  0  0  0
 11  6  1  0  0  0  0
 13 18  1  0  0  0  0
 14 13  2  0  0  0  0
 14 15  1  0  0  0  0
 15 16  2  0  0  0  0
 16 17  1  0  0  0  0
 17 21  1  0  0  0  0
 18 17  2  0  0  0  0
 19 14  1  0  0  0  0
 20 15  1  0  0  0  0
 21 22  1  0  0  0  0
 22 23  1  0  0  0  0
M  END
>  <minimizedAffinity>
-4.86746311

>  <minimizedRMSD>
1.76494861

$$$$
