
 OpenBabel03252509333D

 34 35  0  0  1  0  0  0  0  0999 V2000
   44.4260   35.4180   44.7150 O   0  0  0  0  0  0  0  0  0  0  0  0
   45.3690   34.2860   44.4490 P   0  0  2  0  0  0  0  0  0  0  0  0
   44.5790   32.9110   43.9080 O   0  0  0  0  0  0  0  0  0  0  0  0
   44.7650   32.7120   42.9580 H   0  0  0  0  0  0  0  0  0  0  0  0
   46.1370   33.8420   45.8980 O   0  0  0  0  0  0  0  0  0  0  0  0
   46.4830   32.5230   45.8150 C   0  0  0  0  0  0  0  0  0  0  0  0
   46.2540   31.9770   44.9120 H   0  0  0  0  0  0  0  0  0  0  0  0
   47.6100   32.5020   45.9110 H   0  0  0  0  0  0  0  0  0  0  0  0
   45.4430   31.5980   49.2640 C   0  0  0  0  0  0  0  0  0  0  0  0
   45.9220   32.3570   48.1890 C   0  0  0  0  0  0  0  0  0  0  0  0
   45.9860   31.7430   46.9510 C   0  0  0  0  0  0  0  0  0  0  0  0
   45.5840   30.4390   46.8450 N   0  0  0  0  0  0  0  0  0  0  0  0
   45.1290   29.7380   47.9060 C   0  0  0  0  0  0  0  0  0  0  0  0
   45.0650   30.3270   49.1010 N   0  0  0  0  0  0  0  0  0  0  0  0
   45.3670   32.0190   50.2610 H   0  0  0  0  0  0  0  0  0  0  0  0
   46.2130   33.3880   48.3950 H   0  0  0  0  0  0  0  0  0  0  0  0
   44.8690   28.7330   47.5890 H   0  0  0  0  0  0  0  0  0  0  0  0
   46.5630   34.7860   43.3740 O   0  0  0  0  0  0  0  0  0  0  0  0
   46.5640   33.9580   42.2640 C   0  0  1  0  0  0  0  0  0  0  0  0
   45.7600   34.4840   41.1050 C   0  0  0  0  0  0  0  0  0  0  0  0
   46.2320   33.5890   39.9770 C   0  0  0  0  0  0  0  0  0  0  0  0
   47.6410   33.1730   40.3380 C   0  0  0  0  0  0  0  0  0  0  0  0
   47.9560   33.8830   41.6400 C   0  0  1  0  0  0  0  0  0  0  0  0
   46.2850   32.9120   42.5030 H   0  0  0  0  0  0  0  0  0  0  0  0
   45.9740   35.5390   40.9330 H   0  0  0  0  0  0  0  0  0  0  0  0
   44.6620   34.2900   41.2720 H   0  0  0  0  0  0  0  0  0  0  0  0
   46.2280   34.1310   39.0170 H   0  0  0  0  0  0  0  0  0  0  0  0
   45.5700   32.7050   39.8260 H   0  0  0  0  0  0  0  0  0  0  0  0
   47.6910   32.0700   40.4480 H   0  0  0  0  0  0  0  0  0  0  0  0
   48.3540   33.4650   39.5200 H   0  0  0  0  0  0  0  0  0  0  0  0
   48.6190   33.2690   42.2580 H   0  0  0  0  0  0  0  0  0  0  0  0
   48.5820   35.2280   41.4200 C   0  0  0  0  0  0  0  0  0  0  0  0
   49.8040   35.3130   42.3310 C   0  0  0  0  0  0  0  0  0  0  0  0
   49.7510   36.1930   43.0150 H   0  0  0  0  0  0  0  0  0  0  0  0
  2  1  2  1  0  0  0
  2  5  1  0  0  0  0
  3  2  1  0  0  0  0
  4  3  1  0  0  0  0
  6  5  1  0  0  0  0
  6  8  1  0  0  0  0
  6 11  1  0  0  0  0
  7  6  1  0  0  0  0
  9 15  1  0  0  0  0
 10 16  1  0  0  0  0
 10  9  2  0  0  0  0
 11 10  1  0  0  0  0
 12 11  2  0  0  0  0
 12 13  1  0  0  0  0
 13 14  2  0  0  0  0
 14  9  1  0  0  0  0
 17 13  1  0  0  0  0
 18  2  1  0  0  0  0
 19 24  1  1  0  0  0
 19 18  1  0  0  0  0
 20 26  1  0  0  0  0
 20 19  1  0  0  0  0
 21 22  1  0  0  0  0
 21 20  1  0  0  0  0
 22 29  1  0  0  0  0
 22 23  1  0  0  0  0
 23 31  1  1  0  0  0
 23 19  1  0  0  0  0
 25 20  1  0  0  0  0
 27 21  1  0  0  0  0
 28 21  1  0  0  0  0
 30 22  1  0  0  0  0
 32 23  1  0  0  0  0
 32 33  1  0  0  0  0
 33 34  1  0  0  0  0
M  END
>  <minimizedAffinity>
-5.15784788

>  <minimizedRMSD>
1.11160791

$$$$
