
 OpenBabel03252509333D

 34 35  0  0  1  0  0  0  0  0999 V2000
   44.6860   35.1580   45.1540 O   0  0  0  0  0  0  0  0  0  0  0  0
   45.5040   34.1180   44.4540 P   0  0  2  0  0  0  0  0  0  0  0  0
   44.5680   32.8560   43.8700 O   0  0  0  0  0  0  0  0  0  0  0  0
   44.5110   32.8470   42.8830 H   0  0  0  0  0  0  0  0  0  0  0  0
   46.5900   33.4200   45.5580 O   0  0  0  0  0  0  0  0  0  0  0  0
   46.3970   32.0670   45.5560 C   0  0  0  0  0  0  0  0  0  0  0  0
   45.7430   31.6330   44.8140 H   0  0  0  0  0  0  0  0  0  0  0  0
   47.4180   31.6190   45.3680 H   0  0  0  0  0  0  0  0  0  0  0  0
   45.7020   31.9040   49.2060 C   0  0  0  0  0  0  0  0  0  0  0  0
   46.0960   32.4050   47.9590 C   0  0  0  0  0  0  0  0  0  0  0  0
   45.9890   31.5610   46.8680 C   0  0  0  0  0  0  0  0  0  0  0  0
   45.5110   30.2930   47.0650 N   0  0  0  0  0  0  0  0  0  0  0  0
   45.1400   29.8450   48.2850 C   0  0  0  0  0  0  0  0  0  0  0  0
   45.2410   30.6570   49.3380 N   0  0  0  0  0  0  0  0  0  0  0  0
   45.7600   32.5140   50.1020 H   0  0  0  0  0  0  0  0  0  0  0  0
   46.4630   33.4310   47.9250 H   0  0  0  0  0  0  0  0  0  0  0  0
   44.7940   28.8200   48.2020 H   0  0  0  0  0  0  0  0  0  0  0  0
   46.4130   34.8400   43.2350 O   0  0  0  0  0  0  0  0  0  0  0  0
   46.5280   33.9680   42.1650 C   0  0  1  0  0  0  0  0  0  0  0  0
   45.7770   34.4030   40.9360 C   0  0  0  0  0  0  0  0  0  0  0  0
   46.3660   33.4890   39.8800 C   0  0  0  0  0  0  0  0  0  0  0  0
   47.7680   33.1630   40.3480 C   0  0  0  0  0  0  0  0  0  0  0  0
   47.9600   33.9420   41.6350 C   0  0  1  0  0  0  0  0  0  0  0  0
   46.2880   32.9200   42.4320 H   0  0  0  0  0  0  0  0  0  0  0  0
   45.9470   35.4590   40.7300 H   0  0  0  0  0  0  0  0  0  0  0  0
   44.6810   34.1580   41.0410 H   0  0  0  0  0  0  0  0  0  0  0  0
   46.3970   33.9900   38.8990 H   0  0  0  0  0  0  0  0  0  0  0  0
   45.7610   32.5650   39.7270 H   0  0  0  0  0  0  0  0  0  0  0  0
   47.8660   32.0710   40.5100 H   0  0  0  0  0  0  0  0  0  0  0  0
   48.5170   33.4600   39.5640 H   0  0  0  0  0  0  0  0  0  0  0  0
   48.6110   33.3910   42.3200 H   0  0  0  0  0  0  0  0  0  0  0  0
   48.5300   35.3090   41.3950 C   0  0  0  0  0  2  0  0  0  0  0  0
   49.7570   35.4520   42.2940 C   0  0  0  0  0  2  0  0  0  0  0  0
   49.6740   36.3360   42.9700 H   0  0  0  0  0  0  0  0  0  0  0  0
  2  1  2  1  0  0  0
  2  5  1  0  0  0  0
  3  2  1  0  0  0  0
  4  3  1  0  0  0  0
  6  5  1  0  0  0  0
  6 11  1  0  0  0  0
  7  6  1  0  0  0  0
  8  6  1  0  0  0  0
  9 14  1  0  0  0  0
  9 15  1  0  0  0  0
 10  9  2  0  0  0  0
 11 12  2  0  0  0  0
 11 10  1  0  0  0  0
 12 13  1  0  0  0  0
 13 14  2  0  0  0  0
 16 10  1  0  0  0  0
 17 13  1  0  0  0  0
 18  2  1  0  0  0  0
 19 24  1  1  0  0  0
 19 18  1  0  0  0  0
 20 26  1  0  0  0  0
 20 19  1  0  0  0  0
 21 22  1  0  0  0  0
 21 20  1  0  0  0  0
 22 29  1  0  0  0  0
 22 23  1  0  0  0  0
 23 19  1  0  0  0  0
 23 31  1  1  0  0  0
 25 20  1  0  0  0  0
 27 21  1  0  0  0  0
 28 21  1  0  0  0  0
 30 22  1  0  0  0  0
 32 23  1  0  0  0  0
 32 33  1  0  0  0  0
 33 34  1  0  0  0  0
M  END
>  <minimizedAffinity>
-5.10077477

>  <minimizedRMSD>
0.907010138

$$$$
