
 OpenBabel03242522473D

 42 45  0  0  0  0  0  0  0  0999 V2000
   45.6660   34.3030   41.8940 C   0  0  0  0  0  0  0  0  0  0  0  0
   46.9270   33.8270   41.5140 C   0  0  0  0  0  0  0  0  0  0  0  0
   47.8010   33.3090   42.5120 C   0  0  0  0  0  0  0  0  0  0  0  0
   47.3470   33.3110   43.7890 N   0  0  0  0  0  0  0  0  0  0  0  0
   46.1300   33.7740   44.1300 C   0  0  0  0  0  0  0  0  0  0  0  0
   45.3190   34.2570   43.1890 N   0  0  0  0  0  0  0  0  0  0  0  0
   44.8060   34.8150   40.9050 N   0  0  0  0  0  0  0  0  0  0  0  0
   48.7740   32.9390   42.2450 H   0  0  0  0  0  0  0  0  0  0  0  0
   45.2280   35.4380   40.1770 H   0  0  0  0  0  0  0  0  0  0  0  0
   43.7980   34.5480   40.9470 H   0  0  0  0  0  0  0  0  0  0  0  0
   47.3950   33.8340   40.1460 C   0  0  0  0  0  0  0  0  0  0  0  0
   48.2080   34.7530   39.5260 C   0  0  0  0  0  0  0  0  0  0  0  0
   48.5620   34.6110   38.1990 C   0  0  0  0  0  0  0  0  0  0  0  0
   48.1110   33.5300   37.4320 C   0  0  0  0  0  0  0  0  0  0  0  0
   48.5120   33.4840   36.1580 N   0  0  0  0  0  0  0  0  0  0  0  0
   48.0800   32.4300   35.3890 C   0  0  0  0  0  0  0  0  0  0  0  0
   47.2580   31.4910   35.9950 C   0  0  0  0  0  0  0  0  0  0  0  0
   46.8550   31.5500   37.3070 C   0  0  0  0  0  0  0  0  0  0  0  0
   47.2960   32.6120   38.0650 C   0  0  0  0  0  0  0  0  0  0  0  0
   46.9320   32.7450   39.4000 C   0  0  0  0  0  0  0  0  0  0  0  0
   48.5320   35.5700   40.1580 H   0  0  0  0  0  0  0  0  0  0  0  0
   49.2020   35.3530   37.7430 H   0  0  0  0  0  0  0  0  0  0  0  0
   48.3610   32.3250   34.3500 H   0  0  0  0  0  0  0  0  0  0  0  0
   46.8930   30.6420   35.4260 H   0  0  0  0  0  0  0  0  0  0  0  0
   46.2110   30.8000   37.7550 H   0  0  0  0  0  0  0  0  0  0  0  0
   46.2910   31.9650   39.7810 H   0  0  0  0  0  0  0  0  0  0  0  0
   45.7280   33.7290   45.5730 C   0  0  0  0  0  0  0  0  0  0  0  0
   45.7650   34.7930   45.9220 H   0  0  0  0  0  0  0  0  0  0  0  0
   44.7670   33.2510   45.7500 H   0  0  0  0  0  0  0  0  0  0  0  0
   46.8470   33.0230   46.3670 C   0  0  0  0  0  0  0  0  0  0  0  0
   47.3490   33.7680   47.0320 H   0  0  0  0  0  0  0  0  0  0  0  0
   47.5320   32.5400   45.6730 H   0  0  0  0  0  0  0  0  0  0  0  0
   45.9120   30.7260   46.8500 C   0  0  0  0  0  0  0  0  0  0  0  0
   46.1930   32.0160   47.2470 C   0  0  0  0  0  0  0  0  0  0  0  0
   45.8380   32.3690   48.5360 C   0  0  0  0  0  0  0  0  0  0  0  0
   46.0610   33.3960   48.8470 H   0  0  0  0  0  0  0  0  0  0  0  0
   45.2280   31.5580   49.4680 C   0  0  0  0  0  0  0  0  0  0  0  0
   44.9960   31.9460   50.4510 H   0  0  0  0  0  0  0  0  0  0  0  0
   44.9650   30.2770   49.0330 C   0  0  0  0  0  3  0  0  0  0  0  0
   45.2940   29.8530   47.7510 C   0  0  0  0  0  3  0  0  0  0  0  0
   46.5690   29.9900   44.4480 N   0  0  0  0  0  0  0  0  0  0  0  0
   46.2660   30.3250   45.5200 C   0  0  0  0  0  0  0  0  0  0  0  0
  1  6  1  0  0  0  0
  2  1  2  0  0  0  0
  2  3  1  0  0  0  0
  3  4  2  0  0  0  0
  4  5  1  0  0  0  0
  5 27  1  0  0  0  0
  6  5  2  0  0  0  0
  7 10  1  0  0  0  0
  7  1  1  0  0  0  0
  8  3  1  0  0  0  0
  9  7  1  0  0  0  0
 11  2  1  0  0  0  0
 12 11  1  0  0  0  0
 12 21  1  0  0  0  0
 13 12  2  0  0  0  0
 14 19  1  0  0  0  0
 14 13  1  0  0  0  0
 15 14  2  0  0  0  0
 16 17  2  0  0  0  0
 16 15  1  0  0  0  0
 17 18  1  0  0  0  0
 18 25  1  0  0  0  0
 18 19  2  0  0  0  0
 19 20  1  0  0  0  0
 20 26  1  0  0  0  0
 20 11  2  0  0  0  0
 22 13  1  0  0  0  0
 23 16  1  0  0  0  0
 24 17  1  0  0  0  0
 27 29  1  0  0  0  0
 27 28  1  0  0  0  0
 27 30  1  0  0  0  0
 30 31  1  0  0  0  0
 30 34  1  0  0  0  0
 32 30  1  0  0  0  0
 33 34  2  0  0  0  0
 33 40  1  0  0  0  0
 34 35  1  0  0  0  0
 35 36  1  0  0  0  0
 35 37  2  0  0  0  0
 37 38  1  0  0  0  0
 39 37  1  0  0  0  0
 40 39  2  0  0  0  0
 41 42  3  0  0  0  0
 42 33  1  0  0  0  0
M  END
>  <minimizedAffinity>
-6.11166763

>  <minimizedRMSD>
2.70830464

$$$$
