
 OpenBabel03252503223D

 41 45  0  0  1  0  0  0  0  0999 V2000
   33.5640   28.9780   36.4290 C   0  0  1  0  0  0  0  0  0  0  0  0
   32.7280   27.8970   35.9470 C   0  0  0  0  0  0  0  0  0  0  0  0
   32.0760   29.0980   36.5840 C   0  0  2  0  0  0  0  0  0  0  0  0
   34.0890   29.6310   35.7020 H   0  0  0  0  0  0  0  0  0  0  0  0
   32.6940   26.9580   36.5620 H   0  0  0  0  0  0  0  0  0  0  0  0
   32.5310   27.7450   34.8780 H   0  0  0  0  0  0  0  0  0  0  0  0
   31.6690   28.9950   37.6010 H   0  0  0  0  0  0  0  0  0  0  0  0
   31.4130   30.0450   35.6550 C   0  0  0  0  0  0  0  0  0  0  0  0
   31.1700   31.3850   35.9470 C   0  0  0  0  0  0  0  0  0  0  0  0
   30.5640   32.2220   35.0240 C   0  0  0  0  0  0  0  0  0  0  0  0
   30.1890   31.7360   33.7920 C   0  0  0  0  0  0  0  0  0  0  0  0
   29.5950   32.5250   32.8520 N   0  0  0  0  0  0  0  0  0  0  0  0
   29.2400   32.0290   31.6460 C   0  0  0  0  0  0  0  0  0  0  0  0
   29.4490   30.6920   31.2700 C   0  0  0  0  0  0  0  0  0  0  0  0
   30.0530   29.8750   32.2180 C   0  0  0  0  0  0  0  0  0  0  0  0
   30.4100   30.3990   33.4480 C   0  0  0  0  0  0  0  0  0  0  0  0
   31.0180   29.6030   34.4060 C   0  0  0  0  0  0  0  0  0  0  0  0
   31.4660   31.7520   36.9100 H   0  0  0  0  0  0  0  0  0  0  0  0
   30.3720   33.2580   35.2380 H   0  0  0  0  0  0  0  0  0  0  0  0
   28.7670   32.6430   30.8900 H   0  0  0  0  0  0  0  0  0  0  0  0
   29.1450   30.3470   30.2910 H   0  0  0  0  0  0  0  0  0  0  0  0
   30.2270   28.8430   31.9550 H   0  0  0  0  0  0  0  0  0  0  0  0
   31.1330   28.5840   34.0600 H   0  0  0  0  0  0  0  0  0  0  0  0
   33.8110   29.1700   38.9330 C   0  0  0  0  0  0  0  0  0  0  0  0
   34.3820   28.8340   37.6650 C   0  0  0  0  0  0  0  0  0  0  0  0
   35.6940   28.4010   37.6290 C   0  0  0  0  0  0  0  0  0  0  0  0
   36.3600   28.3260   38.8180 N   0  0  0  0  0  0  0  0  0  0  0  0
   35.8110   28.6450   40.0020 C   0  0  0  0  0  0  0  0  0  0  0  0
   34.5280   29.0710   40.0620 N   0  0  0  0  0  0  0  0  0  0  0  0
   32.7660   29.5050   38.8890 H   0  0  0  0  0  0  0  0  0  0  0  0
   36.1570   28.1390   36.6960 H   0  0  0  0  0  0  0  0  0  0  0  0
   37.2750   29.6410   41.7070 C   0  0  0  0  0  0  0  0  0  0  0  0
   36.6060   28.5340   41.2250 C   0  0  0  0  0  0  0  0  0  0  0  0
   36.6560   27.3080   41.8600 C   0  0  0  0  0  0  0  0  0  0  0  0
   36.1360   26.4370   41.4940 H   0  0  0  0  0  0  0  0  0  0  0  0
   37.3820   27.1340   43.0120 C   0  0  0  0  0  0  0  0  0  0  0  0
   37.4880   26.2230   43.5880 H   0  0  0  0  0  0  0  0  0  0  0  0
   38.0680   28.2410   43.5190 C   0  0  0  0  0  3  0  0  0  0  0  0
   38.0000   29.4530   42.8630 C   0  0  0  0  0  3  0  0  0  0  0  0
   37.1730   31.9290   40.4720 N   0  0  0  0  0  0  0  0  0  0  0  0
   37.2130   30.9060   41.0340 C   0  0  0  0  0  0  0  0  0  0  0  0
  1  4  1  6  0  0  0
  1  3  1  0  0  0  0
  1 25  1  0  0  0  0
  2  1  1  0  0  0  0
  2  5  1  0  0  0  0
  2  3  1  0  0  0  0
  3  7  1  1  0  0  0
  6  2  1  0  0  0  0
  8  9  1  0  0  0  0
  8  3  1  0  0  0  0
  9 18  1  0  0  0  0
 10 19  1  0  0  0  0
 10  9  2  0  0  0  0
 11 10  1  0  0  0  0
 12 11  2  0  0  0  0
 13 12  1  0  0  0  0
 14 13  2  0  0  0  0
 14 15  1  0  0  0  0
 15 16  2  0  0  0  0
 16 11  1  0  0  0  0
 16 17  1  0  0  0  0
 17  8  2  0  0  0  0
 20 13  1  0  0  0  0
 21 14  1  0  0  0  0
 22 15  1  0  0  0  0
 23 17  1  0  0  0  0
 24 29  1  0  0  0  0
 25 24  2  0  0  0  0
 26 25  1  0  0  0  0
 26 27  2  0  0  0  0
 27 28  1  0  0  0  0
 28 29  2  0  0  0  0
 28 33  1  0  0  0  0
 30 24  1  0  0  0  0
 31 26  1  0  0  0  0
 32 39  1  0  0  0  0
 33 32  2  0  0  0  0
 33 34  1  0  0  0  0
 34 36  2  0  0  0  0
 35 34  1  0  0  0  0
 36 38  1  0  0  0  0
 36 37  1  0  0  0  0
 39 38  2  0  0  0  0
 40 41  3  0  0  0  0
 41 32  1  0  0  0  0
M  END
>  <minimizedAffinity>
-6.71436357

$$$$

 OpenBabel03252503223D

 41 45  0  0  1  0  0  0  0  0999 V2000
   34.6100   29.2390   37.5370 C   0  0  1  0  0  0  0  0  0  0  0  0
   34.3440   28.4930   36.3230 C   0  0  0  0  0  0  0  0  0  0  0  0
   33.2650   28.5920   37.3730 C   0  0  2  0  0  0  0  0  0  0  0  0
   34.6900   30.3450   37.4950 H   0  0  0  0  0  0  0  0  0  0  0  0
   34.8180   27.4790   36.2270 H   0  0  0  0  0  0  0  0  0  0  0  0
   34.1410   28.9910   35.3670 H   0  0  0  0  0  0  0  0  0  0  0  0
   33.0560   27.7090   37.9940 H   0  0  0  0  0  0  0  0  0  0  0  0
   32.1470   29.5170   37.0680 C   0  0  0  0  0  0  0  0  0  0  0  0
   31.1750   29.8990   37.9900 C   0  0  0  0  0  0  0  0  0  0  0  0
   30.1680   30.7840   37.6440 C   0  0  0  0  0  0  0  0  0  0  0  0
   30.1120   31.3070   36.3720 C   0  0  0  0  0  0  0  0  0  0  0  0
   29.1420   32.1850   35.9900 N   0  0  0  0  0  0  0  0  0  0  0  0
   29.1090   32.6900   34.7380 C   0  0  0  0  0  0  0  0  0  0  0  0
   30.0490   32.3590   33.7480 C   0  0  0  0  0  0  0  0  0  0  0  0
   31.0440   31.4640   34.1210 C   0  0  0  0  0  0  0  0  0  0  0  0
   31.0630   30.9570   35.4080 C   0  0  0  0  0  0  0  0  0  0  0  0
   32.0490   30.0660   35.8030 C   0  0  0  0  0  0  0  0  0  0  0  0
   31.2290   29.4860   38.9770 H   0  0  0  0  0  0  0  0  0  0  0  0
   29.4120   31.0860   38.3470 H   0  0  0  0  0  0  0  0  0  0  0  0
   28.3440   33.3880   34.4190 H   0  0  0  0  0  0  0  0  0  0  0  0
   29.9760   32.7930   32.7590 H   0  0  0  0  0  0  0  0  0  0  0  0
   31.7810   31.1930   33.3810 H   0  0  0  0  0  0  0  0  0  0  0  0
   32.7290   29.8420   34.9910 H   0  0  0  0  0  0  0  0  0  0  0  0
   35.1710   28.8810   39.9710 C   0  0  0  0  0  0  0  0  0  0  0  0
   35.5130   28.7050   38.5940 C   0  0  0  0  0  0  0  0  0  0  0  0
   36.6930   28.0520   38.2880 C   0  0  0  0  0  0  0  0  0  0  0  0
   37.4570   27.6210   39.3330 N   0  0  0  0  0  0  0  0  0  0  0  0
   37.1250   27.7950   40.6230 C   0  0  0  0  0  0  0  0  0  0  0  0
   35.9740   28.4300   40.9470 N   0  0  0  0  0  0  0  0  0  0  0  0
   34.2220   29.4060   40.1430 H   0  0  0  0  0  0  0  0  0  0  0  0
   36.9820   27.8990   37.2650 H   0  0  0  0  0  0  0  0  0  0  0  0
   37.9970   25.9570   42.0010 C   0  0  0  0  0  0  0  0  0  0  0  0
   38.0110   27.2980   41.6760 C   0  0  0  0  0  0  0  0  0  0  0  0
   38.8390   28.2020   42.3120 C   0  0  0  0  0  0  0  0  0  0  0  0
   38.8590   29.2510   42.0650 H   0  0  0  0  0  0  0  0  0  0  0  0
   39.6950   27.8030   43.3080 C   0  0  0  0  0  0  0  0  0  0  0  0
   40.3830   28.4230   43.8670 H   0  0  0  0  0  0  0  0  0  0  0  0
   39.6980   26.4490   43.6540 C   0  0  0  0  0  3  0  0  0  0  0  0
   38.8600   25.5690   43.0030 C   0  0  0  0  0  3  0  0  0  0  0  0
   36.4380   24.2730   40.7740 N   0  0  0  0  0  0  0  0  0  0  0  0
   37.1300   25.0320   41.3310 C   0  0  0  0  0  0  0  0  0  0  0  0
  1  4  1  6  0  0  0
  1 25  1  0  0  0  0
  2  3  1  0  0  0  0
  2  1  1  0  0  0  0
  3  1  1  0  0  0  0
  3  7  1  1  0  0  0
  5  2  1  0  0  0  0
  6  2  1  0  0  0  0
  8  3  1  0  0  0  0
  8  9  1  0  0  0  0
  9 18  1  0  0  0  0
 10  9  2  0  0  0  0
 10 19  1  0  0  0  0
 11 10  1  0  0  0  0
 12 11  1  0  0  0  0
 13 12  2  0  0  0  0
 14 15  2  0  0  0  0
 14 13  1  0  0  0  0
 15 16  1  0  0  0  0
 16 17  1  0  0  0  0
 16 11  2  0  0  0  0
 17  8  2  0  0  0  0
 20 13  1  0  0  0  0
 21 14  1  0  0  0  0
 22 15  1  0  0  0  0
 23 17  1  0  0  0  0
 24 30  1  0  0  0  0
 24 29  1  0  0  0  0
 25 24  2  0  0  0  0
 26 25  1  0  0  0  0
 26 27  2  0  0  0  0
 27 28  1  0  0  0  0
 28 29  2  0  0  0  0
 28 33  1  0  0  0  0
 31 26  1  0  0  0  0
 32 39  1  0  0  0  0
 33 32  2  0  0  0  0
 33 34  1  0  0  0  0
 34 36  2  0  0  0  0
 35 34  1  0  0  0  0
 36 38  1  0  0  0  0
 36 37  1  0  0  0  0
 39 38  2  0  0  0  0
 40 41  3  0  0  0  0
 41 32  1  0  0  0  0
M  END
>  <minimizedAffinity>
-6.52710724

$$$$

 OpenBabel03252503223D

 41 45  0  0  1  0  0  0  0  0999 V2000
   34.6310   29.2780   37.5550 C   0  0  1  0  0  0  0  0  0  0  0  0
   34.3610   28.5140   36.3520 C   0  0  0  0  0  0  0  0  0  0  0  0
   33.2900   28.6180   37.4090 C   0  0  2  0  0  0  0  0  0  0  0  0
   34.7020   30.3840   37.4980 H   0  0  0  0  0  0  0  0  0  0  0  0
   34.8430   27.5030   36.2650 H   0  0  0  0  0  0  0  0  0  0  0  0
   34.1460   28.9980   35.3910 H   0  0  0  0  0  0  0  0  0  0  0  0
   33.0940   27.7410   38.0440 H   0  0  0  0  0  0  0  0  0  0  0  0
   32.1620   29.5300   37.1020 C   0  0  0  0  0  0  0  0  0  0  0  0
   31.1850   29.9030   38.0220 C   0  0  0  0  0  0  0  0  0  0  0  0
   30.1680   30.7760   37.6740 C   0  0  0  0  0  0  0  0  0  0  0  0
   30.1070   31.2960   36.4010 C   0  0  0  0  0  0  0  0  0  0  0  0
   29.1280   32.1620   36.0170 N   0  0  0  0  0  0  0  0  0  0  0  0
   29.0900   32.6650   34.7640 C   0  0  0  0  0  0  0  0  0  0  0  0
   30.0350   32.3430   33.7750 C   0  0  0  0  0  0  0  0  0  0  0  0
   31.0400   31.4600   34.1500 C   0  0  0  0  0  0  0  0  0  0  0  0
   31.0630   30.9550   35.4390 C   0  0  0  0  0  0  0  0  0  0  0  0
   32.0590   30.0760   35.8360 C   0  0  0  0  0  0  0  0  0  0  0  0
   31.2420   29.4920   39.0110 H   0  0  0  0  0  0  0  0  0  0  0  0
   29.4080   31.0710   38.3760 H   0  0  0  0  0  0  0  0  0  0  0  0
   28.3190   33.3540   34.4430 H   0  0  0  0  0  0  0  0  0  0  0  0
   29.9580   32.7740   32.7860 H   0  0  0  0  0  0  0  0  0  0  0  0
   31.7810   31.1960   33.4110 H   0  0  0  0  0  0  0  0  0  0  0  0
   32.7420   29.8580   35.0250 H   0  0  0  0  0  0  0  0  0  0  0  0
   35.1950   28.9210   39.9880 C   0  0  0  0  0  0  0  0  0  0  0  0
   35.5470   28.7650   38.6110 C   0  0  0  0  0  0  0  0  0  0  0  0
   36.7480   28.1520   38.3040 C   0  0  0  0  0  0  0  0  0  0  0  0
   37.5220   27.7370   39.3480 N   0  0  0  0  0  0  0  0  0  0  0  0
   37.1800   27.8920   40.6380 C   0  0  0  0  0  0  0  0  0  0  0  0
   36.0080   28.4880   40.9630 N   0  0  0  0  0  0  0  0  0  0  0  0
   34.2290   29.4140   40.1600 H   0  0  0  0  0  0  0  0  0  0  0  0
   37.0450   28.0160   37.2810 H   0  0  0  0  0  0  0  0  0  0  0  0
   38.9130   28.3090   42.3300 C   0  0  0  0  0  0  0  0  0  0  0  0
   38.0770   27.4150   41.6910 C   0  0  0  0  0  0  0  0  0  0  0  0
   38.0530   26.0720   42.0100 C   0  0  0  0  0  0  0  0  0  0  0  0
   37.4030   25.3650   41.5190 H   0  0  0  0  0  0  0  0  0  0  0  0
   38.8680   25.5580   42.9870 C   0  0  0  0  0  0  0  0  0  0  0  0
   38.9290   24.5290   43.3150 H   0  0  0  0  0  0  0  0  0  0  0  0
   39.7230   26.4440   43.6480 C   0  0  0  0  0  3  0  0  0  0  0  0
   39.7270   27.7810   43.3090 C   0  0  0  0  0  3  0  0  0  0  0  0
   38.9250   30.8390   41.7200 N   0  0  0  0  0  0  0  0  0  0  0  0
   38.9270   29.7010   41.9860 C   0  0  0  0  0  0  0  0  0  0  0  0
  1  4  1  6  0  0  0
  1 25  1  0  0  0  0
  2  3  1  0  0  0  0
  2  1  1  0  0  0  0
  3  1  1  0  0  0  0
  3  7  1  1  0  0  0
  5  2  1  0  0  0  0
  6  2  1  0  0  0  0
  8  3  1  0  0  0  0
  8  9  1  0  0  0  0
  9 18  1  0  0  0  0
 10  9  2  0  0  0  0
 10 19  1  0  0  0  0
 11 10  1  0  0  0  0
 12 11  1  0  0  0  0
 13 12  2  0  0  0  0
 14 15  2  0  0  0  0
 14 13  1  0  0  0  0
 15 16  1  0  0  0  0
 16 17  1  0  0  0  0
 16 11  2  0  0  0  0
 17  8  2  0  0  0  0
 20 13  1  0  0  0  0
 21 14  1  0  0  0  0
 22 15  1  0  0  0  0
 23 17  1  0  0  0  0
 24 30  1  0  0  0  0
 24 29  1  0  0  0  0
 25 24  2  0  0  0  0
 26 25  1  0  0  0  0
 26 27  2  0  0  0  0
 27 28  1  0  0  0  0
 28 29  2  0  0  0  0
 28 33  1  0  0  0  0
 31 26  1  0  0  0  0
 32 39  1  0  0  0  0
 33 34  1  0  0  0  0
 33 32  2  0  0  0  0
 34 36  2  0  0  0  0
 35 34  1  0  0  0  0
 36 37  1  0  0  0  0
 36 38  1  0  0  0  0
 39 38  2  0  0  0  0
 40 41  3  0  0  0  0
 41 32  1  0  0  0  0
M  END
>  <minimizedAffinity>
-6.46535349

$$$$

 OpenBabel03252503223D

 41 45  0  0  1  0  0  0  0  0999 V2000
   37.9780   28.2270   41.8850 C   0  0  1  0  0  0  0  0  0  0  0  0
   36.5910   27.9550   42.2080 C   0  0  0  0  0  0  0  0  0  0  0  0
   37.1380   27.4930   40.8800 C   0  0  2  0  0  0  0  0  0  0  0  0
   38.7820   27.6830   42.4220 H   0  0  0  0  0  0  0  0  0  0  0  0
   35.8700   28.8150   42.1490 H   0  0  0  0  0  0  0  0  0  0  0  0
   36.3010   27.1690   42.9170 H   0  0  0  0  0  0  0  0  0  0  0  0
   36.8470   28.0440   39.9740 H   0  0  0  0  0  0  0  0  0  0  0  0
   37.4110   26.0400   40.7620 C   0  0  0  0  0  0  0  0  0  0  0  0
   38.4290   25.3780   41.4430 C   0  0  0  0  0  0  0  0  0  0  0  0
   38.6160   24.0130   41.3020 C   0  0  0  0  0  0  0  0  0  0  0  0
   37.7890   23.2820   40.4790 C   0  0  0  0  0  0  0  0  0  0  0  0
   37.9340   21.9370   40.3150 N   0  0  0  0  0  0  0  0  0  0  0  0
   37.1070   21.2380   39.5070 C   0  0  0  0  0  0  0  0  0  0  0  0
   36.0550   21.8260   38.7840 C   0  0  0  0  0  0  0  0  0  0  0  0
   35.8950   23.1970   38.9400 C   0  0  0  0  0  0  0  0  0  0  0  0
   36.7510   23.8980   39.7730 C   0  0  0  0  0  0  0  0  0  0  0  0
   36.6070   25.2650   39.9460 C   0  0  0  0  0  0  0  0  0  0  0  0
   39.0670   25.9570   42.0810 H   0  0  0  0  0  0  0  0  0  0  0  0
   39.3990   23.4910   41.8220 H   0  0  0  0  0  0  0  0  0  0  0  0
   37.2090   20.1690   39.3650 H   0  0  0  0  0  0  0  0  0  0  0  0
   35.4230   21.2190   38.1500 H   0  0  0  0  0  0  0  0  0  0  0  0
   35.0940   23.6760   38.3980 H   0  0  0  0  0  0  0  0  0  0  0  0
   35.7920   25.6570   39.3510 H   0  0  0  0  0  0  0  0  0  0  0  0
   38.0460   30.1800   40.2890 C   0  0  0  0  0  0  0  0  0  0  0  0
   38.4390   29.5990   41.5350 C   0  0  0  0  0  0  0  0  0  0  0  0
   39.2570   30.3320   42.3730 C   0  0  0  0  0  0  0  0  0  0  0  0
   39.6390   31.5710   41.9460 N   0  0  0  0  0  0  0  0  0  0  0  0
   39.2630   32.1040   40.7720 C   0  0  0  0  0  0  0  0  0  0  0  0
   38.4610   31.4050   39.9350 N   0  0  0  0  0  0  0  0  0  0  0  0
   37.3950   29.5440   39.6730 H   0  0  0  0  0  0  0  0  0  0  0  0
   39.5720   29.9300   43.3180 H   0  0  0  0  0  0  0  0  0  0  0  0
   40.9890   33.6030   39.8690 C   0  0  0  0  0  0  0  0  0  0  0  0
   39.7250   33.4420   40.3990 C   0  0  0  0  0  0  0  0  0  0  0  0
   38.8660   34.5050   40.5940 C   0  0  0  0  0  0  0  0  0  0  0  0
   37.8760   34.3910   41.0050 H   0  0  0  0  0  0  0  0  0  0  0  0
   39.2350   35.7860   40.2650 C   0  0  0  0  0  0  0  0  0  0  0  0
   38.6440   36.6860   40.3750 H   0  0  0  0  0  0  0  0  0  0  0  0
   40.5110   35.9740   39.7270 C   0  0  0  0  0  3  0  0  0  0  0  0
   41.3480   34.8930   39.5450 C   0  0  0  0  0  3  0  0  0  0  0  0
   42.6000   31.5910   39.5130 N   0  0  0  0  0  0  0  0  0  0  0  0
   41.8690   32.4870   39.6750 C   0  0  0  0  0  0  0  0  0  0  0  0
  1  2  1  0  0  0  0
  1  4  1  1  0  0  0
  2  6  1  0  0  0  0
  3  7  1  6  0  0  0
  3  1  1  0  0  0  0
  3  2  1  0  0  0  0
  5  2  1  0  0  0  0
  8  3  1  0  0  0  0
  8  9  1  0  0  0  0
  9 18  1  0  0  0  0
 10  9  2  0  0  0  0
 10 19  1  0  0  0  0
 11 10  1  0  0  0  0
 12 11  1  0  0  0  0
 13 12  2  0  0  0  0
 14 15  2  0  0  0  0
 14 13  1  0  0  0  0
 15 16  1  0  0  0  0
 16 17  1  0  0  0  0
 16 11  2  0  0  0  0
 17  8  2  0  0  0  0
 20 13  1  0  0  0  0
 21 14  1  0  0  0  0
 22 15  1  0  0  0  0
 23 17  1  0  0  0  0
 24 25  1  0  0  0  0
 25  1  1  0  0  0  0
 25 26  2  0  0  0  0
 26 31  1  0  0  0  0
 27 26  1  0  0  0  0
 28 27  2  0  0  0  0
 29 24  2  0  0  0  0
 29 28  1  0  0  0  0
 30 24  1  0  0  0  0
 32 33  1  0  0  0  0
 33 34  2  0  0  0  0
 33 28  1  0  0  0  0
 34 35  1  0  0  0  0
 36 37  1  0  0  0  0
 36 34  1  0  0  0  0
 38 36  2  0  0  0  0
 39 38  1  0  0  0  0
 39 32  2  0  0  0  0
 40 41  3  0  0  0  0
 41 32  1  0  0  0  0
M  END
>  <minimizedAffinity>
-6.30700541

$$$$

 OpenBabel03252503223D

 41 45  0  0  1  0  0  0  0  0999 V2000
   36.0900   28.9110   39.8800 C   0  0  1  0  0  0  0  0  0  0  0  0
   34.7230   28.9030   39.3970 C   0  0  0  0  0  0  0  0  0  0  0  0
   35.8010   28.2760   38.5510 C   0  0  2  0  0  0  0  0  0  0  0  0
   36.3720   28.2690   40.7390 H   0  0  0  0  0  0  0  0  0  0  0  0
   34.3110   29.8700   38.9990 H   0  0  0  0  0  0  0  0  0  0  0  0
   33.9650   28.2220   39.8060 H   0  0  0  0  0  0  0  0  0  0  0  0
   36.1430   28.8140   37.6540 H   0  0  0  0  0  0  0  0  0  0  0  0
   35.8320   26.7930   38.5330 C   0  0  0  0  0  0  0  0  0  0  0  0
   35.0780   26.0050   37.6680 C   0  0  0  0  0  0  0  0  0  0  0  0
   35.1700   24.6240   37.6910 C   0  0  0  0  0  0  0  0  0  0  0  0
   36.0190   24.0020   38.5780 C   0  0  0  0  0  0  0  0  0  0  0  0
   36.1450   22.6460   38.6320 N   0  0  0  0  0  0  0  0  0  0  0  0
   36.9890   22.0560   39.5070 C   0  0  0  0  0  0  0  0  0  0  0  0
   37.7860   22.7740   40.4130 C   0  0  0  0  0  0  0  0  0  0  0  0
   37.6680   24.1580   40.3720 C   0  0  0  0  0  0  0  0  0  0  0  0
   36.7990   24.7450   39.4690 C   0  0  0  0  0  0  0  0  0  0  0  0
   36.6690   26.1240   39.4070 C   0  0  0  0  0  0  0  0  0  0  0  0
   34.4200   26.5010   36.9810 H   0  0  0  0  0  0  0  0  0  0  0  0
   34.5920   24.0050   37.0280 H   0  0  0  0  0  0  0  0  0  0  0  0
   37.1000   20.9800   39.5620 H   0  0  0  0  0  0  0  0  0  0  0  0
   38.4450   22.2510   41.0930 H   0  0  0  0  0  0  0  0  0  0  0  0
   38.2700   24.7350   41.0560 H   0  0  0  0  0  0  0  0  0  0  0  0
   37.2960   26.6150   40.1410 H   0  0  0  0  0  0  0  0  0  0  0  0
   37.0110   30.9420   38.6990 C   0  0  0  0  0  0  0  0  0  0  0  0
   36.9010   30.1600   39.8910 C   0  0  0  0  0  0  0  0  0  0  0  0
   37.5750   30.5850   41.0200 C   0  0  0  0  0  0  0  0  0  0  0  0
   38.3070   31.7320   40.9160 N   0  0  0  0  0  0  0  0  0  0  0  0
   38.4030   32.4560   39.7890 C   0  0  0  0  0  0  0  0  0  0  0  0
   37.7500   32.0610   38.6710 N   0  0  0  0  0  0  0  0  0  0  0  0
   36.4500   30.5480   37.8400 H   0  0  0  0  0  0  0  0  0  0  0  0
   37.5160   30.0250   41.9350 H   0  0  0  0  0  0  0  0  0  0  0  0
   40.5310   33.6090   39.3650 C   0  0  0  0  0  0  0  0  0  0  0  0
   39.2140   33.6740   39.7730 C   0  0  0  0  0  0  0  0  0  0  0  0
   38.6230   34.8570   40.1710 C   0  0  0  0  0  0  0  0  0  0  0  0
   37.5950   34.9190   40.4890 H   0  0  0  0  0  0  0  0  0  0  0  0
   39.3270   36.0350   40.1800 C   0  0  0  0  0  0  0  0  0  0  0  0
   38.9640   37.0130   40.4700 H   0  0  0  0  0  0  0  0  0  0  0  0
   40.6630   35.9940   39.7710 C   0  0  0  0  0  3  0  0  0  0  0  0
   41.2270   34.7980   39.3790 C   0  0  0  0  0  3  0  0  0  0  0  0
   41.6020   31.3600   38.6130 N   0  0  0  0  0  0  0  0  0  0  0  0
   41.1300   32.3720   38.9560 C   0  0  0  0  0  0  0  0  0  0  0  0
  1 25  1  0  0  0  0
  1  4  1  1  0  0  0
  2  6  1  0  0  0  0
  2  1  1  0  0  0  0
  3  7  1  6  0  0  0
  3  2  1  0  0  0  0
  3  1  1  0  0  0  0
  5  2  1  0  0  0  0
  8  3  1  0  0  0  0
  8 17  1  0  0  0  0
  9 10  1  0  0  0  0
  9  8  2  0  0  0  0
 10 11  2  0  0  0  0
 11 12  1  0  0  0  0
 11 16  1  0  0  0  0
 12 13  2  0  0  0  0
 13 20  1  0  0  0  0
 13 14  1  0  0  0  0
 14 21  1  0  0  0  0
 15 14  2  0  0  0  0
 15 22  1  0  0  0  0
 16 15  1  0  0  0  0
 17 16  2  0  0  0  0
 17 23  1  0  0  0  0
 18  9  1  0  0  0  0
 19 10  1  0  0  0  0
 24 25  1  0  0  0  0
 25 26  2  0  0  0  0
 26 31  1  0  0  0  0
 27 26  1  0  0  0  0
 28 27  2  0  0  0  0
 29 24  2  0  0  0  0
 29 28  1  0  0  0  0
 30 24  1  0  0  0  0
 32 39  2  0  0  0  0
 32 33  1  0  0  0  0
 33 28  1  0  0  0  0
 33 34  2  0  0  0  0
 34 36  1  0  0  0  0
 34 35  1  0  0  0  0
 36 37  1  0  0  0  0
 38 36  2  0  0  0  0
 39 38  1  0  0  0  0
 40 41  3  0  0  0  0
 41 32  1  0  0  0  0
M  END
>  <minimizedAffinity>
-6.11309004

$$$$

 OpenBabel03252503223D

 41 45  0  0  1  0  0  0  0  0999 V2000
   38.4050   27.7010   42.0880 C   0  0  1  0  0  0  0  0  0  0  0  0
   37.0690   27.4970   42.6140 C   0  0  0  0  0  0  0  0  0  0  0  0
   37.3620   27.1030   41.1880 C   0  0  2  0  0  0  0  0  0  0  0  0
   39.2400   27.0660   42.4500 H   0  0  0  0  0  0  0  0  0  0  0  0
   36.4170   28.4040   42.7300 H   0  0  0  0  0  0  0  0  0  0  0  0
   36.8360   26.6790   43.3080 H   0  0  0  0  0  0  0  0  0  0  0  0
   36.9750   27.7410   40.3790 H   0  0  0  0  0  0  0  0  0  0  0  0
   37.5010   25.6490   40.9320 C   0  0  0  0  0  0  0  0  0  0  0  0
   38.5070   24.8520   41.4710 C   0  0  0  0  0  0  0  0  0  0  0  0
   38.5660   23.4940   41.2070 C   0  0  0  0  0  0  0  0  0  0  0  0
   37.6200   22.9050   40.4000 C   0  0  0  0  0  0  0  0  0  0  0  0
   37.6370   21.5720   40.1170 N   0  0  0  0  0  0  0  0  0  0  0  0
   36.6940   21.0120   39.3260 C   0  0  0  0  0  0  0  0  0  0  0  0
   35.6450   21.7410   38.7430 C   0  0  0  0  0  0  0  0  0  0  0  0
   35.6150   23.1030   39.0200 C   0  0  0  0  0  0  0  0  0  0  0  0
   36.5880   23.6590   39.8330 C   0  0  0  0  0  0  0  0  0  0  0  0
   36.5740   25.0140   40.1260 C   0  0  0  0  0  0  0  0  0  0  0  0
   39.2390   25.3230   42.0990 H   0  0  0  0  0  0  0  0  0  0  0  0
   39.3390   22.8690   41.6180 H   0  0  0  0  0  0  0  0  0  0  0  0
   36.6940   19.9550   39.0920 H   0  0  0  0  0  0  0  0  0  0  0  0
   34.9170   21.2440   38.1170 H   0  0  0  0  0  0  0  0  0  0  0  0
   34.8190   23.6880   38.5860 H   0  0  0  0  0  0  0  0  0  0  0  0
   35.7530   25.5180   39.6330 H   0  0  0  0  0  0  0  0  0  0  0  0
   39.2400   29.3850   40.4050 C   0  0  0  0  0  0  0  0  0  0  0  0
   38.9080   29.0630   41.7590 C   0  0  0  0  0  0  0  0  0  0  0  0
   39.0870   30.0330   42.7270 C   0  0  0  0  0  0  0  0  0  0  0  0
   39.5740   31.2410   42.3210 N   0  0  0  0  0  0  0  0  0  0  0  0
   39.8830   31.5290   41.0460 C   0  0  0  0  0  0  0  0  0  0  0  0
   39.7160   30.5970   40.0790 N   0  0  0  0  0  0  0  0  0  0  0  0
   39.0740   28.5710   39.6870 H   0  0  0  0  0  0  0  0  0  0  0  0
   38.8470   29.8280   43.7550 H   0  0  0  0  0  0  0  0  0  0  0  0
   39.5510   33.8030   40.1740 C   0  0  0  0  0  0  0  0  0  0  0  0
   40.4020   32.8540   40.7050 C   0  0  0  0  0  0  0  0  0  0  0  0
   41.7400   33.1090   40.9320 C   0  0  0  0  0  0  0  0  0  0  0  0
   42.4130   32.3760   41.3480 H   0  0  0  0  0  0  0  0  0  0  0  0
   42.2910   34.3310   40.6360 C   0  0  0  0  0  0  0  0  0  0  0  0
   43.3210   34.6350   40.7740 H   0  0  0  0  0  0  0  0  0  0  0  0
   41.4500   35.3070   40.0980 C   0  0  0  0  0  3  0  0  0  0  0  0
   40.1170   35.0250   39.8810 C   0  0  0  0  0  3  0  0  0  0  0  0
   37.0340   33.3070   39.7420 N   0  0  0  0  0  0  0  0  0  0  0  0
   38.1640   33.5220   39.9440 C   0  0  0  0  0  0  0  0  0  0  0  0
  1  4  1  1  0  0  0
  1  2  1  0  0  0  0
  2  5  1  0  0  0  0
  2  6  1  0  0  0  0
  3  7  1  6  0  0  0
  3  1  1  0  0  0  0
  3  2  1  0  0  0  0
  8  3  1  0  0  0  0
  8  9  1  0  0  0  0
  9 18  1  0  0  0  0
 10  9  2  0  0  0  0
 10 19  1  0  0  0  0
 11 10  1  0  0  0  0
 12 11  1  0  0  0  0
 13 12  2  0  0  0  0
 14 15  2  0  0  0  0
 14 13  1  0  0  0  0
 15 16  1  0  0  0  0
 16 17  1  0  0  0  0
 16 11  2  0  0  0  0
 17  8  2  0  0  0  0
 20 13  1  0  0  0  0
 21 14  1  0  0  0  0
 22 15  1  0  0  0  0
 23 17  1  0  0  0  0
 24 25  1  0  0  0  0
 25  1  1  0  0  0  0
 25 26  2  0  0  0  0
 26 31  1  0  0  0  0
 27 26  1  0  0  0  0
 28 27  2  0  0  0  0
 29 24  2  0  0  0  0
 29 28  1  0  0  0  0
 30 24  1  0  0  0  0
 32 33  1  0  0  0  0
 33 34  2  0  0  0  0
 33 28  1  0  0  0  0
 34 35  1  0  0  0  0
 36 37  1  0  0  0  0
 36 34  1  0  0  0  0
 38 36  2  0  0  0  0
 39 38  1  0  0  0  0
 39 32  2  0  0  0  0
 40 41  3  0  0  0  0
 41 32  1  0  0  0  0
M  END
>  <minimizedAffinity>
-6.04809093

$$$$

 OpenBabel03252503223D

 41 45  0  0  1  0  0  0  0  0999 V2000
   37.2610   28.1220   42.1260 C   0  0  1  0  0  0  0  0  0  0  0  0
   36.7720   27.3060   43.2210 C   0  0  0  0  0  0  0  0  0  0  0  0
   37.8530   26.7570   42.3250 C   0  0  2  0  0  0  0  0  0  0  0  0
   37.8770   29.0190   42.3440 H   0  0  0  0  0  0  0  0  0  0  0  0
   35.7640   26.8260   43.0940 H   0  0  0  0  0  0  0  0  0  0  0  0
   37.0530   27.5010   44.2630 H   0  0  0  0  0  0  0  0  0  0  0  0
   37.5820   25.9830   41.5910 H   0  0  0  0  0  0  0  0  0  0  0  0
   39.2200   26.7330   42.8980 C   0  0  0  0  0  0  0  0  0  0  0  0
   39.7950   25.6170   43.5020 C   0  0  0  0  0  0  0  0  0  0  0  0
   41.0870   25.6570   44.0000 C   0  0  0  0  0  0  0  0  0  0  0  0
   41.8310   26.8110   43.9030 C   0  0  0  0  0  0  0  0  0  0  0  0
   43.1070   26.8940   44.3740 N   0  0  0  0  0  0  0  0  0  0  0  0
   43.8220   28.0350   44.2620 C   0  0  0  0  0  0  0  0  0  0  0  0
   43.3200   29.2040   43.6670 C   0  0  0  0  0  0  0  0  0  0  0  0
   42.0190   29.1370   43.1830 C   0  0  0  0  0  0  0  0  0  0  0  0
   41.3010   27.9590   43.3050 C   0  0  0  0  0  0  0  0  0  0  0  0
   40.0040   27.8690   42.8250 C   0  0  0  0  0  0  0  0  0  0  0  0
   39.2060   24.7240   43.5730 H   0  0  0  0  0  0  0  0  0  0  0  0
   41.5410   24.8020   44.4690 H   0  0  0  0  0  0  0  0  0  0  0  0
   44.8360   28.1160   44.6320 H   0  0  0  0  0  0  0  0  0  0  0  0
   43.9350   30.0920   43.6050 H   0  0  0  0  0  0  0  0  0  0  0  0
   41.6080   30.0200   42.7190 H   0  0  0  0  0  0  0  0  0  0  0  0
   39.6740   28.8060   42.3950 H   0  0  0  0  0  0  0  0  0  0  0  0
   36.3980   27.3530   39.8840 C   0  0  0  0  0  0  0  0  0  0  0  0
   36.4420   28.3530   40.9040 C   0  0  0  0  0  0  0  0  0  0  0  0
   35.7290   29.5210   40.7100 C   0  0  0  0  0  0  0  0  0  0  0  0
   35.0280   29.6400   39.5460 N   0  0  0  0  0  0  0  0  0  0  0  0
   34.9970   28.6920   38.5940 C   0  0  0  0  0  0  0  0  0  0  0  0
   35.6870   27.5390   38.7620 N   0  0  0  0  0  0  0  0  0  0  0  0
   36.9860   26.4500   40.1020 H   0  0  0  0  0  0  0  0  0  0  0  0
   35.7360   30.2950   41.4560 H   0  0  0  0  0  0  0  0  0  0  0  0
   34.8640   28.9900   36.1580 C   0  0  0  0  0  0  0  0  0  0  0  0
   34.2180   28.9100   37.3750 C   0  0  0  0  0  0  0  0  0  0  0  0
   32.8460   29.0280   37.4910 C   0  0  0  0  0  0  0  0  0  0  0  0
   32.3310   28.9660   38.4360 H   0  0  0  0  0  0  0  0  0  0  0  0
   32.0550   29.2330   36.3880 C   0  0  0  0  0  0  0  0  0  0  0  0
   30.9780   29.3380   36.3660 H   0  0  0  0  0  0  0  0  0  0  0  0
   32.6870   29.3180   35.1450 C   0  0  0  0  0  3  0  0  0  0  0  0
   34.0580   29.1970   35.0590 C   0  0  0  0  0  3  0  0  0  0  0  0
   37.4510   28.7850   35.9660 N   0  0  0  0  0  0  0  0  0  0  0  0
   36.2890   28.8670   36.0560 C   0  0  0  0  0  0  0  0  0  0  0  0
  1  3  1  0  0  0  0
  1  4  1  1  0  0  0
  1  2  1  0  0  0  0
  2  6  1  0  0  0  0
  3  7  1  6  0  0  0
  3  8  1  0  0  0  0
  3  2  1  0  0  0  0
  5  2  1  0  0  0  0
  8  9  1  0  0  0  0
  9 18  1  0  0  0  0
  9 10  2  0  0  0  0
 10 19  1  0  0  0  0
 11 10  1  0  0  0  0
 11 12  1  0  0  0  0
 13 12  2  0  0  0  0
 13 20  1  0  0  0  0
 14 13  1  0  0  0  0
 15 16  1  0  0  0  0
 15 14  2  0  0  0  0
 16 11  2  0  0  0  0
 17  8  2  0  0  0  0
 17 16  1  0  0  0  0
 21 14  1  0  0  0  0
 22 15  1  0  0  0  0
 23 17  1  0  0  0  0
 24 30  1  0  0  0  0
 24 25  1  0  0  0  0
 25  1  1  0  0  0  0
 26 25  2  0  0  0  0
 26 31  1  0  0  0  0
 27 26  1  0  0  0  0
 28 29  1  0  0  0  0
 28 27  2  0  0  0  0
 29 24  2  0  0  0  0
 32 33  1  0  0  0  0
 33 34  2  0  0  0  0
 33 28  1  0  0  0  0
 34 35  1  0  0  0  0
 36 34  1  0  0  0  0
 37 36  1  0  0  0  0
 38 36  2  0  0  0  0
 39 38  1  0  0  0  0
 39 32  2  0  0  0  0
 40 41  3  0  0  0  0
 41 32  1  0  0  0  0
M  END
>  <minimizedAffinity>
-6.04563379

$$$$

 OpenBabel03252503223D

 41 45  0  0  1  0  0  0  0  0999 V2000
   38.3590   30.8750   38.4250 C   0  0  1  0  0  0  0  0  0  0  0  0
   37.6950   31.8080   37.5350 C   0  0  0  0  0  0  0  0  0  0  0  0
   37.6160   32.0350   39.0230 C   0  0  2  0  0  0  0  0  0  0  0  0
   39.4670   30.8580   38.4730 H   0  0  0  0  0  0  0  0  0  0  0  0
   36.7370   31.4690   37.0570 H   0  0  0  0  0  0  0  0  0  0  0  0
   38.2510   32.5560   36.9560 H   0  0  0  0  0  0  0  0  0  0  0  0
   36.6700   31.8100   39.5380 H   0  0  0  0  0  0  0  0  0  0  0  0
   38.4650   33.1270   39.5590 C   0  0  0  0  0  0  0  0  0  0  0  0
   38.0240   34.4330   39.7570 C   0  0  0  0  0  0  0  0  0  0  0  0
   38.8650   35.4010   40.2810 C   0  0  0  0  0  0  0  0  0  0  0  0
   40.1610   35.0840   40.6190 C   0  0  0  0  0  0  0  0  0  0  0  0
   41.0200   36.0030   41.1420 N   0  0  0  0  0  0  0  0  0  0  0  0
   42.2870   35.6680   41.4710 C   0  0  0  0  0  0  0  0  0  0  0  0
   42.8120   34.3760   41.3050 C   0  0  0  0  0  0  0  0  0  0  0  0
   41.9480   33.4270   40.7720 C   0  0  0  0  0  0  0  0  0  0  0  0
   40.6530   33.7870   40.4400 C   0  0  0  0  0  0  0  0  0  0  0  0
   39.7740   32.8550   39.9100 C   0  0  0  0  0  0  0  0  0  0  0  0
   37.0130   34.6690   39.4910 H   0  0  0  0  0  0  0  0  0  0  0  0
   38.5360   36.4130   40.4390 H   0  0  0  0  0  0  0  0  0  0  0  0
   42.9820   36.3870   41.8870 H   0  0  0  0  0  0  0  0  0  0  0  0
   43.8340   34.1620   41.5850 H   0  0  0  0  0  0  0  0  0  0  0  0
   42.3240   32.4250   40.6340 H   0  0  0  0  0  0  0  0  0  0  0  0
   40.2450   31.8880   39.7930 H   0  0  0  0  0  0  0  0  0  0  0  0
   38.5670   28.3680   38.2290 C   0  0  0  0  0  0  0  0  0  0  0  0
   37.8180   29.5080   38.6600 C   0  0  0  0  0  0  0  0  0  0  0  0
   36.5960   29.2990   39.2700 C   0  0  0  0  0  0  0  0  0  0  0  0
   36.1840   28.0070   39.4180 N   0  0  0  0  0  0  0  0  0  0  0  0
   36.8970   26.9450   39.0070 C   0  0  0  0  0  0  0  0  0  0  0  0
   38.0970   27.1250   38.4080 N   0  0  0  0  0  0  0  0  0  0  0  0
   39.5280   28.6060   37.7540 H   0  0  0  0  0  0  0  0  0  0  0  0
   36.0060   30.1310   39.6090 H   0  0  0  0  0  0  0  0  0  0  0  0
   36.6410   24.9260   40.3850 C   0  0  0  0  0  0  0  0  0  0  0  0
   36.3710   25.5940   39.2070 C   0  0  0  0  0  0  0  0  0  0  0  0
   35.6140   25.0330   38.1980 C   0  0  0  0  0  0  0  0  0  0  0  0
   35.3960   25.5460   37.2750 H   0  0  0  0  0  0  0  0  0  0  0  0
   35.0900   23.7700   38.3210 C   0  0  0  0  0  0  0  0  0  0  0  0
   34.4860   23.2380   37.5970 H   0  0  0  0  0  0  0  0  0  0  0  0
   35.3500   23.0740   39.5050 C   0  0  0  0  0  3  0  0  0  0  0  0
   36.1100   23.6590   40.4960 C   0  0  0  0  0  3  0  0  0  0  0  0
   38.0750   25.9930   42.2760 N   0  0  0  0  0  0  0  0  0  0  0  0
   37.4300   25.5240   41.4220 C   0  0  0  0  0  0  0  0  0  0  0  0
  1  4  1  1  0  0  0
  1 25  1  0  0  0  0
  1  3  1  0  0  0  0
  2  1  1  0  0  0  0
  2  3  1  0  0  0  0
  3  7  1  1  0  0  0
  3  8  1  0  0  0  0
  5  2  1  0  0  0  0
  6  2  1  0  0  0  0
  8  9  2  0  0  0  0
  8 17  1  0  0  0  0
  9 10  1  0  0  0  0
 10 19  1  0  0  0  0
 10 11  2  0  0  0  0
 11 12  1  0  0  0  0
 12 13  2  0  0  0  0
 13 20  1  0  0  0  0
 14 13  1  0  0  0  0
 14 21  1  0  0  0  0
 15 14  2  0  0  0  0
 16 11  1  0  0  0  0
 16 15  1  0  0  0  0
 17 16  2  0  0  0  0
 18  9  1  0  0  0  0
 22 15  1  0  0  0  0
 23 17  1  0  0  0  0
 24 29  2  0  0  0  0
 24 25  1  0  0  0  0
 25 26  2  0  0  0  0
 26 27  1  0  0  0  0
 26 31  1  0  0  0  0
 28 33  1  0  0  0  0
 28 27  2  0  0  0  0
 29 28  1  0  0  0  0
 30 24  1  0  0  0  0
 32 39  1  0  0  0  0
 32 41  1  0  0  0  0
 33 32  2  0  0  0  0
 34 36  2  0  0  0  0
 34 33  1  0  0  0  0
 35 34  1  0  0  0  0
 36 38  1  0  0  0  0
 37 36  1  0  0  0  0
 38 39  2  0  0  0  0
 41 40  3  0  0  0  0
M  END
>  <minimizedAffinity>
-5.94942379

$$$$

 OpenBabel03252503223D

 41 45  0  0  1  0  0  0  0  0999 V2000
   37.2760   29.0640   41.3650 C   0  0  1  0  0  0  0  0  0  0  0  0
   38.2400   29.3090   42.4200 C   0  0  0  0  0  0  0  0  0  0  0  0
   38.5910   29.6930   41.0040 C   0  0  2  0  0  0  0  0  0  0  0  0
   36.3510   29.6750   41.3160 H   0  0  0  0  0  0  0  0  0  0  0  0
   38.8000   28.4220   42.8210 H   0  0  0  0  0  0  0  0  0  0  0  0
   38.1250   30.1330   43.1350 H   0  0  0  0  0  0  0  0  0  0  0  0
   39.3100   29.0670   40.4550 H   0  0  0  0  0  0  0  0  0  0  0  0
   38.5410   31.1420   40.6940 C   0  0  0  0  0  0  0  0  0  0  0  0
   37.3810   31.8260   40.3400 C   0  0  0  0  0  0  0  0  0  0  0  0
   37.4000   33.1860   40.0820 C   0  0  0  0  0  0  0  0  0  0  0  0
   38.5790   33.8910   40.1750 C   0  0  0  0  0  0  0  0  0  0  0  0
   38.6430   35.2310   39.9350 N   0  0  0  0  0  0  0  0  0  0  0  0
   39.8100   35.9050   40.0380 C   0  0  0  0  0  0  0  0  0  0  0  0
   41.0250   35.2940   40.3900 C   0  0  0  0  0  0  0  0  0  0  0  0
   40.9770   33.9270   40.6360 C   0  0  0  0  0  0  0  0  0  0  0  0
   39.7720   33.2530   40.5270 C   0  0  0  0  0  0  0  0  0  0  0  0
   39.7000   31.8910   40.7730 C   0  0  0  0  0  0  0  0  0  0  0  0
   36.4690   31.2660   40.2700 H   0  0  0  0  0  0  0  0  0  0  0  0
   36.5110   33.7250   39.8070 H   0  0  0  0  0  0  0  0  0  0  0  0
   39.8770   36.9690   39.8500 H   0  0  0  0  0  0  0  0  0  0  0  0
   41.9310   35.8810   40.4570 H   0  0  0  0  0  0  0  0  0  0  0  0
   41.8950   33.4320   40.9100 H   0  0  0  0  0  0  0  0  0  0  0  0
   40.6710   31.4810   41.0220 H   0  0  0  0  0  0  0  0  0  0  0  0
   37.1780   26.5720   41.7430 C   0  0  0  0  0  0  0  0  0  0  0  0
   37.0040   27.6880   40.8660 C   0  0  0  0  0  0  0  0  0  0  0  0
   36.6040   27.4460   39.5660 C   0  0  0  0  0  0  0  0  0  0  0  0
   36.4020   26.1460   39.2050 N   0  0  0  0  0  0  0  0  0  0  0  0
   36.5700   25.1060   40.0390 C   0  0  0  0  0  0  0  0  0  0  0  0
   36.9610   25.3180   41.3180 N   0  0  0  0  0  0  0  0  0  0  0  0
   37.4960   26.8350   42.7610 H   0  0  0  0  0  0  0  0  0  0  0  0
   36.4610   28.2590   38.8780 H   0  0  0  0  0  0  0  0  0  0  0  0
   37.3990   22.9640   39.1650 C   0  0  0  0  0  0  0  0  0  0  0  0
   36.3310   23.7440   39.5610 C   0  0  0  0  0  0  0  0  0  0  0  0
   35.0290   23.2850   39.5240 C   0  0  0  0  0  0  0  0  0  0  0  0
   34.1880   23.8850   39.8320 H   0  0  0  0  0  0  0  0  0  0  0  0
   34.7340   22.0180   39.0870 C   0  0  0  0  0  0  0  0  0  0  0  0
   33.7560   21.5600   39.0190 H   0  0  0  0  0  0  0  0  0  0  0  0
   35.7990   21.2090   38.6810 C   0  0  0  0  0  3  0  0  0  0  0  0
   37.0890   21.6940   38.7280 C   0  0  0  0  0  3  0  0  0  0  0  0
   39.8350   23.8750   39.2420 N   0  0  0  0  0  0  0  0  0  0  0  0
   38.7450   23.4560   39.2090 C   0  0  0  0  0  0  0  0  0  0  0  0
  1  4  1  6  0  0  0
  1  2  1  0  0  0  0
  2  5  1  0  0  0  0
  2  6  1  0  0  0  0
  3  7  1  6  0  0  0
  3  1  1  0  0  0  0
  3  2  1  0  0  0  0
  8 17  1  0  0  0  0
  8  3  1  0  0  0  0
  9  8  2  0  0  0  0
 10 11  2  0  0  0  0
 10  9  1  0  0  0  0
 11 16  1  0  0  0  0
 12 13  2  0  0  0  0
 12 11  1  0  0  0  0
 13 14  1  0  0  0  0
 14 21  1  0  0  0  0
 14 15  2  0  0  0  0
 15 22  1  0  0  0  0
 16 15  1  0  0  0  0
 16 17  2  0  0  0  0
 17 23  1  0  0  0  0
 18  9  1  0  0  0  0
 19 10  1  0  0  0  0
 20 13  1  0  0  0  0
 24 30  1  0  0  0  0
 25  1  1  0  0  0  0
 25 24  2  0  0  0  0
 26 25  1  0  0  0  0
 27 26  2  0  0  0  0
 27 28  1  0  0  0  0
 28 29  2  0  0  0  0
 29 24  1  0  0  0  0
 31 26  1  0  0  0  0
 32 41  1  0  0  0  0
 32 33  1  0  0  0  0
 33 28  1  0  0  0  0
 34 33  2  0  0  0  0
 34 35  1  0  0  0  0
 36 34  1  0  0  0  0
 37 36  1  0  0  0  0
 38 39  1  0  0  0  0
 38 36  2  0  0  0  0
 39 32  2  0  0  0  0
 41 40  3  0  0  0  0
M  END
>  <minimizedAffinity>
-5.92344904

$$$$
