REMARK  Name = 
REMARK  5 active torsions:
REMARK  status: ('A' for Active; 'I' for Inactive)
REMARK    1  A    between atoms: O_1  and  C_2
REMARK    2  A    between atoms: O_1  and  C_13
REMARK    3  A    between atoms: C_16  and  C_18
REMARK    4  A    between atoms: N_21  and  C_36
REMARK    5  A    between atoms: C_34  and  C_35
REMARK                            x       y       z     vdW  Elec       q    Type
REMARK                         _______ _______ _______ _____ _____    ______ ____
ROOT
ATOM      1  C   UNL     1      44.920  34.855  45.143  0.00  0.00    +0.000 A 
ATOM      2  C   UNL     1      45.658  34.639  43.982  0.00  0.00    +0.000 A 
ATOM      3  C   UNL     1      46.648  33.629  44.008  0.00  0.00    +0.000 A 
ATOM      4  N   UNL     1      46.820  32.936  45.152  0.00  0.00    +0.000 NA
ATOM      5  C   UNL     1      46.087  33.169  46.264  0.00  0.00    +0.000 A 
ATOM      6  N   UNL     1      45.134  34.141  46.240  0.00  0.00    +0.000 NA
ATOM      7  H   UNL     1      44.165  35.636  45.099  0.00  0.00    +0.000 HD
ATOM      8  H   UNL     1      47.258  33.400  43.157  0.00  0.00    +0.000 HD
ENDROOT
BRANCH   5   9
ATOM      9  C   UNL     1      46.233  32.450  47.523  0.00  0.00    +0.000 A 
ATOM     10  C   UNL     1      45.129  31.949  48.208  0.00  0.00    +0.000 A 
ATOM     11  C   UNL     1      45.603  31.327  49.352  0.00  0.00    +0.000 A 
ATOM     12  N   UNL     1      46.945  31.457  49.342  0.00  0.00    +0.000 N 
ATOM     13  N   UNL     1      47.288  32.127  48.245  0.00  0.00    +0.000 NA
ATOM     14  H   UNL     1      44.048  31.969  48.001  0.00  0.00    +0.000 HD
ATOM     15  H   UNL     1      45.074  30.819  50.141  0.00  0.00    +0.000 HD
BRANCH  12  17
ATOM     16  C   UNL     1      47.782  29.999  51.163  0.00  0.00    +0.000 A 
ATOM     17  C   UNL     1      47.955  31.024  50.248  0.00  0.00    +0.000 A 
ATOM     18  C   UNL     1      49.186  31.684  50.194  0.00  0.00    +0.000 A 
ATOM     19  H   UNL     1      49.398  32.494  49.506  0.00  0.00    +0.000 HD
ATOM     20  C   UNL     1      50.207  31.296  51.059  0.00  0.00    +0.000 A 
ATOM     21  H   UNL     1      51.181  31.782  51.053  0.00  0.00    +0.000 HD
ATOM     22  C   UNL     1      50.048  30.263  51.990  0.00  0.00    +0.000 A 
ATOM     23  C   UNL     1      48.806  29.620  52.021  0.00  0.00    +0.000 A 
BRANCH  16  25
ATOM     24  N   UNL     1      45.460  28.818  51.173  0.00  0.00    +0.000 NA
ATOM     25  C   UNL     1      46.498  29.358  51.173  0.00  0.00    +0.000 C 
ENDBRANCH  16  25
ENDBRANCH  12  17
ENDBRANCH   5   9
BRANCH   2  26
ATOM     26  O   UNL     1      45.504  35.333  42.795  0.00  0.00    +0.000 OA
BRANCH  26  27
ATOM     27  C   UNL     1      44.589  35.009  41.799  0.00  0.00    +0.000 A 
ATOM     28  C   UNL     1      44.796  34.201  40.708  0.00  0.00    +0.000 A 
ATOM     29  C   UNL     1      43.776  33.981  39.807  0.00  0.00    +0.000 A 
ATOM     30  C   UNL     1      42.522  34.549  39.953  0.00  0.00    +0.000 A 
ATOM     31  N   UNL     1      41.586  34.294  39.048  0.00  0.00    +0.000 NA
ATOM     32  C   UNL     1      40.350  34.831  39.158  0.00  0.00    +0.000 A 
ATOM     33  C   UNL     1      40.099  35.653  40.246  0.00  0.00    +0.000 A 
ATOM     34  C   UNL     1      41.085  35.924  41.203  0.00  0.00    +0.000 A 
ATOM     35  C   UNL     1      42.335  35.358  41.057  0.00  0.00    +0.000 A 
ATOM     36  C   UNL     1      43.353  35.599  41.988  0.00  0.00    +0.000 A 
ATOM     37  H   UNL     1      45.793  33.773  40.626  0.00  0.00    +0.000 HD
ATOM     38  H   UNL     1      43.974  33.335  38.951  0.00  0.00    +0.000 HD
ATOM     39  H   UNL     1      39.571  34.634  38.427  0.00  0.00    +0.000 HD
ATOM     40  H   UNL     1      39.152  36.122  40.417  0.00  0.00    +0.000 HD
ATOM     41  H   UNL     1      40.893  36.567  42.058  0.00  0.00    +0.000 HD
ATOM     42  H   UNL     1      43.086  36.248  42.808  0.00  0.00    +0.000 HD
ENDBRANCH  26  27
ENDBRANCH   2  26
TORSDOF 5
