
     RDKit          3D

 45 48  0  0  0  0  0  0  0  0999 V2000
   49.3318   33.2188   41.4985 N   0  0  0  0  0  0  0  0  0  0  0  0
   50.6645   33.1255   42.0306 C   0  0  0  0  0  0  0  0  0  0  0  0
   51.3386   31.8039   41.7899 C   0  0  0  0  0  0  0  0  0  0  0  0
   50.5916   30.7161   42.5161 C   0  0  0  0  0  0  0  0  0  0  0  0
   49.1197   31.0067   42.5563 C   0  0  0  0  0  0  0  0  0  0  0  0
   48.7568   31.8936   41.3809 C   0  0  2  0  0  0  0  0  0  0  0  0
   47.1955   34.5504   42.0252 C   0  0  1  0  0  0  0  0  0  0  0  0
   48.3193   35.4666   41.7235 C   0  0  0  0  0  0  0  0  0  0  0  0
   48.5968   34.1297   42.2843 C   0  0  2  0  0  0  0  0  0  0  0  0
   45.5104   36.0243   43.1622 C   0  0  0  0  0  0  0  0  0  0  0  0
   46.2958   34.8649   43.1338 C   0  0  0  0  0  0  0  0  0  0  0  0
   46.1704   33.9809   44.2300 C   0  0  0  0  0  0  0  0  0  0  0  0
   45.3096   34.3026   45.2283 N   0  0  0  0  0  0  0  0  0  0  0  0
   44.5727   35.4203   45.2229 C   0  0  0  0  0  0  0  0  0  0  0  0
   44.6646   36.3027   44.1816 N   0  0  0  0  0  0  0  0  0  0  0  0
   49.0418   31.2500   40.1388 N   0  0  0  0  0  0  0  0  0  0  0  0
   50.6728   33.3328   43.1131 H   0  0  0  0  0  0  0  0  0  0  0  0
   51.2884   33.9436   41.5726 H   0  0  0  0  0  0  0  0  0  0  0  0
   51.5923   31.6003   40.7559 H   0  0  0  0  0  0  0  0  0  0  0  0
   52.3245   31.8971   42.3558 H   0  0  0  0  0  0  0  0  0  0  0  0
   50.9436   30.6226   43.5676 H   0  0  0  0  0  0  0  0  0  0  0  0
   50.8253   29.7450   42.0335 H   0  0  0  0  0  0  0  0  0  0  0  0
   48.8636   31.6437   43.4657 H   0  0  0  0  0  0  0  0  0  0  0  0
   48.4935   30.1297   42.5534 H   0  0  0  0  0  0  0  0  0  0  0  0
   47.6544   32.0329   41.4476 H   0  0  0  0  0  0  0  0  0  0  0  0
   46.6935   34.1310   41.1093 H   0  0  0  0  0  0  0  0  0  0  0  0
   48.5719   35.6998   40.6758 H   0  0  0  0  0  0  0  0  0  0  0  0
   48.4496   36.3286   42.4033 H   0  0  0  0  0  0  0  0  0  0  0  0
   48.8348   34.0682   43.3892 H   0  0  0  0  0  0  0  0  0  0  0  0
   45.5694   36.7319   42.3500 H   0  0  0  0  0  0  0  0  0  0  0  0
   46.7525   33.0757   44.2572 H   0  0  0  0  0  0  0  0  0  0  0  0
   43.9316   35.5353   46.0927 H   0  0  0  0  0  0  0  0  0  0  0  0
   49.6681   31.8991   39.5685 H   0  0  0  0  0  0  0  0  0  0  0  0
   45.4902   30.6572   40.1971 N   0  0  0  0  0  0  0  0  0  0  0  0
   46.4084   30.1552   39.7031 C   0  0  0  0  0  0  0  0  0  0  0  0
   47.5560   29.5243   39.1117 C   0  0  0  0  0  0  0  0  0  0  0  0
   48.8044   30.1145   39.3523 C   0  0  0  0  0  0  0  0  0  0  0  0
   49.9197   29.5235   38.7930 C   0  0  0  0  0  0  0  0  0  0  0  0
   50.9673   29.7854   38.8490 H   0  0  0  0  0  0  0  0  0  0  0  0
   49.8577   28.3818   38.0102 C   0  0  0  0  0  0  0  0  0  0  0  0
   50.6426   27.8316   37.5230 H   0  0  0  0  0  0  0  0  0  0  0  0
   48.6228   27.8215   37.7881 C   0  0  0  0  0  0  0  0  0  0  0  0
   47.5029   28.3964   38.3373 C   0  0  0  0  0  0  0  0  0  0  0  0
   48.3774   26.9502   37.2174 H   0  0  0  0  0  0  0  0  0  0  0  0
   46.4906   28.0361   38.2241 H   0  0  0  0  0  0  0  0  0  0  0  0
  1  2  1  0
  1  9  1  0
  3  2  1  0
  3  4  1  0
  5  4  1  0
  6  1  1  0
  6  5  1  0
  7  9  1  0
  7 11  1  0
  8  7  1  0
  8  9  1  0
 10 15  2  0
 11 10  1  0
 11 12  2  0
 12 13  1  0
 14 13  2  0
 15 14  1  0
 16  6  1  0
  2 17  1  0
  2 18  1  0
  3 19  1  0
  3 20  1  0
  4 21  1  0
  4 22  1  0
  5 23  1  0
  5 24  1  0
  6 25  1  6
  7 26  1  6
  8 27  1  0
  8 28  1  0
  9 29  1  1
 10 30  1  0
 12 31  1  0
 14 32  1  0
 16 33  1  0
 34 35  3  0
 35 36  1  0
 36 37  2  0
 37 38  1  0
 38 39  1  0
 38 40  2  0
 40 41  1  0
 40 42  1  0
 42 43  2  0
 43 36  1  0
 42 44  1  0
 43 45  1  0
 16 37  1  0
M  ISO  8  17  13  18  13  19  13  20  13  21  13  22  13  23  13  24  13
M  ISO  8  25  13  26  13  27  13  28  13  29  13  30  14  31  14  32  14
M  ISO  3  33   5  39  15  41  16
M  END
>  <DihAtoms>  (1) 
5,15,36,35

>  <DihDeg>  (1) 
-178.84042705670802

$$$$
