
 OpenBabel03242513433D

 41 44  0  0  0  0  0  0  0  0999 V2000
   37.3300   30.4840   39.3330 C   0  0  0  0  0  0  0  0  0  0  0  0
   37.0850   30.3950   37.9780 C   0  0  0  0  0  0  0  0  0  0  0  0
   37.9550   31.0130   37.1280 C   0  0  0  0  0  0  0  0  0  0  0  0
   39.0620   31.7200   37.5710 C   0  0  0  0  0  0  0  0  0  0  0  0
   40.0820   32.4210   37.0250 N   0  0  0  0  0  0  0  0  0  0  0  0
   40.8930   32.9040   37.9820 C   0  0  0  0  0  0  0  0  0  0  0  0
   40.3660   32.4940   39.1480 N   0  0  0  0  0  0  0  0  0  0  0  0
   39.2500   31.7710   38.9210 C   0  0  0  0  0  0  0  0  0  0  0  0
   38.4270   31.1790   39.8250 C   0  0  0  0  0  0  0  0  0  0  0  0
   36.6670   30.0080   40.0400 H   0  0  0  0  0  0  0  0  0  0  0  0
   37.8080   30.9750   36.0460 H   0  0  0  0  0  0  0  0  0  0  0  0
   40.1680   32.5340   35.9740 H   0  0  0  0  0  0  0  0  0  0  0  0
   41.7640   33.4870   37.8160 H   0  0  0  0  0  0  0  0  0  0  0  0
   33.8770   28.6360   37.8310 C   0  0  0  0  0  0  0  0  0  0  0  0
   33.7730   28.2780   36.4960 C   0  0  0  0  0  0  0  0  0  0  0  0
   34.8310   28.6580   35.6600 C   0  0  0  0  0  0  0  0  0  0  0  0
   35.8880   29.3400   36.1620 N   0  0  0  0  0  0  0  0  0  0  0  0
   35.9270   29.6590   37.4770 C   0  0  0  0  0  0  0  0  0  0  0  0
   34.9490   29.3210   38.3100 N   0  0  0  0  0  0  0  0  0  0  0  0
   33.1010   28.3810   38.5540 H   0  0  0  0  0  0  0  0  0  0  0  0
   34.7610   28.3830   34.6150 H   0  0  0  0  0  0  0  0  0  0  0  0
   32.5760   27.5290   36.0430 C   0  0  0  0  0  0  0  0  0  0  0  0
   32.7220   26.2690   36.5960 F   0  0  0  0  0  0  0  0  0  0  0  0
   32.6240   27.4340   34.6770 F   0  0  0  0  0  0  0  0  0  0  0  0
   31.4470   28.2030   36.4810 F   0  0  0  0  0  0  0  0  0  0  0  0
   38.6740   31.2690   41.1810 O   0  0  0  0  0  0  0  0  0  0  0  0
   40.7210   31.1800   42.7730 O   0  0  0  0  0  0  0  0  0  0  0  0
   39.7320   30.2790   42.0510 P   0  0  2  0  0  0  0  0  0  0  0  0
   40.6350   29.3770   40.9150 O   0  0  0  0  0  0  0  0  0  0  0  0
   41.3530   28.8890   41.4170 H   0  0  0  0  0  0  0  0  0  0  0  0
   38.9790   29.2640   43.1340 O   0  0  0  0  0  0  0  0  0  0  0  0
   38.1430   27.1140   42.5560 C   0  0  0  0  0  0  0  0  0  0  0  0
   39.1500   27.9010   43.1260 C   0  0  0  0  0  0  0  0  0  0  0  0
   40.2350   27.2160   43.6330 C   0  0  0  0  0  0  0  0  0  0  0  0
   41.0160   27.7830   44.0720 H   0  0  0  0  0  0  0  0  0  0  0  0
   40.3730   25.8500   43.6070 C   0  0  0  0  0  0  0  0  0  0  0  0
   41.2640   25.3710   44.0290 H   0  0  0  0  0  0  0  0  0  0  0  0
   39.3460   25.1080   43.0310 C   0  0  0  0  0  3  0  0  0  0  0  0
   38.2380   25.7400   42.5080 C   0  0  0  0  0  3  0  0  0  0  0  0
   35.9920   28.1240   41.5040 N   0  0  0  0  0  0  0  0  0  0  0  0
   36.9480   27.6750   41.9840 C   0  0  0  0  0  0  0  0  0  0  0  0
  1  9  1  0  0  0  0
  1 10  1  0  0  0  0
  2  1  2  0  0  0  0
  3  4  2  0  0  0  0
  3  2  1  0  0  0  0
  4  8  1  0  0  0  0
  5  4  1  0  0  0  0
  5  6  1  0  0  0  0
  6  7  2  0  0  0  0
  8  7  1  0  0  0  0
  8  9  2  0  0  0  0
  9 26  1  0  0  0  0
 11  3  1  0  0  0  0
 12  5  1  0  0  0  0
 13  6  1  0  0  0  0
 14 19  1  0  0  0  0
 14 20  1  0  0  0  0
 15 14  2  0  0  0  0
 16 17  2  0  0  0  0
 16 15  1  0  0  0  0
 17 18  1  0  0  0  0
 18  2  1  0  0  0  0
 18 19  2  0  0  0  0
 21 16  1  0  0  0  0
 22 25  1  0  0  0  0
 22 15  1  0  0  0  0
 22 23  1  0  0  0  0
 24 22  1  0  0  0  0
 26 28  1  0  0  0  0
 28 27  2  1  0  0  0
 28 31  1  0  0  0  0
 29 30  1  0  0  0  0
 29 28  1  0  0  0  0
 32 33  1  0  0  0  0
 33 31  1  0  0  0  0
 33 34  2  0  0  0  0
 34 35  1  0  0  0  0
 36 34  1  0  0  0  0
 36 37  1  0  0  0  0
 38 36  2  0  0  0  0
 39 32  2  0  0  0  0
 39 38  1  0  0  0  0
 40 41  3  0  0  0  0
 41 32  1  0  0  0  0
M  END
>  <minimizedAffinity>
-6.12506962

$$$$

 OpenBabel03242513433D

 41 44  0  0  0  0  0  0  0  0999 V2000
   37.5330   27.0240   39.2400 C   0  0  0  0  0  0  0  0  0  0  0  0
   36.8080   28.1170   38.8100 C   0  0  0  0  0  0  0  0  0  0  0  0
   35.6830   27.8880   38.0720 C   0  0  0  0  0  0  0  0  0  0  0  0
   35.2480   26.6130   37.7430 C   0  0  0  0  0  0  0  0  0  0  0  0
   34.2240   26.0550   37.0580 N   0  0  0  0  0  0  0  0  0  0  0  0
   34.3190   24.7130   37.0700 C   0  0  0  0  0  0  0  0  0  0  0  0
   35.4250   24.4330   37.7780 N   0  0  0  0  0  0  0  0  0  0  0  0
   36.0070   25.5750   38.1970 C   0  0  0  0  0  0  0  0  0  0  0  0
   37.1370   25.7280   38.9360 C   0  0  0  0  0  0  0  0  0  0  0  0
   38.4290   27.1600   39.8270 H   0  0  0  0  0  0  0  0  0  0  0  0
   35.0720   28.7150   37.7060 H   0  0  0  0  0  0  0  0  0  0  0  0
   33.4810   26.6550   36.5980 H   0  0  0  0  0  0  0  0  0  0  0  0
   33.6400   24.0430   36.6050 H   0  0  0  0  0  0  0  0  0  0  0  0
   36.9930   31.7710   38.9520 C   0  0  0  0  0  0  0  0  0  0  0  0
   38.0790   32.0000   39.7840 C   0  0  0  0  0  0  0  0  0  0  0  0
   38.7350   30.8680   40.2860 C   0  0  0  0  0  0  0  0  0  0  0  0
   38.3060   29.6270   39.9570 N   0  0  0  0  0  0  0  0  0  0  0  0
   37.2380   29.4720   39.1390 C   0  0  0  0  0  0  0  0  0  0  0  0
   36.5830   30.5140   38.6380 N   0  0  0  0  0  0  0  0  0  0  0  0
   36.4230   32.5920   38.5160 H   0  0  0  0  0  0  0  0  0  0  0  0
   39.5850   31.0350   40.9360 H   0  0  0  0  0  0  0  0  0  0  0  0
   38.4730   33.3970   40.0840 C   0  0  0  0  0  0  0  0  0  0  0  0
   37.3860   34.1580   39.6900 F   0  0  0  0  0  0  0  0  0  0  0  0
   39.5550   33.7130   39.3050 F   0  0  0  0  0  0  0  0  0  0  0  0
   38.7580   33.4910   41.4370 F   0  0  0  0  0  0  0  0  0  0  0  0
   37.8620   24.6330   39.3670 O   0  0  0  0  0  0  0  0  0  0  0  0
   37.9960   22.2660   40.4190 O   0  0  0  0  0  0  0  0  0  0  0  0
   37.4770   23.6670   40.6990 P   0  0  2  0  0  0  0  0  0  0  0  0
   35.7730   23.5500   40.7680 O   0  0  0  0  0  0  0  0  0  0  0  0
   35.5450   22.8730   41.4710 H   0  0  0  0  0  0  0  0  0  0  0  0
   38.0810   24.2280   42.1440 O   0  0  0  0  0  0  0  0  0  0  0  0
   39.2010   26.1980   42.8640 C   0  0  0  0  0  0  0  0  0  0  0  0
   38.0100   25.5470   42.5240 C   0  0  0  0  0  0  0  0  0  0  0  0
   36.8630   26.3080   42.6050 C   0  0  0  0  0  0  0  0  0  0  0  0
   35.9440   25.8440   42.3540 H   0  0  0  0  0  0  0  0  0  0  0  0
   36.8310   27.6260   42.9890 C   0  0  0  0  0  0  0  0  0  0  0  0
   35.8810   28.1720   43.0300 H   0  0  0  0  0  0  0  0  0  0  0  0
   38.0390   28.2330   43.3190 C   0  0  0  0  0  3  0  0  0  0  0  0
   39.2170   27.5200   43.2550 C   0  0  0  0  0  3  0  0  0  0  0  0
   41.5230   25.0320   42.8140 N   0  0  0  0  0  0  0  0  0  0  0  0
   40.4830   25.5440   42.8310 C   0  0  0  0  0  0  0  0  0  0  0  0
  1 10  1  0  0  0  0
  2 18  1  0  0  0  0
  2  1  2  0  0  0  0
  3  2  1  0  0  0  0
  4  3  2  0  0  0  0
  4  8  1  0  0  0  0
  5  6  1  0  0  0  0
  5  4  1  0  0  0  0
  6  7  2  0  0  0  0
  7  8  1  0  0  0  0
  8  9  2  0  0  0  0
  9  1  1  0  0  0  0
  9 26  1  0  0  0  0
 11  3  1  0  0  0  0
 12  5  1  0  0  0  0
 13  6  1  0  0  0  0
 14 15  1  0  0  0  0
 15 22  1  0  0  0  0
 15 16  2  0  0  0  0
 16 21  1  0  0  0  0
 17 16  1  0  0  0  0
 18 17  2  0  0  0  0
 19 14  2  0  0  0  0
 19 18  1  0  0  0  0
 20 14  1  0  0  0  0
 22 25  1  0  0  0  0
 23 22  1  0  0  0  0
 24 22  1  0  0  0  0
 26 28  1  0  0  0  0
 28 27  2  6  0  0  0
 28 29  1  0  0  0  0
 28 31  1  0  0  0  0
 29 30  1  0  0  0  0
 31 33  1  0  0  0  0
 32 39  1  0  0  0  0
 33 34  1  0  0  0  0
 33 32  2  0  0  0  0
 34 36  2  0  0  0  0
 35 34  1  0  0  0  0
 36 37  1  0  0  0  0
 36 38  1  0  0  0  0
 39 38  2  0  0  0  0
 40 41  3  0  0  0  0
 41 32  1  0  0  0  0
M  END
>  <minimizedAffinity>
-6.0455699

$$$$

 OpenBabel03242513433D

 41 44  0  0  0  0  0  0  0  0999 V2000
   37.3990   29.9790   40.2120 C   0  0  0  0  0  0  0  0  0  0  0  0
   36.9450   30.4980   39.0160 C   0  0  0  0  0  0  0  0  0  0  0  0
   37.4680   31.6840   38.5930 C   0  0  0  0  0  0  0  0  0  0  0  0
   38.4270   32.3810   39.3120 C   0  0  0  0  0  0  0  0  0  0  0  0
   39.1270   33.5320   39.1870 N   0  0  0  0  0  0  0  0  0  0  0  0
   39.9520   33.7030   40.2360 C   0  0  0  0  0  0  0  0  0  0  0  0
   39.7610   32.6350   41.0280 N   0  0  0  0  0  0  0  0  0  0  0  0
   38.8360   31.8170   40.4850 C   0  0  0  0  0  0  0  0  0  0  0  0
   38.3600   30.6400   40.9670 C   0  0  0  0  0  0  0  0  0  0  0  0
   37.0130   29.0420   40.5830 H   0  0  0  0  0  0  0  0  0  0  0  0
   37.1440   32.1400   37.6550 H   0  0  0  0  0  0  0  0  0  0  0  0
   38.9920   34.1660   38.3490 H   0  0  0  0  0  0  0  0  0  0  0  0
   40.6070   34.5250   40.3760 H   0  0  0  0  0  0  0  0  0  0  0  0
   35.1560   28.9710   36.2100 C   0  0  0  0  0  0  0  0  0  0  0  0
   34.0150   28.4550   36.8050 C   0  0  0  0  0  0  0  0  0  0  0  0
   33.8850   28.6490   38.1860 C   0  0  0  0  0  0  0  0  0  0  0  0
   34.8440   29.3110   38.8770 N   0  0  0  0  0  0  0  0  0  0  0  0
   35.9350   29.7900   38.2340 C   0  0  0  0  0  0  0  0  0  0  0  0
   36.1030   29.6310   36.9260 N   0  0  0  0  0  0  0  0  0  0  0  0
   35.3400   28.8670   35.1400 H   0  0  0  0  0  0  0  0  0  0  0  0
   32.9980   28.2510   38.6620 H   0  0  0  0  0  0  0  0  0  0  0  0
   33.0220   27.7470   35.9630 C   0  0  0  0  0  0  0  0  0  0  0  0
   33.0350   26.4430   36.4290 F   0  0  0  0  0  0  0  0  0  0  0  0
   33.4660   27.7700   34.6670 F   0  0  0  0  0  0  0  0  0  0  0  0
   31.7960   28.3770   36.1060 F   0  0  0  0  0  0  0  0  0  0  0  0
   38.8160   30.1220   42.1640 O   0  0  0  0  0  0  0  0  0  0  0  0
   41.3010   29.8170   42.8470 O   0  0  0  0  0  0  0  0  0  0  0  0
   40.1010   29.0370   42.3350 P   0  0  2  0  0  0  0  0  0  0  0  0
   40.5120   28.4840   40.7710 O   0  0  0  0  0  0  0  0  0  0  0  0
   41.3550   27.9470   40.8510 H   0  0  0  0  0  0  0  0  0  0  0  0
   39.7770   27.7500   43.3390 O   0  0  0  0  0  0  0  0  0  0  0  0
   39.7680   25.4390   42.7800 C   0  0  0  0  0  0  0  0  0  0  0  0
   39.0710   26.6430   42.9340 C   0  0  0  0  0  0  0  0  0  0  0  0
   37.7200   26.5970   42.6590 C   0  0  0  0  0  0  0  0  0  0  0  0
   37.1640   27.4940   42.7660 H   0  0  0  0  0  0  0  0  0  0  0  0
   37.0480   25.4710   42.2560 C   0  0  0  0  0  0  0  0  0  0  0  0
   35.9710   25.5050   42.0540 H   0  0  0  0  0  0  0  0  0  0  0  0
   37.7810   24.2950   42.1160 C   0  0  0  0  0  3  0  0  0  0  0  0
   39.1340   24.2830   42.3780 C   0  0  0  0  0  3  0  0  0  0  0  0
   42.3150   25.2110   43.2430 N   0  0  0  0  0  0  0  0  0  0  0  0
   41.1800   25.3200   43.0280 C   0  0  0  0  0  0  0  0  0  0  0  0
  1 10  1  0  0  0  0
  1  9  1  0  0  0  0
  2  1  2  0  0  0  0
  3  2  1  0  0  0  0
  3  4  2  0  0  0  0
  4  8  1  0  0  0  0
  5  4  1  0  0  0  0
  5  6  1  0  0  0  0
  6 13  1  0  0  0  0
  6  7  2  0  0  0  0
  8  9  2  0  0  0  0
  8  7  1  0  0  0  0
  9 26  1  0  0  0  0
 11  3  1  0  0  0  0
 12  5  1  0  0  0  0
 14 15  2  0  0  0  0
 14 19  1  0  0  0  0
 15 16  1  0  0  0  0
 16 21  1  0  0  0  0
 16 17  2  0  0  0  0
 18 17  1  0  0  0  0
 18  2  1  0  0  0  0
 19 18  2  0  0  0  0
 20 14  1  0  0  0  0
 22 25  1  0  0  0  0
 22 23  1  0  0  0  0
 22 15  1  0  0  0  0
 24 22  1  0  0  0  0
 26 28  1  0  0  0  0
 28 27  2  1  0  0  0
 28 31  1  0  0  0  0
 29 30  1  0  0  0  0
 29 28  1  0  0  0  0
 32 33  1  0  0  0  0
 32 41  1  0  0  0  0
 33 31  1  0  0  0  0
 34 35  1  0  0  0  0
 34 33  2  0  0  0  0
 36 34  1  0  0  0  0
 37 36  1  0  0  0  0
 38 36  2  0  0  0  0
 38 39  1  0  0  0  0
 39 32  2  0  0  0  0
 41 40  3  0  0  0  0
M  END
>  <minimizedAffinity>
-6.02447414

$$$$

 OpenBabel03242513433D

 41 44  0  0  0  0  0  0  0  0999 V2000
   38.2760   27.7800   40.8200 C   0  0  0  0  0  0  0  0  0  0  0  0
   37.2420   26.9410   40.4570 C   0  0  0  0  0  0  0  0  0  0  0  0
   37.2370   25.6740   40.9630 C   0  0  0  0  0  0  0  0  0  0  0  0
   38.2230   25.2040   41.8180 C   0  0  0  0  0  0  0  0  0  0  0  0
   38.5100   24.0560   42.4740 N   0  0  0  0  0  0  0  0  0  0  0  0
   39.6430   24.1870   43.1870 C   0  0  0  0  0  0  0  0  0  0  0  0
   40.0670   25.4430   42.9710 N   0  0  0  0  0  0  0  0  0  0  0  0
   39.2170   26.0800   42.1400 C   0  0  0  0  0  0  0  0  0  0  0  0
   39.2850   27.3550   41.6740 C   0  0  0  0  0  0  0  0  0  0  0  0
   38.3170   28.7900   40.4430 H   0  0  0  0  0  0  0  0  0  0  0  0
   36.4440   24.9690   40.7080 H   0  0  0  0  0  0  0  0  0  0  0  0
   37.8830   23.2060   42.3900 H   0  0  0  0  0  0  0  0  0  0  0  0
   40.0830   23.4320   43.7890 H   0  0  0  0  0  0  0  0  0  0  0  0
   34.5800   28.9660   38.9660 C   0  0  0  0  0  0  0  0  0  0  0  0
   34.2170   28.2350   37.8450 C   0  0  0  0  0  0  0  0  0  0  0  0
   34.9110   27.0380   37.6250 C   0  0  0  0  0  0  0  0  0  0  0  0
   35.8820   26.6430   38.4810 N   0  0  0  0  0  0  0  0  0  0  0  0
   36.1880   27.4040   39.5580 C   0  0  0  0  0  0  0  0  0  0  0  0
   35.5590   28.5460   39.8110 N   0  0  0  0  0  0  0  0  0  0  0  0
   34.0940   29.9100   39.2170 H   0  0  0  0  0  0  0  0  0  0  0  0
   34.6350   26.4590   36.7520 H   0  0  0  0  0  0  0  0  0  0  0  0
   33.1400   28.7520   36.9680 C   0  0  0  0  0  0  0  0  0  0  0  0
   32.5590   27.6200   36.4240 F   0  0  0  0  0  0  0  0  0  0  0  0
   33.7190   29.4890   35.9690 F   0  0  0  0  0  0  0  0  0  0  0  0
   32.2710   29.5090   37.7390 F   0  0  0  0  0  0  0  0  0  0  0  0
   40.3210   28.1940   42.0390 O   0  0  0  0  0  0  0  0  0  0  0  0
   41.4510   30.3760   42.8710 O   0  0  0  0  0  0  0  0  0  0  0  0
   40.2400   29.8810   42.0970 P   0  0  2  0  0  0  0  0  0  0  0  0
   38.8670   30.2930   43.0280 O   0  0  0  0  0  0  0  0  0  0  0  0
   38.8890   31.2840   43.1780 H   0  0  0  0  0  0  0  0  0  0  0  0
   40.1700   30.6110   40.6040 O   0  0  0  0  0  0  0  0  0  0  0  0
   39.6000   32.9010   40.3040 C   0  0  0  0  0  0  0  0  0  0  0  0
   39.2250   31.5520   40.2730 C   0  0  0  0  0  0  0  0  0  0  0  0
   37.9200   31.2980   39.9080 C   0  0  0  0  0  0  0  0  0  0  0  0
   37.6040   30.2870   39.8760 H   0  0  0  0  0  0  0  0  0  0  0  0
   37.0010   32.2660   39.5840 C   0  0  0  0  0  0  0  0  0  0  0  0
   35.9780   31.9930   39.3020 H   0  0  0  0  0  0  0  0  0  0  0  0
   37.4180   33.5940   39.6280 C   0  0  0  0  0  3  0  0  0  0  0  0
   38.7120   33.9060   39.9860 C   0  0  0  0  0  3  0  0  0  0  0  0
   42.0010   33.6630   40.9430 N   0  0  0  0  0  0  0  0  0  0  0  0
   40.9260   33.3310   40.6640 C   0  0  0  0  0  0  0  0  0  0  0  0
  1  9  1  0  0  0  0
  2  1  2  0  0  0  0
  2  3  1  0  0  0  0
  3  4  2  0  0  0  0
  4  8  1  0  0  0  0
  4  5  1  0  0  0  0
  5  6  1  0  0  0  0
  6 13  1  0  0  0  0
  7  6  2  0  0  0  0
  8  7  1  0  0  0  0
  9 26  1  0  0  0  0
  9  8  2  0  0  0  0
 10  1  1  0  0  0  0
 11  3  1  0  0  0  0
 12  5  1  0  0  0  0
 14 20  1  0  0  0  0
 14 19  1  0  0  0  0
 15 14  2  0  0  0  0
 16 15  1  0  0  0  0
 16 17  2  0  0  0  0
 17 18  1  0  0  0  0
 18 19  2  0  0  0  0
 18  2  1  0  0  0  0
 21 16  1  0  0  0  0
 22 25  1  0  0  0  0
 22 15  1  0  0  0  0
 23 22  1  0  0  0  0
 24 22  1  0  0  0  0
 26 28  1  0  0  0  0
 28 27  2  1  0  0  0
 28 29  1  0  0  0  0
 29 30  1  0  0  0  0
 31 28  1  0  0  0  0
 32 41  1  0  0  0  0
 33 32  1  0  0  0  0
 33 31  1  0  0  0  0
 34 33  2  0  0  0  0
 35 34  1  0  0  0  0
 36 38  2  0  0  0  0
 36 34  1  0  0  0  0
 37 36  1  0  0  0  0
 38 39  1  0  0  0  0
 39 32  2  0  0  0  0
 41 40  3  0  0  0  0
M  END
>  <minimizedAffinity>
-5.98155737

$$$$

 OpenBabel03242513433D

 41 44  0  0  0  0  0  0  0  0999 V2000
   39.2350   29.1800   39.4470 C   0  0  0  0  0  0  0  0  0  0  0  0
   39.7780   28.1680   38.6810 C   0  0  0  0  0  0  0  0  0  0  0  0
   40.6790   28.5110   37.7140 C   0  0  0  0  0  0  0  0  0  0  0  0
   41.0620   29.8220   37.4760 C   0  0  0  0  0  0  0  0  0  0  0  0
   41.8920   30.4810   36.6360 N   0  0  0  0  0  0  0  0  0  0  0  0
   41.8570   31.8040   36.8740 C   0  0  0  0  0  0  0  0  0  0  0  0
   40.9870   31.9700   37.8840 N   0  0  0  0  0  0  0  0  0  0  0  0
   40.4910   30.7750   38.2660 C   0  0  0  0  0  0  0  0  0  0  0  0
   39.5890   30.5080   39.2470 C   0  0  0  0  0  0  0  0  0  0  0  0
   38.5200   28.9520   40.2230 H   0  0  0  0  0  0  0  0  0  0  0  0
   41.1380   27.7510   37.0790 H   0  0  0  0  0  0  0  0  0  0  0  0
   42.4640   29.9610   35.9110 H   0  0  0  0  0  0  0  0  0  0  0  0
   42.4160   32.5400   36.3520 H   0  0  0  0  0  0  0  0  0  0  0  0
   38.1990   24.8880   38.2940 C   0  0  0  0  0  0  0  0  0  0  0  0
   38.7060   24.1650   39.3630 C   0  0  0  0  0  0  0  0  0  0  0  0
   39.5970   24.8370   40.2090 C   0  0  0  0  0  0  0  0  0  0  0  0
   39.9280   26.1280   39.9680 N   0  0  0  0  0  0  0  0  0  0  0  0
   39.3960   26.7770   38.9050 C   0  0  0  0  0  0  0  0  0  0  0  0
   38.5470   26.1830   38.0740 N   0  0  0  0  0  0  0  0  0  0  0  0
   37.4990   24.4450   37.5840 H   0  0  0  0  0  0  0  0  0  0  0  0
   39.9990   24.2830   41.0480 H   0  0  0  0  0  0  0  0  0  0  0  0
   38.2830   22.7560   39.5440 C   0  0  0  0  0  0  0  0  0  0  0  0
   38.0660   22.6280   40.9050 F   0  0  0  0  0  0  0  0  0  0  0  0
   39.3240   21.9460   39.1720 F   0  0  0  0  0  0  0  0  0  0  0  0
   37.1500   22.5360   38.7750 F   0  0  0  0  0  0  0  0  0  0  0  0
   39.0470   31.5210   40.0130 O   0  0  0  0  0  0  0  0  0  0  0  0
   36.7920   31.6180   38.7330 O   0  0  0  0  0  0  0  0  0  0  0  0
   37.4050   31.9180   40.0920 P   0  0  2  0  0  0  0  0  0  0  0  0
   37.3000   33.6090   40.3100 O   0  0  0  0  0  0  0  0  0  0  0  0
   36.3340   33.8660   40.2220 H   0  0  0  0  0  0  0  0  0  0  0  0
   36.5690   31.1230   41.2910 O   0  0  0  0  0  0  0  0  0  0  0  0
   36.2090   28.7740   41.1980 C   0  0  0  0  0  0  0  0  0  0  0  0
   36.9050   29.8660   41.7310 C   0  0  0  0  0  0  0  0  0  0  0  0
   37.8770   29.5640   42.6620 C   0  0  0  0  0  0  0  0  0  0  0  0
   38.4220   30.3690   43.0850 H   0  0  0  0  0  0  0  0  0  0  0  0
   38.1850   28.2930   43.0790 C   0  0  0  0  0  0  0  0  0  0  0  0
   38.9720   28.1240   43.8230 H   0  0  0  0  0  0  0  0  0  0  0  0
   37.4670   27.2380   42.5220 C   0  0  0  0  0  3  0  0  0  0  0  0
   36.4850   27.4810   41.5860 C   0  0  0  0  0  3  0  0  0  0  0  0
   34.3370   29.0280   39.4130 N   0  0  0  0  0  0  0  0  0  0  0  0
   35.1660   28.9210   40.2170 C   0  0  0  0  0  0  0  0  0  0  0  0
  1 10  1  0  0  0  0
  2 18  1  0  0  0  0
  2  1  2  0  0  0  0
  3  2  1  0  0  0  0
  4  3  2  0  0  0  0
  4  8  1  0  0  0  0
  5  6  1  0  0  0  0
  5  4  1  0  0  0  0
  6  7  2  0  0  0  0
  7  8  1  0  0  0  0
  8  9  2  0  0  0  0
  9  1  1  0  0  0  0
  9 26  1  0  0  0  0
 11  3  1  0  0  0  0
 12  5  1  0  0  0  0
 13  6  1  0  0  0  0
 14 15  1  0  0  0  0
 15 22  1  0  0  0  0
 15 16  2  0  0  0  0
 16 21  1  0  0  0  0
 17 16  1  0  0  0  0
 18 17  2  0  0  0  0
 19 14  2  0  0  0  0
 19 18  1  0  0  0  0
 20 14  1  0  0  0  0
 22 23  1  0  0  0  0
 24 22  1  0  0  0  0
 25 22  1  0  0  0  0
 26 28  1  0  0  0  0
 28 27  2  6  0  0  0
 28 29  1  0  0  0  0
 28 31  1  0  0  0  0
 30 29  1  0  0  0  0
 31 33  1  0  0  0  0
 32 39  2  0  0  0  0
 32 33  1  0  0  0  0
 33 34  2  0  0  0  0
 34 36  1  0  0  0  0
 34 35  1  0  0  0  0
 36 37  1  0  0  0  0
 38 36  2  0  0  0  0
 39 38  1  0  0  0  0
 40 41  3  0  0  0  0
 41 32  1  0  0  0  0
M  END
>  <minimizedAffinity>
-5.951684

$$$$

 OpenBabel03242513433D

 41 44  0  0  0  0  0  0  0  0999 V2000
   37.1590   26.3490   40.2840 C   0  0  0  0  0  0  0  0  0  0  0  0
   36.8010   25.0240   40.1410 C   0  0  0  0  0  0  0  0  0  0  0  0
   37.4260   24.1030   40.9310 C   0  0  0  0  0  0  0  0  0  0  0  0
   38.3960   24.4470   41.8600 C   0  0  0  0  0  0  0  0  0  0  0  0
   39.1800   23.8140   42.7640 N   0  0  0  0  0  0  0  0  0  0  0  0
   39.9620   24.6950   43.4130 C   0  0  0  0  0  0  0  0  0  0  0  0
   39.6560   25.8990   42.9030 N   0  0  0  0  0  0  0  0  0  0  0  0
   38.7050   25.7710   41.9550 C   0  0  0  0  0  0  0  0  0  0  0  0
   38.1240   26.7420   41.2030 C   0  0  0  0  0  0  0  0  0  0  0  0
   36.6890   27.1100   39.6800 H   0  0  0  0  0  0  0  0  0  0  0  0
   37.1820   23.0410   40.8580 H   0  0  0  0  0  0  0  0  0  0  0  0
   39.1320   22.7630   42.8900 H   0  0  0  0  0  0  0  0  0  0  0  0
   40.6650   24.4530   44.1700 H   0  0  0  0  0  0  0  0  0  0  0  0
   34.2180   23.1050   38.3950 C   0  0  0  0  0  0  0  0  0  0  0  0
   33.8810   23.9250   37.3290 C   0  0  0  0  0  0  0  0  0  0  0  0
   34.5640   25.1440   37.2350 C   0  0  0  0  0  0  0  0  0  0  0  0
   35.5020   25.4760   38.1540 N   0  0  0  0  0  0  0  0  0  0  0  0
   35.7840   24.6280   39.1710 C   0  0  0  0  0  0  0  0  0  0  0  0
   35.1630   23.4610   39.3040 N   0  0  0  0  0  0  0  0  0  0  0  0
   33.7370   22.1370   38.5470 H   0  0  0  0  0  0  0  0  0  0  0  0
   34.3090   25.7930   36.4060 H   0  0  0  0  0  0  0  0  0  0  0  0
   32.8410   23.4730   36.3740 C   0  0  0  0  0  0  0  0  0  0  0  0
   33.3780   23.7300   35.1250 F   0  0  0  0  0  0  0  0  0  0  0  0
   31.7260   24.2480   36.5570 F   0  0  0  0  0  0  0  0  0  0  0  0
   32.5870   22.1300   36.6060 F   0  0  0  0  0  0  0  0  0  0  0  0
   38.4830   28.0680   41.3470 O   0  0  0  0  0  0  0  0  0  0  0  0
   38.6700   29.9990   43.0700 O   0  0  0  0  0  0  0  0  0  0  0  0
   37.6460   29.2140   42.2660 P   0  0  2  0  0  0  0  0  0  0  0  0
   36.6910   28.3600   43.3970 O   0  0  0  0  0  0  0  0  0  0  0  0
   36.2980   29.0320   44.0300 H   0  0  0  0  0  0  0  0  0  0  0  0
   36.7000   30.2470   41.3690 O   0  0  0  0  0  0  0  0  0  0  0  0
   36.7560   30.1890   38.9920 C   0  0  0  0  0  0  0  0  0  0  0  0
   36.1000   29.8790   40.1890 C   0  0  0  0  0  0  0  0  0  0  0  0
   34.8940   29.2230   40.0620 C   0  0  0  0  0  0  0  0  0  0  0  0
   34.3710   28.9740   40.9500 H   0  0  0  0  0  0  0  0  0  0  0  0
   34.3240   28.8700   38.8640 C   0  0  0  0  0  0  0  0  0  0  0  0
   33.3610   28.3480   38.8360 H   0  0  0  0  0  0  0  0  0  0  0  0
   35.0120   29.1980   37.6990 C   0  0  0  0  0  3  0  0  0  0  0  0
   36.2220   29.8540   37.7660 C   0  0  0  0  0  3  0  0  0  0  0  0
   39.0520   31.4060   38.9330 N   0  0  0  0  0  0  0  0  0  0  0  0
   38.0230   30.8720   38.9540 C   0  0  0  0  0  0  0  0  0  0  0  0
  1  9  1  0  0  0  0
  2  1  2  0  0  0  0
  2  3  1  0  0  0  0
  3  4  2  0  0  0  0
  4  8  1  0  0  0  0
  4  5  1  0  0  0  0
  5 12  1  0  0  0  0
  5  6  1  0  0  0  0
  6 13  1  0  0  0  0
  7  6  2  0  0  0  0
  8  7  1  0  0  0  0
  9 26  1  0  0  0  0
  9  8  2  0  0  0  0
 10  1  1  0  0  0  0
 11  3  1  0  0  0  0
 14 20  1  0  0  0  0
 14 19  1  0  0  0  0
 15 14  2  0  0  0  0
 16 15  1  0  0  0  0
 16 17  2  0  0  0  0
 17 18  1  0  0  0  0
 18 19  2  0  0  0  0
 18  2  1  0  0  0  0
 21 16  1  0  0  0  0
 22 24  1  0  0  0  0
 22 25  1  0  0  0  0
 22 15  1  0  0  0  0
 23 22  1  0  0  0  0
 26 28  1  0  0  0  0
 28 27  2  1  0  0  0
 28 29  1  0  0  0  0
 29 30  1  0  0  0  0
 31 28  1  0  0  0  0
 32 33  1  0  0  0  0
 33 31  1  0  0  0  0
 34 33  2  0  0  0  0
 34 35  1  0  0  0  0
 36 34  1  0  0  0  0
 37 36  1  0  0  0  0
 38 39  1  0  0  0  0
 38 36  2  0  0  0  0
 39 32  2  0  0  0  0
 40 41  3  0  0  0  0
 41 32  1  0  0  0  0
M  END
>  <minimizedAffinity>
-5.89522839

$$$$

 OpenBabel03242513433D

 41 44  0  0  0  0  0  0  0  0999 V2000
   36.8160   30.4000   39.9770 C   0  0  0  0  0  0  0  0  0  0  0  0
   36.0720   29.2670   39.7190 C   0  0  0  0  0  0  0  0  0  0  0  0
   36.1270   28.2450   40.6210 C   0  0  0  0  0  0  0  0  0  0  0  0
   36.8950   28.3030   41.7740 C   0  0  0  0  0  0  0  0  0  0  0  0
   37.1660   27.5060   42.8330 N   0  0  0  0  0  0  0  0  0  0  0  0
   38.0180   28.1120   43.6790 C   0  0  0  0  0  0  0  0  0  0  0  0
   38.2800   29.3120   43.1340 N   0  0  0  0  0  0  0  0  0  0  0  0
   37.6080   29.4490   41.9730 C   0  0  0  0  0  0  0  0  0  0  0  0
   37.6000   30.5050   41.1190 C   0  0  0  0  0  0  0  0  0  0  0  0
   36.8000   31.2320   39.2900 H   0  0  0  0  0  0  0  0  0  0  0  0
   35.5590   27.3260   40.4660 H   0  0  0  0  0  0  0  0  0  0  0  0
   36.7300   26.5440   42.9200 H   0  0  0  0  0  0  0  0  0  0  0  0
   38.3850   27.6990   44.5840 H   0  0  0  0  0  0  0  0  0  0  0  0
   35.0470   29.1930   36.2040 C   0  0  0  0  0  0  0  0  0  0  0  0
   33.6780   28.9910   36.2790 C   0  0  0  0  0  0  0  0  0  0  0  0
   33.1280   28.8830   37.5620 C   0  0  0  0  0  0  0  0  0  0  0  0
   33.9210   28.9750   38.6560 N   0  0  0  0  0  0  0  0  0  0  0  0
   35.2530   29.1730   38.5140 C   0  0  0  0  0  0  0  0  0  0  0  0
   35.8210   29.2820   37.3180 N   0  0  0  0  0  0  0  0  0  0  0  0
   35.5610   29.2890   35.2470 H   0  0  0  0  0  0  0  0  0  0  0  0
   32.0590   28.7250   37.6330 H   0  0  0  0  0  0  0  0  0  0  0  0
   32.8940   28.9050   35.0230 C   0  0  0  0  0  0  0  0  0  0  0  0
   33.6390   28.0750   34.2030 F   0  0  0  0  0  0  0  0  0  0  0  0
   32.8350   30.1560   34.4690 F   0  0  0  0  0  0  0  0  0  0  0  0
   31.6360   28.4080   35.3250 F   0  0  0  0  0  0  0  0  0  0  0  0
   38.3460   31.6390   41.3790 O   0  0  0  0  0  0  0  0  0  0  0  0
   40.4750   30.6730   40.2560 O   0  0  0  0  0  0  0  0  0  0  0  0
   40.0220   31.7680   41.2080 P   0  0  2  0  0  0  0  0  0  0  0  0
   40.7190   31.4110   42.7270 O   0  0  0  0  0  0  0  0  0  0  0  0
   41.7120   31.3550   42.5990 H   0  0  0  0  0  0  0  0  0  0  0  0
   40.5380   33.2550   40.6660 O   0  0  0  0  0  0  0  0  0  0  0  0
   42.7930   33.6520   40.0220 C   0  0  0  0  0  0  0  0  0  0  0  0
   41.4630   33.4060   39.6610 C   0  0  0  0  0  0  0  0  0  0  0  0
   41.2100   33.3390   38.3070 C   0  0  0  0  0  0  0  0  0  0  0  0
   40.2110   33.1540   38.0010 H   0  0  0  0  0  0  0  0  0  0  0  0
   42.1610   33.4950   37.3300 C   0  0  0  0  0  0  0  0  0  0  0  0
   41.8890   33.4290   36.2700 H   0  0  0  0  0  0  0  0  0  0  0  0
   43.4700   33.7380   37.7350 C   0  0  0  0  0  3  0  0  0  0  0  0
   43.7810   33.8150   39.0760 C   0  0  0  0  0  3  0  0  0  0  0  0
   43.5790   33.8140   42.4940 N   0  0  0  0  0  0  0  0  0  0  0  0
   43.2210   33.7500   41.3930 C   0  0  0  0  0  0  0  0  0  0  0  0
  1  9  1  0  0  0  0
  2  1  2  0  0  0  0
  2  3  1  0  0  0  0
  3  4  2  0  0  0  0
  4  8  1  0  0  0  0
  4  5  1  0  0  0  0
  5 12  1  0  0  0  0
  5  6  1  0  0  0  0
  6 13  1  0  0  0  0
  7  6  2  0  0  0  0
  8  7  1  0  0  0  0
  9 26  1  0  0  0  0
  9  8  2  0  0  0  0
 10  1  1  0  0  0  0
 11  3  1  0  0  0  0
 14 15  2  0  0  0  0
 14 19  1  0  0  0  0
 15 16  1  0  0  0  0
 16 21  1  0  0  0  0
 16 17  2  0  0  0  0
 18 17  1  0  0  0  0
 18  2  1  0  0  0  0
 19 18  2  0  0  0  0
 20 14  1  0  0  0  0
 22 25  1  0  0  0  0
 22 15  1  0  0  0  0
 23 22  1  0  0  0  0
 24 22  1  0  0  0  0
 28 27  2  6  0  0  0
 28 26  1  0  0  0  0
 28 29  1  0  0  0  0
 30 29  1  0  0  0  0
 31 28  1  0  0  0  0
 32 41  1  0  0  0  0
 33 32  1  0  0  0  0
 33 31  1  0  0  0  0
 34 33  2  0  0  0  0
 35 34  1  0  0  0  0
 36 38  2  0  0  0  0
 36 34  1  0  0  0  0
 37 36  1  0  0  0  0
 38 39  1  0  0  0  0
 39 32  2  0  0  0  0
 41 40  3  0  0  0  0
M  END
>  <minimizedAffinity>
-5.85187912

$$$$

 OpenBabel03242513433D

 41 44  0  0  0  0  0  0  0  0999 V2000
   36.9980   30.0050   39.0790 C   0  0  0  0  0  0  0  0  0  0  0  0
   36.7030   30.1340   37.7370 C   0  0  0  0  0  0  0  0  0  0  0  0
   37.5520   30.8700   36.9630 C   0  0  0  0  0  0  0  0  0  0  0  0
   38.6860   31.4860   37.4710 C   0  0  0  0  0  0  0  0  0  0  0  0
   39.6970   32.2550   37.0040 N   0  0  0  0  0  0  0  0  0  0  0  0
   40.5490   32.5720   37.9940 C   0  0  0  0  0  0  0  0  0  0  0  0
   40.0580   31.9870   39.0990 N   0  0  0  0  0  0  0  0  0  0  0  0
   38.9230   31.3210   38.8030 C   0  0  0  0  0  0  0  0  0  0  0  0
   38.1230   30.6020   39.6330 C   0  0  0  0  0  0  0  0  0  0  0  0
   36.3530   29.4300   39.7260 H   0  0  0  0  0  0  0  0  0  0  0  0
   37.3670   31.0060   35.8960 H   0  0  0  0  0  0  0  0  0  0  0  0
   39.7470   32.5320   35.9820 H   0  0  0  0  0  0  0  0  0  0  0  0
   41.4230   33.1650   37.8890 H   0  0  0  0  0  0  0  0  0  0  0  0
   33.4140   28.5550   37.4260 C   0  0  0  0  0  0  0  0  0  0  0  0
   33.3100   28.3080   36.0650 C   0  0  0  0  0  0  0  0  0  0  0  0
   34.3960   28.6980   35.2710 C   0  0  0  0  0  0  0  0  0  0  0  0
   35.4790   29.2850   35.8340 N   0  0  0  0  0  0  0  0  0  0  0  0
   35.5170   29.4980   37.1700 C   0  0  0  0  0  0  0  0  0  0  0  0
   34.5130   29.1460   37.9650 N   0  0  0  0  0  0  0  0  0  0  0  0
   32.6170   28.2850   38.1200 H   0  0  0  0  0  0  0  0  0  0  0  0
   34.3250   28.5100   34.2070 H   0  0  0  0  0  0  0  0  0  0  0  0
   32.0830   27.6590   35.5450 C   0  0  0  0  0  0  0  0  0  0  0  0
   32.1100   26.3820   36.0780 F   0  0  0  0  0  0  0  0  0  0  0  0
   32.1850   27.5830   34.1810 F   0  0  0  0  0  0  0  0  0  0  0  0
   30.9870   28.4070   35.9460 F   0  0  0  0  0  0  0  0  0  0  0  0
   38.4190   30.4740   40.9760 O   0  0  0  0  0  0  0  0  0  0  0  0
   37.2340   28.7860   42.5500 O   0  0  0  0  0  0  0  0  0  0  0  0
   38.5450   29.0110   41.8150 P   0  0  2  0  0  0  0  0  0  0  0  0
   39.7460   29.2140   43.0140 O   0  0  0  0  0  0  0  0  0  0  0  0
   39.7310   28.3990   43.5980 H   0  0  0  0  0  0  0  0  0  0  0  0
   38.9000   27.7020   40.8520 O   0  0  0  0  0  0  0  0  0  0  0  0
   38.5060   25.6020   41.8950 C   0  0  0  0  0  0  0  0  0  0  0  0
   38.1900   26.5270   40.8940 C   0  0  0  0  0  0  0  0  0  0  0  0
   37.1770   26.1590   40.0320 C   0  0  0  0  0  0  0  0  0  0  0  0
   36.9140   26.8380   39.2610 H   0  0  0  0  0  0  0  0  0  0  0  0
   36.4880   24.9730   40.1040 C   0  0  0  0  0  0  0  0  0  0  0  0
   35.6930   24.7450   39.3860 H   0  0  0  0  0  0  0  0  0  0  0  0
   36.8370   24.0840   41.1170 C   0  0  0  0  0  3  0  0  0  0  0  0
   37.8410   24.4000   42.0070 C   0  0  0  0  0  3  0  0  0  0  0  0
   40.3530   26.0210   43.6740 N   0  0  0  0  0  0  0  0  0  0  0  0
   39.5370   25.8360   42.8720 C   0  0  0  0  0  0  0  0  0  0  0  0
  1  9  1  0  0  0  0
  1 10  1  0  0  0  0
  2  1  2  0  0  0  0
  3  4  2  0  0  0  0
  3  2  1  0  0  0  0
  4  8  1  0  0  0  0
  5  4  1  0  0  0  0
  5  6  1  0  0  0  0
  6  7  2  0  0  0  0
  8  7  1  0  0  0  0
  8  9  2  0  0  0  0
  9 26  1  0  0  0  0
 11  3  1  0  0  0  0
 12  5  1  0  0  0  0
 13  6  1  0  0  0  0
 14 19  1  0  0  0  0
 14 20  1  0  0  0  0
 15 14  2  0  0  0  0
 16 17  2  0  0  0  0
 16 15  1  0  0  0  0
 17 18  1  0  0  0  0
 18  2  1  0  0  0  0
 18 19  2  0  0  0  0
 21 16  1  0  0  0  0
 22 25  1  0  0  0  0
 22 15  1  0  0  0  0
 22 23  1  0  0  0  0
 24 22  1  0  0  0  0
 26 28  1  0  0  0  0
 28 27  2  1  0  0  0
 28 29  1  0  0  0  0
 29 30  1  0  0  0  0
 31 33  1  0  0  0  0
 31 28  1  0  0  0  0
 32 39  1  0  0  0  0
 32 41  1  0  0  0  0
 33 32  2  0  0  0  0
 34 36  2  0  0  0  0
 34 33  1  0  0  0  0
 35 34  1  0  0  0  0
 36 38  1  0  0  0  0
 37 36  1  0  0  0  0
 38 39  2  0  0  0  0
 41 40  3  0  0  0  0
M  END
>  <minimizedAffinity>
-5.84162664

$$$$

 OpenBabel03242513433D

 41 44  0  0  0  0  0  0  0  0999 V2000
   37.0440   26.8600   38.5010 C   0  0  0  0  0  0  0  0  0  0  0  0
   36.2110   26.8720   37.4010 C   0  0  0  0  0  0  0  0  0  0  0  0
   35.3570   25.8210   37.2330 C   0  0  0  0  0  0  0  0  0  0  0  0
   35.2970   24.7550   38.1180 C   0  0  0  0  0  0  0  0  0  0  0  0
   34.5990   23.6030   38.2450 N   0  0  0  0  0  0  0  0  0  0  0  0
   34.9810   22.9350   39.3480 C   0  0  0  0  0  0  0  0  0  0  0  0
   35.9360   23.6890   39.9180 N   0  0  0  0  0  0  0  0  0  0  0  0
   36.1450   24.8010   39.1850 C   0  0  0  0  0  0  0  0  0  0  0  0
   37.0200   25.8150   39.4150 C   0  0  0  0  0  0  0  0  0  0  0  0
   37.7340   27.6730   38.6720 H   0  0  0  0  0  0  0  0  0  0  0  0
   34.6770   25.7790   36.3800 H   0  0  0  0  0  0  0  0  0  0  0  0
   33.8640   23.3260   37.5330 H   0  0  0  0  0  0  0  0  0  0  0  0
   34.5870   22.0050   39.6730 H   0  0  0  0  0  0  0  0  0  0  0  0
   36.6820   30.2030   35.9550 C   0  0  0  0  0  0  0  0  0  0  0  0
   36.3050   30.0290   34.6320 C   0  0  0  0  0  0  0  0  0  0  0  0
   35.8890   28.7440   34.2610 C   0  0  0  0  0  0  0  0  0  0  0  0
   35.8680   27.7420   35.1720 N   0  0  0  0  0  0  0  0  0  0  0  0
   36.2490   27.9790   36.4500 C   0  0  0  0  0  0  0  0  0  0  0  0
   36.6510   29.1800   36.8500 N   0  0  0  0  0  0  0  0  0  0  0  0
   37.0190   31.1690   36.3330 H   0  0  0  0  0  0  0  0  0  0  0  0
   35.5920   28.5970   33.2300 H   0  0  0  0  0  0  0  0  0  0  0  0
   36.3620   31.1890   33.7100 C   0  0  0  0  0  0  0  0  0  0  0  0
   37.0000   32.1800   34.4350 F   0  0  0  0  0  0  0  0  0  0  0  0
   35.0780   31.5820   33.4370 F   0  0  0  0  0  0  0  0  0  0  0  0
   37.0460   30.8060   32.5670 F   0  0  0  0  0  0  0  0  0  0  0  0
   37.8530   25.8020   40.5170 O   0  0  0  0  0  0  0  0  0  0  0  0
   38.6280   26.0940   42.9760 O   0  0  0  0  0  0  0  0  0  0  0  0
   37.3890   26.1760   42.0990 P   0  0  2  0  0  0  0  0  0  0  0  0
   36.3370   24.9380   42.6280 O   0  0  0  0  0  0  0  0  0  0  0  0
   36.1660   25.0830   43.6050 H   0  0  0  0  0  0  0  0  0  0  0  0
   36.6640   27.6650   42.2620 O   0  0  0  0  0  0  0  0  0  0  0  0
   36.6550   29.6640   40.9740 C   0  0  0  0  0  0  0  0  0  0  0  0
   37.2830   28.8420   41.9160 C   0  0  0  0  0  0  0  0  0  0  0  0
   38.4850   29.3030   42.4120 C   0  0  0  0  0  0  0  0  0  0  0  0
   38.9860   28.7030   43.1270 H   0  0  0  0  0  0  0  0  0  0  0  0
   39.0740   30.4860   42.0420 C   0  0  0  0  0  0  0  0  0  0  0  0
   40.0320   30.7930   42.4780 H   0  0  0  0  0  0  0  0  0  0  0  0
   38.4140   31.2720   41.1020 C   0  0  0  0  0  3  0  0  0  0  0  0
   37.2090   30.8600   40.5730 C   0  0  0  0  0  3  0  0  0  0  0  0
   34.3780   29.0720   39.8680 N   0  0  0  0  0  0  0  0  0  0  0  0
   35.3960   29.3250   40.3620 C   0  0  0  0  0  0  0  0  0  0  0  0
  1 10  1  0  0  0  0
  1  9  1  0  0  0  0
  2  1  2  0  0  0  0
  3  2  1  0  0  0  0
  3  4  2  0  0  0  0
  4  5  1  0  0  0  0
  4  8  1  0  0  0  0
  5  6  1  0  0  0  0
  6 13  1  0  0  0  0
  6  7  2  0  0  0  0
  8  9  2  0  0  0  0
  8  7  1  0  0  0  0
  9 26  1  0  0  0  0
 11  3  1  0  0  0  0
 12  5  1  0  0  0  0
 14 20  1  0  0  0  0
 14 19  1  0  0  0  0
 15 14  2  0  0  0  0
 16 15  1  0  0  0  0
 16 17  2  0  0  0  0
 17 18  1  0  0  0  0
 18 19  2  0  0  0  0
 18  2  1  0  0  0  0
 21 16  1  0  0  0  0
 22 23  1  0  0  0  0
 22 15  1  0  0  0  0
 24 22  1  0  0  0  0
 25 22  1  0  0  0  0
 26 28  1  0  0  0  0
 28 31  1  0  0  0  0
 28 29  1  0  0  0  0
 28 27  2  1  0  0  0
 29 30  1  0  0  0  0
 32 33  1  0  0  0  0
 33 31  1  0  0  0  0
 33 34  2  0  0  0  0
 34 35  1  0  0  0  0
 36 34  1  0  0  0  0
 36 37  1  0  0  0  0
 38 36  2  0  0  0  0
 39 32  2  0  0  0  0
 39 38  1  0  0  0  0
 40 41  3  0  0  0  0
 41 32  1  0  0  0  0
M  END
>  <minimizedAffinity>
-5.81412172

$$$$
