
 OpenBabel03252508053D

 43 46  0  0  1  0  0  0  0  0999 V2000
   36.7390   27.5570   39.4750 C   0  0  0  0  0  0  0  0  0  0  0  0
   36.3010   28.3330   40.5110 C   0  0  0  0  0  0  0  0  0  0  0  0
   35.0770   29.0150   40.3520 C   0  0  0  0  0  0  0  0  0  0  0  0
   34.3090   28.9350   39.2140 C   0  0  0  0  0  0  0  0  0  0  0  0
   34.7560   28.1520   38.1790 C   0  0  0  0  0  0  0  0  0  0  0  0
   35.9400   27.4910   38.3270 C   0  0  0  0  0  0  0  0  0  0  0  0
   34.6530   29.6590   41.1090 H   0  0  0  0  0  0  0  0  0  0  0  0
   33.3920   29.4450   39.0930 H   0  0  0  0  0  0  0  0  0  0  0  0
   34.2170   28.0430   37.2730 H   0  0  0  0  0  0  0  0  0  0  0  0
   36.2910   26.8650   37.4910 H   0  0  0  0  0  0  0  0  0  0  0  0
   38.1290   26.6140   39.5710 S   0  0  0  0  0  0  0  0  0  0  0  0
   39.2210   27.7000   39.3120 O   0  0  0  0  0  0  0  0  0  0  0  0
   38.2420   25.6230   38.4760 O   0  0  0  0  0  0  0  0  0  0  0  0
   38.5100   25.0360   41.6280 C   0  0  0  0  0  0  0  0  0  0  0  0
   39.0430   26.1410   40.9050 C   0  0  0  0  0  0  0  0  0  0  0  0
   40.2600   26.5340   41.4570 C   0  0  0  0  0  0  0  0  0  0  0  0
   40.6790   27.3600   40.8480 H   0  0  0  0  0  0  0  0  0  0  0  0
   40.9870   26.0610   42.5240 C   0  0  0  0  0  0  0  0  0  0  0  0
   41.9180   26.5390   42.7650 H   0  0  0  0  0  0  0  0  0  0  0  0
   40.3320   25.0220   43.0850 C   0  0  0  0  0  3  0  0  0  0  0  0
   39.1390   24.4730   42.7100 C   0  0  0  0  0  3  0  0  0  0  0  0
   36.2380   23.9070   40.9860 N   0  0  0  0  0  0  0  0  0  0  0  0
   37.2380   24.4160   41.2750 C   0  0  0  0  0  0  0  0  0  0  0  0
   37.0360   28.4820   41.7540 C   0  0  0  0  0  0  0  0  0  0  0  0
   36.8720   27.7480   42.7740 O   0  0  0  0  0  0  0  0  0  0  0  0
   37.9920   29.5600   41.7220 C   0  0  0  0  0  0  0  0  0  0  0  0
   38.9400   29.5790   42.8020 C   0  0  0  0  0  0  0  0  0  0  0  0
   39.8740   30.6040   42.7910 C   0  0  0  0  0  0  0  0  0  0  0  0
   39.8350   31.5080   41.7780 N   0  0  0  0  0  0  0  0  0  0  0  0
   38.9060   31.4430   40.7710 C   0  0  0  0  0  0  0  0  0  0  0  0
   38.0350   30.4930   40.7740 N   0  0  0  0  0  0  0  0  0  0  0  0
   39.0350   28.9110   43.6290 H   0  0  0  0  0  0  0  0  0  0  0  0
   40.6260   30.7220   43.5370 H   0  0  0  0  0  0  0  0  0  0  0  0
   38.9480   32.4650   39.7040 C   0  0  1  0  0  0  0  0  0  0  0  0
   37.7480   33.3590   39.4990 C   0  0  0  0  0  0  0  0  0  0  0  0
   38.9790   33.8630   40.1870 C   0  0  1  0  0  0  0  0  0  0  0  0
   39.5910   32.2350   38.8400 H   0  0  0  0  0  0  0  0  0  0  0  0
   36.8370   33.0790   40.0490 H   0  0  0  0  0  0  0  0  0  0  0  0
   37.5740   33.7160   38.4450 H   0  0  0  0  0  0  0  0  0  0  0  0
   39.5560   34.6430   39.6530 H   0  0  0  0  0  0  0  0  0  0  0  0
   38.7520   34.1590   41.5900 N   0  0  0  0  0  0  0  0  0  0  0  0
   37.8890   34.7260   41.7060 H   0  0  0  0  0  0  0  0  0  0  0  0
   39.5880   34.7010   41.9430 H   0  0  0  0  0  0  0  0  0  0  0  0
  1 11  1  0  0  0  0
  1  2  1  0  0  0  0
  2 24  1  0  0  0  0
  3  2  2  0  0  0  0
  3  7  1  0  0  0  0
  4  3  1  0  0  0  0
  5  6  1  0  0  0  0
  5  4  2  0  0  0  0
  6  1  2  0  0  0  0
  8  4  1  0  0  0  0
  9  5  1  0  0  0  0
 10  6  1  0  0  0  0
 11 15  1  0  0  0  0
 12 11  2  0  0  0  0
 13 11  2  0  0  0  0
 14 21  1  0  0  0  0
 15 16  1  0  0  0  0
 15 14  2  0  0  0  0
 16 18  2  0  0  0  0
 17 16  1  0  0  0  0
 18 19  1  0  0  0  0
 18 20  1  0  0  0  0
 21 20  2  0  0  0  0
 22 23  3  0  0  0  0
 23 14  1  0  0  0  0
 24 25  2  0  0  0  0
 26 24  1  0  0  0  0
 26 27  1  0  0  0  0
 27 32  1  0  0  0  0
 28 27  2  0  0  0  0
 28 33  1  0  0  0  0
 29 28  1  0  0  0  0
 30 31  1  0  0  0  0
 30 29  2  0  0  0  0
 31 26  2  0  0  0  0
 34 37  1  6  0  0  0
 34 36  1  0  0  0  0
 34 30  1  0  0  0  0
 35 34  1  0  0  0  0
 35 38  1  0  0  0  0
 35 36  1  0  0  0  0
 36 40  1  6  0  0  0
 36 41  1  0  0  0  0
 39 35  1  0  0  0  0
 41 42  1  0  0  0  0
 41 43  1  0  0  0  0
M  END
>  <minimizedAffinity>
-6.29321432

$$$$

 OpenBabel03252508053D

 43 46  0  0  1  0  0  0  0  0999 V2000
   36.8920   27.6130   39.2720 C   0  0  0  0  0  0  0  0  0  0  0  0
   36.3660   28.7470   39.8230 C   0  0  0  0  0  0  0  0  0  0  0  0
   35.1190   29.1960   39.3400 C   0  0  0  0  0  0  0  0  0  0  0  0
   34.4150   28.5520   38.3510 C   0  0  0  0  0  0  0  0  0  0  0  0
   34.9500   27.4130   37.8050 C   0  0  0  0  0  0  0  0  0  0  0  0
   36.1550   26.9740   38.2670 C   0  0  0  0  0  0  0  0  0  0  0  0
   34.6280   30.0870   39.7050 H   0  0  0  0  0  0  0  0  0  0  0  0
   33.4800   28.8880   37.9880 H   0  0  0  0  0  0  0  0  0  0  0  0
   34.4630   26.8640   37.0390 H   0  0  0  0  0  0  0  0  0  0  0  0
   36.5780   26.0580   37.8220 H   0  0  0  0  0  0  0  0  0  0  0  0
   38.3200   26.9130   39.8230 S   0  0  0  0  0  0  0  0  0  0  0  0
   39.3700   27.8010   39.0810 O   0  0  0  0  0  0  0  0  0  0  0  0
   38.5170   25.5260   39.3430 O   0  0  0  0  0  0  0  0  0  0  0  0
   38.8020   26.4180   42.3500 C   0  0  0  0  0  0  0  0  0  0  0  0
   39.2080   27.1940   41.2270 C   0  0  0  0  0  0  0  0  0  0  0  0
   40.3140   27.9730   41.5560 C   0  0  0  0  0  0  0  0  0  0  0  0
   40.6420   28.5280   40.6550 H   0  0  0  0  0  0  0  0  0  0  0  0
   41.0340   28.1120   42.7190 C   0  0  0  0  0  0  0  0  0  0  0  0
   41.8650   28.7920   42.7330 H   0  0  0  0  0  0  0  0  0  0  0  0
   40.5080   27.3090   43.6680 C   0  0  0  0  0  3  0  0  0  0  0  0
   39.4370   26.4660   43.5660 C   0  0  0  0  0  3  0  0  0  0  0  0
   36.7470   24.8000   42.2450 N   0  0  0  0  0  0  0  0  0  0  0  0
   37.6620   25.5080   42.2970 C   0  0  0  0  0  0  0  0  0  0  0  0
   37.0300   29.4990   40.8720 C   0  0  0  0  0  0  0  0  0  0  0  0
   37.0120   29.1820   42.1000 O   0  0  0  0  0  0  0  0  0  0  0  0
   37.7290   30.6600   40.3830 C   0  0  0  0  0  0  0  0  0  0  0  0
   37.0200   31.9040   40.5000 C   0  0  0  0  0  0  0  0  0  0  0  0
   37.6730   33.0380   40.0410 C   0  0  0  0  0  0  0  0  0  0  0  0
   38.9200   32.9020   39.5200 N   0  0  0  0  0  0  0  0  0  0  0  0
   39.5510   31.6880   39.4310 C   0  0  0  0  0  0  0  0  0  0  0  0
   38.9500   30.6300   39.8550 N   0  0  0  0  0  0  0  0  0  0  0  0
   36.0460   32.0920   40.8940 H   0  0  0  0  0  0  0  0  0  0  0  0
   37.2500   34.0150   40.0760 H   0  0  0  0  0  0  0  0  0  0  0  0
   40.9130   31.6400   38.8590 C   0  0  1  0  0  0  0  0  0  0  0  0
   41.2070   30.6590   37.7480 C   0  0  0  0  0  0  0  0  0  0  0  0
   41.0150   32.1170   37.4620 C   0  0  1  0  0  0  0  0  0  0  0  0
   41.7310   31.9360   39.5340 H   0  0  0  0  0  0  0  0  0  0  0  0
   40.4270   29.9110   37.5460 H   0  0  0  0  0  0  0  0  0  0  0  0
   42.2620   30.2680   37.7020 H   0  0  0  0  0  0  0  0  0  0  0  0
   41.9070   32.6690   37.1070 H   0  0  0  0  0  0  0  0  0  0  0  0
   39.8150   32.3800   36.6880 N   0  0  0  0  0  0  0  0  0  0  0  0
   39.7590   31.7360   35.8760 H   0  0  0  0  0  0  0  0  0  0  0  0
   39.8650   33.3810   36.3510 H   0  0  0  0  0  0  0  0  0  0  0  0
  1  2  1  0  0  0  0
  1 11  1  0  0  0  0
  2 24  1  0  0  0  0
  3  7  1  0  0  0  0
  3  2  2  0  0  0  0
  4  3  1  0  0  0  0
  5  6  1  0  0  0  0
  5  4  2  0  0  0  0
  6  1  2  0  0  0  0
  8  4  1  0  0  0  0
  9  5  1  0  0  0  0
 10  6  1  0  0  0  0
 11 15  1  0  0  0  0
 12 11  2  0  0  0  0
 13 11  2  0  0  0  0
 14 21  1  0  0  0  0
 15 16  1  0  0  0  0
 15 14  2  0  0  0  0
 16 18  2  0  0  0  0
 17 16  1  0  0  0  0
 18 19  1  0  0  0  0
 18 20  1  0  0  0  0
 21 20  2  0  0  0  0
 22 23  3  0  0  0  0
 23 14  1  0  0  0  0
 24 25  2  0  0  0  0
 26 27  1  0  0  0  0
 26 24  1  0  0  0  0
 27 32  1  0  0  0  0
 28 33  1  0  0  0  0
 28 27  2  0  0  0  0
 29 28  1  0  0  0  0
 30 29  2  0  0  0  0
 30 31  1  0  0  0  0
 31 26  2  0  0  0  0
 34 30  1  0  0  0  0
 34 37  1  1  0  0  0
 35 34  1  0  0  0  0
 36 40  1  6  0  0  0
 36 35  1  0  0  0  0
 36 34  1  0  0  0  0
 38 35  1  0  0  0  0
 39 35  1  0  0  0  0
 41 36  1  0  0  0  0
 42 41  1  0  0  0  0
 43 41  1  0  0  0  0
M  END
>  <minimizedAffinity>
-6.15644646

$$$$

 OpenBabel03252508053D

 43 46  0  0  1  0  0  0  0  0999 V2000
   37.0320   27.9640   40.9080 C   0  0  0  0  0  0  0  0  0  0  0  0
   37.1710   29.0180   41.7660 C   0  0  0  0  0  0  0  0  0  0  0  0
   37.3280   28.7350   43.1390 C   0  0  0  0  0  0  0  0  0  0  0  0
   37.3470   27.4590   43.6500 C   0  0  0  0  0  0  0  0  0  0  0  0
   37.2080   26.4060   42.7810 C   0  0  0  0  0  0  0  0  0  0  0  0
   37.0550   26.6740   41.4530 C   0  0  0  0  0  0  0  0  0  0  0  0
   37.4350   29.5000   43.8940 H   0  0  0  0  0  0  0  0  0  0  0  0
   37.4640   27.2450   44.6780 H   0  0  0  0  0  0  0  0  0  0  0  0
   37.2130   25.3960   43.1030 H   0  0  0  0  0  0  0  0  0  0  0  0
   36.9440   25.8220   40.7630 H   0  0  0  0  0  0  0  0  0  0  0  0
   36.9380   28.1570   39.2390 S   0  0  0  0  0  0  0  0  0  0  0  0
   36.7360   26.6720   38.7980 O   0  0  0  0  0  0  0  0  0  0  0  0
   38.2080   28.6160   38.6300 O   0  0  0  0  0  0  0  0  0  0  0  0
   35.9070   28.5040   36.8560 C   0  0  0  0  0  0  0  0  0  0  0  0
   35.6270   28.5350   38.2510 C   0  0  0  0  0  0  0  0  0  0  0  0
   34.2800   28.8190   38.4640 C   0  0  0  0  0  0  0  0  0  0  0  0
   34.0760   28.7880   39.5530 H   0  0  0  0  0  0  0  0  0  0  0  0
   33.2390   29.0630   37.6000 C   0  0  0  0  0  0  0  0  0  0  0  0
   32.2670   29.2640   38.0090 H   0  0  0  0  0  0  0  0  0  0  0  0
   33.6890   28.9950   36.3290 C   0  0  0  0  0  3  0  0  0  0  0  0
   34.9560   28.7310   35.8930 C   0  0  0  0  0  3  0  0  0  0  0  0
   38.2960   28.0100   35.9070 N   0  0  0  0  0  0  0  0  0  0  0  0
   37.2440   28.2330   36.3360 C   0  0  0  0  0  0  0  0  0  0  0  0
   37.1650   30.4020   41.3260 C   0  0  0  0  0  0  0  0  0  0  0  0
   36.1150   31.0860   41.1340 O   0  0  0  0  0  0  0  0  0  0  0  0
   38.4870   30.9400   41.1270 C   0  0  0  0  0  0  0  0  0  0  0  0
   39.4090   30.7320   42.2100 C   0  0  0  0  0  0  0  0  0  0  0  0
   40.6900   31.2360   42.0400 C   0  0  0  0  0  0  0  0  0  0  0  0
   40.9860   31.8810   40.8810 N   0  0  0  0  0  0  0  0  0  0  0  0
   40.0660   32.0510   39.8790 C   0  0  0  0  0  0  0  0  0  0  0  0
   38.8730   31.5860   40.0300 N   0  0  0  0  0  0  0  0  0  0  0  0
   39.2540   30.2410   43.1440 H   0  0  0  0  0  0  0  0  0  0  0  0
   41.4600   31.1450   42.7710 H   0  0  0  0  0  0  0  0  0  0  0  0
   40.4820   32.7570   38.6490 C   0  0  1  0  0  0  0  0  0  0  0  0
   41.6300   32.2020   37.8390 C   0  0  0  0  0  0  0  0  0  0  0  0
   40.2110   32.0240   37.3930 C   0  0  1  0  0  0  0  0  0  0  0  0
   40.2950   33.8420   38.6290 H   0  0  0  0  0  0  0  0  0  0  0  0
   42.2060   31.3920   38.3090 H   0  0  0  0  0  0  0  0  0  0  0  0
   42.2470   32.9580   37.2760 H   0  0  0  0  0  0  0  0  0  0  0  0
   39.9160   32.5570   36.4680 H   0  0  0  0  0  0  0  0  0  0  0  0
   39.7840   30.6360   37.4310 N   0  0  0  0  0  0  0  0  0  0  0  0
   40.4940   30.0270   36.9800 H   0  0  0  0  0  0  0  0  0  0  0  0
   38.8680   30.5690   36.9090 H   0  0  0  0  0  0  0  0  0  0  0  0
  1  6  2  0  0  0  0
  1  2  1  0  0  0  0
  2  3  2  0  0  0  0
  3  4  1  0  0  0  0
  3  7  1  0  0  0  0
  4  8  1  0  0  0  0
  5  9  1  0  0  0  0
  5  4  2  0  0  0  0
  6  5  1  0  0  0  0
 10  6  1  0  0  0  0
 11  1  1  0  0  0  0
 12 11  2  0  0  0  0
 13 11  2  0  0  0  0
 14 15  1  0  0  0  0
 15 16  2  0  0  0  0
 15 11  1  0  0  0  0
 16 17  1  0  0  0  0
 18 19  1  0  0  0  0
 18 16  1  0  0  0  0
 20 18  2  0  0  0  0
 21 20  1  0  0  0  0
 21 14  2  0  0  0  0
 22 23  3  0  0  0  0
 23 14  1  0  0  0  0
 24  2  1  0  0  0  0
 25 24  2  0  0  0  0
 26 24  1  0  0  0  0
 26 27  1  0  0  0  0
 27 32  1  0  0  0  0
 28 27  2  0  0  0  0
 28 33  1  0  0  0  0
 29 28  1  0  0  0  0
 30 31  1  0  0  0  0
 30 29  2  0  0  0  0
 31 26  2  0  0  0  0
 34 37  1  6  0  0  0
 34 30  1  0  0  0  0
 35 38  1  0  0  0  0
 35 34  1  0  0  0  0
 36 40  1  6  0  0  0
 36 41  1  0  0  0  0
 36 35  1  0  0  0  0
 36 34  1  0  0  0  0
 39 35  1  0  0  0  0
 42 41  1  0  0  0  0
 43 41  1  0  0  0  0
M  END
>  <minimizedAffinity>
-6.01603413

$$$$

 OpenBabel03252508053D

 43 46  0  0  1  0  0  0  0  0999 V2000
   38.7310   26.1160   41.3210 C   0  0  0  0  0  0  0  0  0  0  0  0
   38.4740   26.9970   42.3320 C   0  0  0  0  0  0  0  0  0  0  0  0
   39.2490   26.8980   43.5060 C   0  0  0  0  0  0  0  0  0  0  0  0
   40.2430   25.9640   43.6780 C   0  0  0  0  0  0  0  0  0  0  0  0
   40.4950   25.0840   42.6570 C   0  0  0  0  0  0  0  0  0  0  0  0
   39.7490   25.1740   41.5200 C   0  0  0  0  0  0  0  0  0  0  0  0
   39.1140   27.5420   44.3630 H   0  0  0  0  0  0  0  0  0  0  0  0
   40.8250   25.8880   44.5570 H   0  0  0  0  0  0  0  0  0  0  0  0
   41.2460   24.3380   42.7190 H   0  0  0  0  0  0  0  0  0  0  0  0
   39.9580   24.4620   40.7050 H   0  0  0  0  0  0  0  0  0  0  0  0
   37.9500   26.1880   39.8320 S   0  0  0  0  0  0  0  0  0  0  0  0
   36.5730   25.5540   40.2080 O   0  0  0  0  0  0  0  0  0  0  0  0
   38.5600   25.3100   38.8060 O   0  0  0  0  0  0  0  0  0  0  0  0
   37.8710   28.3870   38.4100 C   0  0  0  0  0  0  0  0  0  0  0  0
   37.0770   27.4360   39.1110 C   0  0  0  0  0  0  0  0  0  0  0  0
   35.7260   27.7430   38.9730 C   0  0  0  0  0  0  0  0  0  0  0  0
   35.1280   26.9630   39.4830 H   0  0  0  0  0  0  0  0  0  0  0  0
   35.0710   28.7570   38.3130 C   0  0  0  0  0  0  0  0  0  0  0  0
   33.9990   28.7880   38.3530 H   0  0  0  0  0  0  0  0  0  0  0  0
   35.9780   29.5570   37.7120 C   0  0  0  0  0  3  0  0  0  0  0  0
   37.3390   29.4430   37.7130 C   0  0  0  0  0  3  0  0  0  0  0  0
   40.4850   28.2490   38.3790 N   0  0  0  0  0  0  0  0  0  0  0  0
   39.3290   28.3160   38.3830 C   0  0  0  0  0  0  0  0  0  0  0  0
   37.4470   28.0200   42.2480 C   0  0  0  0  0  0  0  0  0  0  0  0
   36.2100   27.8090   42.4320 O   0  0  0  0  0  0  0  0  0  0  0  0
   37.9710   29.3250   41.9330 C   0  0  0  0  0  0  0  0  0  0  0  0
   39.2790   29.6110   42.4570 C   0  0  0  0  0  0  0  0  0  0  0  0
   39.8080   30.8590   42.1630 C   0  0  0  0  0  0  0  0  0  0  0  0
   39.0690   31.7160   41.4110 N   0  0  0  0  0  0  0  0  0  0  0  0
   37.8240   31.3920   40.9360 C   0  0  0  0  0  0  0  0  0  0  0  0
   37.3260   30.2340   41.2060 N   0  0  0  0  0  0  0  0  0  0  0  0
   39.9170   28.9950   43.0510 H   0  0  0  0  0  0  0  0  0  0  0  0
   40.7660   31.1840   42.4950 H   0  0  0  0  0  0  0  0  0  0  0  0
   37.0990   32.3860   40.1170 C   0  0  1  0  0  0  0  0  0  0  0  0
   37.7000   33.7590   39.9300 C   0  0  0  0  0  0  0  0  0  0  0  0
   37.7580   32.7340   38.8390 C   0  0  1  0  0  0  0  0  0  0  0  0
   36.0040   32.2770   40.0850 H   0  0  0  0  0  0  0  0  0  0  0  0
   38.5670   33.9970   40.5630 H   0  0  0  0  0  0  0  0  0  0  0  0
   36.9660   34.6030   39.7930 H   0  0  0  0  0  0  0  0  0  0  0  0
   37.1680   32.9510   37.9280 H   0  0  0  0  0  0  0  0  0  0  0  0
   39.1130   32.2860   38.5670 N   0  0  0  0  0  0  0  0  0  0  0  0
   39.7520   33.0990   38.4760 H   0  0  0  0  0  0  0  0  0  0  0  0
   39.0940   31.7400   37.6620 H   0  0  0  0  0  0  0  0  0  0  0  0
  1  6  2  0  0  0  0
  1  2  1  0  0  0  0
  2  3  2  0  0  0  0
  3  4  1  0  0  0  0
  3  7  1  0  0  0  0
  4  8  1  0  0  0  0
  5  9  1  0  0  0  0
  5  4  2  0  0  0  0
  6  5  1  0  0  0  0
 10  6  1  0  0  0  0
 11 12  2  0  0  0  0
 11  1  1  0  0  0  0
 13 11  2  0  0  0  0
 14 15  1  0  0  0  0
 15 11  1  0  0  0  0
 16 15  2  0  0  0  0
 16 17  1  0  0  0  0
 18 19  1  0  0  0  0
 18 16  1  0  0  0  0
 20 21  1  0  0  0  0
 20 18  2  0  0  0  0
 21 14  2  0  0  0  0
 22 23  3  0  0  0  0
 23 14  1  0  0  0  0
 24  2  1  0  0  0  0
 24 25  2  0  0  0  0
 26 24  1  0  0  0  0
 26 27  1  0  0  0  0
 27 32  1  0  0  0  0
 28 27  2  0  0  0  0
 28 33  1  0  0  0  0
 29 28  1  0  0  0  0
 30 31  1  0  0  0  0
 30 29  2  0  0  0  0
 31 26  2  0  0  0  0
 34 37  1  6  0  0  0
 34 30  1  0  0  0  0
 35 34  1  0  0  0  0
 35 38  1  0  0  0  0
 36 40  1  6  0  0  0
 36 35  1  0  0  0  0
 36 34  1  0  0  0  0
 39 35  1  0  0  0  0
 41 36  1  0  0  0  0
 42 41  1  0  0  0  0
 43 41  1  0  0  0  0
M  END
>  <minimizedAffinity>
-5.89184523

$$$$

 OpenBabel03252508053D

 43 46  0  0  1  0  0  0  0  0999 V2000
   40.2960   28.4850   42.4850 C   0  0  0  0  0  0  0  0  0  0  0  0
   39.2860   29.3910   42.6370 C   0  0  0  0  0  0  0  0  0  0  0  0
   39.6360   30.7490   42.7850 C   0  0  0  0  0  0  0  0  0  0  0  0
   40.9350   31.2000   42.7850 C   0  0  0  0  0  0  0  0  0  0  0  0
   41.9430   30.2820   42.6310 C   0  0  0  0  0  0  0  0  0  0  0  0
   41.6110   28.9680   42.4870 C   0  0  0  0  0  0  0  0  0  0  0  0
   38.9100   31.5380   42.9210 H   0  0  0  0  0  0  0  0  0  0  0  0
   41.1990   32.2170   42.8960 H   0  0  0  0  0  0  0  0  0  0  0  0
   42.9670   30.5570   42.6200 H   0  0  0  0  0  0  0  0  0  0  0  0
   42.4280   28.2380   42.3640 H   0  0  0  0  0  0  0  0  0  0  0  0
   40.0150   26.8500   42.1990 S   0  0  0  0  0  0  0  0  0  0  0  0
   39.5620   26.3920   43.6210 O   0  0  0  0  0  0  0  0  0  0  0  0
   41.2460   26.0920   41.8770 O   0  0  0  0  0  0  0  0  0  0  0  0
   38.4070   26.2570   40.2170 C   0  0  0  0  0  0  0  0  0  0  0  0
   38.6500   26.0600   41.6060 C   0  0  0  0  0  0  0  0  0  0  0  0
   37.7080   25.1850   42.1400 C   0  0  0  0  0  0  0  0  0  0  0  0
   37.9470   25.0080   43.2070 H   0  0  0  0  0  0  0  0  0  0  0  0
   36.6410   24.5220   41.5800 C   0  0  0  0  0  0  0  0  0  0  0  0
   36.0420   23.8880   42.2070 H   0  0  0  0  0  0  0  0  0  0  0  0
   36.5650   24.8270   40.2670 C   0  0  0  0  0  3  0  0  0  0  0  0
   37.3770   25.6520   39.5420 C   0  0  0  0  0  3  0  0  0  0  0  0
   39.9050   27.8350   38.7630 N   0  0  0  0  0  0  0  0  0  0  0  0
   39.2400   27.1310   39.3970 C   0  0  0  0  0  0  0  0  0  0  0  0
   37.8830   29.0180   42.6500 C   0  0  0  0  0  0  0  0  0  0  0  0
   37.3020   28.4550   43.6260 O   0  0  0  0  0  0  0  0  0  0  0  0
   37.1950   29.3540   41.4290 C   0  0  0  0  0  0  0  0  0  0  0  0
   35.9720   28.6370   41.1910 C   0  0  0  0  0  0  0  0  0  0  0  0
   35.2880   28.9460   40.0240 C   0  0  0  0  0  0  0  0  0  0  0  0
   35.8080   29.8900   39.1970 N   0  0  0  0  0  0  0  0  0  0  0  0
   36.9810   30.5440   39.4740 C   0  0  0  0  0  0  0  0  0  0  0  0
   37.6220   30.2620   40.5560 N   0  0  0  0  0  0  0  0  0  0  0  0
   35.5020   27.8870   41.7860 H   0  0  0  0  0  0  0  0  0  0  0  0
   34.3720   28.4820   39.7400 H   0  0  0  0  0  0  0  0  0  0  0  0
   37.4630   31.5640   38.5200 C   0  0  1  0  0  0  0  0  0  0  0  0
   38.9140   31.5460   38.0980 C   0  0  0  0  0  0  0  0  0  0  0  0
   37.8370   31.0390   37.1880 C   0  0  1  0  0  0  0  0  0  0  0  0
   36.9260   32.5260   38.5300 H   0  0  0  0  0  0  0  0  0  0  0  0
   39.5730   30.8720   38.6650 H   0  0  0  0  0  0  0  0  0  0  0  0
   39.3640   32.5460   37.8420 H   0  0  0  0  0  0  0  0  0  0  0  0
   37.6560   31.6260   36.2670 H   0  0  0  0  0  0  0  0  0  0  0  0
   37.9250   29.6070   36.9640 N   0  0  0  0  0  0  0  0  0  0  0  0
   38.9000   29.3370   36.7270 H   0  0  0  0  0  0  0  0  0  0  0  0
   37.2810   29.3690   36.1600 H   0  0  0  0  0  0  0  0  0  0  0  0
  1  6  2  0  0  0  0
  1  2  1  0  0  0  0
  2 24  1  0  0  0  0
  2  3  2  0  0  0  0
  3  7  1  0  0  0  0
  4  3  1  0  0  0  0
  4  8  1  0  0  0  0
  5  4  2  0  0  0  0
  6  5  1  0  0  0  0
  9  5  1  0  0  0  0
 10  6  1  0  0  0  0
 11  1  1  0  0  0  0
 11 12  2  0  0  0  0
 13 11  2  0  0  0  0
 14 15  1  0  0  0  0
 15 16  2  0  0  0  0
 15 11  1  0  0  0  0
 16 17  1  0  0  0  0
 18 16  1  0  0  0  0
 18 19  1  0  0  0  0
 20 18  2  0  0  0  0
 21 14  2  0  0  0  0
 21 20  1  0  0  0  0
 22 23  3  0  0  0  0
 23 14  1  0  0  0  0
 24 25  2  0  0  0  0
 26 24  1  0  0  0  0
 27 26  1  0  0  0  0
 27 32  1  0  0  0  0
 28 27  2  0  0  0  0
 29 30  2  0  0  0  0
 29 28  1  0  0  0  0
 30 31  1  0  0  0  0
 31 26  2  0  0  0  0
 33 28  1  0  0  0  0
 34 37  1  1  0  0  0
 34 30  1  0  0  0  0
 35 34  1  0  0  0  0
 35 38  1  0  0  0  0
 36 40  1  6  0  0  0
 36 35  1  0  0  0  0
 36 34  1  0  0  0  0
 39 35  1  0  0  0  0
 41 36  1  0  0  0  0
 42 41  1  0  0  0  0
 43 41  1  0  0  0  0
M  END
>  <minimizedAffinity>
-5.82123947

$$$$

 OpenBabel03252508053D

 43 46  0  0  1  0  0  0  0  0999 V2000
   37.7930   29.5660   40.0910 C   0  0  0  0  0  0  0  0  0  0  0  0
   37.1460   29.0520   41.1790 C   0  0  0  0  0  0  0  0  0  0  0  0
   35.7520   28.8600   41.0860 C   0  0  0  0  0  0  0  0  0  0  0  0
   35.0200   29.1620   39.9620 C   0  0  0  0  0  0  0  0  0  0  0  0
   35.6790   29.6760   38.8740 C   0  0  0  0  0  0  0  0  0  0  0  0
   37.0270   29.8650   38.9580 C   0  0  0  0  0  0  0  0  0  0  0  0
   35.1510   28.4690   41.8950 H   0  0  0  0  0  0  0  0  0  0  0  0
   33.9760   29.0180   39.8910 H   0  0  0  0  0  0  0  0  0  0  0  0
   35.1800   29.9320   37.9740 H   0  0  0  0  0  0  0  0  0  0  0  0
   37.5470   30.2790   38.0790 H   0  0  0  0  0  0  0  0  0  0  0  0
   39.4650   29.7520   40.0330 S   0  0  0  0  0  0  0  0  0  0  0  0
   39.9000   28.2780   39.7550 O   0  0  0  0  0  0  0  0  0  0  0  0
   40.0580   30.1350   41.3350 O   0  0  0  0  0  0  0  0  0  0  0  0
   40.4500   31.5830   38.4390 C   0  0  0  0  0  0  0  0  0  0  0  0
   40.4750   30.1960   38.7600 C   0  0  0  0  0  0  0  0  0  0  0  0
   41.4030   29.5350   37.9590 C   0  0  0  0  0  0  0  0  0  0  0  0
   41.4400   28.4700   38.2610 H   0  0  0  0  0  0  0  0  0  0  0  0
   42.2470   29.9740   36.9670 C   0  0  0  0  0  0  0  0  0  0  0  0
   42.8840   29.2600   36.4800 H   0  0  0  0  0  0  0  0  0  0  0  0
   42.0860   31.3040   36.8000 C   0  0  0  0  0  3  0  0  0  0  0  0
   41.2430   32.1450   37.4700 C   0  0  0  0  0  3  0  0  0  0  0  0
   38.8770   33.2850   39.6550 N   0  0  0  0  0  0  0  0  0  0  0  0
   39.5650   32.5240   39.1190 C   0  0  0  0  0  0  0  0  0  0  0  0
   37.8270   28.7000   42.4120 C   0  0  0  0  0  0  0  0  0  0  0  0
   38.0840   29.5190   43.3460 O   0  0  0  0  0  0  0  0  0  0  0  0
   38.1910   27.3080   42.4810 C   0  0  0  0  0  0  0  0  0  0  0  0
   39.4170   27.0220   43.1740 C   0  0  0  0  0  0  0  0  0  0  0  0
   39.7870   25.6880   43.2600 C   0  0  0  0  0  0  0  0  0  0  0  0
   38.9790   24.7530   42.6940 N   0  0  0  0  0  0  0  0  0  0  0  0
   37.8180   25.0820   42.0430 C   0  0  0  0  0  0  0  0  0  0  0  0
   37.4680   26.3200   41.9590 N   0  0  0  0  0  0  0  0  0  0  0  0
   40.1010   27.6950   43.6410 H   0  0  0  0  0  0  0  0  0  0  0  0
   40.6720   25.3530   43.7480 H   0  0  0  0  0  0  0  0  0  0  0  0
   36.9980   23.9950   41.4680 C   0  0  1  0  0  0  0  0  0  0  0  0
   36.4190   24.1680   40.0830 C   0  0  0  0  0  0  0  0  0  0  0  0
   37.6140   23.2960   40.3190 C   0  0  1  0  0  0  0  0  0  0  0  0
   36.4610   23.3620   42.1920 H   0  0  0  0  0  0  0  0  0  0  0  0
   36.5010   25.1740   39.6480 H   0  0  0  0  0  0  0  0  0  0  0  0
   35.4410   23.6450   39.8900 H   0  0  0  0  0  0  0  0  0  0  0  0
   37.4680   22.2090   40.1620 H   0  0  0  0  0  0  0  0  0  0  0  0
   38.8190   23.8220   39.7020 N   0  0  0  0  0  0  0  0  0  0  0  0
   38.6310   24.0970   38.7180 H   0  0  0  0  0  0  0  0  0  0  0  0
   39.5510   23.0590   39.7280 H   0  0  0  0  0  0  0  0  0  0  0  0
  1  2  1  0  0  0  0
  2 24  1  0  0  0  0
  3  2  2  0  0  0  0
  3  7  1  0  0  0  0
  4  3  1  0  0  0  0
  5  6  1  0  0  0  0
  5  4  2  0  0  0  0
  6  1  2  0  0  0  0
  8  4  1  0  0  0  0
  9  5  1  0  0  0  0
 10  6  1  0  0  0  0
 11  1  1  0  0  0  0
 11 13  2  0  0  0  0
 12 11  2  0  0  0  0
 14 15  1  0  0  0  0
 14 23  1  0  0  0  0
 15 11  1  0  0  0  0
 16 17  1  0  0  0  0
 16 15  2  0  0  0  0
 18 16  1  0  0  0  0
 19 18  1  0  0  0  0
 20 18  2  0  0  0  0
 20 21  1  0  0  0  0
 21 14  2  0  0  0  0
 23 22  3  0  0  0  0
 24 26  1  0  0  0  0
 24 25  2  0  0  0  0
 26 27  1  0  0  0  0
 27 28  2  0  0  0  0
 27 32  1  0  0  0  0
 28 33  1  0  0  0  0
 29 28  1  0  0  0  0
 30 29  2  0  0  0  0
 31 30  1  0  0  0  0
 31 26  2  0  0  0  0
 34 30  1  0  0  0  0
 34 37  1  1  0  0  0
 35 36  1  0  0  0  0
 35 34  1  0  0  0  0
 36 40  1  6  0  0  0
 36 34  1  0  0  0  0
 38 35  1  0  0  0  0
 39 35  1  0  0  0  0
 41 43  1  0  0  0  0
 41 36  1  0  0  0  0
 42 41  1  0  0  0  0
M  END
>  <minimizedAffinity>
-5.78211689

$$$$

 OpenBabel03252508053D

 43 46  0  0  1  0  0  0  0  0999 V2000
   39.6030   27.8020   41.1820 C   0  0  0  0  0  0  0  0  0  0  0  0
   39.4620   28.9640   41.8870 C   0  0  0  0  0  0  0  0  0  0  0  0
   40.5280   29.3650   42.7180 C   0  0  0  0  0  0  0  0  0  0  0  0
   41.6930   28.6470   42.8520 C   0  0  0  0  0  0  0  0  0  0  0  0
   41.8270   27.4830   42.1400 C   0  0  0  0  0  0  0  0  0  0  0  0
   40.8000   27.0900   41.3340 C   0  0  0  0  0  0  0  0  0  0  0  0
   40.5070   30.2610   43.3210 H   0  0  0  0  0  0  0  0  0  0  0  0
   42.4930   28.9460   43.4740 H   0  0  0  0  0  0  0  0  0  0  0  0
   42.6970   26.8780   42.1920 H   0  0  0  0  0  0  0  0  0  0  0  0
   40.9160   26.1520   40.7670 H   0  0  0  0  0  0  0  0  0  0  0  0
   38.4520   27.2620   40.0800 S   0  0  0  0  0  0  0  0  0  0  0  0
   37.3820   26.6800   41.0570 O   0  0  0  0  0  0  0  0  0  0  0  0
   38.9260   26.1350   39.2430 O   0  0  0  0  0  0  0  0  0  0  0  0
   37.5740   28.8550   38.1950 C   0  0  0  0  0  0  0  0  0  0  0  0
   37.1880   28.0800   39.3250 C   0  0  0  0  0  0  0  0  0  0  0  0
   35.8080   28.1390   39.4990 C   0  0  0  0  0  0  0  0  0  0  0  0
   35.5260   27.4900   40.3510 H   0  0  0  0  0  0  0  0  0  0  0  0
   34.8150   28.7880   38.8020 C   0  0  0  0  0  0  0  0  0  0  0  0
   33.8000   28.6830   39.1350 H   0  0  0  0  0  0  0  0  0  0  0  0
   35.3640   29.4690   37.7740 C   0  0  0  0  0  3  0  0  0  0  0  0
   36.6800   29.5490   37.4180 C   0  0  0  0  0  3  0  0  0  0  0  0
   40.0650   29.0860   37.4240 N   0  0  0  0  0  0  0  0  0  0  0  0
   38.9660   28.9800   37.7750 C   0  0  0  0  0  0  0  0  0  0  0  0
   38.2730   29.7930   41.8140 C   0  0  0  0  0  0  0  0  0  0  0  0
   37.2020   29.5650   42.4540 O   0  0  0  0  0  0  0  0  0  0  0  0
   38.4220   30.9240   40.9330 C   0  0  0  0  0  0  0  0  0  0  0  0
   37.2010   31.5900   40.5690 C   0  0  0  0  0  0  0  0  0  0  0  0
   37.3190   32.6850   39.7250 C   0  0  0  0  0  0  0  0  0  0  0  0
   38.5580   33.0520   39.3070 N   0  0  0  0  0  0  0  0  0  0  0  0
   39.6910   32.3790   39.6870 C   0  0  0  0  0  0  0  0  0  0  0  0
   39.5900   31.3610   40.4690 N   0  0  0  0  0  0  0  0  0  0  0  0
   36.1980   31.3630   40.8530 H   0  0  0  0  0  0  0  0  0  0  0  0
   36.4870   33.2580   39.3870 H   0  0  0  0  0  0  0  0  0  0  0  0
   40.9980   32.8590   39.1890 C   0  0  1  0  0  0  0  0  0  0  0  0
   41.9110   31.8900   38.4750 C   0  0  0  0  0  0  0  0  0  0  0  0
   41.1180   32.9100   37.7150 C   0  0  1  0  0  0  0  0  0  0  0  0
   41.4450   33.6990   39.7430 H   0  0  0  0  0  0  0  0  0  0  0  0
   41.6190   30.8310   38.5190 H   0  0  0  0  0  0  0  0  0  0  0  0
   43.0150   32.0840   38.5820 H   0  0  0  0  0  0  0  0  0  0  0  0
   41.6990   33.7090   37.2130 H   0  0  0  0  0  0  0  0  0  0  0  0
   40.0970   32.3100   36.8750 N   0  0  0  0  0  0  0  0  0  0  0  0
   40.4970   31.5260   36.3240 H   0  0  0  0  0  0  0  0  0  0  0  0
   39.7370   33.0610   36.2240 H   0  0  0  0  0  0  0  0  0  0  0  0
  1  6  2  0  0  0  0
  1  2  1  0  0  0  0
  2  3  2  0  0  0  0
  3  4  1  0  0  0  0
  3  7  1  0  0  0  0
  4  8  1  0  0  0  0
  5  9  1  0  0  0  0
  5  4  2  0  0  0  0
  6  5  1  0  0  0  0
 10  6  1  0  0  0  0
 11 12  2  0  0  0  0
 11  1  1  0  0  0  0
 13 11  2  0  0  0  0
 14 15  1  0  0  0  0
 15 16  2  0  0  0  0
 15 11  1  0  0  0  0
 16 17  1  0  0  0  0
 18 19  1  0  0  0  0
 18 16  1  0  0  0  0
 20 18  2  0  0  0  0
 21 20  1  0  0  0  0
 21 14  2  0  0  0  0
 22 23  3  0  0  0  0
 23 14  1  0  0  0  0
 24  2  1  0  0  0  0
 24 25  2  0  0  0  0
 26 24  1  0  0  0  0
 27 32  1  0  0  0  0
 27 26  1  0  0  0  0
 28 27  2  0  0  0  0
 29 30  2  0  0  0  0
 29 28  1  0  0  0  0
 30 31  1  0  0  0  0
 31 26  2  0  0  0  0
 33 28  1  0  0  0  0
 34 30  1  0  0  0  0
 34 37  1  1  0  0  0
 35 38  1  0  0  0  0
 35 39  1  0  0  0  0
 35 34  1  0  0  0  0
 36 40  1  6  0  0  0
 36 35  1  0  0  0  0
 36 34  1  0  0  0  0
 41 36  1  0  0  0  0
 42 41  1  0  0  0  0
 43 41  1  0  0  0  0
M  END
>  <minimizedAffinity>
-5.64320183

$$$$

 OpenBabel03252508053D

 43 46  0  0  1  0  0  0  0  0999 V2000
   37.4050   28.8540   39.0610 C   0  0  0  0  0  0  0  0  0  0  0  0
   37.1250   30.1800   38.8860 C   0  0  0  0  0  0  0  0  0  0  0  0
   36.8610   30.6310   37.5760 C   0  0  0  0  0  0  0  0  0  0  0  0
   36.8700   29.8060   36.4770 C   0  0  0  0  0  0  0  0  0  0  0  0
   37.1500   28.4760   36.6610 C   0  0  0  0  0  0  0  0  0  0  0  0
   37.4070   28.0340   37.9250 C   0  0  0  0  0  0  0  0  0  0  0  0
   36.6400   31.6610   37.3360 H   0  0  0  0  0  0  0  0  0  0  0  0
   36.6710   30.1420   35.4940 H   0  0  0  0  0  0  0  0  0  0  0  0
   37.1740   27.7810   35.8600 H   0  0  0  0  0  0  0  0  0  0  0  0
   37.6320   26.9640   38.0640 H   0  0  0  0  0  0  0  0  0  0  0  0
   37.6400   28.1670   40.5790 S   0  0  0  0  0  0  0  0  0  0  0  0
   36.1600   28.0410   41.0600 O   0  0  0  0  0  0  0  0  0  0  0  0
   38.3250   29.0720   41.5310 O   0  0  0  0  0  0  0  0  0  0  0  0
   39.1270   26.0200   40.7870 C   0  0  0  0  0  0  0  0  0  0  0  0
   37.8320   26.5570   41.0360 C   0  0  0  0  0  0  0  0  0  0  0  0
   37.0340   25.6110   41.6740 C   0  0  0  0  0  0  0  0  0  0  0  0
   36.0510   26.0670   41.9020 H   0  0  0  0  0  0  0  0  0  0  0  0
   37.2760   24.3180   42.0750 C   0  0  0  0  0  0  0  0  0  0  0  0
   36.4860   23.7730   42.5570 H   0  0  0  0  0  0  0  0  0  0  0  0
   38.5440   23.9810   41.7580 C   0  0  0  0  0  3  0  0  0  0  0  0
   39.4920   24.7450   41.1390 C   0  0  0  0  0  3  0  0  0  0  0  0
   41.0190   27.3850   39.6000 N   0  0  0  0  0  0  0  0  0  0  0  0
   40.1750   26.7900   40.1240 C   0  0  0  0  0  0  0  0  0  0  0  0
   37.0900   31.1320   39.9820 C   0  0  0  0  0  0  0  0  0  0  0  0
   36.1500   31.2120   40.8290 O   0  0  0  0  0  0  0  0  0  0  0  0
   38.2440   31.9930   40.0230 C   0  0  0  0  0  0  0  0  0  0  0  0
   38.0130   33.3140   40.5410 C   0  0  0  0  0  0  0  0  0  0  0  0
   39.1100   34.1610   40.5960 C   0  0  0  0  0  0  0  0  0  0  0  0
   40.3120   33.6960   40.1640 N   0  0  0  0  0  0  0  0  0  0  0  0
   40.4760   32.4240   39.6780 C   0  0  0  0  0  0  0  0  0  0  0  0
   39.4610   31.6320   39.6240 N   0  0  0  0  0  0  0  0  0  0  0  0
   37.1070   33.7510   40.8960 H   0  0  0  0  0  0  0  0  0  0  0  0
   39.0630   35.1610   40.9600 H   0  0  0  0  0  0  0  0  0  0  0  0
   41.8240   32.0030   39.2420 C   0  0  1  0  0  0  0  0  0  0  0  0
   41.9530   31.0500   38.0770 C   0  0  0  0  0  0  0  0  0  0  0  0
   42.2330   32.5130   37.9140 C   0  0  1  0  0  0  0  0  0  0  0  0
   42.6020   31.9970   40.0210 H   0  0  0  0  0  0  0  0  0  0  0  0
   41.0190   30.5860   37.7270 H   0  0  0  0  0  0  0  0  0  0  0  0
   42.8450   30.3630   38.0990 H   0  0  0  0  0  0  0  0  0  0  0  0
   43.2830   32.7920   37.7040 H   0  0  0  0  0  0  0  0  0  0  0  0
   41.2670   33.1730   37.0540 N   0  0  0  0  0  0  0  0  0  0  0  0
   41.1260   32.6270   36.1820 H   0  0  0  0  0  0  0  0  0  0  0  0
   41.6490   34.1310   36.8200 H   0  0  0  0  0  0  0  0  0  0  0  0
  1 11  1  0  0  0  0
  2  1  1  0  0  0  0
  2 24  1  0  0  0  0
  3  2  2  0  0  0  0
  4  5  2  0  0  0  0
  4  3  1  0  0  0  0
  5  6  1  0  0  0  0
  6 10  1  0  0  0  0
  6  1  2  0  0  0  0
  7  3  1  0  0  0  0
  8  4  1  0  0  0  0
  9  5  1  0  0  0  0
 11 15  1  0  0  0  0
 11 12  2  0  0  0  0
 11 13  2  0  0  0  0
 14 15  2  0  0  0  0
 14 21  1  0  0  0  0
 15 16  1  0  0  0  0
 16 17  1  0  0  0  0
 16 18  2  0  0  0  0
 18 19  1  0  0  0  0
 20 18  1  0  0  0  0
 21 20  2  0  0  0  0
 22 23  3  0  0  0  0
 23 14  1  0  0  0  0
 24 26  1  0  0  0  0
 24 25  2  0  0  0  0
 26 27  1  0  0  0  0
 27 28  2  0  0  0  0
 27 32  1  0  0  0  0
 28 33  1  0  0  0  0
 29 28  1  0  0  0  0
 30 29  2  0  0  0  0
 31 30  1  0  0  0  0
 31 26  2  0  0  0  0
 34 30  1  0  0  0  0
 34 37  1  1  0  0  0
 35 39  1  0  0  0  0
 35 34  1  0  0  0  0
 36 40  1  6  0  0  0
 36 35  1  0  0  0  0
 36 34  1  0  0  0  0
 38 35  1  0  0  0  0
 41 36  1  0  0  0  0
 42 41  1  0  0  0  0
 43 41  1  0  0  0  0
M  END
>  <minimizedAffinity>
-5.63302755

$$$$

 OpenBabel03252508053D

 43 46  0  0  1  0  0  0  0  0999 V2000
   36.2210   29.6830   37.7680 C   0  0  0  0  0  0  0  0  0  0  0  0
   35.4870   29.1360   38.7810 C   0  0  0  0  0  0  0  0  0  0  0  0
   34.3340   28.4000   38.4370 C   0  0  0  0  0  0  0  0  0  0  0  0
   33.9180   28.2100   37.1400 C   0  0  0  0  0  0  0  0  0  0  0  0
   34.6620   28.7630   36.1290 C   0  0  0  0  0  0  0  0  0  0  0  0
   35.7780   29.4750   36.4560 C   0  0  0  0  0  0  0  0  0  0  0  0
   33.6840   27.9380   39.1660 H   0  0  0  0  0  0  0  0  0  0  0  0
   33.0540   27.6590   36.8800 H   0  0  0  0  0  0  0  0  0  0  0  0
   34.4030   28.6570   35.1060 H   0  0  0  0  0  0  0  0  0  0  0  0
   36.3690   29.9160   35.6370 H   0  0  0  0  0  0  0  0  0  0  0  0
   37.6700   30.4980   38.0330 S   0  0  0  0  0  0  0  0  0  0  0  0
   37.5920   31.5790   36.9100 O   0  0  0  0  0  0  0  0  0  0  0  0
   38.8670   29.6720   37.7500 O   0  0  0  0  0  0  0  0  0  0  0  0
   38.9440   31.3990   40.1370 C   0  0  0  0  0  0  0  0  0  0  0  0
   38.0440   31.7530   39.0930 C   0  0  0  0  0  0  0  0  0  0  0  0
   37.7320   33.1080   39.1660 C   0  0  0  0  0  0  0  0  0  0  0  0
   37.0730   33.3700   38.3160 H   0  0  0  0  0  0  0  0  0  0  0  0
   38.1240   34.1010   40.0330 C   0  0  0  0  0  0  0  0  0  0  0  0
   37.7390   35.0930   39.8870 H   0  0  0  0  0  0  0  0  0  0  0  0
   38.9680   33.5840   40.9510 C   0  0  0  0  0  3  0  0  0  0  0  0
   39.4090   32.2960   41.0650 C   0  0  0  0  0  3  0  0  0  0  0  0
   39.8220   28.9510   40.4310 N   0  0  0  0  0  0  0  0  0  0  0  0
   39.4410   30.0370   40.3090 C   0  0  0  0  0  0  0  0  0  0  0  0
   35.8420   29.2780   40.1820 C   0  0  0  0  0  0  0  0  0  0  0  0
   35.6660   30.3340   40.8600 O   0  0  0  0  0  0  0  0  0  0  0  0
   36.4210   28.0840   40.7450 C   0  0  0  0  0  0  0  0  0  0  0  0
   36.4340   28.0200   42.1800 C   0  0  0  0  0  0  0  0  0  0  0  0
   36.9810   26.8790   42.7470 C   0  0  0  0  0  0  0  0  0  0  0  0
   37.4610   25.9110   41.9230 N   0  0  0  0  0  0  0  0  0  0  0  0
   37.4230   26.0240   40.5570 C   0  0  0  0  0  0  0  0  0  0  0  0
   36.9160   27.0820   40.0230 N   0  0  0  0  0  0  0  0  0  0  0  0
   36.0800   28.7330   42.8910 H   0  0  0  0  0  0  0  0  0  0  0  0
   37.0470   26.7170   43.7980 H   0  0  0  0  0  0  0  0  0  0  0  0
   37.9590   24.9140   39.7410 C   0  0  1  0  0  0  0  0  0  0  0  0
   37.3360   23.5430   39.8680 C   0  0  0  0  0  0  0  0  0  0  0  0
   37.0420   24.4200   38.6900 C   0  0  1  0  0  0  0  0  0  0  0  0
   39.0220   24.9900   39.4620 H   0  0  0  0  0  0  0  0  0  0  0  0
   36.6260   23.4110   40.6970 H   0  0  0  0  0  0  0  0  0  0  0  0
   38.0270   22.6710   39.6910 H   0  0  0  0  0  0  0  0  0  0  0  0
   37.4250   24.0710   37.7110 H   0  0  0  0  0  0  0  0  0  0  0  0
   35.6590   24.8620   38.6550 N   0  0  0  0  0  0  0  0  0  0  0  0
   35.0180   24.0600   38.8100 H   0  0  0  0  0  0  0  0  0  0  0  0
   35.4820   25.2850   37.7030 H   0  0  0  0  0  0  0  0  0  0  0  0
  1 11  1  0  0  0  0
  1  2  1  0  0  0  0
  2 24  1  0  0  0  0
  3  2  2  0  0  0  0
  3  7  1  0  0  0  0
  4  3  1  0  0  0  0
  5  6  1  0  0  0  0
  5  4  2  0  0  0  0
  6  1  2  0  0  0  0
  8  4  1  0  0  0  0
  9  5  1  0  0  0  0
 10  6  1  0  0  0  0
 11 15  1  0  0  0  0
 12 11  2  0  0  0  0
 13 11  2  0  0  0  0
 14 23  1  0  0  0  0
 14 21  1  0  0  0  0
 15 16  1  0  0  0  0
 15 14  2  0  0  0  0
 16 18  2  0  0  0  0
 17 16  1  0  0  0  0
 18 20  1  0  0  0  0
 19 18  1  0  0  0  0
 20 21  2  0  0  0  0
 23 22  3  0  0  0  0
 24 26  1  0  0  0  0
 24 25  2  0  0  0  0
 26 27  1  0  0  0  0
 27 28  2  0  0  0  0
 27 32  1  0  0  0  0
 28 33  1  0  0  0  0
 29 28  1  0  0  0  0
 30 29  2  0  0  0  0
 31 30  1  0  0  0  0
 31 26  2  0  0  0  0
 34 37  1  6  0  0  0
 34 35  1  0  0  0  0
 34 30  1  0  0  0  0
 35 38  1  0  0  0  0
 36 40  1  6  0  0  0
 36 34  1  0  0  0  0
 36 35  1  0  0  0  0
 39 35  1  0  0  0  0
 41 36  1  0  0  0  0
 41 42  1  0  0  0  0
 43 41  1  0  0  0  0
M  END
>  <minimizedAffinity>
-5.62186432

$$$$
