
 OpenBabel03242522473D

 42 45  0  0  0  0  0  0  0  0999 V2000
   45.6590   34.6840   44.2050 C   0  0  0  0  0  0  0  0  0  0  0  0
   46.7270   33.9760   43.6390 C   0  0  0  0  0  0  0  0  0  0  0  0
   47.3160   32.9080   44.3760 C   0  0  0  0  0  0  0  0  0  0  0  0
   46.7950   32.6420   45.5980 N   0  0  0  0  0  0  0  0  0  0  0  0
   45.7680   33.3380   46.1210 C   0  0  0  0  0  0  0  0  0  0  0  0
   45.2230   34.3350   45.4240 N   0  0  0  0  0  0  0  0  0  0  0  0
   45.0810   35.7380   43.4740 N   0  0  0  0  0  0  0  0  0  0  0  0
   48.1370   32.3500   43.9630 H   0  0  0  0  0  0  0  0  0  0  0  0
   45.7300   36.3910   42.9770 H   0  0  0  0  0  0  0  0  0  0  0  0
   44.0400   35.8150   43.4650 H   0  0  0  0  0  0  0  0  0  0  0  0
   47.2700   34.2730   42.3330 C   0  0  0  0  0  0  0  0  0  0  0  0
   48.2770   35.1510   42.0070 C   0  0  0  0  0  0  0  0  0  0  0  0
   48.6770   35.3210   40.6970 C   0  0  0  0  0  0  0  0  0  0  0  0
   48.0800   34.6080   39.6500 C   0  0  0  0  0  0  0  0  0  0  0  0
   48.5410   34.8450   38.4180 N   0  0  0  0  0  0  0  0  0  0  0  0
   47.9670   34.1550   37.3760 C   0  0  0  0  0  0  0  0  0  0  0  0
   46.9490   33.2640   37.6840 C   0  0  0  0  0  0  0  0  0  0  0  0
   46.4860   33.0310   38.9560 C   0  0  0  0  0  0  0  0  0  0  0  0
   47.0700   33.7290   39.9890 C   0  0  0  0  0  0  0  0  0  0  0  0
   46.6580   33.5510   41.3040 C   0  0  0  0  0  0  0  0  0  0  0  0
   48.7090   35.6770   42.8480 H   0  0  0  0  0  0  0  0  0  0  0  0
   49.4720   36.0190   40.4750 H   0  0  0  0  0  0  0  0  0  0  0  0
   48.2870   34.2920   36.3520 H   0  0  0  0  0  0  0  0  0  0  0  0
   46.4660   32.6980   36.8930 H   0  0  0  0  0  0  0  0  0  0  0  0
   45.6860   32.3270   39.1660 H   0  0  0  0  0  0  0  0  0  0  0  0
   45.8600   32.8370   41.4420 H   0  0  0  0  0  0  0  0  0  0  0  0
   45.2690   32.9600   47.4820 C   0  0  0  0  0  0  0  0  0  0  0  0
   45.1730   33.9280   48.0390 H   0  0  0  0  0  0  0  0  0  0  0  0
   44.3520   32.3760   47.4720 H   0  0  0  0  0  0  0  0  0  0  0  0
   46.3950   32.2020   48.2180 C   0  0  0  0  0  0  0  0  0  0  0  0
   46.2520   32.3140   49.3200 H   0  0  0  0  0  0  0  0  0  0  0  0
   47.3610   32.5650   47.8720 H   0  0  0  0  0  0  0  0  0  0  0  0
   47.2700   29.8510   47.9150 C   0  0  0  0  0  0  0  0  0  0  0  0
   46.2320   30.7570   47.8970 C   0  0  0  0  0  0  0  0  0  0  0  0
   44.9810   30.2720   47.5600 C   0  0  0  0  0  0  0  0  0  0  0  0
   44.1560   30.9960   47.5460 H   0  0  0  0  0  0  0  0  0  0  0  0
   44.6660   28.9710   47.2390 C   0  0  0  0  0  0  0  0  0  0  0  0
   43.6460   28.7080   46.9910 H   0  0  0  0  0  0  0  0  0  0  0  0
   45.7320   28.0960   47.2670 C   0  0  0  0  0  0  0  0  0  0  0  0
   47.0160   28.5120   47.5980 C   0  0  0  0  0  0  0  0  0  0  0  0
   49.6430   30.6870   48.5550 N   0  0  0  0  0  0  0  0  0  0  0  0
   48.5810   30.3170   48.2600 C   0  0  0  0  0  0  0  0  0  0  0  0
  1  6  1  0  0  0  0
  2  1  2  0  0  0  0
  2  3  1  0  0  0  0
  3  4  2  0  0  0  0
  4  5  1  0  0  0  0
  5 27  1  0  0  0  0
  6  5  2  0  0  0  0
  7  1  1  0  0  0  0
  8  3  1  0  0  0  0
  9  7  1  0  0  0  0
 10  7  1  0  0  0  0
 11  2  1  0  0  0  0
 12 11  1  0  0  0  0
 12 21  1  0  0  0  0
 13 12  2  0  0  0  0
 14 19  1  0  0  0  0
 14 13  1  0  0  0  0
 15 14  2  0  0  0  0
 16 17  2  0  0  0  0
 16 15  1  0  0  0  0
 17 18  1  0  0  0  0
 18 25  1  0  0  0  0
 18 19  2  0  0  0  0
 19 20  1  0  0  0  0
 20 26  1  0  0  0  0
 20 11  2  0  0  0  0
 22 13  1  0  0  0  0
 23 16  1  0  0  0  0
 24 17  1  0  0  0  0
 27 28  1  0  0  0  0
 27 30  1  0  0  0  0
 29 27  1  0  0  0  0
 30 31  1  0  0  0  0
 32 30  1  0  0  0  0
 33 42  1  0  0  0  0
 34 33  1  0  0  0  0
 34 30  1  0  0  0  0
 35 34  2  0  0  0  0
 36 35  1  0  0  0  0
 37 39  2  0  0  0  0
 37 35  1  0  0  0  0
 38 37  1  0  0  0  0
 39 40  1  0  0  0  0
 40 33  2  0  0  0  0
 42 41  3  0  0  0  0
M  END
>  <minimizedAffinity>
-6.40310287

>  <minimizedRMSD>
2.94103622

$$$$
