
 OpenBabel03242513413D

 41 44  0  0  0  0  0  0  0  0999 V2000
   47.6900   30.9770   46.0090 C   0  0  0  0  0  0  0  0  0  0  0  0
   46.9760   32.0580   45.5320 C   0  0  0  0  0  0  0  0  0  0  0  0
   45.9960   32.5770   46.3260 C   0  0  0  0  0  0  0  0  0  0  0  0
   45.6940   32.0640   47.5780 C   0  0  0  0  0  0  0  0  0  0  0  0
   44.8230   32.3270   48.5800 N   0  0  0  0  0  0  0  0  0  0  0  0
   44.9950   31.4650   49.5980 C   0  0  0  0  0  0  0  0  0  0  0  0
   45.9940   30.6500   49.2200 N   0  0  0  0  0  0  0  0  0  0  0  0
   46.4330   30.9970   47.9930 C   0  0  0  0  0  0  0  0  0  0  0  0
   47.4240   30.4290   47.2570 C   0  0  0  0  0  0  0  0  0  0  0  0
   48.4750   30.5360   45.4130 H   0  0  0  0  0  0  0  0  0  0  0  0
   45.4000   33.4320   45.9980 H   0  0  0  0  0  0  0  0  0  0  0  0
   44.1260   33.1220   48.5050 H   0  0  0  0  0  0  0  0  0  0  0  0
   44.4380   31.4580   50.5000 H   0  0  0  0  0  0  0  0  0  0  0  0
   47.2290   34.3980   42.7280 C   0  0  0  0  0  0  0  0  0  0  0  0
   47.8360   33.6400   41.7380 C   0  0  0  0  0  0  0  0  0  0  0  0
   48.1510   32.3160   42.0660 C   0  0  0  0  0  0  0  0  0  0  0  0
   47.8640   31.8280   43.2960 N   0  0  0  0  0  0  0  0  0  0  0  0
   47.2690   32.6220   44.2180 C   0  0  0  0  0  0  0  0  0  0  0  0
   46.9510   33.8850   43.9550 N   0  0  0  0  0  0  0  0  0  0  0  0
   46.9480   35.4380   42.5610 H   0  0  0  0  0  0  0  0  0  0  0  0
   48.6260   31.7150   41.3000 H   0  0  0  0  0  0  0  0  0  0  0  0
   48.1090   34.2640   40.4210 C   0  0  0  0  0  0  0  0  0  0  0  0
   48.6160   35.5160   40.7250 F   0  0  0  0  0  0  0  0  0  0  0  0
   46.9180   34.4050   39.7600 F   0  0  0  0  0  0  0  0  0  0  0  0
   48.9980   33.4560   39.7290 F   0  0  0  0  0  0  0  0  0  0  0  0
   48.1380   29.3470   47.7360 O   0  0  0  0  0  0  0  0  0  0  0  0
   49.7140   28.0200   49.3130 O   0  0  0  0  0  0  0  0  0  0  0  0
   49.4320   29.4300   48.8200 P   0  0  2  0  0  0  0  0  0  0  0  0
   48.9010   30.3220   50.1780 O   0  0  0  0  0  0  0  0  0  0  0  0
   49.6160   30.2610   50.8790 H   0  0  0  0  0  0  0  0  0  0  0  0
   50.8120   30.1060   48.1830 O   0  0  0  0  0  0  0  0  0  0  0  0
   52.9030   29.0210   47.8480 C   0  0  0  0  0  0  0  0  0  0  0  0
   51.6610   29.4250   47.3440 C   0  0  0  0  0  0  0  0  0  0  0  0
   51.4080   29.0910   46.0290 C   0  0  0  0  0  0  0  0  0  0  0  0
   50.4750   29.3830   45.6170 H   0  0  0  0  0  0  0  0  0  0  0  0
   52.2800   28.4090   45.2190 C   0  0  0  0  0  0  0  0  0  0  0  0
   52.0140   28.1770   44.1820 H   0  0  0  0  0  0  0  0  0  0  0  0
   53.5040   28.0280   45.7630 C   0  0  0  0  0  3  0  0  0  0  0  0
   53.8100   28.3340   47.0710 C   0  0  0  0  0  3  0  0  0  0  0  0
   53.6440   29.5280   50.2870 N   0  0  0  0  0  0  0  0  0  0  0  0
   53.3170   29.2930   49.2000 C   0  0  0  0  0  0  0  0  0  0  0  0
  1  9  1  0  0  0  0
  2  1  2  0  0  0  0
  2  3  1  0  0  0  0
  3  4  2  0  0  0  0
  4  8  1  0  0  0  0
  4  5  1  0  0  0  0
  5  6  1  0  0  0  0
  6 13  1  0  0  0  0
  7  6  2  0  0  0  0
  8  7  1  0  0  0  0
  9 26  1  0  0  0  0
  9  8  2  0  0  0  0
 10  1  1  0  0  0  0
 11  3  1  0  0  0  0
 12  5  1  0  0  0  0
 14 19  1  0  0  0  0
 15 16  1  0  0  0  0
 15 14  2  0  0  0  0
 16 17  2  0  0  0  0
 17 18  1  0  0  0  0
 18  2  1  0  0  0  0
 19 18  2  0  0  0  0
 20 14  1  0  0  0  0
 21 16  1  0  0  0  0
 22 23  1  0  0  0  0
 22 15  1  0  0  0  0
 24 22  1  0  0  0  0
 25 22  1  0  0  0  0
 26 28  1  0  0  0  0
 28 27  2  1  0  0  0
 28 29  1  0  0  0  0
 29 30  1  0  0  0  0
 31 28  1  0  0  0  0
 32 41  1  0  0  0  0
 33 32  1  0  0  0  0
 33 31  1  0  0  0  0
 34 33  2  0  0  0  0
 35 34  1  0  0  0  0
 36 38  2  0  0  0  0
 36 34  1  0  0  0  0
 37 36  1  0  0  0  0
 38 39  1  0  0  0  0
 39 32  2  0  0  0  0
 41 40  3  0  0  0  0
M  END
>  <minimizedAffinity>
-5.52171278

>  <minimizedRMSD>
0.224895179

$$$$
