
 OpenBabel03242515193D

 38 40  0  0  0  0  0  0  0  0999 V2000
   38.5220   29.9170   41.8630 C   0  0  0  0  0  0  0  0  0  0  0  0
   39.6210   30.3610   41.1630 C   0  0  0  0  0  0  0  0  0  0  0  0
   39.1750   30.7400   39.9130 C   0  0  0  0  0  0  0  0  0  0  0  0
   37.8670   30.5310   39.8690 N   0  0  0  0  0  0  0  0  0  0  0  0
   37.4780   30.0330   41.0510 N   0  0  0  0  0  0  0  0  0  0  0  0
   40.5960   30.3650   41.6090 H   0  0  0  0  0  0  0  0  0  0  0  0
   40.3230   32.6620   38.9960 C   0  0  0  0  0  0  0  0  0  0  0  0
   40.1230   31.2760   38.9600 C   0  0  0  0  0  0  0  0  0  0  0  0
   40.8930   30.6700   38.0160 C   0  0  0  0  0  0  0  0  0  0  0  0
   40.8080   29.6100   37.9330 H   0  0  0  0  0  0  0  0  0  0  0  0
   41.7710   31.3060   37.1800 C   0  0  0  0  0  0  0  0  0  0  0  0
   42.3350   30.7380   36.4670 H   0  0  0  0  0  0  0  0  0  0  0  0
   41.9310   32.6730   37.2540 C   0  0  0  0  0  3  0  0  0  0  0  0
   41.1880   33.3630   38.1860 C   0  0  0  0  0  3  0  0  0  0  0  0
   39.0000   34.1320   40.7250 N   0  0  0  0  0  0  0  0  0  0  0  0
   39.5830   33.4740   39.9430 C   0  0  0  0  0  0  0  0  0  0  0  0
   36.9680   30.8000   38.7400 C   0  0  0  0  0  0  0  0  0  0  0  0
   36.9070   32.1960   38.5180 F   0  0  0  0  0  0  0  0  0  0  0  0
   35.7490   30.2720   38.9580 F   0  0  0  0  0  0  0  0  0  0  0  0
   37.5320   30.2820   37.5920 F   0  0  0  0  0  0  0  0  0  0  0  0
   38.4320   29.4050   43.2420 C   0  0  0  0  0  0  0  0  0  0  0  0
   39.4560   29.0990   43.5670 H   0  0  0  0  0  0  0  0  0  0  0  0
   38.0960   30.1930   43.9530 H   0  0  0  0  0  0  0  0  0  0  0  0
   37.5190   28.2200   43.3310 C   0  0  0  0  0  0  0  0  0  0  0  0
   36.7150   28.3830   42.6250 H   0  0  0  0  0  0  0  0  0  0  0  0
   37.0250   28.1960   44.3470 H   0  0  0  0  0  0  0  0  0  0  0  0
   39.8900   25.3450   43.4030 C   0  0  0  0  0  0  0  0  0  0  0  0
   39.2400   24.4470   42.5240 C   0  0  0  0  0  0  0  0  0  0  0  0
   38.0490   24.8680   41.9670 C   0  0  0  0  0  0  0  0  0  0  0  0
   37.6240   26.0900   42.3150 N   0  0  0  0  0  0  0  0  0  0  0  0
   38.2390   26.9300   43.1420 C   0  0  0  0  0  0  0  0  0  0  0  0
   39.3780   26.5360   43.6790 N   0  0  0  0  0  0  0  0  0  0  0  0
   40.8290   25.0830   43.8780 H   0  0  0  0  0  0  0  0  0  0  0  0
   39.7240   23.5020   42.3550 H   0  0  0  0  0  0  0  0  0  0  0  0
   37.3750   23.9390   41.0590 C   0  0  0  0  0  0  0  0  0  0  0  0
   37.3920   24.4590   39.7630 F   0  0  0  0  0  0  0  0  0  0  0  0
   36.0280   23.9600   41.4120 F   0  0  0  0  0  0  0  0  0  0  0  0
   37.9150   22.6890   41.0740 F   0  0  0  0  0  0  0  0  0  0  0  0
  1 21  1  0  0  0  0
  2  6  1  0  0  0  0
  2  1  1  0  0  0  0
  3  2  2  0  0  0  0
  4  3  1  0  0  0  0
  4  5  1  0  0  0  0
  5  1  2  0  0  0  0
  7 16  1  0  0  0  0
  8  7  1  0  0  0  0
  8  3  1  0  0  0  0
  9  8  2  0  0  0  0
 10  9  1  0  0  0  0
 11 13  2  0  0  0  0
 11  9  1  0  0  0  0
 12 11  1  0  0  0  0
 13 14  1  0  0  0  0
 14  7  2  0  0  0  0
 16 15  3  0  0  0  0
 17 19  1  0  0  0  0
 17  4  1  0  0  0  0
 18 17  1  0  0  0  0
 20 17  1  0  0  0  0
 21 24  1  0  0  0  0
 21 22  1  0  0  0  0
 21 23  1  0  0  0  0
 24 26  1  0  0  0  0
 25 24  1  0  0  0  0
 27 32  1  0  0  0  0
 27 33  1  0  0  0  0
 28 27  2  0  0  0  0
 29 30  2  0  0  0  0
 29 28  1  0  0  0  0
 30 31  1  0  0  0  0
 31 24  1  0  0  0  0
 31 32  2  0  0  0  0
 34 28  1  0  0  0  0
 35 38  1  0  0  0  0
 35 37  1  0  0  0  0
 35 29  1  0  0  0  0
 36 35  1  0  0  0  0
M  END
>  <minimizedAffinity>
-6.05753279

$$$$

 OpenBabel03242515193D

 38 40  0  0  0  0  0  0  0  0999 V2000
   40.1240   28.3380   41.1640 C   0  0  0  0  0  0  0  0  0  0  0  0
   39.6800   27.1960   40.5370 C   0  0  0  0  0  0  0  0  0  0  0  0
   38.4330   26.9120   41.0540 C   0  0  0  0  0  0  0  0  0  0  0  0
   38.1440   27.8440   41.9510 N   0  0  0  0  0  0  0  0  0  0  0  0
   39.1710   28.7040   42.0130 N   0  0  0  0  0  0  0  0  0  0  0  0
   40.2810   26.7020   39.7980 H   0  0  0  0  0  0  0  0  0  0  0  0
   37.9460   24.5470   41.2090 C   0  0  0  0  0  0  0  0  0  0  0  0
   37.7090   25.7630   40.5550 C   0  0  0  0  0  0  0  0  0  0  0  0
   36.8020   25.6360   39.5480 C   0  0  0  0  0  0  0  0  0  0  0  0
   36.5580   26.5230   39.0070 H   0  0  0  0  0  0  0  0  0  0  0  0
   36.1740   24.4760   39.1870 C   0  0  0  0  0  0  0  0  0  0  0  0
   35.4720   24.4790   38.3770 H   0  0  0  0  0  0  0  0  0  0  0  0
   36.4420   23.3050   39.8620 C   0  0  0  0  0  3  0  0  0  0  0  0
   37.3490   23.3460   40.8970 C   0  0  0  0  0  3  0  0  0  0  0  0
   39.6590   24.4290   43.1970 N   0  0  0  0  0  0  0  0  0  0  0  0
   38.8880   24.4920   42.3110 C   0  0  0  0  0  0  0  0  0  0  0  0
   36.9160   27.9530   42.7470 C   0  0  0  0  0  0  0  0  0  0  0  0
   35.8210   28.1820   41.8810 F   0  0  0  0  0  0  0  0  0  0  0  0
   37.0290   28.9170   43.6800 F   0  0  0  0  0  0  0  0  0  0  0  0
   36.6570   26.7300   43.3310 F   0  0  0  0  0  0  0  0  0  0  0  0
   41.3870   29.0770   40.9860 C   0  0  0  0  0  0  0  0  0  0  0  0
   41.5140   29.7640   41.8580 H   0  0  0  0  0  0  0  0  0  0  0  0
   42.2670   28.3960   40.9890 H   0  0  0  0  0  0  0  0  0  0  0  0
   41.3780   29.8880   39.7260 C   0  0  0  0  0  0  0  0  0  0  0  0
   40.9030   29.2860   38.9630 H   0  0  0  0  0  0  0  0  0  0  0  0
   42.4380   30.0440   39.3670 H   0  0  0  0  0  0  0  0  0  0  0  0
   40.5880   33.4360   40.5490 C   0  0  0  0  0  0  0  0  0  0  0  0
   39.2560   33.5240   40.0800 C   0  0  0  0  0  0  0  0  0  0  0  0
   38.7130   32.3850   39.5180 C   0  0  0  0  0  0  0  0  0  0  0  0
   39.5050   31.3050   39.4730 N   0  0  0  0  0  0  0  0  0  0  0  0
   40.7570   31.2280   39.9150 C   0  0  0  0  0  0  0  0  0  0  0  0
   41.2830   32.3120   40.4530 N   0  0  0  0  0  0  0  0  0  0  0  0
   41.0790   34.2910   41.0010 H   0  0  0  0  0  0  0  0  0  0  0  0
   38.7650   34.4730   40.1960 H   0  0  0  0  0  0  0  0  0  0  0  0
   37.3370   32.4750   39.0310 C   0  0  0  0  0  0  0  0  0  0  0  0
   37.3170   32.2720   37.6500 F   0  0  0  0  0  0  0  0  0  0  0  0
   36.9580   33.8060   39.1800 F   0  0  0  0  0  0  0  0  0  0  0  0
   36.4930   31.6030   39.6490 F   0  0  0  0  0  0  0  0  0  0  0  0
  1  5  2  0  0  0  0
  2  3  2  0  0  0  0
  2  1  1  0  0  0  0
  3  4  1  0  0  0  0
  4  5  1  0  0  0  0
  4 17  1  0  0  0  0
  6  2  1  0  0  0  0
  7 16  1  0  0  0  0
  8  3  1  0  0  0  0
  8  7  2  0  0  0  0
  9  8  1  0  0  0  0
 10  9  1  0  0  0  0
 11  9  2  0  0  0  0
 11 13  1  0  0  0  0
 12 11  1  0  0  0  0
 13 14  2  0  0  0  0
 14  7  1  0  0  0  0
 16 15  3  0  0  0  0
 17 20  1  0  0  0  0
 17 19  1  0  0  0  0
 18 17  1  0  0  0  0
 21 23  1  0  0  0  0
 21  1  1  0  0  0  0
 21 22  1  0  0  0  0
 24 31  1  0  0  0  0
 24 21  1  0  0  0  0
 25 24  1  0  0  0  0
 26 24  1  0  0  0  0
 27 33  1  0  0  0  0
 28 34  1  0  0  0  0
 28 27  2  0  0  0  0
 29 28  1  0  0  0  0
 30 29  2  0  0  0  0
 30 31  1  0  0  0  0
 31 32  2  0  0  0  0
 32 27  1  0  0  0  0
 35 37  1  0  0  0  0
 35 29  1  0  0  0  0
 35 38  1  0  0  0  0
 36 35  1  0  0  0  0
M  END
>  <minimizedAffinity>
-6.01698971

$$$$

 OpenBabel03242515193D

 38 40  0  0  0  0  0  0  0  0999 V2000
   32.8990   29.2530   37.2300 C   0  0  0  0  0  0  0  0  0  0  0  0
   32.5740   29.6970   35.9680 C   0  0  0  0  0  0  0  0  0  0  0  0
   31.3700   30.3630   36.0720 C   0  0  0  0  0  0  0  0  0  0  0  0
   30.9920   30.3190   37.3420 N   0  0  0  0  0  0  0  0  0  0  0  0
   31.9200   29.6470   38.0370 N   0  0  0  0  0  0  0  0  0  0  0  0
   33.2170   29.5010   35.1310 H   0  0  0  0  0  0  0  0  0  0  0  0
   29.9630   30.1390   34.1170 C   0  0  0  0  0  0  0  0  0  0  0  0
   30.7930   30.9630   34.8890 C   0  0  0  0  0  0  0  0  0  0  0  0
   30.8930   32.2180   34.3730 C   0  0  0  0  0  0  0  0  0  0  0  0
   31.5010   32.9110   34.9100 H   0  0  0  0  0  0  0  0  0  0  0  0
   30.2730   32.6610   33.2370 C   0  0  0  0  0  0  0  0  0  0  0  0
   30.4150   33.6730   32.9120 H   0  0  0  0  0  0  0  0  0  0  0  0
   29.4660   31.8110   32.5120 C   0  0  0  0  0  3  0  0  0  0  0  0
   29.3090   30.5210   32.9670 C   0  0  0  0  0  3  0  0  0  0  0  0
   29.5690   27.6390   34.8230 N   0  0  0  0  0  0  0  0  0  0  0  0
   29.7400   28.7620   34.5160 C   0  0  0  0  0  0  0  0  0  0  0  0
   29.7780   30.9060   37.9210 C   0  0  0  0  0  0  0  0  0  0  0  0
   29.8570   32.3160   37.8320 F   0  0  0  0  0  0  0  0  0  0  0  0
   29.6000   30.4920   39.1900 F   0  0  0  0  0  0  0  0  0  0  0  0
   28.6990   30.5600   37.1340 F   0  0  0  0  0  0  0  0  0  0  0  0
   34.0770   28.4940   37.6850 C   0  0  0  0  0  0  0  0  0  0  0  0
   33.7740   27.4250   37.8100 H   0  0  0  0  0  0  0  0  0  0  0  0
   34.8920   28.5050   36.9270 H   0  0  0  0  0  0  0  0  0  0  0  0
   34.5950   29.0100   38.9930 C   0  0  0  0  0  0  0  0  0  0  0  0
   33.7440   29.1220   39.6510 H   0  0  0  0  0  0  0  0  0  0  0  0
   35.0070   30.0530   38.8540 H   0  0  0  0  0  0  0  0  0  0  0  0
   37.3750   26.5960   39.5740 C   0  0  0  0  0  0  0  0  0  0  0  0
   37.5960   26.7790   40.9600 C   0  0  0  0  0  0  0  0  0  0  0  0
   36.7960   27.7010   41.6050 C   0  0  0  0  0  0  0  0  0  0  0  0
   35.8870   28.3340   40.8520 N   0  0  0  0  0  0  0  0  0  0  0  0
   35.6830   28.1590   39.5500 C   0  0  0  0  0  0  0  0  0  0  0  0
   36.4440   27.2800   38.9250 N   0  0  0  0  0  0  0  0  0  0  0  0
   37.9660   25.8890   39.0020 H   0  0  0  0  0  0  0  0  0  0  0  0
   38.3720   26.1850   41.4080 H   0  0  0  0  0  0  0  0  0  0  0  0
   37.0240   27.8930   43.0370 C   0  0  0  0  0  0  0  0  0  0  0  0
   38.0390   27.0350   43.4670 F   0  0  0  0  0  0  0  0  0  0  0  0
   35.8860   27.4140   43.6790 F   0  0  0  0  0  0  0  0  0  0  0  0
   37.3250   29.1800   43.3640 F   0  0  0  0  0  0  0  0  0  0  0  0
  1 21  1  0  0  0  0
  1  5  2  0  0  0  0
  2  3  2  0  0  0  0
  2  1  1  0  0  0  0
  3  4  1  0  0  0  0
  4 17  1  0  0  0  0
  4  5  1  0  0  0  0
  6  2  1  0  0  0  0
  7 16  1  0  0  0  0
  7  8  1  0  0  0  0
  8  3  1  0  0  0  0
  9  8  2  0  0  0  0
  9 10  1  0  0  0  0
 11  9  1  0  0  0  0
 12 11  1  0  0  0  0
 13 14  1  0  0  0  0
 13 11  2  0  0  0  0
 14  7  2  0  0  0  0
 16 15  3  0  0  0  0
 17 19  1  0  0  0  0
 18 17  1  0  0  0  0
 20 17  1  0  0  0  0
 21 22  1  0  0  0  0
 21 24  1  0  0  0  0
 23 21  1  0  0  0  0
 24 31  1  0  0  0  0
 24 25  1  0  0  0  0
 26 24  1  0  0  0  0
 27 28  1  0  0  0  0
 28 34  1  0  0  0  0
 28 29  2  0  0  0  0
 29 35  1  0  0  0  0
 30 29  1  0  0  0  0
 31 30  2  0  0  0  0
 32 31  1  0  0  0  0
 32 27  2  0  0  0  0
 33 27  1  0  0  0  0
 35 38  1  0  0  0  0
 35 36  1  0  0  0  0
 35 37  1  0  0  0  0
M  END
>  <minimizedAffinity>
-5.98203278

$$$$

 OpenBabel03242515193D

 38 40  0  0  0  0  0  0  0  0999 V2000
   33.2560   28.9900   36.7970 C   0  0  0  0  0  0  0  0  0  0  0  0
   32.8480   29.5140   35.5910 C   0  0  0  0  0  0  0  0  0  0  0  0
   31.6630   30.1830   35.8230 C   0  0  0  0  0  0  0  0  0  0  0  0
   31.3760   30.0620   37.1120 N   0  0  0  0  0  0  0  0  0  0  0  0
   32.3430   29.3400   37.6960 N   0  0  0  0  0  0  0  0  0  0  0  0
   33.4260   29.3650   34.7000 H   0  0  0  0  0  0  0  0  0  0  0  0
   30.1130   30.0940   33.9680 C   0  0  0  0  0  0  0  0  0  0  0  0
   31.0110   30.8600   34.7240 C   0  0  0  0  0  0  0  0  0  0  0  0
   31.0930   32.1430   34.2780 C   0  0  0  0  0  0  0  0  0  0  0  0
   31.7490   32.7950   34.8100 H   0  0  0  0  0  0  0  0  0  0  0  0
   30.3980   32.6610   33.2200 C   0  0  0  0  0  0  0  0  0  0  0  0
   30.5330   33.6900   32.9460 H   0  0  0  0  0  0  0  0  0  0  0  0
   29.5270   31.8670   32.5070 C   0  0  0  0  0  3  0  0  0  0  0  0
   29.3830   30.5530   32.8940 C   0  0  0  0  0  3  0  0  0  0  0  0
   29.7350   27.5690   34.5840 N   0  0  0  0  0  0  0  0  0  0  0  0
   29.8970   28.6990   34.2990 C   0  0  0  0  0  0  0  0  0  0  0  0
   30.2150   30.6230   37.8120 C   0  0  0  0  0  0  0  0  0  0  0  0
   29.0300   30.1420   37.2060 F   0  0  0  0  0  0  0  0  0  0  0  0
   30.2620   31.9680   37.8250 F   0  0  0  0  0  0  0  0  0  0  0  0
   30.1870   30.1190   39.0960 F   0  0  0  0  0  0  0  0  0  0  0  0
   34.4540   28.1930   37.1180 C   0  0  0  0  0  0  0  0  0  0  0  0
   34.2930   27.7080   38.1120 H   0  0  0  0  0  0  0  0  0  0  0  0
   34.6080   27.3690   36.3860 H   0  0  0  0  0  0  0  0  0  0  0  0
   35.6830   29.0480   37.1860 C   0  0  0  0  0  0  0  0  0  0  0  0
   35.6000   29.7870   36.4010 H   0  0  0  0  0  0  0  0  0  0  0  0
   36.5910   28.4300   36.9210 H   0  0  0  0  0  0  0  0  0  0  0  0
   35.8090   29.7830   40.8370 C   0  0  0  0  0  0  0  0  0  0  0  0
   36.5010   31.0180   40.8330 C   0  0  0  0  0  0  0  0  0  0  0  0
   36.8790   31.5190   39.6030 C   0  0  0  0  0  0  0  0  0  0  0  0
   36.5520   30.7840   38.5310 N   0  0  0  0  0  0  0  0  0  0  0  0
   35.9020   29.6250   38.5410 C   0  0  0  0  0  0  0  0  0  0  0  0
   35.5370   29.1380   39.7130 N   0  0  0  0  0  0  0  0  0  0  0  0
   35.4820   29.3290   41.7660 H   0  0  0  0  0  0  0  0  0  0  0  0
   36.6810   31.4740   41.7890 H   0  0  0  0  0  0  0  0  0  0  0  0
   37.5960   32.7940   39.5960 C   0  0  0  0  0  0  0  0  0  0  0  0
   38.7490   32.6770   38.8180 F   0  0  0  0  0  0  0  0  0  0  0  0
   38.0800   32.9740   40.8890 F   0  0  0  0  0  0  0  0  0  0  0  0
   36.8340   33.8340   39.1580 F   0  0  0  0  0  0  0  0  0  0  0  0
  1 21  1  0  0  0  0
  1  5  2  0  0  0  0
  2  3  2  0  0  0  0
  2  1  1  0  0  0  0
  3  4  1  0  0  0  0
  4  5  1  0  0  0  0
  4 17  1  0  0  0  0
  6  2  1  0  0  0  0
  7 16  1  0  0  0  0
  7  8  1  0  0  0  0
  8  3  1  0  0  0  0
  9  8  2  0  0  0  0
  9 10  1  0  0  0  0
 11  9  1  0  0  0  0
 12 11  1  0  0  0  0
 13 14  1  0  0  0  0
 13 11  2  0  0  0  0
 14  7  2  0  0  0  0
 16 15  3  0  0  0  0
 17 19  1  0  0  0  0
 17 20  1  0  0  0  0
 18 17  1  0  0  0  0
 21 24  1  0  0  0  0
 21 22  1  0  0  0  0
 23 21  1  0  0  0  0
 24 31  1  0  0  0  0
 25 24  1  0  0  0  0
 26 24  1  0  0  0  0
 27 33  1  0  0  0  0
 28 27  1  0  0  0  0
 28 34  1  0  0  0  0
 29 28  2  0  0  0  0
 30 31  2  0  0  0  0
 30 29  1  0  0  0  0
 31 32  1  0  0  0  0
 32 27  2  0  0  0  0
 35 29  1  0  0  0  0
 35 37  1  0  0  0  0
 36 35  1  0  0  0  0
 38 35  1  0  0  0  0
M  END
>  <minimizedAffinity>
-5.96609831

$$$$

 OpenBabel03242515193D

 38 40  0  0  0  0  0  0  0  0999 V2000
   35.1920   28.7740   37.2500 C   0  0  0  0  0  0  0  0  0  0  0  0
   35.1370   28.1080   38.4530 C   0  0  0  0  0  0  0  0  0  0  0  0
   36.4180   28.0960   38.9660 C   0  0  0  0  0  0  0  0  0  0  0  0
   37.2040   28.7280   38.1060 N   0  0  0  0  0  0  0  0  0  0  0  0
   36.4570   29.1370   37.0700 N   0  0  0  0  0  0  0  0  0  0  0  0
   34.2110   27.7110   38.8230 H   0  0  0  0  0  0  0  0  0  0  0  0
   36.5980   28.3160   41.3680 C   0  0  0  0  0  0  0  0  0  0  0  0
   36.6560   27.4740   40.2500 C   0  0  0  0  0  0  0  0  0  0  0  0
   36.9190   26.1840   40.5930 C   0  0  0  0  0  0  0  0  0  0  0  0
   36.9690   25.4750   39.7960 H   0  0  0  0  0  0  0  0  0  0  0  0
   37.1120   25.7240   41.8670 C   0  0  0  0  0  0  0  0  0  0  0  0
   37.3150   24.6840   42.0340 H   0  0  0  0  0  0  0  0  0  0  0  0
   37.0460   26.5940   42.9340 C   0  0  0  0  0  3  0  0  0  0  0  0
   36.7810   27.9200   42.6740 C   0  0  0  0  0  3  0  0  0  0  0  0
   36.1240   30.8790   41.0380 N   0  0  0  0  0  0  0  0  0  0  0  0
   36.3280   29.7310   41.1940 C   0  0  0  0  0  0  0  0  0  0  0  0
   38.6450   28.9690   38.2420 C   0  0  0  0  0  0  0  0  0  0  0  0
   39.2960   27.7460   38.5260 F   0  0  0  0  0  0  0  0  0  0  0  0
   38.8920   29.9000   39.1820 F   0  0  0  0  0  0  0  0  0  0  0  0
   39.1450   29.3620   37.0170 F   0  0  0  0  0  0  0  0  0  0  0  0
   34.1120   29.0760   36.2930 C   0  0  0  0  0  0  0  0  0  0  0  0
   34.0610   30.1850   36.1640 H   0  0  0  0  0  0  0  0  0  0  0  0
   34.3230   28.6500   35.2870 H   0  0  0  0  0  0  0  0  0  0  0  0
   32.7860   28.5820   36.7840 C   0  0  0  0  0  0  0  0  0  0  0  0
   32.9640   28.0620   37.7150 H   0  0  0  0  0  0  0  0  0  0  0  0
   32.3850   27.7990   36.0750 H   0  0  0  0  0  0  0  0  0  0  0  0
   30.1530   31.0030   37.8340 C   0  0  0  0  0  0  0  0  0  0  0  0
   30.0100   31.7650   36.6510 C   0  0  0  0  0  0  0  0  0  0  0  0
   30.8080   31.4140   35.5800 C   0  0  0  0  0  0  0  0  0  0  0  0
   31.6420   30.3830   35.7680 N   0  0  0  0  0  0  0  0  0  0  0  0
   31.7730   29.6700   36.8830 C   0  0  0  0  0  0  0  0  0  0  0  0
   31.0140   29.9990   37.9110 N   0  0  0  0  0  0  0  0  0  0  0  0
   29.5600   31.2210   38.7150 H   0  0  0  0  0  0  0  0  0  0  0  0
   29.2890   32.5620   36.6740 H   0  0  0  0  0  0  0  0  0  0  0  0
   30.6630   32.2020   34.3560 C   0  0  0  0  0  0  0  0  0  0  0  0
   30.7700   31.3630   33.2450 F   0  0  0  0  0  0  0  0  0  0  0  0
   31.7940   33.0100   34.2770 F   0  0  0  0  0  0  0  0  0  0  0  0
   29.4960   32.9040   34.3060 F   0  0  0  0  0  0  0  0  0  0  0  0
  1  2  1  0  0  0  0
  2  6  1  0  0  0  0
  2  3  2  0  0  0  0
  3  8  1  0  0  0  0
  4 17  1  0  0  0  0
  4  3  1  0  0  0  0
  5  1  2  0  0  0  0
  5  4  1  0  0  0  0
  7 14  1  0  0  0  0
  8  9  1  0  0  0  0
  8  7  2  0  0  0  0
  9 11  2  0  0  0  0
 10  9  1  0  0  0  0
 11 12  1  0  0  0  0
 11 13  1  0  0  0  0
 14 13  2  0  0  0  0
 15 16  3  0  0  0  0
 16  7  1  0  0  0  0
 17 18  1  0  0  0  0
 17 19  1  0  0  0  0
 20 17  1  0  0  0  0
 21 24  1  0  0  0  0
 21  1  1  0  0  0  0
 22 21  1  0  0  0  0
 23 21  1  0  0  0  0
 24 31  1  0  0  0  0
 24 25  1  0  0  0  0
 26 24  1  0  0  0  0
 27 32  1  0  0  0  0
 27 33  1  0  0  0  0
 28 34  1  0  0  0  0
 28 27  2  0  0  0  0
 29 30  2  0  0  0  0
 29 28  1  0  0  0  0
 30 31  1  0  0  0  0
 31 32  2  0  0  0  0
 35 29  1  0  0  0  0
 36 35  1  0  0  0  0
 37 35  1  0  0  0  0
 38 35  1  0  0  0  0
M  END
>  <minimizedAffinity>
-5.95675182

$$$$

 OpenBabel03242515193D

 38 40  0  0  0  0  0  0  0  0999 V2000
   35.9390   28.6710   37.9570 C   0  0  0  0  0  0  0  0  0  0  0  0
   36.3380   27.9250   39.0430 C   0  0  0  0  0  0  0  0  0  0  0  0
   36.7200   28.8160   40.0250 C   0  0  0  0  0  0  0  0  0  0  0  0
   36.5560   30.0410   39.5470 N   0  0  0  0  0  0  0  0  0  0  0  0
   36.0830   29.9480   38.2960 N   0  0  0  0  0  0  0  0  0  0  0  0
   36.3140   26.8530   39.0150 H   0  0  0  0  0  0  0  0  0  0  0  0
   38.5490   28.1060   41.4400 C   0  0  0  0  0  0  0  0  0  0  0  0
   37.1690   28.3050   41.3020 C   0  0  0  0  0  0  0  0  0  0  0  0
   36.4880   27.9850   42.4360 C   0  0  0  0  0  0  0  0  0  0  0  0
   35.4300   28.1200   42.4150 H   0  0  0  0  0  0  0  0  0  0  0  0
   37.0490   27.5190   43.5940 C   0  0  0  0  0  0  0  0  0  0  0  0
   36.4240   27.2940   44.4360 H   0  0  0  0  0  0  0  0  0  0  0  0
   38.4130   27.3390   43.6790 C   0  0  0  0  0  3  0  0  0  0  0  0
   39.1770   27.6420   42.5740 C   0  0  0  0  0  3  0  0  0  0  0  0
   40.1590   28.6090   39.4260 N   0  0  0  0  0  0  0  0  0  0  0  0
   39.4360   28.3950   40.3290 C   0  0  0  0  0  0  0  0  0  0  0  0
   36.8240   31.3040   40.2460 C   0  0  0  0  0  0  0  0  0  0  0  0
   38.1980   31.3710   40.5730 F   0  0  0  0  0  0  0  0  0  0  0  0
   36.0410   31.4280   41.3340 F   0  0  0  0  0  0  0  0  0  0  0  0
   36.6160   32.3480   39.3680 F   0  0  0  0  0  0  0  0  0  0  0  0
   35.4330   28.2270   36.6460 C   0  0  0  0  0  0  0  0  0  0  0  0
   35.4950   29.0900   35.9390 H   0  0  0  0  0  0  0  0  0  0  0  0
   36.0650   27.4180   36.2140 H   0  0  0  0  0  0  0  0  0  0  0  0
   34.0100   27.7670   36.7310 C   0  0  0  0  0  0  0  0  0  0  0  0
   33.8380   27.4470   37.7500 H   0  0  0  0  0  0  0  0  0  0  0  0
   33.8700   26.8410   36.0980 H   0  0  0  0  0  0  0  0  0  0  0  0
   32.0570   30.2840   34.7950 C   0  0  0  0  0  0  0  0  0  0  0  0
   31.1030   30.6770   35.7640 C   0  0  0  0  0  0  0  0  0  0  0  0
   31.1800   30.0700   37.0010 C   0  0  0  0  0  0  0  0  0  0  0  0
   32.1540   29.1640   37.1640 N   0  0  0  0  0  0  0  0  0  0  0  0
   33.0480   28.7980   36.2500 C   0  0  0  0  0  0  0  0  0  0  0  0
   32.9820   29.3730   35.0640 N   0  0  0  0  0  0  0  0  0  0  0  0
   32.0570   30.7180   33.8020 H   0  0  0  0  0  0  0  0  0  0  0  0
   30.3880   31.4210   35.4620 H   0  0  0  0  0  0  0  0  0  0  0  0
   30.1940   30.4740   38.0030 C   0  0  0  0  0  0  0  0  0  0  0  0
   30.2460   31.8590   38.1770 F   0  0  0  0  0  0  0  0  0  0  0  0
   30.6430   29.9650   39.2180 F   0  0  0  0  0  0  0  0  0  0  0  0
   28.9260   30.0850   37.6930 F   0  0  0  0  0  0  0  0  0  0  0  0
  1  5  2  0  0  0  0
  1  2  1  0  0  0  0
  2  3  2  0  0  0  0
  3  8  1  0  0  0  0
  4  3  1  0  0  0  0
  4 17  1  0  0  0  0
  5  4  1  0  0  0  0
  6  2  1  0  0  0  0
  7 14  1  0  0  0  0
  8  7  2  0  0  0  0
  8  9  1  0  0  0  0
  9 11  2  0  0  0  0
 10  9  1  0  0  0  0
 11 13  1  0  0  0  0
 11 12  1  0  0  0  0
 14 13  2  0  0  0  0
 15 16  3  0  0  0  0
 16  7  1  0  0  0  0
 17 18  1  0  0  0  0
 17 19  1  0  0  0  0
 20 17  1  0  0  0  0
 21 24  1  0  0  0  0
 21  1  1  0  0  0  0
 22 21  1  0  0  0  0
 23 21  1  0  0  0  0
 24 25  1  0  0  0  0
 26 24  1  0  0  0  0
 27 32  2  0  0  0  0
 27 28  1  0  0  0  0
 28 29  2  0  0  0  0
 29 30  1  0  0  0  0
 29 35  1  0  0  0  0
 31 24  1  0  0  0  0
 31 30  2  0  0  0  0
 32 31  1  0  0  0  0
 33 27  1  0  0  0  0
 34 28  1  0  0  0  0
 35 36  1  0  0  0  0
 35 37  1  0  0  0  0
 38 35  1  0  0  0  0
M  END
>  <minimizedAffinity>
-5.95126438

$$$$

 OpenBabel03242515193D

 38 40  0  0  0  0  0  0  0  0999 V2000
   34.7100   28.9840   37.2960 C   0  0  0  0  0  0  0  0  0  0  0  0
   34.7360   28.3270   38.5050 C   0  0  0  0  0  0  0  0  0  0  0  0
   36.0140   28.4600   39.0080 C   0  0  0  0  0  0  0  0  0  0  0  0
   36.7210   29.1670   38.1370 N   0  0  0  0  0  0  0  0  0  0  0  0
   35.9260   29.4810   37.1040 N   0  0  0  0  0  0  0  0  0  0  0  0
   33.8620   27.8350   38.8860 H   0  0  0  0  0  0  0  0  0  0  0  0
   36.8090   26.5640   40.2820 C   0  0  0  0  0  0  0  0  0  0  0  0
   36.3280   27.8800   40.2950 C   0  0  0  0  0  0  0  0  0  0  0  0
   36.2580   28.3880   41.5560 C   0  0  0  0  0  0  0  0  0  0  0  0
   35.9110   29.3920   41.6500 H   0  0  0  0  0  0  0  0  0  0  0  0
   36.6060   27.7230   42.7000 C   0  0  0  0  0  0  0  0  0  0  0  0
   36.5140   28.2130   43.6500 H   0  0  0  0  0  0  0  0  0  0  0  0
   37.0730   26.4290   42.6340 C   0  0  0  0  0  3  0  0  0  0  0  0
   37.1760   25.8390   41.3940 C   0  0  0  0  0  3  0  0  0  0  0  0
   37.0530   25.3020   37.9910 N   0  0  0  0  0  0  0  0  0  0  0  0
   36.9500   25.8590   39.0220 C   0  0  0  0  0  0  0  0  0  0  0  0
   38.1280   29.5650   38.2590 C   0  0  0  0  0  0  0  0  0  0  0  0
   38.3060   30.2760   39.4700 F   0  0  0  0  0  0  0  0  0  0  0  0
   38.5190   30.2870   37.1910 F   0  0  0  0  0  0  0  0  0  0  0  0
   38.8990   28.4300   38.3960 F   0  0  0  0  0  0  0  0  0  0  0  0
   33.5970   29.1570   36.3450 C   0  0  0  0  0  0  0  0  0  0  0  0
   33.6440   30.1980   35.9410 H   0  0  0  0  0  0  0  0  0  0  0  0
   33.6920   28.4740   35.4720 H   0  0  0  0  0  0  0  0  0  0  0  0
   32.2690   28.9510   37.0070 C   0  0  0  0  0  0  0  0  0  0  0  0
   32.4640   28.6610   38.0300 H   0  0  0  0  0  0  0  0  0  0  0  0
   31.7440   28.0660   36.5400 H   0  0  0  0  0  0  0  0  0  0  0  0
   29.8580   31.7500   37.5020 C   0  0  0  0  0  0  0  0  0  0  0  0
   29.8640   32.3330   36.2130 C   0  0  0  0  0  0  0  0  0  0  0  0
   30.6770   31.7460   35.2640 C   0  0  0  0  0  0  0  0  0  0  0  0
   31.3840   30.6790   35.6600 N   0  0  0  0  0  0  0  0  0  0  0  0
   31.3750   30.1350   36.8730 C   0  0  0  0  0  0  0  0  0  0  0  0
   30.6000   30.6900   37.7860 N   0  0  0  0  0  0  0  0  0  0  0  0
   29.2440   32.1580   38.2970 H   0  0  0  0  0  0  0  0  0  0  0  0
   29.2320   33.1910   36.0670 H   0  0  0  0  0  0  0  0  0  0  0  0
   30.6860   32.3480   33.9310 C   0  0  0  0  0  0  0  0  0  0  0  0
   29.4730   33.0020   33.7060 F   0  0  0  0  0  0  0  0  0  0  0  0
   30.6700   31.2900   33.0260 F   0  0  0  0  0  0  0  0  0  0  0  0
   31.7270   33.2050   33.7380 F   0  0  0  0  0  0  0  0  0  0  0  0
  1  2  1  0  0  0  0
  2  6  1  0  0  0  0
  2  3  2  0  0  0  0
  3  8  1  0  0  0  0
  4 17  1  0  0  0  0
  4  3  1  0  0  0  0
  5  1  2  0  0  0  0
  5  4  1  0  0  0  0
  7  8  2  0  0  0  0
  7 14  1  0  0  0  0
  8  9  1  0  0  0  0
  9 10  1  0  0  0  0
  9 11  2  0  0  0  0
 11 12  1  0  0  0  0
 13 11  1  0  0  0  0
 14 13  2  0  0  0  0
 15 16  3  0  0  0  0
 16  7  1  0  0  0  0
 17 20  1  0  0  0  0
 17 18  1  0  0  0  0
 19 17  1  0  0  0  0
 21 24  1  0  0  0  0
 21  1  1  0  0  0  0
 22 21  1  0  0  0  0
 23 21  1  0  0  0  0
 24 25  1  0  0  0  0
 26 24  1  0  0  0  0
 27 32  1  0  0  0  0
 27 33  1  0  0  0  0
 28 27  2  0  0  0  0
 29 30  2  0  0  0  0
 29 28  1  0  0  0  0
 30 31  1  0  0  0  0
 31 24  1  0  0  0  0
 31 32  2  0  0  0  0
 34 28  1  0  0  0  0
 35 29  1  0  0  0  0
 36 35  1  0  0  0  0
 37 35  1  0  0  0  0
 38 35  1  0  0  0  0
M  END
>  <minimizedAffinity>
-5.92419147

$$$$

 OpenBabel03242515193D

 38 40  0  0  0  0  0  0  0  0999 V2000
   36.5410   29.0550   39.7540 C   0  0  0  0  0  0  0  0  0  0  0  0
   36.8150   27.7430   39.4400 C   0  0  0  0  0  0  0  0  0  0  0  0
   37.1010   27.0970   40.6250 C   0  0  0  0  0  0  0  0  0  0  0  0
   37.0020   27.9850   41.6040 N   0  0  0  0  0  0  0  0  0  0  0  0
   36.6630   29.1670   41.0710 N   0  0  0  0  0  0  0  0  0  0  0  0
   36.7830   27.4000   38.4240 H   0  0  0  0  0  0  0  0  0  0  0  0
   38.7590   25.3440   40.4510 C   0  0  0  0  0  0  0  0  0  0  0  0
   37.4080   25.6840   40.6000 C   0  0  0  0  0  0  0  0  0  0  0  0
   36.6120   24.5860   40.7110 C   0  0  0  0  0  0  0  0  0  0  0  0
   35.5670   24.7600   40.8380 H   0  0  0  0  0  0  0  0  0  0  0  0
   37.0420   23.2870   40.6840 C   0  0  0  0  0  0  0  0  0  0  0  0
   36.3330   22.4880   40.7800 H   0  0  0  0  0  0  0  0  0  0  0  0
   38.3830   23.0050   40.5360 C   0  0  0  0  0  3  0  0  0  0  0  0
   39.2580   24.0610   40.4180 C   0  0  0  0  0  3  0  0  0  0  0  0
   40.5800   27.2220   40.2100 N   0  0  0  0  0  0  0  0  0  0  0  0
   39.7560   26.3890   40.3170 C   0  0  0  0  0  0  0  0  0  0  0  0
   37.2080   27.7440   43.0370 C   0  0  0  0  0  0  0  0  0  0  0  0
   38.4630   27.1190   43.2270 F   0  0  0  0  0  0  0  0  0  0  0  0
   36.2000   27.0160   43.5540 F   0  0  0  0  0  0  0  0  0  0  0  0
   37.3160   28.9600   43.6800 F   0  0  0  0  0  0  0  0  0  0  0  0
   36.1710   30.1750   38.8690 C   0  0  0  0  0  0  0  0  0  0  0  0
   35.5020   29.7780   38.0670 H   0  0  0  0  0  0  0  0  0  0  0  0
   35.5880   30.9530   39.4110 H   0  0  0  0  0  0  0  0  0  0  0  0
   37.3770   30.7970   38.2340 C   0  0  0  0  0  0  0  0  0  0  0  0
   37.1380   30.9680   37.1930 H   0  0  0  0  0  0  0  0  0  0  0  0
   38.2300   30.0560   38.2280 H   0  0  0  0  0  0  0  0  0  0  0  0
   37.7230   34.1200   39.8880 C   0  0  0  0  0  0  0  0  0  0  0  0
   39.0680   34.0580   40.3230 C   0  0  0  0  0  0  0  0  0  0  0  0
   39.7680   32.9040   40.0320 C   0  0  0  0  0  0  0  0  0  0  0  0
   39.1010   31.9530   39.3630 N   0  0  0  0  0  0  0  0  0  0  0  0
   37.8370   32.0160   38.9570 C   0  0  0  0  0  0  0  0  0  0  0  0
   37.1600   33.1160   39.2310 N   0  0  0  0  0  0  0  0  0  0  0  0
   37.1120   34.9950   40.0810 H   0  0  0  0  0  0  0  0  0  0  0  0
   39.4450   34.9170   40.8490 H   0  0  0  0  0  0  0  0  0  0  0  0
   41.1580   32.8380   40.4830 C   0  0  0  0  0  0  0  0  0  0  0  0
   41.2450   32.0140   41.6070 F   0  0  0  0  0  0  0  0  0  0  0  0
   41.4690   34.1050   40.9700 F   0  0  0  0  0  0  0  0  0  0  0  0
   42.0140   32.4080   39.5150 F   0  0  0  0  0  0  0  0  0  0  0  0
  1  5  2  0  0  0  0
  2  1  1  0  0  0  0
  2  3  2  0  0  0  0
  3  4  1  0  0  0  0
  4 17  1  0  0  0  0
  5  4  1  0  0  0  0
  6  2  1  0  0  0  0
  7  8  1  0  0  0  0
  8  3  1  0  0  0  0
  8  9  2  0  0  0  0
  9 10  1  0  0  0  0
 11  9  1  0  0  0  0
 11 12  1  0  0  0  0
 13 11  2  0  0  0  0
 14  7  2  0  0  0  0
 14 13  1  0  0  0  0
 15 16  3  0  0  0  0
 16  7  1  0  0  0  0
 17 18  1  0  0  0  0
 17 19  1  0  0  0  0
 17 20  1  0  0  0  0
 21 23  1  0  0  0  0
 21  1  1  0  0  0  0
 22 21  1  0  0  0  0
 24 21  1  0  0  0  0
 24 31  1  0  0  0  0
 25 24  1  0  0  0  0
 26 24  1  0  0  0  0
 27 33  1  0  0  0  0
 27 28  1  0  0  0  0
 28 34  1  0  0  0  0
 29 28  2  0  0  0  0
 29 35  1  0  0  0  0
 30 29  1  0  0  0  0
 31 32  1  0  0  0  0
 31 30  2  0  0  0  0
 32 27  2  0  0  0  0
 35 37  1  0  0  0  0
 35 36  1  0  0  0  0
 38 35  1  0  0  0  0
M  END
>  <minimizedAffinity>
-5.89518785

$$$$

 OpenBabel03242515193D

 38 40  0  0  0  0  0  0  0  0999 V2000
   37.1960   26.4530   38.4420 C   0  0  0  0  0  0  0  0  0  0  0  0
   38.2400   26.7360   39.2940 C   0  0  0  0  0  0  0  0  0  0  0  0
   38.1310   25.8740   40.3660 C   0  0  0  0  0  0  0  0  0  0  0  0
   37.0670   25.1090   40.1630 N   0  0  0  0  0  0  0  0  0  0  0  0
   36.5060   25.4630   38.9990 N   0  0  0  0  0  0  0  0  0  0  0  0
   38.9470   27.5080   39.0620 H   0  0  0  0  0  0  0  0  0  0  0  0
   38.8310   26.7770   42.4980 C   0  0  0  0  0  0  0  0  0  0  0  0
   39.1210   25.9310   41.4190 C   0  0  0  0  0  0  0  0  0  0  0  0
   40.3110   25.2900   41.5740 C   0  0  0  0  0  0  0  0  0  0  0  0
   40.5990   24.6170   40.7980 H   0  0  0  0  0  0  0  0  0  0  0  0
   41.1530   25.4280   42.6430 C   0  0  0  0  0  0  0  0  0  0  0  0
   42.0730   24.8760   42.6720 H   0  0  0  0  0  0  0  0  0  0  0  0
   40.8240   26.2730   43.6800 C   0  0  0  0  0  3  0  0  0  0  0  0
   39.6330   26.9610   43.6020 C   0  0  0  0  0  3  0  0  0  0  0  0
   36.6120   28.1820   42.4970 N   0  0  0  0  0  0  0  0  0  0  0  0
   37.6010   27.5440   42.5040 C   0  0  0  0  0  0  0  0  0  0  0  0
   36.5700   24.0400   41.0380 C   0  0  0  0  0  0  0  0  0  0  0  0
   37.5870   23.0720   41.2130 F   0  0  0  0  0  0  0  0  0  0  0  0
   35.4410   23.4980   40.5430 F   0  0  0  0  0  0  0  0  0  0  0  0
   36.3550   24.5620   42.2970 F   0  0  0  0  0  0  0  0  0  0  0  0
   36.8430   27.0690   37.1510 C   0  0  0  0  0  0  0  0  0  0  0  0
   37.7800   27.4640   36.6860 H   0  0  0  0  0  0  0  0  0  0  0  0
   36.4270   26.3220   36.4380 H   0  0  0  0  0  0  0  0  0  0  0  0
   35.8730   28.1970   37.3250 C   0  0  0  0  0  0  0  0  0  0  0  0
   35.1930   27.9140   38.1170 H   0  0  0  0  0  0  0  0  0  0  0  0
   35.2320   28.2940   36.4000 H   0  0  0  0  0  0  0  0  0  0  0  0
   37.6960   31.4350   37.0310 C   0  0  0  0  0  0  0  0  0  0  0  0
   37.7110   31.8520   38.3840 C   0  0  0  0  0  0  0  0  0  0  0  0
   37.1070   31.0170   39.3030 C   0  0  0  0  0  0  0  0  0  0  0  0
   36.5640   29.8900   38.8210 N   0  0  0  0  0  0  0  0  0  0  0  0
   36.5530   29.5040   37.5490 C   0  0  0  0  0  0  0  0  0  0  0  0
   37.1280   30.2960   36.6640 N   0  0  0  0  0  0  0  0  0  0  0  0
   38.1500   32.0400   36.2550 H   0  0  0  0  0  0  0  0  0  0  0  0
   38.1920   32.7900   38.5950 H   0  0  0  0  0  0  0  0  0  0  0  0
   37.1190   31.4470   40.7010 C   0  0  0  0  0  0  0  0  0  0  0  0
   35.8850   31.1600   41.2880 F   0  0  0  0  0  0  0  0  0  0  0  0
   37.1650   32.8380   40.6790 F   0  0  0  0  0  0  0  0  0  0  0  0
   38.1290   30.8870   41.4240 F   0  0  0  0  0  0  0  0  0  0  0  0
  1  5  2  0  0  0  0
  1  2  1  0  0  0  0
  2  3  2  0  0  0  0
  3  8  1  0  0  0  0
  4  3  1  0  0  0  0
  4 17  1  0  0  0  0
  5  4  1  0  0  0  0
  6  2  1  0  0  0  0
  7 16  1  0  0  0  0
  7 14  1  0  0  0  0
  8  9  1  0  0  0  0
  8  7  2  0  0  0  0
  9 11  2  0  0  0  0
 10  9  1  0  0  0  0
 11 12  1  0  0  0  0
 11 13  1  0  0  0  0
 14 13  2  0  0  0  0
 15 16  3  0  0  0  0
 17 18  1  0  0  0  0
 17 20  1  0  0  0  0
 19 17  1  0  0  0  0
 21 24  1  0  0  0  0
 21  1  1  0  0  0  0
 22 21  1  0  0  0  0
 23 21  1  0  0  0  0
 24 31  1  0  0  0  0
 24 25  1  0  0  0  0
 26 24  1  0  0  0  0
 27 28  1  0  0  0  0
 28 34  1  0  0  0  0
 28 29  2  0  0  0  0
 29 35  1  0  0  0  0
 30 29  1  0  0  0  0
 31 30  2  0  0  0  0
 32 27  2  0  0  0  0
 32 31  1  0  0  0  0
 33 27  1  0  0  0  0
 35 36  1  0  0  0  0
 35 38  1  0  0  0  0
 37 35  1  0  0  0  0
M  END
>  <minimizedAffinity>
-5.8273921

$$$$
