
 OpenBabel03252508023D

 43 46  0  0  1  0  0  0  0  0999 V2000
   42.0400   33.2740   41.1330 C   0  0  0  0  0  0  0  0  0  0  0  0
   42.8030   34.3930   41.3070 C   0  0  0  0  0  0  0  0  0  0  0  0
   42.1580   35.6460   41.2540 C   0  0  0  0  0  0  0  0  0  0  0  0
   40.8090   35.7930   41.0380 C   0  0  0  0  0  0  0  0  0  0  0  0
   40.0490   34.6640   40.8650 C   0  0  0  0  0  0  0  0  0  0  0  0
   40.6670   33.4500   40.9150 C   0  0  0  0  0  0  0  0  0  0  0  0
   42.6780   36.5870   41.3700 H   0  0  0  0  0  0  0  0  0  0  0  0
   40.3240   36.7320   40.9980 H   0  0  0  0  0  0  0  0  0  0  0  0
   39.0030   34.7000   40.6940 H   0  0  0  0  0  0  0  0  0  0  0  0
   40.0490   32.5480   40.7740 H   0  0  0  0  0  0  0  0  0  0  0  0
   42.6640   31.7180   41.2720 S   0  0  0  0  0  0  0  0  0  0  0  0
   41.5030   30.8940   40.6300 O   0  0  0  0  0  0  0  0  0  0  0  0
   42.7880   31.2590   42.6750 O   0  0  0  0  0  0  0  0  0  0  0  0
   43.7810   29.4660   40.5350 C   0  0  0  0  0  0  0  0  0  0  0  0
   43.7090   30.8610   40.2660 C   0  0  0  0  0  0  0  0  0  0  0  0
   44.4980   31.1790   39.1640 C   0  0  0  0  0  0  0  0  0  0  0  0
   44.3880   32.2580   38.9440 H   0  0  0  0  0  0  0  0  0  0  0  0
   45.2910   30.4120   38.3430 C   0  0  0  0  0  0  0  0  0  0  0  0
   45.8180   30.8920   37.5410 H   0  0  0  0  0  0  0  0  0  0  0  0
   45.2380   29.1250   38.7470 C   0  0  0  0  0  3  0  0  0  0  0  0
   44.5340   28.5930   39.7900 C   0  0  0  0  0  3  0  0  0  0  0  0
   42.4970   28.3480   42.5230 N   0  0  0  0  0  0  0  0  0  0  0  0
   43.0550   28.8460   41.6410 C   0  0  0  0  0  0  0  0  0  0  0  0
   44.2350   34.3450   41.5430 C   0  0  0  0  0  0  0  0  0  0  0  0
   45.1070   34.2360   40.6280 O   0  0  0  0  0  0  0  0  0  0  0  0
   44.5840   34.4380   42.9380 C   0  0  0  0  0  0  0  0  0  0  0  0
   44.3020   35.7010   43.5640 C   0  0  0  0  0  0  0  0  0  0  0  0
   44.6250   35.8140   44.9080 C   0  0  0  0  0  0  0  0  0  0  0  0
   45.1760   34.7430   45.5360 N   0  0  0  0  0  0  0  0  0  0  0  0
   45.4240   33.5590   44.8890 C   0  0  0  0  0  0  0  0  0  0  0  0
   45.1270   33.4470   43.6400 N   0  0  0  0  0  0  0  0  0  0  0  0
   43.8750   36.5830   43.1420 H   0  0  0  0  0  0  0  0  0  0  0  0
   44.4630   36.6980   45.4790 H   0  0  0  0  0  0  0  0  0  0  0  0
   46.0160   32.4440   45.6570 C   0  0  1  0  0  0  0  0  0  0  0  0
   46.9660   32.7580   46.7890 C   0  0  0  0  0  0  0  0  0  0  0  0
   45.5520   32.3430   47.0590 C   0  0  1  0  0  0  0  0  0  0  0  0
   46.1330   31.4930   45.1140 H   0  0  0  0  0  0  0  0  0  0  0  0
   47.2990   33.8030   46.8650 H   0  0  0  0  0  0  0  0  0  0  0  0
   47.7660   31.9900   46.9880 H   0  0  0  0  0  0  0  0  0  0  0  0
   45.4130   31.3600   47.5490 H   0  0  0  0  0  0  0  0  0  0  0  0
   44.7610   33.4090   47.6480 N   0  0  0  0  0  0  0  0  0  0  0  0
   45.2750   33.8480   48.4360 H   0  0  0  0  0  0  0  0  0  0  0  0
   43.8610   32.9820   48.0000 H   0  0  0  0  0  0  0  0  0  0  0  0
  1 11  1  0  0  0  0
  1  2  1  0  0  0  0
  2 24  1  0  0  0  0
  3  2  2  0  0  0  0
  3  7  1  0  0  0  0
  4  3  1  0  0  0  0
  5  6  1  0  0  0  0
  5  4  2  0  0  0  0
  6  1  2  0  0  0  0
  8  4  1  0  0  0  0
  9  5  1  0  0  0  0
 10  6  1  0  0  0  0
 11 13  2  0  0  0  0
 12 11  2  0  0  0  0
 14 23  1  0  0  0  0
 15 14  1  0  0  0  0
 15 11  1  0  0  0  0
 16 15  2  0  0  0  0
 17 16  1  0  0  0  0
 18 20  2  0  0  0  0
 18 16  1  0  0  0  0
 19 18  1  0  0  0  0
 20 21  1  0  0  0  0
 21 14  2  0  0  0  0
 23 22  3  0  0  0  0
 24 26  1  0  0  0  0
 25 24  2  0  0  0  0
 26 27  2  0  0  0  0
 26 31  1  0  0  0  0
 27 28  1  0  0  0  0
 28 33  1  0  0  0  0
 28 29  2  0  0  0  0
 30 29  1  0  0  0  0
 30 34  1  0  0  0  0
 31 30  2  0  0  0  0
 32 27  1  0  0  0  0
 34 37  1  6  0  0  0
 34 35  1  0  0  0  0
 34 36  1  0  0  0  0
 35 38  1  0  0  0  0
 35 39  1  0  0  0  0
 35 36  1  0  0  0  0
 36 40  1  1  0  0  0
 36 41  1  0  0  0  0
 41 43  1  0  0  0  0
 41 42  1  0  0  0  0
M  END
>  <minimizedAffinity>
-5.52898884

>  <minimizedRMSD>
1.21879315

$$$$
