
 OpenBabel03252503163D

 37 40  0  0  0  0  0  0  0  0999 V2000
   43.9270   35.1510   41.9960 C   0  0  0  0  0  0  0  0  0  0  0  0
   42.7150   34.5290   42.2280 C   0  0  0  0  0  0  0  0  0  0  0  0
   42.2290   34.2270   41.0120 N   0  0  0  0  0  0  0  0  0  0  0  0
   43.1100   34.6490   40.0750 C   0  0  0  0  0  0  0  0  0  0  0  0
   44.1650   35.2230   40.6840 N   0  0  0  0  0  0  0  0  0  0  0  0
   43.0690   34.5700   38.6460 N   0  0  0  0  0  0  0  0  0  0  0  0
   42.2520   34.3250   43.1640 H   0  0  0  0  0  0  0  0  0  0  0  0
   42.1140   34.8420   38.3430 H   0  0  0  0  0  0  0  0  0  0  0  0
   43.9120   34.2790   38.0980 H   0  0  0  0  0  0  0  0  0  0  0  0
   39.9170   34.3670   40.4320 C   0  0  0  0  0  0  0  0  0  0  0  0
   41.0260   33.5860   40.6550 C   0  0  0  0  0  0  0  0  0  0  0  0
   40.8710   32.2210   40.5090 C   0  0  0  0  0  0  0  0  0  0  0  0
   41.7400   31.6160   40.6840 H   0  0  0  0  0  0  0  0  0  0  0  0
   39.6610   31.6500   40.1560 C   0  0  0  0  0  0  0  0  0  0  0  0
   39.5490   30.5690   40.0420 H   0  0  0  0  0  0  0  0  0  0  0  0
   38.5370   32.4330   39.9280 C   0  0  0  0  0  3  0  0  0  0  0  0
   38.7120   33.7970   40.0790 C   0  0  0  0  0  3  0  0  0  0  0  0
   40.0320   36.9410   40.6630 N   0  0  0  0  0  0  0  0  0  0  0  0
   39.9740   35.7930   40.5560 C   0  0  0  0  0  0  0  0  0  0  0  0
   44.8660   35.6830   43.0510 C   0  0  0  0  0  0  0  0  0  0  0  0
   45.1320   36.9090   43.2080 O   0  0  0  0  0  0  0  0  0  0  0  0
   44.9660   34.5550   45.2190 C   0  0  0  0  0  0  0  0  0  0  0  0
   45.5200   34.7900   43.9500 C   0  0  0  0  0  0  0  0  0  0  0  0
   46.6900   34.1080   43.6830 C   0  0  0  0  0  0  0  0  0  0  0  0
   47.2670   33.2810   44.5600 N   0  0  0  0  0  0  0  0  0  0  0  0
   46.6890   33.0850   45.7800 C   0  0  0  0  0  0  0  0  0  0  0  0
   45.5380   33.7290   46.0960 N   0  0  0  0  0  0  0  0  0  0  0  0
   44.0480   35.0330   45.5430 H   0  0  0  0  0  0  0  0  0  0  0  0
   47.1960   32.4040   46.4540 H   0  0  0  0  0  0  0  0  0  0  0  0
   47.3060   34.3020   42.4240 C   0  0  0  0  0  0  0  0  0  0  0  0
   48.1080   35.2480   41.8670 C   0  0  0  0  0  0  0  0  0  0  0  0
   48.5610   35.1950   40.6330 C   0  0  0  0  0  0  0  0  0  0  0  0
   48.1780   34.1150   39.9180 C   0  0  0  0  0  0  0  0  0  0  0  0
   47.1300   33.1540   41.0730 S   0  0  0  0  0  0  0  0  0  0  0  0
   48.3430   36.0770   42.5680 H   0  0  0  0  0  0  0  0  0  0  0  0
   49.2010   35.9300   40.1620 H   0  0  0  0  0  0  0  0  0  0  0  0
   48.4770   33.8790   38.7890 H   0  0  0  0  0  0  0  0  0  0  0  0
  1  2  2  0  0  0  0
  1 20  1  0  0  0  0
  2  7  1  0  0  0  0
  3  2  1  0  0  0  0
  4  5  2  0  0  0  0
  4  3  1  0  0  0  0
  5  1  1  0  0  0  0
  6  4  1  0  0  0  0
  8  6  1  0  0  0  0
  9  6  1  0  0  0  0
 10 19  1  0  0  0  0
 10 11  1  0  0  0  0
 11  3  1  0  0  0  0
 12 11  2  0  0  0  0
 12 13  1  0  0  0  0
 14 12  1  0  0  0  0
 15 14  1  0  0  0  0
 16 17  1  0  0  0  0
 16 14  2  0  0  0  0
 17 10  2  0  0  0  0
 19 18  3  0  0  0  0
 20 21  2  0  0  0  0
 20 23  1  0  0  0  0
 22 28  1  0  0  0  0
 22 27  1  0  0  0  0
 23 22  2  0  0  0  0
 24 23  1  0  0  0  0
 24 25  2  0  0  0  0
 25 26  1  0  0  0  0
 26 27  2  0  0  0  0
 26 29  1  0  0  0  0
 30 24  1  0  0  0  0
 31 30  2  0  0  0  0
 31 35  1  0  0  0  0
 32 31  1  0  0  0  0
 33 32  2  0  0  0  0
 33 34  1  0  0  0  0
 34 30  1  0  0  0  0
 36 32  1  0  0  0  0
 37 33  1  0  0  0  0
M  END
>  <minimizedAffinity>
-6.54808664

>  <minimizedRMSD>
3.07380605

$$$$
