
     RDKit          3D

 28 29  0  0  0  0  0  0  0  0999 V2000
   45.4265   35.2033   43.0901 C   0  0  0  0  0  0  0  0  0  0  0  0
   46.4567   35.5583   42.2102 C   0  0  0  0  0  0  0  0  0  0  0  0
   47.6811   34.8834   42.3806 C   0  0  0  0  0  0  0  0  0  0  0  0
   47.7592   33.9532   43.3669 N   0  0  0  0  0  0  0  0  0  0  0  0
   46.7472   33.6421   44.1837 C   0  0  0  0  0  0  0  0  0  0  0  0
   45.5710   34.2739   44.0447 N   0  0  0  0  0  0  0  0  0  0  0  0
   43.4046   35.3446   41.8981 C   0  0  0  0  0  0  0  0  0  0  0  0
   43.9414   34.4659   41.1513 O   0  0  0  0  0  0  0  0  0  0  0  0
   44.1517   35.8394   42.9948 N   0  0  0  0  0  0  0  0  0  0  0  0
   48.7419   35.2659   41.4588 C   0  0  0  0  0  0  0  0  0  0  0  0
   49.8525   34.4553   41.6660 F   0  0  0  0  0  0  0  0  0  0  0  0
   49.1473   36.5440   41.8024 F   0  0  0  0  0  0  0  0  0  0  0  0
   48.3910   35.1428   40.1483 F   0  0  0  0  0  0  0  0  0  0  0  0
   46.3281   36.2914   41.4541 H   0  0  0  0  0  0  0  0  0  0  0  0
   46.8214   32.8832   44.9635 H   0  0  0  0  0  0  0  0  0  0  0  0
   43.6554   36.5746   43.5503 H   0  0  0  0  0  0  0  0  0  0  0  0
   41.5001   36.2206   44.8381 N   0  0  0  0  0  0  0  0  0  0  0  0
   41.2680   36.1522   43.6992 C   0  0  0  0  0  0  0  0  0  0  0  0
   40.9931   36.0885   42.2888 C   0  0  0  0  0  0  0  0  0  0  0  0
   42.0432   35.7015   41.4744 C   0  0  0  0  0  0  0  0  0  0  0  0
   41.8811   35.6039   40.1081 C   0  0  0  0  0  0  0  0  0  0  0  0
   42.6282   35.3110   39.3792 H   0  0  0  0  0  0  0  0  0  0  0  0
   40.6305   35.9045   39.5517 C   0  0  0  0  0  0  0  0  0  0  0  0
   40.4384   35.8517   38.4980 H   0  0  0  0  0  0  0  0  0  0  0  0
   39.5742   36.2910   40.3527 C   0  0  0  0  0  0  0  0  0  0  0  0
   39.7666   36.3781   41.7122 C   0  0  0  0  0  0  0  0  0  0  0  0
   38.6047   36.5181   39.9458 H   0  0  0  0  0  0  0  0  0  0  0  0
   38.9705   36.6787   42.3896 H   0  0  0  0  0  0  0  0  0  0  0  0
  1  6  2  0
  2  3  2  0
  2  1  1  0
  3  4  1  0
  4  5  2  0
  6  5  1  0
  7  9  1  0
  8  7  2  0
  9  1  1  0
 10 11  1  0
 10 12  1  0
 10  3  1  0
 13 10  1  0
  2 14  1  0
  5 15  1  0
  9 16  1  0
 17 18  3  0
 18 19  1  0
 19 20  2  0
 20 21  1  0
 21 22  1  0
 21 23  2  0
 23 24  1  0
 23 25  1  0
 25 26  2  0
 26 19  1  0
 25 27  1  0
 26 28  1  0
  7 20  1  0
M  ISO  4  14  14  15  14  22  15  24  16
M  END
>  <DihAtoms>  (1) 
8,6,19,18

>  <DihDeg>  (1) 
73.33732684823302

$$$$
