
 OpenBabel03252507463D

 38 40  0  0  0  0  0  0  0  0999 V2000
   46.9670   34.2820   40.9360 C   0  0  0  0  0  0  0  0  0  0  0  0
   47.0760   34.9760   40.0700 H   0  0  0  0  0  0  0  0  0  0  0  0
   46.3800   33.3730   40.6910 H   0  0  0  0  0  0  0  0  0  0  0  0
   48.3240   33.9730   41.3990 C   0  0  0  0  0  0  0  0  0  0  0  0
   48.8110   32.7210   41.0550 C   0  0  0  0  0  0  0  0  0  0  0  0
   50.0900   32.3270   41.4620 C   0  0  0  0  0  0  0  0  0  0  0  0
   50.8200   33.2190   42.2000 N   0  0  0  0  0  0  0  0  0  0  0  0
   50.3010   34.4320   42.5120 C   0  0  0  0  0  0  0  0  0  0  0  0
   49.0810   34.7800   42.1120 N   0  0  0  0  0  0  0  0  0  0  0  0
   50.4350   31.3500   41.1780 H   0  0  0  0  0  0  0  0  0  0  0  0
   50.8560   35.1520   43.0930 H   0  0  0  0  0  0  0  0  0  0  0  0
   47.8310   31.5540   40.0980 S   0  0  0  0  0  0  0  0  0  0  0  0
   46.7370   32.1260   37.4940 C   0  0  0  0  0  0  0  0  0  0  0  0
   47.7860   31.9950   38.3740 C   0  0  0  0  0  0  0  0  0  0  0  0
   49.0780   32.2310   37.8880 C   0  0  0  0  0  0  0  0  0  0  0  0
   50.0190   32.1730   38.4400 H   0  0  0  0  0  0  0  0  0  0  0  0
   49.3120   32.5870   36.5620 C   0  0  0  0  0  0  0  0  0  0  0  0
   50.2690   32.7790   36.1340 H   0  0  0  0  0  0  0  0  0  0  0  0
   48.2300   32.7130   35.6900 C   0  0  0  0  0  3  0  0  0  0  0  0
   46.9760   32.4770   36.1900 C   0  0  0  0  0  3  0  0  0  0  0  0
   44.4200   31.6140   38.5020 N   0  0  0  0  0  0  0  0  0  0  0  0
   45.4670   31.8510   38.0570 C   0  0  0  0  0  0  0  0  0  0  0  0
   46.1460   35.0280   41.9570 C   0  0  0  0  0  0  0  0  0  0  0  0
   46.4770   36.0900   42.0040 H   0  0  0  0  0  0  0  0  0  0  0  0
   46.3130   34.6090   42.9780 H   0  0  0  0  0  0  0  0  0  0  0  0
   44.6780   34.9780   41.7100 C   0  0  0  0  0  0  0  0  0  0  0  0
   43.7800   35.4390   42.7210 C   0  0  0  0  0  0  0  0  0  0  0  0
   42.1320   35.1760   41.9580 S   0  0  0  0  0  0  0  0  0  0  0  0
   42.9470   34.4780   40.3820 C   0  0  0  0  0  0  0  0  0  0  0  0
   44.0530   34.5500   40.6470 N   0  0  0  0  0  0  0  0  0  0  0  0
   44.0460   35.8420   43.6950 H   0  0  0  0  0  0  0  0  0  0  0  0
   42.2160   34.0380   39.2780 O   0  0  0  0  0  0  0  0  0  0  0  0
   40.3100   34.5710   37.5210 O   0  0  0  0  0  0  0  0  0  0  0  0
   41.4130   35.2060   38.3530 P   0  0  0  0  0  0  0  0  0  0  0  0
   40.7210   36.3240   39.4110 O   0  0  0  0  0  0  0  0  0  0  0  0
   39.8880   35.9050   39.7590 H   0  0  0  0  0  0  0  0  0  0  0  0
   42.5330   36.0200   37.3680 O   0  0  0  0  0  0  0  0  0  0  0  0
   42.8470   35.4320   36.6360 H   0  0  0  0  0  0  0  0  0  0  0  0
  1  4  1  0  0  0  0
  1 23  1  0  0  0  0
  2  1  1  0  0  0  0
  3  1  1  0  0  0  0
  4  9  1  0  0  0  0
  5  4  2  0  0  0  0
  5  6  1  0  0  0  0
  6  7  2  0  0  0  0
  7  8  1  0  0  0  0
  8 11  1  0  0  0  0
  9  8  2  0  0  0  0
 10  6  1  0  0  0  0
 12  5  1  0  0  0  0
 13 22  1  0  0  0  0
 13 14  1  0  0  0  0
 14 12  1  0  0  0  0
 15 14  2  0  0  0  0
 15 16  1  0  0  0  0
 17 15  1  0  0  0  0
 18 17  1  0  0  0  0
 19 20  1  0  0  0  0
 19 17  2  0  0  0  0
 20 13  2  0  0  0  0
 22 21  3  0  0  0  0
 23 24  1  0  0  0  0
 23 25  1  0  0  0  0
 26 23  1  0  0  0  0
 26 27  2  0  0  0  0
 27 31  1  0  0  0  0
 28 27  1  0  0  0  0
 29 30  2  0  0  0  0
 29 28  1  0  0  0  0
 30 26  1  0  0  0  0
 32 29  1  0  0  0  0
 33 34  2  0  0  0  0
 34 32  1  0  0  0  0
 34 35  1  0  0  0  0
 35 36  1  0  0  0  0
 37 34  1  0  0  0  0
 38 37  1  0  0  0  0
M  END
>  <minimizedAffinity>
-4.76333857

>  <minimizedRMSD>
0.644598961

$$$$
